data_IWEVAJ_clean_PM
_symmetry_space_group_name_H-M	'P1'
_cell_length_a	26.217000
_cell_length_b	26.217000
_cell_length_c	44.813000
_cell_angle_alpha	90.000000
_cell_angle_beta	90.000000
_cell_angle_gamma	90.000000
_symmetry_Int_Tables_number 1

loop_
_symmetry_equiv_pos_as_xyz
'x,y,z'

loop_
_atom_site_label
_atom_site_type_symbol
_atom_site_fract_x
_atom_site_fract_y
_atom_site_fract_z
O11	O1	0.181800	0.255600	0.469360
O21	O2	0.180900	0.447640	0.357800
O31	O3	0.242500	0.315650	0.469830
O41	O4	0.255500	0.447120	0.313670
O51	O5	0.316140	0.446360	0.350100
O61	O6	0.241800	0.447410	0.393030
C11	C1	0.204000	0.431700	0.380200
C21	C2	0.203300	0.295500	0.460190
C31	C3	0.293700	0.430800	0.326830
C41	C4	0.303000	0.366900	0.284200
C51	C5	0.201100	0.366400	0.421850
C61	C6	0.129900	0.302900	0.423200
C71	C7	0.178400	0.387800	0.396800
C81	C8	0.129400	0.368400	0.383800
C91	C9	0.176200	0.323000	0.434350
C101	C10	0.107400	0.325700	0.397300
C111	C11	0.322000	0.386500	0.310760
N11	N1	0.060600	0.305100	0.382300
O71	O7	0.681800	0.755600	0.969360
O81	O8	0.680900	0.947640	0.857800
O91	O9	0.742500	0.815650	0.969830
O101	O10	0.755500	0.947120	0.813670
O111	O11	0.816140	0.946360	0.850100
O121	O12	0.741800	0.947410	0.893030
C121	C12	0.704000	0.931700	0.880200
C131	C13	0.703300	0.795500	0.960190
C141	C14	0.793700	0.930800	0.826830
C151	C15	0.803000	0.866900	0.784200
C161	C16	0.701100	0.866400	0.921850
C171	C17	0.629900	0.802900	0.923200
C181	C18	0.678400	0.887800	0.896800
C191	C19	0.629400	0.868400	0.883800
C201	C20	0.676200	0.823000	0.934350
C211	C21	0.607400	0.825700	0.897300
C221	C22	0.822000	0.886500	0.810760
N21	N2	0.560600	0.805100	0.882300
O131	O13	0.818200	0.744400	0.469360
O141	O14	0.819100	0.552360	0.357800
O151	O15	0.757500	0.684350	0.469830
O161	O16	0.744500	0.552880	0.313670
O171	O17	0.683860	0.553640	0.350100
O181	O18	0.758200	0.552590	0.393030
C231	C23	0.796000	0.568300	0.380200
C241	C24	0.796700	0.704500	0.460190
C251	C25	0.706300	0.569200	0.326830
C261	C26	0.697000	0.633100	0.284200
C271	C27	0.798900	0.633600	0.421850
C281	C28	0.870100	0.697100	0.423200
C291	C29	0.821600	0.612200	0.396800
C301	C30	0.870600	0.631600	0.383800
C311	C31	0.823800	0.677000	0.434350
C321	C32	0.892600	0.674300	0.397300
C331	C33	0.678000	0.613500	0.310760
N31	N3	0.939400	0.694900	0.382300
O191	O19	0.318200	0.244400	0.969360
O201	O20	0.319100	0.052360	0.857800
O211	O21	0.257500	0.184350	0.969830
O221	O22	0.244500	0.052880	0.813670
O231	O23	0.183860	0.053640	0.850100
O241	O24	0.258200	0.052590	0.893030
C341	C34	0.296000	0.068300	0.880200
C351	C35	0.296700	0.204500	0.960190
C361	C36	0.206300	0.069200	0.826830
C371	C37	0.197000	0.133100	0.784200
C381	C38	0.298900	0.133600	0.921850
C391	C39	0.370100	0.197100	0.923200
C401	C40	0.321600	0.112200	0.896800
C411	C41	0.370600	0.131600	0.883800
C421	C42	0.323800	0.177000	0.934350
C431	C43	0.392600	0.174300	0.897300
C441	C44	0.178000	0.113500	0.810760
N41	N4	0.439400	0.194900	0.882300
O251	O25	0.744400	0.181800	0.469360
O261	O26	0.552360	0.180900	0.357800
O271	O27	0.684350	0.242500	0.469830
O281	O28	0.552880	0.255500	0.313670
O291	O29	0.553640	0.316140	0.350100
O301	O30	0.552590	0.241800	0.393030
C451	C45	0.568300	0.204000	0.380200
C461	C46	0.704500	0.203300	0.460190
C471	C47	0.569200	0.293700	0.326830
C481	C48	0.633100	0.303000	0.284200
C491	C49	0.633600	0.201100	0.421850
C501	C50	0.697100	0.129900	0.423200
C511	C51	0.612200	0.178400	0.396800
C521	C52	0.631600	0.129400	0.383800
C531	C53	0.677000	0.176200	0.434350
C541	C54	0.674300	0.107400	0.397300
C551	C55	0.613500	0.322000	0.310760
N51	N5	0.694900	0.060600	0.382300
O311	O31	0.244400	0.681800	0.969360
O321	O32	0.052360	0.680900	0.857800
O331	O33	0.184350	0.742500	0.969830
O341	O34	0.052880	0.755500	0.813670
O351	O35	0.053640	0.816140	0.850100
O361	O36	0.052590	0.741800	0.893030
C561	C56	0.068300	0.704000	0.880200
C571	C57	0.204500	0.703300	0.960190
C581	C58	0.069200	0.793700	0.826830
C591	C59	0.133100	0.803000	0.784200
C601	C60	0.133600	0.701100	0.921850
C611	C61	0.197100	0.629900	0.923200
C621	C62	0.112200	0.678400	0.896800
C631	C63	0.131600	0.629400	0.883800
C641	C64	0.177000	0.676200	0.934350
C651	C65	0.174300	0.607400	0.897300
C661	C66	0.113500	0.822000	0.810760
N61	N6	0.194900	0.560600	0.882300
O371	O37	0.255600	0.818200	0.469360
O381	O38	0.447640	0.819100	0.357800
O391	O39	0.315650	0.757500	0.469830
O401	O40	0.447120	0.744500	0.313670
O411	O41	0.446360	0.683860	0.350100
O421	O42	0.447410	0.758200	0.393030
C671	C67	0.431700	0.796000	0.380200
C681	C68	0.295500	0.796700	0.460190
C691	C69	0.430800	0.706300	0.326830
C701	C70	0.366900	0.697000	0.284200
C711	C71	0.366400	0.798900	0.421850
C721	C72	0.302900	0.870100	0.423200
C731	C73	0.387800	0.821600	0.396800
C741	C74	0.368400	0.870600	0.383800
C751	C75	0.323000	0.823800	0.434350
C761	C76	0.325700	0.892600	0.397300
C771	C77	0.386500	0.678000	0.310760
N71	N7	0.305100	0.939400	0.382300
O431	O43	0.755600	0.318200	0.969360
O441	O44	0.947640	0.319100	0.857800
O451	O45	0.815650	0.257500	0.969830
O461	O46	0.947120	0.244500	0.813670
O471	O47	0.946360	0.183860	0.850100
O481	O48	0.947410	0.258200	0.893030
C781	C78	0.931700	0.296000	0.880200
C791	C79	0.795500	0.296700	0.960190
C801	C80	0.930800	0.206300	0.826830
C811	C81	0.866900	0.197000	0.784200
C821	C82	0.866400	0.298900	0.921850
C831	C83	0.802900	0.370100	0.923200
C841	C84	0.887800	0.321600	0.896800
C851	C85	0.868400	0.370600	0.883800
C861	C86	0.823000	0.323800	0.934350
C871	C87	0.825700	0.392600	0.897300
C881	C88	0.886500	0.178000	0.810760
N81	N8	0.805100	0.439400	0.882300
O491	O49	0.818200	0.255600	0.530640
O501	O50	0.819100	0.447640	0.642200
O511	O51	0.757500	0.315650	0.530170
O521	O52	0.744500	0.447120	0.686330
O531	O53	0.683860	0.446360	0.649900
O541	O54	0.758200	0.447410	0.606970
C891	C89	0.796000	0.431700	0.619800
C901	C90	0.796700	0.295500	0.539810
C911	C91	0.706300	0.430800	0.673170
C921	C92	0.697000	0.366900	0.715800
C931	C93	0.798900	0.366400	0.578150
C941	C94	0.870100	0.302900	0.576800
C951	C95	0.821600	0.387800	0.603200
C961	C96	0.870600	0.368400	0.616200
C971	C97	0.823800	0.323000	0.565650
C981	C98	0.892600	0.325700	0.602700
C991	C99	0.678000	0.386500	0.689240
N91	N9	0.939400	0.305100	0.617700
O551	O55	0.318200	0.755600	0.030640
O561	O56	0.319100	0.947640	0.142200
O571	O57	0.257500	0.815650	0.030170
O581	O58	0.244500	0.947120	0.186330
O591	O59	0.183860	0.946360	0.149900
O601	O60	0.258200	0.947410	0.106970
C1001	C100	0.296000	0.931700	0.119800
C1011	C101	0.296700	0.795500	0.039810
C1021	C102	0.206300	0.930800	0.173170
C1031	C103	0.197000	0.866900	0.215800
C1041	C104	0.298900	0.866400	0.078150
C1051	C105	0.370100	0.802900	0.076800
C1061	C106	0.321600	0.887800	0.103200
C1071	C107	0.370600	0.868400	0.116200
C1081	C108	0.323800	0.823000	0.065650
C1091	C109	0.392600	0.825700	0.102700
C1101	C110	0.178000	0.886500	0.189240
N101	N10	0.439400	0.805100	0.117700
O611	O61	0.181800	0.744400	0.530640
O621	O62	0.180900	0.552360	0.642200
O631	O63	0.242500	0.684350	0.530170
O641	O64	0.255500	0.552880	0.686330
O651	O65	0.316140	0.553640	0.649900
O661	O66	0.241800	0.552590	0.606970
C1111	C111	0.204000	0.568300	0.619800
C1121	C112	0.203300	0.704500	0.539810
C1131	C113	0.293700	0.569200	0.673170
C1141	C114	0.303000	0.633100	0.715800
C1151	C115	0.201100	0.633600	0.578150
C1161	C116	0.129900	0.697100	0.576800
C1171	C117	0.178400	0.612200	0.603200
C1181	C118	0.129400	0.631600	0.616200
C1191	C119	0.176200	0.677000	0.565650
C1201	C120	0.107400	0.674300	0.602700
C1211	C121	0.322000	0.613500	0.689240
N111	N11	0.060600	0.694900	0.617700
O671	O67	0.681800	0.244400	0.030640
O681	O68	0.680900	0.052360	0.142200
O691	O69	0.742500	0.184350	0.030170
O701	O70	0.755500	0.052880	0.186330
O711	O71	0.816140	0.053640	0.149900
O721	O72	0.741800	0.052590	0.106970
C1221	C122	0.704000	0.068300	0.119800
C1231	C123	0.703300	0.204500	0.039810
C1241	C124	0.793700	0.069200	0.173170
C1251	C125	0.803000	0.133100	0.215800
C1261	C126	0.701100	0.133600	0.078150
C1271	C127	0.629900	0.197100	0.076800
C1281	C128	0.678400	0.112200	0.103200
C1291	C129	0.629400	0.131600	0.116200
C1301	C130	0.676200	0.177000	0.065650
C1311	C131	0.607400	0.174300	0.102700
C1321	C132	0.822000	0.113500	0.189240
N121	N12	0.560600	0.194900	0.117700
O731	O73	0.255600	0.181800	0.530640
O741	O74	0.447640	0.180900	0.642200
O751	O75	0.315650	0.242500	0.530170
O761	O76	0.447120	0.255500	0.686330
O771	O77	0.446360	0.316140	0.649900
O781	O78	0.447410	0.241800	0.606970
C1331	C133	0.431700	0.204000	0.619800
C1341	C134	0.295500	0.203300	0.539810
C1351	C135	0.430800	0.293700	0.673170
C1361	C136	0.366900	0.303000	0.715800
C1371	C137	0.366400	0.201100	0.578150
C1381	C138	0.302900	0.129900	0.576800
C1391	C139	0.387800	0.178400	0.603200
C1401	C140	0.368400	0.129400	0.616200
C1411	C141	0.323000	0.176200	0.565650
C1421	C142	0.325700	0.107400	0.602700
C1431	C143	0.386500	0.322000	0.689240
N131	N13	0.305100	0.060600	0.617700
O791	O79	0.755600	0.681800	0.030640
O801	O80	0.947640	0.680900	0.142200
O811	O81	0.815650	0.742500	0.030170
O821	O82	0.947120	0.755500	0.186330
O831	O83	0.946360	0.816140	0.149900
O841	O84	0.947410	0.741800	0.106970
C1441	C144	0.931700	0.704000	0.119800
C1451	C145	0.795500	0.703300	0.039810
C1461	C146	0.930800	0.793700	0.173170
C1471	C147	0.866900	0.803000	0.215800
C1481	C148	0.866400	0.701100	0.078150
C1491	C149	0.802900	0.629900	0.076800
C1501	C150	0.887800	0.678400	0.103200
C1511	C151	0.868400	0.629400	0.116200
C1521	C152	0.823000	0.676200	0.065650
C1531	C153	0.825700	0.607400	0.102700
C1541	C154	0.886500	0.822000	0.189240
N141	N14	0.805100	0.560600	0.117700
O851	O85	0.744400	0.818200	0.530640
O861	O86	0.552360	0.819100	0.642200
O871	O87	0.684350	0.757500	0.530170
O881	O88	0.552880	0.744500	0.686330
O891	O89	0.553640	0.683860	0.649900
O901	O90	0.552590	0.758200	0.606970
C1551	C155	0.568300	0.796000	0.619800
C1561	C156	0.704500	0.796700	0.539810
C1571	C157	0.569200	0.706300	0.673170
C1581	C158	0.633100	0.697000	0.715800
C1591	C159	0.633600	0.798900	0.578150
C1601	C160	0.697100	0.870100	0.576800
C1611	C161	0.612200	0.821600	0.603200
C1621	C162	0.631600	0.870600	0.616200
C1631	C163	0.677000	0.823800	0.565650
C1641	C164	0.674300	0.892600	0.602700
C1651	C165	0.613500	0.678000	0.689240
N151	N15	0.694900	0.939400	0.617700
O911	O91	0.244400	0.318200	0.030640
O921	O92	0.052360	0.319100	0.142200
O931	O93	0.184350	0.257500	0.030170
O941	O94	0.052880	0.244500	0.186330
O951	O95	0.053640	0.183860	0.149900
O961	O96	0.052590	0.258200	0.106970
C1661	C166	0.068300	0.296000	0.119800
C1671	C167	0.204500	0.296700	0.039810
C1681	C168	0.069200	0.206300	0.173170
C1691	C169	0.133100	0.197000	0.215800
C1701	C170	0.133600	0.298900	0.078150
C1711	C171	0.197100	0.370100	0.076800
C1721	C172	0.112200	0.321600	0.103200
C1731	C173	0.131600	0.370600	0.116200
C1741	C174	0.177000	0.323800	0.065650
C1751	C175	0.174300	0.392600	0.102700
C1761	C176	0.113500	0.178000	0.189240
N161	N16	0.194900	0.439400	0.117700
O971	O97	0.818200	0.744400	0.530640
O981	O98	0.819100	0.552360	0.642200
O991	O99	0.757500	0.684350	0.530170
O1001	O100	0.744500	0.552880	0.686330
O1011	O101	0.683860	0.553640	0.649900
O1021	O102	0.758200	0.552590	0.606970
C1771	C177	0.796000	0.568300	0.619800
C1781	C178	0.796700	0.704500	0.539810
C1791	C179	0.706300	0.569200	0.673170
C1801	C180	0.697000	0.633100	0.715800
C1811	C181	0.798900	0.633600	0.578150
C1821	C182	0.870100	0.697100	0.576800
C1831	C183	0.821600	0.612200	0.603200
C1841	C184	0.870600	0.631600	0.616200
C1851	C185	0.823800	0.677000	0.565650
C1861	C186	0.892600	0.674300	0.602700
C1871	C187	0.678000	0.613500	0.689240
N171	N17	0.939400	0.694900	0.617700
O1031	O103	0.318200	0.244400	0.030640
O1041	O104	0.319100	0.052360	0.142200
O1051	O105	0.257500	0.184350	0.030170
O1061	O106	0.244500	0.052880	0.186330
O1071	O107	0.183860	0.053640	0.149900
O1081	O108	0.258200	0.052590	0.106970
C1881	C188	0.296000	0.068300	0.119800
C1891	C189	0.296700	0.204500	0.039810
C1901	C190	0.206300	0.069200	0.173170
C1911	C191	0.197000	0.133100	0.215800
C1921	C192	0.298900	0.133600	0.078150
C1931	C193	0.370100	0.197100	0.076800
C1941	C194	0.321600	0.112200	0.103200
C1951	C195	0.370600	0.131600	0.116200
C1961	C196	0.323800	0.177000	0.065650
C1971	C197	0.392600	0.174300	0.102700
C1981	C198	0.178000	0.113500	0.189240
N181	N18	0.439400	0.194900	0.117700
O1091	O109	0.181800	0.255600	0.530640
O1101	O110	0.180900	0.447640	0.642200
O1111	O111	0.242500	0.315650	0.530170
O1121	O112	0.255500	0.447120	0.686330
O1131	O113	0.316140	0.446360	0.649900
O1141	O114	0.241800	0.447410	0.606970
C1991	C199	0.204000	0.431700	0.619800
C2001	C200	0.203300	0.295500	0.539810
C2011	C201	0.293700	0.430800	0.673170
C2021	C202	0.303000	0.366900	0.715800
C2031	C203	0.201100	0.366400	0.578150
C2041	C204	0.129900	0.302900	0.576800
C2051	C205	0.178400	0.387800	0.603200
C2061	C206	0.129400	0.368400	0.616200
C2071	C207	0.176200	0.323000	0.565650
C2081	C208	0.107400	0.325700	0.602700
C2091	C209	0.322000	0.386500	0.689240
N191	N19	0.060600	0.305100	0.617700
O1151	O115	0.681800	0.755600	0.030640
O1161	O116	0.680900	0.947640	0.142200
O1171	O117	0.742500	0.815650	0.030170
O1181	O118	0.755500	0.947120	0.186330
O1191	O119	0.816140	0.946360	0.149900
O1201	O120	0.741800	0.947410	0.106970
C2101	C210	0.704000	0.931700	0.119800
C2111	C211	0.703300	0.795500	0.039810
C2121	C212	0.793700	0.930800	0.173170
C2131	C213	0.803000	0.866900	0.215800
C2141	C214	0.701100	0.866400	0.078150
C2151	C215	0.629900	0.802900	0.076800
C2161	C216	0.678400	0.887800	0.103200
C2171	C217	0.629400	0.868400	0.116200
C2181	C218	0.676200	0.823000	0.065650
C2191	C219	0.607400	0.825700	0.102700
C2201	C220	0.822000	0.886500	0.189240
N201	N20	0.560600	0.805100	0.117700
O1211	O121	0.255600	0.818200	0.530640
O1221	O122	0.447640	0.819100	0.642200
O1231	O123	0.315650	0.757500	0.530170
O1241	O124	0.447120	0.744500	0.686330
O1251	O125	0.446360	0.683860	0.649900
O1261	O126	0.447410	0.758200	0.606970
C2211	C221	0.431700	0.796000	0.619800
C2221	C222	0.295500	0.796700	0.539810
C2231	C223	0.430800	0.706300	0.673170
C2241	C224	0.366900	0.697000	0.715800
C2251	C225	0.366400	0.798900	0.578150
C2261	C226	0.302900	0.870100	0.576800
C2271	C227	0.387800	0.821600	0.603200
C2281	C228	0.368400	0.870600	0.616200
C2291	C229	0.323000	0.823800	0.565650
C2301	C230	0.325700	0.892600	0.602700
C2311	C231	0.386500	0.678000	0.689240
N211	N21	0.305100	0.939400	0.617700
O1271	O127	0.755600	0.318200	0.030640
O1281	O128	0.947640	0.319100	0.142200
O1291	O129	0.815650	0.257500	0.030170
O1301	O130	0.947120	0.244500	0.186330
O1311	O131	0.946360	0.183860	0.149900
O1321	O132	0.947410	0.258200	0.106970
C2321	C232	0.931700	0.296000	0.119800
C2331	C233	0.795500	0.296700	0.039810
C2341	C234	0.930800	0.206300	0.173170
C2351	C235	0.866900	0.197000	0.215800
C2361	C236	0.866400	0.298900	0.078150
C2371	C237	0.802900	0.370100	0.076800
C2381	C238	0.887800	0.321600	0.103200
C2391	C239	0.868400	0.370600	0.116200
C2401	C240	0.823000	0.323800	0.065650
C2411	C241	0.825700	0.392600	0.102700
C2421	C242	0.886500	0.178000	0.189240
N221	N22	0.805100	0.439400	0.117700
O1331	O133	0.744400	0.181800	0.530640
O1341	O134	0.552360	0.180900	0.642200
O1351	O135	0.684350	0.242500	0.530170
O1361	O136	0.552880	0.255500	0.686330
O1371	O137	0.553640	0.316140	0.649900
O1381	O138	0.552590	0.241800	0.606970
C2431	C243	0.568300	0.204000	0.619800
C2441	C244	0.704500	0.203300	0.539810
C2451	C245	0.569200	0.293700	0.673170
C2461	C246	0.633100	0.303000	0.715800
C2471	C247	0.633600	0.201100	0.578150
C2481	C248	0.697100	0.129900	0.576800
C2491	C249	0.612200	0.178400	0.603200
C2501	C250	0.631600	0.129400	0.616200
C2511	C251	0.677000	0.176200	0.565650
C2521	C252	0.674300	0.107400	0.602700
C2531	C253	0.613500	0.322000	0.689240
N231	N23	0.694900	0.060600	0.617700
O1391	O139	0.244400	0.681800	0.030640
O1401	O140	0.052360	0.680900	0.142200
O1411	O141	0.184350	0.742500	0.030170
O1421	O142	0.052880	0.755500	0.186330
O1431	O143	0.053640	0.816140	0.149900
O1441	O144	0.052590	0.741800	0.106970
C2541	C254	0.068300	0.704000	0.119800
C2551	C255	0.204500	0.703300	0.039810
C2561	C256	0.069200	0.793700	0.173170
C2571	C257	0.133100	0.803000	0.215800
C2581	C258	0.133600	0.701100	0.078150
C2591	C259	0.197100	0.629900	0.076800
C2601	C260	0.112200	0.678400	0.103200
C2611	C261	0.131600	0.629400	0.116200
C2621	C262	0.177000	0.676200	0.065650
C2631	C263	0.174300	0.607400	0.102700
C2641	C264	0.113500	0.822000	0.189240
N241	N24	0.194900	0.560600	0.117700
O1451	O145	0.181800	0.744400	0.469360
O1461	O146	0.180900	0.552360	0.357800
O1471	O147	0.242500	0.684350	0.469830
O1481	O148	0.255500	0.552880	0.313670
O1491	O149	0.316140	0.553640	0.350100
O1501	O150	0.241800	0.552590	0.393030
C2651	C265	0.204000	0.568300	0.380200
C2661	C266	0.203300	0.704500	0.460190
C2671	C267	0.293700	0.569200	0.326830
C2681	C268	0.303000	0.633100	0.284200
C2691	C269	0.201100	0.633600	0.421850
C2701	C270	0.129900	0.697100	0.423200
C2711	C271	0.178400	0.612200	0.396800
C2721	C272	0.129400	0.631600	0.383800
C2731	C273	0.176200	0.677000	0.434350
C2741	C274	0.107400	0.674300	0.397300
C2751	C275	0.322000	0.613500	0.310760
N251	N25	0.060600	0.694900	0.382300
O1511	O151	0.681800	0.244400	0.969360
O1521	O152	0.680900	0.052360	0.857800
O1531	O153	0.742500	0.184350	0.969830
O1541	O154	0.755500	0.052880	0.813670
O1551	O155	0.816140	0.053640	0.850100
O1561	O156	0.741800	0.052590	0.893030
C2761	C276	0.704000	0.068300	0.880200
C2771	C277	0.703300	0.204500	0.960190
C2781	C278	0.793700	0.069200	0.826830
C2791	C279	0.803000	0.133100	0.784200
C2801	C280	0.701100	0.133600	0.921850
C2811	C281	0.629900	0.197100	0.923200
C2821	C282	0.678400	0.112200	0.896800
C2831	C283	0.629400	0.131600	0.883800
C2841	C284	0.676200	0.177000	0.934350
C2851	C285	0.607400	0.174300	0.897300
C2861	C286	0.822000	0.113500	0.810760
N261	N26	0.560600	0.194900	0.882300
O1571	O157	0.818200	0.255600	0.469360
O1581	O158	0.819100	0.447640	0.357800
O1591	O159	0.757500	0.315650	0.469830
O1601	O160	0.744500	0.447120	0.313670
O1611	O161	0.683860	0.446360	0.350100
O1621	O162	0.758200	0.447410	0.393030
C2871	C287	0.796000	0.431700	0.380200
C2881	C288	0.796700	0.295500	0.460190
C2891	C289	0.706300	0.430800	0.326830
C2901	C290	0.697000	0.366900	0.284200
C2911	C291	0.798900	0.366400	0.421850
C2921	C292	0.870100	0.302900	0.423200
C2931	C293	0.821600	0.387800	0.396800
C2941	C294	0.870600	0.368400	0.383800
C2951	C295	0.823800	0.323000	0.434350
C2961	C296	0.892600	0.325700	0.397300
C2971	C297	0.678000	0.386500	0.310760
N271	N27	0.939400	0.305100	0.382300
O1631	O163	0.318200	0.755600	0.969360
O1641	O164	0.319100	0.947640	0.857800
O1651	O165	0.257500	0.815650	0.969830
O1661	O166	0.244500	0.947120	0.813670
O1671	O167	0.183860	0.946360	0.850100
O1681	O168	0.258200	0.947410	0.893030
C2981	C298	0.296000	0.931700	0.880200
C2991	C299	0.296700	0.795500	0.960190
C3001	C300	0.206300	0.930800	0.826830
C3011	C301	0.197000	0.866900	0.784200
C3021	C302	0.298900	0.866400	0.921850
C3031	C303	0.370100	0.802900	0.923200
C3041	C304	0.321600	0.887800	0.896800
C3051	C305	0.370600	0.868400	0.883800
C3061	C306	0.323800	0.823000	0.934350
C3071	C307	0.392600	0.825700	0.897300
C3081	C308	0.178000	0.886500	0.810760
N281	N28	0.439400	0.805100	0.882300
O1691	O169	0.744400	0.818200	0.469360
O1701	O170	0.552360	0.819100	0.357800
O1711	O171	0.684350	0.757500	0.469830
O1721	O172	0.552880	0.744500	0.313670
O1731	O173	0.553640	0.683860	0.350100
O1741	O174	0.552590	0.758200	0.393030
C3091	C309	0.568300	0.796000	0.380200
C3101	C310	0.704500	0.796700	0.460190
C3111	C311	0.569200	0.706300	0.326830
C3121	C312	0.633100	0.697000	0.284200
C3131	C313	0.633600	0.798900	0.421850
C3141	C314	0.697100	0.870100	0.423200
C3151	C315	0.612200	0.821600	0.396800
C3161	C316	0.631600	0.870600	0.383800
C3171	C317	0.677000	0.823800	0.434350
C3181	C318	0.674300	0.892600	0.397300
C3191	C319	0.613500	0.678000	0.310760
N291	N29	0.694900	0.939400	0.382300
O1751	O175	0.244400	0.318200	0.969360
O1761	O176	0.052360	0.319100	0.857800
O1771	O177	0.184350	0.257500	0.969830
O1781	O178	0.052880	0.244500	0.813670
O1791	O179	0.053640	0.183860	0.850100
O1801	O180	0.052590	0.258200	0.893030
C3201	C320	0.068300	0.296000	0.880200
C3211	C321	0.204500	0.296700	0.960190
C3221	C322	0.069200	0.206300	0.826830
C3231	C323	0.133100	0.197000	0.784200
C3241	C324	0.133600	0.298900	0.921850
C3251	C325	0.197100	0.370100	0.923200
C3261	C326	0.112200	0.321600	0.896800
C3271	C327	0.131600	0.370600	0.883800
C3281	C328	0.177000	0.323800	0.934350
C3291	C329	0.174300	0.392600	0.897300
C3301	C330	0.113500	0.178000	0.810760
N301	N30	0.194900	0.439400	0.882300
O1811	O181	0.255600	0.181800	0.469360
O1821	O182	0.447640	0.180900	0.357800
O1831	O183	0.315650	0.242500	0.469830
O1841	O184	0.447120	0.255500	0.313670
O1851	O185	0.446360	0.316140	0.350100
O1861	O186	0.447410	0.241800	0.393030
C3311	C331	0.431700	0.204000	0.380200
C3321	C332	0.295500	0.203300	0.460190
C3331	C333	0.430800	0.293700	0.326830
C3341	C334	0.366900	0.303000	0.284200
C3351	C335	0.366400	0.201100	0.421850
C3361	C336	0.302900	0.129900	0.423200
C3371	C337	0.387800	0.178400	0.396800
C3381	C338	0.368400	0.129400	0.383800
C3391	C339	0.323000	0.176200	0.434350
C3401	C340	0.325700	0.107400	0.397300
C3411	C341	0.386500	0.322000	0.310760
N311	N31	0.305100	0.060600	0.382300
O1871	O187	0.755600	0.681800	0.969360
O1881	O188	0.947640	0.680900	0.857800
O1891	O189	0.815650	0.742500	0.969830
O1901	O190	0.947120	0.755500	0.813670
O1911	O191	0.946360	0.816140	0.850100
O1921	O192	0.947410	0.741800	0.893030
C3421	C342	0.931700	0.704000	0.880200
C3431	C343	0.795500	0.703300	0.960190
C3441	C344	0.930800	0.793700	0.826830
C3451	C345	0.866900	0.803000	0.784200
C3461	C346	0.866400	0.701100	0.921850
C3471	C347	0.802900	0.629900	0.923200
C3481	C348	0.887800	0.678400	0.896800
C3491	C349	0.868400	0.629400	0.883800
C3501	C350	0.823000	0.676200	0.934350
C3511	C351	0.825700	0.607400	0.897300
C3521	C352	0.886500	0.822000	0.810760
N321	N32	0.805100	0.560600	0.882300
Cu11	Cu1	0.213240	0.213240	0.500000
Cu21	Cu2	0.284710	0.284710	0.500000
Cu31	Cu3	0.713240	0.713240	0.000000
Cu41	Cu4	0.784710	0.784710	0.000000
Cu51	Cu5	0.786760	0.786760	0.500000
Cu61	Cu6	0.715290	0.715290	0.500000
Cu71	Cu7	0.286760	0.286760	0.000000
Cu81	Cu8	0.215290	0.215290	0.000000
Cu91	Cu9	0.786760	0.213240	0.500000
Cu101	Cu10	0.715290	0.284710	0.500000
Cu111	Cu11	0.286760	0.713240	0.000000
Cu121	Cu12	0.215290	0.784710	0.000000
Cu131	Cu13	0.213240	0.786760	0.500000
Cu141	Cu14	0.284710	0.715290	0.500000
Cu151	Cu15	0.713240	0.286760	0.000000
Cu161	Cu16	0.784710	0.215290	0.000000
Cu171	Cu17	0.284550	0.500000	0.374130
Cu181	Cu18	0.213130	0.500000	0.332550
Cu191	Cu19	0.784550	0.000000	0.874130
Cu201	Cu20	0.713130	0.000000	0.832550
Cu211	Cu21	0.715450	0.500000	0.374130
Cu221	Cu22	0.786870	0.500000	0.332550
Cu231	Cu23	0.215450	0.000000	0.874130
Cu241	Cu24	0.286870	0.000000	0.832550
Cu251	Cu25	0.500000	0.284550	0.374130
Cu261	Cu26	0.500000	0.213130	0.332550
Cu271	Cu27	0.000000	0.784550	0.874130
Cu281	Cu28	0.000000	0.713130	0.832550
Cu291	Cu29	0.500000	0.715450	0.374130
Cu301	Cu30	0.500000	0.786870	0.332550
Cu311	Cu31	0.000000	0.215450	0.874130
Cu321	Cu32	0.000000	0.286870	0.832550
Cu331	Cu33	0.715450	0.500000	0.625870
Cu341	Cu34	0.786870	0.500000	0.667450
Cu351	Cu35	0.215450	0.000000	0.125870
Cu361	Cu36	0.286870	0.000000	0.167450
Cu371	Cu37	0.284550	0.500000	0.625870
Cu381	Cu38	0.213130	0.500000	0.667450
Cu391	Cu39	0.784550	0.000000	0.125870
Cu401	Cu40	0.713130	0.000000	0.167450
Cu411	Cu41	0.500000	0.284550	0.625870
Cu421	Cu42	0.500000	0.213130	0.667450
Cu431	Cu43	0.000000	0.784550	0.125870
Cu441	Cu44	0.000000	0.713130	0.167450
Cu451	Cu45	0.500000	0.715450	0.625870
Cu461	Cu46	0.500000	0.786870	0.667450
Cu471	Cu47	0.000000	0.215450	0.125870
Cu481	Cu48	0.000000	0.286870	0.167450
N331	N33	0.303300	0.303300	0.243600
C3531	C353	0.364300	0.364300	0.325000
C3541	C354	0.326500	0.326500	0.270100
N341	N34	0.803300	0.803300	0.743600
C3551	C355	0.864300	0.864300	0.825000
C3561	C356	0.826500	0.826500	0.770100
N351	N35	0.696700	0.696700	0.243600
C3571	C357	0.635700	0.635700	0.325000
C3581	C358	0.673500	0.673500	0.270100
N361	N36	0.196700	0.196700	0.743600
C3591	C359	0.135700	0.135700	0.825000
C3601	C360	0.173500	0.173500	0.770100
N371	N37	0.696700	0.303300	0.243600
C3611	C361	0.635700	0.364300	0.325000
C3621	C362	0.673500	0.326500	0.270100
N381	N38	0.196700	0.803300	0.743600
C3631	C363	0.135700	0.864300	0.825000
C3641	C364	0.173500	0.826500	0.770100
N391	N39	0.303300	0.696700	0.243600
C3651	C365	0.364300	0.635700	0.325000
C3661	C366	0.326500	0.673500	0.270100
N401	N40	0.803300	0.196700	0.743600
C3671	C367	0.864300	0.135700	0.825000
C3681	C368	0.826500	0.173500	0.770100
N411	N41	0.696700	0.303300	0.756400
C3691	C369	0.635700	0.364300	0.675000
C3701	C370	0.673500	0.326500	0.729900
N421	N42	0.196700	0.803300	0.256400
C3711	C371	0.135700	0.864300	0.175000
C3721	C372	0.173500	0.826500	0.229900
N431	N43	0.303300	0.696700	0.756400
C3731	C373	0.364300	0.635700	0.675000
C3741	C374	0.326500	0.673500	0.729900
N441	N44	0.803300	0.196700	0.256400
C3751	C375	0.864300	0.135700	0.175000
C3761	C376	0.826500	0.173500	0.229900
N451	N45	0.303300	0.303300	0.756400
C3771	C377	0.364300	0.364300	0.675000
C3781	C378	0.326500	0.326500	0.729900
N461	N46	0.803300	0.803300	0.256400
C3791	C379	0.864300	0.864300	0.175000
C3801	C380	0.826500	0.826500	0.229900
N471	N47	0.696700	0.696700	0.756400
C3811	C381	0.635700	0.635700	0.675000
C3821	C382	0.673500	0.673500	0.729900
N481	N48	0.196700	0.196700	0.256400
C3831	C383	0.135700	0.135700	0.175000
C3841	C384	0.173500	0.173500	0.229900
Cu491	Cu49	0.250000	0.250000	0.250000
Cu501	Cu50	0.750000	0.750000	0.250000
Cu511	Cu51	0.750000	0.250000	0.250000
Cu521	Cu52	0.250000	0.750000	0.250000
Cu531	Cu53	0.750000	0.250000	0.750000
Cu541	Cu54	0.250000	0.750000	0.750000
Cu551	Cu55	0.250000	0.250000	0.750000
Cu561	Cu56	0.750000	0.750000	0.750000
