data_IWOSAP_clean_PM
_symmetry_space_group_name_H-M	'P1'
_cell_length_a	7.611200
_cell_length_b	11.927000
_cell_length_c	12.130000
_cell_angle_alpha	67.602000
_cell_angle_beta	89.920000
_cell_angle_gamma	80.498000
_symmetry_Int_Tables_number 1

loop_
_symmetry_equiv_pos_as_xyz
'x,y,z'

loop_
_atom_site_label
_atom_site_type_symbol
_atom_site_fract_x
_atom_site_fract_y
_atom_site_fract_z
Ho11	Ho1	0.992470	0.854830	0.354810
Ho21	Ho2	0.492540	0.855070	0.253800
O11	O1	0.461000	0.645300	0.262100
O21	O2	0.273500	0.725000	0.359100
O31	O3	0.282700	0.888600	0.100100
O41	O4	0.218800	0.106500	0.516000
O51	O5	0.485600	0.148300	0.539800
O61	O6	0.236400	0.976900	0.288000
O71	O7	0.989200	0.065900	0.328800
O81	O8	0.037500	0.349700	0.494500
O91	O9	0.231100	0.273000	0.650900
O101	O10	0.260200	0.023500	0.773200
O111	O11	0.515300	0.929800	0.884000
C11	C1	0.360000	0.927300	0.853600
C21	C2	0.274000	0.811800	0.913100
H11	H1	0.362600	0.747600	0.969500
H21	H2	0.244500	0.783000	0.851900
C31	C3	0.107000	0.828000	0.978600
H31	H3	0.018900	0.893500	0.923300
H41	H4	0.057400	0.752400	0.003100
C41	C4	0.365000	0.139300	0.479600
C51	C5	0.224000	0.190400	0.270700
H51	H5	0.134500	0.252900	0.280700
H61	H6	0.253400	0.220400	0.187700
C61	C6	0.395000	0.170000	0.351600
H71	H7	0.482000	0.104400	0.344400
H81	H8	0.446600	0.244700	0.321900
C71	C7	0.148000	0.074000	0.299400
O121	O12	0.020000	0.845200	0.160800
C81	C8	0.331000	0.636000	0.323100
C91	C9	0.137000	0.857200	0.090500
C101	C10	0.178000	0.356200	0.548800
C111	C11	0.294000	0.455000	0.491700
H91	H9	0.286300	0.509200	0.534900
H101	H10	0.417900	0.415500	0.498100
C121	C12	0.234000	0.531900	0.359100
H111	H11	0.264800	0.483100	0.311300
H121	H12	0.106400	0.561000	0.349300
Ho31	Ho3	0.007530	0.145170	0.645190
Ho41	Ho4	0.507460	0.144930	0.746200
O131	O13	0.539000	0.354700	0.737900
O141	O14	0.726500	0.275000	0.640900
O151	O15	0.717300	0.111400	0.899900
O161	O16	0.781200	0.893500	0.484000
O171	O17	0.514400	0.851700	0.460200
O181	O18	0.763600	0.023100	0.712000
O191	O19	0.010800	0.934100	0.671200
O201	O20	0.962500	0.650300	0.505500
O211	O21	0.768900	0.727000	0.349100
O221	O22	0.739800	0.976500	0.226800
O231	O23	0.484700	0.070200	0.116000
C131	C13	0.640000	0.072700	0.146400
C141	C14	0.726000	0.188200	0.086900
H131	H13	0.637400	0.252400	0.030500
H141	H14	0.755500	0.217000	0.148100
C151	C15	0.893000	0.172000	0.021400
H151	H15	0.981100	0.106500	0.076700
H161	H16	0.942600	0.247600	0.996900
C161	C16	0.635000	0.860700	0.520400
C171	C17	0.776000	0.809600	0.729300
H171	H17	0.865500	0.747100	0.719300
H181	H18	0.746600	0.779600	0.812300
C181	C18	0.605000	0.830000	0.648400
H191	H19	0.518000	0.895600	0.655600
H201	H20	0.553400	0.755300	0.678100
C191	C19	0.852000	0.926000	0.700600
O241	O24	0.980000	0.154800	0.839200
C201	C20	0.669000	0.364000	0.676900
C211	C21	0.863000	0.142800	0.909500
C221	C22	0.822000	0.643800	0.451200
C231	C23	0.706000	0.545000	0.508300
H211	H21	0.713700	0.490800	0.465100
H221	H22	0.582100	0.584500	0.501900
C241	C24	0.766000	0.468100	0.640900
H231	H23	0.735200	0.516900	0.688700
H241	H24	0.893600	0.439000	0.650700
