data_IXAMEA_clean_PM
_symmetry_space_group_name_H-M	'P1'
_cell_length_a	10.294100
_cell_length_b	10.294100
_cell_length_c	9.648400
_cell_angle_alpha	90.000000
_cell_angle_beta	90.000000
_cell_angle_gamma	90.000000
_symmetry_Int_Tables_number 1

loop_
_symmetry_equiv_pos_as_xyz
'x,y,z'

loop_
_atom_site_label
_atom_site_type_symbol
_atom_site_fract_x
_atom_site_fract_y
_atom_site_fract_z
O11	O1	0.304600	0.477000	0.719800
O21	O2	0.804600	0.977000	0.219800
O31	O3	0.695400	0.523000	0.719800
O41	O4	0.195400	0.023000	0.219800
O51	O5	0.477000	0.695400	0.280200
O61	O6	0.977000	0.195400	0.780200
O71	O7	0.523000	0.304600	0.280200
O81	O8	0.023000	0.804600	0.780200
O91	O9	0.695400	0.477000	0.280200
O101	O10	0.195400	0.977000	0.780200
O111	O11	0.304600	0.523000	0.280200
O121	O12	0.804600	0.023000	0.780200
O131	O13	0.523000	0.695400	0.719800
O141	O14	0.023000	0.195400	0.219800
O151	O15	0.477000	0.304600	0.719800
O161	O16	0.977000	0.804600	0.219800
Fe11	Fe1	0.366870	0.633130	0.632220
Fe21	Fe2	0.866870	0.133130	0.132220
Fe31	Fe3	0.633130	0.366870	0.632220
Fe41	Fe4	0.133130	0.866870	0.132220
Fe51	Fe5	0.633130	0.633130	0.367780
Fe61	Fe6	0.133130	0.133130	0.867780
Fe71	Fe7	0.366870	0.366870	0.367780
Fe81	Fe8	0.866870	0.866870	0.867780
P11	P1	0.336310	0.336310	0.692900
O171	O17	0.299200	0.299200	0.548400
O181	O18	0.256200	0.256200	0.790200
P21	P2	0.836310	0.836310	0.192900
O191	O19	0.799200	0.799200	0.048400
O201	O20	0.756200	0.756200	0.290200
P31	P3	0.663690	0.663690	0.692900
O211	O21	0.700800	0.700800	0.548400
O221	O22	0.743800	0.743800	0.790200
P41	P4	0.163690	0.163690	0.192900
O231	O23	0.200800	0.200800	0.048400
O241	O24	0.243800	0.243800	0.290200
P51	P5	0.336310	0.663690	0.307100
O251	O25	0.299200	0.700800	0.451600
O261	O26	0.256200	0.743800	0.209800
P61	P6	0.836310	0.163690	0.807100
O271	O27	0.799200	0.200800	0.951600
O281	O28	0.756200	0.243800	0.709800
P71	P7	0.663690	0.336310	0.307100
O291	O29	0.700800	0.299200	0.451600
O301	O30	0.743800	0.256200	0.209800
P81	P8	0.163690	0.836310	0.807100
O311	O31	0.200800	0.799200	0.951600
O321	O32	0.243800	0.756200	0.709800
