data_IXEDOE_charged_PM
_symmetry_space_group_name_H-M	'P1'
_cell_length_a	13.156900
_cell_length_b	13.156900
_cell_length_c	23.688000
_cell_angle_alpha	97.102100
_cell_angle_beta	97.102100
_cell_angle_gamma	118.166000
_symmetry_Int_Tables_number 1

loop_
_symmetry_equiv_pos_as_xyz
'x,y,z'

loop_
_atom_site_label
_atom_site_type_symbol
_atom_site_fract_x
_atom_site_fract_y
_atom_site_fract_z
La11	La1	0.868850	0.563090	0.754470
La21	La2	0.563090	0.868850	0.254470
H11	H1	0.558800	0.444000	0.719400
H21	H2	0.361000	0.389600	0.705100
H31	H3	0.454500	0.731100	0.714200
H41	H4	0.650600	0.779800	0.732000
H51	H5	0.873600	0.847800	0.684800
H61	H6	0.810700	0.906700	0.606000
H71	H7	0.835900	0.661300	0.498400
H81	H8	0.893700	0.602900	0.578300
H91	H9	0.642500	0.181700	0.667200
H101	H10	0.573700	0.065100	0.574300
H111	H11	0.623100	0.349300	0.510200
H121	H12	0.674900	0.457500	0.603200
H131	H13	0.074500	0.857100	0.759400
H141	H14	0.227800	0.045600	0.769300
H151	H15	0.459200	0.930800	0.803000
H161	H16	0.302200	0.742600	0.790600
H171	H17	0.597800	0.150200	0.341400
H181	H18	0.659500	0.259500	0.435600
H191	H19	0.435500	0.968700	0.488300
H201	H20	0.378000	0.863000	0.393700
H211	H21	0.723100	0.030300	0.454500
H221	H22	0.780200	0.975000	0.536000
H231	H23	0.764200	0.700600	0.431200
H241	H24	0.712300	0.764300	0.351400
H251	H25	0.522600	0.407400	0.832000
H261	H26	0.368300	0.217100	0.819500
H271	H27	0.585500	0.095100	0.777900
H281	H28	0.735200	0.286200	0.790400
H291	H29	0.005000	0.334800	0.724400
H301	H30	0.201100	0.379900	0.736000
H311	H31	0.270900	0.653700	0.657100
H321	H32	0.075200	0.603200	0.645300
H331	H33	0.444000	0.558800	0.219400
H341	H34	0.389600	0.361000	0.205100
H351	H35	0.731100	0.454500	0.214200
H361	H36	0.779800	0.650600	0.232000
H371	H37	0.847800	0.873600	0.184800
H381	H38	0.906700	0.810700	0.106000
H391	H39	0.661300	0.835900	0.998400
H401	H40	0.602900	0.893700	0.078300
H411	H41	0.181700	0.642500	0.167200
H421	H42	0.065100	0.573700	0.074300
H431	H43	0.349300	0.623100	0.010200
H441	H44	0.457500	0.674900	0.103200
H451	H45	0.857100	0.074500	0.259400
H461	H46	0.045600	0.227800	0.269300
H471	H47	0.930800	0.459200	0.303000
H481	H48	0.742600	0.302200	0.290600
H491	H49	0.150200	0.597800	0.841400
H501	H50	0.259500	0.659500	0.935600
H511	H51	0.968700	0.435500	0.988300
H521	H52	0.863000	0.378000	0.893700
H531	H53	0.030300	0.723100	0.954500
H541	H54	0.975000	0.780200	0.036000
H551	H55	0.700600	0.764200	0.931200
H561	H56	0.764300	0.712300	0.851400
H571	H57	0.407400	0.522600	0.332000
H581	H58	0.217100	0.368300	0.319500
H591	H59	0.095100	0.585500	0.277900
H601	H60	0.286200	0.735200	0.290400
H611	H61	0.334800	0.005000	0.224400
H621	H62	0.379900	0.201100	0.236000
H631	H63	0.653700	0.270900	0.157100
H641	H64	0.603200	0.075200	0.145300
C11	C1	0.536400	0.503000	0.719500
C21	C2	0.418900	0.470300	0.710200
C31	C3	0.384200	0.555400	0.708400
C41	C4	0.474100	0.670500	0.716100
C51	C5	0.590600	0.699800	0.726400
C61	C6	0.865300	0.809500	0.646400
C71	C7	0.828700	0.844900	0.599700
C81	C8	0.817900	0.792100	0.543600
C91	C9	0.842900	0.700300	0.536400
C101	C10	0.877600	0.666200	0.583800
C111	C11	0.634600	0.215000	0.634600
C121	C12	0.596500	0.146300	0.579500
C131	C13	0.591300	0.195100	0.532100
C141	C14	0.623400	0.312600	0.542300
C151	C15	0.655800	0.377200	0.597200
C161	C16	0.153500	0.872900	0.768600
C171	C17	0.244800	0.984200	0.774300
C181	C18	0.361200	0.011000	0.787300
C191	C19	0.380900	0.917300	0.793900
C201	C20	0.287400	0.806000	0.787300
C211	C21	0.564800	0.113800	0.371800
C221	C22	0.601200	0.178400	0.427500
C231	C23	0.553500	0.126300	0.472200
C241	C24	0.469300	0.006900	0.458500
C251	C25	0.435000	0.944400	0.402600
C261	C26	0.734900	0.964100	0.450000
C271	C27	0.766800	0.930600	0.498400
C281	C28	0.779700	0.829500	0.492200
C291	C29	0.758200	0.770200	0.437100
C301	C30	0.727900	0.808100	0.389500
C311	C31	0.534200	0.342600	0.820200
C321	C32	0.442800	0.230000	0.812900
C331	C33	0.458800	0.133000	0.795600
C341	C34	0.570500	0.158100	0.788300
C351	C35	0.659300	0.270900	0.795800
C361	C36	0.060200	0.400400	0.711200
C371	C37	0.176500	0.427300	0.717900
C381	C38	0.257500	0.522100	0.698800
C391	C39	0.217700	0.588300	0.671300
C401	C40	0.101800	0.558600	0.664900
C411	C41	0.503000	0.536400	0.219500
C421	C42	0.470300	0.418900	0.210200
C431	C43	0.555400	0.384200	0.208400
C441	C44	0.670500	0.474100	0.216100
C451	C45	0.699800	0.590600	0.226400
C461	C46	0.809500	0.865300	0.146400
C471	C47	0.844900	0.828700	0.099700
C481	C48	0.792100	0.817900	0.043600
C491	C49	0.700300	0.842900	0.036400
C501	C50	0.666200	0.877600	0.083800
C511	C51	0.215000	0.634600	0.134600
C521	C52	0.146300	0.596500	0.079500
C531	C53	0.195100	0.591300	0.032100
C541	C54	0.312600	0.623400	0.042300
C551	C55	0.377200	0.655800	0.097200
C561	C56	0.872900	0.153500	0.268600
C571	C57	0.984200	0.244800	0.274300
C581	C58	0.011000	0.361200	0.287300
C591	C59	0.917300	0.380900	0.293900
C601	C60	0.806000	0.287400	0.287300
C611	C61	0.113800	0.564800	0.871800
C621	C62	0.178400	0.601200	0.927500
C631	C63	0.126300	0.553500	0.972200
C641	C64	0.006900	0.469300	0.958500
C651	C65	0.944400	0.435000	0.902600
C661	C66	0.964100	0.734900	0.950000
C671	C67	0.930600	0.766800	0.998400
C681	C68	0.829500	0.779700	0.992200
C691	C69	0.770200	0.758200	0.937100
C701	C70	0.808100	0.727900	0.889500
C711	C71	0.342600	0.534200	0.320200
C721	C72	0.230000	0.442800	0.312900
C731	C73	0.133000	0.458800	0.295600
C741	C74	0.158100	0.570500	0.288300
C751	C75	0.270900	0.659300	0.295800
C761	C76	0.400400	0.060200	0.211200
C771	C77	0.427300	0.176500	0.217900
C781	C78	0.522100	0.257500	0.198800
C791	C79	0.588300	0.217700	0.171300
C801	C80	0.558600	0.101800	0.164900
N11	N1	0.619200	0.615000	0.728500
N21	N2	0.889500	0.720900	0.638300
N31	N3	0.660900	0.327700	0.643200
N41	N4	0.176700	0.784300	0.776300
N51	N5	0.481700	0.997900	0.360000
N61	N6	0.720200	0.906600	0.396600
N71	N7	0.639100	0.362100	0.811100
N81	N8	0.025300	0.469500	0.685200
N91	N9	0.615000	0.619200	0.228500
N101	N10	0.720900	0.889500	0.138300
N111	N11	0.327700	0.660900	0.143200
N121	N12	0.784300	0.176700	0.276300
N131	N13	0.997900	0.481700	0.860000
N141	N14	0.906600	0.720200	0.896600
N151	N15	0.362100	0.639100	0.311100
N161	N16	0.469500	0.025300	0.185200
O11	O1	0.732600	0.645200	0.737100
O21	O2	0.928900	0.689100	0.682600
O31	O3	0.690900	0.389700	0.696600
O41	O4	0.089600	0.676600	0.771300
O51	O5	0.446700	0.939100	0.305400
O61	O6	0.696900	0.946700	0.350700
O71	O7	0.726000	0.471600	0.818600
O81	O8	0.914900	0.446100	0.681100
O91	O9	0.645200	0.732600	0.237100
O101	O10	0.689100	0.928900	0.182600
O111	O11	0.389700	0.690900	0.196600
O121	O12	0.676600	0.089600	0.271300
O131	O13	0.939100	0.446700	0.805400
O141	O14	0.946700	0.696900	0.850700
O151	O15	0.471600	0.726000	0.318600
O161	O16	0.446100	0.914900	0.181100
Cl11	Cl1	0.746280	0.040460	0.699400
O171	O17	0.801400	0.150600	0.739900
O181	O18	0.789800	0.966200	0.718400
O191	O19	0.767900	0.056500	0.642100
O201	O20	0.621200	0.985600	0.696200
Cl21	Cl2	0.658340	0.461100	0.368900
O211	O21	0.606400	0.342600	0.338300
O221	O22	0.593600	0.515000	0.349900
O231	O23	0.773900	0.527100	0.356500
O241	O24	0.669400	0.465600	0.429700
Cl31	Cl3	0.187300	0.782100	0.555200
O251	O25	0.168900	0.826100	0.611100
O261	O26	0.232200	0.702200	0.563400
O271	O27	0.069700	0.709700	0.514700
O281	O28	0.257800	0.872600	0.528600
Cl41	Cl4	0.040460	0.746280	0.199400
O291	O29	0.150600	0.801400	0.239900
O301	O30	0.966200	0.789800	0.218400
O311	O31	0.056500	0.767900	0.142100
O321	O32	0.985600	0.621200	0.196200
Cl51	Cl5	0.461100	0.658340	0.868900
O331	O33	0.342600	0.606400	0.838300
O341	O34	0.515000	0.593600	0.849900
O351	O35	0.527100	0.773900	0.856500
O361	O36	0.465600	0.669400	0.929700
Cl61	Cl6	0.782100	0.187300	0.055200
O371	O37	0.826100	0.168900	0.111100
O381	O38	0.702200	0.232200	0.063400
O391	O39	0.709700	0.069700	0.014700
O401	O40	0.872600	0.257800	0.028600
