data_IXODUV_clean_PM
_symmetry_space_group_name_H-M	'P1'
_cell_length_a	6.805000
_cell_length_b	13.979300
_cell_length_c	15.944700
_cell_angle_alpha	90.000000
_cell_angle_beta	90.000000
_cell_angle_gamma	90.000000
_symmetry_Int_Tables_number 1

loop_
_symmetry_equiv_pos_as_xyz
'x,y,z'

loop_
_atom_site_label
_atom_site_type_symbol
_atom_site_fract_x
_atom_site_fract_y
_atom_site_fract_z
V11	V1	0.934970	0.236110	0.498800
V21	V2	0.565030	0.763890	0.998800
V31	V3	0.065030	0.736110	0.001200
V41	V4	0.434970	0.263890	0.501200
H11	H1	0.967800	0.953200	0.179400
H21	H2	0.551300	0.983500	0.176700
H31	H3	0.946900	0.061500	0.288400
H41	H4	0.530800	0.092400	0.285300
H51	H5	0.532200	0.046800	0.679400
H61	H6	0.948700	0.016500	0.676700
H71	H7	0.553100	0.938500	0.788400
H81	H8	0.969200	0.907600	0.785300
H91	H9	0.032200	0.453200	0.320600
H101	H10	0.448700	0.483500	0.323300
H111	H11	0.053100	0.561500	0.211600
H121	H12	0.469200	0.592400	0.214700
H131	H13	0.467800	0.546800	0.820600
H141	H14	0.051300	0.516500	0.823300
H151	H15	0.446900	0.438500	0.711600
H161	H16	0.030800	0.407600	0.714700
C11	C1	0.275700	0.880950	0.101910
C21	C2	0.261900	0.955740	0.168670
C31	C3	0.081600	0.980300	0.201310
C41	C4	0.429600	0.998510	0.199660
C51	C5	0.224500	0.150960	0.373260
C61	C6	0.236900	0.085890	0.299110
C71	C7	0.069100	0.045200	0.266470
C81	C8	0.417400	0.063630	0.264730
C91	C9	0.224300	0.119050	0.601910
C101	C10	0.238100	0.044260	0.668670
C111	C11	0.418400	0.019700	0.701310
C121	C12	0.070400	0.001490	0.699660
C131	C13	0.275500	0.849040	0.873260
C141	C14	0.263100	0.914110	0.799110
C151	C15	0.430900	0.954800	0.766470
C161	C16	0.082600	0.936370	0.764730
C171	C17	0.724300	0.380950	0.398090
C181	C18	0.738100	0.455740	0.331330
C191	C19	0.918400	0.480300	0.298690
C201	C20	0.570400	0.498510	0.300340
C211	C21	0.775500	0.650960	0.126740
C221	C22	0.763100	0.585890	0.200890
C231	C23	0.930900	0.545200	0.233530
C241	C24	0.582600	0.563630	0.235270
C251	C25	0.775700	0.619050	0.898090
C261	C26	0.761900	0.544260	0.831330
C271	C27	0.581600	0.519700	0.798690
C281	C28	0.929600	0.501490	0.800340
C291	C29	0.724500	0.349040	0.626740
C301	C30	0.736900	0.414110	0.700890
C311	C31	0.569100	0.454800	0.733530
C321	C32	0.917400	0.436370	0.735270
O11	O1	0.716940	0.191300	0.492780
O21	O2	0.444200	0.858860	0.076080
O31	O3	0.056300	0.168340	0.401960
O41	O4	0.116300	0.845070	0.077240
O51	O5	0.383900	0.182970	0.401930
O61	O6	0.783060	0.808700	0.992780
O71	O7	0.055800	0.141140	0.576080
O81	O8	0.443700	0.831660	0.901960
O91	O9	0.383700	0.154930	0.577240
O101	O10	0.116100	0.817030	0.901930
O111	O11	0.283060	0.691300	0.007220
O121	O12	0.555800	0.358860	0.423920
O131	O13	0.943700	0.668340	0.098040
O141	O14	0.883700	0.345070	0.422760
O151	O15	0.616100	0.682970	0.098070
O161	O16	0.216940	0.308700	0.507220
O171	O17	0.944200	0.641140	0.923920
O181	O18	0.556300	0.331660	0.598040
O191	O19	0.616300	0.654930	0.922760
O201	O20	0.883900	0.317030	0.598070
