data_IXOFOR_clean_PM
_symmetry_space_group_name_H-M	'P1'
_cell_length_a	6.812700
_cell_length_b	13.714200
_cell_length_c	16.070100
_cell_angle_alpha	90.000000
_cell_angle_beta	90.000000
_cell_angle_gamma	90.000000
_symmetry_Int_Tables_number 1

loop_
_symmetry_equiv_pos_as_xyz
'x,y,z'

loop_
_atom_site_label
_atom_site_type_symbol
_atom_site_fract_x
_atom_site_fract_y
_atom_site_fract_z
V11	V1	0.434170	0.764620	0.001410
V21	V2	0.065830	0.235380	0.501410
V31	V3	0.565830	0.264620	0.498590
V41	V4	0.934170	0.735380	0.998590
H11	H1	0.967000	0.457100	0.676100
H21	H2	0.946400	0.566000	0.785700
H31	H3	0.527900	0.608100	0.775500
H41	H4	0.548600	0.500900	0.664800
H51	H5	0.533000	0.542900	0.176100
H61	H6	0.553600	0.434000	0.285700
H71	H7	0.972100	0.391900	0.275500
H81	H8	0.951400	0.499100	0.164800
H91	H9	0.033000	0.957100	0.823900
H101	H10	0.053600	0.066000	0.714300
H111	H11	0.472100	0.108100	0.724500
H121	H12	0.451400	0.000900	0.835200
H131	H13	0.467000	0.042900	0.323900
H141	H14	0.446400	0.934000	0.214300
H151	H15	0.027900	0.891900	0.224500
H161	H16	0.048600	0.999100	0.335200
C11	C1	0.275800	0.388640	0.595850
C21	C2	0.260900	0.465630	0.661450
C31	C3	0.080000	0.486650	0.696630
C41	C4	0.067900	0.551680	0.762330
C51	C5	0.235800	0.595500	0.793400
C61	C6	0.415500	0.577040	0.756070
C71	C7	0.428000	0.512660	0.690050
C81	C8	0.223000	0.657830	0.869380
C91	C9	0.224200	0.611360	0.095850
C101	C10	0.239100	0.534370	0.161450
C111	C11	0.420000	0.513350	0.196630
C121	C12	0.432100	0.448320	0.262330
C131	C13	0.264200	0.404500	0.293400
C141	C14	0.084500	0.422960	0.256070
C151	C15	0.072000	0.487340	0.190050
C161	C16	0.277000	0.342170	0.369380
C171	C17	0.724200	0.888640	0.904150
C181	C18	0.739100	0.965630	0.838550
C191	C19	0.920000	0.986650	0.803370
C201	C20	0.932100	0.051680	0.737670
C211	C21	0.764200	0.095500	0.706600
C221	C22	0.584500	0.077040	0.743930
C231	C23	0.572000	0.012660	0.809950
C241	C24	0.777000	0.157830	0.630620
C251	C25	0.775800	0.111360	0.404150
C261	C26	0.760900	0.034370	0.338550
C271	C27	0.580000	0.013350	0.303370
C281	C28	0.567900	0.948320	0.237670
C291	C29	0.735800	0.904500	0.206600
C301	C30	0.915500	0.922960	0.243930
C311	C31	0.928000	0.987340	0.309950
C321	C32	0.723000	0.842170	0.130620
O11	O1	0.216080	0.809530	0.009830
O21	O2	0.444120	0.365970	0.570800
O31	O3	0.383180	0.689000	0.898810
O41	O4	0.056060	0.672960	0.899330
O51	O5	0.116650	0.350880	0.571680
O61	O6	0.283920	0.190470	0.509830
O71	O7	0.055880	0.634030	0.070800
O81	O8	0.116820	0.311000	0.398810
O91	O9	0.443940	0.327040	0.399330
O101	O10	0.383350	0.649120	0.071680
O111	O11	0.783920	0.309530	0.490170
O121	O12	0.555880	0.865970	0.929200
O131	O13	0.616820	0.189000	0.601190
O141	O14	0.943940	0.172960	0.600670
O151	O15	0.883350	0.850880	0.928320
O161	O16	0.716080	0.690470	0.990170
O171	O17	0.944120	0.134030	0.429200
O181	O18	0.883180	0.811000	0.101190
O191	O19	0.556060	0.827040	0.100670
O201	O20	0.616650	0.149120	0.428320
