data_IXOFIL_clean_PM
_symmetry_space_group_name_H-M	'P1'
_cell_length_a	6.801800
_cell_length_b	13.534400
_cell_length_c	16.415600
_cell_angle_alpha	90.000000
_cell_angle_beta	90.000000
_cell_angle_gamma	90.000000
_symmetry_Int_Tables_number 1

loop_
_symmetry_equiv_pos_as_xyz
'x,y,z'

loop_
_atom_site_label
_atom_site_type_symbol
_atom_site_fract_x
_atom_site_fract_y
_atom_site_fract_z
V11	V1	0.937110	0.764400	0.000720
V21	V2	0.562890	0.235600	0.500720
V31	V3	0.062890	0.264400	0.499280
V41	V4	0.437110	0.735600	0.999280
H11	H1	0.533800	0.944600	0.811400
H21	H2	0.554700	0.048300	0.703700
H31	H3	0.969100	0.084900	0.708600
H41	H4	0.950000	0.979700	0.817600
H51	H5	0.966200	0.055400	0.311400
H61	H6	0.945300	0.951700	0.203700
H71	H7	0.530900	0.915100	0.208600
H81	H8	0.550000	0.020300	0.317600
H91	H9	0.466200	0.444600	0.688600
H101	H10	0.445300	0.548300	0.796300
H111	H11	0.030900	0.584900	0.791400
H121	H12	0.050000	0.479700	0.682400
H131	H13	0.033800	0.555400	0.188600
H141	H14	0.054700	0.451700	0.296300
H151	H15	0.469100	0.415100	0.291400
H161	H16	0.450000	0.520300	0.182400
C11	C1	0.225900	0.878900	0.894030
C21	C2	0.238600	0.949100	0.825840
C31	C3	0.419600	0.972400	0.790300
C41	C4	0.432300	0.034100	0.726100
C51	C5	0.262200	0.077200	0.692640
C61	C6	0.083100	0.056100	0.728900
C71	C7	0.071700	0.993000	0.794240
C81	C8	0.274500	0.141600	0.620470
C91	C9	0.274100	0.121100	0.394030
C101	C10	0.261400	0.050900	0.325840
C111	C11	0.080400	0.027600	0.290300
C121	C12	0.067700	0.965900	0.226100
C131	C13	0.237800	0.922800	0.192640
C141	C14	0.416900	0.943900	0.228900
C151	C15	0.428300	0.007000	0.294240
C161	C16	0.225500	0.858400	0.120470
C171	C17	0.774100	0.378900	0.605970
C181	C18	0.761400	0.449100	0.674160
C191	C19	0.580400	0.472400	0.709700
C201	C20	0.567700	0.534100	0.773900
C211	C21	0.737800	0.577200	0.807360
C221	C22	0.916900	0.556100	0.771100
C231	C23	0.928300	0.493000	0.705760
C241	C24	0.725500	0.641600	0.879530
C251	C25	0.725900	0.621100	0.105970
C261	C26	0.738600	0.550900	0.174160
C271	C27	0.919600	0.527600	0.209700
C281	C28	0.932300	0.465900	0.273900
C291	C29	0.762200	0.422800	0.307360
C301	C30	0.583100	0.443900	0.271100
C311	C31	0.571700	0.507000	0.205760
C321	C32	0.774500	0.358400	0.379530
O11	O1	0.718890	0.811320	0.004220
O21	O2	0.057000	0.857430	0.921330
O31	O3	0.441500	0.160170	0.591640
O41	O4	0.386000	0.843270	0.920550
O51	O5	0.114100	0.175340	0.592340
O61	O6	0.781110	0.188680	0.504220
O71	O7	0.443000	0.142570	0.421330
O81	O8	0.058500	0.839830	0.091640
O91	O9	0.114000	0.156730	0.420550
O101	O10	0.385900	0.824660	0.092340
O111	O11	0.281110	0.311320	0.495780
O121	O12	0.943000	0.357430	0.578670
O131	O13	0.558500	0.660170	0.908360
O141	O14	0.614000	0.343270	0.579450
O151	O15	0.885900	0.675340	0.907660
O161	O16	0.218890	0.688680	0.995780
O171	O17	0.557000	0.642570	0.078670
O181	O18	0.941500	0.339830	0.408360
O191	O19	0.886000	0.656730	0.079450
O201	O20	0.614100	0.324660	0.407660
