data_IXOFEH_clean_PM
_symmetry_space_group_name_H-M	'P1'
_cell_length_a	6.788400
_cell_length_b	13.230500
_cell_length_c	16.635700
_cell_angle_alpha	90.000000
_cell_angle_beta	90.000000
_cell_angle_gamma	90.000000
_symmetry_Int_Tables_number 1

loop_
_symmetry_equiv_pos_as_xyz
'x,y,z'

loop_
_atom_site_label
_atom_site_type_symbol
_atom_site_fract_x
_atom_site_fract_y
_atom_site_fract_z
V11	V1	0.438770	0.264610	0.499450
V21	V2	0.061230	0.735390	0.999450
V31	V3	0.561230	0.764610	0.000550
V41	V4	0.938770	0.235390	0.500550
H11	H1	0.549500	0.983300	0.818800
H21	H2	0.530700	0.087000	0.708200
H31	H3	0.966900	0.935600	0.807200
H41	H4	0.948300	0.039300	0.695700
H51	H5	0.950500	0.016700	0.318800
H61	H6	0.969300	0.913000	0.208200
H71	H7	0.533100	0.064400	0.307200
H81	H8	0.551700	0.960700	0.195700
H91	H9	0.450500	0.483300	0.681200
H101	H10	0.469300	0.587000	0.791800
H111	H11	0.033100	0.435600	0.692800
H121	H12	0.051700	0.539300	0.804300
H131	H13	0.049500	0.516700	0.181200
H141	H14	0.030700	0.413000	0.291800
H151	H15	0.466900	0.564400	0.192800
H161	H16	0.448300	0.460700	0.304300
C11	C1	0.272800	0.878000	0.893320
C21	C2	0.260600	0.948900	0.824100
C31	C3	0.428500	0.994500	0.794130
C41	C4	0.417100	0.056500	0.727920
C51	C5	0.080200	0.966000	0.787140
C61	C6	0.069100	0.028100	0.720540
C71	C7	0.238400	0.074000	0.690410
C81	C8	0.226900	0.138400	0.617530
C91	C9	0.227200	0.122000	0.393320
C101	C10	0.239400	0.051100	0.324100
C111	C11	0.071500	0.005500	0.294130
C121	C12	0.082900	0.943500	0.227920
C131	C13	0.419800	0.034000	0.287140
C141	C14	0.430900	0.971900	0.220540
C151	C15	0.261600	0.926000	0.190410
C161	C16	0.273100	0.861600	0.117530
C171	C17	0.727200	0.378000	0.606680
C181	C18	0.739400	0.448900	0.675900
C191	C19	0.571500	0.494500	0.705870
C201	C20	0.582900	0.556500	0.772080
C211	C21	0.919800	0.466000	0.712860
C221	C22	0.930900	0.528100	0.779460
C231	C23	0.761600	0.574000	0.809590
C241	C24	0.773100	0.638400	0.882470
C251	C25	0.772800	0.622000	0.106680
C261	C26	0.760600	0.551100	0.175900
C271	C27	0.928500	0.505500	0.205870
C281	C28	0.917100	0.443500	0.272080
C291	C29	0.580200	0.534000	0.212860
C301	C30	0.569100	0.471900	0.279460
C311	C31	0.738400	0.426000	0.309590
C321	C32	0.726900	0.361600	0.382470
O11	O1	0.219690	0.311920	0.496910
O21	O2	0.387700	0.171180	0.589810
O31	O3	0.442100	0.857850	0.920670
O41	O4	0.059700	0.156370	0.589160
O51	O5	0.112200	0.842730	0.919620
O61	O6	0.280310	0.688080	0.996910
O71	O7	0.112300	0.828820	0.089810
O81	O8	0.057900	0.142150	0.420670
O91	O9	0.440300	0.843630	0.089160
O101	O10	0.387800	0.157270	0.419620
O111	O11	0.780310	0.811920	0.003090
O121	O12	0.612300	0.671180	0.910190
O131	O13	0.557900	0.357850	0.579330
O141	O14	0.940300	0.656370	0.910840
O151	O15	0.887800	0.342730	0.580380
O161	O16	0.719690	0.188080	0.503090
O171	O17	0.887700	0.328820	0.410190
O181	O18	0.942100	0.642150	0.079330
O191	O19	0.559700	0.343630	0.410840
O201	O20	0.612200	0.657270	0.080380
