data_IXOFUX_clean_PM
_symmetry_space_group_name_H-M	'P1'
_cell_length_a	6.827000
_cell_length_b	13.965000
_cell_length_c	16.073000
_cell_angle_alpha	90.000000
_cell_angle_beta	90.000000
_cell_angle_gamma	90.000000
_symmetry_Int_Tables_number 1

loop_
_symmetry_equiv_pos_as_xyz
'x,y,z'

loop_
_atom_site_label
_atom_site_type_symbol
_atom_site_fract_x
_atom_site_fract_y
_atom_site_fract_z
V11	V1	0.934880	0.235850	0.499110
V21	V2	0.565120	0.764150	0.999110
V31	V3	0.065120	0.735850	0.000890
V41	V4	0.434880	0.264150	0.500890
H11	H1	0.551900	0.981500	0.179800
H21	H2	0.531300	0.087800	0.286800
H31	H3	0.948200	0.052100	0.293200
H41	H4	0.968900	0.952300	0.181200
H51	H5	0.948100	0.018500	0.679800
H61	H6	0.968700	0.912200	0.786800
H71	H7	0.551800	0.947900	0.793200
H81	H8	0.531100	0.047700	0.681200
H91	H9	0.448100	0.481500	0.320200
H101	H10	0.468700	0.587800	0.213200
H111	H11	0.051800	0.552100	0.206800
H121	H12	0.031100	0.452300	0.318800
H131	H13	0.051900	0.518500	0.820200
H141	H14	0.031300	0.412200	0.713200
H151	H15	0.448200	0.447900	0.706800
H161	H16	0.468900	0.547700	0.818800
C11	C1	0.277900	0.879500	0.104600
C21	C2	0.261500	0.952600	0.170400
C31	C3	0.430200	0.996000	0.202500
C41	C4	0.417700	0.059400	0.266500
C51	C5	0.224200	0.146200	0.375800
C61	C6	0.237800	0.082600	0.302500
C71	C7	0.069900	0.039100	0.269800
C81	C8	0.082900	0.977700	0.203900
C91	C9	0.222100	0.120500	0.604600
C101	C10	0.238500	0.047400	0.670400
C111	C11	0.069800	0.004000	0.702500
C121	C12	0.082300	0.940600	0.766500
C131	C13	0.275800	0.853800	0.875800
C141	C14	0.262200	0.917400	0.802500
C151	C15	0.430100	0.960900	0.769800
C161	C16	0.417100	0.022300	0.703900
C171	C17	0.722100	0.379500	0.395400
C181	C18	0.738500	0.452600	0.329600
C191	C19	0.569800	0.496000	0.297500
C201	C20	0.582300	0.559400	0.233500
C211	C21	0.775800	0.646200	0.124200
C221	C22	0.762200	0.582600	0.197500
C231	C23	0.930100	0.539100	0.230200
C241	C24	0.917100	0.477700	0.296100
C251	C25	0.777900	0.620500	0.895400
C261	C26	0.761500	0.547400	0.829600
C271	C27	0.930200	0.504000	0.797500
C281	C28	0.917700	0.440600	0.733500
C291	C29	0.724200	0.353800	0.624200
C301	C30	0.737800	0.417400	0.697500
C311	C31	0.569900	0.460900	0.730200
C321	C32	0.582900	0.522300	0.796100
O11	O1	0.717700	0.191200	0.494200
O21	O2	0.443700	0.857200	0.078500
O31	O3	0.055900	0.166000	0.405300
O41	O4	0.116400	0.842600	0.076200
O51	O5	0.382800	0.180700	0.403100
O61	O6	0.782300	0.808800	0.994200
O71	O7	0.056300	0.142800	0.578500
O81	O8	0.444100	0.834000	0.905300
O91	O9	0.383600	0.157400	0.576200
O101	O10	0.117200	0.819300	0.903100
O111	O11	0.282300	0.691200	0.005800
O121	O12	0.556300	0.357200	0.421500
O131	O13	0.944100	0.666000	0.094700
O141	O14	0.883600	0.342600	0.423800
O151	O15	0.617200	0.680700	0.096900
O161	O16	0.217700	0.308800	0.505800
O171	O17	0.943700	0.642800	0.921500
O181	O18	0.555900	0.334000	0.594700
O191	O19	0.616400	0.657400	0.923800
O201	O20	0.882800	0.319300	0.596900
