data_IXUHUE_clean_PM
_symmetry_space_group_name_H-M	'P1'
_cell_length_a	10.898100
_cell_length_b	14.409200
_cell_length_c	23.390200
_cell_angle_alpha	80.693200
_cell_angle_beta	76.528400
_cell_angle_gamma	67.779900
_symmetry_Int_Tables_number 1

loop_
_symmetry_equiv_pos_as_xyz
'x,y,z'

loop_
_atom_site_label
_atom_site_type_symbol
_atom_site_fract_x
_atom_site_fract_y
_atom_site_fract_z
Cu11	Cu1	0.644590	0.807560	0.102500
Cu21	Cu2	0.344800	0.938620	0.138860
Cu31	Cu3	0.554650	0.692440	0.397500
Cu41	Cu4	0.422280	0.561380	0.361140
Cu51	Cu5	0.355410	0.192440	0.897500
Cu61	Cu6	0.655200	0.061380	0.861140
Cu71	Cu7	0.445350	0.307560	0.602500
Cu81	Cu8	0.577720	0.438620	0.638860
Mo11	Mo1	0.142270	0.536980	0.978140
Mo21	Mo2	0.102650	0.386150	0.134850
Mo31	Mo3	0.982350	0.627630	0.104090
Mo41	Mo4	0.890590	0.748010	0.964410
Mo51	Mo5	0.657390	0.963020	0.521860
Mo61	Mo6	0.623650	0.113850	0.365150
Mo71	Mo7	0.714070	0.872370	0.395910
Mo81	Mo8	0.603010	0.751990	0.535590
Mo91	Mo9	0.857730	0.463020	0.021860
Mo101	Mo10	0.897350	0.613850	0.865150
Mo111	Mo11	0.017650	0.372370	0.895910
Mo121	Mo12	0.109410	0.251990	0.035590
Mo131	Mo13	0.342610	0.036980	0.478140
Mo141	Mo14	0.376350	0.886150	0.634850
Mo151	Mo15	0.285930	0.127630	0.604090
Mo161	Mo16	0.396990	0.248010	0.464410
H11	H1	0.593400	0.736200	0.005000
H21	H2	0.470600	0.643700	0.987100
H31	H3	0.344100	0.582300	0.063500
H41	H4	0.336000	0.622500	0.155500
H51	H5	0.676100	0.531800	0.164000
H61	H6	0.770200	0.367800	0.165800
H71	H7	0.720100	0.265600	0.248200
H81	H8	0.567000	0.348000	0.326000
H91	H9	0.715300	0.870400	0.199000
H101	H10	0.670000	0.018000	0.240000
H111	H11	0.558000	0.182000	0.194000
H121	H12	0.529000	0.168000	0.102000
H131	H13	0.784000	0.064000	0.048000
H141	H14	0.954000	0.119000	0.013000
H151	H15	0.015000	0.151000	0.907000
H161	H16	0.894100	0.121800	0.848000
H171	H17	0.334600	0.763800	0.495000
H181	H18	0.101400	0.856300	0.512900
H191	H19	0.989900	0.917700	0.436500
H201	H20	0.114000	0.877500	0.344500
H211	H21	0.371900	0.968200	0.336000
H221	H22	0.303800	0.132200	0.334200
H231	H23	0.233900	0.234400	0.251800
H241	H24	0.241000	0.152000	0.174000
H251	H25	0.784700	0.629600	0.301000
H261	H26	0.928000	0.482000	0.260000
H271	H27	0.934000	0.318000	0.306000
H281	H28	0.799000	0.332000	0.398000
H291	H29	0.896000	0.436000	0.452000
H301	H30	0.086000	0.381000	0.487000
H311	H31	0.073000	0.349000	0.593000
H321	H32	0.863900	0.378200	0.652000
H331	H33	0.406600	0.263800	0.995000
H341	H34	0.529400	0.356300	0.012900
H351	H35	0.655900	0.417700	0.936500
H361	H36	0.664000	0.377500	0.844500
H371	H37	0.323900	0.468200	0.836000
H381	H38	0.229800	0.632200	0.834200
H391	H39	0.279900	0.734400	0.751800
H401	H40	0.433000	0.652000	0.674000
H411	H41	0.284700	0.129600	0.801000
H421	H42	0.330000	0.982000	0.760000
H431	H43	0.442000	0.818000	0.806000
H441	H44	0.471000	0.832000	0.898000
H451	H45	0.216000	0.936000	0.952000
H461	H46	0.046000	0.881000	0.987000
H471	H47	0.985000	0.849000	0.093000
H481	H48	0.105900	0.878200	0.152000
H491	H49	0.665400	0.236200	0.505000
H501	H50	0.898600	0.143700	0.487100
H511	H51	0.010100	0.082300	0.563500
H521	H52	0.886000	0.122500	0.655500
H531	H53	0.628100	0.031800	0.664000
H541	H54	0.696200	0.867800	0.665800
H551	H55	0.766100	0.765600	0.748200
H561	H56	0.759000	0.848000	0.826000
H571	H57	0.215300	0.370400	0.699000
H581	H58	0.072000	0.518000	0.740000
H591	H59	0.066000	0.682000	0.694000
H601	H60	0.201000	0.668000	0.602000
H611	H61	0.104000	0.564000	0.548000
H621	H62	0.914000	0.619000	0.513000
H631	H63	0.927000	0.651000	0.407000
H641	H64	0.136100	0.621800	0.348000
C11	C1	0.538690	0.712240	0.034980
C21	C2	0.467400	0.658190	0.023410
C31	C3	0.392250	0.618850	0.070250
C41	C4	0.392370	0.635650	0.127210
C51	C5	0.464200	0.692240	0.134960
C61	C6	0.454070	0.719750	0.194710
C71	C7	0.478710	0.650190	0.244190
C81	C8	0.553170	0.540680	0.241180
C91	C9	0.649440	0.497770	0.192950
C101	C10	0.713650	0.394370	0.195130
C111	C11	0.680960	0.336330	0.245350
C121	C12	0.588720	0.384650	0.292510
C131	C13	0.673590	0.935460	0.181760
C141	C14	0.654010	0.023180	0.205000
C151	C15	0.592950	0.114640	0.175460
C161	C16	0.555720	0.114760	0.122600
C171	C17	0.580300	0.023560	0.102240
C181	C18	0.541690	0.014630	0.046790
C191	C19	0.606060	0.033880	0.989200
C201	C20	0.724110	0.066660	0.971320
C211	C21	0.797100	0.078500	0.009100
C221	C22	0.905800	0.109300	0.986900
C231	C23	0.942960	0.126780	0.927100
C241	C24	0.867350	0.112900	0.890800
C251	C25	0.285910	0.787760	0.465020
C261	C26	0.149000	0.841810	0.476590
C271	C27	0.081350	0.881150	0.429750
C281	C28	0.155230	0.864350	0.372790
C291	C29	0.291400	0.807760	0.365040
C301	C30	0.368530	0.780250	0.305290
C311	C31	0.373090	0.849810	0.255810
C321	C32	0.335030	0.959320	0.258820
C331	C33	0.340160	0.002230	0.307050
C341	C34	0.303150	0.105630	0.304870
C351	C35	0.262640	0.163670	0.254650
C361	C36	0.265880	0.115350	0.207490
C371	C37	0.790810	0.564540	0.318240
C381	C38	0.882190	0.476820	0.295000
C391	C39	0.883050	0.385360	0.324540
C401	C40	0.793080	0.385240	0.377400
C411	C41	0.706100	0.476440	0.397760
C421	C42	0.603110	0.485370	0.453210
C431	C43	0.629140	0.466120	0.510800
C441	C44	0.762090	0.433340	0.528680
C451	C45	0.884700	0.421500	0.490900
C461	C46	0.002000	0.390700	0.513100
C471	C47	0.996840	0.373220	0.572900
C481	C48	0.871050	0.387100	0.609200
C491	C49	0.461310	0.287760	0.965020
C501	C50	0.532600	0.341810	0.976590
C511	C51	0.607750	0.381150	0.929750
C521	C52	0.607630	0.364350	0.872790
C531	C53	0.535800	0.307760	0.865040
C541	C54	0.545930	0.280250	0.805290
C551	C55	0.521290	0.349810	0.755810
C561	C56	0.446830	0.459320	0.758820
C571	C57	0.350560	0.502230	0.807050
C581	C58	0.286350	0.605630	0.804870
C591	C59	0.319040	0.663670	0.754650
C601	C60	0.411280	0.615350	0.707490
C611	C61	0.326410	0.064540	0.818240
C621	C62	0.345990	0.976820	0.795000
C631	C63	0.407050	0.885360	0.824540
C641	C64	0.444280	0.885240	0.877400
C651	C65	0.419700	0.976440	0.897760
C661	C66	0.458310	0.985370	0.953210
C671	C67	0.393940	0.966120	0.010800
C681	C68	0.275890	0.933340	0.028680
C691	C69	0.202900	0.921500	0.990900
C701	C70	0.094200	0.890700	0.013100
C711	C71	0.057040	0.873220	0.072900
C721	C72	0.132650	0.887100	0.109200
C731	C73	0.714090	0.212240	0.534980
C741	C74	0.851000	0.158190	0.523410
C751	C75	0.918650	0.118850	0.570250
C761	C76	0.844770	0.135650	0.627210
C771	C77	0.708600	0.192240	0.634960
C781	C78	0.631470	0.219750	0.694710
C791	C79	0.626910	0.150190	0.744190
C801	C80	0.664970	0.040680	0.741180
C811	C81	0.659840	0.997770	0.692950
C821	C82	0.696850	0.894370	0.695130
C831	C83	0.737360	0.836330	0.745350
C841	C84	0.734120	0.884650	0.792510
C851	C85	0.209190	0.435460	0.681760
C861	C86	0.117810	0.523180	0.705000
C871	C87	0.116950	0.614640	0.675460
C881	C88	0.206920	0.614760	0.622600
C891	C89	0.293900	0.523560	0.602240
C901	C90	0.396890	0.514630	0.546790
C911	C91	0.370860	0.533880	0.489200
C921	C92	0.237910	0.566660	0.471320
C931	C93	0.115300	0.578500	0.509100
C941	C94	0.998000	0.609300	0.486900
C951	C95	0.003160	0.626780	0.427100
C961	C96	0.128950	0.612900	0.390800
N11	N1	0.537800	0.730890	0.089710
N21	N2	0.525300	0.484900	0.291500
N31	N3	0.409390	0.818540	0.201280
N41	N4	0.635130	0.934430	0.131510
N51	N5	0.439000	0.981970	0.056430
N61	N6	0.761640	0.083830	0.912090
N71	N7	0.358400	0.769110	0.410290
N81	N8	0.301700	0.015100	0.208500
N91	N9	0.429210	0.681460	0.298720
N101	N10	0.701070	0.565570	0.368490
N111	N11	0.477400	0.518030	0.443570
N121	N12	0.757560	0.416170	0.587910
N131	N13	0.462200	0.269110	0.910290
N141	N14	0.474700	0.515100	0.708500
N151	N15	0.590610	0.181460	0.798720
N161	N16	0.364870	0.065570	0.868490
N171	N17	0.561000	0.018030	0.943570
N181	N18	0.238360	0.916170	0.087910
N191	N19	0.641600	0.230890	0.589710
N201	N20	0.698300	0.984900	0.791500
N211	N21	0.570790	0.318540	0.701280
N221	N22	0.298930	0.434430	0.631510
N231	N23	0.522600	0.481970	0.556430
N241	N24	0.242440	0.583830	0.412090
O11	O1	0.133960	0.504330	0.059150
O21	O2	0.824660	0.715390	0.126290
O31	O3	0.020680	0.679820	0.019220
O41	O4	0.759010	0.813980	0.016600
O51	O5	0.788570	0.715910	0.921150
O61	O6	0.959960	0.514800	0.152080
O71	O7	0.029440	0.618920	0.925000
O81	O8	0.697440	0.995670	0.440850
O91	O9	0.666340	0.784610	0.373710
O101	O10	0.719720	0.820180	0.480780
O111	O11	0.589590	0.686020	0.483400
O121	O12	0.425630	0.784090	0.578850
O131	O13	0.626840	0.985200	0.347920
O141	O14	0.573360	0.881080	0.575000
O151	O15	0.866040	0.495670	0.940850
O161	O16	0.175340	0.284610	0.873710
O171	O17	0.979320	0.320180	0.980780
O181	O18	0.240990	0.186020	0.983400
O191	O19	0.211430	0.284090	0.078850
O201	O20	0.040040	0.485200	0.847920
O211	O21	0.970560	0.381080	0.075000
O221	O22	0.302560	0.004330	0.559150
O231	O23	0.333660	0.215390	0.626290
O241	O24	0.280280	0.179820	0.519220
O251	O25	0.410410	0.313980	0.516600
O261	O26	0.574370	0.215910	0.421150
O271	O27	0.373160	0.014800	0.652080
O281	O28	0.426640	0.118920	0.425000
