data_IXUWOO_clean_PM
_symmetry_space_group_name_H-M	'P1'
_cell_length_a	15.105600
_cell_length_b	15.105600
_cell_length_c	16.136400
_cell_angle_alpha	85.648400
_cell_angle_beta	85.648400
_cell_angle_gamma	85.627200
_symmetry_Int_Tables_number 1

loop_
_symmetry_equiv_pos_as_xyz
'x,y,z'

loop_
_atom_site_label
_atom_site_type_symbol
_atom_site_fract_x
_atom_site_fract_y
_atom_site_fract_z
Co11	Co1	0.801200	0.772340	0.754730
Co21	Co2	0.227660	0.198800	0.745270
Co31	Co3	0.198800	0.227660	0.245270
Co41	Co4	0.772340	0.801200	0.254730
H11	H1	0.526900	0.075500	0.575500
H21	H2	0.614600	0.417800	0.404600
H31	H3	0.892700	0.928700	0.117800
H41	H4	0.834600	0.856200	0.017200
H51	H5	0.005500	0.961300	0.841400
H61	H6	0.042900	0.400500	0.633300
H71	H7	0.969700	0.504500	0.712400
H81	H8	0.902200	0.651600	0.507300
H91	H9	0.584600	0.331200	0.505100
H101	H10	0.341800	0.377600	0.426800
H111	H11	0.298000	0.250400	0.506700
H121	H12	0.402300	0.158700	0.575500
H131	H13	0.784800	0.981000	0.755400
H141	H14	0.698600	0.098800	0.701400
H151	H15	0.583500	0.930500	0.576000
H161	H16	0.669700	0.818500	0.634300
H171	H17	0.803900	0.623100	0.339100
H181	H18	0.738100	0.498900	0.390500
H191	H19	0.514900	0.600300	0.295500
H201	H20	0.588700	0.722700	0.245000
H211	H21	0.924500	0.473100	0.924500
H221	H22	0.582200	0.385400	0.095400
H231	H23	0.071300	0.107300	0.382200
H241	H24	0.143800	0.165400	0.482800
H251	H25	0.038700	0.994500	0.658600
H261	H26	0.599500	0.957100	0.866700
H271	H27	0.495500	0.030300	0.787600
H281	H28	0.348400	0.097800	0.992700
H291	H29	0.668800	0.415400	0.994900
H301	H30	0.622400	0.658200	0.073200
H311	H31	0.749600	0.702000	0.993300
H321	H32	0.841300	0.597700	0.924500
H331	H33	0.019000	0.215200	0.744600
H341	H34	0.901200	0.301400	0.798600
H351	H35	0.069500	0.416500	0.924000
H361	H36	0.181500	0.330300	0.865700
H371	H37	0.376900	0.196100	0.160900
H381	H38	0.501100	0.261900	0.109500
H391	H39	0.399700	0.485100	0.204500
H401	H40	0.277300	0.411300	0.255000
H411	H41	0.473100	0.924500	0.424500
H421	H42	0.385400	0.582200	0.595400
H431	H43	0.107300	0.071300	0.882200
H441	H44	0.165400	0.143800	0.982800
H451	H45	0.994500	0.038700	0.158600
H461	H46	0.957100	0.599500	0.366700
H471	H47	0.030300	0.495500	0.287600
H481	H48	0.097800	0.348400	0.492700
H491	H49	0.415400	0.668800	0.494900
H501	H50	0.658200	0.622400	0.573200
H511	H51	0.702000	0.749600	0.493300
H521	H52	0.597700	0.841300	0.424500
H531	H53	0.215200	0.019000	0.244600
H541	H54	0.301400	0.901200	0.298600
H551	H55	0.416500	0.069500	0.424000
H561	H56	0.330300	0.181500	0.365700
H571	H57	0.196100	0.376900	0.660900
H581	H58	0.261900	0.501100	0.609500
H591	H59	0.485100	0.399700	0.704500
H601	H60	0.411300	0.277300	0.755000
H611	H61	0.075500	0.526900	0.075500
H621	H62	0.417800	0.614600	0.904600
H631	H63	0.928700	0.892700	0.617800
H641	H64	0.856200	0.834600	0.517200
H651	H65	0.961300	0.005500	0.341400
H661	H66	0.400500	0.042900	0.133300
H671	H67	0.504500	0.969700	0.212400
H681	H68	0.651600	0.902200	0.007300
H691	H69	0.331200	0.584600	0.005100
H701	H70	0.377600	0.341800	0.926800
H711	H71	0.250400	0.298000	0.006700
H721	H72	0.158700	0.402300	0.075500
H731	H73	0.981000	0.784800	0.255400
H741	H74	0.098800	0.698600	0.201400
H751	H75	0.930500	0.583500	0.076000
H761	H76	0.818500	0.669700	0.134300
H771	H77	0.623100	0.803900	0.839100
H781	H78	0.498900	0.738100	0.890500
H791	H79	0.600300	0.514900	0.795500
H801	H80	0.722700	0.588700	0.745000
C11	C1	0.878300	0.853300	0.853800
C21	C2	0.914600	0.936800	0.062500
C31	C3	0.880900	0.892900	0.002900
C41	C4	0.916400	0.902800	0.918700
C51	C5	0.982500	0.956100	0.896500
C61	C6	0.018300	0.006300	0.959300
C71	C7	0.880700	0.656900	0.669400
C81	C8	0.015700	0.451300	0.607200
C91	C9	0.971700	0.512900	0.654600
C101	C10	0.929000	0.589400	0.616300
C111	C11	0.931600	0.601200	0.532200
C121	C12	0.978300	0.537900	0.481400
C131	C13	0.572600	0.183600	0.596600
C141	C14	0.491300	0.449100	0.406700
C151	C15	0.501900	0.235900	0.547900
C161	C16	0.527100	0.313900	0.502900
C171	C17	0.468700	0.364900	0.456200
C181	C18	0.382800	0.342200	0.457200
C191	C19	0.356800	0.265200	0.504400
C201	C20	0.418500	0.211500	0.547200
C211	C21	0.741900	0.970100	0.719800
C221	C22	0.690600	0.041600	0.687100
C231	C23	0.627700	0.028100	0.633400
C241	C24	0.623200	0.943000	0.614200
C251	C25	0.675200	0.876000	0.649300
C261	C26	0.744400	0.619000	0.330000
C271	C27	0.705100	0.544500	0.362200
C281	C28	0.616600	0.537400	0.352400
C291	C29	0.574000	0.603800	0.306300
C301	C30	0.619400	0.677200	0.275400
C311	C31	0.146700	0.121700	0.646200
C321	C32	0.063200	0.085400	0.437500
C331	C33	0.107100	0.119100	0.497100
C341	C34	0.097200	0.083600	0.581300
C351	C35	0.043900	0.017500	0.603500
C361	C36	0.993700	0.981700	0.540700
C371	C37	0.343100	0.119300	0.830600
C381	C38	0.548700	0.984300	0.892800
C391	C39	0.487100	0.028300	0.845400
C401	C40	0.410600	0.071000	0.883700
C411	C41	0.398800	0.068400	0.967800
C421	C42	0.462100	0.021700	0.018600
C431	C43	0.816400	0.427400	0.903400
C441	C44	0.550900	0.508700	0.093300
C451	C45	0.764100	0.498100	0.952100
C461	C46	0.686100	0.472900	0.997100
C471	C47	0.635100	0.531300	0.043800
C481	C48	0.657800	0.617200	0.042800
C491	C49	0.734800	0.643200	0.995600
C501	C50	0.788500	0.581500	0.952800
C511	C51	0.029900	0.258100	0.780200
C521	C52	0.958400	0.309400	0.812900
C531	C53	0.971900	0.372300	0.866600
C541	C54	0.057000	0.376800	0.885800
C551	C55	0.124000	0.324800	0.850700
C561	C56	0.381000	0.255600	0.170000
C571	C57	0.455500	0.294900	0.137800
C581	C58	0.462600	0.383400	0.147600
C591	C59	0.396200	0.426000	0.193700
C601	C60	0.322800	0.380600	0.224600
C611	C61	0.121700	0.146700	0.146200
C621	C62	0.085400	0.063200	0.937500
C631	C63	0.119100	0.107100	0.997100
C641	C64	0.083600	0.097200	0.081300
C651	C65	0.017500	0.043900	0.103500
C661	C66	0.981700	0.993700	0.040700
C671	C67	0.119300	0.343100	0.330600
C681	C68	0.984300	0.548700	0.392800
C691	C69	0.028300	0.487100	0.345400
C701	C70	0.071000	0.410600	0.383700
C711	C71	0.068400	0.398800	0.467800
C721	C72	0.021700	0.462100	0.518600
C731	C73	0.427400	0.816400	0.403400
C741	C74	0.508700	0.550900	0.593300
C751	C75	0.498100	0.764100	0.452100
C761	C76	0.472900	0.686100	0.497100
C771	C77	0.531300	0.635100	0.543800
C781	C78	0.617200	0.657800	0.542800
C791	C79	0.643200	0.734800	0.495600
C801	C80	0.581500	0.788500	0.452800
C811	C81	0.258100	0.029900	0.280200
C821	C82	0.309400	0.958400	0.312900
C831	C83	0.372300	0.971900	0.366600
C841	C84	0.376800	0.057000	0.385800
C851	C85	0.324800	0.124000	0.350700
C861	C86	0.255600	0.381000	0.670000
C871	C87	0.294900	0.455500	0.637800
C881	C88	0.383400	0.462600	0.647600
C891	C89	0.426000	0.396200	0.693700
C901	C90	0.380600	0.322800	0.724600
C911	C91	0.853300	0.878300	0.353800
C921	C92	0.936800	0.914600	0.562500
C931	C93	0.892900	0.880900	0.502900
C941	C94	0.902800	0.916400	0.418700
C951	C95	0.956100	0.982500	0.396500
C961	C96	0.006300	0.018300	0.459300
C971	C97	0.656900	0.880700	0.169400
C981	C98	0.451300	0.015700	0.107200
C991	C99	0.512900	0.971700	0.154600
C1001	C100	0.589400	0.929000	0.116300
C1011	C101	0.601200	0.931600	0.032200
C1021	C102	0.537900	0.978300	0.981400
C1031	C103	0.183600	0.572600	0.096600
C1041	C104	0.449100	0.491300	0.906700
C1051	C105	0.235900	0.501900	0.047900
C1061	C106	0.313900	0.527100	0.002900
C1071	C107	0.364900	0.468700	0.956200
C1081	C108	0.342200	0.382800	0.957200
C1091	C109	0.265200	0.356800	0.004400
C1101	C110	0.211500	0.418500	0.047200
C1111	C111	0.970100	0.741900	0.219800
C1121	C112	0.041600	0.690600	0.187100
C1131	C113	0.028100	0.627700	0.133400
C1141	C114	0.943000	0.623200	0.114200
C1151	C115	0.876000	0.675200	0.149300
C1161	C116	0.619000	0.744400	0.830000
C1171	C117	0.544500	0.705100	0.862200
C1181	C118	0.537400	0.616600	0.852400
C1191	C119	0.603800	0.574000	0.806300
C1201	C120	0.677200	0.619400	0.775400
N11	N1	0.733900	0.887500	0.703900
N21	N2	0.570400	0.094200	0.599000
N31	N3	0.703600	0.686000	0.286700
N41	N4	0.578100	0.461900	0.390100
N51	N5	0.112500	0.266100	0.796100
N61	N6	0.905800	0.429600	0.901000
N71	N7	0.314000	0.296400	0.213300
N81	N8	0.538100	0.421900	0.109900
N91	N9	0.266100	0.112500	0.296100
N101	N10	0.429600	0.905800	0.401000
N111	N11	0.296400	0.314000	0.713300
N121	N12	0.421900	0.538100	0.609900
N131	N13	0.887500	0.733900	0.203900
N141	N14	0.094200	0.570400	0.099000
N151	N15	0.686000	0.703600	0.786700
N161	N16	0.461900	0.578100	0.890100
O11	O1	0.913500	0.849300	0.782000
O21	O2	0.806600	0.816400	0.873800
O31	O3	0.886700	0.650500	0.747400
O41	O4	0.833000	0.719200	0.637700
O51	O5	0.627600	0.220800	0.632600
O61	O6	0.433300	0.503700	0.382600
O71	O7	0.150700	0.086500	0.718000
O81	O8	0.183600	0.193400	0.626200
O91	O9	0.349500	0.113300	0.752600
O101	O10	0.280800	0.167000	0.862300
O111	O11	0.779200	0.372400	0.867400
O121	O12	0.496300	0.566700	0.117400
O131	O13	0.086500	0.150700	0.218000
O141	O14	0.193400	0.183600	0.126200
O151	O15	0.113300	0.349500	0.252600
O161	O16	0.167000	0.280800	0.362300
O171	O17	0.372400	0.779200	0.367400
O181	O18	0.566700	0.496300	0.617400
O191	O19	0.849300	0.913500	0.282000
O201	O20	0.816400	0.806600	0.373800
O211	O21	0.650500	0.886700	0.247400
O221	O22	0.719200	0.833000	0.137700
O231	O23	0.220800	0.627600	0.132600
O241	O24	0.503700	0.433300	0.882600
