data_IXUWII_clean_PM
_symmetry_space_group_name_H-M	'P1'
_cell_length_a	16.130000
_cell_length_b	16.878700
_cell_length_c	16.878700
_cell_angle_alpha	92.376500
_cell_angle_beta	100.838000
_cell_angle_gamma	79.162000
_symmetry_Int_Tables_number 1

loop_
_symmetry_equiv_pos_as_xyz
'x,y,z'

loop_
_atom_site_label
_atom_site_type_symbol
_atom_site_fract_x
_atom_site_fract_y
_atom_site_fract_z
Co11	Co1	0.236660	0.237460	0.782140
Co21	Co2	0.263340	0.782140	0.237460
Co31	Co3	0.763340	0.762540	0.217860
Co41	Co4	0.736660	0.217860	0.762540
H11	H1	0.414600	0.485500	0.054900
H21	H2	0.488100	0.151100	0.679500
H31	H3	0.528100	0.396600	0.417000
H41	H4	0.570200	0.070900	0.597300
H51	H5	0.359800	0.995300	0.476900
H61	H6	0.277900	0.070000	0.562200
H71	H7	0.992800	0.164900	0.843900
H81	H8	0.920800	0.099600	0.918800
H91	H9	0.349400	0.360900	0.820900
H101	H10	0.236500	0.263400	0.964800
H111	H11	0.291100	0.338100	0.072700
H121	H12	0.416200	0.429600	0.923200
H131	H13	0.419700	0.589800	0.133000
H141	H14	0.492100	0.670400	0.220200
H151	H15	0.572100	0.623400	0.345000
H161	H16	0.487100	0.410400	0.296800
H171	H17	0.589800	0.230500	0.624700
H181	H18	0.523800	0.302700	0.511500
H191	H19	0.704100	0.439600	0.557800
H201	H20	0.761900	0.366100	0.671500
H211	H21	0.135400	0.945200	0.003800
H221	H22	0.208100	0.015200	0.932400
H231	H23	0.085400	0.054900	0.485500
H241	H24	0.011900	0.679500	0.151100
H251	H25	0.971900	0.417000	0.396600
H261	H26	0.929800	0.597300	0.070900
H271	H27	0.140200	0.476900	0.995300
H281	H28	0.222100	0.562200	0.070000
H291	H29	0.507200	0.843900	0.164900
H301	H30	0.579200	0.918800	0.099600
H311	H31	0.150600	0.820900	0.360900
H321	H32	0.263500	0.964800	0.263400
H331	H33	0.208900	0.072700	0.338100
H341	H34	0.083800	0.923200	0.429600
H351	H35	0.080300	0.133000	0.589800
H361	H36	0.007900	0.220200	0.670400
H371	H37	0.927900	0.345000	0.623400
H381	H38	0.012900	0.296800	0.410400
H391	H39	0.910200	0.624700	0.230500
H401	H40	0.976200	0.511500	0.302700
H411	H41	0.795900	0.557800	0.439600
H421	H42	0.738100	0.671500	0.366100
H431	H43	0.364600	0.003800	0.945200
H441	H44	0.291900	0.932400	0.015200
H451	H45	0.585400	0.514500	0.945100
H461	H46	0.511900	0.848900	0.320500
H471	H47	0.471900	0.603400	0.583000
H481	H48	0.429800	0.929100	0.402700
H491	H49	0.640200	0.004700	0.523100
H501	H50	0.722100	0.930000	0.437800
H511	H51	0.007200	0.835100	0.156100
H521	H52	0.079200	0.900400	0.081200
H531	H53	0.650600	0.639100	0.179100
H541	H54	0.763500	0.736600	0.035200
H551	H55	0.708900	0.661900	0.927300
H561	H56	0.583800	0.570400	0.076800
H571	H57	0.580300	0.410200	0.867000
H581	H58	0.507900	0.329600	0.779800
H591	H59	0.427900	0.376600	0.655000
H601	H60	0.512900	0.589600	0.703200
H611	H61	0.410200	0.769500	0.375300
H621	H62	0.476200	0.697300	0.488500
H631	H63	0.295900	0.560400	0.442200
H641	H64	0.238100	0.633900	0.328500
H651	H65	0.864600	0.054800	0.996200
H661	H66	0.791900	0.984800	0.067600
H671	H67	0.914600	0.945100	0.514500
H681	H68	0.988100	0.320500	0.848900
H691	H69	0.028100	0.583000	0.603400
H701	H70	0.070200	0.402700	0.929100
H711	H71	0.859800	0.523100	0.004700
H721	H72	0.777900	0.437800	0.930000
H731	H73	0.492800	0.156100	0.835100
H741	H74	0.420800	0.081200	0.900400
H751	H75	0.849400	0.179100	0.639100
H761	H76	0.736500	0.035200	0.736600
H771	H77	0.791100	0.927300	0.661900
H781	H78	0.916200	0.076800	0.570400
H791	H79	0.919700	0.867000	0.410200
H801	H80	0.992100	0.779800	0.329600
H811	H81	0.072100	0.655000	0.376600
H821	H82	0.987100	0.703200	0.589600
H831	H83	0.089800	0.375300	0.769500
H841	H84	0.023800	0.488500	0.697300
H851	H85	0.204100	0.442200	0.560400
H861	H86	0.261900	0.328500	0.633900
H871	H87	0.635400	0.996200	0.054800
H881	H88	0.708100	0.067600	0.984800
C11	C1	0.321440	0.163950	0.685650
C21	C2	0.375000	0.117040	0.630400
C31	C3	0.461800	0.118190	0.639090
C41	C4	0.510130	0.071560	0.589040
C51	C5	0.473430	0.025470	0.526910
C61	C6	0.386700	0.026420	0.518820
C71	C7	0.337600	0.071000	0.569400
C81	C8	0.161300	0.158220	0.855220
C91	C9	0.023800	0.122940	0.879560
C101	C10	0.979900	0.078740	0.919580
C111	C11	0.338900	0.354400	0.873600
C121	C12	0.272600	0.299330	0.956030
C131	C13	0.305100	0.343660	0.021340
C141	C14	0.358100	0.395890	0.010750
C151	C15	0.376700	0.397700	0.933500
C161	C16	0.405700	0.433240	0.151720
C171	C17	0.450100	0.490880	0.205140
C181	C18	0.450200	0.569420	0.183980
C191	C19	0.493200	0.616610	0.235470
C201	C20	0.539700	0.589630	0.310710
C211	C21	0.537500	0.511730	0.334770
C221	C22	0.490700	0.462880	0.280880
C231	C23	0.613700	0.274430	0.611370
C241	C24	0.574500	0.316620	0.542980
C251	C25	0.608000	0.379180	0.519260
C261	C26	0.678500	0.396330	0.569790
C271	C27	0.712700	0.351770	0.637870
C281	C28	0.587300	0.485350	0.416530
C291	C29	0.107800	0.106600	0.891000
C301	C30	0.013400	0.009200	0.959200
C311	C31	0.105000	0.988900	0.970300
C321	C32	0.148600	0.033700	0.931700
C331	C33	0.178560	0.685650	0.163950
C341	C34	0.125000	0.630400	0.117040
C351	C35	0.038200	0.639090	0.118190
C361	C36	0.989870	0.589040	0.071560
C371	C37	0.026570	0.526910	0.025470
C381	C38	0.113300	0.518820	0.026420
C391	C39	0.162400	0.569400	0.071000
C401	C40	0.338700	0.855220	0.158220
C411	C41	0.476200	0.879560	0.122940
C421	C42	0.520100	0.919580	0.078740
C431	C43	0.161100	0.873600	0.354400
C441	C44	0.227400	0.956030	0.299330
C451	C45	0.194900	0.021340	0.343660
C461	C46	0.141900	0.010750	0.395890
C471	C47	0.123300	0.933500	0.397700
C481	C48	0.094300	0.151720	0.433240
C491	C49	0.049900	0.205140	0.490880
C501	C50	0.049800	0.183980	0.569420
C511	C51	0.006800	0.235470	0.616610
C521	C52	0.960300	0.310710	0.589630
C531	C53	0.962500	0.334770	0.511730
C541	C54	0.009300	0.280880	0.462880
C551	C55	0.886300	0.611370	0.274430
C561	C56	0.925500	0.542980	0.316620
C571	C57	0.892000	0.519260	0.379180
C581	C58	0.821500	0.569790	0.396330
C591	C59	0.787300	0.637870	0.351770
C601	C60	0.912700	0.416530	0.485350
C611	C61	0.392200	0.891000	0.106600
C621	C62	0.486600	0.959200	0.009200
C631	C63	0.395000	0.970300	0.988900
C641	C64	0.351400	0.931700	0.033700
C651	C65	0.678560	0.836050	0.314350
C661	C66	0.625000	0.882960	0.369600
C671	C67	0.538200	0.881810	0.360910
C681	C68	0.489870	0.928440	0.410960
C691	C69	0.526570	0.974530	0.473090
C701	C70	0.613300	0.973580	0.481180
C711	C71	0.662400	0.929000	0.430600
C721	C72	0.838700	0.841780	0.144780
C731	C73	0.976200	0.877060	0.120440
C741	C74	0.020100	0.921260	0.080420
C751	C75	0.661100	0.645600	0.126400
C761	C76	0.727400	0.700670	0.043970
C771	C77	0.694900	0.656340	0.978660
C781	C78	0.641900	0.604110	0.989250
C791	C79	0.623300	0.602300	0.066500
C801	C80	0.594300	0.566760	0.848280
C811	C81	0.549900	0.509120	0.794860
C821	C82	0.549800	0.430580	0.816020
C831	C83	0.506800	0.383390	0.764530
C841	C84	0.460300	0.410370	0.689290
C851	C85	0.462500	0.488270	0.665230
C861	C86	0.509300	0.537120	0.719120
C871	C87	0.386300	0.725570	0.388630
C881	C88	0.425500	0.683380	0.457020
C891	C89	0.392000	0.620820	0.480740
C901	C90	0.321500	0.603670	0.430210
C911	C91	0.287300	0.648230	0.362130
C921	C92	0.412700	0.514650	0.583470
C931	C93	0.892200	0.893400	0.109000
C941	C94	0.986600	0.990800	0.040800
C951	C95	0.895000	0.011100	0.029700
C961	C96	0.851400	0.966300	0.068300
C971	C97	0.821440	0.314350	0.836050
C981	C98	0.875000	0.369600	0.882960
C991	C99	0.961800	0.360910	0.881810
C1001	C100	0.010130	0.410960	0.928440
C1011	C101	0.973430	0.473090	0.974530
C1021	C102	0.886700	0.481180	0.973580
C1031	C103	0.837600	0.430600	0.929000
C1041	C104	0.661300	0.144780	0.841780
C1051	C105	0.523800	0.120440	0.877060
C1061	C106	0.479900	0.080420	0.921260
C1071	C107	0.838900	0.126400	0.645600
C1081	C108	0.772600	0.043970	0.700670
C1091	C109	0.805100	0.978660	0.656340
C1101	C110	0.858100	0.989250	0.604110
C1111	C111	0.876700	0.066500	0.602300
C1121	C112	0.905700	0.848280	0.566760
C1131	C113	0.950100	0.794860	0.509120
C1141	C114	0.950200	0.816020	0.430580
C1151	C115	0.993200	0.764530	0.383390
C1161	C116	0.039700	0.689290	0.410370
C1171	C117	0.037500	0.665230	0.488270
C1181	C118	0.990700	0.719120	0.537120
C1191	C119	0.113700	0.388630	0.725570
C1201	C120	0.074500	0.457020	0.683380
C1211	C121	0.108000	0.480740	0.620820
C1221	C122	0.178500	0.430210	0.603670
C1231	C123	0.212700	0.362130	0.648230
C1241	C124	0.087300	0.583470	0.514650
C1251	C125	0.607800	0.109000	0.893400
C1261	C126	0.513400	0.040800	0.990800
C1271	C127	0.605000	0.029700	0.011100
C1281	C128	0.648600	0.068300	0.966300
N11	N1	0.288180	0.303450	0.881870
N21	N2	0.395700	0.444280	0.070780
N31	N3	0.682980	0.290790	0.660450
N41	N4	0.569300	0.418050	0.446910
N51	N5	0.211820	0.881870	0.303450
N61	N6	0.104300	0.070780	0.444280
N71	N7	0.817020	0.660450	0.290790
N81	N8	0.930700	0.446910	0.418050
N91	N9	0.711820	0.696550	0.118130
N101	N10	0.604300	0.555720	0.929220
N111	N11	0.317020	0.709210	0.339550
N121	N12	0.430700	0.581950	0.553090
N131	N13	0.788180	0.118130	0.696550
N141	N14	0.895700	0.929220	0.555720
N151	N15	0.182980	0.339550	0.709210
N161	N16	0.069300	0.553090	0.581950
O11	O1	0.353980	0.213820	0.735040
O21	O2	0.247070	0.152750	0.684250
O31	O3	0.122790	0.219870	0.815830
O41	O4	0.241130	0.134830	0.861170
O51	O5	0.382200	0.378910	0.180070
O61	O6	0.639800	0.521040	0.452700
O71	O7	0.146020	0.735040	0.213820
O81	O8	0.252930	0.684250	0.152750
O91	O9	0.377210	0.815830	0.219870
O101	O10	0.258870	0.861170	0.134830
O111	O11	0.117800	0.180070	0.378910
O121	O12	0.860200	0.452700	0.521040
O131	O13	0.646020	0.786180	0.264960
O141	O14	0.752930	0.847250	0.315750
O151	O15	0.877210	0.780130	0.184170
O161	O16	0.758870	0.865170	0.138830
O171	O17	0.617800	0.621090	0.819930
O181	O18	0.360200	0.478960	0.547300
O191	O19	0.853980	0.264960	0.786180
O201	O20	0.747070	0.315750	0.847250
O211	O21	0.622790	0.184170	0.780130
O221	O22	0.741130	0.138830	0.865170
O231	O23	0.882200	0.819930	0.621090
O241	O24	0.139800	0.547300	0.478960
