data_IYAHEX_clean_PM
_symmetry_space_group_name_H-M	'P1'
_cell_length_a	9.417000
_cell_length_b	15.289000
_cell_length_c	16.750000
_cell_angle_alpha	68.978000
_cell_angle_beta	79.291000
_cell_angle_gamma	89.359000
_symmetry_Int_Tables_number 1

loop_
_symmetry_equiv_pos_as_xyz
'x,y,z'

loop_
_atom_site_label
_atom_site_type_symbol
_atom_site_fract_x
_atom_site_fract_y
_atom_site_fract_z
Pr11	Pr1	0.083830	0.172150	0.892280
Pr21	Pr2	0.383270	0.238490	0.478170
Pr31	Pr3	0.500940	0.322360	0.109050
O11	O1	0.250600	0.195600	0.753200
O21	O2	0.392500	0.235300	0.623600
O31	O3	0.891300	0.213900	0.796700
O41	O4	0.805100	0.128800	0.935300
O51	O5	0.492100	0.848600	0.795700
O61	O6	0.589800	0.826600	0.909300
O71	O7	0.672300	0.470500	0.505000
H11	H1	0.703600	0.511100	0.457200
O81	O8	0.633000	0.593500	0.544000
O91	O9	0.573000	0.538300	0.861800
O101	O10	0.516700	0.392800	0.956900
O111	O11	0.599100	0.316500	0.367100
O121	O12	0.583900	0.301400	0.242700
O131	O13	0.245800	0.278800	0.207700
O141	O14	0.247800	0.364100	0.071200
O151	O15	0.032000	0.675300	0.087300
O161	O16	0.849600	0.658400	0.195000
O171	O17	0.013700	0.109800	0.044500
O181	O18	0.964100	0.965500	0.140900
O191	O19	0.735200	0.908800	0.439000
O201	O20	0.734700	0.019400	0.495500
C11	C1	0.365400	0.193400	0.704500
C21	C2	0.481600	0.137400	0.749900
C31	C3	0.583300	0.179300	0.778300
C41	C4	0.674800	0.119800	0.829300
C51	C5	0.661000	0.023800	0.851300
H21	H2	0.717300	0.985500	0.888400
C61	C6	0.564300	0.982900	0.818900
C71	C7	0.475400	0.041600	0.767400
H31	H3	0.411100	0.016100	0.744400
C81	C8	0.794500	0.158300	0.855000
C91	C9	0.551400	0.879000	0.843200
C101	C10	0.590300	0.282000	0.758700
C111	C11	0.612500	0.346300	0.672200
H41	H4	0.625500	0.324200	0.626500
C121	C12	0.615300	0.441000	0.654400
C131	C13	0.596600	0.475100	0.722100
H51	H5	0.597800	0.539600	0.709400
C141	C14	0.576300	0.414500	0.808000
C151	C15	0.573700	0.318600	0.825900
H61	H6	0.560700	0.277500	0.883600
C161	C16	0.639500	0.509700	0.563500
C171	C17	0.554600	0.450300	0.880800
C181	C18	0.649000	0.324800	0.291200
C191	C19	0.801200	0.369900	0.250000
C201	C20	0.918600	0.322000	0.224100
C211	C21	0.048200	0.376600	0.175400
C221	C22	0.053700	0.473400	0.149800
H71	H7	0.136300	0.508100	0.112900
C231	C23	0.938700	0.520400	0.177900
C241	C24	0.812200	0.466400	0.229100
H81	H8	0.734300	0.495700	0.249300
C251	C25	0.186900	0.335900	0.150200
C261	C26	0.942800	0.624600	0.151200
C271	C27	0.905300	0.219200	0.243500
C281	C28	0.947000	0.185000	0.177200
H91	H9	0.986300	0.226500	0.121400
C291	C29	0.931100	0.088500	0.192800
C301	C30	0.869100	0.029200	0.276000
H101	H10	0.856700	0.965300	0.287300
C311	C31	0.825700	0.061800	0.341700
C321	C32	0.845900	0.157200	0.326200
H111	H11	0.819300	0.179200	0.371600
C331	C33	0.971900	0.050500	0.121300
C341	C34	0.760400	0.991700	0.433300
Pr41	Pr4	0.916170	0.827850	0.107720
Pr51	Pr5	0.616730	0.761510	0.521830
Pr61	Pr6	0.499060	0.677640	0.890950
O211	O21	0.749400	0.804400	0.246800
O221	O22	0.607500	0.764700	0.376400
O231	O23	0.108700	0.786100	0.203300
O241	O24	0.194900	0.871200	0.064700
O251	O25	0.507900	0.151400	0.204300
O261	O26	0.410200	0.173400	0.090700
O271	O27	0.327700	0.529500	0.495000
H121	H12	0.296400	0.488900	0.542800
O281	O28	0.367000	0.406500	0.456000
O291	O29	0.427000	0.461700	0.138200
O301	O30	0.483300	0.607200	0.043100
O311	O31	0.400900	0.683500	0.632900
O321	O32	0.416100	0.698600	0.757300
O331	O33	0.754200	0.721200	0.792300
O341	O34	0.752200	0.635900	0.928800
O351	O35	0.968000	0.324700	0.912700
O361	O36	0.150400	0.341600	0.805000
O371	O37	0.986300	0.890200	0.955500
O381	O38	0.035900	0.034500	0.859100
O391	O39	0.264800	0.091200	0.561000
O401	O40	0.265300	0.980600	0.504500
C351	C35	0.634600	0.806600	0.295500
C361	C36	0.518400	0.862600	0.250100
C371	C37	0.416700	0.820700	0.221700
C381	C38	0.325200	0.880200	0.170700
C391	C39	0.339000	0.976200	0.148700
H131	H13	0.282700	0.014500	0.111600
C401	C40	0.435700	0.017100	0.181100
C411	C41	0.524600	0.958400	0.232600
H141	H14	0.588900	0.983900	0.255600
C421	C42	0.205500	0.841700	0.145000
C431	C43	0.448600	0.121000	0.156800
C441	C44	0.409700	0.718000	0.241300
C451	C45	0.387500	0.653700	0.327800
H151	H15	0.374500	0.675800	0.373500
C461	C46	0.384700	0.559000	0.345600
C471	C47	0.403400	0.524900	0.277900
H161	H16	0.402200	0.460400	0.290600
C481	C48	0.423700	0.585500	0.192000
C491	C49	0.426300	0.681400	0.174100
H171	H17	0.439300	0.722500	0.116400
C501	C50	0.360500	0.490300	0.436500
C511	C51	0.445400	0.549700	0.119200
C521	C52	0.351000	0.675200	0.708800
C531	C53	0.198800	0.630100	0.750000
C541	C54	0.081400	0.678000	0.775900
C551	C55	0.951800	0.623400	0.824600
C561	C56	0.946300	0.526600	0.850200
H181	H18	0.863700	0.491900	0.887100
C571	C57	0.061300	0.479600	0.822100
C581	C58	0.187800	0.533600	0.770900
H191	H19	0.265700	0.504300	0.750700
C591	C59	0.813100	0.664100	0.849800
C601	C60	0.057200	0.375400	0.848800
C611	C61	0.094700	0.780800	0.756500
C621	C62	0.053000	0.815000	0.822800
H201	H20	0.013700	0.773500	0.878600
C631	C63	0.068900	0.911500	0.807200
C641	C64	0.130900	0.970800	0.724000
H211	H21	0.143300	0.034700	0.712700
C651	C65	0.174300	0.938200	0.658300
C661	C66	0.154100	0.842800	0.673800
H221	H22	0.180700	0.820800	0.628400
C671	C67	0.028100	0.949500	0.878700
C681	C68	0.239600	0.008300	0.566700
