data_IYAYUE_clean_PM
_symmetry_space_group_name_H-M	'P1'
_cell_length_a	10.366000
_cell_length_b	10.472400
_cell_length_c	12.958200
_cell_angle_alpha	95.243000
_cell_angle_beta	102.189000
_cell_angle_gamma	106.434000
_symmetry_Int_Tables_number 1

loop_
_symmetry_equiv_pos_as_xyz
'x,y,z'

loop_
_atom_site_label
_atom_site_type_symbol
_atom_site_fract_x
_atom_site_fract_y
_atom_site_fract_z
Cu11	Cu1	0.811630	0.225640	0.240170
S11	S1	0.266760	0.219930	0.215070
S21	S2	0.818640	0.758390	0.277040
C11	C1	0.089300	0.303700	0.317500
C21	C2	0.232400	0.301500	0.322100
C31	C3	0.347500	0.350700	0.406100
H11	H1	0.348200	0.397700	0.470800
C41	C4	0.465300	0.322200	0.383700
H21	H2	0.552200	0.348900	0.431700
C51	C5	0.436600	0.251100	0.283600
C61	C6	0.530600	0.200800	0.231100
C71	C7	0.764800	0.971300	0.180100
C81	C8	0.758700	0.827500	0.169200
C91	C9	0.707600	0.734200	0.077900
H31	H3	0.669000	0.752900	0.011700
C101	C10	0.719400	0.607500	0.094800
H41	H4	0.690200	0.533200	0.040800
C111	C11	0.777900	0.604500	0.198300
C121	C12	0.809900	0.490500	0.247000
O11	O1	0.002400	0.260300	0.227500
O21	O2	0.061500	0.342900	0.401300
O31	O3	0.646800	0.210200	0.291400
O41	O4	0.489300	0.154600	0.134300
O51	O5	0.816400	0.043500	0.272200
O61	O6	0.719800	0.017200	0.098900
O71	O7	0.847700	0.504200	0.345900
O81	O8	0.794400	0.386200	0.181600
Cu21	Cu2	0.188370	0.774360	0.759830
S31	S3	0.733240	0.780070	0.784930
S41	S4	0.181360	0.241610	0.722960
C131	C13	0.910700	0.696300	0.682500
C141	C14	0.767600	0.698500	0.677900
C151	C15	0.652500	0.649300	0.593900
H51	H5	0.651800	0.602300	0.529200
C161	C16	0.534700	0.677800	0.616300
H61	H6	0.447800	0.651100	0.568300
C171	C17	0.563400	0.748900	0.716400
C181	C18	0.469400	0.799200	0.768900
C191	C19	0.235200	0.028700	0.819900
C201	C20	0.241300	0.172500	0.830800
C211	C21	0.292400	0.265800	0.922100
H71	H7	0.331000	0.247100	0.988300
C221	C22	0.280600	0.392500	0.905200
H81	H8	0.309800	0.466800	0.959200
C231	C23	0.222100	0.395500	0.801700
C241	C24	0.190100	0.509500	0.753000
O91	O9	0.997600	0.739700	0.772500
O101	O10	0.938500	0.657100	0.598700
O111	O11	0.353200	0.789800	0.708600
O121	O12	0.510700	0.845400	0.865700
O131	O13	0.183600	0.956500	0.727800
O141	O14	0.280200	0.982800	0.901100
O151	O15	0.152300	0.495800	0.654100
O161	O16	0.205600	0.613800	0.818400
Ca11	Ca1	0.000000	0.500000	0.500000
Ca21	Ca2	0.500000	0.000000	0.000000
