data_IYEXOZ_clean_PM
_symmetry_space_group_name_H-M	'P1'
_cell_length_a	12.328000
_cell_length_b	21.579000
_cell_length_c	26.024000
_cell_angle_alpha	90.000000
_cell_angle_beta	99.540000
_cell_angle_gamma	90.000000
_symmetry_Int_Tables_number 1

loop_
_symmetry_equiv_pos_as_xyz
'x,y,z'

loop_
_atom_site_label
_atom_site_type_symbol
_atom_site_fract_x
_atom_site_fract_y
_atom_site_fract_z
Mo11	Mo1	0.068710	0.357930	0.404810
Mo21	Mo2	0.954890	0.263010	0.424920
Mo31	Mo3	0.428870	0.231760	0.394790
Mo41	Mo4	0.283590	0.104380	0.424240
Mo51	Mo5	0.341510	0.340500	0.389500
Mo61	Mo6	0.079980	0.117450	0.436750
Co11	Co1	0.148120	0.565240	0.293010
P11	P1	0.149090	0.226110	0.351370
P21	P2	0.413940	0.104690	0.321820
P31	P3	0.853060	0.144060	0.353110
P41	P4	0.168820	0.414510	0.300560
O11	O1	0.142400	0.368140	0.256420
O21	O2	0.168900	0.477850	0.276180
O31	O3	0.281800	0.400530	0.331190
O41	O4	0.740900	0.110760	0.348280
O51	O5	0.504900	0.060090	0.314230
O61	O6	0.081700	0.409840	0.338310
O71	O7	0.886900	0.155610	0.300920
O81	O8	0.145000	0.077280	0.383250
O91	O9	0.949700	0.313260	0.362570
O101	O10	0.101600	0.219360	0.294290
O111	O11	0.990200	0.183850	0.471650
O121	O12	0.383200	0.287330	0.336480
O131	O13	0.067100	0.202480	0.386140
O141	O14	0.350200	0.275640	0.444120
O151	O15	0.174600	0.295360	0.365030
O161	O16	0.841300	0.205290	0.382270
O171	O17	0.256900	0.189620	0.367860
O181	O18	0.353000	0.074510	0.362540
O191	O19	0.215200	0.161340	0.469590
O201	O20	0.461500	0.168810	0.339990
O211	O21	0.231900	0.386110	0.430200
O221	O22	0.934600	0.101020	0.388690
O231	O23	0.098700	0.294440	0.459230
O241	O24	0.422800	0.155950	0.442140
O251	O25	0.334400	0.113060	0.270310
Na11	Na1	0.909800	0.456320	0.314100
Mo71	Mo7	0.568710	0.857930	0.404810
Mo81	Mo8	0.454890	0.763010	0.424920
Mo91	Mo9	0.928870	0.731760	0.394790
Mo101	Mo10	0.783590	0.604380	0.424240
Mo111	Mo11	0.841510	0.840500	0.389500
Mo121	Mo12	0.579980	0.617450	0.436750
Co21	Co2	0.648120	0.065240	0.293010
P51	P5	0.649090	0.726110	0.351370
P61	P6	0.913940	0.604690	0.321820
P71	P7	0.353060	0.644060	0.353110
P81	P8	0.668820	0.914510	0.300560
O261	O26	0.642400	0.868140	0.256420
O271	O27	0.668900	0.977850	0.276180
O281	O28	0.781800	0.900530	0.331190
O291	O29	0.240900	0.610760	0.348280
O301	O30	0.004900	0.560090	0.314230
O311	O31	0.581700	0.909840	0.338310
O321	O32	0.386900	0.655610	0.300920
O331	O33	0.645000	0.577280	0.383250
O341	O34	0.449700	0.813260	0.362570
O351	O35	0.601600	0.719360	0.294290
O361	O36	0.490200	0.683850	0.471650
O371	O37	0.883200	0.787330	0.336480
O381	O38	0.567100	0.702480	0.386140
O391	O39	0.850200	0.775640	0.444120
O401	O40	0.674600	0.795360	0.365030
O411	O41	0.341300	0.705290	0.382270
O421	O42	0.756900	0.689620	0.367860
O431	O43	0.853000	0.574510	0.362540
O441	O44	0.715200	0.661340	0.469590
O451	O45	0.961500	0.668810	0.339990
O461	O46	0.731900	0.886110	0.430200
O471	O47	0.434600	0.601020	0.388690
O481	O48	0.598700	0.794440	0.459230
O491	O49	0.922800	0.655950	0.442140
O501	O50	0.834400	0.613060	0.270310
Na21	Na2	0.409800	0.956320	0.314100
Mo131	Mo13	0.931290	0.357930	0.095190
Mo141	Mo14	0.045110	0.263010	0.075080
Mo151	Mo15	0.571130	0.231760	0.105210
Mo161	Mo16	0.716410	0.104380	0.075760
Mo171	Mo17	0.658490	0.340500	0.110500
Mo181	Mo18	0.920020	0.117450	0.063250
Co31	Co3	0.851880	0.565240	0.206990
P91	P9	0.850910	0.226110	0.148630
P101	P10	0.586060	0.104690	0.178180
P111	P11	0.146940	0.144060	0.146890
P121	P12	0.831180	0.414510	0.199440
O511	O51	0.857600	0.368140	0.243580
O521	O52	0.831100	0.477850	0.223820
O531	O53	0.718200	0.400530	0.168810
O541	O54	0.259100	0.110760	0.151720
O551	O55	0.495100	0.060090	0.185770
O561	O56	0.918300	0.409840	0.161690
O571	O57	0.113100	0.155610	0.199080
O581	O58	0.855000	0.077280	0.116750
O591	O59	0.050300	0.313260	0.137430
O601	O60	0.898400	0.219360	0.205710
O611	O61	0.009800	0.183850	0.028350
O621	O62	0.616800	0.287330	0.163520
O631	O63	0.932900	0.202480	0.113860
O641	O64	0.649800	0.275640	0.055880
O651	O65	0.825400	0.295360	0.134970
O661	O66	0.158700	0.205290	0.117730
O671	O67	0.743100	0.189620	0.132140
O681	O68	0.647000	0.074510	0.137460
O691	O69	0.784800	0.161340	0.030410
O701	O70	0.538500	0.168810	0.160010
O711	O71	0.768100	0.386110	0.069800
O721	O72	0.065400	0.101020	0.111310
O731	O73	0.901300	0.294440	0.040770
O741	O74	0.577200	0.155950	0.057860
O751	O75	0.665600	0.113060	0.229690
Na31	Na3	0.090200	0.456320	0.185900
Mo191	Mo19	0.431290	0.857930	0.095190
Mo201	Mo20	0.545110	0.763010	0.075080
Mo211	Mo21	0.071130	0.731760	0.105210
Mo221	Mo22	0.216410	0.604380	0.075760
Mo231	Mo23	0.158490	0.840500	0.110500
Mo241	Mo24	0.420020	0.617450	0.063250
Co41	Co4	0.351880	0.065240	0.206990
P131	P13	0.350910	0.726110	0.148630
P141	P14	0.086060	0.604690	0.178180
P151	P15	0.646940	0.644060	0.146890
P161	P16	0.331180	0.914510	0.199440
O761	O76	0.357600	0.868140	0.243580
O771	O77	0.331100	0.977850	0.223820
O781	O78	0.218200	0.900530	0.168810
O791	O79	0.759100	0.610760	0.151720
O801	O80	0.995100	0.560090	0.185770
O811	O81	0.418300	0.909840	0.161690
O821	O82	0.613100	0.655610	0.199080
O831	O83	0.355000	0.577280	0.116750
O841	O84	0.550300	0.813260	0.137430
O851	O85	0.398400	0.719360	0.205710
O861	O86	0.509800	0.683850	0.028350
O871	O87	0.116800	0.787330	0.163520
O881	O88	0.432900	0.702480	0.113860
O891	O89	0.149800	0.775640	0.055880
O901	O90	0.325400	0.795360	0.134970
O911	O91	0.658700	0.705290	0.117730
O921	O92	0.243100	0.689620	0.132140
O931	O93	0.147000	0.574510	0.137460
O941	O94	0.284800	0.661340	0.030410
O951	O95	0.038500	0.668810	0.160010
O961	O96	0.268100	0.886110	0.069800
O971	O97	0.565400	0.601020	0.111310
O981	O98	0.401300	0.794440	0.040770
O991	O99	0.077200	0.655950	0.057860
O1001	O100	0.165600	0.613060	0.229690
Na41	Na4	0.590200	0.956320	0.185900
Mo251	Mo25	0.931290	0.642070	0.595190
Mo261	Mo26	0.045110	0.736990	0.575080
Mo271	Mo27	0.571130	0.768240	0.605210
Mo281	Mo28	0.716410	0.895620	0.575760
Mo291	Mo29	0.658490	0.659500	0.610500
Mo301	Mo30	0.920020	0.882550	0.563250
Co51	Co5	0.851880	0.434760	0.706990
P171	P17	0.850910	0.773890	0.648630
P181	P18	0.586060	0.895310	0.678180
P191	P19	0.146940	0.855940	0.646890
P201	P20	0.831180	0.585490	0.699440
O1011	O101	0.857600	0.631860	0.743580
O1021	O102	0.831100	0.522150	0.723820
O1031	O103	0.718200	0.599470	0.668810
O1041	O104	0.259100	0.889240	0.651720
O1051	O105	0.495100	0.939910	0.685770
O1061	O106	0.918300	0.590160	0.661690
O1071	O107	0.113100	0.844390	0.699080
O1081	O108	0.855000	0.922720	0.616750
O1091	O109	0.050300	0.686740	0.637430
O1101	O110	0.898400	0.780640	0.705710
O1111	O111	0.009800	0.816150	0.528350
O1121	O112	0.616800	0.712670	0.663520
O1131	O113	0.932900	0.797520	0.613860
O1141	O114	0.649800	0.724360	0.555880
O1151	O115	0.825400	0.704640	0.634970
O1161	O116	0.158700	0.794710	0.617730
O1171	O117	0.743100	0.810380	0.632140
O1181	O118	0.647000	0.925490	0.637460
O1191	O119	0.784800	0.838660	0.530410
O1201	O120	0.538500	0.831190	0.660010
O1211	O121	0.768100	0.613890	0.569800
O1221	O122	0.065400	0.898980	0.611310
O1231	O123	0.901300	0.705560	0.540770
O1241	O124	0.577200	0.844050	0.557860
O1251	O125	0.665600	0.886940	0.729690
Na51	Na5	0.090200	0.543680	0.685900
Mo311	Mo31	0.431290	0.142070	0.595190
Mo321	Mo32	0.545110	0.236990	0.575080
Mo331	Mo33	0.071130	0.268240	0.605210
Mo341	Mo34	0.216410	0.395620	0.575760
Mo351	Mo35	0.158490	0.159500	0.610500
Mo361	Mo36	0.420020	0.382550	0.563250
Co61	Co6	0.351880	0.934760	0.706990
P211	P21	0.350910	0.273890	0.648630
P221	P22	0.086060	0.395310	0.678180
P231	P23	0.646940	0.355940	0.646890
P241	P24	0.331180	0.085490	0.699440
O1261	O126	0.357600	0.131860	0.743580
O1271	O127	0.331100	0.022150	0.723820
O1281	O128	0.218200	0.099470	0.668810
O1291	O129	0.759100	0.389240	0.651720
O1301	O130	0.995100	0.439910	0.685770
O1311	O131	0.418300	0.090160	0.661690
O1321	O132	0.613100	0.344390	0.699080
O1331	O133	0.355000	0.422720	0.616750
O1341	O134	0.550300	0.186740	0.637430
O1351	O135	0.398400	0.280640	0.705710
O1361	O136	0.509800	0.316150	0.528350
O1371	O137	0.116800	0.212670	0.663520
O1381	O138	0.432900	0.297520	0.613860
O1391	O139	0.149800	0.224360	0.555880
O1401	O140	0.325400	0.204640	0.634970
O1411	O141	0.658700	0.294710	0.617730
O1421	O142	0.243100	0.310380	0.632140
O1431	O143	0.147000	0.425490	0.637460
O1441	O144	0.284800	0.338660	0.530410
O1451	O145	0.038500	0.331190	0.660010
O1461	O146	0.268100	0.113890	0.569800
O1471	O147	0.565400	0.398980	0.611310
O1481	O148	0.401300	0.205560	0.540770
O1491	O149	0.077200	0.344050	0.557860
O1501	O150	0.165600	0.386940	0.729690
Na61	Na6	0.590200	0.043680	0.685900
Mo371	Mo37	0.068710	0.642070	0.904810
Mo381	Mo38	0.954890	0.736990	0.924920
Mo391	Mo39	0.428870	0.768240	0.894790
Mo401	Mo40	0.283590	0.895620	0.924240
Mo411	Mo41	0.341510	0.659500	0.889500
Mo421	Mo42	0.079980	0.882550	0.936750
Co71	Co7	0.148120	0.434760	0.793010
P251	P25	0.149090	0.773890	0.851370
P261	P26	0.413940	0.895310	0.821820
P271	P27	0.853060	0.855940	0.853110
P281	P28	0.168820	0.585490	0.800560
O1511	O151	0.142400	0.631860	0.756420
O1521	O152	0.168900	0.522150	0.776180
O1531	O153	0.281800	0.599470	0.831190
O1541	O154	0.740900	0.889240	0.848280
O1551	O155	0.504900	0.939910	0.814230
O1561	O156	0.081700	0.590160	0.838310
O1571	O157	0.886900	0.844390	0.800920
O1581	O158	0.145000	0.922720	0.883250
O1591	O159	0.949700	0.686740	0.862570
O1601	O160	0.101600	0.780640	0.794290
O1611	O161	0.990200	0.816150	0.971650
O1621	O162	0.383200	0.712670	0.836480
O1631	O163	0.067100	0.797520	0.886140
O1641	O164	0.350200	0.724360	0.944120
O1651	O165	0.174600	0.704640	0.865030
O1661	O166	0.841300	0.794710	0.882270
O1671	O167	0.256900	0.810380	0.867860
O1681	O168	0.353000	0.925490	0.862540
O1691	O169	0.215200	0.838660	0.969590
O1701	O170	0.461500	0.831190	0.839990
O1711	O171	0.231900	0.613890	0.930200
O1721	O172	0.934600	0.898980	0.888690
O1731	O173	0.098700	0.705560	0.959230
O1741	O174	0.422800	0.844050	0.942140
O1751	O175	0.334400	0.886940	0.770310
Na71	Na7	0.909800	0.543680	0.814100
Mo431	Mo43	0.568710	0.142070	0.904810
Mo441	Mo44	0.454890	0.236990	0.924920
Mo451	Mo45	0.928870	0.268240	0.894790
Mo461	Mo46	0.783590	0.395620	0.924240
Mo471	Mo47	0.841510	0.159500	0.889500
Mo481	Mo48	0.579980	0.382550	0.936750
Co81	Co8	0.648120	0.934760	0.793010
P291	P29	0.649090	0.273890	0.851370
P301	P30	0.913940	0.395310	0.821820
P311	P31	0.353060	0.355940	0.853110
P321	P32	0.668820	0.085490	0.800560
O1761	O176	0.642400	0.131860	0.756420
O1771	O177	0.668900	0.022150	0.776180
O1781	O178	0.781800	0.099470	0.831190
O1791	O179	0.240900	0.389240	0.848280
O1801	O180	0.004900	0.439910	0.814230
O1811	O181	0.581700	0.090160	0.838310
O1821	O182	0.386900	0.344390	0.800920
O1831	O183	0.645000	0.422720	0.883250
O1841	O184	0.449700	0.186740	0.862570
O1851	O185	0.601600	0.280640	0.794290
O1861	O186	0.490200	0.316150	0.971650
O1871	O187	0.883200	0.212670	0.836480
O1881	O188	0.567100	0.297520	0.886140
O1891	O189	0.850200	0.224360	0.944120
O1901	O190	0.674600	0.204640	0.865030
O1911	O191	0.341300	0.294710	0.882270
O1921	O192	0.756900	0.310380	0.867860
O1931	O193	0.853000	0.425490	0.862540
O1941	O194	0.715200	0.338660	0.969590
O1951	O195	0.961500	0.331190	0.839990
O1961	O196	0.731900	0.113890	0.930200
O1971	O197	0.434600	0.398980	0.888690
O1981	O198	0.598700	0.205560	0.959230
O1991	O199	0.922800	0.344050	0.942140
O2001	O200	0.834400	0.386940	0.770310
Na81	Na8	0.409800	0.043680	0.814100
Co91	Co9	0.250000	0.250000	0.500000
Co101	Co10	0.750000	0.250000	0.000000
Co111	Co11	0.750000	0.750000	0.500000
Co121	Co12	0.250000	0.750000	0.000000
Co131	Co13	0.000000	0.152730	0.250000
Na91	Na9	0.000000	0.305600	0.250000
Co141	Co14	0.500000	0.652730	0.250000
Na101	Na10	0.500000	0.805600	0.250000
Co151	Co15	0.000000	0.847270	0.750000
Na111	Na11	0.000000	0.694400	0.750000
Co161	Co16	0.500000	0.347270	0.750000
Na121	Na12	0.500000	0.194400	0.750000
