data_IYICUP_clean_PM
_symmetry_space_group_name_H-M	'P1'
_cell_length_a	18.313900
_cell_length_b	18.313900
_cell_length_c	21.685300
_cell_angle_alpha	110.383000
_cell_angle_beta	110.383000
_cell_angle_gamma	100.090000
_symmetry_Int_Tables_number 1

loop_
_symmetry_equiv_pos_as_xyz
'x,y,z'

loop_
_atom_site_label
_atom_site_type_symbol
_atom_site_fract_x
_atom_site_fract_y
_atom_site_fract_z
La11	La1	0.146690	0.396690	0.750000
La21	La2	0.603310	0.853310	0.750000
La31	La3	0.853310	0.603310	0.250000
La41	La4	0.396690	0.146690	0.250000
Co11	Co1	0.641380	0.358620	0.750000
Co21	Co2	0.108620	0.891380	0.750000
Co31	Co3	0.358620	0.641380	0.250000
Co41	Co4	0.891380	0.108620	0.250000
H11	H1	0.820900	0.410900	0.862600
H21	H2	0.944500	0.410700	0.857000
H31	H3	0.827000	0.325000	0.638000
H41	H4	0.707300	0.301700	0.545000
H51	H5	0.462900	0.263900	0.484800
H61	H6	0.488700	0.303100	0.606400
H71	H7	0.008800	0.759400	0.773200
H81	H8	0.018200	0.635000	0.773600
H91	H9	0.229200	0.677600	0.750400
H101	H10	0.041700	0.951700	0.862600
H111	H11	0.912500	0.946300	0.857000
H121	H12	0.811000	0.813000	0.638000
H131	H13	0.837700	0.743300	0.545000
H141	H14	0.021900	0.720900	0.484800
H151	H15	0.117700	0.803300	0.606400
H161	H16	0.764400	0.513800	0.773200
H171	H17	0.755400	0.638600	0.773600
H181	H18	0.521200	0.572800	0.750400
H191	H19	0.589100	0.179100	0.637400
H201	H20	0.589300	0.055500	0.643000
H211	H21	0.675000	0.173000	0.862000
H221	H22	0.698300	0.292700	0.955000
H231	H23	0.736100	0.537100	0.015200
H241	H24	0.696900	0.511300	0.893600
H251	H25	0.240600	0.991200	0.726800
H261	H26	0.365000	0.981800	0.726400
H271	H27	0.322400	0.770800	0.749600
H281	H28	0.048300	0.958300	0.637400
H291	H29	0.053700	0.087500	0.643000
H301	H30	0.187000	0.189000	0.862000
H311	H31	0.256700	0.162300	0.955000
H321	H32	0.279100	0.978100	0.015200
H331	H33	0.196700	0.882300	0.893600
H341	H34	0.486200	0.235600	0.726800
H351	H35	0.361400	0.244600	0.726400
H361	H36	0.427200	0.478800	0.749600
H371	H37	0.179100	0.589100	0.137400
H381	H38	0.055500	0.589300	0.143000
H391	H39	0.173000	0.675000	0.362000
H401	H40	0.292700	0.698300	0.455000
H411	H41	0.537100	0.736100	0.515200
H421	H42	0.511300	0.696900	0.393600
H431	H43	0.991200	0.240600	0.226800
H441	H44	0.981800	0.365000	0.226400
H451	H45	0.770800	0.322400	0.249600
H461	H46	0.958300	0.048300	0.137400
H471	H47	0.087500	0.053700	0.143000
H481	H48	0.189000	0.187000	0.362000
H491	H49	0.162300	0.256700	0.455000
H501	H50	0.978100	0.279100	0.515200
H511	H51	0.882300	0.196700	0.393600
H521	H52	0.235600	0.486200	0.226800
H531	H53	0.244600	0.361400	0.226400
H541	H54	0.478800	0.427200	0.249600
H551	H55	0.410900	0.820900	0.362600
H561	H56	0.410700	0.944500	0.357000
H571	H57	0.325000	0.827000	0.138000
H581	H58	0.301700	0.707300	0.045000
H591	H59	0.263900	0.462900	0.984800
H601	H60	0.303100	0.488700	0.106400
H611	H61	0.759400	0.008800	0.273200
H621	H62	0.635000	0.018200	0.273600
H631	H63	0.677600	0.229200	0.250400
H641	H64	0.951700	0.041700	0.362600
H651	H65	0.946300	0.912500	0.357000
H661	H66	0.813000	0.811000	0.138000
H671	H67	0.743300	0.837700	0.045000
H681	H68	0.720900	0.021900	0.984800
H691	H69	0.803300	0.117700	0.106400
H701	H70	0.513800	0.764400	0.273200
H711	H71	0.638600	0.755400	0.273600
H721	H72	0.572800	0.521200	0.250400
C11	C1	0.821800	0.392800	0.816200
C21	C2	0.895700	0.392900	0.813200
C31	C3	0.898600	0.368000	0.748800
C41	C4	0.826200	0.342600	0.684400
C51	C5	0.752840	0.343640	0.690280
C61	C6	0.673200	0.320800	0.628400
C71	C7	0.661800	0.300600	0.556600
C81	C8	0.581920	0.278720	0.502040
C91	C9	0.517600	0.279200	0.521200
C101	C10	0.533200	0.301800	0.593600
C111	C11	0.979240	0.366440	0.743680
C121	C12	0.568900	0.260500	0.424800
C131	C13	0.053000	0.742200	0.767200
C141	C14	0.058800	0.668400	0.767800
C151	C15	0.123400	0.642200	0.759600
C161	C16	0.183200	0.692600	0.753800
C171	C17	0.174300	0.766700	0.753200
C181	C18	0.129200	0.558800	0.756800
C191	C19	0.994400	0.923400	0.816200
C201	C20	0.917500	0.920300	0.813200
C211	C21	0.850200	0.880800	0.748800
C221	C22	0.858200	0.841800	0.684400
C231	C23	0.937440	0.846640	0.690280
C241	C24	0.955200	0.807600	0.628400
C251	C25	0.894800	0.756000	0.556600
C261	C26	0.920120	0.723320	0.502040
C271	C27	0.003600	0.742000	0.521200
C281	C28	0.060400	0.791800	0.593600
C291	C29	0.764440	0.877240	0.743680
C301	C30	0.855900	0.664300	0.424800
C311	C31	0.714200	0.525000	0.767200
C321	C32	0.709000	0.599400	0.767800
C331	C33	0.636200	0.617400	0.759600
C341	C34	0.570600	0.561200	0.753800
C351	C35	0.578900	0.486500	0.753200
C361	C36	0.627600	0.698000	0.756800
C371	C37	0.607200	0.178200	0.683800
C381	C38	0.607100	0.104300	0.686800
C391	C39	0.632000	0.101400	0.751200
C401	C40	0.657400	0.173800	0.815600
C411	C41	0.656360	0.247160	0.809720
C421	C42	0.679200	0.326800	0.871600
C431	C43	0.699400	0.338200	0.943400
C441	C44	0.721280	0.418080	0.997960
C451	C45	0.720800	0.482400	0.978800
C461	C46	0.698200	0.466800	0.906400
C471	C47	0.633560	0.020760	0.756320
C481	C48	0.739500	0.431100	0.075200
C491	C49	0.257800	0.947000	0.732800
C501	C50	0.331600	0.941200	0.732200
C511	C51	0.357800	0.876600	0.740400
C521	C52	0.307400	0.816800	0.746200
C531	C53	0.233300	0.825700	0.746800
C541	C54	0.441200	0.870800	0.743200
C551	C55	0.076600	0.005600	0.683800
C561	C56	0.079700	0.082500	0.686800
C571	C57	0.119200	0.149800	0.751200
C581	C58	0.158200	0.141800	0.815600
C591	C59	0.153360	0.062560	0.809720
C601	C60	0.192400	0.044800	0.871600
C611	C61	0.244000	0.105200	0.943400
C621	C62	0.276680	0.079880	0.997960
C631	C63	0.258000	0.996400	0.978800
C641	C64	0.208200	0.939600	0.906400
C651	C65	0.122760	0.235560	0.756320
C661	C66	0.335700	0.144100	0.075200
C671	C67	0.475000	0.285800	0.732800
C681	C68	0.400600	0.291000	0.732200
C691	C69	0.382600	0.363800	0.740400
C701	C70	0.438800	0.429400	0.746200
C711	C71	0.513500	0.421100	0.746800
C721	C72	0.302000	0.372400	0.743200
C731	C73	0.178200	0.607200	0.183800
C741	C74	0.104300	0.607100	0.186800
C751	C75	0.101400	0.632000	0.251200
C761	C76	0.173800	0.657400	0.315600
C771	C77	0.247160	0.656360	0.309720
C781	C78	0.326800	0.679200	0.371600
C791	C79	0.338200	0.699400	0.443400
C801	C80	0.418080	0.721280	0.497960
C811	C81	0.482400	0.720800	0.478800
C821	C82	0.466800	0.698200	0.406400
C831	C83	0.020760	0.633560	0.256320
C841	C84	0.431100	0.739500	0.575200
C851	C85	0.947000	0.257800	0.232800
C861	C86	0.941200	0.331600	0.232200
C871	C87	0.876600	0.357800	0.240400
C881	C88	0.816800	0.307400	0.246200
C891	C89	0.825700	0.233300	0.246800
C901	C90	0.870800	0.441200	0.243200
C911	C91	0.005600	0.076600	0.183800
C921	C92	0.082500	0.079700	0.186800
C931	C93	0.149800	0.119200	0.251200
C941	C94	0.141800	0.158200	0.315600
C951	C95	0.062560	0.153360	0.309720
C961	C96	0.044800	0.192400	0.371600
C971	C97	0.105200	0.244000	0.443400
C981	C98	0.079880	0.276680	0.497960
C991	C99	0.996400	0.258000	0.478800
C1001	C100	0.939600	0.208200	0.406400
C1011	C101	0.235560	0.122760	0.256320
C1021	C102	0.144100	0.335700	0.575200
C1031	C103	0.285800	0.475000	0.232800
C1041	C104	0.291000	0.400600	0.232200
C1051	C105	0.363800	0.382600	0.240400
C1061	C106	0.429400	0.438800	0.246200
C1071	C107	0.421100	0.513500	0.246800
C1081	C108	0.372400	0.302000	0.243200
C1091	C109	0.392800	0.821800	0.316200
C1101	C110	0.392900	0.895700	0.313200
C1111	C111	0.368000	0.898600	0.248800
C1121	C112	0.342600	0.826200	0.184400
C1131	C113	0.343640	0.752840	0.190280
C1141	C114	0.320800	0.673200	0.128400
C1151	C115	0.300600	0.661800	0.056600
C1161	C116	0.278720	0.581920	0.002040
C1171	C117	0.279200	0.517600	0.021200
C1181	C118	0.301800	0.533200	0.093600
C1191	C119	0.366440	0.979240	0.243680
C1201	C120	0.260500	0.568900	0.924800
C1211	C121	0.742200	0.053000	0.267200
C1221	C122	0.668400	0.058800	0.267800
C1231	C123	0.642200	0.123400	0.259600
C1241	C124	0.692600	0.183200	0.253800
C1251	C125	0.766700	0.174300	0.253200
C1261	C126	0.558800	0.129200	0.256800
C1271	C127	0.923400	0.994400	0.316200
C1281	C128	0.920300	0.917500	0.313200
C1291	C129	0.880800	0.850200	0.248800
C1301	C130	0.841800	0.858200	0.184400
C1311	C131	0.846640	0.937440	0.190280
C1321	C132	0.807600	0.955200	0.128400
C1331	C133	0.756000	0.894800	0.056600
C1341	C134	0.723320	0.920120	0.002040
C1351	C135	0.742000	0.003600	0.021200
C1361	C136	0.791800	0.060400	0.093600
C1371	C137	0.877240	0.764440	0.243680
C1381	C138	0.664300	0.855900	0.924800
C1391	C139	0.525000	0.714200	0.267200
C1401	C140	0.599400	0.709000	0.267800
C1411	C141	0.617400	0.636200	0.259600
C1421	C142	0.561200	0.570600	0.253800
C1431	C143	0.486500	0.578900	0.253200
C1441	C144	0.698000	0.627600	0.256800
N11	N1	0.751130	0.367930	0.755460
N21	N2	0.609000	0.321800	0.646400
N31	N3	0.109290	0.790290	0.758580
N41	N4	0.004330	0.887530	0.755460
N51	N5	0.037400	0.824600	0.646400
N61	N6	0.649290	0.468290	0.758580
N71	N7	0.632070	0.248870	0.744540
N81	N8	0.678200	0.391000	0.853600
N91	N9	0.209710	0.890710	0.741420
N101	N10	0.112470	0.995670	0.744540
N111	N11	0.175400	0.962600	0.853600
N121	N12	0.531710	0.350710	0.741420
N131	N13	0.248870	0.632070	0.244540
N141	N14	0.391000	0.678200	0.353600
N151	N15	0.890710	0.209710	0.241420
N161	N16	0.995670	0.112470	0.244540
N171	N17	0.962600	0.175400	0.353600
N181	N18	0.350710	0.531710	0.241420
N191	N19	0.367930	0.751130	0.255460
N201	N20	0.321800	0.609000	0.146400
N211	N21	0.790290	0.109290	0.258580
N221	N22	0.887530	0.004330	0.255460
N231	N23	0.824600	0.037400	0.146400
N241	N24	0.468290	0.649290	0.258580
O11	O1	0.037890	0.375690	0.798780
O21	O2	0.983830	0.358230	0.684860
O31	O3	0.631720	0.275720	0.413040
O41	O4	0.495190	0.231990	0.377780
O51	O5	0.090000	0.525400	0.784000
O61	O6	0.172510	0.530510	0.730820
O71	O7	0.760890	0.923090	0.798780
O81	O8	0.701030	0.826630	0.684860
O91	O9	0.781320	0.637320	0.413040
O101	O10	0.882590	0.645790	0.377780
O111	O11	0.694000	0.758600	0.784000
O121	O12	0.558310	0.700310	0.730820
O131	O13	0.624310	0.962110	0.701220
O141	O14	0.641770	0.016170	0.815140
O151	O15	0.724280	0.368280	0.086960
O161	O16	0.768010	0.504810	0.122220
O171	O17	0.474600	0.910000	0.716000
O181	O18	0.469490	0.827490	0.769180
O191	O19	0.076910	0.239110	0.701220
O201	O20	0.173370	0.298970	0.815140
O211	O21	0.362680	0.218680	0.086960
O221	O22	0.354210	0.117410	0.122220
O231	O23	0.241400	0.306000	0.716000
O241	O24	0.299690	0.441690	0.769180
O251	O25	0.962110	0.624310	0.201220
O261	O26	0.016170	0.641770	0.315140
O271	O27	0.368280	0.724280	0.586960
O281	O28	0.504810	0.768010	0.622220
O291	O29	0.910000	0.474600	0.216000
O301	O30	0.827490	0.469490	0.269180
O311	O31	0.239110	0.076910	0.201220
O321	O32	0.298970	0.173370	0.315140
O331	O33	0.218680	0.362680	0.586960
O341	O34	0.117410	0.354210	0.622220
O351	O35	0.306000	0.241400	0.216000
O361	O36	0.441690	0.299690	0.269180
O371	O37	0.375690	0.037890	0.298780
O381	O38	0.358230	0.983830	0.184860
O391	O39	0.275720	0.631720	0.913040
O401	O40	0.231990	0.495190	0.877780
O411	O41	0.525400	0.090000	0.284000
O421	O42	0.530510	0.172510	0.230820
O431	O43	0.923090	0.760890	0.298780
O441	O44	0.826630	0.701030	0.184860
O451	O45	0.637320	0.781320	0.913040
O461	O46	0.645790	0.882590	0.877780
O471	O47	0.758600	0.694000	0.284000
O481	O48	0.700310	0.558310	0.230820
