data_IYOSUM_clean_PM
_symmetry_space_group_name_H-M	'P1'
_cell_length_a	33.138000
_cell_length_b	9.893000
_cell_length_c	26.959000
_cell_angle_alpha	90.000000
_cell_angle_beta	106.751000
_cell_angle_gamma	90.000000
_symmetry_Int_Tables_number 1

loop_
_symmetry_equiv_pos_as_xyz
'x,y,z'

loop_
_atom_site_label
_atom_site_type_symbol
_atom_site_fract_x
_atom_site_fract_y
_atom_site_fract_z
Dy11	Dy1	0.052780	0.113240	0.501900
O11	O1	0.117430	0.181900	0.568210
O21	O2	0.121180	0.006900	0.520200
O31	O3	0.475120	0.593700	0.529230
O41	O4	0.522580	0.755600	0.552450
O51	O5	0.440950	0.480000	0.924720
O61	O6	0.492490	0.325600	0.937470
N11	N1	0.333180	0.123400	0.698990
C11	C1	0.458320	0.379100	0.911740
C21	C2	0.184000	0.075700	0.582990
C31	C3	0.137870	0.089400	0.556240
N21	N2	0.339420	0.985700	0.629610
C41	C4	0.270830	0.062100	0.631000
C51	C5	0.487330	0.703400	0.551190
C61	C6	0.395220	0.347400	0.833600
H11	H1	0.381100	0.416300	0.846600
C71	C7	0.316890	0.056300	0.654100
C81	C8	0.203140	0.160000	0.624900
H21	H2	0.186600	0.223000	0.637200
C91	C9	0.475990	0.883600	0.611200
H31	H3	0.504600	0.910100	0.617500
C101	C10	0.436190	0.311500	0.861070
C111	C11	0.459920	0.778500	0.577100
C121	C12	0.251810	0.976900	0.590000
H41	H4	0.268400	0.914300	0.577700
C131	C13	0.246090	0.151500	0.648400
H51	H5	0.258700	0.208500	0.677000
N31	N3	0.400740	0.051400	0.695900
C141	C14	0.375410	0.117100	0.717900
C151	C15	0.208640	0.982800	0.567000
H61	H6	0.195800	0.921800	0.539900
C161	C16	0.456530	0.209800	0.842600
H71	H7	0.484200	0.183100	0.861800
C171	C17	0.417480	0.741800	0.567300
H81	H8	0.406500	0.668700	0.544500
C181	C18	0.391450	0.811700	0.590500
H91	H9	0.362500	0.788800	0.583000
C191	C19	0.374720	0.283300	0.787200
H101	H10	0.346700	0.307700	0.768700
C201	C20	0.436580	0.146900	0.796200
H111	H11	0.450800	0.078200	0.783200
C211	C21	0.381020	0.987200	0.651700
C221	C22	0.395540	0.183900	0.768300
C231	C23	0.408350	0.915400	0.624900
C241	C24	0.450820	0.949200	0.635600
H121	H12	0.462300	0.018300	0.660000
Dy21	Dy2	0.552780	0.613240	0.501900
O71	O7	0.617430	0.681900	0.568210
O81	O8	0.621180	0.506900	0.520200
O91	O9	0.975120	0.093700	0.529230
O101	O10	0.022580	0.255600	0.552450
O111	O11	0.940950	0.980000	0.924720
O121	O12	0.992490	0.825600	0.937470
N41	N4	0.833180	0.623400	0.698990
C251	C25	0.958320	0.879100	0.911740
C261	C26	0.684000	0.575700	0.582990
C271	C27	0.637870	0.589400	0.556240
N51	N5	0.839420	0.485700	0.629610
C281	C28	0.770830	0.562100	0.631000
C291	C29	0.987330	0.203400	0.551190
C301	C30	0.895220	0.847400	0.833600
H131	H13	0.881100	0.916300	0.846600
C311	C31	0.816890	0.556300	0.654100
C321	C32	0.703140	0.660000	0.624900
H141	H14	0.686600	0.723000	0.637200
C331	C33	0.975990	0.383600	0.611200
H151	H15	0.004600	0.410100	0.617500
C341	C34	0.936190	0.811500	0.861070
C351	C35	0.959920	0.278500	0.577100
C361	C36	0.751810	0.476900	0.590000
H161	H16	0.768400	0.414300	0.577700
C371	C37	0.746090	0.651500	0.648400
H171	H17	0.758700	0.708500	0.677000
N61	N6	0.900740	0.551400	0.695900
C381	C38	0.875410	0.617100	0.717900
C391	C39	0.708640	0.482800	0.567000
H181	H18	0.695800	0.421800	0.539900
C401	C40	0.956530	0.709800	0.842600
H191	H19	0.984200	0.683100	0.861800
C411	C41	0.917480	0.241800	0.567300
H201	H20	0.906500	0.168700	0.544500
C421	C42	0.891450	0.311700	0.590500
H211	H21	0.862500	0.288800	0.583000
C431	C43	0.874720	0.783300	0.787200
H221	H22	0.846700	0.807700	0.768700
C441	C44	0.936580	0.646900	0.796200
H231	H23	0.950800	0.578200	0.783200
C451	C45	0.881020	0.487200	0.651700
C461	C46	0.895540	0.683900	0.768300
C471	C47	0.908350	0.415400	0.624900
C481	C48	0.950820	0.449200	0.635600
H241	H24	0.962300	0.518300	0.660000
Dy31	Dy3	0.947220	0.113240	0.998100
O131	O13	0.882570	0.181900	0.931790
O141	O14	0.878820	0.006900	0.979800
O151	O15	0.524880	0.593700	0.970770
O161	O16	0.477420	0.755600	0.947550
O171	O17	0.559050	0.480000	0.575280
O181	O18	0.507510	0.325600	0.562530
N71	N7	0.666820	0.123400	0.801010
C491	C49	0.541680	0.379100	0.588260
C501	C50	0.816000	0.075700	0.917010
C511	C51	0.862130	0.089400	0.943760
N81	N8	0.660580	0.985700	0.870390
C521	C52	0.729170	0.062100	0.869000
C531	C53	0.512670	0.703400	0.948810
C541	C54	0.604780	0.347400	0.666400
H251	H25	0.618900	0.416300	0.653400
C551	C55	0.683110	0.056300	0.845900
C561	C56	0.796860	0.160000	0.875100
H261	H26	0.813400	0.223000	0.862800
C571	C57	0.524010	0.883600	0.888800
H271	H27	0.495400	0.910100	0.882500
C581	C58	0.563810	0.311500	0.638930
C591	C59	0.540080	0.778500	0.922900
C601	C60	0.748190	0.976900	0.910000
H281	H28	0.731600	0.914300	0.922300
C611	C61	0.753910	0.151500	0.851600
H291	H29	0.741300	0.208500	0.823000
N91	N9	0.599260	0.051400	0.804100
C621	C62	0.624590	0.117100	0.782100
C631	C63	0.791360	0.982800	0.933000
H301	H30	0.804200	0.921800	0.960100
C641	C64	0.543470	0.209800	0.657400
H311	H31	0.515800	0.183100	0.638200
C651	C65	0.582520	0.741800	0.932700
H321	H32	0.593500	0.668700	0.955500
C661	C66	0.608550	0.811700	0.909500
H331	H33	0.637500	0.788800	0.917000
C671	C67	0.625280	0.283300	0.712800
H341	H34	0.653300	0.307700	0.731300
C681	C68	0.563420	0.146900	0.703800
H351	H35	0.549200	0.078200	0.716800
C691	C69	0.618980	0.987200	0.848300
C701	C70	0.604460	0.183900	0.731700
C711	C71	0.591650	0.915400	0.875100
C721	C72	0.549180	0.949200	0.864400
H361	H36	0.537700	0.018300	0.840000
Dy41	Dy4	0.447220	0.613240	0.998100
O191	O19	0.382570	0.681900	0.931790
O201	O20	0.378820	0.506900	0.979800
O211	O21	0.024880	0.093700	0.970770
O221	O22	0.977420	0.255600	0.947550
O231	O23	0.059050	0.980000	0.575280
O241	O24	0.007510	0.825600	0.562530
N101	N10	0.166820	0.623400	0.801010
C731	C73	0.041680	0.879100	0.588260
C741	C74	0.316000	0.575700	0.917010
C751	C75	0.362130	0.589400	0.943760
N111	N11	0.160580	0.485700	0.870390
C761	C76	0.229170	0.562100	0.869000
C771	C77	0.012670	0.203400	0.948810
C781	C78	0.104780	0.847400	0.666400
H371	H37	0.118900	0.916300	0.653400
C791	C79	0.183110	0.556300	0.845900
C801	C80	0.296860	0.660000	0.875100
H381	H38	0.313400	0.723000	0.862800
C811	C81	0.024010	0.383600	0.888800
H391	H39	0.995400	0.410100	0.882500
C821	C82	0.063810	0.811500	0.638930
C831	C83	0.040080	0.278500	0.922900
C841	C84	0.248190	0.476900	0.910000
H401	H40	0.231600	0.414300	0.922300
C851	C85	0.253910	0.651500	0.851600
H411	H41	0.241300	0.708500	0.823000
N121	N12	0.099260	0.551400	0.804100
C861	C86	0.124590	0.617100	0.782100
C871	C87	0.291360	0.482800	0.933000
H421	H42	0.304200	0.421800	0.960100
C881	C88	0.043470	0.709800	0.657400
H431	H43	0.015800	0.683100	0.638200
C891	C89	0.082520	0.241800	0.932700
H441	H44	0.093500	0.168700	0.955500
C901	C90	0.108550	0.311700	0.909500
H451	H45	0.137500	0.288800	0.917000
C911	C91	0.125280	0.783300	0.712800
H461	H46	0.153300	0.807700	0.731300
C921	C92	0.063420	0.646900	0.703800
H471	H47	0.049200	0.578200	0.716800
C931	C93	0.118980	0.487200	0.848300
C941	C94	0.104460	0.683900	0.731700
C951	C95	0.091650	0.415400	0.875100
C961	C96	0.049180	0.449200	0.864400
H481	H48	0.037700	0.518300	0.840000
Dy51	Dy5	0.947220	0.886760	0.498100
O251	O25	0.882570	0.818100	0.431790
O261	O26	0.878820	0.993100	0.479800
O271	O27	0.524880	0.406300	0.470770
O281	O28	0.477420	0.244400	0.447550
O291	O29	0.559050	0.520000	0.075280
O301	O30	0.507510	0.674400	0.062530
N131	N13	0.666820	0.876600	0.301010
C971	C97	0.541680	0.620900	0.088260
C981	C98	0.816000	0.924300	0.417010
C991	C99	0.862130	0.910600	0.443760
N141	N14	0.660580	0.014300	0.370390
C1001	C100	0.729170	0.937900	0.369000
C1011	C101	0.512670	0.296600	0.448810
C1021	C102	0.604780	0.652600	0.166400
H491	H49	0.618900	0.583700	0.153400
C1031	C103	0.683110	0.943700	0.345900
C1041	C104	0.796860	0.840000	0.375100
H501	H50	0.813400	0.777000	0.362800
C1051	C105	0.524010	0.116400	0.388800
H511	H51	0.495400	0.089900	0.382500
C1061	C106	0.563810	0.688500	0.138930
C1071	C107	0.540080	0.221500	0.422900
C1081	C108	0.748190	0.023100	0.410000
H521	H52	0.731600	0.085700	0.422300
C1091	C109	0.753910	0.848500	0.351600
H531	H53	0.741300	0.791500	0.323000
N151	N15	0.599260	0.948600	0.304100
C1101	C110	0.624590	0.882900	0.282100
C1111	C111	0.791360	0.017200	0.433000
H541	H54	0.804200	0.078200	0.460100
C1121	C112	0.543470	0.790200	0.157400
H551	H55	0.515800	0.816900	0.138200
C1131	C113	0.582520	0.258200	0.432700
H561	H56	0.593500	0.331300	0.455500
C1141	C114	0.608550	0.188300	0.409500
H571	H57	0.637500	0.211200	0.417000
C1151	C115	0.625280	0.716700	0.212800
H581	H58	0.653300	0.692300	0.231300
C1161	C116	0.563420	0.853100	0.203800
H591	H59	0.549200	0.921800	0.216800
C1171	C117	0.618980	0.012800	0.348300
C1181	C118	0.604460	0.816100	0.231700
C1191	C119	0.591650	0.084600	0.375100
C1201	C120	0.549180	0.050800	0.364400
H601	H60	0.537700	0.981700	0.340000
Dy61	Dy6	0.447220	0.386760	0.498100
O311	O31	0.382570	0.318100	0.431790
O321	O32	0.378820	0.493100	0.479800
O331	O33	0.024880	0.906300	0.470770
O341	O34	0.977420	0.744400	0.447550
O351	O35	0.059050	0.020000	0.075280
O361	O36	0.007510	0.174400	0.062530
N161	N16	0.166820	0.376600	0.301010
C1211	C121	0.041680	0.120900	0.088260
C1221	C122	0.316000	0.424300	0.417010
C1231	C123	0.362130	0.410600	0.443760
N171	N17	0.160580	0.514300	0.370390
C1241	C124	0.229170	0.437900	0.369000
C1251	C125	0.012670	0.796600	0.448810
C1261	C126	0.104780	0.152600	0.166400
H611	H61	0.118900	0.083700	0.153400
C1271	C127	0.183110	0.443700	0.345900
C1281	C128	0.296860	0.340000	0.375100
H621	H62	0.313400	0.277000	0.362800
C1291	C129	0.024010	0.616400	0.388800
H631	H63	0.995400	0.589900	0.382500
C1301	C130	0.063810	0.188500	0.138930
C1311	C131	0.040080	0.721500	0.422900
C1321	C132	0.248190	0.523100	0.410000
H641	H64	0.231600	0.585700	0.422300
C1331	C133	0.253910	0.348500	0.351600
H651	H65	0.241300	0.291500	0.323000
N181	N18	0.099260	0.448600	0.304100
C1341	C134	0.124590	0.382900	0.282100
C1351	C135	0.291360	0.517200	0.433000
H661	H66	0.304200	0.578200	0.460100
C1361	C136	0.043470	0.290200	0.157400
H671	H67	0.015800	0.316900	0.138200
C1371	C137	0.082520	0.758200	0.432700
H681	H68	0.093500	0.831300	0.455500
C1381	C138	0.108550	0.688300	0.409500
H691	H69	0.137500	0.711200	0.417000
C1391	C139	0.125280	0.216700	0.212800
H701	H70	0.153300	0.192300	0.231300
C1401	C140	0.063420	0.353100	0.203800
H711	H71	0.049200	0.421800	0.216800
C1411	C141	0.118980	0.512800	0.348300
C1421	C142	0.104460	0.316100	0.231700
C1431	C143	0.091650	0.584600	0.375100
C1441	C144	0.049180	0.550800	0.364400
H721	H72	0.037700	0.481700	0.340000
Dy71	Dy7	0.052780	0.886760	0.001900
O371	O37	0.117430	0.818100	0.068210
O381	O38	0.121180	0.993100	0.020200
O391	O39	0.475120	0.406300	0.029230
O401	O40	0.522580	0.244400	0.052450
O411	O41	0.440950	0.520000	0.424720
O421	O42	0.492490	0.674400	0.437470
N191	N19	0.333180	0.876600	0.198990
C1451	C145	0.458320	0.620900	0.411740
C1461	C146	0.184000	0.924300	0.082990
C1471	C147	0.137870	0.910600	0.056240
N201	N20	0.339420	0.014300	0.129610
C1481	C148	0.270830	0.937900	0.131000
C1491	C149	0.487330	0.296600	0.051190
C1501	C150	0.395220	0.652600	0.333600
H731	H73	0.381100	0.583700	0.346600
C1511	C151	0.316890	0.943700	0.154100
C1521	C152	0.203140	0.840000	0.124900
H741	H74	0.186600	0.777000	0.137200
C1531	C153	0.475990	0.116400	0.111200
H751	H75	0.504600	0.089900	0.117500
C1541	C154	0.436190	0.688500	0.361070
C1551	C155	0.459920	0.221500	0.077100
C1561	C156	0.251810	0.023100	0.090000
H761	H76	0.268400	0.085700	0.077700
C1571	C157	0.246090	0.848500	0.148400
H771	H77	0.258700	0.791500	0.177000
N211	N21	0.400740	0.948600	0.195900
C1581	C158	0.375410	0.882900	0.217900
C1591	C159	0.208640	0.017200	0.067000
H781	H78	0.195800	0.078200	0.039900
C1601	C160	0.456530	0.790200	0.342600
H791	H79	0.484200	0.816900	0.361800
C1611	C161	0.417480	0.258200	0.067300
H801	H80	0.406500	0.331300	0.044500
C1621	C162	0.391450	0.188300	0.090500
H811	H81	0.362500	0.211200	0.083000
C1631	C163	0.374720	0.716700	0.287200
H821	H82	0.346700	0.692300	0.268700
C1641	C164	0.436580	0.853100	0.296200
H831	H83	0.450800	0.921800	0.283200
C1651	C165	0.381020	0.012800	0.151700
C1661	C166	0.395540	0.816100	0.268300
C1671	C167	0.408350	0.084600	0.124900
C1681	C168	0.450820	0.050800	0.135600
H841	H84	0.462300	0.981700	0.160000
Dy81	Dy8	0.552780	0.386760	0.001900
O431	O43	0.617430	0.318100	0.068210
O441	O44	0.621180	0.493100	0.020200
O451	O45	0.975120	0.906300	0.029230
O461	O46	0.022580	0.744400	0.052450
O471	O47	0.940950	0.020000	0.424720
O481	O48	0.992490	0.174400	0.437470
N221	N22	0.833180	0.376600	0.198990
C1691	C169	0.958320	0.120900	0.411740
C1701	C170	0.684000	0.424300	0.082990
C1711	C171	0.637870	0.410600	0.056240
N231	N23	0.839420	0.514300	0.129610
C1721	C172	0.770830	0.437900	0.131000
C1731	C173	0.987330	0.796600	0.051190
C1741	C174	0.895220	0.152600	0.333600
H851	H85	0.881100	0.083700	0.346600
C1751	C175	0.816890	0.443700	0.154100
C1761	C176	0.703140	0.340000	0.124900
H861	H86	0.686600	0.277000	0.137200
C1771	C177	0.975990	0.616400	0.111200
H871	H87	0.004600	0.589900	0.117500
C1781	C178	0.936190	0.188500	0.361070
C1791	C179	0.959920	0.721500	0.077100
C1801	C180	0.751810	0.523100	0.090000
H881	H88	0.768400	0.585700	0.077700
C1811	C181	0.746090	0.348500	0.148400
H891	H89	0.758700	0.291500	0.177000
N241	N24	0.900740	0.448600	0.195900
C1821	C182	0.875410	0.382900	0.217900
C1831	C183	0.708640	0.517200	0.067000
H901	H90	0.695800	0.578200	0.039900
C1841	C184	0.956530	0.290200	0.342600
H911	H91	0.984200	0.316900	0.361800
C1851	C185	0.917480	0.758200	0.067300
H921	H92	0.906500	0.831300	0.044500
C1861	C186	0.891450	0.688300	0.090500
H931	H93	0.862500	0.711200	0.083000
C1871	C187	0.874720	0.216700	0.287200
H941	H94	0.846700	0.192300	0.268700
C1881	C188	0.936580	0.353100	0.296200
H951	H95	0.950800	0.421800	0.283200
C1891	C189	0.881020	0.512800	0.151700
C1901	C190	0.895540	0.316100	0.268300
C1911	C191	0.908350	0.584600	0.124900
C1921	C192	0.950820	0.550800	0.135600
H961	H96	0.962300	0.481700	0.160000
