data_IYOWID_manual_PM
_symmetry_space_group_name_H-M	'P1'
_cell_length_a	27.736400
_cell_length_b	27.736400
_cell_length_c	27.736400
_cell_angle_alpha	90.000000
_cell_angle_beta	90.000000
_cell_angle_gamma	90.000000
_symmetry_Int_Tables_number 1

loop_
_symmetry_equiv_pos_as_xyz
'x,y,z'

loop_
_atom_site_label
_atom_site_type_symbol
_atom_site_fract_x
_atom_site_fract_y
_atom_site_fract_z
Zn11	Zn1	0.000000	0.801260	0.500000
Zn21	Zn2	0.000000	0.198740	0.500000
Zn31	Zn3	0.500000	0.000000	0.801260
Zn41	Zn4	0.500000	0.000000	0.198740
Zn51	Zn5	0.801260	0.500000	0.000000
Zn61	Zn6	0.198740	0.500000	0.000000
Zn71	Zn7	0.301260	0.500000	0.000000
Zn81	Zn8	0.698740	0.500000	0.000000
Zn91	Zn9	0.500000	0.000000	0.698740
Zn101	Zn10	0.500000	0.000000	0.301260
Zn111	Zn11	0.000000	0.301260	0.500000
Zn121	Zn12	0.000000	0.698740	0.500000
H11	H1	0.828750	0.672690	0.674270
H21	H2	0.891290	0.671310	0.608380
H31	H3	0.171250	0.327310	0.674270
H41	H4	0.108710	0.328690	0.608380
H51	H5	0.171250	0.672690	0.325730
H61	H6	0.108710	0.671310	0.391620
H71	H7	0.828750	0.327310	0.325730
H81	H8	0.891290	0.328690	0.391620
H91	H9	0.674270	0.828750	0.672690
H101	H10	0.608380	0.891290	0.671310
H111	H11	0.674270	0.171250	0.327310
H121	H12	0.608380	0.108710	0.328690
H131	H13	0.325730	0.171250	0.672690
H141	H14	0.391620	0.108710	0.671310
H151	H15	0.325730	0.828750	0.327310
H161	H16	0.391620	0.891290	0.328690
H171	H17	0.672690	0.674270	0.828750
H181	H18	0.671310	0.608380	0.891290
H191	H19	0.327310	0.674270	0.171250
H201	H20	0.328690	0.608380	0.108710
H211	H21	0.672690	0.325730	0.171250
H221	H22	0.671310	0.391620	0.108710
H231	H23	0.327310	0.325730	0.828750
H241	H24	0.328690	0.391620	0.891290
H251	H25	0.172690	0.328750	0.825730
H261	H26	0.171310	0.391290	0.891620
H271	H27	0.827310	0.671250	0.825730
H281	H28	0.828690	0.608710	0.891620
H291	H29	0.172690	0.671250	0.174270
H301	H30	0.171310	0.608710	0.108380
H311	H31	0.827310	0.328750	0.174270
H321	H32	0.828690	0.391290	0.108380
H331	H33	0.328750	0.174270	0.827310
H341	H34	0.391290	0.108380	0.828690
H351	H35	0.671250	0.174270	0.172690
H361	H36	0.608710	0.108380	0.171310
H371	H37	0.671250	0.825730	0.827310
H381	H38	0.608710	0.891620	0.828690
H391	H39	0.328750	0.825730	0.172690
H401	H40	0.391290	0.891620	0.171310
H411	H41	0.174270	0.172690	0.671250
H421	H42	0.108380	0.171310	0.608710
H431	H43	0.174270	0.827310	0.328750
H441	H44	0.108380	0.828690	0.391290
H451	H45	0.825730	0.172690	0.328750
H461	H46	0.891620	0.171310	0.391290
H471	H47	0.825730	0.827310	0.671250
H481	H48	0.891620	0.828690	0.608710
H491	H49	0.171250	0.327310	0.325730
H501	H50	0.108710	0.328690	0.391620
H511	H51	0.828750	0.672690	0.325730
H521	H52	0.891290	0.671310	0.391620
H531	H53	0.828750	0.327310	0.674270
H541	H54	0.891290	0.328690	0.608380
H551	H55	0.171250	0.672690	0.674270
H561	H56	0.108710	0.671310	0.608380
H571	H57	0.325730	0.171250	0.327310
H581	H58	0.391620	0.108710	0.328690
H591	H59	0.325730	0.828750	0.672690
H601	H60	0.391620	0.891290	0.671310
H611	H61	0.674270	0.828750	0.327310
H621	H62	0.608380	0.891290	0.328690
H631	H63	0.674270	0.171250	0.672690
H641	H64	0.608380	0.108710	0.671310
H651	H65	0.327310	0.325730	0.171250
H661	H66	0.328690	0.391620	0.108710
H671	H67	0.672690	0.325730	0.828750
H681	H68	0.671310	0.391620	0.891290
H691	H69	0.327310	0.674270	0.828750
H701	H70	0.328690	0.608380	0.891290
H711	H71	0.672690	0.674270	0.171250
H721	H72	0.671310	0.608380	0.108710
H731	H73	0.827310	0.671250	0.174270
H741	H74	0.828690	0.608710	0.108380
H751	H75	0.172690	0.328750	0.174270
H761	H76	0.171310	0.391290	0.108380
H771	H77	0.827310	0.328750	0.825730
H781	H78	0.828690	0.391290	0.891620
H791	H79	0.172690	0.671250	0.825730
H801	H80	0.171310	0.608710	0.891620
H811	H81	0.671250	0.825730	0.172690
H821	H82	0.608710	0.891620	0.171310
H831	H83	0.328750	0.825730	0.827310
H841	H84	0.391290	0.891620	0.828690
H851	H85	0.328750	0.174270	0.172690
H861	H86	0.391290	0.108380	0.171310
H871	H87	0.671250	0.174270	0.827310
H881	H88	0.608710	0.108380	0.828690
H891	H89	0.825730	0.827310	0.328750
H901	H90	0.891620	0.828690	0.391290
H911	H91	0.825730	0.172690	0.671250
H921	H92	0.891620	0.171310	0.608710
H931	H93	0.174270	0.827310	0.671250
H941	H94	0.108380	0.828690	0.608710
H951	H95	0.174270	0.172690	0.328750
H961	H96	0.108380	0.171310	0.391290
H971	H97	0.749220	0.814360	0.686420
H981	H98	0.250780	0.185640	0.686420
H991	H99	0.250780	0.814360	0.313580
H1001	H100	0.749220	0.185640	0.313580
H1011	H101	0.686420	0.749220	0.814360
H1021	H102	0.686420	0.250780	0.185640
H1031	H103	0.313580	0.250780	0.814360
H1041	H104	0.313580	0.749220	0.185640
H1051	H105	0.813580	0.685640	0.750780
H1061	H106	0.186420	0.685640	0.249220
H1071	H107	0.813580	0.314360	0.249220
H1081	H108	0.186420	0.314360	0.750780
H1091	H109	0.250780	0.185640	0.313580
H1101	H110	0.749220	0.814360	0.313580
H1111	H111	0.749220	0.185640	0.686420
H1121	H112	0.250780	0.814360	0.686420
H1131	H113	0.313580	0.250780	0.185640
H1141	H114	0.313580	0.749220	0.814360
H1151	H115	0.686420	0.749220	0.185640
H1161	H116	0.686420	0.250780	0.814360
H1171	H117	0.186420	0.314360	0.249220
H1181	H118	0.813580	0.314360	0.750780
H1191	H119	0.186420	0.685640	0.750780
H1201	H120	0.813580	0.685640	0.249220
C11	C1	0.842730	0.707960	0.658460
C21	C2	0.877430	0.707210	0.622820
C31	C3	0.157270	0.292040	0.658460
C41	C4	0.122570	0.292790	0.622820
C51	C5	0.157270	0.707960	0.341540
C61	C6	0.122570	0.707210	0.377180
C71	C7	0.842730	0.292040	0.341540
C81	C8	0.877430	0.292790	0.377180
C91	C9	0.658460	0.842730	0.707960
C101	C10	0.622820	0.877430	0.707210
C111	C11	0.658460	0.157270	0.292040
C121	C12	0.622820	0.122570	0.292790
C131	C13	0.341540	0.157270	0.707960
C141	C14	0.377180	0.122570	0.707210
C151	C15	0.341540	0.842730	0.292040
C161	C16	0.377180	0.877430	0.292790
C171	C17	0.707960	0.658460	0.842730
C181	C18	0.707210	0.622820	0.877430
C191	C19	0.292040	0.658460	0.157270
C201	C20	0.292790	0.622820	0.122570
C211	C21	0.707960	0.341540	0.157270
C221	C22	0.707210	0.377180	0.122570
C231	C23	0.292040	0.341540	0.842730
C241	C24	0.292790	0.377180	0.877430
C251	C25	0.207960	0.342730	0.841540
C261	C26	0.207210	0.377430	0.877180
C271	C27	0.792040	0.657270	0.841540
C281	C28	0.792790	0.622570	0.877180
C291	C29	0.207960	0.657270	0.158460
C301	C30	0.207210	0.622570	0.122820
C311	C31	0.792040	0.342730	0.158460
C321	C32	0.792790	0.377430	0.122820
C331	C33	0.342730	0.158460	0.792040
C341	C34	0.377430	0.122820	0.792790
C351	C35	0.657270	0.158460	0.207960
C361	C36	0.622570	0.122820	0.207210
C371	C37	0.657270	0.841540	0.792040
C381	C38	0.622570	0.877180	0.792790
C391	C39	0.342730	0.841540	0.207960
C401	C40	0.377430	0.877180	0.207210
C411	C41	0.158460	0.207960	0.657270
C421	C42	0.122820	0.207210	0.622570
C431	C43	0.158460	0.792040	0.342730
C441	C44	0.122820	0.792790	0.377430
C451	C45	0.841540	0.207960	0.342730
C461	C46	0.877180	0.207210	0.377430
C471	C47	0.841540	0.792040	0.657270
C481	C48	0.877180	0.792790	0.622570
C491	C49	0.157270	0.292040	0.341540
C501	C50	0.122570	0.292790	0.377180
C511	C51	0.842730	0.707960	0.341540
C521	C52	0.877430	0.707210	0.377180
C531	C53	0.842730	0.292040	0.658460
C541	C54	0.877430	0.292790	0.622820
C551	C55	0.157270	0.707960	0.658460
C561	C56	0.122570	0.707210	0.622820
C571	C57	0.341540	0.157270	0.292040
C581	C58	0.377180	0.122570	0.292790
C591	C59	0.341540	0.842730	0.707960
C601	C60	0.377180	0.877430	0.707210
C611	C61	0.658460	0.842730	0.292040
C621	C62	0.622820	0.877430	0.292790
C631	C63	0.658460	0.157270	0.707960
C641	C64	0.622820	0.122570	0.707210
C651	C65	0.292040	0.341540	0.157270
C661	C66	0.292790	0.377180	0.122570
C671	C67	0.707960	0.341540	0.842730
C681	C68	0.707210	0.377180	0.877430
C691	C69	0.292040	0.658460	0.842730
C701	C70	0.292790	0.622820	0.877430
C711	C71	0.707960	0.658460	0.157270
C721	C72	0.707210	0.622820	0.122570
C731	C73	0.792040	0.657270	0.158460
C741	C74	0.792790	0.622570	0.122820
C751	C75	0.207960	0.342730	0.158460
C761	C76	0.207210	0.377430	0.122820
C771	C77	0.792040	0.342730	0.841540
C781	C78	0.792790	0.377430	0.877180
C791	C79	0.207960	0.657270	0.841540
C801	C80	0.207210	0.622570	0.877180
C811	C81	0.657270	0.841540	0.207960
C821	C82	0.622570	0.877180	0.207210
C831	C83	0.342730	0.841540	0.792040
C841	C84	0.377430	0.877180	0.792790
C851	C85	0.342730	0.158460	0.207960
C861	C86	0.377430	0.122820	0.207210
C871	C87	0.657270	0.158460	0.792040
C881	C88	0.622570	0.122820	0.792790
C891	C89	0.841540	0.792040	0.342730
C901	C90	0.877180	0.792790	0.377430
C911	C91	0.841540	0.207960	0.657270
C921	C92	0.877180	0.207210	0.622570
C931	C93	0.158460	0.792040	0.657270
C941	C94	0.122820	0.792790	0.622570
C951	C95	0.158460	0.207960	0.342730
C961	C96	0.122820	0.207210	0.377430
C971	C97	0.000000	0.973790	0.500000
C981	C98	0.000000	0.026210	0.500000
C991	C99	0.500000	0.000000	0.973790
C1001	C100	0.500000	0.000000	0.026210
C1011	C101	0.973790	0.500000	0.000000
C1021	C102	0.026210	0.500000	0.000000
C1031	C103	0.473790	0.500000	0.000000
C1041	C104	0.526210	0.500000	0.000000
C1051	C105	0.500000	0.000000	0.526210
C1061	C106	0.500000	0.000000	0.473790
C1071	C107	0.000000	0.473790	0.500000
C1081	C108	0.000000	0.526210	0.500000
C1091	C109	0.933370	0.750000	0.566630
C1101	C110	0.895730	0.750000	0.604270
C1111	C111	0.823850	0.750000	0.676150
C1121	C112	0.785860	0.750000	0.714140
C1131	C113	0.066630	0.250000	0.566630
C1141	C114	0.104270	0.250000	0.604270
C1151	C115	0.176150	0.250000	0.676150
C1161	C116	0.214140	0.250000	0.714140
C1171	C117	0.066630	0.750000	0.433370
C1181	C118	0.104270	0.750000	0.395730
C1191	C119	0.176150	0.750000	0.323850
C1201	C120	0.214140	0.750000	0.285860
C1211	C121	0.933370	0.250000	0.433370
C1221	C122	0.895730	0.250000	0.395730
C1231	C123	0.823850	0.250000	0.323850
C1241	C124	0.785860	0.250000	0.285860
C1251	C125	0.566630	0.933370	0.750000
C1261	C126	0.604270	0.895730	0.750000
C1271	C127	0.676150	0.823850	0.750000
C1281	C128	0.714140	0.785860	0.750000
C1291	C129	0.566630	0.066630	0.250000
C1301	C130	0.604270	0.104270	0.250000
C1311	C131	0.676150	0.176150	0.250000
C1321	C132	0.714140	0.214140	0.250000
C1331	C133	0.433370	0.066630	0.750000
C1341	C134	0.395730	0.104270	0.750000
C1351	C135	0.323850	0.176150	0.750000
C1361	C136	0.285860	0.214140	0.750000
C1371	C137	0.433370	0.933370	0.250000
C1381	C138	0.395730	0.895730	0.250000
C1391	C139	0.323850	0.823850	0.250000
C1401	C140	0.285860	0.785860	0.250000
C1411	C141	0.750000	0.566630	0.933370
C1421	C142	0.750000	0.604270	0.895730
C1431	C143	0.750000	0.676150	0.823850
C1441	C144	0.750000	0.714140	0.785860
C1451	C145	0.250000	0.566630	0.066630
C1461	C146	0.250000	0.604270	0.104270
C1471	C147	0.250000	0.676150	0.176150
C1481	C148	0.250000	0.714140	0.214140
C1491	C149	0.750000	0.433370	0.066630
C1501	C150	0.750000	0.395730	0.104270
C1511	C151	0.750000	0.323850	0.176150
C1521	C152	0.750000	0.285860	0.214140
C1531	C153	0.250000	0.433370	0.933370
C1541	C154	0.250000	0.395730	0.895730
C1551	C155	0.250000	0.323850	0.823850
C1561	C156	0.250000	0.285860	0.785860
C1571	C157	0.066630	0.250000	0.433370
C1581	C158	0.104270	0.250000	0.395730
C1591	C159	0.176150	0.250000	0.323850
C1601	C160	0.214140	0.250000	0.285860
C1611	C161	0.933370	0.750000	0.433370
C1621	C162	0.895730	0.750000	0.395730
C1631	C163	0.823850	0.750000	0.323850
C1641	C164	0.785860	0.750000	0.285860
C1651	C165	0.933370	0.250000	0.566630
C1661	C166	0.895730	0.250000	0.604270
C1671	C167	0.823850	0.250000	0.676150
C1681	C168	0.785860	0.250000	0.714140
C1691	C169	0.066630	0.750000	0.566630
C1701	C170	0.104270	0.750000	0.604270
C1711	C171	0.176150	0.750000	0.676150
C1721	C172	0.214140	0.750000	0.714140
C1731	C173	0.433370	0.066630	0.250000
C1741	C174	0.395730	0.104270	0.250000
C1751	C175	0.323850	0.176150	0.250000
C1761	C176	0.285860	0.214140	0.250000
C1771	C177	0.433370	0.933370	0.750000
C1781	C178	0.395730	0.895730	0.750000
C1791	C179	0.323850	0.823850	0.750000
C1801	C180	0.285860	0.785860	0.750000
C1811	C181	0.566630	0.933370	0.250000
C1821	C182	0.604270	0.895730	0.250000
C1831	C183	0.676150	0.823850	0.250000
C1841	C184	0.714140	0.785860	0.250000
C1851	C185	0.566630	0.066630	0.750000
C1861	C186	0.604270	0.104270	0.750000
C1871	C187	0.676150	0.176150	0.750000
C1881	C188	0.714140	0.214140	0.750000
C1891	C189	0.250000	0.433370	0.066630
C1901	C190	0.250000	0.395730	0.104270
C1911	C191	0.250000	0.323850	0.176150
C1921	C192	0.250000	0.285860	0.214140
C1931	C193	0.750000	0.433370	0.933370
C1941	C194	0.750000	0.395730	0.895730
C1951	C195	0.750000	0.323850	0.823850
C1961	C196	0.750000	0.285860	0.785860
C1971	C197	0.250000	0.566630	0.933370
C1981	C198	0.250000	0.604270	0.895730
C1991	C199	0.250000	0.676150	0.823850
C2001	C200	0.250000	0.714140	0.785860
C2011	C201	0.750000	0.566630	0.066630
C2021	C202	0.750000	0.604270	0.104270
C2031	C203	0.750000	0.676150	0.176150
C2041	C204	0.750000	0.714140	0.214140
C2051	C205	0.750000	0.784910	0.715090
C2061	C206	0.250000	0.215090	0.715090
C2071	C207	0.250000	0.784910	0.284910
C2081	C208	0.750000	0.215090	0.284910
C2091	C209	0.715090	0.750000	0.784910
C2101	C210	0.715090	0.250000	0.215090
C2111	C211	0.284910	0.250000	0.784910
C2121	C212	0.284910	0.750000	0.215090
C2131	C213	0.784910	0.715090	0.750000
C2141	C214	0.215090	0.715090	0.250000
C2151	C215	0.784910	0.284910	0.250000
C2161	C216	0.215090	0.284910	0.750000
C2171	C217	0.250000	0.215090	0.284910
C2181	C218	0.750000	0.784910	0.284910
C2191	C219	0.750000	0.215090	0.715090
C2201	C220	0.250000	0.784910	0.715090
C2211	C221	0.284910	0.250000	0.215090
C2221	C222	0.284910	0.750000	0.784910
C2231	C223	0.715090	0.750000	0.215090
C2241	C224	0.715090	0.250000	0.784910
C2251	C225	0.215090	0.284910	0.250000
C2261	C226	0.784910	0.284910	0.750000
C2271	C227	0.215090	0.715090	0.750000
C2281	C228	0.784910	0.715090	0.250000
C2291	C229	0.959200	0.898000	0.500000
C2301	C230	0.956900	0.949400	0.500000
C2311	C231	0.040800	0.102000	0.500000
C2321	C232	0.043100	0.050600	0.500000
C2331	C233	0.040800	0.898000	0.500000
C2341	C234	0.043100	0.949400	0.500000
C2351	C235	0.959200	0.102000	0.500000
C2361	C236	0.956900	0.050600	0.500000
C2371	C237	0.500000	0.959200	0.898000
C2381	C238	0.500000	0.956900	0.949400
C2391	C239	0.500000	0.040800	0.102000
C2401	C240	0.500000	0.043100	0.050600
C2411	C241	0.500000	0.040800	0.898000
C2421	C242	0.500000	0.043100	0.949400
C2431	C243	0.500000	0.959200	0.102000
C2441	C244	0.500000	0.956900	0.050600
C2451	C245	0.898000	0.500000	0.959200
C2461	C246	0.949400	0.500000	0.956900
C2471	C247	0.102000	0.500000	0.040800
C2481	C248	0.050600	0.500000	0.043100
C2491	C249	0.898000	0.500000	0.040800
C2501	C250	0.949400	0.500000	0.043100
C2511	C251	0.102000	0.500000	0.959200
C2521	C252	0.050600	0.500000	0.956900
C2531	C253	0.398000	0.459200	0.000000
C2541	C254	0.449400	0.456900	0.000000
C2551	C255	0.602000	0.540800	0.000000
C2561	C256	0.550600	0.543100	0.000000
C2571	C257	0.398000	0.540800	0.000000
C2581	C258	0.449400	0.543100	0.000000
C2591	C259	0.602000	0.459200	0.000000
C2601	C260	0.550600	0.456900	0.000000
C2611	C261	0.459200	0.000000	0.602000
C2621	C262	0.456900	0.000000	0.550600
C2631	C263	0.540800	0.000000	0.398000
C2641	C264	0.543100	0.000000	0.449400
C2651	C265	0.540800	0.000000	0.602000
C2661	C266	0.543100	0.000000	0.550600
C2671	C267	0.459200	0.000000	0.398000
C2681	C268	0.456900	0.000000	0.449400
C2691	C269	0.000000	0.398000	0.540800
C2701	C270	0.000000	0.449400	0.543100
C2711	C271	0.000000	0.602000	0.459200
C2721	C272	0.000000	0.550600	0.456900
C2731	C273	0.000000	0.398000	0.459200
C2741	C274	0.000000	0.449400	0.456900
C2751	C275	0.000000	0.602000	0.540800
C2761	C276	0.000000	0.550600	0.543100
N11	N1	0.000000	0.874110	0.500000
N21	N2	0.000000	0.125890	0.500000
N31	N3	0.500000	0.000000	0.874110
N41	N4	0.500000	0.000000	0.125890
N51	N5	0.874110	0.500000	0.000000
N61	N6	0.125890	0.500000	0.000000
N71	N7	0.374110	0.500000	0.000000
N81	N8	0.625890	0.500000	0.000000
N91	N9	0.500000	0.000000	0.625890
N101	N10	0.500000	0.000000	0.374110
N111	N11	0.000000	0.374110	0.500000
N121	N12	0.000000	0.625890	0.500000
O11	O1	0.948380	0.789610	0.551420
O21	O2	0.051620	0.210390	0.551420
O31	O3	0.051620	0.789610	0.448580
O41	O4	0.948380	0.210390	0.448580
O51	O5	0.551420	0.948380	0.789610
O61	O6	0.551420	0.051620	0.210390
O71	O7	0.448580	0.051620	0.789610
O81	O8	0.448580	0.948380	0.210390
O91	O9	0.789610	0.551420	0.948380
O101	O10	0.210390	0.551420	0.051620
O111	O11	0.789610	0.448580	0.051620
O121	O12	0.210390	0.448580	0.948380
O131	O13	0.289610	0.448380	0.948580
O141	O14	0.710390	0.551620	0.948580
O151	O15	0.289610	0.551620	0.051420
O161	O16	0.710390	0.448380	0.051420
O171	O17	0.448380	0.051420	0.710390
O181	O18	0.551620	0.051420	0.289610
O191	O19	0.551620	0.948580	0.710390
O201	O20	0.448380	0.948580	0.289610
O211	O21	0.051420	0.289610	0.551620
O221	O22	0.051420	0.710390	0.448380
O231	O23	0.948580	0.289610	0.448380
O241	O24	0.948580	0.710390	0.551620
O251	O25	0.051620	0.210390	0.448580
O261	O26	0.948380	0.789610	0.448580
O271	O27	0.948380	0.210390	0.551420
O281	O28	0.051620	0.789610	0.551420
O291	O29	0.448580	0.051620	0.210390
O301	O30	0.448580	0.948380	0.789610
O311	O31	0.551420	0.948380	0.210390
O321	O32	0.551420	0.051620	0.789610
O331	O33	0.210390	0.448580	0.051620
O341	O34	0.789610	0.448580	0.948380
O351	O35	0.210390	0.551420	0.948380
O361	O36	0.789610	0.551420	0.051620
O371	O37	0.710390	0.551620	0.051420
O381	O38	0.289610	0.448380	0.051420
O391	O39	0.710390	0.448380	0.948580
O401	O40	0.289610	0.551620	0.948580
O411	O41	0.551620	0.948580	0.289610
O421	O42	0.448380	0.948580	0.710390
O431	O43	0.448380	0.051420	0.289610
O441	O44	0.551620	0.051420	0.710390
O451	O45	0.948580	0.710390	0.448380
O461	O46	0.948580	0.289610	0.551620
O471	O47	0.051420	0.710390	0.551620
O481	O48	0.051420	0.289610	0.448380
H1211	H121	0.924560	0.875880	0.500000
H1221	H122	0.921480	0.970260	0.500000
H1231	H123	0.075440	0.124120	0.500000
H1241	H124	0.078520	0.029740	0.500000
H1251	H125	0.075440	0.875880	0.500000
H1261	H126	0.078520	0.970260	0.500000
H1271	H127	0.924560	0.124120	0.500000
H1281	H128	0.921480	0.029740	0.500000
H1291	H129	0.500000	0.924560	0.875880
H1301	H130	0.500000	0.921480	0.970260
H1311	H131	0.500000	0.075440	0.124120
H1321	H132	0.500000	0.078520	0.029740
H1331	H133	0.500000	0.075440	0.875880
H1341	H134	0.500000	0.078520	0.970260
H1351	H135	0.500000	0.924560	0.124120
H1361	H136	0.500000	0.921480	0.029740
H1371	H137	0.875880	0.500000	0.924560
H1381	H138	0.970260	0.500000	0.921480
H1391	H139	0.124120	0.500000	0.075440
H1401	H140	0.029740	0.500000	0.078520
H1411	H141	0.875880	0.500000	0.075440
H1421	H142	0.970260	0.500000	0.078520
H1431	H143	0.124120	0.500000	0.924560
H1441	H144	0.029740	0.500000	0.921480
H1451	H145	0.375880	0.424560	0.000000
H1461	H146	0.470260	0.421480	0.000000
H1471	H147	0.624120	0.575440	0.000000
H1481	H148	0.531660	0.579580	0.000000
H1491	H149	0.375880	0.575440	0.000000
H1501	H150	0.468340	0.579580	0.000000
H1511	H151	0.624120	0.424560	0.000000
H1521	H152	0.529740	0.421480	0.000000
H1531	H153	0.424560	0.000000	0.624120
H1541	H154	0.421480	0.000000	0.529740
H1551	H155	0.575440	0.000000	0.375880
H1561	H156	0.578520	0.000000	0.470260
H1571	H157	0.575440	0.000000	0.624120
H1581	H158	0.579580	0.000000	0.531660
H1591	H159	0.424560	0.000000	0.375880
H1601	H160	0.421480	0.000000	0.470260
H1611	H161	0.000000	0.375880	0.575440
H1621	H162	0.000000	0.468340	0.579580
H1631	H163	0.000000	0.624120	0.424560
H1641	H164	0.000000	0.529740	0.421480
H1651	H165	0.000000	0.375880	0.424560
H1661	H166	0.000000	0.470260	0.421480
H1671	H167	0.000000	0.624120	0.575440
H1681	H168	0.000000	0.531660	0.579580
