data_IZENEI_clean_PM
_symmetry_space_group_name_H-M	'P1'
_cell_length_a	22.457000
_cell_length_b	22.457000
_cell_length_c	22.457000
_cell_angle_alpha	90.000000
_cell_angle_beta	90.000000
_cell_angle_gamma	90.000000
_symmetry_Int_Tables_number 1

loop_
_symmetry_equiv_pos_as_xyz
'x,y,z'

loop_
_atom_site_label
_atom_site_type_symbol
_atom_site_fract_x
_atom_site_fract_y
_atom_site_fract_z
In11	In1	0.677690	0.739290	0.806420
C11	C1	0.805100	0.720000	0.101500
C21	C2	0.794900	0.705300	0.877100
C31	C3	0.828500	0.706400	0.934600
C41	C4	0.894900	0.705700	0.039000
H11	H1	0.917800	0.705300	0.074600
C51	C5	0.800500	0.714300	0.989000
H21	H2	0.758700	0.720500	0.990700
C61	C6	0.834100	0.713100	0.041500
C71	C7	0.922700	0.698700	0.984300
C81	C8	0.889600	0.698600	0.931800
H31	H3	0.908700	0.693100	0.894400
O11	O1	0.607100	0.738800	0.872000
N11	N1	0.986200	0.695700	0.977100
O21	O2	0.740700	0.720500	0.878570
O31	O3	0.824500	0.690000	0.832250
O41	O4	0.837200	0.706100	0.145860
O51	O5	0.752460	0.738700	0.103300
Cl11	Cl1	0.604400	0.737200	0.887800
In21	In2	0.322310	0.260710	0.806420
C91	C9	0.194900	0.280000	0.101500
C101	C10	0.205100	0.294700	0.877100
C111	C11	0.171500	0.293600	0.934600
C121	C12	0.105100	0.294300	0.039000
H41	H4	0.082200	0.294700	0.074600
C131	C13	0.199500	0.285700	0.989000
H51	H5	0.241300	0.279500	0.990700
C141	C14	0.165900	0.286900	0.041500
C151	C15	0.077300	0.301300	0.984300
C161	C16	0.110400	0.301400	0.931800
H61	H6	0.091300	0.306900	0.894400
O61	O6	0.392900	0.261200	0.872000
N21	N2	0.013800	0.304300	0.977100
O71	O7	0.259300	0.279500	0.878570
O81	O8	0.175500	0.310000	0.832250
O91	O9	0.162800	0.293900	0.145860
O101	O10	0.247540	0.261300	0.103300
Cl21	Cl2	0.395600	0.262800	0.887800
In31	In3	0.322310	0.739290	0.193580
C171	C17	0.194900	0.720000	0.898500
C181	C18	0.205100	0.705300	0.122900
C191	C19	0.171500	0.706400	0.065400
C201	C20	0.105100	0.705700	0.961000
H71	H7	0.082200	0.705300	0.925400
C211	C21	0.199500	0.714300	0.011000
H81	H8	0.241300	0.720500	0.009300
C221	C22	0.165900	0.713100	0.958500
C231	C23	0.077300	0.698700	0.015700
C241	C24	0.110400	0.698600	0.068200
H91	H9	0.091300	0.693100	0.105600
O111	O11	0.392900	0.738800	0.128000
N31	N3	0.013800	0.695700	0.022900
O121	O12	0.259300	0.720500	0.121430
O131	O13	0.175500	0.690000	0.167750
O141	O14	0.162800	0.706100	0.854140
O151	O15	0.247540	0.738700	0.896700
Cl31	Cl3	0.395600	0.737200	0.112200
In41	In4	0.677690	0.260710	0.193580
C251	C25	0.805100	0.280000	0.898500
C261	C26	0.794900	0.294700	0.122900
C271	C27	0.828500	0.293600	0.065400
C281	C28	0.894900	0.294300	0.961000
H101	H10	0.917800	0.294700	0.925400
C291	C29	0.800500	0.285700	0.011000
H111	H11	0.758700	0.279500	0.009300
C301	C30	0.834100	0.286900	0.958500
C311	C31	0.922700	0.301300	0.015700
C321	C32	0.889600	0.301400	0.068200
H121	H12	0.908700	0.306900	0.105600
O161	O16	0.607100	0.261200	0.128000
N41	N4	0.986200	0.304300	0.022900
O171	O17	0.740700	0.279500	0.121430
O181	O18	0.824500	0.310000	0.167750
O191	O19	0.837200	0.293900	0.854140
O201	O20	0.752460	0.261300	0.896700
Cl41	Cl4	0.604400	0.262800	0.112200
In51	In5	0.806420	0.677690	0.739290
C331	C33	0.101500	0.805100	0.720000
C341	C34	0.877100	0.794900	0.705300
C351	C35	0.934600	0.828500	0.706400
C361	C36	0.039000	0.894900	0.705700
H131	H13	0.074600	0.917800	0.705300
C371	C37	0.989000	0.800500	0.714300
H141	H14	0.990700	0.758700	0.720500
C381	C38	0.041500	0.834100	0.713100
C391	C39	0.984300	0.922700	0.698700
C401	C40	0.931800	0.889600	0.698600
H151	H15	0.894400	0.908700	0.693100
O211	O21	0.872000	0.607100	0.738800
N51	N5	0.977100	0.986200	0.695700
O221	O22	0.878570	0.740700	0.720500
O231	O23	0.832250	0.824500	0.690000
O241	O24	0.145860	0.837200	0.706100
O251	O25	0.103300	0.752460	0.738700
Cl51	Cl5	0.887800	0.604400	0.737200
In61	In6	0.806420	0.322310	0.260710
C411	C41	0.101500	0.194900	0.280000
C421	C42	0.877100	0.205100	0.294700
C431	C43	0.934600	0.171500	0.293600
C441	C44	0.039000	0.105100	0.294300
H161	H16	0.074600	0.082200	0.294700
C451	C45	0.989000	0.199500	0.285700
H171	H17	0.990700	0.241300	0.279500
C461	C46	0.041500	0.165900	0.286900
C471	C47	0.984300	0.077300	0.301300
C481	C48	0.931800	0.110400	0.301400
H181	H18	0.894400	0.091300	0.306900
O261	O26	0.872000	0.392900	0.261200
N61	N6	0.977100	0.013800	0.304300
O271	O27	0.878570	0.259300	0.279500
O281	O28	0.832250	0.175500	0.310000
O291	O29	0.145860	0.162800	0.293900
O301	O30	0.103300	0.247540	0.261300
Cl61	Cl6	0.887800	0.395600	0.262800
In71	In7	0.193580	0.322310	0.739290
C491	C49	0.898500	0.194900	0.720000
C501	C50	0.122900	0.205100	0.705300
C511	C51	0.065400	0.171500	0.706400
C521	C52	0.961000	0.105100	0.705700
H191	H19	0.925400	0.082200	0.705300
C531	C53	0.011000	0.199500	0.714300
H201	H20	0.009300	0.241300	0.720500
C541	C54	0.958500	0.165900	0.713100
C551	C55	0.015700	0.077300	0.698700
C561	C56	0.068200	0.110400	0.698600
H211	H21	0.105600	0.091300	0.693100
O311	O31	0.128000	0.392900	0.738800
N71	N7	0.022900	0.013800	0.695700
O321	O32	0.121430	0.259300	0.720500
O331	O33	0.167750	0.175500	0.690000
O341	O34	0.854140	0.162800	0.706100
O351	O35	0.896700	0.247540	0.738700
Cl71	Cl7	0.112200	0.395600	0.737200
In81	In8	0.193580	0.677690	0.260710
C571	C57	0.898500	0.805100	0.280000
C581	C58	0.122900	0.794900	0.294700
C591	C59	0.065400	0.828500	0.293600
C601	C60	0.961000	0.894900	0.294300
H221	H22	0.925400	0.917800	0.294700
C611	C61	0.011000	0.800500	0.285700
H231	H23	0.009300	0.758700	0.279500
C621	C62	0.958500	0.834100	0.286900
C631	C63	0.015700	0.922700	0.301300
C641	C64	0.068200	0.889600	0.301400
H241	H24	0.105600	0.908700	0.306900
O361	O36	0.128000	0.607100	0.261200
N81	N8	0.022900	0.986200	0.304300
O371	O37	0.121430	0.740700	0.279500
O381	O38	0.167750	0.824500	0.310000
O391	O39	0.854140	0.837200	0.293900
O401	O40	0.896700	0.752460	0.261300
Cl81	Cl8	0.112200	0.604400	0.262800
In91	In9	0.739290	0.806420	0.677690
C651	C65	0.720000	0.101500	0.805100
C661	C66	0.705300	0.877100	0.794900
C671	C67	0.706400	0.934600	0.828500
C681	C68	0.705700	0.039000	0.894900
H251	H25	0.705300	0.074600	0.917800
C691	C69	0.714300	0.989000	0.800500
H261	H26	0.720500	0.990700	0.758700
C701	C70	0.713100	0.041500	0.834100
C711	C71	0.698700	0.984300	0.922700
C721	C72	0.698600	0.931800	0.889600
H271	H27	0.693100	0.894400	0.908700
O411	O41	0.738800	0.872000	0.607100
N91	N9	0.695700	0.977100	0.986200
O421	O42	0.720500	0.878570	0.740700
O431	O43	0.690000	0.832250	0.824500
O441	O44	0.706100	0.145860	0.837200
O451	O45	0.738700	0.103300	0.752460
Cl91	Cl9	0.737200	0.887800	0.604400
In101	In10	0.260710	0.806420	0.322310
C731	C73	0.280000	0.101500	0.194900
C741	C74	0.294700	0.877100	0.205100
C751	C75	0.293600	0.934600	0.171500
C761	C76	0.294300	0.039000	0.105100
H281	H28	0.294700	0.074600	0.082200
C771	C77	0.285700	0.989000	0.199500
H291	H29	0.279500	0.990700	0.241300
C781	C78	0.286900	0.041500	0.165900
C791	C79	0.301300	0.984300	0.077300
C801	C80	0.301400	0.931800	0.110400
H301	H30	0.306900	0.894400	0.091300
O461	O46	0.261200	0.872000	0.392900
N101	N10	0.304300	0.977100	0.013800
O471	O47	0.279500	0.878570	0.259300
O481	O48	0.310000	0.832250	0.175500
O491	O49	0.293900	0.145860	0.162800
O501	O50	0.261300	0.103300	0.247540
Cl101	Cl10	0.262800	0.887800	0.395600
In111	In11	0.739290	0.193580	0.322310
C811	C81	0.720000	0.898500	0.194900
C821	C82	0.705300	0.122900	0.205100
C831	C83	0.706400	0.065400	0.171500
C841	C84	0.705700	0.961000	0.105100
H311	H31	0.705300	0.925400	0.082200
C851	C85	0.714300	0.011000	0.199500
H321	H32	0.720500	0.009300	0.241300
C861	C86	0.713100	0.958500	0.165900
C871	C87	0.698700	0.015700	0.077300
C881	C88	0.698600	0.068200	0.110400
H331	H33	0.693100	0.105600	0.091300
O511	O51	0.738800	0.128000	0.392900
N111	N11	0.695700	0.022900	0.013800
O521	O52	0.720500	0.121430	0.259300
O531	O53	0.690000	0.167750	0.175500
O541	O54	0.706100	0.854140	0.162800
O551	O55	0.738700	0.896700	0.247540
Cl111	Cl11	0.737200	0.112200	0.395600
In121	In12	0.260710	0.193580	0.677690
C891	C89	0.280000	0.898500	0.805100
C901	C90	0.294700	0.122900	0.794900
C911	C91	0.293600	0.065400	0.828500
C921	C92	0.294300	0.961000	0.894900
H341	H34	0.294700	0.925400	0.917800
C931	C93	0.285700	0.011000	0.800500
H351	H35	0.279500	0.009300	0.758700
C941	C94	0.286900	0.958500	0.834100
C951	C95	0.301300	0.015700	0.922700
C961	C96	0.301400	0.068200	0.889600
H361	H36	0.306900	0.105600	0.908700
O561	O56	0.261200	0.128000	0.607100
N121	N12	0.304300	0.022900	0.986200
O571	O57	0.279500	0.121430	0.740700
O581	O58	0.310000	0.167750	0.824500
O591	O59	0.293900	0.854140	0.837200
O601	O60	0.261300	0.896700	0.752460
Cl121	Cl12	0.262800	0.112200	0.604400
In131	In13	0.239290	0.177690	0.306420
C971	C97	0.220000	0.305100	0.601500
C981	C98	0.205300	0.294900	0.377100
C991	C99	0.206400	0.328500	0.434600
C1001	C100	0.205700	0.394900	0.539000
H371	H37	0.205300	0.417800	0.574600
C1011	C101	0.214300	0.300500	0.489000
H381	H38	0.220500	0.258700	0.490700
C1021	C102	0.213100	0.334100	0.541500
C1031	C103	0.198700	0.422700	0.484300
C1041	C104	0.198600	0.389600	0.431800
H391	H39	0.193100	0.408700	0.394400
O611	O61	0.238800	0.107100	0.372000
N131	N13	0.195700	0.486200	0.477100
O621	O62	0.220500	0.240700	0.378570
O631	O63	0.190000	0.324500	0.332250
O641	O64	0.206100	0.337200	0.645860
O651	O65	0.238700	0.252460	0.603300
Cl131	Cl13	0.237200	0.104400	0.387800
In141	In14	0.760710	0.822310	0.306420
C1051	C105	0.780000	0.694900	0.601500
C1061	C106	0.794700	0.705100	0.377100
C1071	C107	0.793600	0.671500	0.434600
C1081	C108	0.794300	0.605100	0.539000
H401	H40	0.794700	0.582200	0.574600
C1091	C109	0.785700	0.699500	0.489000
H411	H41	0.779500	0.741300	0.490700
C1101	C110	0.786900	0.665900	0.541500
C1111	C111	0.801300	0.577300	0.484300
C1121	C112	0.801400	0.610400	0.431800
H421	H42	0.806900	0.591300	0.394400
O661	O66	0.761200	0.892900	0.372000
N141	N14	0.804300	0.513800	0.477100
O671	O67	0.779500	0.759300	0.378570
O681	O68	0.810000	0.675500	0.332250
O691	O69	0.793900	0.662800	0.645860
O701	O70	0.761300	0.747540	0.603300
Cl141	Cl14	0.762800	0.895600	0.387800
In151	In15	0.239290	0.822310	0.693580
C1131	C113	0.220000	0.694900	0.398500
C1141	C114	0.205300	0.705100	0.622900
C1151	C115	0.206400	0.671500	0.565400
C1161	C116	0.205700	0.605100	0.461000
H431	H43	0.205300	0.582200	0.425400
C1171	C117	0.214300	0.699500	0.511000
H441	H44	0.220500	0.741300	0.509300
C1181	C118	0.213100	0.665900	0.458500
C1191	C119	0.198700	0.577300	0.515700
C1201	C120	0.198600	0.610400	0.568200
H451	H45	0.193100	0.591300	0.605600
O711	O71	0.238800	0.892900	0.628000
N151	N15	0.195700	0.513800	0.522900
O721	O72	0.220500	0.759300	0.621430
O731	O73	0.190000	0.675500	0.667750
O741	O74	0.206100	0.662800	0.354140
O751	O75	0.238700	0.747540	0.396700
Cl151	Cl15	0.237200	0.895600	0.612200
In161	In16	0.760710	0.177690	0.693580
C1211	C121	0.780000	0.305100	0.398500
C1221	C122	0.794700	0.294900	0.622900
C1231	C123	0.793600	0.328500	0.565400
C1241	C124	0.794300	0.394900	0.461000
H461	H46	0.794700	0.417800	0.425400
C1251	C125	0.785700	0.300500	0.511000
H471	H47	0.779500	0.258700	0.509300
C1261	C126	0.786900	0.334100	0.458500
C1271	C127	0.801300	0.422700	0.515700
C1281	C128	0.801400	0.389600	0.568200
H481	H48	0.806900	0.408700	0.605600
O761	O76	0.761200	0.107100	0.628000
N161	N16	0.804300	0.486200	0.522900
O771	O77	0.779500	0.240700	0.621430
O781	O78	0.810000	0.324500	0.667750
O791	O79	0.793900	0.337200	0.354140
O801	O80	0.761300	0.252460	0.396700
Cl161	Cl16	0.762800	0.104400	0.612200
In171	In17	0.177690	0.306420	0.239290
C1291	C129	0.305100	0.601500	0.220000
C1301	C130	0.294900	0.377100	0.205300
C1311	C131	0.328500	0.434600	0.206400
C1321	C132	0.394900	0.539000	0.205700
H491	H49	0.417800	0.574600	0.205300
C1331	C133	0.300500	0.489000	0.214300
H501	H50	0.258700	0.490700	0.220500
C1341	C134	0.334100	0.541500	0.213100
C1351	C135	0.422700	0.484300	0.198700
C1361	C136	0.389600	0.431800	0.198600
H511	H51	0.408700	0.394400	0.193100
O811	O81	0.107100	0.372000	0.238800
N171	N17	0.486200	0.477100	0.195700
O821	O82	0.240700	0.378570	0.220500
O831	O83	0.324500	0.332250	0.190000
O841	O84	0.337200	0.645860	0.206100
O851	O85	0.252460	0.603300	0.238700
Cl171	Cl17	0.104400	0.387800	0.237200
In181	In18	0.822310	0.306420	0.760710
C1371	C137	0.694900	0.601500	0.780000
C1381	C138	0.705100	0.377100	0.794700
C1391	C139	0.671500	0.434600	0.793600
C1401	C140	0.605100	0.539000	0.794300
H521	H52	0.582200	0.574600	0.794700
C1411	C141	0.699500	0.489000	0.785700
H531	H53	0.741300	0.490700	0.779500
C1421	C142	0.665900	0.541500	0.786900
C1431	C143	0.577300	0.484300	0.801300
C1441	C144	0.610400	0.431800	0.801400
H541	H54	0.591300	0.394400	0.806900
O861	O86	0.892900	0.372000	0.761200
N181	N18	0.513800	0.477100	0.804300
O871	O87	0.759300	0.378570	0.779500
O881	O88	0.675500	0.332250	0.810000
O891	O89	0.662800	0.645860	0.793900
O901	O90	0.747540	0.603300	0.761300
Cl181	Cl18	0.895600	0.387800	0.762800
In191	In19	0.822310	0.693580	0.239290
C1451	C145	0.694900	0.398500	0.220000
C1461	C146	0.705100	0.622900	0.205300
C1471	C147	0.671500	0.565400	0.206400
C1481	C148	0.605100	0.461000	0.205700
H551	H55	0.582200	0.425400	0.205300
C1491	C149	0.699500	0.511000	0.214300
H561	H56	0.741300	0.509300	0.220500
C1501	C150	0.665900	0.458500	0.213100
C1511	C151	0.577300	0.515700	0.198700
C1521	C152	0.610400	0.568200	0.198600
H571	H57	0.591300	0.605600	0.193100
O911	O91	0.892900	0.628000	0.238800
N191	N19	0.513800	0.522900	0.195700
O921	O92	0.759300	0.621430	0.220500
O931	O93	0.675500	0.667750	0.190000
O941	O94	0.662800	0.354140	0.206100
O951	O95	0.747540	0.396700	0.238700
Cl191	Cl19	0.895600	0.612200	0.237200
In201	In20	0.177690	0.693580	0.760710
C1531	C153	0.305100	0.398500	0.780000
C1541	C154	0.294900	0.622900	0.794700
C1551	C155	0.328500	0.565400	0.793600
C1561	C156	0.394900	0.461000	0.794300
H581	H58	0.417800	0.425400	0.794700
C1571	C157	0.300500	0.511000	0.785700
H591	H59	0.258700	0.509300	0.779500
C1581	C158	0.334100	0.458500	0.786900
C1591	C159	0.422700	0.515700	0.801300
C1601	C160	0.389600	0.568200	0.801400
H601	H60	0.408700	0.605600	0.806900
O961	O96	0.107100	0.628000	0.761200
N201	N20	0.486200	0.522900	0.804300
O971	O97	0.240700	0.621430	0.779500
O981	O98	0.324500	0.667750	0.810000
O991	O99	0.337200	0.354140	0.793900
O1001	O100	0.252460	0.396700	0.761300
Cl201	Cl20	0.104400	0.612200	0.762800
In211	In21	0.306420	0.239290	0.177690
C1611	C161	0.601500	0.220000	0.305100
C1621	C162	0.377100	0.205300	0.294900
C1631	C163	0.434600	0.206400	0.328500
C1641	C164	0.539000	0.205700	0.394900
H611	H61	0.574600	0.205300	0.417800
C1651	C165	0.489000	0.214300	0.300500
H621	H62	0.490700	0.220500	0.258700
C1661	C166	0.541500	0.213100	0.334100
C1671	C167	0.484300	0.198700	0.422700
C1681	C168	0.431800	0.198600	0.389600
H631	H63	0.394400	0.193100	0.408700
O1011	O101	0.372000	0.238800	0.107100
N211	N21	0.477100	0.195700	0.486200
O1021	O102	0.378570	0.220500	0.240700
O1031	O103	0.332250	0.190000	0.324500
O1041	O104	0.645860	0.206100	0.337200
O1051	O105	0.603300	0.238700	0.252460
Cl211	Cl21	0.387800	0.237200	0.104400
In221	In22	0.306420	0.760710	0.822310
C1691	C169	0.601500	0.780000	0.694900
C1701	C170	0.377100	0.794700	0.705100
C1711	C171	0.434600	0.793600	0.671500
C1721	C172	0.539000	0.794300	0.605100
H641	H64	0.574600	0.794700	0.582200
C1731	C173	0.489000	0.785700	0.699500
H651	H65	0.490700	0.779500	0.741300
C1741	C174	0.541500	0.786900	0.665900
C1751	C175	0.484300	0.801300	0.577300
C1761	C176	0.431800	0.801400	0.610400
H661	H66	0.394400	0.806900	0.591300
O1061	O106	0.372000	0.761200	0.892900
N221	N22	0.477100	0.804300	0.513800
O1071	O107	0.378570	0.779500	0.759300
O1081	O108	0.332250	0.810000	0.675500
O1091	O109	0.645860	0.793900	0.662800
O1101	O110	0.603300	0.761300	0.747540
Cl221	Cl22	0.387800	0.762800	0.895600
In231	In23	0.693580	0.239290	0.822310
C1771	C177	0.398500	0.220000	0.694900
C1781	C178	0.622900	0.205300	0.705100
C1791	C179	0.565400	0.206400	0.671500
C1801	C180	0.461000	0.205700	0.605100
H671	H67	0.425400	0.205300	0.582200
C1811	C181	0.511000	0.214300	0.699500
H681	H68	0.509300	0.220500	0.741300
C1821	C182	0.458500	0.213100	0.665900
C1831	C183	0.515700	0.198700	0.577300
C1841	C184	0.568200	0.198600	0.610400
H691	H69	0.605600	0.193100	0.591300
O1111	O111	0.628000	0.238800	0.892900
N231	N23	0.522900	0.195700	0.513800
O1121	O112	0.621430	0.220500	0.759300
O1131	O113	0.667750	0.190000	0.675500
O1141	O114	0.354140	0.206100	0.662800
O1151	O115	0.396700	0.238700	0.747540
Cl231	Cl23	0.612200	0.237200	0.895600
In241	In24	0.693580	0.760710	0.177690
C1851	C185	0.398500	0.780000	0.305100
C1861	C186	0.622900	0.794700	0.294900
C1871	C187	0.565400	0.793600	0.328500
C1881	C188	0.461000	0.794300	0.394900
H701	H70	0.425400	0.794700	0.417800
C1891	C189	0.511000	0.785700	0.300500
H711	H71	0.509300	0.779500	0.258700
C1901	C190	0.458500	0.786900	0.334100
C1911	C191	0.515700	0.801300	0.422700
C1921	C192	0.568200	0.801400	0.389600
H721	H72	0.605600	0.806900	0.408700
O1161	O116	0.628000	0.761200	0.107100
N241	N24	0.522900	0.804300	0.486200
O1171	O117	0.621430	0.779500	0.240700
O1181	O118	0.667750	0.810000	0.324500
O1191	O119	0.354140	0.793900	0.337200
O1201	O120	0.396700	0.761300	0.252460
Cl241	Cl24	0.612200	0.762800	0.104400
O1211	O121	0.740300	0.740300	0.740300
O1221	O122	0.259700	0.259700	0.740300
O1231	O123	0.259700	0.740300	0.259700
O1241	O124	0.740300	0.259700	0.259700
O1251	O125	0.240300	0.240300	0.240300
O1261	O126	0.759700	0.759700	0.240300
O1271	O127	0.240300	0.759700	0.759700
O1281	O128	0.759700	0.240300	0.759700
