data_IZEPEJ_clean_PM
_symmetry_space_group_name_H-M	'P1'
_cell_length_a	28.390300
_cell_length_b	28.390300
_cell_length_c	28.390300
_cell_angle_alpha	60.000000
_cell_angle_beta	60.000000
_cell_angle_gamma	60.000000
_symmetry_Int_Tables_number 1

loop_
_symmetry_equiv_pos_as_xyz
'x,y,z'

loop_
_atom_site_label
_atom_site_type_symbol
_atom_site_fract_x
_atom_site_fract_y
_atom_site_fract_z
Cr11	Cr1	0.929240	0.811280	0.448200
Cr21	Cr2	0.811280	0.929240	0.811280
Cr31	Cr3	0.448200	0.811280	0.929240
Cr41	Cr4	0.811280	0.448200	0.811280
Cr51	Cr5	0.929240	0.448200	0.811280
Cr61	Cr6	0.811280	0.811280	0.448200
Cr71	Cr7	0.448200	0.929240	0.811280
Cr81	Cr8	0.811280	0.811280	0.929240
Cr91	Cr9	0.929240	0.811280	0.811280
Cr101	Cr10	0.811280	0.448200	0.929240
Cr111	Cr11	0.448200	0.811280	0.811280
Cr121	Cr12	0.811280	0.929240	0.448200
Cr131	Cr13	0.188720	0.070760	0.551800
Cr141	Cr14	0.070760	0.188720	0.188720
Cr151	Cr15	0.188720	0.551800	0.070760
Cr161	Cr16	0.551800	0.188720	0.188720
Cr171	Cr17	0.551800	0.070760	0.188720
Cr181	Cr18	0.188720	0.188720	0.551800
Cr191	Cr19	0.070760	0.551800	0.188720
Cr201	Cr20	0.188720	0.188720	0.070760
Cr211	Cr21	0.188720	0.070760	0.188720
Cr221	Cr22	0.551800	0.188720	0.070760
Cr231	Cr23	0.188720	0.551800	0.188720
Cr241	Cr24	0.070760	0.188720	0.551800
H11	H1	0.046150	0.739390	0.323490
H21	H2	0.954810	0.799610	0.578330
H31	H3	0.739390	0.046150	0.890970
H41	H4	0.799610	0.954810	0.667250
H51	H5	0.323490	0.890970	0.046150
H61	H6	0.578330	0.667250	0.954810
H71	H7	0.890970	0.323490	0.739390
H81	H8	0.667250	0.578330	0.799610
H91	H9	0.046150	0.323490	0.890970
H101	H10	0.954810	0.578330	0.667250
H111	H11	0.739390	0.890970	0.323490
H121	H12	0.799610	0.667250	0.578330
H131	H13	0.323490	0.046150	0.739390
H141	H14	0.578330	0.954810	0.799610
H151	H15	0.890970	0.739390	0.046150
H161	H16	0.667250	0.799610	0.954810
H171	H17	0.046150	0.890970	0.739390
H181	H18	0.954810	0.667250	0.799610
H191	H19	0.739390	0.323490	0.046150
H201	H20	0.799610	0.578330	0.954810
H211	H21	0.323490	0.739390	0.890970
H221	H22	0.578330	0.799610	0.667250
H231	H23	0.890970	0.046150	0.323490
H241	H24	0.667250	0.954810	0.578330
H251	H25	0.260610	0.953850	0.676510
H261	H26	0.200390	0.045190	0.421670
H271	H27	0.953850	0.260610	0.109030
H281	H28	0.045190	0.200390	0.332750
H291	H29	0.109030	0.676510	0.953850
H301	H30	0.332750	0.421670	0.045190
H311	H31	0.676510	0.109030	0.260610
H321	H32	0.421670	0.332750	0.200390
H331	H33	0.676510	0.953850	0.109030
H341	H34	0.421670	0.045190	0.332750
H351	H35	0.109030	0.260610	0.676510
H361	H36	0.332750	0.200390	0.421670
H371	H37	0.953850	0.676510	0.260610
H381	H38	0.045190	0.421670	0.200390
H391	H39	0.260610	0.109030	0.953850
H401	H40	0.200390	0.332750	0.045190
H411	H41	0.109030	0.953850	0.260610
H421	H42	0.332750	0.045190	0.200390
H431	H43	0.676510	0.260610	0.953850
H441	H44	0.421670	0.200390	0.045190
H451	H45	0.260610	0.676510	0.109030
H461	H46	0.200390	0.421670	0.332750
H471	H47	0.953850	0.109030	0.676510
H481	H48	0.045190	0.332750	0.421670
H491	H49	0.953850	0.260610	0.676510
H501	H50	0.045190	0.200390	0.421670
H511	H51	0.260610	0.953850	0.109030
H521	H52	0.200390	0.045190	0.332750
H531	H53	0.676510	0.109030	0.953850
H541	H54	0.421670	0.332750	0.045190
H551	H55	0.109030	0.676510	0.260610
H561	H56	0.332750	0.421670	0.200390
H571	H57	0.953850	0.676510	0.109030
H581	H58	0.045190	0.421670	0.332750
H591	H59	0.260610	0.109030	0.676510
H601	H60	0.200390	0.332750	0.421670
H611	H61	0.676510	0.953850	0.260610
H621	H62	0.421670	0.045190	0.200390
H631	H63	0.109030	0.260610	0.953850
H641	H64	0.332750	0.200390	0.045190
H651	H65	0.953850	0.109030	0.260610
H661	H66	0.045190	0.332750	0.200390
H671	H67	0.260610	0.676510	0.953850
H681	H68	0.200390	0.421670	0.045190
H691	H69	0.676510	0.260610	0.109030
H701	H70	0.421670	0.200390	0.332750
H711	H71	0.109030	0.953850	0.676510
H721	H72	0.332750	0.045190	0.421670
H731	H73	0.739390	0.046150	0.323490
H741	H74	0.799610	0.954810	0.578330
H751	H75	0.046150	0.739390	0.890970
H761	H76	0.954810	0.799610	0.667250
H771	H77	0.890970	0.323490	0.046150
H781	H78	0.667250	0.578330	0.954810
H791	H79	0.323490	0.890970	0.739390
H801	H80	0.578330	0.667250	0.799610
H811	H81	0.323490	0.046150	0.890970
H821	H82	0.578330	0.954810	0.667250
H831	H83	0.890970	0.739390	0.323490
H841	H84	0.667250	0.799610	0.578330
H851	H85	0.046150	0.323490	0.739390
H861	H86	0.954810	0.578330	0.799610
H871	H87	0.739390	0.890970	0.046150
H881	H88	0.799610	0.667250	0.954810
H891	H89	0.890970	0.046150	0.739390
H901	H90	0.667250	0.954810	0.799610
H911	H91	0.323490	0.739390	0.046150
H921	H92	0.578330	0.799610	0.954810
H931	H93	0.739390	0.323490	0.890970
H941	H94	0.799610	0.578330	0.667250
H951	H95	0.046150	0.890970	0.323490
H961	H96	0.954810	0.667250	0.578330
C11	C1	0.025200	0.724840	0.310000
C21	C2	0.919720	0.834460	0.598280
C31	C3	0.724840	0.025200	0.939960
C41	C4	0.834460	0.919720	0.647540
C51	C5	0.310000	0.939960	0.025200
C61	C6	0.598280	0.647540	0.919720
C71	C7	0.939960	0.310000	0.724840
C81	C8	0.647540	0.598280	0.834460
C91	C9	0.025200	0.310000	0.939960
C101	C10	0.919720	0.598280	0.647540
C111	C11	0.724840	0.939960	0.310000
C121	C12	0.834460	0.647540	0.598280
C131	C13	0.310000	0.025200	0.724840
C141	C14	0.598280	0.919720	0.834460
C151	C15	0.939960	0.724840	0.025200
C161	C16	0.647540	0.834460	0.919720
C171	C17	0.025200	0.939960	0.724840
C181	C18	0.919720	0.647540	0.834460
C191	C19	0.724840	0.310000	0.025200
C201	C20	0.834460	0.598280	0.919720
C211	C21	0.310000	0.724840	0.939960
C221	C22	0.598280	0.834460	0.647540
C231	C23	0.939960	0.025200	0.310000
C241	C24	0.647540	0.919720	0.598280
C251	C25	0.275160	0.974800	0.690000
C261	C26	0.165540	0.080280	0.401720
C271	C27	0.974800	0.275160	0.060040
C281	C28	0.080280	0.165540	0.352460
C291	C29	0.060040	0.690000	0.974800
C301	C30	0.352460	0.401720	0.080280
C311	C31	0.690000	0.060040	0.275160
C321	C32	0.401720	0.352460	0.165540
C331	C33	0.690000	0.974800	0.060040
C341	C34	0.401720	0.080280	0.352460
C351	C35	0.060040	0.275160	0.690000
C361	C36	0.352460	0.165540	0.401720
C371	C37	0.974800	0.690000	0.275160
C381	C38	0.080280	0.401720	0.165540
C391	C39	0.275160	0.060040	0.974800
C401	C40	0.165540	0.352460	0.080280
C411	C41	0.060040	0.974800	0.275160
C421	C42	0.352460	0.080280	0.165540
C431	C43	0.690000	0.275160	0.974800
C441	C44	0.401720	0.165540	0.080280
C451	C45	0.275160	0.690000	0.060040
C461	C46	0.165540	0.401720	0.352460
C471	C47	0.974800	0.060040	0.690000
C481	C48	0.080280	0.352460	0.401720
C491	C49	0.974800	0.275160	0.690000
C501	C50	0.080280	0.165540	0.401720
C511	C51	0.275160	0.974800	0.060040
C521	C52	0.165540	0.080280	0.352460
C531	C53	0.690000	0.060040	0.974800
C541	C54	0.401720	0.352460	0.080280
C551	C55	0.060040	0.690000	0.275160
C561	C56	0.352460	0.401720	0.165540
C571	C57	0.974800	0.690000	0.060040
C581	C58	0.080280	0.401720	0.352460
C591	C59	0.275160	0.060040	0.690000
C601	C60	0.165540	0.352460	0.401720
C611	C61	0.690000	0.974800	0.275160
C621	C62	0.401720	0.080280	0.165540
C631	C63	0.060040	0.275160	0.974800
C641	C64	0.352460	0.165540	0.080280
C651	C65	0.974800	0.060040	0.275160
C661	C66	0.080280	0.352460	0.165540
C671	C67	0.275160	0.690000	0.974800
C681	C68	0.165540	0.401720	0.080280
C691	C69	0.690000	0.275160	0.060040
C701	C70	0.401720	0.165540	0.352460
C711	C71	0.060040	0.974800	0.690000
C721	C72	0.352460	0.080280	0.401720
C731	C73	0.724840	0.025200	0.310000
C741	C74	0.834460	0.919720	0.598280
C751	C75	0.025200	0.724840	0.939960
C761	C76	0.919720	0.834460	0.647540
C771	C77	0.939960	0.310000	0.025200
C781	C78	0.647540	0.598280	0.919720
C791	C79	0.310000	0.939960	0.724840
C801	C80	0.598280	0.647540	0.834460
C811	C81	0.310000	0.025200	0.939960
C821	C82	0.598280	0.919720	0.647540
C831	C83	0.939960	0.724840	0.310000
C841	C84	0.647540	0.834460	0.598280
C851	C85	0.025200	0.310000	0.724840
C861	C86	0.919720	0.598280	0.834460
C871	C87	0.724840	0.939960	0.025200
C881	C88	0.834460	0.647540	0.919720
C891	C89	0.939960	0.025200	0.724840
C901	C90	0.647540	0.919720	0.834460
C911	C91	0.310000	0.724840	0.025200
C921	C92	0.598280	0.834460	0.919720
C931	C93	0.724840	0.310000	0.939960
C941	C94	0.834460	0.598280	0.647540
C951	C95	0.025200	0.939960	0.310000
C961	C96	0.919720	0.647540	0.598280
C971	C97	0.928390	0.771570	0.371650
C981	C98	0.964870	0.741890	0.328370
C991	C99	0.771570	0.928390	0.928390
C1001	C100	0.741890	0.964870	0.964870
C1011	C101	0.371650	0.928390	0.928390
C1021	C102	0.328370	0.964870	0.964870
C1031	C103	0.928390	0.371650	0.771570
C1041	C104	0.964870	0.328370	0.741890
C1051	C105	0.928390	0.371650	0.928390
C1061	C106	0.964870	0.328370	0.964870
C1071	C107	0.771570	0.928390	0.371650
C1081	C108	0.741890	0.964870	0.328370
C1091	C109	0.371650	0.928390	0.771570
C1101	C110	0.328370	0.964870	0.741890
C1111	C111	0.928390	0.771570	0.928390
C1121	C112	0.964870	0.741890	0.964870
C1131	C113	0.928390	0.928390	0.771570
C1141	C114	0.964870	0.964870	0.741890
C1151	C115	0.771570	0.371650	0.928390
C1161	C116	0.741890	0.328370	0.964870
C1171	C117	0.371650	0.771570	0.928390
C1181	C118	0.328370	0.741890	0.964870
C1191	C119	0.928390	0.928390	0.371650
C1201	C120	0.964870	0.964870	0.328370
C1211	C121	0.228430	0.071610	0.628350
C1221	C122	0.258110	0.035130	0.671630
C1231	C123	0.071610	0.228430	0.071610
C1241	C124	0.035130	0.258110	0.035130
C1251	C125	0.071610	0.628350	0.071610
C1261	C126	0.035130	0.671630	0.035130
C1271	C127	0.628350	0.071610	0.228430
C1281	C128	0.671630	0.035130	0.258110
C1291	C129	0.628350	0.071610	0.071610
C1301	C130	0.671630	0.035130	0.035130
C1311	C131	0.071610	0.228430	0.628350
C1321	C132	0.035130	0.258110	0.671630
C1331	C133	0.071610	0.628350	0.228430
C1341	C134	0.035130	0.671630	0.258110
C1351	C135	0.228430	0.071610	0.071610
C1361	C136	0.258110	0.035130	0.035130
C1371	C137	0.071610	0.071610	0.228430
C1381	C138	0.035130	0.035130	0.258110
C1391	C139	0.628350	0.228430	0.071610
C1401	C140	0.671630	0.258110	0.035130
C1411	C141	0.228430	0.628350	0.071610
C1421	C142	0.258110	0.671630	0.035130
C1431	C143	0.071610	0.071610	0.628350
C1441	C144	0.035130	0.035130	0.671630
C1451	C145	0.875150	0.875150	0.523190
C1461	C146	0.876950	0.876950	0.573350
C1471	C147	0.875150	0.875150	0.726510
C1481	C148	0.876950	0.876950	0.672750
C1491	C149	0.523190	0.726510	0.875150
C1501	C150	0.573350	0.672750	0.876950
C1511	C151	0.726510	0.523190	0.875150
C1521	C152	0.672750	0.573350	0.876950
C1531	C153	0.875150	0.523190	0.726510
C1541	C154	0.876950	0.573350	0.672750
C1551	C155	0.875150	0.726510	0.523190
C1561	C156	0.876950	0.672750	0.573350
C1571	C157	0.523190	0.875150	0.875150
C1581	C158	0.573350	0.876950	0.876950
C1591	C159	0.726510	0.875150	0.875150
C1601	C160	0.672750	0.876950	0.876950
C1611	C161	0.875150	0.726510	0.875150
C1621	C162	0.876950	0.672750	0.876950
C1631	C163	0.875150	0.523190	0.875150
C1641	C164	0.876950	0.573350	0.876950
C1651	C165	0.523190	0.875150	0.726510
C1661	C166	0.573350	0.876950	0.672750
C1671	C167	0.726510	0.875150	0.523190
C1681	C168	0.672750	0.876950	0.573350
C1691	C169	0.124850	0.124850	0.476810
C1701	C170	0.123050	0.123050	0.426650
C1711	C171	0.124850	0.124850	0.273490
C1721	C172	0.123050	0.123050	0.327250
C1731	C173	0.273490	0.476810	0.124850
C1741	C174	0.327250	0.426650	0.123050
C1751	C175	0.476810	0.273490	0.124850
C1761	C176	0.426650	0.327250	0.123050
C1771	C177	0.476810	0.124850	0.273490
C1781	C178	0.426650	0.123050	0.327250
C1791	C179	0.273490	0.124850	0.476810
C1801	C180	0.327250	0.123050	0.426650
C1811	C181	0.124850	0.476810	0.124850
C1821	C182	0.123050	0.426650	0.123050
C1831	C183	0.124850	0.273490	0.124850
C1841	C184	0.123050	0.327250	0.123050
C1851	C185	0.273490	0.124850	0.124850
C1861	C186	0.327250	0.123050	0.123050
C1871	C187	0.476810	0.124850	0.124850
C1881	C188	0.426650	0.123050	0.123050
C1891	C189	0.124850	0.476810	0.273490
C1901	C190	0.123050	0.426650	0.327250
C1911	C191	0.124850	0.273490	0.476810
C1921	C192	0.123050	0.327250	0.426650
O11	O1	0.913660	0.834660	0.503260
O21	O2	0.953020	0.782400	0.390280
O31	O3	0.834660	0.913660	0.748420
O41	O4	0.782400	0.953020	0.874300
O51	O5	0.503260	0.748420	0.913660
O61	O6	0.390280	0.874300	0.953020
O71	O7	0.748420	0.503260	0.834660
O81	O8	0.874300	0.390280	0.782400
O91	O9	0.913660	0.503260	0.748420
O101	O10	0.953020	0.390280	0.874300
O111	O11	0.834660	0.748420	0.503260
O121	O12	0.782400	0.874300	0.390280
O131	O13	0.503260	0.913660	0.834660
O141	O14	0.390280	0.953020	0.782400
O151	O15	0.748420	0.834660	0.913660
O161	O16	0.874300	0.782400	0.953020
O171	O17	0.913660	0.748420	0.834660
O181	O18	0.953020	0.874300	0.782400
O191	O19	0.834660	0.503260	0.913660
O201	O20	0.782400	0.390280	0.953020
O211	O21	0.503260	0.834660	0.748420
O221	O22	0.390280	0.782400	0.874300
O231	O23	0.748420	0.913660	0.503260
O241	O24	0.874300	0.953020	0.390280
O251	O25	0.165340	0.086340	0.496740
O261	O26	0.217600	0.046980	0.609720
O271	O27	0.086340	0.165340	0.251580
O281	O28	0.046980	0.217600	0.125700
O291	O29	0.251580	0.496740	0.086340
O301	O30	0.125700	0.609720	0.046980
O311	O31	0.496740	0.251580	0.165340
O321	O32	0.609720	0.125700	0.217600
O331	O33	0.496740	0.086340	0.251580
O341	O34	0.609720	0.046980	0.125700
O351	O35	0.251580	0.165340	0.496740
O361	O36	0.125700	0.217600	0.609720
O371	O37	0.086340	0.496740	0.165340
O381	O38	0.046980	0.609720	0.217600
O391	O39	0.165340	0.251580	0.086340
O401	O40	0.217600	0.125700	0.046980
O411	O41	0.251580	0.086340	0.165340
O421	O42	0.125700	0.046980	0.217600
O431	O43	0.496740	0.165340	0.086340
O441	O44	0.609720	0.217600	0.046980
O451	O45	0.165340	0.496740	0.251580
O461	O46	0.217600	0.609720	0.125700
O471	O47	0.086340	0.251580	0.496740
O481	O48	0.046980	0.125700	0.609720
O491	O49	0.086340	0.165340	0.496740
O501	O50	0.046980	0.217600	0.609720
O511	O51	0.165340	0.086340	0.251580
O521	O52	0.217600	0.046980	0.125700
O531	O53	0.496740	0.251580	0.086340
O541	O54	0.609720	0.125700	0.046980
O551	O55	0.251580	0.496740	0.165340
O561	O56	0.125700	0.609720	0.217600
O571	O57	0.086340	0.496740	0.251580
O581	O58	0.046980	0.609720	0.125700
O591	O59	0.165340	0.251580	0.496740
O601	O60	0.217600	0.125700	0.609720
O611	O61	0.496740	0.086340	0.165340
O621	O62	0.609720	0.046980	0.217600
O631	O63	0.251580	0.165340	0.086340
O641	O64	0.125700	0.217600	0.046980
O651	O65	0.086340	0.251580	0.165340
O661	O66	0.046980	0.125700	0.217600
O671	O67	0.165340	0.496740	0.086340
O681	O68	0.217600	0.609720	0.046980
O691	O69	0.496740	0.165340	0.251580
O701	O70	0.609720	0.217600	0.125700
O711	O71	0.251580	0.086340	0.496740
O721	O72	0.125700	0.046980	0.609720
O731	O73	0.834660	0.913660	0.503260
O741	O74	0.782400	0.953020	0.390280
O751	O75	0.913660	0.834660	0.748420
O761	O76	0.953020	0.782400	0.874300
O771	O77	0.748420	0.503260	0.913660
O781	O78	0.874300	0.390280	0.953020
O791	O79	0.503260	0.748420	0.834660
O801	O80	0.390280	0.874300	0.782400
O811	O81	0.503260	0.913660	0.748420
O821	O82	0.390280	0.953020	0.874300
O831	O83	0.748420	0.834660	0.503260
O841	O84	0.874300	0.782400	0.390280
O851	O85	0.913660	0.503260	0.834660
O861	O86	0.953020	0.390280	0.782400
O871	O87	0.834660	0.748420	0.913660
O881	O88	0.782400	0.874300	0.953020
O891	O89	0.748420	0.913660	0.834660
O901	O90	0.874300	0.953020	0.782400
O911	O91	0.503260	0.834660	0.913660
O921	O92	0.390280	0.782400	0.953020
O931	O93	0.834660	0.503260	0.748420
O941	O94	0.782400	0.390280	0.874300
O951	O95	0.913660	0.748420	0.503260
O961	O96	0.953020	0.874300	0.390280
O971	O97	0.851020	0.851020	0.446940
O981	O98	0.851020	0.851020	0.851020
O991	O99	0.446940	0.851020	0.851020
O1001	O100	0.851020	0.446940	0.851020
O1011	O101	0.148980	0.148980	0.553060
O1021	O102	0.148980	0.148980	0.148980
O1031	O103	0.148980	0.553060	0.148980
O1041	O104	0.553060	0.148980	0.148980
