data_IZEWAN_clean_PM
_symmetry_space_group_name_H-M	'P1'
_cell_length_a	7.380000
_cell_length_b	28.290000
_cell_length_c	22.470000
_cell_angle_alpha	90.000000
_cell_angle_beta	99.130000
_cell_angle_gamma	90.000000
_symmetry_Int_Tables_number 1

loop_
_symmetry_equiv_pos_as_xyz
'x,y,z'

loop_
_atom_site_label
_atom_site_type_symbol
_atom_site_fract_x
_atom_site_fract_y
_atom_site_fract_z
C11	C1	0.910400	0.087310	0.255400
C21	C2	0.063400	0.120590	0.279800
C31	C3	0.021000	0.162420	0.307000
H11	H1	0.898600	0.169200	0.308500
C41	C4	0.154200	0.194460	0.331900
C51	C5	0.337800	0.183030	0.327800
H21	H2	0.430600	0.203900	0.343500
C61	C6	0.383000	0.141600	0.301000
H31	H3	0.505600	0.135200	0.299200
C71	C7	0.250900	0.109320	0.276900
C81	C8	0.112000	0.239820	0.361200
C91	C9	0.953500	0.265610	0.341800
H41	H4	0.867900	0.253900	0.310400
C101	C10	0.919900	0.308490	0.368100
C111	C11	0.053100	0.326500	0.414600
H51	H5	0.034200	0.355600	0.431800
C121	C12	0.214500	0.300860	0.435400
C131	C13	0.237800	0.257800	0.407600
H61	H6	0.343300	0.240400	0.420900
C141	C14	0.752200	0.336540	0.346400
C151	C15	0.583800	0.313980	0.331700
H71	H7	0.580300	0.281200	0.334000
C161	C16	0.418500	0.338500	0.313400
H81	H8	0.307000	0.322500	0.306300
C171	C17	0.426300	0.387400	0.306200
C181	C18	0.593500	0.411420	0.317500
C191	C19	0.753000	0.385050	0.338100
H91	H9	0.864400	0.401000	0.346600
C201	C20	0.608400	0.462330	0.308700
C211	C21	0.360000	0.320400	0.483000
C221	C22	0.322700	0.349520	0.530200
H101	H10	0.201000	0.356800	0.532300
C231	C23	0.457200	0.367900	0.573400
C241	C24	0.638800	0.356400	0.570900
C251	C25	0.683400	0.326900	0.525100
H111	H11	0.804900	0.319400	0.523100
C261	C26	0.545100	0.309600	0.484100
H121	H12	0.575300	0.289200	0.454700
C271	C27	0.408500	0.399210	0.621800
O11	O1	0.296600	0.068720	0.252720
O21	O2	0.924600	0.057350	0.215360
O31	O3	0.761800	0.091210	0.277410
O41	O4	0.263400	0.410180	0.287700
H131	H13	0.283800	0.437600	0.278800
O51	O5	0.461100	0.485610	0.290700
O61	O6	0.763700	0.481330	0.319580
O71	O7	0.238200	0.408690	0.621300
O81	O8	0.534900	0.415910	0.659900
O91	O9	0.784400	0.373900	0.611500
H141	H14	0.745700	0.392100	0.634900
Zn11	Zn1	0.137300	0.047170	0.174190
Zn21	Zn2	0.554020	0.050870	0.244990
C281	C28	0.089600	0.587310	0.244600
C291	C29	0.936600	0.620590	0.220200
C301	C30	0.979000	0.662420	0.193000
H151	H15	0.101400	0.669200	0.191500
C311	C31	0.845800	0.694460	0.168100
C321	C32	0.662200	0.683030	0.172200
H161	H16	0.569400	0.703900	0.156500
C331	C33	0.617000	0.641600	0.199000
H171	H17	0.494400	0.635200	0.200800
C341	C34	0.749100	0.609320	0.223100
C351	C35	0.888000	0.739820	0.138800
C361	C36	0.046500	0.765610	0.158200
H181	H18	0.132100	0.753900	0.189600
C371	C37	0.080100	0.808490	0.131900
C381	C38	0.946900	0.826500	0.085400
H191	H19	0.965800	0.855600	0.068200
C391	C39	0.785500	0.800860	0.064600
C401	C40	0.762200	0.757800	0.092400
H201	H20	0.656700	0.740400	0.079100
C411	C41	0.247800	0.836540	0.153600
C421	C42	0.416200	0.813980	0.168300
H211	H21	0.419700	0.781200	0.166000
C431	C43	0.581500	0.838500	0.186600
H221	H22	0.693000	0.822500	0.193700
C441	C44	0.573700	0.887400	0.193800
C451	C45	0.406500	0.911420	0.182500
C461	C46	0.247000	0.885050	0.161900
H231	H23	0.135600	0.901000	0.153400
C471	C47	0.391600	0.962330	0.191300
C481	C48	0.640000	0.820400	0.017000
C491	C49	0.677300	0.849520	0.969800
H241	H24	0.799000	0.856800	0.967700
C501	C50	0.542800	0.867900	0.926600
C511	C51	0.361200	0.856400	0.929100
C521	C52	0.316600	0.826900	0.974900
H251	H25	0.195100	0.819400	0.976900
C531	C53	0.454900	0.809600	0.015900
H261	H26	0.424700	0.789200	0.045300
C541	C54	0.591500	0.899210	0.878200
O101	O10	0.703400	0.568720	0.247280
O111	O11	0.075400	0.557350	0.284640
O121	O12	0.238200	0.591210	0.222590
O131	O13	0.736600	0.910180	0.212300
H271	H27	0.716200	0.937600	0.221200
O141	O14	0.538900	0.985610	0.209300
O151	O15	0.236300	0.981330	0.180420
O161	O16	0.761800	0.908690	0.878700
O171	O17	0.465100	0.915910	0.840100
O181	O18	0.215600	0.873900	0.888500
H281	H28	0.254300	0.892100	0.865100
Zn31	Zn3	0.862700	0.547170	0.325810
Zn41	Zn4	0.445980	0.550870	0.255010
C551	C55	0.089600	0.912690	0.744600
C561	C56	0.936600	0.879410	0.720200
C571	C57	0.979000	0.837580	0.693000
H291	H29	0.101400	0.830800	0.691500
C581	C58	0.845800	0.805540	0.668100
C591	C59	0.662200	0.816970	0.672200
H301	H30	0.569400	0.796100	0.656500
C601	C60	0.617000	0.858400	0.699000
H311	H31	0.494400	0.864800	0.700800
C611	C61	0.749100	0.890680	0.723100
C621	C62	0.888000	0.760180	0.638800
C631	C63	0.046500	0.734390	0.658200
H321	H32	0.132100	0.746100	0.689600
C641	C64	0.080100	0.691510	0.631900
C651	C65	0.946900	0.673500	0.585400
H331	H33	0.965800	0.644400	0.568200
C661	C66	0.785500	0.699140	0.564600
C671	C67	0.762200	0.742200	0.592400
H341	H34	0.656700	0.759600	0.579100
C681	C68	0.247800	0.663460	0.653600
C691	C69	0.416200	0.686020	0.668300
H351	H35	0.419700	0.718800	0.666000
C701	C70	0.581500	0.661500	0.686600
H361	H36	0.693000	0.677500	0.693700
C711	C71	0.573700	0.612600	0.693800
C721	C72	0.406500	0.588580	0.682500
C731	C73	0.247000	0.614950	0.661900
H371	H37	0.135600	0.599000	0.653400
C741	C74	0.391600	0.537670	0.691300
C751	C75	0.640000	0.679600	0.517000
C761	C76	0.677300	0.650480	0.469800
H381	H38	0.799000	0.643200	0.467700
C771	C77	0.542800	0.632100	0.426600
C781	C78	0.361200	0.643600	0.429100
C791	C79	0.316600	0.673100	0.474900
H391	H39	0.195100	0.680600	0.476900
C801	C80	0.454900	0.690400	0.515900
H401	H40	0.424700	0.710800	0.545300
C811	C81	0.591500	0.600790	0.378200
O191	O19	0.703400	0.931280	0.747280
O201	O20	0.075400	0.942650	0.784640
O211	O21	0.238200	0.908790	0.722590
O221	O22	0.736600	0.589820	0.712300
H411	H41	0.716200	0.562400	0.721200
O231	O23	0.538900	0.514390	0.709300
O241	O24	0.236300	0.518670	0.680420
O251	O25	0.761800	0.591310	0.378700
O261	O26	0.465100	0.584090	0.340100
O271	O27	0.215600	0.626100	0.388500
H421	H42	0.254300	0.607900	0.365100
Zn51	Zn5	0.862700	0.952830	0.825810
Zn61	Zn6	0.445980	0.949130	0.755010
C821	C82	0.910400	0.412690	0.755400
C831	C83	0.063400	0.379410	0.779800
C841	C84	0.021000	0.337580	0.807000
H431	H43	0.898600	0.330800	0.808500
C851	C85	0.154200	0.305540	0.831900
C861	C86	0.337800	0.316970	0.827800
H441	H44	0.430600	0.296100	0.843500
C871	C87	0.383000	0.358400	0.801000
H451	H45	0.505600	0.364800	0.799200
C881	C88	0.250900	0.390680	0.776900
C891	C89	0.112000	0.260180	0.861200
C901	C90	0.953500	0.234390	0.841800
H461	H46	0.867900	0.246100	0.810400
C911	C91	0.919900	0.191510	0.868100
C921	C92	0.053100	0.173500	0.914600
H471	H47	0.034200	0.144400	0.931800
C931	C93	0.214500	0.199140	0.935400
C941	C94	0.237800	0.242200	0.907600
H481	H48	0.343300	0.259600	0.920900
C951	C95	0.752200	0.163460	0.846400
C961	C96	0.583800	0.186020	0.831700
H491	H49	0.580300	0.218800	0.834000
C971	C97	0.418500	0.161500	0.813400
H501	H50	0.307000	0.177500	0.806300
C981	C98	0.426300	0.112600	0.806200
C991	C99	0.593500	0.088580	0.817500
C1001	C100	0.753000	0.114950	0.838100
H511	H51	0.864400	0.099000	0.846600
C1011	C101	0.608400	0.037670	0.808700
C1021	C102	0.360000	0.179600	0.983000
C1031	C103	0.322700	0.150480	0.030200
H521	H52	0.201000	0.143200	0.032300
C1041	C104	0.457200	0.132100	0.073400
C1051	C105	0.638800	0.143600	0.070900
C1061	C106	0.683400	0.173100	0.025100
H531	H53	0.804900	0.180600	0.023100
C1071	C107	0.545100	0.190400	0.984100
H541	H54	0.575300	0.210800	0.954700
C1081	C108	0.408500	0.100790	0.121800
O281	O28	0.296600	0.431280	0.752720
O291	O29	0.924600	0.442650	0.715360
O301	O30	0.761800	0.408790	0.777410
O311	O31	0.263400	0.089820	0.787700
H551	H55	0.283800	0.062400	0.778800
O321	O32	0.461100	0.014390	0.790700
O331	O33	0.763700	0.018670	0.819580
O341	O34	0.238200	0.091310	0.121300
O351	O35	0.534900	0.084090	0.159900
O361	O36	0.784400	0.126100	0.111500
H561	H56	0.745700	0.107900	0.134900
Zn71	Zn7	0.137300	0.452830	0.674190
Zn81	Zn8	0.554020	0.449130	0.744990
