data_IZIGUV_clean_PM
_symmetry_space_group_name_H-M	'P1'
_cell_length_a	21.038000
_cell_length_b	12.511200
_cell_length_c	53.184000
_cell_angle_alpha	90.000000
_cell_angle_beta	94.509000
_cell_angle_gamma	90.000000
_symmetry_Int_Tables_number 1

loop_
_symmetry_equiv_pos_as_xyz
'x,y,z'

loop_
_atom_site_label
_atom_site_type_symbol
_atom_site_fract_x
_atom_site_fract_y
_atom_site_fract_z
In11	In1	0.870530	0.373250	0.802280
In21	In2	0.388810	0.686700	0.553660
O11	O1	0.944700	0.326300	0.776540
O21	O2	0.816600	0.226800	0.784240
O31	O3	0.795200	0.137400	0.329540
O41	O4	0.927800	0.496700	0.781060
O51	O5	0.822900	0.978000	0.318580
O61	O6	0.941300	0.100400	0.334790
O71	O7	0.799000	0.384500	0.767910
O81	O8	0.916400	0.265500	0.326990
O91	O9	0.636600	0.712600	0.402970
O101	O10	0.177600	0.337800	0.691300
O111	O11	0.613100	0.241200	0.658100
O121	O12	0.132600	0.166000	0.446000
N11	N1	0.472100	0.776000	0.548880
N21	N2	0.393800	0.621800	0.517160
N31	N3	0.319500	0.568400	0.560500
N41	N4	0.398200	0.720800	0.593010
N51	N5	0.648700	0.097500	0.683100
H11	H1	0.646800	0.029100	0.684100
N61	N6	0.655200	0.885300	0.413100
H21	H2	0.653500	0.931900	0.425000
N71	N7	0.145300	0.500700	0.702200
H31	H3	0.154700	0.567300	0.700800
N81	N8	0.100200	0.323200	0.427900
H41	H4	0.125900	0.369300	0.422300
C11	C1	0.954100	0.421400	0.771740
C21	C2	0.599000	0.783000	0.442000
C31	C3	0.440400	0.787000	0.604230
C41	C4	0.686000	0.913500	0.391200
C51	C5	0.789800	0.285500	0.766590
C61	C6	0.232000	0.276000	0.475100
H51	H5	0.245800	0.209800	0.469900
C71	C7	0.792100	0.038100	0.331590
C81	C8	0.292300	0.550300	0.583200
C91	C9	0.438800	0.651600	0.500300
C101	C10	0.097000	0.478600	0.719300
C111	C11	0.486200	0.725900	0.504800
C121	C12	0.503100	0.836000	0.567110
C131	C13	0.628800	0.787500	0.416400
C141	C14	0.946800	0.197500	0.340900
C151	C15	0.435300	0.782500	0.631230
H61	H6	0.459900	0.819900	0.643600
C161	C16	0.350000	0.554700	0.505900
C171	C17	0.036000	0.356500	0.742500
H71	H7	0.023200	0.287000	0.745700
C181	C18	0.281300	0.557800	0.628700
C191	C19	0.556600	0.889400	0.556600
H81	H8	0.585000	0.937600	0.564600
C201	C20	0.241600	0.623200	0.640700
H91	H9	0.236500	0.693600	0.635300
C211	C21	0.556000	0.853300	0.532200
H101	H10	0.585100	0.871400	0.520600
C221	C22	0.559300	0.661500	0.472200
H111	H11	0.558900	0.593800	0.479400
C231	C23	0.719500	0.059600	0.365600
H121	H12	0.719200	0.132200	0.361900
C241	C24	0.068800	0.563700	0.730400
H131	H13	0.080100	0.633600	0.726700
C251	C25	0.289500	0.457200	0.637500
H141	H14	0.317600	0.412000	0.630000
C261	C26	0.257400	0.419800	0.657200
H151	H15	0.264500	0.350000	0.662800
C271	C27	0.023000	0.542600	0.747200
H161	H16	0.002200	0.599800	0.754100
C281	C28	0.284500	0.512600	0.542000
C291	C29	0.527200	0.921900	0.609420
C301	C30	0.299100	0.503600	0.516200
C311	C31	0.208400	0.588200	0.660800
H171	H17	0.181900	0.634600	0.668800
C321	C32	0.742700	0.128900	0.743300
H181	H18	0.761000	0.083500	0.755700
C331	C33	0.215500	0.482700	0.668800
C341	C34	0.369300	0.540800	0.479200
H191	H19	0.348800	0.497500	0.466900
C351	C35	0.178300	0.435000	0.689100
C361	C36	0.239200	0.480100	0.578000
H201	H20	0.213000	0.453400	0.589800
C371	C37	0.084300	0.374000	0.726200
H211	H21	0.107100	0.317100	0.720200
C381	C38	0.418700	0.598500	0.476500
H221	H22	0.438700	0.605500	0.461600
C391	C39	0.007200	0.441500	0.753900
C401	C40	0.986900	0.227500	0.363400
C411	C41	0.750700	0.239500	0.745800
C421	C42	0.680100	0.151300	0.704000
C431	C43	0.753000	0.886800	0.357100
H231	H23	0.775800	0.839700	0.347700
C441	C44	0.707700	0.086400	0.722300
H241	H24	0.703000	0.012700	0.720800
C451	C45	0.754300	0.991000	0.351300
C461	C46	0.591300	0.063000	0.643500
C471	C47	0.719200	0.844100	0.376800
H251	H25	0.719300	0.771000	0.380000
C481	C48	0.233300	0.459300	0.553300
H261	H26	0.201600	0.417800	0.544900
C491	C49	0.685500	0.024000	0.385200
H271	H27	0.662500	0.071800	0.394300
C501	C50	0.254200	0.440400	0.499100
C511	C51	0.719600	0.302700	0.727500
H281	H28	0.722400	0.376600	0.729100
C521	C52	0.591600	0.679300	0.451500
H291	H29	0.609100	0.621800	0.443400
C531	C53	0.619200	0.144600	0.661900
C541	C54	0.565600	0.862100	0.451400
H301	H30	0.565200	0.928800	0.443700
C551	C55	0.022200	0.155100	0.376700
H311	H31	0.022300	0.084900	0.371000
C561	C56	0.531000	0.847100	0.472650
H321	H32	0.511300	0.904700	0.479900
C571	C57	0.580500	0.894700	0.623000
H331	H33	0.596500	0.826100	0.621200
C581	C58	0.526700	0.746100	0.482550
C591	C59	0.136600	0.263000	0.444600
C601	C60	0.502600	0.783000	0.527700
C611	C61	0.489100	0.843700	0.592600
C621	C62	0.684300	0.260000	0.706600
H341	H34	0.663900	0.304800	0.694500
C631	C63	0.387400	0.712300	0.634840
H351	H35	0.372500	0.693900	0.650300
C641	C64	0.613600	0.964300	0.640000
H361	H36	0.651200	0.942000	0.648800
C651	C65	0.314000	0.596800	0.606370
C661	C66	0.162600	0.429000	0.471400
H371	H37	0.126500	0.462800	0.464000
C671	C67	0.364300	0.672600	0.610970
C681	C68	0.503700	0.025500	0.612800
H381	H38	0.467400	0.047100	0.603000
C691	C69	0.990700	0.333900	0.370400
H391	H39	0.968200	0.386700	0.361200
C701	C70	0.058900	0.180400	0.398900
H401	H40	0.081300	0.127500	0.408100
C711	C71	0.532000	0.096100	0.629900
H411	H41	0.513900	0.162400	0.632800
C721	C72	0.061300	0.285200	0.407000
C731	C73	0.265000	0.337300	0.494100
H421	H42	0.297100	0.303200	0.504100
C741	C74	0.174300	0.327600	0.464500
C751	C75	0.200500	0.483000	0.488300
H431	H43	0.189000	0.551400	0.492800
C761	C76	0.031100	0.358400	0.392500
H441	H44	0.036500	0.429800	0.397000
C771	C77	0.848700	0.379200	0.795200
In31	In3	0.870530	0.126750	0.302280
In41	In4	0.388810	0.813300	0.053660
O131	O13	0.944700	0.173700	0.276540
O141	O14	0.816600	0.273200	0.284240
O151	O15	0.795200	0.362600	0.829540
O161	O16	0.927800	0.003300	0.281060
O171	O17	0.822900	0.522000	0.818580
O181	O18	0.941300	0.399600	0.834790
O191	O19	0.799000	0.115500	0.267910
O201	O20	0.916400	0.234500	0.826990
O211	O21	0.636600	0.787400	0.902970
O221	O22	0.177600	0.162200	0.191300
O231	O23	0.613100	0.258800	0.158100
O241	O24	0.132600	0.334000	0.946000
N91	N9	0.472100	0.724000	0.048880
N101	N10	0.393800	0.878200	0.017160
N111	N11	0.319500	0.931600	0.060500
N121	N12	0.398200	0.779200	0.093010
N131	N13	0.648700	0.402500	0.183100
H451	H45	0.646800	0.470900	0.184100
N141	N14	0.655200	0.614700	0.913100
H461	H46	0.653500	0.568100	0.925000
N151	N15	0.145300	0.999300	0.202200
H471	H47	0.154700	0.932700	0.200800
N161	N16	0.100200	0.176800	0.927900
H481	H48	0.125900	0.130700	0.922300
C781	C78	0.954100	0.078600	0.271740
C791	C79	0.599000	0.717000	0.942000
C801	C80	0.440400	0.713000	0.104230
C811	C81	0.686000	0.586500	0.891200
C821	C82	0.789800	0.214500	0.266590
C831	C83	0.232000	0.224000	0.975100
H491	H49	0.245800	0.290200	0.969900
C841	C84	0.792100	0.461900	0.831590
C851	C85	0.292300	0.949700	0.083200
C861	C86	0.438800	0.848400	0.000300
C871	C87	0.097000	0.021400	0.219300
C881	C88	0.486200	0.774100	0.004800
C891	C89	0.503100	0.664000	0.067110
C901	C90	0.628800	0.712500	0.916400
C911	C91	0.946800	0.302500	0.840900
C921	C92	0.435300	0.717500	0.131230
H501	H50	0.459900	0.680100	0.143600
C931	C93	0.350000	0.945300	0.005900
C941	C94	0.036000	0.143500	0.242500
H511	H51	0.023200	0.213000	0.245700
C951	C95	0.281300	0.942200	0.128700
C961	C96	0.556600	0.610600	0.056600
H521	H52	0.585000	0.562400	0.064600
C971	C97	0.241600	0.876800	0.140700
H531	H53	0.236500	0.806400	0.135300
C981	C98	0.556000	0.646700	0.032200
H541	H54	0.585100	0.628600	0.020600
C991	C99	0.559300	0.838500	0.972200
H551	H55	0.558900	0.906200	0.979400
C1001	C100	0.719500	0.440400	0.865600
H561	H56	0.719200	0.367800	0.861900
C1011	C101	0.068800	0.936300	0.230400
H571	H57	0.080100	0.866400	0.226700
C1021	C102	0.289500	0.042800	0.137500
H581	H58	0.317600	0.088000	0.130000
C1031	C103	0.257400	0.080200	0.157200
H591	H59	0.264500	0.150000	0.162800
C1041	C104	0.023000	0.957400	0.247200
H601	H60	0.002200	0.900200	0.254100
C1051	C105	0.284500	0.987400	0.042000
C1061	C106	0.527200	0.578100	0.109420
C1071	C107	0.299100	0.996400	0.016200
C1081	C108	0.208400	0.911800	0.160800
H611	H61	0.181900	0.865400	0.168800
C1091	C109	0.742700	0.371100	0.243300
H621	H62	0.761000	0.416500	0.255700
C1101	C110	0.215500	0.017300	0.168800
C1111	C111	0.369300	0.959200	0.979200
H631	H63	0.348800	0.002500	0.966900
C1121	C112	0.178300	0.065000	0.189100
C1131	C113	0.239200	0.019900	0.078000
H641	H64	0.213000	0.046600	0.089800
C1141	C114	0.084300	0.126000	0.226200
H651	H65	0.107100	0.182900	0.220200
C1151	C115	0.418700	0.901500	0.976500
H661	H66	0.438700	0.894500	0.961600
C1161	C116	0.007200	0.058500	0.253900
C1171	C117	0.986900	0.272500	0.863400
C1181	C118	0.750700	0.260500	0.245800
C1191	C119	0.680100	0.348700	0.204000
C1201	C120	0.753000	0.613200	0.857100
H671	H67	0.775800	0.660300	0.847700
C1211	C121	0.707700	0.413600	0.222300
H681	H68	0.703000	0.487300	0.220800
C1221	C122	0.754300	0.509000	0.851300
C1231	C123	0.591300	0.437000	0.143500
C1241	C124	0.719200	0.655900	0.876800
H691	H69	0.719300	0.729000	0.880000
C1251	C125	0.233300	0.040700	0.053300
H701	H70	0.201600	0.082200	0.044900
C1261	C126	0.685500	0.476000	0.885200
H711	H71	0.662500	0.428200	0.894300
C1271	C127	0.254200	0.059600	0.999100
C1281	C128	0.719600	0.197300	0.227500
H721	H72	0.722400	0.123400	0.229100
C1291	C129	0.591600	0.820700	0.951500
H731	H73	0.609100	0.878200	0.943400
C1301	C130	0.619200	0.355400	0.161900
C1311	C131	0.565600	0.637900	0.951400
H741	H74	0.565200	0.571200	0.943700
C1321	C132	0.022200	0.344900	0.876700
H751	H75	0.022300	0.415100	0.871000
C1331	C133	0.531000	0.652900	0.972650
H761	H76	0.511300	0.595300	0.979900
C1341	C134	0.580500	0.605300	0.123000
H771	H77	0.596500	0.673900	0.121200
C1351	C135	0.526700	0.753900	0.982550
C1361	C136	0.136600	0.237000	0.944600
C1371	C137	0.502600	0.717000	0.027700
C1381	C138	0.489100	0.656300	0.092600
C1391	C139	0.684300	0.240000	0.206600
H781	H78	0.663900	0.195200	0.194500
C1401	C140	0.387400	0.787700	0.134840
H791	H79	0.372500	0.806100	0.150300
C1411	C141	0.613600	0.535700	0.140000
H801	H80	0.651200	0.558000	0.148800
C1421	C142	0.314000	0.903200	0.106370
C1431	C143	0.162600	0.071000	0.971400
H811	H81	0.126500	0.037200	0.964000
C1441	C144	0.364300	0.827400	0.110970
C1451	C145	0.503700	0.474500	0.112800
H821	H82	0.467400	0.452900	0.103000
C1461	C146	0.990700	0.166100	0.870400
H831	H83	0.968200	0.113300	0.861200
C1471	C147	0.058900	0.319600	0.898900
H841	H84	0.081300	0.372500	0.908100
C1481	C148	0.532000	0.403900	0.129900
H851	H85	0.513900	0.337600	0.132800
C1491	C149	0.061300	0.214800	0.907000
C1501	C150	0.265000	0.162700	0.994100
H861	H86	0.297100	0.196800	0.004100
C1511	C151	0.174300	0.172400	0.964500
C1521	C152	0.200500	0.017000	0.988300
H871	H87	0.189000	0.948600	0.992800
C1531	C153	0.031100	0.141600	0.892500
H881	H88	0.036500	0.070200	0.897000
C1541	C154	0.848700	0.120800	0.295200
In51	In5	0.129470	0.873250	0.697720
In61	In6	0.611190	0.186700	0.946340
O251	O25	0.055300	0.826300	0.723460
O261	O26	0.183400	0.726800	0.715760
O271	O27	0.204800	0.637400	0.170460
O281	O28	0.072200	0.996700	0.718940
O291	O29	0.177100	0.478000	0.181420
O301	O30	0.058700	0.600400	0.165210
O311	O31	0.201000	0.884500	0.732090
O321	O32	0.083600	0.765500	0.173010
O331	O33	0.363400	0.212600	0.097030
O341	O34	0.822400	0.837800	0.808700
O351	O35	0.386900	0.741200	0.841900
O361	O36	0.867400	0.666000	0.054000
N171	N17	0.527900	0.276000	0.951120
N181	N18	0.606200	0.121800	0.982840
N191	N19	0.680500	0.068400	0.939500
N201	N20	0.601800	0.220800	0.906990
N211	N21	0.351300	0.597500	0.816900
H891	H89	0.353200	0.529100	0.815900
N221	N22	0.344800	0.385300	0.086900
H901	H90	0.346500	0.431900	0.075000
N231	N23	0.854700	0.000700	0.797800
H911	H91	0.845300	0.067300	0.799200
N241	N24	0.899800	0.823200	0.072100
H921	H92	0.874100	0.869300	0.077700
C1551	C155	0.045900	0.921400	0.728260
C1561	C156	0.401000	0.283000	0.058000
C1571	C157	0.559600	0.287000	0.895770
C1581	C158	0.314000	0.413500	0.108800
C1591	C159	0.210200	0.785500	0.733410
C1601	C160	0.768000	0.776000	0.024900
H931	H93	0.754200	0.709800	0.030100
C1611	C161	0.207900	0.538100	0.168410
C1621	C162	0.707700	0.050300	0.916800
C1631	C163	0.561200	0.151600	0.999700
C1641	C164	0.903000	0.978600	0.780700
C1651	C165	0.513800	0.225900	0.995200
C1661	C166	0.496900	0.336000	0.932890
C1671	C167	0.371200	0.287500	0.083600
C1681	C168	0.053200	0.697500	0.159100
C1691	C169	0.564700	0.282500	0.868770
H941	H94	0.540100	0.319900	0.856400
C1701	C170	0.650000	0.054700	0.994100
C1711	C171	0.964000	0.856500	0.757500
H951	H95	0.976800	0.787000	0.754300
C1721	C172	0.718700	0.057800	0.871300
C1731	C173	0.443400	0.389400	0.943400
H961	H96	0.415000	0.437600	0.935400
C1741	C174	0.758400	0.123200	0.859300
H971	H97	0.763500	0.193600	0.864700
C1751	C175	0.444000	0.353300	0.967800
H981	H98	0.414900	0.371400	0.979400
C1761	C176	0.440700	0.161500	0.027800
H991	H99	0.441100	0.093800	0.020600
C1771	C177	0.280500	0.559600	0.134400
H1001	H100	0.280800	0.632200	0.138100
C1781	C178	0.931200	0.063700	0.769600
H1011	H101	0.919900	0.133600	0.773300
C1791	C179	0.710500	0.957200	0.862500
H1021	H102	0.682400	0.912000	0.870000
C1801	C180	0.742600	0.919800	0.842800
H1031	H103	0.735500	0.850000	0.837200
C1811	C181	0.977000	0.042600	0.752800
H1041	H104	0.997800	0.099800	0.745900
C1821	C182	0.715500	0.012600	0.958000
C1831	C183	0.472800	0.421900	0.890580
C1841	C184	0.700900	0.003600	0.983800
C1851	C185	0.791600	0.088200	0.839200
H1051	H105	0.818100	0.134600	0.831200
C1861	C186	0.257300	0.628900	0.756700
H1061	H106	0.239000	0.583500	0.744300
C1871	C187	0.784500	0.982700	0.831200
C1881	C188	0.630700	0.040800	0.020800
H1071	H107	0.651200	0.997500	0.033100
C1891	C189	0.821700	0.935000	0.810900
C1901	C190	0.760800	0.980100	0.922000
H1081	H108	0.787000	0.953400	0.910200
C1911	C191	0.915700	0.874000	0.773800
H1091	H109	0.892900	0.817100	0.779800
C1921	C192	0.581300	0.098500	0.023500
H1101	H110	0.561300	0.105500	0.038400
C1931	C193	0.992800	0.941500	0.746100
C1941	C194	0.013100	0.727500	0.136600
C1951	C195	0.249300	0.739500	0.754200
C1961	C196	0.319900	0.651300	0.796000
C1971	C197	0.247000	0.386800	0.142900
H1111	H111	0.224200	0.339700	0.152300
C1981	C198	0.292300	0.586400	0.777700
H1121	H112	0.297000	0.512700	0.779200
C1991	C199	0.245700	0.491000	0.148700
C2001	C200	0.408700	0.563000	0.856500
C2011	C201	0.280800	0.344100	0.123200
H1131	H113	0.280700	0.271000	0.120000
C2021	C202	0.766700	0.959300	0.946700
H1141	H114	0.798400	0.917800	0.955100
C2031	C203	0.314500	0.524000	0.114800
H1151	H115	0.337500	0.571800	0.105700
C2041	C204	0.745800	0.940400	0.000900
C2051	C205	0.280400	0.802700	0.772500
H1161	H116	0.277600	0.876600	0.770900
C2061	C206	0.408400	0.179300	0.048500
H1171	H117	0.390900	0.121800	0.056600
C2071	C207	0.380800	0.644600	0.838100
C2081	C208	0.434400	0.362100	0.048600
H1181	H118	0.434800	0.428800	0.056300
C2091	C209	0.977800	0.655100	0.123300
H1191	H119	0.977700	0.584900	0.129000
C2101	C210	0.469000	0.347100	0.027350
H1201	H120	0.488700	0.404700	0.020100
C2111	C211	0.419500	0.394700	0.877000
H1211	H121	0.403500	0.326100	0.878800
C2121	C212	0.473300	0.246100	0.017450
C2131	C213	0.863400	0.763000	0.055400
C2141	C214	0.497400	0.283000	0.972300
C2151	C215	0.510900	0.343700	0.907400
C2161	C216	0.315700	0.760000	0.793400
H1221	H122	0.336100	0.804800	0.805500
C2171	C217	0.612600	0.212300	0.865160
H1231	H123	0.627500	0.193900	0.849700
C2181	C218	0.386400	0.464300	0.860000
H1241	H124	0.348800	0.442000	0.851200
C2191	C219	0.686000	0.096800	0.893630
C2201	C220	0.837400	0.929000	0.028600
H1251	H125	0.873500	0.962800	0.036000
C2211	C221	0.635700	0.172600	0.889030
C2221	C222	0.496300	0.525500	0.887200
H1261	H126	0.532600	0.547100	0.897000
C2231	C223	0.009300	0.833900	0.129600
H1271	H127	0.031800	0.886700	0.138800
C2241	C224	0.941100	0.680400	0.101100
H1281	H128	0.918700	0.627500	0.091900
C2251	C225	0.468000	0.596100	0.870100
H1291	H129	0.486100	0.662400	0.867200
C2261	C226	0.938700	0.785200	0.093000
C2271	C227	0.735000	0.837300	0.005900
H1301	H130	0.702900	0.803200	0.995900
C2281	C228	0.825700	0.827600	0.035500
C2291	C229	0.799500	0.983000	0.011700
H1311	H131	0.811000	0.051400	0.007200
C2301	C230	0.968900	0.858400	0.107500
H1321	H132	0.963500	0.929800	0.103000
C2311	C231	0.151300	0.879200	0.704800
In71	In7	0.129470	0.626750	0.197720
In81	In8	0.611190	0.313300	0.446340
O371	O37	0.055300	0.673700	0.223460
O381	O38	0.183400	0.773200	0.215760
O391	O39	0.204800	0.862600	0.670460
O401	O40	0.072200	0.503300	0.218940
O411	O41	0.177100	0.022000	0.681420
O421	O42	0.058700	0.899600	0.665210
O431	O43	0.201000	0.615500	0.232090
O441	O44	0.083600	0.734500	0.673010
O451	O45	0.363400	0.287400	0.597030
O461	O46	0.822400	0.662200	0.308700
O471	O47	0.386900	0.758800	0.341900
O481	O48	0.867400	0.834000	0.554000
N251	N25	0.527900	0.224000	0.451120
N261	N26	0.606200	0.378200	0.482840
N271	N27	0.680500	0.431600	0.439500
N281	N28	0.601800	0.279200	0.406990
N291	N29	0.351300	0.902500	0.316900
H1331	H133	0.353200	0.970900	0.315900
N301	N30	0.344800	0.114700	0.586900
H1341	H134	0.346500	0.068100	0.575000
N311	N31	0.854700	0.499300	0.297800
H1351	H135	0.845300	0.432700	0.299200
N321	N32	0.899800	0.676800	0.572100
H1361	H136	0.874100	0.630700	0.577700
C2321	C232	0.045900	0.578600	0.228260
C2331	C233	0.401000	0.217000	0.558000
C2341	C234	0.559600	0.213000	0.395770
C2351	C235	0.314000	0.086500	0.608800
C2361	C236	0.210200	0.714500	0.233410
C2371	C237	0.768000	0.724000	0.524900
H1371	H137	0.754200	0.790200	0.530100
C2381	C238	0.207900	0.961900	0.668410
C2391	C239	0.707700	0.449700	0.416800
C2401	C240	0.561200	0.348400	0.499700
C2411	C241	0.903000	0.521400	0.280700
C2421	C242	0.513800	0.274100	0.495200
C2431	C243	0.496900	0.164000	0.432890
C2441	C244	0.371200	0.212500	0.583600
C2451	C245	0.053200	0.802500	0.659100
C2461	C246	0.564700	0.217500	0.368770
H1381	H138	0.540100	0.180100	0.356400
C2471	C247	0.650000	0.445300	0.494100
C2481	C248	0.964000	0.643500	0.257500
H1391	H139	0.976800	0.713000	0.254300
C2491	C249	0.718700	0.442200	0.371300
C2501	C250	0.443400	0.110600	0.443400
H1401	H140	0.415000	0.062400	0.435400
C2511	C251	0.758400	0.376800	0.359300
H1411	H141	0.763500	0.306400	0.364700
C2521	C252	0.444000	0.146700	0.467800
H1421	H142	0.414900	0.128600	0.479400
C2531	C253	0.440700	0.338500	0.527800
H1431	H143	0.441100	0.406200	0.520600
C2541	C254	0.280500	0.940400	0.634400
H1441	H144	0.280800	0.867800	0.638100
C2551	C255	0.931200	0.436300	0.269600
H1451	H145	0.919900	0.366400	0.273300
C2561	C256	0.710500	0.542800	0.362500
H1461	H146	0.682400	0.588000	0.370000
C2571	C257	0.742600	0.580200	0.342800
H1471	H147	0.735500	0.650000	0.337200
C2581	C258	0.977000	0.457400	0.252800
H1481	H148	0.997800	0.400200	0.245900
C2591	C259	0.715500	0.487400	0.458000
C2601	C260	0.472800	0.078100	0.390580
C2611	C261	0.700900	0.496400	0.483800
C2621	C262	0.791600	0.411800	0.339200
H1491	H149	0.818100	0.365400	0.331200
C2631	C263	0.257300	0.871100	0.256700
H1501	H150	0.239000	0.916500	0.244300
C2641	C264	0.784500	0.517300	0.331200
C2651	C265	0.630700	0.459200	0.520800
H1511	H151	0.651200	0.502500	0.533100
C2661	C266	0.821700	0.565000	0.310900
C2671	C267	0.760800	0.519900	0.422000
H1521	H152	0.787000	0.546600	0.410200
C2681	C268	0.915700	0.626000	0.273800
H1531	H153	0.892900	0.682900	0.279800
C2691	C269	0.581300	0.401500	0.523500
H1541	H154	0.561300	0.394500	0.538400
C2701	C270	0.992800	0.558500	0.246100
C2711	C271	0.013100	0.772500	0.636600
C2721	C272	0.249300	0.760500	0.254200
C2731	C273	0.319900	0.848700	0.296000
C2741	C274	0.247000	0.113200	0.642900
H1551	H155	0.224200	0.160300	0.652300
C2751	C275	0.292300	0.913600	0.277700
H1561	H156	0.297000	0.987300	0.279200
C2761	C276	0.245700	0.009000	0.648700
C2771	C277	0.408700	0.937000	0.356500
C2781	C278	0.280800	0.155900	0.623200
H1571	H157	0.280700	0.229000	0.620000
C2791	C279	0.766700	0.540700	0.446700
H1581	H158	0.798400	0.582200	0.455100
C2801	C280	0.314500	0.976000	0.614800
H1591	H159	0.337500	0.928200	0.605700
C2811	C281	0.745800	0.559600	0.500900
C2821	C282	0.280400	0.697300	0.272500
H1601	H160	0.277600	0.623400	0.270900
C2831	C283	0.408400	0.320700	0.548500
H1611	H161	0.390900	0.378200	0.556600
C2841	C284	0.380800	0.855400	0.338100
C2851	C285	0.434400	0.137900	0.548600
H1621	H162	0.434800	0.071200	0.556300
C2861	C286	0.977800	0.844900	0.623300
H1631	H163	0.977700	0.915100	0.629000
C2871	C287	0.469000	0.152900	0.527350
H1641	H164	0.488700	0.095300	0.520100
C2881	C288	0.419500	0.105300	0.377000
H1651	H165	0.403500	0.173900	0.378800
C2891	C289	0.473300	0.253900	0.517450
C2901	C290	0.863400	0.737000	0.555400
C2911	C291	0.497400	0.217000	0.472300
C2921	C292	0.510900	0.156300	0.407400
C2931	C293	0.315700	0.740000	0.293400
H1661	H166	0.336100	0.695200	0.305500
C2941	C294	0.612600	0.287700	0.365160
H1671	H167	0.627500	0.306100	0.349700
C2951	C295	0.386400	0.035700	0.360000
H1681	H168	0.348800	0.058000	0.351200
C2961	C296	0.686000	0.403200	0.393630
C2971	C297	0.837400	0.571000	0.528600
H1691	H169	0.873500	0.537200	0.536000
C2981	C298	0.635700	0.327400	0.389030
C2991	C299	0.496300	0.974500	0.387200
H1701	H170	0.532600	0.952900	0.397000
C3001	C300	0.009300	0.666100	0.629600
H1711	H171	0.031800	0.613300	0.638800
C3011	C301	0.941100	0.819600	0.601100
H1721	H172	0.918700	0.872500	0.591900
C3021	C302	0.468000	0.903900	0.370100
H1731	H173	0.486100	0.837600	0.367200
C3031	C303	0.938700	0.714800	0.593000
C3041	C304	0.735000	0.662700	0.505900
H1741	H174	0.702900	0.696800	0.495900
C3051	C305	0.825700	0.672400	0.535500
C3061	C306	0.799500	0.517000	0.511700
H1751	H175	0.811000	0.448600	0.507200
C3071	C307	0.968900	0.641600	0.607500
H1761	H176	0.963500	0.570200	0.603000
C3081	C308	0.151300	0.620800	0.204800
