data_IZOWEA_clean_PM
_symmetry_space_group_name_H-M	'P1'
_cell_length_a	16.214000
_cell_length_b	24.156000
_cell_length_c	24.992000
_cell_angle_alpha	90.000000
_cell_angle_beta	90.000000
_cell_angle_gamma	90.000000
_symmetry_Int_Tables_number 1

loop_
_symmetry_equiv_pos_as_xyz
'x,y,z'

loop_
_atom_site_label
_atom_site_type_symbol
_atom_site_fract_x
_atom_site_fract_y
_atom_site_fract_z
Zn11	Zn1	0.821110	0.771280	0.511900
Zn21	Zn2	0.821110	0.228720	0.488100
Zn31	Zn3	0.678890	0.728720	0.011900
Zn41	Zn4	0.678890	0.271280	0.988100
Zn51	Zn5	0.178890	0.228720	0.488100
Zn61	Zn6	0.178890	0.771280	0.511900
Zn71	Zn7	0.321110	0.271280	0.988100
Zn81	Zn8	0.321110	0.728720	0.011900
Zn91	Zn9	0.000000	0.021080	0.572030
Zn101	Zn10	0.000000	0.978920	0.427970
Zn111	Zn11	0.500000	0.478920	0.072030
Zn121	Zn12	0.500000	0.521080	0.927970
Zn131	Zn13	0.500000	0.719330	0.792400
Zn141	Zn14	0.500000	0.280670	0.207600
Zn151	Zn15	0.000000	0.780670	0.292400
Zn161	Zn16	0.000000	0.219330	0.707600
Mo11	Mo1	0.108030	0.908420	0.537990
Mo21	Mo2	0.190710	0.907620	0.447870
Mo31	Mo3	0.098520	0.093990	0.675980
Mo41	Mo4	0.812250	0.785120	0.365920
Mo51	Mo5	0.890810	0.696630	0.396910
Mo61	Mo6	0.108030	0.091580	0.462010
Mo71	Mo7	0.190710	0.092380	0.552130
Mo81	Mo8	0.098520	0.906010	0.324020
Mo91	Mo9	0.812250	0.214880	0.634080
Mo101	Mo10	0.890810	0.303370	0.603090
Mo111	Mo11	0.391970	0.591580	0.037990
Mo121	Mo12	0.309290	0.592380	0.947870
Mo131	Mo13	0.401480	0.406010	0.175980
Mo141	Mo14	0.687750	0.714880	0.865920
Mo151	Mo15	0.609190	0.803370	0.896910
Mo161	Mo16	0.391970	0.408420	0.962010
Mo171	Mo17	0.309290	0.407620	0.052130
Mo181	Mo18	0.401480	0.593990	0.824020
Mo191	Mo19	0.687750	0.285120	0.134080
Mo201	Mo20	0.609190	0.196630	0.103090
Mo211	Mo21	0.891970	0.091580	0.462010
Mo221	Mo22	0.809290	0.092380	0.552130
Mo231	Mo23	0.901480	0.906010	0.324020
Mo241	Mo24	0.187750	0.214880	0.634080
Mo251	Mo25	0.109190	0.303370	0.603090
Mo261	Mo26	0.891970	0.908420	0.537990
Mo271	Mo27	0.809290	0.907620	0.447870
Mo281	Mo28	0.901480	0.093990	0.675980
Mo291	Mo29	0.187750	0.785120	0.365920
Mo301	Mo30	0.109190	0.696630	0.396910
Mo311	Mo31	0.608030	0.408420	0.962010
Mo321	Mo32	0.690710	0.407620	0.052130
Mo331	Mo33	0.598520	0.593990	0.824020
Mo341	Mo34	0.312250	0.285120	0.134080
Mo351	Mo35	0.390810	0.196630	0.103090
Mo361	Mo36	0.608030	0.591580	0.037990
Mo371	Mo37	0.690710	0.592380	0.947870
Mo381	Mo38	0.598520	0.406010	0.175980
Mo391	Mo39	0.312250	0.714880	0.865920
Mo401	Mo40	0.390810	0.803370	0.896910
Mo411	Mo41	0.000000	0.796920	0.585870
Mo421	Mo42	0.000000	0.687980	0.514110
Mo431	Mo43	0.000000	0.203080	0.414130
Mo441	Mo44	0.000000	0.312020	0.485890
Mo451	Mo45	0.500000	0.703080	0.085870
Mo461	Mo46	0.500000	0.812020	0.014110
Mo471	Mo47	0.500000	0.296920	0.914130
Mo481	Mo48	0.500000	0.187980	0.985890
P11	P1	0.000000	0.822640	0.436920
P21	P2	0.000000	0.177360	0.563080
P31	P3	0.500000	0.677360	0.936920
P41	P4	0.500000	0.322640	0.063080
H11	H1	0.624600	0.741300	0.622500
H21	H2	0.624600	0.258700	0.377500
H31	H3	0.875400	0.758700	0.122500
H41	H4	0.875400	0.241300	0.877500
H51	H5	0.375400	0.258700	0.377500
H61	H6	0.375400	0.741300	0.622500
H71	H7	0.124600	0.241300	0.877500
H81	H8	0.124600	0.758700	0.122500
H91	H9	0.500000	0.773000	0.489200
H101	H10	0.500000	0.227000	0.510800
H111	H11	0.000000	0.727000	0.989200
H121	H12	0.000000	0.273000	0.010800
C11	C1	0.575300	0.747900	0.604700
C21	C2	0.576200	0.759500	0.551300
C31	C3	0.652200	0.768400	0.522100
C41	C4	0.575300	0.252100	0.395300
C51	C5	0.576200	0.240500	0.448700
C61	C6	0.652200	0.231600	0.477900
C71	C7	0.924700	0.752100	0.104700
C81	C8	0.923800	0.740500	0.051300
C91	C9	0.847800	0.731600	0.022100
C101	C10	0.924700	0.247900	0.895300
C111	C11	0.923800	0.259500	0.948700
C121	C12	0.847800	0.268400	0.977900
C131	C13	0.424700	0.252100	0.395300
C141	C14	0.423800	0.240500	0.448700
C151	C15	0.347800	0.231600	0.477900
C161	C16	0.424700	0.747900	0.604700
C171	C17	0.423800	0.759500	0.551300
C181	C18	0.347800	0.768400	0.522100
C191	C19	0.075300	0.247900	0.895300
C201	C20	0.076200	0.259500	0.948700
C211	C21	0.152200	0.268400	0.977900
C221	C22	0.075300	0.752100	0.104700
C231	C23	0.076200	0.740500	0.051300
C241	C24	0.152200	0.731600	0.022100
C251	C25	0.500000	0.765100	0.525600
C261	C26	0.500000	0.745800	0.633100
C271	C27	0.500000	0.734000	0.693700
C281	C28	0.500000	0.234900	0.474400
C291	C29	0.500000	0.254200	0.366900
C301	C30	0.500000	0.266000	0.306300
C311	C31	0.000000	0.734900	0.025600
C321	C32	0.000000	0.754200	0.133100
C331	C33	0.000000	0.766000	0.193700
C341	C34	0.000000	0.265100	0.974400
C351	C35	0.000000	0.245800	0.866900
C361	C36	0.000000	0.234000	0.806300
O11	O1	0.092200	0.947100	0.469700
O21	O2	0.717600	0.752600	0.545700
O31	O3	0.181500	0.852600	0.504100
O41	O4	0.924800	0.746700	0.544200
O51	O5	0.818100	0.749300	0.435900
O61	O6	0.078200	0.842600	0.408500
O71	O7	0.908500	0.748900	0.335500
O81	O8	0.083500	0.846500	0.590000
O91	O9	0.165000	0.936000	0.375900
O101	O10	0.257200	0.844100	0.408400
O111	O11	0.838500	0.845100	0.312600
O121	O12	0.085400	0.667800	0.470100
O131	O13	0.652800	0.790000	0.476600
O141	O14	0.436500	0.731700	0.719300
O151	O15	0.092200	0.052900	0.530300
O161	O16	0.717600	0.247400	0.454300
O171	O17	0.181500	0.147400	0.495900
O181	O18	0.924800	0.253300	0.455800
O191	O19	0.818100	0.250700	0.564100
O201	O20	0.078200	0.157400	0.591500
O211	O21	0.908500	0.251100	0.664500
O221	O22	0.083500	0.153500	0.410000
O231	O23	0.165000	0.064000	0.624100
O241	O24	0.257200	0.155900	0.591600
O251	O25	0.838500	0.154900	0.687400
O261	O26	0.085400	0.332200	0.529900
O271	O27	0.652800	0.210000	0.523400
O281	O28	0.436500	0.268300	0.280700
O291	O29	0.407800	0.552900	0.969700
O301	O30	0.782400	0.747400	0.045700
O311	O31	0.318500	0.647400	0.004100
O321	O32	0.575200	0.753300	0.044200
O331	O33	0.681900	0.750700	0.935900
O341	O34	0.421800	0.657400	0.908500
O351	O35	0.591500	0.751100	0.835500
O361	O36	0.416500	0.653500	0.090000
O371	O37	0.335000	0.564000	0.875900
O381	O38	0.242800	0.655900	0.908400
O391	O39	0.661500	0.654900	0.812600
O401	O40	0.414600	0.832200	0.970100
O411	O41	0.847200	0.710000	0.976600
O421	O42	0.063500	0.768300	0.219300
O431	O43	0.407800	0.447100	0.030300
O441	O44	0.782400	0.252600	0.954300
O451	O45	0.318500	0.352600	0.995900
O461	O46	0.575200	0.246700	0.955800
O471	O47	0.681900	0.249300	0.064100
O481	O48	0.421800	0.342600	0.091500
O491	O49	0.591500	0.248900	0.164500
O501	O50	0.416500	0.346500	0.910000
O511	O51	0.335000	0.436000	0.124100
O521	O52	0.242800	0.344100	0.091600
O531	O53	0.661500	0.345100	0.187400
O541	O54	0.414600	0.167800	0.029900
O551	O55	0.847200	0.290000	0.023400
O561	O56	0.063500	0.231700	0.780700
O571	O57	0.907800	0.052900	0.530300
O581	O58	0.282400	0.247400	0.454300
O591	O59	0.818500	0.147400	0.495900
O601	O60	0.075200	0.253300	0.455800
O611	O61	0.181900	0.250700	0.564100
O621	O62	0.921800	0.157400	0.591500
O631	O63	0.091500	0.251100	0.664500
O641	O64	0.916500	0.153500	0.410000
O651	O65	0.835000	0.064000	0.624100
O661	O66	0.742800	0.155900	0.591600
O671	O67	0.161500	0.154900	0.687400
O681	O68	0.914600	0.332200	0.529900
O691	O69	0.347200	0.210000	0.523400
O701	O70	0.563500	0.268300	0.280700
O711	O71	0.907800	0.947100	0.469700
O721	O72	0.282400	0.752600	0.545700
O731	O73	0.818500	0.852600	0.504100
O741	O74	0.075200	0.746700	0.544200
O751	O75	0.181900	0.749300	0.435900
O761	O76	0.921800	0.842600	0.408500
O771	O77	0.091500	0.748900	0.335500
O781	O78	0.916500	0.846500	0.590000
O791	O79	0.835000	0.936000	0.375900
O801	O80	0.742800	0.844100	0.408400
O811	O81	0.161500	0.845100	0.312600
O821	O82	0.914600	0.667800	0.470100
O831	O83	0.347200	0.790000	0.476600
O841	O84	0.563500	0.731700	0.719300
O851	O85	0.592200	0.447100	0.030300
O861	O86	0.217600	0.252600	0.954300
O871	O87	0.681500	0.352600	0.995900
O881	O88	0.424800	0.246700	0.955800
O891	O89	0.318100	0.249300	0.064100
O901	O90	0.578200	0.342600	0.091500
O911	O91	0.408500	0.248900	0.164500
O921	O92	0.583500	0.346500	0.910000
O931	O93	0.665000	0.436000	0.124100
O941	O94	0.757200	0.344100	0.091600
O951	O95	0.338500	0.345100	0.187400
O961	O96	0.585400	0.167800	0.029900
O971	O97	0.152800	0.290000	0.023400
O981	O98	0.936500	0.231700	0.780700
O991	O99	0.592200	0.552900	0.969700
O1001	O100	0.217600	0.747400	0.045700
O1011	O101	0.681500	0.647400	0.004100
O1021	O102	0.424800	0.753300	0.044200
O1031	O103	0.318100	0.750700	0.935900
O1041	O104	0.578200	0.657400	0.908500
O1051	O105	0.408500	0.751100	0.835500
O1061	O106	0.583500	0.653500	0.090000
O1071	O107	0.665000	0.564000	0.875900
O1081	O108	0.757200	0.655900	0.908400
O1091	O109	0.338500	0.654900	0.812600
O1101	O110	0.585400	0.832200	0.970100
O1111	O111	0.152800	0.710000	0.976600
O1121	O112	0.936500	0.768300	0.219300
O1131	O113	0.000000	0.940100	0.561600
O1141	O114	0.000000	0.055600	0.642300
O1151	O115	0.000000	0.757500	0.435400
O1161	O116	0.000000	0.845400	0.495000
O1171	O117	0.000000	0.660500	0.373400
O1181	O118	0.000000	0.059900	0.438400
O1191	O119	0.000000	0.944400	0.357700
O1201	O120	0.000000	0.242500	0.564600
O1211	O121	0.000000	0.154600	0.505000
O1221	O122	0.000000	0.339500	0.626600
O1231	O123	0.500000	0.559900	0.061600
O1241	O124	0.500000	0.444400	0.142300
O1251	O125	0.500000	0.742500	0.935400
O1261	O126	0.500000	0.654600	0.995000
O1271	O127	0.500000	0.839500	0.873400
O1281	O128	0.500000	0.440100	0.938400
O1291	O129	0.500000	0.555600	0.857700
O1301	O130	0.500000	0.257500	0.064600
O1311	O131	0.500000	0.345400	0.005000
O1321	O132	0.500000	0.160500	0.126600
O1331	O133	0.500000	0.636500	0.802300
O1341	O134	0.500000	0.363500	0.197700
O1351	O135	0.000000	0.863500	0.302300
O1361	O136	0.000000	0.136500	0.697700
