data_IZUMUM_clean_PM
_symmetry_space_group_name_H-M	'P1'
_cell_length_a	15.298000
_cell_length_b	15.298000
_cell_length_c	15.613100
_cell_angle_alpha	119.335000
_cell_angle_beta	119.335000
_cell_angle_gamma	90.000000
_symmetry_Int_Tables_number 1

loop_
_symmetry_equiv_pos_as_xyz
'x,y,z'

loop_
_atom_site_label
_atom_site_type_symbol
_atom_site_fract_x
_atom_site_fract_y
_atom_site_fract_z
Cu11	Cu1	0.425630	0.484070	0.888340
Cu21	Cu2	0.962710	0.404270	0.888340
Cu31	Cu3	0.984070	0.462710	0.388340
Cu41	Cu4	0.904270	0.925630	0.388340
Cu51	Cu5	0.574370	0.515930	0.111660
Cu61	Cu6	0.037290	0.595730	0.111660
Cu71	Cu7	0.015930	0.537290	0.611660
Cu81	Cu8	0.095730	0.074370	0.611660
H11	H1	0.457000	0.631900	0.815400
H21	H2	0.794800	0.934200	0.172000
H31	H3	0.728600	0.921000	0.055400
H41	H4	0.773500	0.717400	0.301000
H51	H5	0.605200	0.285800	0.768400
H61	H6	0.711000	0.347400	0.895000
H71	H7	0.631100	0.248600	0.853200
H81	H8	0.858400	0.183500	0.815400
H91	H9	0.877200	0.237800	0.172000
H101	H10	0.826800	0.134400	0.055400
H111	H11	0.027500	0.583600	0.301000
H121	H12	0.663200	0.482600	0.768400
H131	H13	0.684000	0.547600	0.895000
H141	H14	0.722100	0.604600	0.853200
H151	H15	0.131900	0.358400	0.315400
H161	H16	0.434200	0.377200	0.672000
H171	H17	0.421000	0.326800	0.555400
H181	H18	0.217400	0.527500	0.801000
H191	H19	0.785800	0.163200	0.268400
H201	H20	0.847400	0.184000	0.395000
H211	H21	0.748600	0.222100	0.353200
H221	H22	0.683500	0.957000	0.315400
H231	H23	0.737800	0.294800	0.672000
H241	H24	0.634400	0.228600	0.555400
H251	H25	0.083600	0.273500	0.801000
H261	H26	0.982600	0.105200	0.268400
H271	H27	0.047600	0.211000	0.395000
H281	H28	0.104600	0.131100	0.353200
H291	H29	0.543000	0.368100	0.184600
H301	H30	0.205200	0.065800	0.828000
H311	H31	0.271400	0.079000	0.944600
H321	H32	0.226500	0.282600	0.699000
H331	H33	0.394800	0.714200	0.231600
H341	H34	0.289000	0.652600	0.105000
H351	H35	0.368900	0.751400	0.146800
H361	H36	0.141600	0.816500	0.184600
H371	H37	0.122800	0.762200	0.828000
H381	H38	0.173200	0.865600	0.944600
H391	H39	0.972500	0.416400	0.699000
H401	H40	0.336800	0.517400	0.231600
H411	H41	0.316000	0.452400	0.105000
H421	H42	0.277900	0.395400	0.146800
H431	H43	0.868100	0.641600	0.684600
H441	H44	0.565800	0.622800	0.328000
H451	H45	0.579000	0.673200	0.444600
H461	H46	0.782600	0.472500	0.199000
H471	H47	0.214200	0.836800	0.731600
H481	H48	0.152600	0.816000	0.605000
H491	H49	0.251400	0.777900	0.646800
H501	H50	0.316500	0.043000	0.684600
H511	H51	0.262200	0.705200	0.328000
H521	H52	0.365600	0.771400	0.444600
H531	H53	0.916400	0.726500	0.199000
H541	H54	0.017400	0.894800	0.731600
H551	H55	0.952400	0.789000	0.605000
H561	H56	0.895400	0.868900	0.646800
C11	C1	0.517500	0.662600	0.891400
C21	C2	0.615600	0.666200	0.056200
C31	C3	0.689900	0.764200	0.116000
C41	C4	0.676000	0.804600	0.054200
C51	C5	0.735900	0.717100	0.232600
C61	C6	0.583000	0.380100	0.900200
C71	C7	0.637600	0.309000	0.849600
C81	C8	0.873900	0.228800	0.891400
C91	C9	0.940600	0.390000	0.056200
C101	C10	0.926100	0.351800	0.116000
C111	C11	0.878200	0.249600	0.054200
C121	C12	0.996700	0.515500	0.232600
C131	C13	0.817200	0.520100	0.900200
C141	C14	0.712000	0.540600	0.849600
C151	C15	0.162600	0.373900	0.391400
C161	C16	0.166200	0.440600	0.556200
C171	C17	0.264200	0.426100	0.616000
C181	C18	0.304600	0.378200	0.554200
C191	C19	0.217100	0.496700	0.732600
C201	C20	0.880100	0.317200	0.400200
C211	C21	0.809000	0.212000	0.349600
C221	C22	0.728800	0.017500	0.391400
C231	C23	0.890000	0.115600	0.556200
C241	C24	0.851800	0.189900	0.616000
C251	C25	0.749600	0.176000	0.554200
C261	C26	0.015500	0.235900	0.732600
C271	C27	0.020100	0.083000	0.400200
C281	C28	0.040600	0.137600	0.349600
C291	C29	0.482500	0.337400	0.108600
C301	C30	0.384400	0.333800	0.943800
C311	C31	0.310100	0.235800	0.884000
C321	C32	0.324000	0.195400	0.945800
C331	C33	0.264100	0.282900	0.767400
C341	C34	0.417000	0.619900	0.099800
C351	C35	0.362400	0.691000	0.150400
C361	C36	0.126100	0.771200	0.108600
C371	C37	0.059400	0.610000	0.943800
C381	C38	0.073900	0.648200	0.884000
C391	C39	0.121800	0.750400	0.945800
C401	C40	0.003300	0.484500	0.767400
C411	C41	0.182800	0.479900	0.099800
C421	C42	0.288000	0.459400	0.150400
C431	C43	0.837400	0.626100	0.608600
C441	C44	0.833800	0.559400	0.443800
C451	C45	0.735800	0.573900	0.384000
C461	C46	0.695400	0.621800	0.445800
C471	C47	0.782900	0.503300	0.267400
C481	C48	0.119900	0.682800	0.599800
C491	C49	0.191000	0.788000	0.650400
C501	C50	0.271200	0.982500	0.608600
C511	C51	0.110000	0.884400	0.443800
C521	C52	0.148200	0.810100	0.384000
C531	C53	0.250400	0.824000	0.445800
C541	C54	0.984500	0.764100	0.267400
C551	C55	0.979900	0.917000	0.599800
C561	C56	0.959400	0.862400	0.650400
N11	N1	0.584000	0.749300	0.934200
N21	N2	0.526800	0.613300	0.944400
N31	N3	0.741100	0.898100	0.099400
N41	N4	0.766400	0.794600	0.226800
N51	N5	0.647400	0.638700	0.133200
N61	N6	0.850200	0.184900	0.934200
N71	N7	0.917600	0.331100	0.944400
N81	N8	0.858300	0.201300	0.099400
N91	N9	0.960400	0.432200	0.226800
N101	N10	0.985800	0.494500	0.133200
N111	N11	0.249300	0.350200	0.434200
N121	N12	0.113300	0.417600	0.444400
N131	N13	0.398100	0.358300	0.599400
N141	N14	0.294600	0.460400	0.726800
N151	N15	0.138700	0.485800	0.633200
N161	N16	0.684900	0.084000	0.434200
N171	N17	0.831100	0.026800	0.444400
N181	N18	0.701300	0.241100	0.599400
N191	N19	0.932200	0.266400	0.726800
N201	N20	0.994500	0.147400	0.633200
N211	N21	0.416000	0.250700	0.065800
N221	N22	0.473200	0.386700	0.055600
N231	N23	0.258900	0.101900	0.900600
N241	N24	0.233600	0.205400	0.773200
N251	N25	0.352600	0.361300	0.866800
N261	N26	0.149800	0.815100	0.065800
N271	N27	0.082400	0.668900	0.055600
N281	N28	0.141700	0.798700	0.900600
N291	N29	0.039600	0.567800	0.773200
N301	N30	0.014200	0.505500	0.866800
N311	N31	0.750700	0.649800	0.565800
N321	N32	0.886700	0.582400	0.555600
N331	N33	0.601900	0.641700	0.400600
N341	N34	0.705400	0.539600	0.273200
N351	N35	0.861300	0.514200	0.366800
N361	N36	0.315100	0.916000	0.565800
N371	N37	0.168900	0.973200	0.555600
N381	N38	0.298700	0.758900	0.400600
N391	N39	0.067800	0.733600	0.273200
N401	N40	0.005500	0.852600	0.366800
O11	O1	0.509600	0.399700	0.836200
O21	O2	0.620700	0.418000	0.006800
O31	O3	0.826600	0.436500	0.836200
O41	O4	0.886100	0.588800	0.006800
O51	O5	0.899700	0.326600	0.336200
O61	O6	0.918000	0.386100	0.506800
O71	O7	0.936500	0.009600	0.336200
O81	O8	0.088800	0.120700	0.506800
O91	O9	0.490400	0.600300	0.163800
O101	O10	0.379300	0.582000	0.993200
O111	O11	0.173400	0.563500	0.163800
O121	O12	0.113900	0.411200	0.993200
O131	O13	0.100300	0.673400	0.663800
O141	O14	0.082000	0.613900	0.493200
O151	O15	0.063500	0.990400	0.663800
O161	O16	0.911200	0.879300	0.493200
