data_j_PM
_symmetry_space_group_name_H-M	'P1'
_cell_length_a	16.561100
_cell_length_b	16.561100
_cell_length_c	22.312000
_cell_angle_alpha	90.000000
_cell_angle_beta	90.000000
_cell_angle_gamma	90.000000
_symmetry_Int_Tables_number 1

loop_
_symmetry_equiv_pos_as_xyz
'x,y,z'

loop_
_atom_site_label
_atom_site_type_symbol
_atom_site_fract_x
_atom_site_fract_y
_atom_site_fract_z
N11	N1	0.102600	0.841600	0.927800
N21	N2	0.110800	0.795200	0.882400
C11	C1	0.184300	0.719600	0.775500
H11	H1	0.138800	0.696500	0.792800
N31	N3	0.602600	0.341600	0.427800
N41	N4	0.610800	0.295200	0.382400
C21	C2	0.684300	0.219600	0.275500
H21	H2	0.638800	0.196500	0.292800
N51	N5	0.897400	0.158400	0.927800
N61	N6	0.889200	0.204800	0.882400
C31	C3	0.815700	0.280400	0.775500
H31	H3	0.861200	0.303500	0.792800
N71	N7	0.397400	0.658400	0.427800
N81	N8	0.389200	0.704800	0.382400
C41	C4	0.315700	0.780400	0.275500
H41	H4	0.361200	0.803500	0.292800
N91	N9	0.158400	0.102600	0.927800
N101	N10	0.204800	0.110800	0.882400
C51	C5	0.280400	0.184300	0.775500
H51	H5	0.303500	0.138800	0.792800
N111	N11	0.658400	0.602600	0.427800
N121	N12	0.704800	0.610800	0.382400
C61	C6	0.780400	0.684300	0.275500
H61	H6	0.803500	0.638800	0.292800
N131	N13	0.841600	0.897400	0.927800
N141	N14	0.795200	0.889200	0.882400
C71	C7	0.719600	0.815700	0.775500
H71	H7	0.696500	0.861200	0.792800
N151	N15	0.341600	0.397400	0.427800
N161	N16	0.295200	0.389200	0.382400
C81	C8	0.219600	0.315700	0.275500
H81	H8	0.196500	0.361200	0.292800
N171	N17	0.897400	0.841600	0.072200
N181	N18	0.889200	0.795200	0.117600
C91	C9	0.815700	0.719600	0.224500
H91	H9	0.861200	0.696500	0.207200
N191	N19	0.397400	0.341600	0.572200
N201	N20	0.389200	0.295200	0.617600
C101	C10	0.315700	0.219600	0.724500
H101	H10	0.361200	0.196500	0.707200
N211	N21	0.102600	0.158400	0.072200
N221	N22	0.110800	0.204800	0.117600
C111	C11	0.184300	0.280400	0.224500
H111	H11	0.138800	0.303500	0.207200
N231	N23	0.602600	0.658400	0.572200
N241	N24	0.610800	0.704800	0.617600
C121	C12	0.684300	0.780400	0.724500
H121	H12	0.638800	0.803500	0.707200
N251	N25	0.841600	0.102600	0.072200
N261	N26	0.795200	0.110800	0.117600
C131	C13	0.719600	0.184300	0.224500
H131	H13	0.696500	0.138800	0.207200
N271	N27	0.341600	0.602600	0.572200
N281	N28	0.295200	0.610800	0.617600
C141	C14	0.219600	0.684300	0.724500
H141	H14	0.196500	0.638800	0.707200
N291	N29	0.158400	0.897400	0.072200
N301	N30	0.204800	0.889200	0.117600
C151	C15	0.280400	0.815700	0.224500
H151	H15	0.303500	0.861200	0.207200
N311	N31	0.658400	0.397400	0.572200
N321	N32	0.704800	0.389200	0.617600
C161	C16	0.780400	0.315700	0.724500
H161	H16	0.803500	0.361200	0.707200
N331	N33	0.897400	0.158400	0.072200
N341	N34	0.889200	0.204800	0.117600
C171	C17	0.815700	0.280400	0.224500
H171	H17	0.861200	0.303500	0.207200
N351	N35	0.397400	0.658400	0.572200
N361	N36	0.389200	0.704800	0.617600
C181	C18	0.315700	0.780400	0.724500
H181	H18	0.361200	0.803500	0.707200
N371	N37	0.102600	0.841600	0.072200
N381	N38	0.110800	0.795200	0.117600
C191	C19	0.184300	0.719600	0.224500
H191	H19	0.138800	0.696500	0.207200
N391	N39	0.602600	0.341600	0.572200
N401	N40	0.610800	0.295200	0.617600
C201	C20	0.684300	0.219600	0.724500
H201	H20	0.638800	0.196500	0.707200
N411	N41	0.841600	0.897400	0.072200
N421	N42	0.795200	0.889200	0.117600
C211	C21	0.719600	0.815700	0.224500
H211	H21	0.696500	0.861200	0.207200
N431	N43	0.341600	0.397400	0.572200
N441	N44	0.295200	0.389200	0.617600
C221	C22	0.219600	0.315700	0.724500
H221	H22	0.196500	0.361200	0.707200
N451	N45	0.158400	0.102600	0.072200
N461	N46	0.204800	0.110800	0.117600
C231	C23	0.280400	0.184300	0.224500
H231	H23	0.303500	0.138800	0.207200
N471	N47	0.658400	0.602600	0.572200
N481	N48	0.704800	0.610800	0.617600
C241	C24	0.780400	0.684300	0.724500
H241	H24	0.803500	0.638800	0.707200
N491	N49	0.102600	0.158400	0.927800
N501	N50	0.110800	0.204800	0.882400
C251	C25	0.184300	0.280400	0.775500
H251	H25	0.138800	0.303500	0.792800
N511	N51	0.602600	0.658400	0.427800
N521	N52	0.610800	0.704800	0.382400
C261	C26	0.684300	0.780400	0.275500
H261	H26	0.638800	0.803500	0.292800
N531	N53	0.897400	0.841600	0.927800
N541	N54	0.889200	0.795200	0.882400
C271	C27	0.815700	0.719600	0.775500
H271	H27	0.861200	0.696500	0.792800
N551	N55	0.397400	0.341600	0.427800
N561	N56	0.389200	0.295200	0.382400
C281	C28	0.315700	0.219600	0.275500
H281	H28	0.361200	0.196500	0.292800
N571	N57	0.158400	0.897400	0.927800
N581	N58	0.204800	0.889200	0.882400
C291	C29	0.280400	0.815700	0.775500
H291	H29	0.303500	0.861200	0.792800
N591	N59	0.658400	0.397400	0.427800
N601	N60	0.704800	0.389200	0.382400
C301	C30	0.780400	0.315700	0.275500
H301	H30	0.803500	0.361200	0.292800
N611	N61	0.841600	0.102600	0.927800
N621	N62	0.795200	0.110800	0.882400
C311	C31	0.719600	0.184300	0.775500
H311	H31	0.696500	0.138800	0.792800
N631	N63	0.341600	0.602600	0.427800
N641	N64	0.295200	0.610800	0.382400
C321	C32	0.219600	0.684300	0.275500
H321	H32	0.196500	0.638800	0.292800
Cd11	Cd1	0.000000	0.828900	0.000000
Cd21	Cd2	0.500000	0.328900	0.500000
Cd31	Cd3	0.000000	0.171100	0.000000
Cd41	Cd4	0.500000	0.671100	0.500000
Cd51	Cd5	0.171100	0.000000	0.000000
Cd61	Cd6	0.671100	0.500000	0.500000
Cd71	Cd7	0.828900	0.000000	0.000000
Cd81	Cd8	0.328900	0.500000	0.500000
C331	C33	0.215600	0.784400	0.798200
C341	C34	0.177900	0.822100	0.854000
C351	C35	0.715600	0.284400	0.298200
C361	C36	0.677900	0.322100	0.354000
C371	C37	0.784400	0.215600	0.798200
C381	C38	0.822100	0.177900	0.854000
C391	C39	0.284400	0.715600	0.298200
C401	C40	0.322100	0.677900	0.354000
C411	C41	0.215600	0.215600	0.798200
C421	C42	0.177900	0.177900	0.854000
C431	C43	0.715600	0.715600	0.298200
C441	C44	0.677900	0.677900	0.354000
C451	C45	0.784400	0.784400	0.798200
C461	C46	0.822100	0.822100	0.854000
C471	C47	0.284400	0.284400	0.298200
C481	C48	0.322100	0.322100	0.354000
C491	C49	0.784400	0.784400	0.201800
C501	C50	0.822100	0.822100	0.146000
C511	C51	0.284400	0.284400	0.701800
C521	C52	0.322100	0.322100	0.646000
C531	C53	0.215600	0.215600	0.201800
C541	C54	0.177900	0.177900	0.146000
C551	C55	0.715600	0.715600	0.701800
C561	C56	0.677900	0.677900	0.646000
C571	C57	0.784400	0.215600	0.201800
C581	C58	0.822100	0.177900	0.146000
C591	C59	0.284400	0.715600	0.701800
C601	C60	0.322100	0.677900	0.646000
C611	C61	0.215600	0.784400	0.201800
C621	C62	0.177900	0.822100	0.146000
C631	C63	0.715600	0.284400	0.701800
C641	C64	0.677900	0.322100	0.646000
