data_j_PM
_symmetry_space_group_name_H-M	'P1'
_cell_length_a	10.702000
_cell_length_b	26.617300
_cell_length_c	8.518900
_cell_angle_alpha	90.000000
_cell_angle_beta	90.000000
_cell_angle_gamma	90.000000
_symmetry_Int_Tables_number 1

loop_
_symmetry_equiv_pos_as_xyz
'x,y,z'

loop_
_atom_site_label
_atom_site_type_symbol
_atom_site_fract_x
_atom_site_fract_y
_atom_site_fract_z
Zn11	Zn1	0.399320	0.547970	0.595640
C11	C1	0.361700	0.453180	0.232400
H11	H1	0.384700	0.424200	0.178800
C21	C2	0.256600	0.515790	0.314000
C31	C3	0.344400	0.649980	0.580900
C41	C4	0.373200	0.703730	0.611100
C51	C5	0.473400	0.723460	0.689000
H21	H2	0.534900	0.704100	0.736800
N11	N1	0.248200	0.474780	0.219500
N21	N2	0.436100	0.477350	0.328400
N31	N3	0.368000	0.518560	0.383800
N41	N4	0.165200	0.550500	0.329400
H31	H3	0.177100	0.576500	0.387400
H41	H4	0.095300	0.546600	0.281300
O11	O1	0.430700	0.619350	0.621500
O21	O2	0.243700	0.638360	0.520500
Zn21	Zn2	0.100680	0.452030	0.095640
C61	C6	0.138300	0.546820	0.732400
H51	H5	0.115300	0.575800	0.678800
C71	C7	0.243400	0.484210	0.814000
C81	C8	0.155600	0.350020	0.080900
C91	C9	0.126800	0.296270	0.111100
C101	C10	0.026600	0.276540	0.189000
H61	H6	0.965100	0.295900	0.236800
N51	N5	0.251800	0.525220	0.719500
N61	N6	0.063900	0.522650	0.828400
N71	N7	0.132000	0.481440	0.883800
N81	N8	0.334800	0.449500	0.829400
H71	H7	0.322900	0.423500	0.887400
H81	H8	0.404700	0.453400	0.781300
O31	O3	0.069300	0.380650	0.121500
O41	O4	0.256300	0.361640	0.020500
Zn31	Zn3	0.600680	0.047970	0.404360
C111	C11	0.638300	0.953180	0.767600
H91	H9	0.615300	0.924200	0.821200
C121	C12	0.743400	0.015790	0.686000
C131	C13	0.655600	0.149980	0.419100
C141	C14	0.626800	0.203730	0.388900
C151	C15	0.526600	0.223460	0.311000
H101	H10	0.465100	0.204100	0.263200
N91	N9	0.751800	0.974780	0.780500
N101	N10	0.563900	0.977350	0.671600
N111	N11	0.632000	0.018560	0.616200
N121	N12	0.834800	0.050500	0.670600
H111	H11	0.822900	0.076500	0.612600
H121	H12	0.904700	0.046600	0.718700
O51	O5	0.569300	0.119350	0.378500
O61	O6	0.756300	0.138360	0.479500
Zn41	Zn4	0.899320	0.952030	0.904360
C161	C16	0.861700	0.046820	0.267600
H131	H13	0.884700	0.075800	0.321200
C171	C17	0.756600	0.984210	0.186000
C181	C18	0.844400	0.850020	0.919100
C191	C19	0.873200	0.796270	0.888900
C201	C20	0.973400	0.776540	0.811000
H141	H14	0.034900	0.795900	0.763200
N131	N13	0.748200	0.025220	0.280500
N141	N14	0.936100	0.022650	0.171600
N151	N15	0.868000	0.981440	0.116200
N161	N16	0.665200	0.949500	0.170600
H151	H15	0.677100	0.923500	0.112600
H161	H16	0.595300	0.953400	0.218700
O71	O7	0.930700	0.880650	0.878500
O81	O8	0.743700	0.861640	0.979500
Zn51	Zn5	0.600680	0.452030	0.404360
C211	C21	0.638300	0.546820	0.767600
H171	H17	0.615300	0.575800	0.821200
C221	C22	0.743400	0.484210	0.686000
C231	C23	0.655600	0.350020	0.419100
C241	C24	0.626800	0.296270	0.388900
C251	C25	0.526600	0.276540	0.311000
H181	H18	0.465100	0.295900	0.263200
N171	N17	0.751800	0.525220	0.780500
N181	N18	0.563900	0.522650	0.671600
N191	N19	0.632000	0.481440	0.616200
N201	N20	0.834800	0.449500	0.670600
H191	H19	0.822900	0.423500	0.612600
H201	H20	0.904700	0.453400	0.718700
O91	O9	0.569300	0.380650	0.378500
O101	O10	0.756300	0.361640	0.479500
Zn61	Zn6	0.899320	0.547970	0.904360
C261	C26	0.861700	0.453180	0.267600
H211	H21	0.884700	0.424200	0.321200
C271	C27	0.756600	0.515790	0.186000
C281	C28	0.844400	0.649980	0.919100
C291	C29	0.873200	0.703730	0.888900
C301	C30	0.973400	0.723460	0.811000
H221	H22	0.034900	0.704100	0.763200
N211	N21	0.748200	0.474780	0.280500
N221	N22	0.936100	0.477350	0.171600
N231	N23	0.868000	0.518560	0.116200
N241	N24	0.665200	0.550500	0.170600
H231	H23	0.677100	0.576500	0.112600
H241	H24	0.595300	0.546600	0.218700
O111	O11	0.930700	0.619350	0.878500
O121	O12	0.743700	0.638360	0.979500
Zn71	Zn7	0.399320	0.952030	0.595640
C311	C31	0.361700	0.046820	0.232400
H251	H25	0.384700	0.075800	0.178800
C321	C32	0.256600	0.984210	0.314000
C331	C33	0.344400	0.850020	0.580900
C341	C34	0.373200	0.796270	0.611100
C351	C35	0.473400	0.776540	0.689000
H261	H26	0.534900	0.795900	0.736800
N251	N25	0.248200	0.025220	0.219500
N261	N26	0.436100	0.022650	0.328400
N271	N27	0.368000	0.981440	0.383800
N281	N28	0.165200	0.949500	0.329400
H271	H27	0.177100	0.923500	0.387400
H281	H28	0.095300	0.953400	0.281300
O131	O13	0.430700	0.880650	0.621500
O141	O14	0.243700	0.861640	0.520500
Zn81	Zn8	0.100680	0.047970	0.095640
C361	C36	0.138300	0.953180	0.732400
H291	H29	0.115300	0.924200	0.678800
C371	C37	0.243400	0.015790	0.814000
C381	C38	0.155600	0.149980	0.080900
C391	C39	0.126800	0.203730	0.111100
C401	C40	0.026600	0.223460	0.189000
H301	H30	0.965100	0.204100	0.236800
N291	N29	0.251800	0.974780	0.719500
N301	N30	0.063900	0.977350	0.828400
N311	N31	0.132000	0.018560	0.883800
N321	N32	0.334800	0.050500	0.829400
H311	H31	0.322900	0.076500	0.887400
H321	H32	0.404700	0.046600	0.781300
O151	O15	0.069300	0.119350	0.121500
O161	O16	0.256300	0.138360	0.020500
S11	S1	0.277080	0.750000	0.538770
S21	S2	0.222920	0.250000	0.038770
S31	S3	0.722920	0.250000	0.461230
S41	S4	0.777080	0.750000	0.961230
