data_j_PM
_symmetry_space_group_name_H-M	'P1'
_cell_length_a	8.311000
_cell_length_b	21.674000
_cell_length_c	13.501000
_cell_angle_alpha	90.000000
_cell_angle_beta	103.323000
_cell_angle_gamma	90.000000
_symmetry_Int_Tables_number 1

loop_
_symmetry_equiv_pos_as_xyz
'x,y,z'

loop_
_atom_site_label
_atom_site_type_symbol
_atom_site_fract_x
_atom_site_fract_y
_atom_site_fract_z
N11	N1	0.857500	0.047400	0.601900
N21	N2	0.778800	0.115000	0.703900
N31	N3	0.739200	0.330100	0.927200
N41	N4	0.644300	0.412900	0.989500
N51	N5	0.803500	0.029800	0.357900
N61	N6	0.639500	0.030800	0.204300
C11	C1	0.873800	0.103600	0.637500
H11	H1	0.943700	0.132800	0.619000
C21	C2	0.742200	0.019700	0.648500
H21	H2	0.705700	0.979100	0.638600
C31	C3	0.692000	0.060700	0.710000
H31	H3	0.614700	0.054000	0.748900
C41	C4	0.768200	0.170700	0.758300
C51	C5	0.906000	0.206100	0.793800
H41	H4	0.007300	0.194000	0.782100
C61	C6	0.895200	0.259200	0.846500
H51	H5	0.988100	0.283800	0.869000
C71	C7	0.744700	0.276100	0.866100
C81	C8	0.605600	0.242000	0.829200
H61	H6	0.504200	0.254200	0.840700
C91	C9	0.618300	0.189200	0.774600
H71	H7	0.524300	0.165800	0.748400
C101	C10	0.611500	0.369100	0.921500
H81	H8	0.511100	0.365300	0.874300
C111	C11	0.862800	0.350600	0.005500
H91	H9	0.967100	0.333300	0.028400
C121	C12	0.802600	0.401000	0.042600
H101	H10	0.860600	0.424500	0.096800
C131	C13	0.774400	0.006000	0.265200
H111	H11	0.839400	0.975800	0.244900
C141	C14	0.684400	0.073500	0.354200
H121	H12	0.675300	0.098900	0.408200
C151	C15	0.582200	0.074500	0.261400
H131	H13	0.490500	0.099900	0.240000
C161	C16	0.569100	0.014600	0.099500
C171	C17	0.482100	0.058600	0.035800
H141	H14	0.469100	0.098000	0.060000
C181	C18	0.586300	0.956400	0.065300
H151	H15	0.643600	0.926800	0.109500
N71	N7	0.642500	0.547400	0.898100
N81	N8	0.721200	0.615000	0.796100
N91	N9	0.760800	0.830100	0.572800
N101	N10	0.855700	0.912900	0.510500
N111	N11	0.696500	0.529800	0.142100
N121	N12	0.860500	0.530800	0.295700
C191	C19	0.626200	0.603600	0.862500
H161	H16	0.556300	0.632800	0.881000
C201	C20	0.757800	0.519700	0.851500
H171	H17	0.794300	0.479100	0.861400
C211	C21	0.808000	0.560700	0.790000
H181	H18	0.885300	0.554000	0.751100
C221	C22	0.731800	0.670700	0.741700
C231	C23	0.594000	0.706100	0.706200
H191	H19	0.492700	0.694000	0.717900
C241	C24	0.604800	0.759200	0.653500
H201	H20	0.511900	0.783800	0.631000
C251	C25	0.755300	0.776100	0.633900
C261	C26	0.894400	0.742000	0.670800
H211	H21	0.995800	0.754200	0.659300
C271	C27	0.881700	0.689200	0.725400
H221	H22	0.975700	0.665800	0.751600
C281	C28	0.888500	0.869100	0.578500
H231	H23	0.988900	0.865300	0.625700
C291	C29	0.637200	0.850600	0.494500
H241	H24	0.532900	0.833300	0.471600
C301	C30	0.697400	0.901000	0.457400
H251	H25	0.639400	0.924500	0.403200
C311	C31	0.725600	0.506000	0.234800
H261	H26	0.660600	0.475800	0.255100
C321	C32	0.815600	0.573500	0.145800
H271	H27	0.824700	0.598900	0.091800
C331	C33	0.917800	0.574500	0.238600
H281	H28	0.009500	0.599900	0.260000
C341	C34	0.930900	0.514600	0.400500
C351	C35	0.017900	0.558600	0.464200
H291	H29	0.030900	0.598000	0.440000
C361	C36	0.913700	0.456400	0.434700
H301	H30	0.856400	0.426800	0.390500
N131	N13	0.142500	0.952600	0.398100
N141	N14	0.221200	0.885000	0.296100
N151	N15	0.260800	0.669900	0.072800
N161	N16	0.355700	0.587100	0.010500
N171	N17	0.196500	0.970200	0.642100
N181	N18	0.360500	0.969200	0.795700
C371	C37	0.126200	0.896400	0.362500
H311	H31	0.056300	0.867200	0.381000
C381	C38	0.257800	0.980300	0.351500
H321	H32	0.294300	0.020900	0.361400
C391	C39	0.308000	0.939300	0.290000
H331	H33	0.385300	0.946000	0.251100
C401	C40	0.231800	0.829300	0.241700
C411	C41	0.094000	0.793900	0.206200
H341	H34	0.992700	0.806000	0.217900
C421	C42	0.104800	0.740800	0.153500
H351	H35	0.011900	0.716200	0.131000
C431	C43	0.255300	0.723900	0.133900
C441	C44	0.394400	0.758000	0.170800
H361	H36	0.495800	0.745800	0.159300
C451	C45	0.381700	0.810800	0.225400
H371	H37	0.475700	0.834200	0.251600
C461	C46	0.388500	0.630900	0.078500
H381	H38	0.488900	0.634700	0.125700
C471	C47	0.137200	0.649400	0.994500
H391	H39	0.032900	0.666700	0.971600
C481	C48	0.197400	0.599000	0.957400
H401	H40	0.139400	0.575500	0.903200
C491	C49	0.225600	0.994000	0.734800
H411	H41	0.160600	0.024200	0.755100
C501	C50	0.315600	0.926500	0.645800
H421	H42	0.324700	0.901100	0.591800
C511	C51	0.417800	0.925500	0.738600
H431	H43	0.509500	0.900100	0.760000
C521	C52	0.430900	0.985400	0.900500
C531	C53	0.517900	0.941400	0.964200
H441	H44	0.530900	0.902000	0.940000
C541	C54	0.413700	0.043600	0.934700
H451	H45	0.356400	0.073200	0.890500
N191	N19	0.357500	0.452600	0.101900
N201	N20	0.278800	0.385000	0.203900
N211	N21	0.239200	0.169900	0.427200
N221	N22	0.144300	0.087100	0.489500
N231	N23	0.303500	0.470200	0.857900
N241	N24	0.139500	0.469200	0.704300
C551	C55	0.373800	0.396400	0.137500
H461	H46	0.443700	0.367200	0.119000
C561	C56	0.242200	0.480300	0.148500
H471	H47	0.205700	0.520900	0.138600
C571	C57	0.192000	0.439300	0.210000
H481	H48	0.114700	0.446000	0.248900
C581	C58	0.268200	0.329300	0.258300
C591	C59	0.406000	0.293900	0.293800
H491	H49	0.507300	0.306000	0.282100
C601	C60	0.395200	0.240800	0.346500
H501	H50	0.488100	0.216200	0.369000
C611	C61	0.244700	0.223900	0.366100
C621	C62	0.105600	0.258000	0.329200
H511	H51	0.004200	0.245800	0.340700
C631	C63	0.118300	0.310800	0.274600
H521	H52	0.024300	0.334200	0.248400
C641	C64	0.111500	0.130900	0.421500
H531	H53	0.011100	0.134700	0.374300
C651	C65	0.362800	0.149400	0.505500
H541	H54	0.467100	0.166700	0.528400
C661	C66	0.302600	0.099000	0.542600
H551	H55	0.360600	0.075500	0.596800
C671	C67	0.274400	0.494000	0.765200
H561	H56	0.339400	0.524200	0.744900
C681	C68	0.184400	0.426500	0.854200
H571	H57	0.175300	0.401100	0.908200
C691	C69	0.082200	0.425500	0.761400
H581	H58	0.990500	0.400100	0.740000
C701	C70	0.069100	0.485400	0.599500
C711	C71	0.982100	0.441400	0.535800
H591	H59	0.969100	0.402000	0.560000
C721	C72	0.086300	0.543600	0.565300
H601	H60	0.143600	0.573200	0.609500
Mn11	Mn1	0.000000	0.000000	0.500000
Mn21	Mn2	0.500000	0.500000	0.000000
