data_ja073612tsi20070723_060623_clean_PM
_symmetry_space_group_name_H-M	'P1'
_cell_length_a	12.889000
_cell_length_b	13.160000
_cell_length_c	14.608300
_cell_angle_alpha	116.771000
_cell_angle_beta	113.320000
_cell_angle_gamma	90.000000
_symmetry_Int_Tables_number 1

loop_
_symmetry_equiv_pos_as_xyz
'x,y,z'

loop_
_atom_site_label
_atom_site_type_symbol
_atom_site_fract_x
_atom_site_fract_y
_atom_site_fract_z
Mn11	Mn1	0.217910	0.656080	0.423720
Mn21	Mn2	0.717220	0.675080	0.426900
Mn31	Mn3	0.282780	0.248180	0.573100
Mn41	Mn4	0.500000	0.980920	0.000000
Mn51	Mn5	0.000000	0.928820	0.000000
Mn61	Mn6	0.782090	0.232360	0.576280
Mo11	Mo1	0.101880	0.011280	0.717800
Mo21	Mo2	0.898120	0.293480	0.282200
Mo31	Mo3	0.599950	0.612920	0.718120
Mo41	Mo4	0.400050	0.894800	0.281880
C11	C1	0.270300	0.014500	0.832600
C21	C2	0.443800	0.931100	0.172400
C31	C3	0.646000	0.626500	0.596800
C41	C4	0.769400	0.728800	0.837200
C51	C5	0.863700	0.336200	0.145400
C61	C6	0.043100	0.258800	0.388000
C71	C7	0.148700	0.874900	0.601800
C81	C8	0.941400	0.150100	0.169400
C91	C9	0.956900	0.870800	0.612000
C101	C10	0.542900	0.037700	0.390400
C111	C11	0.230600	0.891600	0.162800
C121	C12	0.621500	0.576300	0.854400
C131	C13	0.462500	0.463800	0.630600
C141	C14	0.186600	0.106700	0.669600
C151	C15	0.689000	0.470800	0.674000
C161	C16	0.136300	0.190800	0.854600
C171	C17	0.729700	0.181900	0.167400
C181	C18	0.813400	0.437100	0.330400
C191	C19	0.311000	0.796800	0.326000
C201	C20	0.851300	0.273100	0.398200
C211	C21	0.354000	0.029700	0.403200
C221	C22	0.457100	0.647300	0.609600
C231	C23	0.556200	0.758700	0.827600
C241	C24	0.537500	0.833200	0.369400
C251	C25	0.037900	0.437300	0.361600
C261	C26	0.962100	0.075700	0.638400
C271	C27	0.058600	0.980700	0.830600
C281	C28	0.378500	0.721900	0.145600
N11	N1	0.265800	0.745700	0.350600
N21	N2	0.877400	0.797400	0.554000
N31	N3	0.226200	0.161300	0.643400
N41	N4	0.151500	0.282000	0.921600
N51	N5	0.606500	0.791600	0.409400
N61	N6	0.773800	0.517900	0.356600
N71	N7	0.144800	0.891400	0.098800
N81	N8	0.122600	0.243400	0.446000
N91	N9	0.376800	0.663000	0.547800
N101	N10	0.108700	0.517500	0.400600
N111	N11	0.855200	0.792600	0.901200
N121	N12	0.734200	0.395100	0.649400
N131	N13	0.669400	0.634900	0.533400
N141	N14	0.891300	0.116900	0.599400
N151	N15	0.848500	0.360400	0.078400
N161	N16	0.366100	0.624900	0.076600
N171	N17	0.825200	0.262900	0.462000
N181	N18	0.039100	0.963100	0.893800
N191	N19	0.633900	0.548300	0.923400
N201	N20	0.393500	0.382200	0.590600
N211	N21	0.174800	0.800900	0.538000
N221	N22	0.330600	0.101500	0.466600
N231	N23	0.362100	0.018100	0.897000
N241	N24	0.960900	0.069300	0.106200
N251	N25	0.623200	0.115200	0.452200
N261	N26	0.637900	0.121100	0.103000
N271	N27	0.539200	0.839200	0.890000
N281	N28	0.460800	0.949200	0.110000
