data_ja205976v_si_006_clean_PM
_symmetry_space_group_name_H-M	'P1'
_cell_length_a	6.842300
_cell_length_b	15.276300
_cell_length_c	15.276300
_cell_angle_alpha	62.188500
_cell_angle_beta	81.413600
_cell_angle_gamma	98.586400
_symmetry_Int_Tables_number 1

loop_
_symmetry_equiv_pos_as_xyz
'x,y,z'

loop_
_atom_site_label
_atom_site_type_symbol
_atom_site_fract_x
_atom_site_fract_y
_atom_site_fract_z
Fe11	Fe1	0.521900	0.413600	0.266700
Fe21	Fe2	0.788600	0.266700	0.319700
Fe31	Fe3	0.211400	0.733300	0.680300
Fe41	Fe4	0.478100	0.586400	0.733300
Fe51	Fe5	0.108300	0.319700	0.413600
Fe61	Fe6	0.891700	0.680300	0.586400
H11	H1	0.643300	0.447600	0.019700
H21	H2	0.195700	0.532700	0.447600
H31	H3	0.337000	0.980300	0.467300
H41	H4	0.804300	0.467300	0.552400
H51	H5	0.663000	0.019700	0.532700
H61	H6	0.356700	0.552400	0.980300
C11	C1	0.793800	0.008600	0.524600
C21	C2	0.785200	0.466800	0.008600
C31	C3	0.255300	0.609800	0.562600
C41	C4	0.132900	0.565600	0.898400
C51	C5	0.968700	0.101600	0.464000
C61	C6	0.088100	0.464000	0.081100
C71	C7	0.744700	0.390200	0.437400
C81	C8	0.432700	0.464000	0.434400
C91	C9	0.645500	0.827600	0.609800
C101	C10	0.681600	0.475400	0.533200
C111	C11	0.567300	0.536000	0.565600
C121	C12	0.911900	0.536000	0.918900
C131	C13	0.318400	0.524600	0.466800
C141	C14	0.169200	0.081100	0.454900
C151	C15	0.817900	0.562600	0.827600
C161	C16	0.624100	0.454900	0.464000
C171	C17	0.830800	0.918900	0.545100
C181	C18	0.182100	0.437400	0.172400
C191	C19	0.206200	0.991400	0.475400
C201	C20	0.375900	0.545100	0.536000
C211	C21	0.354500	0.172400	0.390200
C221	C22	0.214800	0.533200	0.991400
C231	C23	0.867100	0.434400	0.101600
C241	C24	0.031300	0.898400	0.536000
O11	O1	0.270600	0.631400	0.807300
O21	O2	0.360800	0.438700	0.368600
O31	O3	0.479800	0.858100	0.624400
O41	O4	0.621700	0.517500	0.858100
O51	O5	0.331300	0.262300	0.360100
O61	O6	0.077900	0.807300	0.561300
O71	O7	0.104200	0.624400	0.517500
O81	O8	0.069000	0.377600	0.262300
O91	O9	0.668700	0.737700	0.639900
O101	O10	0.308600	0.639900	0.622400
O111	O11	0.639200	0.561300	0.631400
O121	O12	0.895800	0.375600	0.482500
O131	O13	0.691400	0.360100	0.377600
O141	O14	0.729400	0.368600	0.192700
O151	O15	0.922100	0.192700	0.438700
O161	O16	0.378300	0.482500	0.141900
O171	O17	0.931000	0.622400	0.737700
O181	O18	0.520200	0.141900	0.375600
