data_ja308995t_si_002_clean_PM
_symmetry_space_group_name_H-M	'P1'
_cell_length_a	4.798200
_cell_length_b	14.654600
_cell_length_c	33.045400
_cell_angle_alpha	90.000000
_cell_angle_beta	90.000000
_cell_angle_gamma	92.676000
_symmetry_Int_Tables_number 1

loop_
_symmetry_equiv_pos_as_xyz
'x,y,z'

loop_
_atom_site_label
_atom_site_type_symbol
_atom_site_fract_x
_atom_site_fract_y
_atom_site_fract_z
Zn11	Zn1	0.797830	0.410200	0.471700
Zn21	Zn2	0.797830	0.410200	0.028300
Zn31	Zn3	0.202170	0.589800	0.971700
Zn41	Zn4	0.202170	0.589800	0.528300
H11	H1	0.822520	0.867850	0.151170
H21	H2	0.687470	0.360730	0.373630
H31	H3	0.846050	0.907380	0.656220
H41	H4	0.277180	0.453580	0.615530
H51	H5	0.673000	0.612230	0.179220
H61	H6	0.667900	0.211330	0.843670
H71	H7	0.722820	0.546420	0.115530
H81	H8	0.608950	0.276570	0.592720
H91	H9	0.657850	0.012670	0.151220
H101	H10	0.391050	0.723430	0.407280
H111	H11	0.608950	0.276570	0.907280
H121	H12	0.277180	0.453580	0.884470
H131	H13	0.722820	0.546420	0.384470
H141	H14	0.948650	0.342950	0.750000
H151	H15	0.207920	0.725470	0.683030
H161	H16	0.673000	0.612230	0.320780
H171	H17	0.566850	0.777700	0.750000
H181	H18	0.332100	0.788670	0.343670
H191	H19	0.846050	0.907380	0.843780
H201	H20	0.153950	0.092620	0.343780
H211	H21	0.332100	0.788670	0.156330
H221	H22	0.959900	0.821900	0.599600
H231	H23	0.312530	0.639270	0.626370
H241	H24	0.657850	0.012670	0.348780
H251	H25	0.433150	0.222300	0.250000
H261	H26	0.391050	0.723430	0.092720
H271	H27	0.051350	0.657050	0.250000
H281	H28	0.687470	0.360730	0.126370
H291	H29	0.342150	0.987330	0.651220
H301	H30	0.792080	0.274530	0.183030
H311	H31	0.822520	0.867850	0.348830
H321	H32	0.959900	0.821900	0.900400
H331	H33	0.327000	0.387770	0.679220
H341	H34	0.327000	0.387770	0.820780
H351	H35	0.207920	0.725470	0.816970
H361	H36	0.667900	0.211330	0.656330
H371	H37	0.040100	0.178100	0.400400
H381	H38	0.792080	0.274530	0.316970
H391	H39	0.342150	0.987330	0.848780
H401	H40	0.177480	0.132150	0.848830
H411	H41	0.153950	0.092620	0.156220
H421	H42	0.040100	0.178100	0.099600
H431	H43	0.177480	0.132150	0.651170
H441	H44	0.312530	0.639270	0.873630
C11	C1	0.693150	0.984900	0.250000
C21	C2	0.083370	0.593150	0.445150
C31	C3	0.733830	0.853020	0.850420
C41	C4	0.938800	0.371700	0.596930
C51	C5	0.504050	0.161600	0.250000
C61	C6	0.547750	0.119700	0.212630
C71	C7	0.206350	0.104700	0.750000
C81	C8	0.982550	0.718000	0.250000
C91	C9	0.513200	0.826650	0.675200
C101	C10	0.061200	0.628300	0.403070
C111	C11	0.916630	0.406850	0.554850
C121	C12	0.276180	0.333980	0.429450
C131	C13	0.843450	0.850600	0.286870
C141	C14	0.209150	0.738130	0.148020
C151	C15	0.843450	0.850600	0.213130
C161	C16	0.060930	0.239700	0.787450
C171	C17	0.790850	0.261870	0.851980
C181	C18	0.642630	0.029550	0.286880
C191	C19	0.360900	0.745830	0.834450
C201	C20	0.354980	0.278150	0.393930
C211	C21	0.357370	0.970450	0.713120
C221	C22	0.308830	0.016200	0.823100
C231	C23	0.792020	0.896600	0.176950
C241	C24	0.495950	0.838400	0.750000
C251	C25	0.421770	0.695050	0.631270
C261	C26	0.645020	0.721850	0.893930
C271	C27	0.266170	0.146980	0.350420
C281	C28	0.723820	0.666020	0.929450
C291	C29	0.547750	0.119700	0.287370
C301	C30	0.733830	0.853020	0.649580
C311	C31	0.691170	0.983800	0.176900
C321	C32	0.800630	0.801630	0.615900
C331	C33	0.083370	0.593150	0.054850
C341	C34	0.145580	0.405300	0.623580
C351	C35	0.452250	0.880300	0.712630
C361	C36	0.357370	0.970450	0.786880
C371	C37	0.938800	0.371700	0.903070
C381	C38	0.854420	0.594700	0.123580
C391	C39	0.145580	0.405300	0.876420
C401	C40	0.513200	0.826650	0.824800
C411	C41	0.645020	0.721850	0.606070
C421	C42	0.486800	0.173350	0.324800
C431	C43	0.209150	0.738130	0.351980
C441	C44	0.156550	0.149400	0.786870
C451	C45	0.175870	0.366150	0.838300
C461	C46	0.242800	0.699070	0.110150
C471	C47	0.993770	0.708950	0.325850
C481	C48	0.175870	0.366150	0.661700
C491	C49	0.757200	0.300930	0.610150
C501	C50	0.486800	0.173350	0.175200
C511	C51	0.642630	0.029550	0.213120
C521	C52	0.266170	0.146980	0.149580
C531	C53	0.421770	0.695050	0.868730
C541	C54	0.993770	0.708950	0.174150
C551	C55	0.854420	0.594700	0.376420
C561	C56	0.639100	0.254170	0.334450
C571	C57	0.207980	0.103400	0.676950
C581	C58	0.939070	0.760300	0.212550
C591	C59	0.207980	0.103400	0.823050
C601	C60	0.793650	0.895300	0.250000
C611	C61	0.824130	0.633850	0.161700
C621	C62	0.360900	0.745830	0.665550
C631	C63	0.723820	0.666020	0.570550
C641	C64	0.354980	0.278150	0.106070
C651	C65	0.452250	0.880300	0.787370
C661	C66	0.061200	0.628300	0.096930
C671	C67	0.006230	0.291050	0.674150
C681	C68	0.824130	0.633850	0.338300
C691	C69	0.276180	0.333980	0.070550
C701	C70	0.639100	0.254170	0.165550
C711	C71	0.916630	0.406850	0.945150
C721	C72	0.757200	0.300930	0.889850
C731	C73	0.306850	0.015100	0.750000
C741	C74	0.790850	0.261870	0.648020
C751	C75	0.199370	0.198370	0.384100
C761	C76	0.199370	0.198370	0.115900
C771	C77	0.691170	0.983800	0.323100
C781	C78	0.800630	0.801630	0.884100
C791	C79	0.792020	0.896600	0.323050
C801	C80	0.060930	0.239700	0.712550
C811	C81	0.578230	0.304950	0.131270
C821	C82	0.578230	0.304950	0.368730
C831	C83	0.242800	0.699070	0.389850
C841	C84	0.939070	0.760300	0.287450
C851	C85	0.017450	0.282000	0.750000
C861	C86	0.006230	0.291050	0.825850
C871	C87	0.156550	0.149400	0.713130
C881	C88	0.308830	0.016200	0.676900
O11	O1	0.249200	0.615170	0.028600
O21	O2	0.075580	0.460680	0.963120
O31	O3	0.422680	0.394980	0.445070
O41	O4	0.924420	0.539320	0.036880
O51	O5	0.249200	0.615170	0.471400
O61	O6	0.422680	0.394980	0.054930
O71	O7	0.750800	0.384830	0.971400
O81	O8	0.950830	0.669820	0.945900
O91	O9	0.049170	0.330180	0.445900
O101	O10	0.075580	0.460680	0.536880
O111	O11	0.950830	0.669820	0.554100
O121	O12	0.049170	0.330180	0.054100
O131	O13	0.750800	0.384830	0.528600
O141	O14	0.577320	0.605020	0.945070
O151	O15	0.577320	0.605020	0.554930
O161	O16	0.924420	0.539320	0.463120
