data_ja300034j_si_002_clean_PM
_symmetry_space_group_name_H-M	'P1'
_cell_length_a	6.869000
_cell_length_b	21.698000
_cell_length_c	21.698000
_cell_angle_alpha	120.000000
_cell_angle_beta	90.000000
_cell_angle_gamma	90.000000
_symmetry_Int_Tables_number 1

loop_
_symmetry_equiv_pos_as_xyz
'x,y,z'

loop_
_atom_site_label
_atom_site_type_symbol
_atom_site_fract_x
_atom_site_fract_y
_atom_site_fract_z
Zn11	Zn1	0.491260	0.606390	0.279470
Zn21	Zn2	0.842070	0.393610	0.673080
Zn31	Zn3	0.175400	0.279470	0.606390
Zn41	Zn4	0.508740	0.326920	0.720530
Zn51	Zn5	0.157930	0.720530	0.326920
Zn61	Zn6	0.824600	0.673080	0.393610
H11	H1	0.792870	0.511200	0.393000
H21	H2	0.011900	0.446200	0.452900
H31	H3	0.873800	0.393000	0.511200
H41	H4	0.540470	0.488800	0.881800
H51	H5	0.207130	0.118200	0.607000
H61	H6	0.654770	0.452900	0.446200
H71	H7	0.136030	0.542800	0.453000
H81	H8	0.469370	0.910200	0.457200
H91	H9	0.345230	0.006700	0.553800
H101	H10	0.321430	0.553800	0.006700
H111	H11	0.988100	0.993300	0.547100
H121	H12	0.678570	0.547100	0.993300
H131	H13	0.126200	0.881800	0.488800
H141	H14	0.802700	0.547000	0.089800
H151	H15	0.530630	0.453000	0.542800
H161	H16	0.197300	0.457200	0.910200
H171	H17	0.459530	0.607000	0.118200
H181	H18	0.863970	0.089800	0.547000
C11	C1	0.212030	0.613800	0.174400
C21	C2	0.377130	0.490600	0.455100
C31	C3	0.730470	0.095800	0.560200
C41	C4	0.043800	0.544900	0.035500
C51	C5	0.342230	0.113200	0.596200
C61	C6	0.454630	0.174400	0.613800
C71	C7	0.451930	0.395000	0.617900
C81	C8	0.622870	0.035500	0.544900
C91	C9	0.347630	0.570900	0.406000
C101	C10	0.319030	0.406000	0.570900
C111	C11	0.602870	0.904200	0.464400
C121	C12	0.121300	0.386200	0.560600
C131	C13	0.548070	0.777100	0.382100
C141	C14	0.242230	0.563800	0.046500
C151	C15	0.289530	0.455100	0.490600
C161	C16	0.675570	0.483000	0.886800
C171	C17	0.908900	0.953500	0.517300
C181	C18	0.091100	0.436200	0.482700
C191	C19	0.881400	0.605000	0.222900
C201	C20	0.269530	0.535600	0.439800
C211	C21	0.575570	0.482700	0.436200
C221	C22	0.787970	0.439400	0.825600
C231	C23	0.652370	0.164900	0.594000
C241	C24	0.680970	0.835100	0.429100
C251	C25	0.878700	0.825600	0.439400
C261	C26	0.757770	0.517300	0.953500
C271	C27	0.063800	0.464400	0.904200
C281	C28	0.397130	0.439800	0.535600
C291	C29	0.657770	0.517000	0.403800
C301	C30	0.545370	0.560600	0.386200
C311	C31	0.214730	0.617900	0.395000
C321	C32	0.991100	0.886800	0.483000
C331	C33	0.008900	0.403800	0.517000
C341	C34	0.424430	0.046500	0.563800
C351	C35	0.985700	0.429100	0.835100
C361	C36	0.324430	0.596200	0.113200
C371	C37	0.785270	0.222900	0.605000
C381	C38	0.956200	0.509400	0.964500
C391	C39	0.118600	0.382100	0.777100
C401	C40	0.014300	0.594000	0.164900
C411	C41	0.710470	0.964500	0.509400
C421	C42	0.936200	0.560200	0.095800
O11	O1	0.722070	0.286210	0.636280
O21	O2	0.364330	0.238250	0.649000
O31	O3	0.626200	0.417930	0.625310
O41	O4	0.611270	0.713790	0.350070
O51	O5	0.944600	0.636280	0.286210
O61	O6	0.031000	0.351000	0.589250
O71	O7	0.959530	0.207380	0.582070
O81	O8	0.635670	0.589250	0.351000
O91	O9	0.055400	0.350070	0.713790
O101	O10	0.388730	0.363720	0.649930
O111	O11	0.277930	0.649930	0.363720
O121	O12	0.707130	0.582070	0.207380
O131	O13	0.040470	0.625310	0.417930
O141	O14	0.302330	0.649000	0.238250
O151	O15	0.373800	0.792620	0.374690
O161	O16	0.969000	0.761750	0.410750
O171	O17	0.292870	0.374690	0.792620
O181	O18	0.697670	0.410750	0.761750
