data_ja4012707_si_005_manual_PM
_symmetry_space_group_name_H-M	'P1'
_cell_length_a	12.481500
_cell_length_b	12.481500
_cell_length_c	12.481500
_cell_angle_alpha	90.000000
_cell_angle_beta	90.000000
_cell_angle_gamma	90.000000
_symmetry_Int_Tables_number 1

loop_
_symmetry_equiv_pos_as_xyz
'x,y,z'

loop_
_atom_site_label
_atom_site_type_symbol
_atom_site_fract_x
_atom_site_fract_y
_atom_site_fract_z
C11	C1	0.048800	0.340900	0.068100
N21	N2	0.074200	0.259400	0.088200
C31	C3	0.451200	0.659100	0.568100
N41	N4	0.425800	0.740600	0.588200
C51	C5	0.951200	0.840900	0.431900
N61	N6	0.925800	0.759400	0.411800
C71	C7	0.548800	0.159100	0.931900
N81	N8	0.574200	0.240600	0.911800
C91	C9	0.068100	0.048800	0.340900
N101	N10	0.088200	0.074200	0.259400
C111	C11	0.568100	0.451200	0.659100
N121	N12	0.588200	0.425800	0.740600
C131	C13	0.431900	0.951200	0.840900
N141	N14	0.411800	0.925800	0.759400
C151	C15	0.931900	0.548800	0.159100
N161	N16	0.911800	0.574200	0.240600
C171	C17	0.340900	0.068100	0.048800
N181	N18	0.259400	0.088200	0.074200
C191	C19	0.659100	0.568100	0.451200
N201	N20	0.740600	0.588200	0.425800
C211	C21	0.840900	0.431900	0.951200
N221	N22	0.759400	0.411800	0.925800
C231	C23	0.159100	0.931900	0.548800
N241	N24	0.240600	0.911800	0.574200
C251	C25	0.951200	0.659100	0.931900
N261	N26	0.925800	0.740600	0.911800
C271	C27	0.548800	0.340900	0.431900
N281	N28	0.574200	0.259400	0.411800
C291	C29	0.048800	0.159100	0.568100
N301	N30	0.074200	0.240600	0.588200
C311	C31	0.451200	0.840900	0.068100
N321	N32	0.425800	0.759400	0.088200
C331	C33	0.931900	0.951200	0.659100
N341	N34	0.911800	0.925800	0.740600
C351	C35	0.431900	0.548800	0.340900
N361	N36	0.411800	0.574200	0.259400
C371	C37	0.568100	0.048800	0.159100
N381	N38	0.588200	0.074200	0.240600
C391	C39	0.068100	0.451200	0.840900
N401	N40	0.088200	0.425800	0.759400
C411	C41	0.659100	0.931900	0.951200
N421	N42	0.740600	0.911800	0.925800
C431	C43	0.340900	0.431900	0.548800
N441	N44	0.259400	0.411800	0.574200
C451	C45	0.159100	0.568100	0.048800
N461	N46	0.240600	0.588200	0.074200
C471	C47	0.840900	0.068100	0.451200
N481	N48	0.759400	0.088200	0.425800
C491	C49	0.026200	0.026200	0.026200
Zn501	Zn50	0.108190	0.108190	0.108190
C511	C51	0.473800	0.973800	0.526200
Zn521	Zn52	0.391810	0.891810	0.608190
C531	C53	0.973800	0.526200	0.473800
Zn541	Zn54	0.891810	0.608190	0.391810
C551	C55	0.526200	0.473800	0.973800
Zn561	Zn56	0.608190	0.391810	0.891810
C571	C57	0.973800	0.973800	0.973800
Zn581	Zn58	0.891810	0.891810	0.891810
C591	C59	0.526200	0.026200	0.473800
Zn601	Zn60	0.608190	0.108190	0.391810
C611	C61	0.026200	0.473800	0.526200
Zn621	Zn62	0.108190	0.391810	0.608190
C631	C63	0.473800	0.526200	0.026200
Zn641	Zn64	0.391810	0.608190	0.108190
Zn651	Zn65	0.500000	0.500000	0.500000
Zn661	Zn66	0.000000	0.500000	0.000000
Zn671	Zn67	0.500000	0.000000	0.000000
Zn681	Zn68	0.000000	0.000000	0.500000
