data_ja406030p_si_006_manual_PM
_symmetry_space_group_name_H-M	'P1'
_cell_length_a	19.169200
_cell_length_b	19.169200
_cell_length_c	35.986000
_cell_angle_alpha	90.000000
_cell_angle_beta	90.000000
_cell_angle_gamma	120.000000
_symmetry_Int_Tables_number 1

loop_
_symmetry_equiv_pos_as_xyz
'x,y,z'

loop_
_atom_site_label
_atom_site_type_symbol
_atom_site_fract_x
_atom_site_fract_y
_atom_site_fract_z
H11	H1	0.102900	0.284300	0.873100
H21	H2	0.075600	0.357400	0.580400
H31	H3	0.858500	0.325500	0.847700
H41	H4	0.554200	0.910200	0.407200
C51	C5	0.722500	0.569600	0.040970
C61	C6	0.867700	0.494400	0.640690
C71	C7	0.545000	0.902900	0.976490
C81	C8	0.392200	0.494000	0.104870
C91	C9	0.248800	0.872300	0.570900
O101	O10	0.457560	0.798560	0.210150
O111	O11	0.961750	0.405750	0.042600
O121	O12	0.886760	0.369470	0.508640
H131	H13	0.715700	0.818600	0.873100
H141	H14	0.642600	0.718200	0.580400
H151	H15	0.674500	0.533000	0.847700
H161	H16	0.089800	0.644000	0.407200
C171	C17	0.430400	0.152900	0.040970
C181	C18	0.505600	0.373300	0.640690
C191	C19	0.097100	0.642100	0.976490
C201	C20	0.506000	0.898200	0.104870
C211	C21	0.127700	0.376500	0.570900
O221	O22	0.201440	0.659000	0.210150
O231	O23	0.594250	0.556000	0.042600
O241	O24	0.630530	0.517290	0.508640
H251	H25	0.181400	0.897100	0.873100
H261	H26	0.281800	0.924400	0.580400
H271	H27	0.467000	0.141500	0.847700
H281	H28	0.356000	0.445800	0.407200
C291	C29	0.847100	0.277500	0.040970
C301	C30	0.626700	0.132300	0.640690
C311	C31	0.357900	0.455000	0.976490
C321	C32	0.101800	0.607800	0.104870
C331	C33	0.623500	0.751200	0.570900
O341	O34	0.341000	0.542440	0.210150
O351	O35	0.444000	0.038250	0.042600
O361	O36	0.482710	0.113240	0.508640
H371	H37	0.897100	0.715700	0.373100
H381	H38	0.924400	0.642600	0.080400
H391	H39	0.141500	0.674500	0.347700
H401	H40	0.445800	0.089800	0.907200
C411	C41	0.277500	0.430400	0.540970
C421	C42	0.132300	0.505600	0.140690
C431	C43	0.455000	0.097100	0.476490
C441	C44	0.607800	0.506000	0.604870
C451	C45	0.751200	0.127700	0.070900
O461	O46	0.542440	0.201440	0.710150
O471	O47	0.038250	0.594250	0.542600
O481	O48	0.113240	0.630530	0.008640
H491	H49	0.284300	0.181400	0.373100
H501	H50	0.357400	0.281800	0.080400
H511	H51	0.325500	0.467000	0.347700
H521	H52	0.910200	0.356000	0.907200
C531	C53	0.569600	0.847100	0.540970
C541	C54	0.494400	0.626700	0.140690
C551	C55	0.902900	0.357900	0.476490
C561	C56	0.494000	0.101800	0.604870
C571	C57	0.872300	0.623500	0.070900
O581	O58	0.798560	0.341000	0.710150
O591	O59	0.405750	0.444000	0.542600
O601	O60	0.369470	0.482710	0.008640
H611	H61	0.818600	0.102900	0.373100
H621	H62	0.718200	0.075600	0.080400
H631	H63	0.533000	0.858500	0.347700
H641	H64	0.644000	0.554200	0.907200
C651	C65	0.152900	0.722500	0.540970
C661	C66	0.373300	0.867700	0.140690
C671	C67	0.642100	0.545000	0.476490
C681	C68	0.898200	0.392200	0.604870
C691	C69	0.376500	0.248800	0.070900
O701	O70	0.659000	0.457560	0.710150
O711	O71	0.556000	0.961750	0.542600
O721	O72	0.517290	0.886760	0.008640
H731	H73	0.284300	0.102900	0.126900
H741	H74	0.357400	0.075600	0.419600
H751	H75	0.325500	0.858500	0.152300
H761	H76	0.910200	0.554200	0.592800
C771	C77	0.569600	0.722500	0.959030
C781	C78	0.494400	0.867700	0.359310
C791	C79	0.902900	0.545000	0.023510
C801	C80	0.494000	0.392200	0.895130
C811	C81	0.872300	0.248800	0.429100
O821	O82	0.798560	0.457560	0.789850
O831	O83	0.405750	0.961750	0.957400
O841	O84	0.369470	0.886760	0.491360
H851	H85	0.818600	0.715700	0.126900
H861	H86	0.718200	0.642600	0.419600
H871	H87	0.533000	0.674500	0.152300
H881	H88	0.644000	0.089800	0.592800
C891	C89	0.152900	0.430400	0.959030
C901	C90	0.373300	0.505600	0.359310
C911	C91	0.642100	0.097100	0.023510
C921	C92	0.898200	0.506000	0.895130
C931	C93	0.376500	0.127700	0.429100
O941	O94	0.659000	0.201440	0.789850
O951	O95	0.556000	0.594250	0.957400
O961	O96	0.517290	0.630530	0.491360
H971	H97	0.897100	0.181400	0.126900
H981	H98	0.924400	0.281800	0.419600
H991	H99	0.141500	0.467000	0.152300
H1001	H100	0.445800	0.356000	0.592800
C1011	C101	0.277500	0.847100	0.959030
C1021	C102	0.132300	0.626700	0.359310
C1031	C103	0.455000	0.357900	0.023510
C1041	C104	0.607800	0.101800	0.895130
C1051	C105	0.751200	0.623500	0.429100
O1061	O106	0.542440	0.341000	0.789850
O1071	O107	0.038250	0.444000	0.957400
O1081	O108	0.113240	0.482710	0.491360
H1091	H109	0.715700	0.897100	0.626900
H1101	H110	0.642600	0.924400	0.919600
H1111	H111	0.674500	0.141500	0.652300
H1121	H112	0.089800	0.445800	0.092800
C1131	C113	0.430400	0.277500	0.459030
C1141	C114	0.505600	0.132300	0.859310
C1151	C115	0.097100	0.455000	0.523510
C1161	C116	0.506000	0.607800	0.395130
C1171	C117	0.127700	0.751200	0.929100
O1181	O118	0.201440	0.542440	0.289850
O1191	O119	0.594250	0.038250	0.457400
O1201	O120	0.630530	0.113240	0.991360
H1211	H121	0.181400	0.284300	0.626900
H1221	H122	0.281800	0.357400	0.919600
H1231	H123	0.467000	0.325500	0.652300
H1241	H124	0.356000	0.910200	0.092800
C1251	C125	0.847100	0.569600	0.459030
C1261	C126	0.626700	0.494400	0.859310
C1271	C127	0.357900	0.902900	0.523510
C1281	C128	0.101800	0.494000	0.395130
C1291	C129	0.623500	0.872300	0.929100
O1301	O130	0.341000	0.798560	0.289850
O1311	O131	0.444000	0.405750	0.457400
O1321	O132	0.482710	0.369470	0.991360
H1331	H133	0.102900	0.818600	0.626900
H1341	H134	0.075600	0.718200	0.919600
H1351	H135	0.858500	0.533000	0.652300
H1361	H136	0.554200	0.644000	0.092800
C1371	C137	0.722500	0.152900	0.459030
C1381	C138	0.867700	0.373300	0.859310
C1391	C139	0.545000	0.642100	0.523510
C1401	C140	0.392200	0.898200	0.395130
C1411	C141	0.248800	0.376500	0.929100
O1421	O142	0.457560	0.659000	0.289850
O1431	O143	0.961750	0.556000	0.457400
O1441	O144	0.886760	0.517290	0.991360
H1451	H145	0.897100	0.715700	0.126900
H1461	H146	0.924400	0.642600	0.419600
H1471	H147	0.141500	0.674500	0.152300
H1481	H148	0.445800	0.089800	0.592800
C1491	C149	0.277500	0.430400	0.959030
C1501	C150	0.132300	0.505600	0.359310
C1511	C151	0.455000	0.097100	0.023510
C1521	C152	0.607800	0.506000	0.895130
C1531	C153	0.751200	0.127700	0.429100
O1541	O154	0.542440	0.201440	0.789850
O1551	O155	0.038250	0.594250	0.957400
O1561	O156	0.113240	0.630530	0.491360
H1571	H157	0.284300	0.181400	0.126900
H1581	H158	0.357400	0.281800	0.419600
H1591	H159	0.325500	0.467000	0.152300
H1601	H160	0.910200	0.356000	0.592800
C1611	C161	0.569600	0.847100	0.959030
C1621	C162	0.494400	0.626700	0.359310
C1631	C163	0.902900	0.357900	0.023510
C1641	C164	0.494000	0.101800	0.895130
C1651	C165	0.872300	0.623500	0.429100
O1661	O166	0.798560	0.341000	0.789850
O1671	O167	0.405750	0.444000	0.957400
O1681	O168	0.369470	0.482710	0.491360
H1691	H169	0.818600	0.102900	0.126900
H1701	H170	0.718200	0.075600	0.419600
H1711	H171	0.533000	0.858500	0.152300
H1721	H172	0.644000	0.554200	0.592800
C1731	C173	0.152900	0.722500	0.959030
C1741	C174	0.373300	0.867700	0.359310
C1751	C175	0.642100	0.545000	0.023510
C1761	C176	0.898200	0.392200	0.895130
C1771	C177	0.376500	0.248800	0.429100
O1781	O178	0.659000	0.457560	0.789850
O1791	O179	0.556000	0.961750	0.957400
O1801	O180	0.517290	0.886760	0.491360
H1811	H181	0.102900	0.284300	0.626900
H1821	H182	0.075600	0.357400	0.919600
H1831	H183	0.858500	0.325500	0.652300
H1841	H184	0.554200	0.910200	0.092800
C1851	C185	0.722500	0.569600	0.459030
C1861	C186	0.867700	0.494400	0.859310
C1871	C187	0.545000	0.902900	0.523510
C1881	C188	0.392200	0.494000	0.395130
C1891	C189	0.248800	0.872300	0.929100
O1901	O190	0.457560	0.798560	0.289850
O1911	O191	0.961750	0.405750	0.457400
O1921	O192	0.886760	0.369470	0.991360
H1931	H193	0.715700	0.818600	0.626900
H1941	H194	0.642600	0.718200	0.919600
H1951	H195	0.674500	0.533000	0.652300
H1961	H196	0.089800	0.644000	0.092800
C1971	C197	0.430400	0.152900	0.459030
C1981	C198	0.505600	0.373300	0.859310
C1991	C199	0.097100	0.642100	0.523510
C2001	C200	0.506000	0.898200	0.395130
C2011	C201	0.127700	0.376500	0.929100
O2021	O202	0.201440	0.659000	0.289850
O2031	O203	0.594250	0.556000	0.457400
O2041	O204	0.630530	0.517290	0.991360
H2051	H205	0.181400	0.897100	0.626900
H2061	H206	0.281800	0.924400	0.919600
H2071	H207	0.467000	0.141500	0.652300
H2081	H208	0.356000	0.445800	0.092800
C2091	C209	0.847100	0.277500	0.459030
C2101	C210	0.626700	0.132300	0.859310
C2111	C211	0.357900	0.455000	0.523510
C2121	C212	0.101800	0.607800	0.395130
C2131	C213	0.623500	0.751200	0.929100
O2141	O214	0.341000	0.542440	0.289850
O2151	O215	0.444000	0.038250	0.457400
O2161	O216	0.482710	0.113240	0.991360
H2171	H217	0.715700	0.897100	0.873100
H2181	H218	0.642600	0.924400	0.580400
H2191	H219	0.674500	0.141500	0.847700
H2201	H220	0.089800	0.445800	0.407200
C2211	C221	0.430400	0.277500	0.040970
C2221	C222	0.505600	0.132300	0.640690
C2231	C223	0.097100	0.455000	0.976490
C2241	C224	0.506000	0.607800	0.104870
C2251	C225	0.127700	0.751200	0.570900
O2261	O226	0.201440	0.542440	0.210150
O2271	O227	0.594250	0.038250	0.042600
O2281	O228	0.630530	0.113240	0.508640
H2291	H229	0.181400	0.284300	0.873100
H2301	H230	0.281800	0.357400	0.580400
H2311	H231	0.467000	0.325500	0.847700
H2321	H232	0.356000	0.910200	0.407200
C2331	C233	0.847100	0.569600	0.040970
C2341	C234	0.626700	0.494400	0.640690
C2351	C235	0.357900	0.902900	0.976490
C2361	C236	0.101800	0.494000	0.104870
C2371	C237	0.623500	0.872300	0.570900
O2381	O238	0.341000	0.798560	0.210150
O2391	O239	0.444000	0.405750	0.042600
O2401	O240	0.482710	0.369470	0.508640
H2411	H241	0.102900	0.818600	0.873100
H2421	H242	0.075600	0.718200	0.580400
H2431	H243	0.858500	0.533000	0.847700
H2441	H244	0.554200	0.644000	0.407200
C2451	C245	0.722500	0.152900	0.040970
C2461	C246	0.867700	0.373300	0.640690
C2471	C247	0.545000	0.642100	0.976490
C2481	C248	0.392200	0.898200	0.104870
C2491	C249	0.248800	0.376500	0.570900
O2501	O250	0.457560	0.659000	0.210150
O2511	O251	0.961750	0.556000	0.042600
O2521	O252	0.886760	0.517290	0.508640
H2531	H253	0.284300	0.102900	0.373100
H2541	H254	0.357400	0.075600	0.080400
H2551	H255	0.325500	0.858500	0.347700
H2561	H256	0.910200	0.554200	0.907200
C2571	C257	0.569600	0.722500	0.540970
C2581	C258	0.494400	0.867700	0.140690
C2591	C259	0.902900	0.545000	0.476490
C2601	C260	0.494000	0.392200	0.604870
C2611	C261	0.872300	0.248800	0.070900
O2621	O262	0.798560	0.457560	0.710150
O2631	O263	0.405750	0.961750	0.542600
O2641	O264	0.369470	0.886760	0.008640
H2651	H265	0.818600	0.715700	0.373100
H2661	H266	0.718200	0.642600	0.080400
H2671	H267	0.533000	0.674500	0.347700
H2681	H268	0.644000	0.089800	0.907200
C2691	C269	0.152900	0.430400	0.540970
C2701	C270	0.373300	0.505600	0.140690
C2711	C271	0.642100	0.097100	0.476490
C2721	C272	0.898200	0.506000	0.604870
C2731	C273	0.376500	0.127700	0.070900
O2741	O274	0.659000	0.201440	0.710150
O2751	O275	0.556000	0.594250	0.542600
O2761	O276	0.517290	0.630530	0.008640
H2771	H277	0.897100	0.181400	0.373100
H2781	H278	0.924400	0.281800	0.080400
H2791	H279	0.141500	0.467000	0.347700
H2801	H280	0.445800	0.356000	0.907200
C2811	C281	0.277500	0.847100	0.540970
C2821	C282	0.132300	0.626700	0.140690
C2831	C283	0.455000	0.357900	0.476490
C2841	C284	0.607800	0.101800	0.604870
C2851	C285	0.751200	0.623500	0.070900
O2861	O286	0.542440	0.341000	0.710150
O2871	O287	0.038250	0.444000	0.542600
O2881	O288	0.113240	0.482710	0.008640
Zn2891	Zn289	0.046000	0.523000	0.465760
Zn2901	Zn290	0.477000	0.523000	0.465760
Zn2911	Zn291	0.477000	0.954000	0.465760
Zn2921	Zn292	0.954000	0.477000	0.965760
Zn2931	Zn293	0.523000	0.477000	0.965760
Zn2941	Zn294	0.523000	0.046000	0.965760
Zn2951	Zn295	0.523000	0.046000	0.534240
Zn2961	Zn296	0.523000	0.477000	0.534240
Zn2971	Zn297	0.954000	0.477000	0.534240
Zn2981	Zn298	0.477000	0.954000	0.034240
Zn2991	Zn299	0.477000	0.523000	0.034240
Zn3001	Zn300	0.046000	0.523000	0.034240
Cr3011	Cr301	0.724160	0.448320	0.750000
Cr3021	Cr302	0.551680	0.275840	0.750000
Cr3031	Cr303	0.724160	0.275840	0.750000
Cr3041	Cr304	0.275840	0.551680	0.250000
Cr3051	Cr305	0.448320	0.724160	0.250000
Cr3061	Cr306	0.275840	0.724160	0.250000
H3071	H307	0.762750	0.237250	0.000200
C3081	C308	0.175150	0.824850	0.587000
N3091	N309	0.544440	0.455560	0.912960
H3101	H310	0.762750	0.525500	0.000200
C3111	C311	0.175150	0.350300	0.587000
N3121	N312	0.544440	0.088880	0.912960
H3131	H313	0.474500	0.237250	0.000200
C3141	C314	0.649700	0.824850	0.587000
N3151	N315	0.911120	0.455560	0.912960
H3161	H316	0.237250	0.762750	0.500200
C3171	C317	0.824850	0.175150	0.087000
N3181	N318	0.455560	0.544440	0.412960
H3191	H319	0.237250	0.474500	0.500200
C3201	C320	0.824850	0.649700	0.087000
N3211	N321	0.455560	0.911120	0.412960
H3221	H322	0.525500	0.762750	0.500200
C3231	C323	0.350300	0.175150	0.087000
N3241	N324	0.088880	0.544440	0.412960
H3251	H325	0.237250	0.762750	0.999800
C3261	C326	0.824850	0.175150	0.413000
N3271	N327	0.455560	0.544440	0.087040
H3281	H328	0.525500	0.762750	0.999800
C3291	C329	0.350300	0.175150	0.413000
N3301	N330	0.088880	0.544440	0.087040
H3311	H331	0.237250	0.474500	0.999800
C3321	C332	0.824850	0.649700	0.413000
N3331	N333	0.455560	0.911120	0.087040
H3341	H334	0.762750	0.237250	0.499800
C3351	C335	0.175150	0.824850	0.913000
N3361	N336	0.544440	0.455560	0.587040
H3371	H337	0.474500	0.237250	0.499800
C3381	C338	0.649700	0.824850	0.913000
N3391	N339	0.911120	0.455560	0.587040
H3401	H340	0.762750	0.525500	0.499800
C3411	C341	0.175150	0.350300	0.913000
N3421	N342	0.544440	0.088880	0.587040
C3431	C343	0.851840	0.425920	0.841710
C3441	C344	0.449200	0.224600	0.476450
N3451	N345	0.300300	0.150150	0.117300
C3461	C346	0.574080	0.425920	0.841710
C3471	C347	0.775400	0.224600	0.476450
N3481	N348	0.849850	0.150150	0.117300
C3491	C349	0.574080	0.148160	0.841710
C3501	C350	0.775400	0.550800	0.476450
N3511	N351	0.849850	0.699700	0.117300
C3521	C352	0.148160	0.574080	0.341710
C3531	C353	0.550800	0.775400	0.976450
N3541	N354	0.699700	0.849850	0.617300
C3551	C355	0.425920	0.574080	0.341710
C3561	C356	0.224600	0.775400	0.976450
N3571	N357	0.150150	0.849850	0.617300
C3581	C358	0.425920	0.851840	0.341710
C3591	C359	0.224600	0.449200	0.976450
N3601	N360	0.150150	0.300300	0.617300
C3611	C361	0.425920	0.851840	0.158290
C3621	C362	0.224600	0.449200	0.523550
N3631	N363	0.150150	0.300300	0.882700
C3641	C364	0.425920	0.574080	0.158290
C3651	C365	0.224600	0.775400	0.523550
N3661	N366	0.150150	0.849850	0.882700
C3671	C367	0.148160	0.574080	0.158290
C3681	C368	0.550800	0.775400	0.523550
N3691	N369	0.699700	0.849850	0.882700
C3701	C370	0.574080	0.148160	0.658290
C3711	C371	0.775400	0.550800	0.023550
N3721	N372	0.849850	0.699700	0.382700
C3731	C373	0.574080	0.425920	0.658290
C3741	C374	0.775400	0.224600	0.023550
N3751	N375	0.849850	0.150150	0.382700
C3761	C376	0.851840	0.425920	0.658290
C3771	C377	0.449200	0.224600	0.023550
N3781	N378	0.300300	0.150150	0.382700
C3791	C379	0.406680	0.813360	0.196350
C3801	C380	0.186640	0.593320	0.196350
C3811	C381	0.406680	0.593320	0.196350
C3821	C382	0.593320	0.186640	0.696350
C3831	C383	0.813360	0.406680	0.696350
C3841	C384	0.593320	0.406680	0.696350
C3851	C385	0.813360	0.406680	0.803650
C3861	C386	0.593320	0.186640	0.803650
C3871	C387	0.593320	0.406680	0.803650
C3881	C388	0.186640	0.593320	0.303650
C3891	C389	0.406680	0.813360	0.303650
C3901	C390	0.406680	0.593320	0.303650
O3911	O391	0.666670	0.333330	0.750000
O3921	O392	0.333330	0.666670	0.250000
