data_ja406030p_si_009_manual_PM
_symmetry_space_group_name_H-M	'P1'
_cell_length_a	19.234300
_cell_length_b	19.234300
_cell_length_c	36.009000
_cell_angle_alpha	90.000000
_cell_angle_beta	90.000000
_cell_angle_gamma	120.000000
_symmetry_Int_Tables_number 1

loop_
_symmetry_equiv_pos_as_xyz
'x,y,z'

loop_
_atom_site_label
_atom_site_type_symbol
_atom_site_fract_x
_atom_site_fract_y
_atom_site_fract_z
H11	H1	0.282200	0.922400	0.919900
H21	H2	0.909900	0.555000	0.593000
H31	H3	0.232200	0.964600	0.882900
H41	H4	0.674800	0.142300	0.847700
C51	C5	0.101900	0.493100	0.394950
C61	C6	0.794100	0.077700	0.135400
C71	C7	0.567000	0.721300	0.959090
C81	C8	0.902130	0.357630	0.023440
C91	C9	0.373000	0.505500	0.140700
C101	C10	0.378800	0.129700	0.429200
O111	O11	0.630130	0.113320	0.991280
O121	O12	0.444930	0.406030	0.042420
O131	O13	0.340600	0.797880	0.210030
H141	H14	0.077600	0.359800	0.919900
H151	H15	0.445000	0.354900	0.593000
H161	H16	0.857700	0.532500	0.847700
H171	H17	0.245900	0.330300	0.851200
C181	C18	0.506900	0.608800	0.394950
C191	C19	0.922300	0.716400	0.135400
C201	C20	0.278700	0.845700	0.959090
C211	C21	0.642370	0.544500	0.023440
C221	C22	0.494500	0.867500	0.140700
C231	C23	0.870300	0.249100	0.429200
O241	O24	0.886680	0.516810	0.991280
O251	O25	0.593970	0.038900	0.042420
O261	O26	0.202120	0.542720	0.210030
H271	H27	0.936500	0.760200	0.347300
H281	H28	0.640200	0.717800	0.919900
H291	H29	0.645100	0.090100	0.593000
H301	H30	0.467500	0.325200	0.847700
H311	H31	0.669700	0.915600	0.851200
C321	C32	0.391200	0.898100	0.394950
C331	C33	0.283600	0.205900	0.135400
C341	C34	0.154300	0.433000	0.959090
C351	C35	0.455500	0.097870	0.023440
C361	C36	0.132500	0.627000	0.140700
C371	C37	0.750900	0.621200	0.429200
O381	O38	0.483190	0.369870	0.991280
O391	O39	0.961100	0.555070	0.042420
O401	O40	0.457280	0.659400	0.210030
H411	H41	0.717800	0.077600	0.419900
H421	H42	0.090100	0.445000	0.093000
H431	H43	0.325200	0.857700	0.347700
H441	H44	0.915600	0.245900	0.351200
C451	C45	0.898100	0.506900	0.894950
C461	C46	0.433000	0.278700	0.459090
C471	C47	0.097870	0.642370	0.523440
C481	C48	0.627000	0.494500	0.640700
C491	C49	0.621200	0.870300	0.929200
O501	O50	0.369870	0.886680	0.491280
O511	O51	0.555070	0.593970	0.542420
O521	O52	0.659400	0.202120	0.710030
H531	H53	0.176300	0.936500	0.847300
H541	H54	0.922400	0.640200	0.419900
H551	H55	0.555000	0.645100	0.093000
H561	H56	0.964600	0.732400	0.382900
H571	H57	0.142300	0.467500	0.347700
C581	C58	0.493100	0.391200	0.894950
C591	C59	0.077700	0.283600	0.635400
C601	C60	0.721300	0.154300	0.459090
C611	C61	0.357630	0.455500	0.523440
C621	C62	0.505500	0.132500	0.640700
C631	C63	0.129700	0.750900	0.929200
O641	O64	0.113320	0.483190	0.491280
O651	O65	0.406030	0.961100	0.542420
O661	O66	0.797880	0.457280	0.710030
H671	H67	0.359800	0.282200	0.419900
H681	H68	0.354900	0.909900	0.093000
H691	H69	0.532500	0.674800	0.347700
H701	H70	0.330300	0.084400	0.351200
C711	C71	0.608800	0.101900	0.894950
C721	C72	0.716400	0.794100	0.635400
C731	C73	0.845700	0.567000	0.459090
C741	C74	0.544500	0.902130	0.523440
C751	C75	0.867500	0.373000	0.640700
C761	C76	0.249100	0.378800	0.929200
O771	O77	0.516810	0.630130	0.491280
O781	O78	0.038900	0.444930	0.542420
O791	O79	0.542720	0.340600	0.710030
H801	H80	0.922400	0.282200	0.080100
H811	H81	0.555000	0.909900	0.407000
H821	H82	0.142300	0.674800	0.152300
H831	H83	0.754100	0.084400	0.148800
C841	C84	0.493100	0.101900	0.605050
C851	C85	0.721300	0.567000	0.040910
C861	C86	0.357630	0.902130	0.976560
C871	C87	0.505500	0.373000	0.859300
C881	C88	0.129700	0.378800	0.570800
O891	O89	0.113320	0.630130	0.008720
O901	O90	0.406030	0.444930	0.957580
O911	O91	0.797880	0.340600	0.789970
H921	H92	0.063500	0.823700	0.652700
H931	H93	0.359800	0.077600	0.080100
H941	H94	0.354900	0.445000	0.407000
H951	H95	0.532500	0.857700	0.152300
H961	H96	0.330300	0.245900	0.148800
C971	C97	0.608800	0.506900	0.605050
C981	C98	0.716400	0.922300	0.864600
C991	C99	0.845700	0.278700	0.040910
C1001	C100	0.544500	0.642370	0.976560
C1011	C101	0.867500	0.494500	0.859300
C1021	C102	0.249100	0.870300	0.570800
O1031	O103	0.516810	0.886680	0.008720
O1041	O104	0.038900	0.593970	0.957580
O1051	O105	0.542720	0.202120	0.789970
H1061	H106	0.717800	0.640200	0.080100
H1071	H107	0.090100	0.645100	0.407000
H1081	H108	0.325200	0.467500	0.152300
H1091	H109	0.915600	0.669700	0.148800
C1101	C110	0.898100	0.391200	0.605050
C1111	C111	0.205900	0.283600	0.864600
C1121	C112	0.433000	0.154300	0.040910
C1131	C113	0.097870	0.455500	0.976560
C1141	C114	0.627000	0.132500	0.859300
C1151	C115	0.621200	0.750900	0.570800
O1161	O116	0.369870	0.483190	0.008720
O1171	O117	0.555070	0.961100	0.957580
O1181	O118	0.659400	0.457280	0.789970
H1191	H119	0.077600	0.717800	0.580100
H1201	H120	0.445000	0.090100	0.907000
H1211	H121	0.035400	0.767800	0.617100
H1221	H122	0.857700	0.325200	0.652300
C1231	C123	0.506900	0.898100	0.105050
C1241	C124	0.922300	0.205900	0.364600
C1251	C125	0.278700	0.433000	0.540910
C1261	C126	0.642370	0.097870	0.476560
C1271	C127	0.494500	0.627000	0.359300
C1281	C128	0.870300	0.621200	0.070800
O1291	O129	0.886680	0.369870	0.508720
O1301	O130	0.593970	0.555070	0.457580
O1311	O131	0.202120	0.659400	0.289970
H1321	H132	0.640200	0.922400	0.580100
H1331	H133	0.645100	0.555000	0.907000
H1341	H134	0.467500	0.142300	0.652300
H1351	H135	0.669700	0.754100	0.648800
C1361	C136	0.391200	0.493100	0.105050
C1371	C137	0.283600	0.077700	0.364600
C1381	C138	0.154300	0.721300	0.540910
C1391	C139	0.455500	0.357630	0.476560
C1401	C140	0.132500	0.505500	0.359300
C1411	C141	0.750900	0.129700	0.070800
O1421	O142	0.483190	0.113320	0.508720
O1431	O143	0.961100	0.406030	0.457580
O1441	O144	0.457280	0.797880	0.289970
H1451	H145	0.282200	0.359800	0.580100
H1461	H146	0.909900	0.354900	0.907000
H1471	H147	0.674800	0.532500	0.652300
H1481	H148	0.084400	0.330300	0.648800
C1491	C149	0.101900	0.608800	0.105050
C1501	C150	0.567000	0.845700	0.540910
C1511	C151	0.902130	0.544500	0.476560
C1521	C152	0.373000	0.867500	0.359300
C1531	C153	0.378800	0.249100	0.070800
O1541	O154	0.630130	0.516810	0.508720
O1551	O155	0.444930	0.038900	0.457580
O1561	O156	0.340600	0.542720	0.289970
H1571	H157	0.760200	0.823700	0.652700
H1581	H158	0.717800	0.077600	0.080100
H1591	H159	0.090100	0.445000	0.407000
H1601	H160	0.767800	0.035400	0.117100
H1611	H161	0.325200	0.857700	0.152300
C1621	C162	0.898100	0.506900	0.605050
C1631	C163	0.205900	0.922300	0.864600
C1641	C164	0.433000	0.278700	0.040910
C1651	C165	0.097870	0.642370	0.976560
C1661	C166	0.627000	0.494500	0.859300
C1671	C167	0.621200	0.870300	0.570800
O1681	O168	0.369870	0.886680	0.008720
O1691	O169	0.555070	0.593970	0.957580
O1701	O170	0.659400	0.202120	0.789970
H1711	H171	0.922400	0.640200	0.080100
H1721	H172	0.555000	0.645100	0.407000
H1731	H173	0.964600	0.732400	0.117100
H1741	H174	0.142300	0.467500	0.152300
C1751	C175	0.493100	0.391200	0.605050
C1761	C176	0.721300	0.154300	0.040910
C1771	C177	0.357630	0.455500	0.976560
C1781	C178	0.505500	0.132500	0.859300
C1791	C179	0.129700	0.750900	0.570800
O1801	O180	0.113320	0.483190	0.008720
O1811	O181	0.406030	0.961100	0.957580
O1821	O182	0.797880	0.457280	0.789970
H1831	H183	0.063500	0.239800	0.652700
H1841	H184	0.359800	0.282200	0.080100
H1851	H185	0.354900	0.909900	0.407000
H1861	H186	0.267600	0.232200	0.117100
H1871	H187	0.532500	0.674800	0.152300
C1881	C188	0.608800	0.101900	0.605050
C1891	C189	0.845700	0.567000	0.040910
C1901	C190	0.544500	0.902130	0.976560
C1911	C191	0.867500	0.373000	0.859300
C1921	C192	0.249100	0.378800	0.570800
O1931	O193	0.516810	0.630130	0.008720
O1941	O194	0.038900	0.444930	0.957580
O1951	O195	0.542720	0.340600	0.789970
H1961	H196	0.239800	0.176300	0.152700
H1971	H197	0.282200	0.922400	0.580100
H1981	H198	0.909900	0.555000	0.907000
H1991	H199	0.674800	0.142300	0.652300
H2001	H200	0.084400	0.754100	0.648800
C2011	C201	0.101900	0.493100	0.105050
C2021	C202	0.567000	0.721300	0.540910
C2031	C203	0.902130	0.357630	0.476560
C2041	C204	0.373000	0.505500	0.359300
C2051	C205	0.378800	0.129700	0.070800
O2061	O206	0.630130	0.113320	0.508720
O2071	O207	0.444930	0.406030	0.457580
O2081	O208	0.340600	0.797880	0.289970
H2091	H209	0.823700	0.063500	0.152700
H2101	H210	0.077600	0.359800	0.580100
H2111	H211	0.445000	0.354900	0.907000
H2121	H212	0.035400	0.267600	0.617100
H2131	H213	0.857700	0.532500	0.652300
C2141	C214	0.506900	0.608800	0.105050
C2151	C215	0.922300	0.716400	0.364600
C2161	C216	0.278700	0.845700	0.540910
C2171	C217	0.642370	0.544500	0.476560
C2181	C218	0.494500	0.867500	0.359300
C2191	C219	0.870300	0.249100	0.070800
O2201	O220	0.886680	0.516810	0.508720
O2211	O221	0.593970	0.038900	0.457580
O2221	O222	0.202120	0.542720	0.289970
H2231	H223	0.936500	0.760200	0.152700
H2241	H224	0.640200	0.717800	0.580100
H2251	H225	0.645100	0.090100	0.907000
H2261	H226	0.732400	0.767800	0.617100
H2271	H227	0.467500	0.325200	0.652300
C2281	C228	0.391200	0.898100	0.105050
C2291	C229	0.154300	0.433000	0.540910
C2301	C230	0.455500	0.097870	0.476560
C2311	C231	0.132500	0.627000	0.359300
C2321	C232	0.750900	0.621200	0.070800
O2331	O233	0.483190	0.369870	0.508720
O2341	O234	0.961100	0.555070	0.457580
O2351	O235	0.457280	0.659400	0.289970
H2361	H236	0.077600	0.717800	0.919900
H2371	H237	0.445000	0.090100	0.593000
H2381	H238	0.857700	0.325200	0.847700
H2391	H239	0.245900	0.915600	0.851200
C2401	C240	0.506900	0.898100	0.394950
C2411	C241	0.278700	0.433000	0.959090
C2421	C242	0.642370	0.097870	0.023440
C2431	C243	0.494500	0.627000	0.140700
C2441	C244	0.870300	0.621200	0.429200
O2451	O245	0.886680	0.369870	0.991280
O2461	O246	0.593970	0.555070	0.042420
O2471	O247	0.202120	0.659400	0.210030
H2481	H248	0.936500	0.176300	0.347300
H2491	H249	0.640200	0.922400	0.919900
H2501	H250	0.645100	0.555000	0.593000
H2511	H251	0.732400	0.964600	0.882900
H2521	H252	0.467500	0.142300	0.847700
C2531	C253	0.391200	0.493100	0.394950
C2541	C254	0.154300	0.721300	0.959090
C2551	C255	0.455500	0.357630	0.023440
C2561	C256	0.132500	0.505500	0.140700
C2571	C257	0.750900	0.129700	0.429200
O2581	O258	0.483190	0.113320	0.991280
O2591	O259	0.961100	0.406030	0.042420
O2601	O260	0.457280	0.797880	0.210030
H2611	H261	0.239800	0.063500	0.347300
H2621	H262	0.282200	0.359800	0.919900
H2631	H263	0.909900	0.354900	0.593000
H2641	H264	0.232200	0.267600	0.882900
H2651	H265	0.674800	0.532500	0.847700
C2661	C266	0.101900	0.608800	0.394950
C2671	C267	0.567000	0.845700	0.959090
C2681	C268	0.902130	0.544500	0.023440
C2691	C269	0.373000	0.867500	0.140700
C2701	C270	0.378800	0.249100	0.429200
O2711	O271	0.630130	0.516810	0.991280
O2721	O272	0.444930	0.038900	0.042420
O2731	O273	0.340600	0.542720	0.210030
H2741	H274	0.176300	0.239800	0.847300
H2751	H275	0.922400	0.282200	0.419900
H2761	H276	0.555000	0.909900	0.093000
H2771	H277	0.964600	0.232200	0.382900
H2781	H278	0.142300	0.674800	0.347700
C2791	C279	0.493100	0.101900	0.894950
C2801	C280	0.077700	0.794100	0.635400
C2811	C281	0.721300	0.567000	0.459090
C2821	C282	0.357630	0.902130	0.523440
C2831	C283	0.505500	0.373000	0.640700
C2841	C284	0.129700	0.378800	0.929200
O2851	O285	0.113320	0.630130	0.491280
O2861	O286	0.406030	0.444930	0.542420
O2871	O287	0.797880	0.340600	0.710030
H2881	H288	0.359800	0.077600	0.419900
H2891	H289	0.354900	0.445000	0.093000
H2901	H290	0.267600	0.035400	0.382900
H2911	H291	0.532500	0.857700	0.347700
C2921	C292	0.608800	0.506900	0.894950
C2931	C293	0.845700	0.278700	0.459090
C2941	C294	0.544500	0.642370	0.523440
C2951	C295	0.867500	0.494500	0.640700
C2961	C296	0.249100	0.870300	0.929200
O2971	O297	0.516810	0.886680	0.491280
O2981	O298	0.038900	0.593970	0.542420
O2991	O299	0.542720	0.202120	0.710030
H3001	H300	0.760200	0.936500	0.847300
H3011	H301	0.717800	0.640200	0.419900
H3021	H302	0.090100	0.645100	0.093000
H3031	H303	0.325200	0.467500	0.347700
H3041	H304	0.915600	0.669700	0.351200
C3051	C305	0.898100	0.391200	0.894950
C3061	C306	0.433000	0.154300	0.459090
C3071	C307	0.097870	0.455500	0.523440
C3081	C308	0.627000	0.132500	0.640700
C3091	C309	0.621200	0.750900	0.929200
O3101	O310	0.369870	0.483190	0.491280
O3111	O311	0.555070	0.961100	0.542420
O3121	O312	0.659400	0.457280	0.710030
Zn3131	Zn313	0.046100	0.523050	0.034490
Zn3141	Zn314	0.476950	0.523050	0.034490
Zn3151	Zn315	0.476950	0.953900	0.034490
Zn3161	Zn316	0.953900	0.476950	0.534490
Zn3171	Zn317	0.523050	0.476950	0.534490
Zn3181	Zn318	0.523050	0.046100	0.534490
Zn3191	Zn319	0.523050	0.046100	0.965510
Zn3201	Zn320	0.523050	0.476950	0.965510
Zn3211	Zn321	0.953900	0.476950	0.965510
Zn3221	Zn322	0.476950	0.953900	0.465510
Zn3231	Zn323	0.476950	0.523050	0.465510
Zn3241	Zn324	0.046100	0.523050	0.465510
Cr3251	Cr325	0.448090	0.724040	0.250000
Cr3261	Cr326	0.275960	0.724040	0.250000
Cr3271	Cr327	0.275960	0.551910	0.250000
Cr3281	Cr328	0.551910	0.275960	0.750000
Cr3291	Cr329	0.724040	0.275960	0.750000
Cr3301	Cr330	0.724040	0.448090	0.750000
H3311	H331	0.764300	0.235700	0.999700
C3321	C332	0.175750	0.824250	0.587500
H3331	H333	0.764300	0.528600	0.999700
C3341	C334	0.175750	0.351500	0.587500
H3351	H335	0.471400	0.235700	0.999700
C3361	C336	0.648500	0.824250	0.587500
H3371	H337	0.235700	0.764300	0.499700
C3381	C338	0.824250	0.175750	0.087500
H3391	H339	0.235700	0.471400	0.499700
C3401	C340	0.824250	0.648500	0.087500
H3411	H341	0.528600	0.764300	0.499700
C3421	C342	0.351500	0.175750	0.087500
H3431	H343	0.235700	0.764300	0.000300
C3441	C344	0.824250	0.175750	0.412500
H3451	H345	0.528600	0.764300	0.000300
C3461	C346	0.351500	0.175750	0.412500
H3471	H347	0.235700	0.471400	0.000300
C3481	C348	0.824250	0.648500	0.412500
H3491	H349	0.764300	0.235700	0.500300
C3501	C350	0.175750	0.824250	0.912500
H3511	H351	0.471400	0.235700	0.500300
C3521	C352	0.648500	0.824250	0.912500
H3531	H353	0.764300	0.528600	0.500300
C3541	C354	0.175750	0.351500	0.912500
C3551	C355	0.852140	0.426070	0.841390
C3561	C356	0.449000	0.224500	0.476350
N3571	N357	0.911580	0.455790	0.912950
O3581	O358	0.302900	0.151450	0.382900
C3591	C359	0.573930	0.426070	0.841390
C3601	C360	0.775500	0.224500	0.476350
N3611	N361	0.544210	0.455790	0.912950
O3621	O362	0.848550	0.151450	0.382900
C3631	C363	0.573930	0.147860	0.841390
C3641	C364	0.775500	0.551000	0.476350
N3651	N365	0.544210	0.088420	0.912950
O3661	O366	0.848550	0.697100	0.382900
C3671	C367	0.147860	0.573930	0.341390
C3681	C368	0.551000	0.775500	0.976350
N3691	N369	0.088420	0.544210	0.412950
O3701	O370	0.697100	0.848550	0.882900
C3711	C371	0.426070	0.573930	0.341390
C3721	C372	0.224500	0.775500	0.976350
N3731	N373	0.455790	0.544210	0.412950
O3741	O374	0.151450	0.848550	0.882900
C3751	C375	0.426070	0.852140	0.341390
C3761	C376	0.224500	0.449000	0.976350
N3771	N377	0.455790	0.911580	0.412950
O3781	O378	0.151450	0.302900	0.882900
C3791	C379	0.426070	0.852140	0.158610
C3801	C380	0.224500	0.449000	0.523650
N3811	N381	0.455790	0.911580	0.087050
O3821	O382	0.151450	0.302900	0.617100
C3831	C383	0.426070	0.573930	0.158610
C3841	C384	0.224500	0.775500	0.523650
N3851	N385	0.455790	0.544210	0.087050
O3861	O386	0.151450	0.848550	0.617100
C3871	C387	0.147860	0.573930	0.158610
C3881	C388	0.551000	0.775500	0.523650
N3891	N389	0.088420	0.544210	0.087050
O3901	O390	0.697100	0.848550	0.617100
C3911	C391	0.573930	0.147860	0.658610
C3921	C392	0.775500	0.551000	0.023650
N3931	N393	0.544210	0.088420	0.587050
O3941	O394	0.848550	0.697100	0.117100
C3951	C395	0.573930	0.426070	0.658610
C3961	C396	0.775500	0.224500	0.023650
N3971	N397	0.544210	0.455790	0.587050
O3981	O398	0.848550	0.151450	0.117100
C3991	C399	0.852140	0.426070	0.658610
C4001	C400	0.449000	0.224500	0.023650
N4011	N401	0.911580	0.455790	0.587050
O4021	O402	0.302900	0.151450	0.117100
C4031	C403	0.406020	0.812040	0.196200
C4041	C404	0.187960	0.593980	0.196200
C4051	C405	0.406020	0.593980	0.196200
C4061	C406	0.593980	0.187960	0.696200
C4071	C407	0.812040	0.406020	0.696200
C4081	C408	0.593980	0.406020	0.696200
C4091	C409	0.812040	0.406020	0.803800
C4101	C410	0.593980	0.187960	0.803800
C4111	C411	0.593980	0.406020	0.803800
C4121	C412	0.187960	0.593980	0.303800
C4131	C413	0.406020	0.812040	0.303800
C4141	C414	0.406020	0.593980	0.303800
O4151	O415	0.333330	0.666670	0.250000
O4161	O416	0.666670	0.333330	0.750000
