data_ja411887c_si_002_clean_PM
_symmetry_space_group_name_H-M	'P1'
_cell_length_a	24.999600
_cell_length_b	24.999600
_cell_length_c	24.999600
_cell_angle_alpha	109.471000
_cell_angle_beta	109.471000
_cell_angle_gamma	109.471000
_symmetry_Int_Tables_number 1

loop_
_symmetry_equiv_pos_as_xyz
'x,y,z'

loop_
_atom_site_label
_atom_site_type_symbol
_atom_site_fract_x
_atom_site_fract_y
_atom_site_fract_z
Zn11	Zn1	0.927980	0.421010	0.180610
Zn21	Zn2	0.819390	0.740400	0.247370
Zn31	Zn3	0.506970	0.759600	0.578990
Zn41	Zn4	0.759600	0.078990	0.006970
Zn51	Zn5	0.993030	0.572020	0.252630
Zn61	Zn6	0.000000	0.500000	0.338260
Zn71	Zn7	0.838260	0.000000	0.000000
Zn81	Zn8	0.572020	0.752630	0.493030
Zn91	Zn9	0.421010	0.680610	0.427980
Zn101	Zn10	0.078990	0.506970	0.259600
Zn111	Zn11	0.680610	0.927980	0.921010
Zn121	Zn12	0.740400	0.747370	0.319390
Zn131	Zn13	0.661740	0.661740	0.161740
Zn141	Zn14	0.500000	0.838260	0.500000
Zn151	Zn15	0.752630	0.993030	0.072020
Zn161	Zn16	0.747370	0.819390	0.240400
H11	H1	0.512900	0.062500	0.378600
H21	H2	0.540700	0.746400	0.889300
H31	H3	0.406600	0.431300	0.740700
H41	H4	0.948600	0.358400	0.589000
H51	H5	0.621400	0.183900	0.634300
H61	H6	0.644800	0.485100	0.021100
H71	H7	0.389300	0.540700	0.246400
H81	H8	0.357100	0.651400	0.610700
H91	H9	0.276300	0.078300	0.347800
H101	H10	0.855200	0.876300	0.840300
H111	H11	0.338900	0.301800	0.105700
H121	H12	0.431300	0.240700	0.906600
H131	H13	0.485100	0.521100	0.144800
H141	H14	0.670200	0.843700	0.751100
H151	H15	0.894300	0.696100	0.733200
H161	H16	0.161400	0.310900	0.928900
H171	H17	0.673500	0.829800	0.080900
H181	H18	0.189100	0.850500	0.118000
H191	H19	0.907400	0.656300	0.326500
H201	H20	0.183900	0.134300	0.121400
H211	H21	0.590200	0.230600	0.641600
H221	H22	0.909800	0.551400	0.640400
H231	H23	0.834100	0.524700	0.593400
H241	H24	0.605700	0.338900	0.801800
H251	H25	0.651400	0.110700	0.857100
H261	H26	0.140400	0.909800	0.051400
H271	H27	0.521100	0.644800	0.985100
H281	H28	0.665900	0.259300	0.690600
H291	H29	0.359600	0.411000	0.769400
H301	H30	0.068700	0.975300	0.809400
H311	H31	0.302000	0.223700	0.071500
H321	H32	0.975300	0.309400	0.568700
H331	H33	0.159700	0.536000	0.514900
H341	H34	0.062500	0.878600	0.012900
H351	H35	0.618000	0.189100	0.350500
H361	H36	0.524700	0.093400	0.334100
H371	H37	0.089000	0.948600	0.858400
H381	H38	0.251100	0.670200	0.343700
H391	H39	0.536000	0.014900	0.659700
H401	H40	0.847800	0.276300	0.578300
H411	H41	0.233200	0.894300	0.196100
H421	H42	0.071100	0.882000	0.732500
H431	H43	0.848600	0.705700	0.459300
H441	H44	0.919100	0.248900	0.092600
H451	H45	0.826500	0.907400	0.156300
H461	H46	0.338600	0.267500	0.149500
H471	H47	0.705700	0.959300	0.348600
H481	H48	0.696100	0.233200	0.394300
H491	H49	0.142900	0.753600	0.294300
H501	H50	0.959300	0.848600	0.205700
H511	H51	0.656300	0.826500	0.407400
H521	H52	0.301800	0.605700	0.838900
H531	H53	0.462900	0.161100	0.766800
H541	H54	0.310900	0.428900	0.661400
H551	H55	0.269400	0.359600	0.911000
H561	H56	0.551400	0.140400	0.409800
H571	H57	0.078300	0.847800	0.776300
H581	H58	0.358400	0.089000	0.448600
H591	H59	0.340300	0.855200	0.376300
H601	H60	0.269500	0.421700	0.698000
H611	H61	0.161100	0.266800	0.962900
H621	H62	0.649500	0.338600	0.767500
H631	H63	0.746400	0.389300	0.040700
H641	H64	0.267500	0.649500	0.838600
H651	H65	0.753600	0.794300	0.642900
H661	H66	0.428900	0.161400	0.810900
H671	H67	0.803900	0.198200	0.537100
H681	H68	0.882000	0.232500	0.571100
H691	H69	0.978900	0.964000	0.123700
H701	H70	0.049600	0.987100	0.865700
H711	H71	0.571500	0.302000	0.723700
H721	H72	0.421700	0.198000	0.769500
H731	H73	0.037100	0.803900	0.698200
H741	H74	0.309400	0.068700	0.475300
H751	H75	0.437500	0.450400	0.816100
H761	H76	0.230500	0.928500	0.152200
H771	H77	0.794300	0.142900	0.253600
H781	H78	0.198200	0.037100	0.303900
H791	H79	0.876300	0.340300	0.355200
H801	H80	0.093400	0.834100	0.024700
H811	H81	0.878600	0.512900	0.562500
H821	H82	0.259300	0.190600	0.165900
H831	H83	0.316100	0.437500	0.950400
H841	H84	0.141600	0.590200	0.730600
H851	H85	0.411000	0.269400	0.859600
H861	H86	0.623700	0.978900	0.464000
H871	H87	0.964000	0.623700	0.478900
H881	H88	0.240700	0.406600	0.931300
H891	H89	0.843700	0.251100	0.170200
H901	H90	0.592600	0.919100	0.748900
H911	H91	0.450400	0.316100	0.937500
H921	H92	0.110700	0.357100	0.151400
H931	H93	0.014900	0.159700	0.036000
H941	H94	0.198000	0.269500	0.921700
H951	H95	0.232500	0.071100	0.382000
H961	H96	0.190600	0.665900	0.759300
H971	H97	0.134300	0.621400	0.683900
H981	H98	0.580900	0.673500	0.329800
H991	H99	0.223700	0.571500	0.802000
H1001	H100	0.652200	0.230500	0.428500
H1011	H101	0.248900	0.592600	0.419100
H1021	H102	0.230600	0.141600	0.090200
H1031	H103	0.266800	0.462900	0.661100
H1041	H104	0.365700	0.049600	0.487100
H1051	H105	0.829800	0.580900	0.173500
H1061	H106	0.928500	0.652200	0.730500
H1071	H107	0.987100	0.365700	0.549600
H1081	H108	0.850500	0.618000	0.689100
C11	C1	0.541940	0.600840	0.236700
C21	C2	0.958000	0.251500	0.092900
C31	C3	0.259000	0.593800	0.571800
C41	C4	0.142660	0.208460	0.094200
C51	C5	0.718500	0.853100	0.341400
C61	C6	0.451100	0.186900	0.794800
C71	C7	0.048900	0.843700	0.735800
C81	C8	0.684600	0.887560	0.372560
C91	C9	0.267400	0.360100	0.076500
C101	C10	0.011700	0.377100	0.158600
C111	C11	0.660300	0.144400	0.397100
C121	C12	0.543500	0.098700	0.378000
C131	C13	0.706500	0.841400	0.748500
C141	C14	0.687200	0.428200	0.022000
C151	C15	0.622000	0.220700	0.665500
C161	C16	0.865100	0.907100	0.158600
C171	C17	0.297600	0.401300	0.010500
C181	C18	0.670300	0.043900	0.416000
C191	C19	0.055200	0.956500	0.834500
C201	C20	0.015000	0.312040	0.127440
C211	C21	0.291540	0.934200	0.385740
C221	C22	0.905800	0.614260	0.548460
C231	C23	0.212900	0.603700	0.702400
C241	C24	0.355600	0.515900	0.752700
C251	C25	0.247300	0.263200	0.102900
C261	C26	0.488300	0.646900	0.365400
C271	C27	0.428200	0.556000	0.244000
C281	C28	0.841400	0.718500	0.353100
C291	C29	0.628500	0.733300	0.101400
C301	C30	0.144400	0.897100	0.160300
C311	C31	0.593800	0.071800	0.759000
C321	C32	0.522000	0.687200	0.928200
C331	C33	0.897100	0.660300	0.644400
C341	C34	0.781500	0.122900	0.134600
C351	C35	0.015000	0.198540	0.059340
C361	C36	0.309100	0.592700	0.732600
C371	C37	0.878000	0.543500	0.598700
C381	C38	0.334500	0.055200	0.456500
C391	C39	0.184200	0.756000	0.312000
C401	C40	0.510500	0.297600	0.901300
C411	C41	0.235800	0.048900	0.343700
C421	C42	0.658600	0.011700	0.877100
C431	C43	0.287100	0.989500	0.390800
C441	C44	0.665200	0.978000	0.406200
C451	C45	0.071800	0.315800	0.127800
C461	C46	0.187960	0.702960	0.315400
C471	C47	0.315800	0.627800	0.571800
C481	C48	0.428200	0.522000	0.187200
C491	C49	0.254300	0.584000	0.627900
C501	C50	0.885740	0.291540	0.434200
C511	C51	0.756000	0.812000	0.684200
C521	C52	0.989500	0.890800	0.787100
C531	C53	0.485000	0.612440	0.297040
C541	C54	0.860800	0.301460	0.316460
C551	C55	0.603700	0.202400	0.712900
C561	C56	0.797040	0.485000	0.112440
C571	C57	0.313100	0.264200	0.107900
C581	C58	0.899160	0.941100	0.135860
C591	C59	0.955660	0.940660	0.139200
C601	C60	0.812800	0.834800	0.741000
C611	C61	0.940660	0.639200	0.455660
C621	C62	0.871500	0.972900	0.104800
C631	C63	0.604800	0.871500	0.472900
C641	C64	0.635860	0.899160	0.441100
C651	C65	0.778600	0.195400	0.368200
C661	C66	0.956500	0.334500	0.555200
C671	C67	0.584000	0.127900	0.754300
C681	C68	0.898600	0.131900	0.027100
C691	C69	0.592900	0.958000	0.751500
C701	C70	0.614260	0.048460	0.405800
C711	C71	0.139900	0.907300	0.216400
C721	C72	0.872560	0.684600	0.387560
C731	C73	0.634600	0.781500	0.622900
C741	C74	0.984100	0.839700	0.736800
C751	C75	0.896300	0.609200	0.598700
C761	C76	0.944000	0.872200	0.188000
C771	C77	0.410400	0.631800	0.827200
C781	C78	0.401300	0.444800	0.779300
C791	C79	0.195400	0.868200	0.278600
C801	C80	0.279300	0.401300	0.944800
C811	C81	0.327200	0.410400	0.131800
C821	C82	0.232600	0.309100	0.092700
C831	C83	0.401300	0.510500	0.797600
C841	C84	0.245700	0.873600	0.329700
C851	C85	0.872200	0.688000	0.444000
C861	C86	0.098700	0.878000	0.043500
C871	C87	0.294800	0.451100	0.686900
C881	C88	0.527100	0.898600	0.631900
C891	C89	0.864140	0.305240	0.263300
C901	C90	0.958060	0.194760	0.058900
C911	C91	0.972900	0.604800	0.371500
C921	C92	0.626400	0.372100	0.956100
C931	C93	0.208460	0.594200	0.642660
C941	C94	0.251500	0.592900	0.458000
C951	C95	0.601400	0.628500	0.233300
C961	C96	0.559340	0.015000	0.698540
C971	C97	0.377100	0.658600	0.511700
C981	C98	0.721400	0.089600	0.416800
C991	C99	0.834800	0.241000	0.312800
C1001	C100	0.190900	0.923500	0.283600
C1011	C101	0.544340	0.683540	0.985000
C1021	C102	0.241000	0.812800	0.334800
C1031	C103	0.634900	0.793500	0.042000
C1041	C104	0.627440	0.015000	0.812040
C1051	C105	0.048460	0.905800	0.114260
C1061	C106	0.793500	0.542000	0.134900
C1071	C107	0.941100	0.635860	0.399160
C1081	C108	0.444800	0.279300	0.901300
C1091	C109	0.736700	0.541940	0.100840
C1101	C110	0.733300	0.601400	0.128500
C1111	C111	0.556000	0.744000	0.928200
C1121	C112	0.205200	0.892100	0.156300
C1131	C113	0.683540	0.485000	0.044340
C1141	C114	0.594200	0.142660	0.708460
C1151	C115	0.248500	0.706500	0.341400
C1161	C116	0.515900	0.252700	0.855600
C1171	C117	0.368100	0.766700	0.395200
C1181	C118	0.592700	0.232600	0.809100
C1191	C119	0.763300	0.864140	0.805240
C1201	C120	0.600840	0.736700	0.041940
C1211	C121	0.127900	0.254300	0.084000
C1221	C122	0.906200	0.665200	0.478000
C1231	C123	0.892100	0.656300	0.705200
C1241	C124	0.172800	0.304600	0.083200
C1251	C125	0.841400	0.248500	0.206500
C1261	C126	0.122900	0.634600	0.281500
C1271	C127	0.558900	0.958060	0.694760
C1281	C128	0.360100	0.576500	0.767400
C1291	C129	0.873600	0.829700	0.745700
C1301	C130	0.978000	0.906200	0.165200
C1311	C131	0.612440	0.797040	0.985000
C1321	C132	0.607900	0.313100	0.764200
C1331	C133	0.194760	0.558900	0.458060
C1341	C134	0.198540	0.559340	0.515000
C1351	C135	0.816460	0.860800	0.801460
C1361	C136	0.916000	0.670300	0.543900
C1371	C137	0.923500	0.783600	0.690900
C1381	C138	0.688000	0.944000	0.372200
C1391	C139	0.263200	0.602900	0.747300
C1401	C140	0.702960	0.815400	0.687960
C1411	C141	0.071800	0.259000	0.093800
C1421	C142	0.372100	0.456100	0.126400
C1431	C143	0.865400	0.488300	0.146900
C1441	C144	0.202400	0.212900	0.103700
C1451	C145	0.576500	0.267400	0.860100
C1461	C146	0.812000	0.184200	0.256000
C1471	C147	0.098700	0.896300	0.109200
C1481	C148	0.783600	0.190900	0.423500
C1491	C149	0.236800	0.984100	0.339700
C1501	C150	0.264200	0.607900	0.813100
C1511	C151	0.716400	0.139900	0.407300
C1521	C152	0.631800	0.327200	0.910400
C1531	C153	0.451540	0.565800	0.857340
C1541	C154	0.252700	0.355600	0.015900
C1551	C155	0.609200	0.098700	0.396300
C1561	C156	0.868200	0.778600	0.695400
C1571	C157	0.304600	0.583200	0.672800
C1581	C158	0.627800	0.071800	0.815800
C1591	C159	0.934200	0.885740	0.791540
C1601	C160	0.089600	0.916800	0.221400
C1611	C161	0.357340	0.451540	0.065800
C1621	C162	0.887560	0.872560	0.184600
C1631	C163	0.312040	0.627440	0.515000
C1641	C164	0.744000	0.428200	0.056000
C1651	C165	0.301460	0.816460	0.360800
C1661	C166	0.815400	0.187960	0.202960
C1671	C167	0.583200	0.172800	0.804600
C1681	C168	0.456100	0.626400	0.872100
C1691	C169	0.843700	0.235800	0.548900
C1701	C170	0.485000	0.544340	0.183540
C1711	C171	0.766700	0.895200	0.868100
C1721	C172	0.220700	0.165500	0.122000
C1731	C173	0.853100	0.841400	0.218500
C1741	C174	0.565800	0.357340	0.951540
C1751	C175	0.658600	0.865100	0.407100
C1761	C176	0.907300	0.716400	0.639900
C1771	C177	0.639200	0.955660	0.440660
C1781	C178	0.305240	0.763300	0.364140
C1791	C179	0.916800	0.721400	0.589600
C1801	C180	0.839700	0.236800	0.484100
C1811	C181	0.895200	0.368100	0.266700
C1821	C182	0.907100	0.658600	0.365100
C1831	C183	0.890800	0.287100	0.489500
C1841	C184	0.131900	0.527100	0.398600
C1851	C185	0.656300	0.205200	0.392100
C1861	C186	0.602900	0.247300	0.763200
C1871	C187	0.646900	0.865400	0.988300
C1881	C188	0.186900	0.294800	0.951100
C1891	C189	0.165500	0.622000	0.720700
C1901	C190	0.829700	0.245700	0.373600
C1911	C191	0.542000	0.634900	0.293500
C1921	C192	0.043900	0.916000	0.170300
O11	O1	0.699620	0.067880	0.926360
O21	O2	0.573700	0.158500	0.844600
O31	O3	0.637400	0.957470	0.872070
O41	O4	0.679930	0.914600	0.042530
O51	O5	0.067880	0.426360	0.199620
O61	O6	0.426360	0.699620	0.567880
O71	O7	0.830850	0.985800	0.116650
O81	O8	0.862600	0.734670	0.320070
O91	O9	0.130850	0.514200	0.345050
O101	O10	0.084800	0.926300	0.270900
O111	O11	0.686100	0.341500	0.915200
O121	O12	0.821900	0.935700	0.918800
O131	O13	0.372070	0.637400	0.457470
O141	O14	0.000000	0.500000	0.262620
O151	O15	0.800380	0.726740	0.368260
O161	O16	0.729100	0.155400	0.313900
O171	O17	0.868260	0.800380	0.226740
O181	O18	0.734670	0.820070	0.362600
O191	O19	0.883350	0.369150	0.214200
O201	O20	0.858480	0.432120	0.131740
O211	O21	0.654950	0.669150	0.285800
O221	O22	0.500000	0.762620	0.500000
O231	O23	0.415200	0.686100	0.841500
O241	O24	0.926300	0.770900	0.584800
O251	O25	0.432120	0.631740	0.358480
O261	O26	0.765330	0.127930	0.085400
O271	O27	0.158500	0.344600	0.073700
O281	O28	0.341500	0.415200	0.186100
O291	O29	0.127930	0.585400	0.265330
O301	O30	0.585400	0.765330	0.627930
O311	O31	0.542530	0.679930	0.414600
O321	O32	0.418800	0.821900	0.435700
O331	O33	0.678100	0.596900	0.113800
O341	O34	0.613800	0.678100	0.096900
O351	O35	0.914600	0.542530	0.179930
O361	O36	0.516900	0.903100	0.581200
O371	O37	0.770900	0.084800	0.426300
O381	O38	0.985800	0.616650	0.330850
O391	O39	0.155400	0.813900	0.229100
O401	O40	0.886200	0.983100	0.064300
O411	O41	0.369150	0.714200	0.383350
O421	O42	0.669150	0.785800	0.154950
O431	O43	0.641520	0.773260	0.573640
O441	O44	0.714200	0.883350	0.869150
O451	O45	0.762620	0.000000	0.000000
O461	O46	0.957470	0.372070	0.137400
O471	O47	0.564300	0.886200	0.483100
O481	O48	0.983100	0.564300	0.386200
O491	O49	0.903100	0.081200	0.016900
O501	O50	0.935700	0.418800	0.321900
O511	O51	0.073640	0.641520	0.273260
O521	O52	0.773260	0.073640	0.141520
O531	O53	0.631740	0.858480	0.932120
O541	O54	0.514200	0.845050	0.630850
O551	O55	0.344600	0.573700	0.658500
O561	O56	0.785800	0.654950	0.169150
O571	O57	0.081200	0.516900	0.403100
O581	O58	0.726740	0.868260	0.300380
O591	O59	0.737380	0.737380	0.237380
O601	O60	0.845050	0.130850	0.014200
O611	O61	0.596900	0.613800	0.178100
O621	O62	0.820070	0.862600	0.234670
O631	O63	0.813900	0.729100	0.655400
O641	O64	0.616650	0.830850	0.485800
