data_ja5063423_si_002_clean_PM
_symmetry_space_group_name_H-M	'P1'
_cell_length_a	14.208900
_cell_length_b	14.208900
_cell_length_c	14.208900
_cell_angle_alpha	60.000000
_cell_angle_beta	60.000000
_cell_angle_gamma	60.000000
_symmetry_Int_Tables_number 1

loop_
_symmetry_equiv_pos_as_xyz
'x,y,z'

loop_
_atom_site_label
_atom_site_type_symbol
_atom_site_fract_x
_atom_site_fract_y
_atom_site_fract_z
Zn11	Zn1	0.193970	0.193970	0.418090
Zn21	Zn2	0.193970	0.418090	0.193970
Zn31	Zn3	0.418090	0.193970	0.193970
Zn41	Zn4	0.806330	0.806330	0.806330
Zn51	Zn5	0.806330	0.581010	0.806330
Zn61	Zn6	0.806330	0.806330	0.581010
Zn71	Zn7	0.193970	0.193970	0.193970
Zn81	Zn8	0.581010	0.806330	0.806330
H11	H1	0.025900	0.337100	0.610300
H21	H2	0.026700	0.025900	0.610300
H31	H3	0.026700	0.610300	0.337100
H41	H4	0.610300	0.337100	0.026700
H51	H5	0.026700	0.337100	0.025900
H61	H6	0.610300	0.025900	0.337100
H71	H7	0.025900	0.610300	0.026700
H81	H8	0.337100	0.025900	0.026700
H91	H9	0.337100	0.026700	0.610300
H101	H10	0.337100	0.610300	0.025900
H111	H11	0.610300	0.026700	0.025900
H121	H12	0.025900	0.026700	0.337100
C11	C1	0.570300	0.929700	0.929700
C21	C2	0.041000	0.040600	0.532200
C31	C3	0.532200	0.040600	0.386200
C41	C4	0.570300	0.929700	0.570300
C51	C5	0.999900	0.999900	0.500100
C61	C6	0.570300	0.570300	0.929700
C71	C7	0.500100	0.999900	0.999900
C81	C8	0.040600	0.386200	0.532200
C91	C9	0.040600	0.041000	0.386200
C101	C10	0.386200	0.040600	0.041000
C111	C11	0.929700	0.929700	0.570300
C121	C12	0.532200	0.041000	0.040600
C131	C13	0.041000	0.532200	0.386200
C141	C14	0.999900	0.500100	0.500100
C151	C15	0.500100	0.999900	0.500100
C161	C16	0.386200	0.532200	0.040600
C171	C17	0.929700	0.570300	0.929700
C181	C18	0.999900	0.500100	0.999900
C191	C19	0.532200	0.386200	0.041000
C201	C20	0.041000	0.386200	0.040600
C211	C21	0.040600	0.532200	0.041000
C221	C22	0.929700	0.570300	0.570300
C231	C23	0.500100	0.500100	0.999900
C241	C24	0.386200	0.041000	0.532200
N11	N1	0.101200	0.101400	0.447200
N21	N2	0.101200	0.350200	0.101400
N31	N3	0.350200	0.447200	0.101400
N41	N4	0.101400	0.447200	0.101200
N51	N5	0.101400	0.101200	0.350200
N61	N6	0.447200	0.350200	0.101200
N71	N7	0.350200	0.101400	0.101200
N81	N8	0.447200	0.101200	0.101400
N91	N9	0.101200	0.447200	0.350200
N101	N10	0.350200	0.101200	0.447200
N111	N11	0.447200	0.101400	0.350200
N121	N12	0.101400	0.350200	0.447200
O11	O1	0.534100	0.895500	0.674300
O21	O2	0.896100	0.534100	0.674300
O31	O3	0.896100	0.674300	0.895500
O41	O4	0.534100	0.674300	0.896100
O51	O5	0.895500	0.674300	0.534100
O61	O6	0.674300	0.895500	0.896100
O71	O7	0.674300	0.896100	0.534100
O81	O8	0.534100	0.896100	0.895500
O91	O9	0.250000	0.250000	0.250000
O101	O10	0.895500	0.896100	0.674300
O111	O11	0.895500	0.534100	0.896100
O121	O12	0.896100	0.895500	0.534100
O131	O13	0.674300	0.534100	0.895500
O141	O14	0.750000	0.750000	0.750000
