data_ja512437u_si_002_clean_PM
_symmetry_space_group_name_H-M	'P1'
_cell_length_a	19.469000
_cell_length_b	19.469000
_cell_length_c	20.680400
_cell_angle_alpha	90.000000
_cell_angle_beta	90.000000
_cell_angle_gamma	120.000000
_symmetry_Int_Tables_number 1

loop_
_symmetry_equiv_pos_as_xyz
'x,y,z'

loop_
_atom_site_label
_atom_site_type_symbol
_atom_site_fract_x
_atom_site_fract_y
_atom_site_fract_z
Mn11	Mn1	0.730460	0.377850	0.975510
Mn21	Mn2	0.707810	0.437460	0.812060
Mn31	Mn3	0.647390	0.269540	0.308850
Mn41	Mn4	0.292190	0.562540	0.312060
Mn51	Mn5	0.269540	0.622150	0.475510
Mn61	Mn6	0.270350	0.707810	0.645390
Mn71	Mn7	0.729650	0.292190	0.145390
Mn81	Mn8	0.622150	0.352610	0.642180
Mn91	Mn9	0.437460	0.729650	0.978730
Mn101	Mn10	0.562540	0.270350	0.478730
Mn111	Mn11	0.377850	0.647390	0.142180
Mn121	Mn12	0.352610	0.730460	0.808850
H11	H1	0.358800	0.221000	0.246170
H21	H2	0.967100	0.257700	0.519400
H31	H3	0.537500	0.881900	0.595270
H41	H4	0.742900	0.544000	0.053670
H51	H5	0.674200	0.932600	0.600670
H61	H6	0.166700	0.229700	0.260370
H71	H7	0.403800	0.043800	0.281930
H81	H8	0.184600	0.107300	0.560370
H91	H9	0.790700	0.634800	0.764070
H101	H10	0.344400	0.462500	0.928600
H111	H11	0.365200	0.155900	0.430730
H121	H12	0.830000	0.683900	0.870200
H131	H13	0.043800	0.640000	0.448600
H141	H14	0.815400	0.892700	0.060370
H151	H15	0.740300	0.049200	0.530500
H161	H16	0.257100	0.456000	0.553670
H171	H17	0.048600	0.316500	0.944200
H181	H18	0.892700	0.077300	0.227030
H191	H19	0.198900	0.742900	0.887000
H201	H20	0.308900	0.259700	0.863830
H211	H21	0.655600	0.537500	0.428600
H221	H22	0.316100	0.146100	0.536870
H231	H23	0.505000	0.728700	0.740670
H241	H24	0.728700	0.223700	0.907330
H251	H25	0.884400	0.203700	0.394100
H261	H26	0.922700	0.815400	0.893700
H271	H27	0.259700	0.950800	0.030500
H281	H28	0.641200	0.779000	0.746170
H291	H29	0.445300	0.343800	0.855630
H301	H30	0.223700	0.495000	0.074000
H311	H31	0.077300	0.184600	0.393700
H321	H32	0.271300	0.776300	0.407330
H331	H33	0.495000	0.271300	0.240670
H341	H34	0.956200	0.360000	0.948600
H351	H35	0.742300	0.709400	0.186070
H361	H36	0.319300	0.115600	0.727430
H371	H37	0.049200	0.308900	0.697170
H381	H38	0.862200	0.641200	0.579500
H391	H39	0.596200	0.956200	0.781930
H401	H40	0.801100	0.257100	0.387000
H411	H41	0.937000	0.166700	0.093700
H421	H42	0.137800	0.358800	0.079500
H431	H43	0.343800	0.898500	0.022300
H441	H44	0.316500	0.267900	0.110870
H451	H45	0.950800	0.691100	0.197170
H461	H46	0.770300	0.937000	0.927030
H471	H47	0.634800	0.844100	0.930730
H481	H48	0.672000	0.061300	0.330330
H491	H49	0.456000	0.198900	0.720330
H501	H50	0.115600	0.796300	0.894100
H511	H51	0.853900	0.170000	0.203530
H521	H52	0.544000	0.801100	0.220330
H531	H53	0.221000	0.862200	0.412830
H541	H54	0.796300	0.680700	0.060770
H551	H55	0.203700	0.319300	0.560770
H561	H56	0.107300	0.922700	0.727030
H571	H57	0.155900	0.790700	0.597400
H581	H58	0.680700	0.884400	0.227430
H591	H59	0.691100	0.740300	0.363830
H601	H60	0.290600	0.032900	0.852730
H611	H61	0.146100	0.830000	0.703530
H621	H62	0.656200	0.101500	0.522300
H631	H63	0.229700	0.063000	0.427030
H641	H64	0.063000	0.833300	0.593700
H651	H65	0.951400	0.683500	0.444200
H661	H66	0.640000	0.596200	0.615270
H671	H67	0.067400	0.741600	0.267330
H681	H68	0.709400	0.967100	0.352730
H691	H69	0.610700	0.672000	0.163670
H701	H70	0.118100	0.655600	0.261930
H711	H71	0.554700	0.656200	0.355630
H721	H72	0.844100	0.209300	0.097400
H731	H73	0.389300	0.328000	0.663670
H741	H74	0.328000	0.938700	0.830330
H751	H75	0.898500	0.554700	0.188970
H761	H76	0.170000	0.316100	0.370200
H771	H77	0.833300	0.770300	0.760370
H781	H78	0.257700	0.290600	0.686070
H791	H79	0.061300	0.389300	0.497000
H801	H80	0.932600	0.258400	0.767330
H811	H81	0.209300	0.365200	0.264070
H821	H82	0.101500	0.445300	0.688970
H831	H83	0.779000	0.137800	0.912830
H841	H84	0.776300	0.505000	0.574000
H851	H85	0.683900	0.853900	0.036870
H861	H86	0.325800	0.067400	0.100670
H871	H87	0.938700	0.610700	0.997000
H881	H88	0.732100	0.048600	0.777530
H891	H89	0.360000	0.403800	0.115270
H901	H90	0.258400	0.325800	0.934000
H911	H91	0.462500	0.118100	0.095270
H921	H92	0.881900	0.344400	0.761930
H931	H93	0.741600	0.674200	0.434000
H941	H94	0.032900	0.742300	0.019400
H951	H95	0.683500	0.732100	0.610870
H961	H96	0.267900	0.951400	0.277530
C11	C1	0.230730	0.345440	0.232740
C21	C2	0.993020	0.705680	0.475120
C31	C3	0.320120	0.368290	0.144250
C41	C4	0.203200	0.148170	0.180080
C51	C5	0.573870	0.788750	0.249640
C61	C6	0.178280	0.878410	0.963800
C71	C7	0.247110	0.908460	0.001390
C81	C8	0.091540	0.338650	0.668060
C91	C9	0.700130	0.821720	0.297130
C101	C10	0.128720	0.304380	0.400390
C111	C11	0.219860	0.552600	0.618360
C121	C12	0.769270	0.539280	0.545530
C131	C13	0.419900	0.297130	0.830020
C141	C14	0.055030	0.203200	0.013410
C151	C15	0.205310	0.264780	0.230440
C161	C16	0.124110	0.365770	0.430700
C171	C17	0.824340	0.128720	0.233720
C181	C18	0.199550	0.707440	0.334220
C191	C19	0.796800	0.851830	0.680080
C201	C20	0.814610	0.535420	0.121080
C211	C21	0.926690	0.773790	0.914040
C221	C22	0.287340	0.993020	0.308450
C231	C23	0.865400	0.757860	0.508960
C241	C24	0.450210	0.266510	0.581800
C251	C25	0.829930	0.953740	0.303860
C261	C26	0.631710	0.951830	0.810910
C271	C27	0.368290	0.048170	0.310910
C281	C28	0.287420	0.397060	0.189160
C291	C29	0.891010	0.251130	0.795530
C301	C30	0.679880	0.631710	0.644250
C311	C31	0.944970	0.796800	0.513410
C321	C32	0.549790	0.733490	0.081800
C331	C33	0.535420	0.720810	0.287740
C341	C34	0.230510	0.651700	0.329630
C351	C35	0.347610	0.283630	0.642080
C361	C36	0.794690	0.735220	0.730440
C371	C37	0.773790	0.847100	0.080710
C381	C38	0.460720	0.229990	0.212200
C391	C39	0.735220	0.940530	0.897100
C401	C40	0.757860	0.892460	0.675630
C411	C41	0.092000	0.092310	0.002730
C421	C42	0.861040	0.302390	0.792550
C431	C43	0.426130	0.211250	0.749640
C441	C44	0.860040	0.188850	0.839980
C451	C45	0.878410	0.700130	0.130470
C461	C46	0.000310	0.908000	0.336060
C471	C47	0.913370	0.787130	0.138260
C481	C48	0.770010	0.230730	0.878860
C491	C49	0.517420	0.826730	0.856140
C501	C50	0.671190	0.860040	0.673320
C511	C51	0.007980	0.269400	0.488850
C521	C52	0.266510	0.816300	0.748460
C531	C53	0.758340	0.124110	0.264030
C541	C54	0.229990	0.769270	0.378860
C551	C55	0.208100	0.196440	0.624240
C561	C56	0.173270	0.690690	0.522810
C571	C57	0.716370	0.063980	0.308740
C581	C58	0.138960	0.697610	0.292550
C591	C59	0.752890	0.091540	0.501390
C601	C60	0.655270	0.838540	0.254000
C611	C61	0.885290	0.230730	0.066070
C621	C62	0.134600	0.242140	0.008960
C631	C63	0.667260	0.219860	0.451690
C641	C64	0.059470	0.794690	0.563770
C651	C65	0.580100	0.702870	0.330020
C661	C66	0.720810	0.185390	0.454410
C671	C67	0.799710	0.179530	0.881970
C681	C68	0.780140	0.447400	0.118360
C691	C69	0.705680	0.712660	0.641790
C701	C70	0.126240	0.913370	0.971590
C711	C71	0.161460	0.816730	0.920670
C721	C72	0.309310	0.482580	0.189480
C731	C73	0.148170	0.944970	0.346740
C741	C74	0.826730	0.309310	0.022810
C751	C75	0.876190	0.829930	0.137200
C761	C76	0.107540	0.865400	0.342290
C771	C77	0.297130	0.877230	0.996690
C781	C78	0.578810	0.230510	0.162970
C791	C79	0.279190	0.814610	0.954410
C801	C80	0.086630	0.212870	0.638260
C811	C81	0.890360	0.287420	0.022490
C821	C82	0.175660	0.871280	0.733720
C831	C83	0.820470	0.620180	0.548640
C841	C84	0.397060	0.109640	0.355820
C851	C85	0.988340	0.791900	0.957570
C861	C86	0.421190	0.769490	0.662970
C871	C87	0.226210	0.152900	0.580710
C881	C88	0.299870	0.178280	0.797130
C891	C89	0.261420	0.992020	0.822180
C901	C90	0.769490	0.348300	0.829630
C911	C91	0.344730	0.161460	0.754000
C921	C92	0.379820	0.200290	0.215310
C931	C93	0.707440	0.507890	0.500890
C941	C94	0.179530	0.379820	0.048640
C951	C95	0.602940	0.890360	0.855820
C961	C96	0.634230	0.758340	0.097370
C971	C97	0.183700	0.450210	0.415130
C981	C98	0.332740	0.780140	0.951690
C991	C99	0.654560	0.885290	0.899400
C1001	C100	0.200290	0.820470	0.381970
C1011	C101	0.738580	0.007980	0.322180
C1021	C102	0.170070	0.046260	0.803860
C1031	C103	0.999690	0.092000	0.836060
C1041	C104	0.507890	0.800450	0.667560
C1051	C105	0.304380	0.175660	0.567060
C1061	C106	0.821720	0.121590	0.463800
C1071	C107	0.090310	0.023710	0.994450
C1081	C108	0.651700	0.421190	0.496300
C1091	C109	0.073310	0.226210	0.414040
C1101	C110	0.294320	0.287340	0.141790
C1111	C111	0.121590	0.299870	0.630470
C1121	C112	0.908000	0.907690	0.502730
C1131	C113	0.933400	0.909690	0.327780
C1141	C114	0.188850	0.328810	0.006650
C1151	C115	0.873760	0.086630	0.471590
C1161	C116	0.907690	0.999690	0.669400
C1171	C117	0.763710	0.765070	0.684330
C1181	C118	0.241660	0.875890	0.764030
C1191	C119	0.114710	0.769270	0.566070
C1201	C120	0.139960	0.811150	0.339980
C1211	C121	0.816730	0.655270	0.087340
C1221	C122	0.951830	0.320120	0.977580
C1231	C123	0.264780	0.059470	0.397100
C1241	C124	0.730600	0.738580	0.155520
C1251	C125	0.348300	0.578810	0.996300
C1261	C126	0.992020	0.730600	0.988850
C1271	C127	0.109640	0.712580	0.522490
C1281	C128	0.908460	0.661350	0.168060
C1291	C129	0.123810	0.170070	0.637200
C1301	C130	0.338650	0.247110	0.834720
C1311	C131	0.122770	0.419900	0.663360
C1321	C132	0.800450	0.292560	0.834220
C1331	C133	0.816300	0.549790	0.915130
C1341	C134	0.292560	0.492110	0.000890
C1351	C135	0.803560	0.011660	0.290900
C1361	C136	0.360120	0.108990	0.128870
C1371	C137	0.877230	0.580100	0.163360
C1381	C138	0.552600	0.332740	0.785020
C1391	C139	0.345440	0.114710	0.399400
C1401	C140	0.785120	0.573870	0.082980
C1411	C141	0.953740	0.123810	0.470530
C1421	C142	0.011660	0.208100	0.457570
C1431	C143	0.441350	0.138960	0.125890
C1441	C144	0.048170	0.679880	0.477580
C1451	C145	0.283630	0.936020	0.808740
C1461	C146	0.791900	0.803560	0.124240
C1471	C147	0.787130	0.873760	0.304920
C1481	C148	0.847100	0.073310	0.247370
C1491	C149	0.251130	0.360120	0.962200
C1501	C150	0.940530	0.205310	0.063770
C1511	C151	0.196440	0.988340	0.790900
C1521	C152	0.447400	0.667260	0.285020
C1531	C153	0.365770	0.241660	0.597370
C1541	C154	0.652390	0.716370	0.142080
C1551	C155	0.769270	0.654560	0.732740
C1561	C156	0.046260	0.876190	0.970530
C1571	C157	0.875890	0.634230	0.930700
C1581	C158	0.712580	0.602940	0.689160
C1591	C159	0.066600	0.090310	0.827780
C1601	C160	0.185390	0.464580	0.621080
C1611	C161	0.936020	0.652390	0.975410
C1621	C162	0.001360	0.236290	0.017660
C1631	C163	0.183270	0.344730	0.587340
C1641	C164	0.788750	0.214880	0.416310
C1651	C165	0.558650	0.861040	0.625890
C1661	C166	0.909690	0.976290	0.494450
C1671	C167	0.976290	0.066600	0.661120
C1681	C168	0.269400	0.261420	0.655520
C1691	C169	0.639880	0.891010	0.628870
C1701	C170	0.702870	0.122770	0.496690
C1711	C171	0.230730	0.460720	0.045530
C1721	C172	0.023710	0.933400	0.161120
C1731	C173	0.712660	0.006980	0.808450
C1741	C174	0.236290	0.234930	0.184330
C1751	C175	0.302390	0.441350	0.959220
C1761	C176	0.482580	0.173270	0.356140
C1771	C177	0.811150	0.671190	0.506650
C1781	C178	0.697610	0.558650	0.459220
C1791	C179	0.212870	0.126240	0.804920
C1801	C180	0.242140	0.107540	0.175630
C1811	C181	0.871280	0.695620	0.900390
C1821	C182	0.328810	0.139960	0.173320
C1831	C183	0.152900	0.926690	0.747370
C1841	C184	0.214880	0.426130	0.582980
C1851	C185	0.063980	0.347610	0.475410
C1861	C186	0.851830	0.055030	0.846740
C1871	C187	0.892460	0.134600	0.842290
C1881	C188	0.690690	0.517420	0.689480
C1891	C189	0.464580	0.279190	0.787740
C1901	C190	0.492110	0.199550	0.167560
C1911	C191	0.234930	0.998640	0.350990
C1921	C192	0.092310	0.000310	0.169400
C1931	C193	0.733490	0.183700	0.248460
C1941	C194	0.998640	0.763710	0.517660
C1951	C195	0.695620	0.824340	0.067060
C1961	C196	0.006980	0.294320	0.975120
C1971	C197	0.620180	0.799710	0.715310
C1981	C198	0.661350	0.752890	0.334720
C1991	C199	0.765070	0.001360	0.850990
C2001	C200	0.539280	0.770010	0.712200
C2011	C201	0.748870	0.639880	0.462200
C2021	C202	0.108990	0.748870	0.295530
C2031	C203	0.838540	0.183270	0.420670
C2041	C204	0.211250	0.785120	0.916310
S11	S1	0.176090	0.015990	0.987750
S21	S2	0.092810	0.993760	0.347610
S31	S3	0.932700	0.931130	0.156110
S41	S4	0.900950	0.907190	0.680950
S51	S5	0.907190	0.006240	0.847610
S61	S6	0.819240	0.815960	0.505610
S71	S7	0.003280	0.819240	0.338940
S81	S8	0.931130	0.998430	0.322770
S91	S9	0.984010	0.160100	0.654420
S101	S10	0.184040	0.003280	0.172280
S111	S11	0.099050	0.092810	0.180950
S121	S12	0.815960	0.996720	0.672280
S131	S13	0.993760	0.900950	0.514280
S141	S14	0.006240	0.099050	0.014280
S151	S15	0.001570	0.932700	0.989440
S161	S16	0.998430	0.067300	0.489440
S171	S17	0.180760	0.184040	0.005610
S181	S18	0.015990	0.839900	0.154420
S191	S19	0.067300	0.068870	0.656110
S201	S20	0.823910	0.984010	0.487750
S211	S21	0.996720	0.180760	0.838940
S221	S22	0.068870	0.001570	0.822770
S231	S23	0.160100	0.176090	0.821080
S241	S24	0.839900	0.823910	0.321080
O11	O1	0.803990	0.415370	0.159620
O21	O2	0.636870	0.469350	0.652620
O31	O3	0.317550	0.814730	0.784260
O41	O4	0.611380	0.196010	0.492950
O51	O5	0.773010	0.538090	0.866180
O61	O6	0.593590	0.321160	0.743820
O71	O7	0.501150	0.231870	0.393160
O81	O8	0.207710	0.601570	0.284410
O91	O9	0.321160	0.727570	0.910490
O101	O10	0.281100	0.655390	0.370670
O111	O11	0.814730	0.497180	0.950930
O121	O12	0.393860	0.792290	0.617750
O131	O13	0.502820	0.317550	0.617600
O141	O14	0.606140	0.207710	0.117750
O151	O15	0.530650	0.167520	0.319280
O161	O16	0.682450	0.185270	0.284260
O171	O17	0.718900	0.344610	0.870670
O181	O18	0.498850	0.768130	0.893160
O191	O19	0.765080	0.226990	0.199510
O201	O20	0.363130	0.530650	0.152620
O211	O21	0.406410	0.678840	0.243820
O221	O22	0.226990	0.461910	0.366180
O231	O23	0.196010	0.584630	0.659620
O241	O24	0.344610	0.625710	0.037340
O251	O25	0.730720	0.498850	0.726500
O261	O26	0.272430	0.593590	0.577160
O271	O27	0.655390	0.374290	0.537340
O281	O28	0.461910	0.234920	0.532850
O291	O29	0.398430	0.606140	0.951080
O301	O30	0.374290	0.718900	0.704010
O311	O31	0.768130	0.269280	0.059830
O321	O32	0.601570	0.393860	0.451080
O331	O33	0.167520	0.636870	0.485950
O341	O34	0.497180	0.682450	0.117600
O351	O35	0.269280	0.501150	0.226500
O361	O36	0.625710	0.281100	0.204010
O371	O37	0.415370	0.611380	0.326280
O381	O38	0.832480	0.363130	0.985950
O391	O39	0.678840	0.272430	0.410490
O401	O40	0.231870	0.730720	0.559830
O411	O41	0.727570	0.406410	0.077160
O421	O42	0.469350	0.832480	0.819280
O431	O43	0.538090	0.765080	0.032850
O441	O44	0.584630	0.388620	0.826280
O451	O45	0.388620	0.803990	0.992950
O461	O46	0.234920	0.773010	0.699510
O471	O47	0.792290	0.398430	0.784410
O481	O48	0.185270	0.502820	0.450930
