data_ja512437u_si_004_clean_PM
_symmetry_space_group_name_H-M	'P1'
_cell_length_a	19.600000
_cell_length_b	19.600000
_cell_length_c	20.760000
_cell_angle_alpha	90.000000
_cell_angle_beta	90.000000
_cell_angle_gamma	120.000000
_symmetry_Int_Tables_number 1

loop_
_symmetry_equiv_pos_as_xyz
'x,y,z'

loop_
_atom_site_label
_atom_site_type_symbol
_atom_site_fract_x
_atom_site_fract_y
_atom_site_fract_z
Cd11	Cd1	0.654950	0.273080	0.901840
Cd21	Cd2	0.569180	0.259560	0.077900
Cd31	Cd3	0.618130	0.345050	0.235180
Cd41	Cd4	0.740440	0.309620	0.744560
Cd51	Cd5	0.309620	0.569180	0.911230
Cd61	Cd6	0.430820	0.740440	0.577900
Cd71	Cd7	0.259560	0.690380	0.244560
Cd81	Cd8	0.690380	0.430820	0.411230
Cd91	Cd9	0.345050	0.726920	0.401840
Cd101	Cd10	0.726920	0.381870	0.568510
Cd111	Cd11	0.381870	0.654950	0.735180
Cd121	Cd12	0.273080	0.618130	0.068510
H11	H1	0.128200	0.660500	0.857130
H21	H2	0.668200	0.923400	0.193070
H31	H3	0.310800	0.138600	0.119170
H41	H4	0.188100	0.747900	0.474500
H51	H5	0.861400	0.172200	0.785830
H61	H6	0.255200	0.331800	0.526400
H71	H7	0.723500	0.973200	0.937230
H81	H8	0.233400	0.875000	0.998130
H91	H9	0.973200	0.249700	0.103900
H101	H10	0.781300	0.622300	0.349370
H111	H11	0.894800	0.199400	0.981400
H121	H12	0.931300	0.173700	0.679500
H131	H13	0.573300	0.657100	0.928330
H141	H14	0.709100	0.741700	0.937430
H151	H15	0.105200	0.800600	0.481400
H161	H16	0.331800	0.076600	0.693070
H171	H17	0.724700	0.039300	0.359830
H181	H18	0.083800	0.426700	0.261670
H191	H19	0.789900	0.505700	0.163100
H201	H20	0.757600	0.931300	0.512830
H211	H21	0.342900	0.916200	0.595000
H221	H22	0.304600	0.105200	0.314730
H231	H23	0.410200	0.050900	0.862930
H241	H24	0.937900	0.620100	0.579400
H251	H25	0.657100	0.083800	0.095000
H261	H26	0.871800	0.339500	0.357130
H271	H27	0.620100	0.682200	0.746070
H281	H28	0.339500	0.467700	0.523800
H291	H29	0.138600	0.827800	0.285830
H301	H30	0.426700	0.342900	0.428330
H311	H31	0.358400	0.233400	0.831470
H321	H32	0.068700	0.826300	0.179500
H331	H33	0.173700	0.242400	0.846170
H341	H34	0.210100	0.494300	0.663100
H351	H35	0.875000	0.641600	0.164800
H361	H36	0.741700	0.032600	0.104100
H371	H37	0.314600	0.275300	0.693170
H381	H38	0.125000	0.358400	0.664800
H391	H39	0.903400	0.082300	0.809930
H401	H40	0.821100	0.903400	0.643270
H411	H41	0.258300	0.967400	0.604100
H421	H42	0.715800	0.210100	0.496430
H431	H43	0.685400	0.724700	0.193170
H441	H44	0.050900	0.640700	0.029600
H451	H45	0.039300	0.314600	0.526500
H461	H46	0.766600	0.125000	0.498130
H471	H47	0.275300	0.960700	0.859830
H481	H48	0.622300	0.841000	0.516030
H491	H49	0.284200	0.789900	0.996430
H501	H50	0.826300	0.757600	0.346170
H511	H51	0.917700	0.821100	0.476600
H521	H52	0.032600	0.290900	0.270770
H531	H53	0.276500	0.026800	0.437230
H541	H54	0.062100	0.379900	0.079400
H551	H55	0.923400	0.255200	0.359730
H561	H56	0.096600	0.917700	0.309930
H571	H57	0.172200	0.310800	0.952500
H581	H58	0.252100	0.440200	0.141170
H591	H59	0.916200	0.573300	0.761670
H601	H60	0.750300	0.723500	0.770570
H611	H61	0.960700	0.685400	0.026500
H621	H62	0.811900	0.252100	0.974500
H631	H63	0.505700	0.715800	0.329770
H641	H64	0.467700	0.128200	0.690470
H651	H65	0.076600	0.744800	0.859730
H661	H66	0.800600	0.695400	0.648070
H671	H67	0.967400	0.709100	0.770770
H681	H68	0.695400	0.894800	0.814730
H691	H69	0.532300	0.871800	0.190470
H701	H70	0.589800	0.949100	0.362930
H711	H71	0.218700	0.377700	0.849370
H721	H72	0.290900	0.258300	0.437430
H731	H73	0.949100	0.359300	0.529600
H741	H74	0.660500	0.532300	0.023800
H751	H75	0.682200	0.062100	0.912730
H761	H76	0.242400	0.068700	0.012830
H771	H77	0.440200	0.188100	0.307830
H781	H78	0.359300	0.410200	0.696270
H791	H79	0.159000	0.781300	0.182700
H801	H80	0.026800	0.750300	0.603900
H811	H81	0.640700	0.589800	0.196270
H821	H82	0.199400	0.304600	0.148070
H831	H83	0.559800	0.811900	0.807830
H841	H84	0.082300	0.178900	0.976600
H851	H85	0.689200	0.861400	0.619170
H861	H86	0.747900	0.559800	0.641170
H871	H87	0.827800	0.689200	0.452500
H881	H88	0.841000	0.218700	0.682700
H891	H89	0.178900	0.096600	0.143270
H901	H90	0.641600	0.766600	0.331470
H911	H91	0.249700	0.276500	0.270570
H921	H92	0.379900	0.317800	0.246070
H931	H93	0.317800	0.937900	0.412730
H941	H94	0.744800	0.668200	0.026400
H951	H95	0.377700	0.159000	0.016030
H961	H96	0.494300	0.284200	0.829770
C11	C1	0.848300	0.179700	0.428430
C21	C2	0.922300	0.678900	0.744670
C31	C3	0.298300	0.166800	0.149670
C41	C4	0.293900	0.891700	0.572800
C51	C5	0.751000	0.012800	0.905730
C61	C6	0.505700	0.787800	0.258970
C71	C7	0.112000	0.283800	0.212270
C81	C8	0.880700	0.079300	0.054800
C91	C9	0.727100	0.066100	0.891730
C101	C10	0.054800	0.678700	0.060000
C111	C11	0.904100	0.987100	0.254370
C121	C12	0.206300	0.159100	0.765970
C131	C13	0.756600	0.077700	0.078000
C141	C14	0.331400	0.151700	0.761770
C151	C15	0.880800	0.125800	0.428530
C161	C16	0.012900	0.917000	0.921030
C171	C17	0.249000	0.987200	0.405730
C181	C18	0.409900	0.202300	0.334530
C191	C19	0.108300	0.402200	0.239470
C201	C20	0.329300	0.152600	0.338930
C211	C21	0.707300	0.593000	0.273070
C221	C22	0.494300	0.212200	0.758970
C231	C23	0.243400	0.922300	0.578000
C241	C24	0.780200	0.857800	0.663570
C251	C25	0.272900	0.933900	0.391730
C261	C26	0.157100	0.039800	0.387430
C271	C27	0.218800	0.461400	0.634700
C281	C28	0.212200	0.831800	0.969030
C291	C29	0.590100	0.797700	0.834530
C301	C30	0.336100	0.581400	0.589700
C311	C31	0.001300	0.705300	0.058100
C321	C32	0.402200	0.293900	0.406130
C331	C33	0.219800	0.142200	0.163570
C341	C34	0.083000	0.095900	0.587700
C351	C35	0.184800	0.983700	0.374230
C361	C36	0.119200	0.874200	0.928530
C371	C37	0.762000	0.643000	0.317370
C381	C38	0.868500	0.701700	0.483000
C391	C39	0.798900	0.815200	0.707570
C401	C40	0.114300	0.707300	0.106400
C411	C41	0.705300	0.704000	0.224770
C421	C42	0.461400	0.242600	0.801370
C431	C43	0.885700	0.292700	0.606400
C441	C44	0.797700	0.207600	0.001200
C451	C45	0.232100	0.874200	0.346930
C461	C46	0.754700	0.336100	0.423030
C471	C47	0.150000	0.704300	0.885530
C481	C48	0.272700	0.825700	0.535200
C491	C49	0.258000	0.815200	0.330830
C501	C50	0.815200	0.557200	0.497500
C511	C51	0.209900	0.534900	0.201170
C521	C52	0.787800	0.282100	0.425630
C531	C53	0.239300	0.246200	0.768870
C541	C54	0.704000	0.998700	0.391430
C551	C55	0.788800	0.723500	0.315570
C561	C56	0.052800	0.081600	0.411830
C571	C57	0.292700	0.407000	0.773070
C581	C58	0.593000	0.885700	0.439730
C591	C59	0.706100	0.108300	0.072800
C601	C60	0.176700	0.329300	0.172270
C611	C61	0.723500	0.934700	0.482230
C621	C62	0.828200	0.112000	0.045600
C631	C63	0.006900	0.760700	0.102200
C641	C64	0.792400	0.590100	0.667870
C651	C65	0.142200	0.922400	0.330230
C661	C66	0.245300	0.663900	0.923030
C671	C67	0.447000	0.272700	0.368530
C681	C68	0.842900	0.960200	0.887430
C691	C69	0.874200	0.642100	0.513600
C701	C70	0.557200	0.742000	0.664170
C711	C71	0.151700	0.820300	0.928430
C721	C72	0.357000	0.119000	0.984030
C731	C73	0.039800	0.882700	0.554100
C741	C74	0.125800	0.357900	0.013600
C751	C75	0.952800	0.793700	0.099300
C761	C76	0.238000	0.357000	0.817370
C771	C77	0.922400	0.780200	0.496900
C781	C78	0.755000	0.880800	0.261870
C791	C79	0.175000	0.682000	0.107100
C801	C80	0.857800	0.077600	0.830230
C811	C81	0.357900	0.232100	0.180270
C821	C82	0.321300	0.376100	0.726670
C831	C83	0.753800	0.993100	0.435530
C841	C84	0.781200	0.538600	0.134700
C851	C85	0.971200	0.052800	0.245170
C861	C86	0.152600	0.823300	0.505600
C871	C87	0.623900	0.945200	0.393330
C881	C88	0.295700	0.445700	0.552200
C891	C89	0.678700	0.623900	0.226670
C901	C90	0.825000	0.318000	0.607100
C911	C91	0.840900	0.047200	0.432630
C921	C92	0.445700	0.150000	0.718870
C931	C93	0.635100	0.880400	0.220270
C941	C94	0.760700	0.753800	0.268870
C951	C95	0.077700	0.321100	0.244670
C961	C96	0.131500	0.298300	0.983000
C971	C97	0.179700	0.331400	0.595100
C981	C98	0.825700	0.553000	0.701870
C991	C99	0.534900	0.325000	0.367830
C1001	C100	0.171800	0.888000	0.545600
C1011	C101	0.678900	0.756600	0.911330
C1021	C102	0.318000	0.493000	0.773770
C1031	C103	0.754700	0.635100	0.053600
C1041	C104	0.261800	0.249000	0.239070
C1051	C105	0.325000	0.790100	0.534500
C1061	C106	0.212200	0.717900	0.925630
C1071	C107	0.168200	0.380400	0.635700
C1081	C108	0.442800	0.258000	0.164170
C1091	C109	0.079300	0.198600	0.221470
C1101	C110	0.742000	0.184800	0.830830
C1111	C111	0.380400	0.212200	0.802370
C1121	C112	0.727300	0.174300	0.035200
C1131	C113	0.704300	0.554300	0.052200
C1141	C114	0.888000	0.716200	0.712270
C1151	C115	0.987200	0.738200	0.572400
C1161	C116	0.159100	0.952800	0.932630
C1171	C117	0.757400	0.218800	0.468030
C1181	C118	0.066100	0.339000	0.058400
C1191	C119	0.661000	0.727100	0.725070
C1201	C120	0.619600	0.787800	0.302370
C1211	C121	0.823300	0.670700	0.672270
C1221	C122	0.465100	0.675000	0.867830
C1231	C123	0.716200	0.828200	0.878930
C1241	C124	0.790100	0.465100	0.701170
C1251	C125	0.891700	0.597800	0.739470
C1261	C126	0.174300	0.447000	0.201870
C1271	C127	0.047200	0.206300	0.599300
C1281	C128	0.581400	0.245300	0.756370
C1291	C129	0.283800	0.171800	0.378930
C1301	C130	0.119600	0.754700	0.886930
C1311	C131	0.993100	0.239300	0.602200
C1321	C132	0.364900	0.119600	0.720270
C1331	C133	0.663900	0.418600	0.089700
C1341	C134	0.418600	0.754700	0.256370
C1351	C135	0.211200	0.276500	0.815570
C1361	C136	0.246200	0.006900	0.935530
C1371	C137	0.918400	0.971200	0.078500
C1381	C138	0.642100	0.767900	0.680270
C1391	C139	0.554300	0.850000	0.218870
C1401	C140	0.920700	0.801400	0.721470
C1411	C141	0.125800	0.245000	0.595200
C1421	C142	0.831800	0.619600	0.135700
C1431	C143	0.947200	0.918400	0.911830
C1441	C144	0.065300	0.788800	0.148900
C1451	C145	0.933900	0.661000	0.558400
C1461	C146	0.296000	0.001300	0.891430
C1471	C147	0.820300	0.668600	0.095100
C1481	C148	0.767900	0.125800	0.846930
C1491	C149	0.668600	0.848300	0.261770
C1501	C150	0.847400	0.176700	0.005600
C1511	C151	0.321100	0.243400	0.411330
C1521	C152	0.184800	0.442800	0.997500
C1531	C153	0.119300	0.920700	0.554800
C1541	C154	0.643000	0.881000	0.484030
C1551	C155	0.207600	0.409900	0.167870
C1561	C156	0.934700	0.211200	0.648900
C1571	C157	0.701700	0.833200	0.649670
C1581	C158	0.882700	0.842900	0.720770
C1591	C159	0.833200	0.131500	0.816330
C1601	C160	0.945200	0.321300	0.560000
C1611	C161	0.717900	0.505700	0.092300
C1621	C162	0.538600	0.757400	0.301370
C1631	C163	0.874200	0.755000	0.095200
C1641	C164	0.028800	0.947200	0.745170
C1651	C165	0.276500	0.065300	0.982230
C1661	C166	0.998700	0.294700	0.558100
C1671	C167	0.198600	0.119300	0.388130
C1681	C168	0.081600	0.028800	0.578500
C1691	C169	0.376100	0.054800	0.893330
C1701	C170	0.682000	0.507000	0.273770
C1711	C171	0.245000	0.119200	0.761870
C1721	C172	0.493000	0.175000	0.940430
C1731	C173	0.960200	0.117300	0.054100
C1741	C174	0.016300	0.201100	0.040900
C1751	C175	0.407000	0.114300	0.939730
C1761	C176	0.012800	0.261800	0.072400
C1771	C177	0.339000	0.272900	0.225070
C1781	C178	0.738200	0.751000	0.739070
C1791	C179	0.917000	0.904100	0.087700
C1801	C180	0.202300	0.792400	0.501200
C1811	C181	0.815200	0.016300	0.874230
C1821	C182	0.553000	0.727300	0.868530
C1831	C183	0.242600	0.781200	0.968030
C1841	C184	0.670700	0.847400	0.838930
C1851	C185	0.166800	0.868500	0.316330
C1861	C186	0.077600	0.219800	0.996900
C1871	C187	0.793700	0.840900	0.265970
C1881	C188	0.983700	0.798900	0.540900
C1891	C189	0.119000	0.762000	0.150700
C1901	C190	0.507000	0.825000	0.440430
C1911	C191	0.201100	0.184800	0.207570
C1921	C192	0.294700	0.296000	0.724770
C1931	C193	0.881000	0.238000	0.650700
C1941	C194	0.787800	0.168200	0.469030
C1951	C195	0.801400	0.880700	0.888130
C1961	C196	0.282100	0.494300	0.592300
C1971	C197	0.987100	0.083000	0.421030
C1981	C198	0.095900	0.012900	0.754370
C1991	C199	0.245300	0.364900	0.553600
C2001	C200	0.880400	0.245300	0.386930
C2011	C201	0.117300	0.157100	0.220770
C2021	C202	0.675000	0.209900	0.034500
C2031	C203	0.850000	0.295700	0.385530
C2041	C204	0.597800	0.706100	0.906130
S11	S1	0.145140	0.167120	0.405650
S21	S2	0.937460	0.943120	0.740030
S31	S3	0.062540	0.056880	0.240030
S41	S4	0.187110	0.015880	0.758290
S51	S5	0.812890	0.984120	0.258290
S61	S6	0.978020	0.145140	0.238990
S71	S7	0.167120	0.021980	0.572320
S81	S8	0.171230	0.187110	0.591620
S91	S9	0.994340	0.937460	0.573360
S101	S10	0.828770	0.812890	0.091620
S111	S11	0.998290	0.103140	0.599690
S121	S12	0.056880	0.994340	0.406690
S131	S13	0.854860	0.832880	0.905650
S141	S14	0.015880	0.828770	0.924950
S151	S15	0.896860	0.895150	0.266360
S161	S16	0.943120	0.005660	0.906690
S171	S17	0.103140	0.104850	0.766360
S181	S18	0.832880	0.978020	0.072320
S191	S19	0.984120	0.171230	0.424950
S201	S20	0.005660	0.062540	0.073360
S211	S21	0.104850	0.001710	0.933020
S221	S22	0.001710	0.896860	0.099690
S231	S23	0.895150	0.998290	0.433020
S241	S24	0.021980	0.854860	0.738990
O11	O1	0.777700	0.388000	0.380330
O21	O2	0.283100	0.516100	0.810470
O31	O3	0.536600	0.165500	0.901130
O41	O4	0.375000	0.702700	0.296970
O51	O5	0.222300	0.612000	0.880330
O61	O6	0.387600	0.823500	0.567000
O71	O7	0.726700	0.423600	0.670670
O81	O8	0.303100	0.726700	0.504000
O91	O9	0.814500	0.505300	0.533200
O101	O10	0.388000	0.610300	0.547000
O111	O11	0.423600	0.696900	0.837330
O121	O12	0.564100	0.387600	0.400330
O131	O13	0.494700	0.309200	0.199870
O141	O14	0.576400	0.303100	0.337330
O151	O15	0.516100	0.233000	0.977130
O161	O16	0.672300	0.375000	0.130300
O171	O17	0.327700	0.625000	0.630300
O181	O18	0.297300	0.672300	0.963630
O191	O19	0.772200	0.545800	0.449200
O201	O20	0.227800	0.454200	0.949200
O211	O21	0.773600	0.227800	0.782530
O221	O22	0.176500	0.564100	0.233670
O231	O23	0.185500	0.494700	0.033200
O241	O24	0.612000	0.389700	0.047000
O251	O25	0.628900	0.463400	0.234470
O261	O26	0.165500	0.628900	0.067800
O271	O27	0.389700	0.777700	0.213670
O281	O28	0.716900	0.483900	0.310470
O291	O29	0.834500	0.371100	0.567800
O301	O30	0.702700	0.327700	0.463630
O311	O31	0.696900	0.273300	0.004000
O321	O32	0.505300	0.690800	0.699870
O331	O33	0.610300	0.222300	0.713670
O341	O34	0.625000	0.297300	0.796970
O351	O35	0.767000	0.283100	0.643800
O361	O36	0.823500	0.435900	0.733670
O371	O37	0.612400	0.176500	0.067000
O381	O38	0.483900	0.767000	0.477130
O391	O39	0.545800	0.773600	0.615870
O401	O40	0.226400	0.772200	0.282530
O411	O41	0.309200	0.814500	0.366530
O421	O42	0.454200	0.226400	0.115870
O431	O43	0.463400	0.834500	0.401130
O441	O44	0.273300	0.576400	0.170670
O451	O45	0.233000	0.716900	0.143800
O461	O46	0.371100	0.536600	0.734470
O471	O47	0.435900	0.612400	0.900330
O481	O48	0.690800	0.185500	0.866530
