data_ja5b02999_si_004_clean_PM
_symmetry_space_group_name_H-M	'P1'
_cell_length_a	20.600000
_cell_length_b	27.809000
_cell_length_c	27.809000
_cell_angle_alpha	90.000000
_cell_angle_beta	90.000000
_cell_angle_gamma	90.000000
_symmetry_Int_Tables_number 1

loop_
_symmetry_equiv_pos_as_xyz
'x,y,z'

loop_
_atom_site_label
_atom_site_type_symbol
_atom_site_fract_x
_atom_site_fract_y
_atom_site_fract_z
Cd11	Cd1	0.500000	0.016840	0.098870
Cd21	Cd2	0.623780	0.531100	0.312530
Cd31	Cd3	0.500000	0.598870	0.516840
Cd41	Cd4	0.623780	0.312530	0.468900
Cd51	Cd5	0.623780	0.187470	0.968900
Cd61	Cd6	0.376220	0.812530	0.031100
Cd71	Cd7	0.376220	0.968900	0.812530
Cd81	Cd8	0.376220	0.468900	0.687470
Cd91	Cd9	0.376220	0.687470	0.531100
Cd101	Cd10	0.500000	0.901130	0.016840
Cd111	Cd11	0.623780	0.687470	0.531100
Cd121	Cd12	0.376220	0.312530	0.468900
Cd131	Cd13	0.623780	0.031100	0.187470
Cd141	Cd14	0.500000	0.098870	0.983160
Cd151	Cd15	0.623780	0.968900	0.812530
Cd161	Cd16	0.623780	0.812530	0.031100
Cd171	Cd17	0.500000	0.983160	0.901130
Cd181	Cd18	0.376220	0.031100	0.187470
Cd191	Cd19	0.500000	0.401130	0.483160
Cd201	Cd20	0.376220	0.187470	0.968900
Cd211	Cd21	0.500000	0.516840	0.401130
Cd221	Cd22	0.623780	0.468900	0.687470
Cd231	Cd23	0.376220	0.531100	0.312530
Cd241	Cd24	0.500000	0.483160	0.598870
H11	H1	0.190100	0.738100	0.418500
H21	H2	0.282700	0.199700	0.051600
H31	H3	0.809900	0.261900	0.581500
H41	H4	0.717300	0.300300	0.551600
H51	H5	0.940100	0.347000	0.593400
H61	H6	0.809900	0.918500	0.238100
H71	H7	0.282700	0.051600	0.800300
H81	H8	0.059900	0.593400	0.653000
H91	H9	0.282700	0.699700	0.448400
H101	H10	0.831600	0.367500	0.680600
H111	H11	0.168400	0.680600	0.632500
H121	H12	0.241300	0.811300	0.250000
H131	H13	0.831600	0.632500	0.319400
H141	H14	0.717300	0.551600	0.699700
H151	H15	0.168400	0.867500	0.819400
H161	H16	0.717300	0.199700	0.051600
H171	H17	0.282700	0.800300	0.948400
H181	H18	0.738900	0.094000	0.150800
H191	H19	0.241300	0.250000	0.188700
H201	H20	0.831600	0.680600	0.632500
H211	H21	0.758700	0.750000	0.811300
H221	H22	0.059900	0.847000	0.906600
H231	H23	0.940100	0.593400	0.653000
H241	H24	0.168400	0.819400	0.132500
H251	H25	0.945600	0.221600	0.721600
H261	H26	0.717300	0.800300	0.948400
H271	H27	0.758700	0.811300	0.250000
H281	H28	0.717300	0.699700	0.448400
H291	H29	0.054400	0.278400	0.221600
H301	H30	0.190100	0.581500	0.738100
H311	H31	0.738900	0.849200	0.094000
H321	H32	0.059900	0.906600	0.153000
H331	H33	0.738900	0.594000	0.349200
H341	H34	0.054400	0.721600	0.778400
H351	H35	0.190100	0.081500	0.761900
H361	H36	0.054400	0.778400	0.278400
H371	H37	0.190100	0.761900	0.918500
H381	H38	0.738900	0.906000	0.849200
H391	H39	0.945600	0.778400	0.278400
H401	H40	0.261100	0.349200	0.406000
H411	H41	0.809900	0.581500	0.738100
H421	H42	0.738900	0.650800	0.594000
H431	H43	0.282700	0.448400	0.300300
H441	H44	0.758700	0.250000	0.188700
H451	H45	0.940100	0.653000	0.406600
H461	H46	0.717300	0.051600	0.800300
H471	H47	0.282700	0.551600	0.699700
H481	H48	0.261100	0.650800	0.594000
H491	H49	0.758700	0.750000	0.311300
H501	H50	0.758700	0.188700	0.750000
H511	H51	0.940100	0.906600	0.153000
H521	H52	0.241300	0.750000	0.311300
H531	H53	0.738900	0.150800	0.906000
H541	H54	0.261100	0.906000	0.849200
H551	H55	0.717300	0.948400	0.199700
H561	H56	0.168400	0.180600	0.867500
H571	H57	0.809900	0.238100	0.081500
H581	H58	0.261100	0.150800	0.906000
H591	H59	0.190100	0.238100	0.081500
H601	H60	0.241300	0.750000	0.811300
H611	H61	0.940100	0.406600	0.347000
H621	H62	0.168400	0.132500	0.180600
H631	H63	0.940100	0.847000	0.906600
H641	H64	0.241300	0.250000	0.688700
H651	H65	0.282700	0.948400	0.199700
H661	H66	0.758700	0.311300	0.250000
H671	H67	0.831600	0.819400	0.132500
H681	H68	0.945600	0.721600	0.778400
H691	H69	0.809900	0.761900	0.918500
H701	H70	0.261100	0.594000	0.349200
H711	H71	0.261100	0.849200	0.094000
H721	H72	0.059900	0.153000	0.093400
H731	H73	0.831600	0.132500	0.180600
H741	H74	0.738900	0.349200	0.406000
H751	H75	0.282700	0.300300	0.551600
H761	H76	0.831600	0.180600	0.867500
H771	H77	0.940100	0.153000	0.093400
H781	H78	0.945600	0.278400	0.221600
H791	H79	0.168400	0.319400	0.367500
H801	H80	0.809900	0.738100	0.418500
H811	H81	0.758700	0.250000	0.688700
H821	H82	0.261100	0.094000	0.150800
H831	H83	0.717300	0.448400	0.300300
H841	H84	0.809900	0.081500	0.761900
H851	H85	0.831600	0.867500	0.819400
H861	H86	0.168400	0.632500	0.319400
H871	H87	0.241300	0.188700	0.750000
H881	H88	0.190100	0.918500	0.238100
H891	H89	0.758700	0.688700	0.750000
H901	H90	0.190100	0.261900	0.581500
H911	H91	0.059900	0.347000	0.593400
H921	H92	0.190100	0.418500	0.261900
H931	H93	0.168400	0.367500	0.680600
H941	H94	0.261100	0.406000	0.650800
H951	H95	0.059900	0.406600	0.347000
H961	H96	0.241300	0.311300	0.250000
H971	H97	0.831600	0.319400	0.367500
H981	H98	0.054400	0.221600	0.721600
H991	H99	0.059900	0.093400	0.847000
H1001	H100	0.940100	0.093400	0.847000
H1011	H101	0.241300	0.688700	0.750000
H1021	H102	0.809900	0.418500	0.261900
H1031	H103	0.059900	0.653000	0.406600
H1041	H104	0.738900	0.406000	0.650800
C11	C1	0.191600	0.353900	0.654400
C21	C2	0.053800	0.205600	0.147200
C31	C3	0.246700	0.136700	0.876700
C41	C4	0.259500	0.577800	0.686000
C51	C5	0.280600	0.143200	0.098400
C61	C6	0.808400	0.654400	0.646100
C71	C7	0.882000	0.716500	0.341300
C81	C8	0.882000	0.216500	0.158700
C91	C9	0.118000	0.341300	0.283500
C101	C10	0.170500	0.866100	0.188900
C111	C11	0.032800	0.672400	0.386900
C121	C12	0.862600	0.247300	0.690700
C131	C13	0.967200	0.886900	0.172400
C141	C14	0.338400	0.417600	0.382100
C151	C15	0.338400	0.882100	0.917600
C161	C16	0.053800	0.794400	0.852800
C171	C17	0.170500	0.811100	0.866100
C181	C18	0.053800	0.147200	0.794400
C191	C19	0.259500	0.686000	0.422200
C201	C20	0.661600	0.917600	0.117900
C211	C21	0.967200	0.672400	0.386900
C221	C22	0.203900	0.297300	0.235800
C231	C23	0.032800	0.886900	0.172400
C241	C24	0.808400	0.345600	0.353900
C251	C25	0.246700	0.636700	0.623300
C261	C26	0.661600	0.117900	0.082400
C271	C27	0.808400	0.353900	0.654400
C281	C28	0.204500	0.291200	0.595500
C291	C29	0.118000	0.658700	0.716500
C301	C30	0.740500	0.922200	0.186000
C311	C31	0.796100	0.235800	0.702700
C321	C32	0.719400	0.098400	0.856800
C331	C33	0.338400	0.082400	0.882100
C341	C34	0.661600	0.382100	0.582400
C351	C35	0.137400	0.247300	0.690700
C361	C36	0.137400	0.809300	0.252700
C371	C37	0.795500	0.904500	0.208800
C381	C38	0.808400	0.146100	0.154400
C391	C39	0.829500	0.311100	0.633900
C401	C40	0.032800	0.827600	0.886900
C411	C41	0.280600	0.356800	0.598400
C421	C42	0.203900	0.202700	0.735800
C431	C43	0.946200	0.147200	0.794400
C441	C44	0.170500	0.633900	0.688900
C451	C45	0.191600	0.345600	0.353900
C461	C46	0.338400	0.582400	0.617900
C471	C47	0.882000	0.658700	0.716500
C481	C48	0.740500	0.577800	0.686000
C491	C49	0.203900	0.735800	0.797300
C501	C50	0.808400	0.646100	0.345600
C511	C51	0.753300	0.623300	0.363300
C521	C52	0.259500	0.922200	0.186000
C531	C53	0.137400	0.747300	0.809300
C541	C54	0.862600	0.809300	0.252700
C551	C55	0.118000	0.283500	0.658700
C561	C56	0.829500	0.366100	0.311100
C571	C57	0.204500	0.595500	0.708800
C581	C58	0.032800	0.172400	0.113100
C591	C59	0.032800	0.613100	0.672400
C601	C60	0.967200	0.827600	0.886900
C611	C61	0.795500	0.208800	0.095500
C621	C62	0.753300	0.376700	0.636700
C631	C63	0.280600	0.098400	0.856800
C641	C64	0.246700	0.123300	0.136700
C651	C65	0.740500	0.686000	0.422200
C661	C66	0.032800	0.113100	0.827600
C671	C67	0.946200	0.852800	0.205600
C681	C68	0.795500	0.595500	0.708800
C691	C69	0.338400	0.917600	0.117900
C701	C70	0.795500	0.791200	0.904500
C711	C71	0.946200	0.647200	0.705600
C721	C72	0.032800	0.327600	0.613100
C731	C73	0.967200	0.113100	0.827600
C741	C74	0.967200	0.613100	0.672400
C751	C75	0.204500	0.208800	0.095500
C761	C76	0.795500	0.095500	0.791200
C771	C77	0.753300	0.876700	0.863300
C781	C78	0.661600	0.582400	0.617900
C791	C79	0.719400	0.856800	0.901600
C801	C80	0.795500	0.291200	0.595500
C811	C81	0.191600	0.853900	0.845600
C821	C82	0.137400	0.309300	0.247300
C831	C83	0.137400	0.690700	0.752700
C841	C84	0.661600	0.617900	0.417600
C851	C85	0.796100	0.702700	0.764200
C861	C86	0.740500	0.186000	0.077800
C871	C87	0.829500	0.866100	0.188900
C881	C88	0.829500	0.633900	0.688900
C891	C89	0.862600	0.690700	0.752700
C901	C90	0.740500	0.814000	0.922200
C911	C91	0.967200	0.172400	0.113100
C921	C92	0.882000	0.783500	0.841300
C931	C93	0.829500	0.188900	0.133900
C941	C94	0.719400	0.143200	0.098400
C951	C95	0.862600	0.309300	0.247300
C961	C96	0.170500	0.688900	0.366100
C971	C97	0.280600	0.643200	0.401600
C981	C98	0.246700	0.876700	0.863300
C991	C99	0.882000	0.158700	0.783500
C1001	C100	0.170500	0.311100	0.633900
C1011	C101	0.137400	0.752700	0.309300
C1021	C102	0.719400	0.356800	0.598400
C1031	C103	0.338400	0.382100	0.582400
C1041	C104	0.946200	0.794400	0.852800
C1051	C105	0.796100	0.297300	0.235800
C1061	C106	0.170500	0.188900	0.133900
C1071	C107	0.808400	0.845600	0.146100
C1081	C108	0.053800	0.647200	0.705600
C1091	C109	0.829500	0.133900	0.811100
C1101	C110	0.118000	0.716500	0.341300
C1111	C111	0.740500	0.422200	0.314000
C1121	C112	0.719400	0.401600	0.356800
C1131	C113	0.967200	0.327600	0.613100
C1141	C114	0.203900	0.797300	0.264200
C1151	C115	0.740500	0.077800	0.814000
C1161	C116	0.053800	0.705600	0.352800
C1171	C117	0.203900	0.764200	0.297300
C1181	C118	0.204500	0.904500	0.208800
C1191	C119	0.796100	0.764200	0.297300
C1201	C120	0.203900	0.235800	0.702700
C1211	C121	0.259500	0.314000	0.577800
C1221	C122	0.246700	0.863300	0.123300
C1231	C123	0.246700	0.376700	0.636700
C1241	C124	0.946200	0.205600	0.147200
C1251	C125	0.740500	0.314000	0.577800
C1261	C126	0.795500	0.708800	0.404500
C1271	C127	0.862600	0.190700	0.747300
C1281	C128	0.882000	0.341300	0.283500
C1291	C129	0.338400	0.117900	0.082400
C1301	C130	0.118000	0.216500	0.158700
C1311	C131	0.946200	0.352800	0.294400
C1321	C132	0.719400	0.643200	0.401600
C1331	C133	0.719400	0.901600	0.143200
C1341	C134	0.246700	0.623300	0.363300
C1351	C135	0.259500	0.077800	0.814000
C1361	C136	0.246700	0.363300	0.376700
C1371	C137	0.661600	0.882100	0.917600
C1381	C138	0.796100	0.202700	0.735800
C1391	C139	0.967200	0.386900	0.327600
C1401	C140	0.753300	0.136700	0.876700
C1411	C141	0.204500	0.404500	0.291200
C1421	C142	0.280600	0.401600	0.356800
C1431	C143	0.053800	0.852800	0.205600
C1441	C144	0.118000	0.158700	0.783500
C1451	C145	0.862600	0.252700	0.190700
C1461	C146	0.137400	0.252700	0.190700
C1471	C147	0.796100	0.735800	0.797300
C1481	C148	0.796100	0.797300	0.264200
C1491	C149	0.032800	0.386900	0.327600
C1501	C150	0.280600	0.901600	0.143200
C1511	C151	0.259500	0.814000	0.922200
C1521	C152	0.795500	0.404500	0.291200
C1531	C153	0.203900	0.264200	0.202700
C1541	C154	0.829500	0.688900	0.366100
C1551	C155	0.946200	0.294400	0.647200
C1561	C156	0.280600	0.598400	0.643200
C1571	C157	0.118000	0.841300	0.216500
C1581	C158	0.862600	0.752700	0.309300
C1591	C159	0.796100	0.264200	0.202700
C1601	C160	0.204500	0.708800	0.404500
C1611	C161	0.204500	0.791200	0.904500
C1621	C162	0.191600	0.845600	0.146100
C1631	C163	0.053800	0.352800	0.294400
C1641	C164	0.204500	0.095500	0.791200
C1651	C165	0.808400	0.154400	0.853900
C1661	C166	0.753300	0.863300	0.123300
C1671	C167	0.829500	0.811100	0.866100
C1681	C168	0.753300	0.636700	0.623300
C1691	C169	0.203900	0.702700	0.764200
C1701	C170	0.137400	0.190700	0.747300
C1711	C171	0.753300	0.123300	0.136700
C1721	C172	0.191600	0.646100	0.345600
C1731	C173	0.862600	0.747300	0.809300
C1741	C174	0.661600	0.082400	0.882100
C1751	C175	0.808400	0.853900	0.845600
C1761	C176	0.053800	0.294400	0.647200
C1771	C177	0.753300	0.363300	0.376700
C1781	C178	0.882000	0.841300	0.216500
C1791	C179	0.170500	0.133900	0.811100
C1801	C180	0.170500	0.366100	0.311100
C1811	C181	0.661600	0.417600	0.382100
C1821	C182	0.280600	0.856800	0.901600
C1831	C183	0.719400	0.598400	0.643200
C1841	C184	0.191600	0.654400	0.646100
C1851	C185	0.259500	0.422200	0.314000
C1861	C186	0.338400	0.617900	0.417600
C1871	C187	0.946200	0.705600	0.352800
C1881	C188	0.118000	0.783500	0.841300
C1891	C189	0.882000	0.283500	0.658700
C1901	C190	0.259500	0.186000	0.077800
C1911	C191	0.191600	0.146100	0.154400
C1921	C192	0.191600	0.154400	0.853900
N11	N1	0.579100	0.099900	0.039700
N21	N2	0.368800	0.371300	0.541600
N31	N3	0.632400	0.584600	0.395300
N41	N4	0.579100	0.960300	0.099900
N51	N5	0.097000	0.720300	0.779700
N61	N6	0.579100	0.573200	0.420500
N71	N7	0.579100	0.073200	0.079500
N81	N8	0.367600	0.915400	0.895300
N91	N9	0.420900	0.400100	0.539700
N101	N10	0.000000	0.166900	0.772700
N111	N11	0.631200	0.371300	0.541600
N121	N12	0.000000	0.666900	0.727300
N131	N13	0.367600	0.104700	0.915400
N141	N14	0.632400	0.104700	0.915400
N151	N15	0.420900	0.579500	0.573200
N161	N16	0.903000	0.220300	0.720300
N171	N17	0.631200	0.041600	0.871300
N181	N18	0.368800	0.871300	0.958400
N191	N19	0.631200	0.541600	0.628700
N201	N20	0.368800	0.958400	0.128700
N211	N21	0.420900	0.039700	0.900100
N221	N22	0.632400	0.415400	0.604700
N231	N23	0.631200	0.458400	0.371300
N241	N24	0.367600	0.084600	0.104700
N251	N25	0.000000	0.772700	0.833100
N261	N26	0.420900	0.099900	0.039700
N271	N27	0.367600	0.415400	0.604700
N281	N28	0.579100	0.420500	0.426800
N291	N29	0.579100	0.400100	0.539700
N301	N30	0.420900	0.073200	0.079500
N311	N31	0.631200	0.128700	0.041600
N321	N32	0.632400	0.895300	0.084600
N331	N33	0.579100	0.599900	0.460300
N341	N34	0.000000	0.227300	0.166900
N351	N35	0.579100	0.900100	0.960300
N361	N36	0.579100	0.579500	0.573200
N371	N37	0.420900	0.926800	0.920500
N381	N38	0.579100	0.539700	0.599900
N391	N39	0.632400	0.084600	0.104700
N401	N40	0.368800	0.628700	0.458400
N411	N41	0.000000	0.333100	0.272700
N421	N42	0.097000	0.279700	0.220300
N431	N43	0.367600	0.584600	0.395300
N441	N44	0.632400	0.915400	0.895300
N451	N45	0.420900	0.420500	0.426800
N461	N46	0.420900	0.599900	0.460300
N471	N47	0.367600	0.895300	0.084600
N481	N48	0.579100	0.079500	0.926800
N491	N49	0.579100	0.426800	0.579500
N501	N50	0.579100	0.460300	0.400100
N511	N51	0.420900	0.539700	0.599900
N521	N52	0.368800	0.041600	0.871300
N531	N53	0.632400	0.395300	0.415400
N541	N54	0.368800	0.541600	0.628700
N551	N55	0.097000	0.779700	0.279700
N561	N56	0.420900	0.960300	0.099900
N571	N57	0.632400	0.604700	0.584600
N581	N58	0.367600	0.604700	0.584600
N591	N59	0.903000	0.779700	0.279700
N601	N60	0.631200	0.958400	0.128700
N611	N61	0.368800	0.458400	0.371300
N621	N62	0.000000	0.727300	0.333100
N631	N63	0.420900	0.920500	0.073200
N641	N64	0.097000	0.220300	0.720300
N651	N65	0.420900	0.900100	0.960300
N661	N66	0.420900	0.573200	0.420500
N671	N67	0.420900	0.079500	0.926800
N681	N68	0.368800	0.128700	0.041600
N691	N69	0.420900	0.460300	0.400100
N701	N70	0.000000	0.833100	0.227300
N711	N71	0.420900	0.426800	0.579500
N721	N72	0.579100	0.926800	0.920500
N731	N73	0.579100	0.920500	0.073200
N741	N74	0.367600	0.395300	0.415400
N751	N75	0.631200	0.628700	0.458400
N761	N76	0.903000	0.720300	0.779700
N771	N77	0.903000	0.279700	0.220300
N781	N78	0.579100	0.039700	0.900100
N791	N79	0.631200	0.871300	0.958400
N801	N80	0.000000	0.272700	0.666900
Cl11	Cl1	0.500000	0.185370	0.967400
Cl21	Cl2	0.500000	0.967400	0.814630
Cl31	Cl3	0.500000	0.685370	0.532600
Cl41	Cl4	0.500000	0.032600	0.185370
Cl51	Cl5	0.500000	0.532600	0.314630
Cl61	Cl6	0.500000	0.314630	0.467400
Cl71	Cl7	0.500000	0.467400	0.685370
Cl81	Cl8	0.500000	0.814630	0.032600
