data_ja5b02999_si_006_clean_PM
_symmetry_space_group_name_H-M	'P1'
_cell_length_a	20.299000
_cell_length_b	20.331000
_cell_length_c	20.331000
_cell_angle_alpha	90.000000
_cell_angle_beta	90.000000
_cell_angle_gamma	90.000000
_symmetry_Int_Tables_number 1

loop_
_symmetry_equiv_pos_as_xyz
'x,y,z'

loop_
_atom_site_label
_atom_site_type_symbol
_atom_site_fract_x
_atom_site_fract_y
_atom_site_fract_z
Na11	Na1	0.865000	0.814600	0.814600
Na21	Na2	0.135000	0.814600	0.814600
Na31	Na3	0.865000	0.185400	0.185400
Na41	Na4	0.865000	0.185400	0.814600
Na51	Na5	0.865000	0.814600	0.185400
Na61	Na6	0.135000	0.185400	0.814600
Na71	Na7	0.135000	0.814600	0.185400
Na81	Na8	0.135000	0.185400	0.185400
Cd11	Cd1	0.000000	0.902900	0.902900
Cd21	Cd2	0.000000	0.097100	0.902900
Cd31	Cd3	0.000000	0.097100	0.097100
Cd41	Cd4	0.000000	0.902900	0.097100
Cd51	Cd5	0.500000	0.948120	0.500000
Cd61	Cd6	0.500000	0.500000	0.051880
Cd71	Cd7	0.500000	0.051880	0.500000
Cd81	Cd8	0.500000	0.500000	0.948120
H11	H1	0.229300	0.900400	0.753300
H21	H2	0.770700	0.900400	0.246700
H31	H3	0.229300	0.753300	0.099600
H41	H4	0.744900	0.000000	0.439500
H51	H5	0.229300	0.099600	0.246700
H61	H6	0.319900	0.682000	0.099700
H71	H7	0.744900	0.439500	0.000000
H81	H8	0.744900	0.000000	0.560500
H91	H9	0.680100	0.099700	0.318000
H101	H10	0.680100	0.682000	0.099700
H111	H11	0.229300	0.753300	0.900400
H121	H12	0.680100	0.682000	0.900300
H131	H13	0.560600	0.000000	0.747700
H141	H14	0.319900	0.318000	0.099700
H151	H15	0.255100	0.439500	0.000000
H161	H16	0.439400	0.000000	0.252300
H171	H17	0.770700	0.753300	0.900400
H181	H18	0.255100	0.000000	0.439500
H191	H19	0.770700	0.099600	0.753300
H201	H20	0.680100	0.318000	0.099700
H211	H21	0.319900	0.099700	0.318000
H221	H22	0.319900	0.099700	0.682000
H231	H23	0.319900	0.682000	0.900300
H241	H24	0.560600	0.747700	0.000000
H251	H25	0.680100	0.099700	0.682000
H261	H26	0.560600	0.252300	0.000000
H271	H27	0.319900	0.318000	0.900300
H281	H28	0.255100	0.000000	0.560500
H291	H29	0.319900	0.900300	0.682000
H301	H30	0.744900	0.560500	0.000000
H311	H31	0.680100	0.318000	0.900300
H321	H32	0.680100	0.900300	0.682000
H331	H33	0.229300	0.099600	0.753300
H341	H34	0.770700	0.246700	0.099600
H351	H35	0.770700	0.246700	0.900400
H361	H36	0.439400	0.000000	0.747700
H371	H37	0.255100	0.560500	0.000000
H381	H38	0.439400	0.252300	0.000000
H391	H39	0.770700	0.099600	0.246700
H401	H40	0.439400	0.747700	0.000000
H411	H41	0.229300	0.246700	0.099600
H421	H42	0.229300	0.246700	0.900400
H431	H43	0.229300	0.900400	0.246700
H441	H44	0.680100	0.900300	0.318000
H451	H45	0.560600	0.000000	0.252300
H461	H46	0.770700	0.753300	0.099600
H471	H47	0.319900	0.900300	0.318000
H481	H48	0.770700	0.900400	0.753300
C11	C1	0.300500	0.059240	0.304800
C21	C2	0.445190	0.646500	0.000000
C31	C3	0.246700	0.737500	0.059220
C41	C4	0.699500	0.059240	0.304800
C51	C5	0.356500	0.554760	0.000000
C61	C6	0.674200	0.000000	0.327800
C71	C7	0.380400	0.000000	0.379700
C81	C8	0.246700	0.262500	0.940780
C91	C9	0.674200	0.327800	0.000000
C101	C10	0.533370	0.709700	0.000000
C111	C11	0.161000	0.201600	0.000000
C121	C12	0.781600	0.243300	0.000000
C131	C13	0.325800	0.000000	0.672200
C141	C14	0.839000	0.201600	0.000000
C151	C15	0.839000	0.798400	0.000000
C161	C16	0.753300	0.262500	0.940780
C171	C17	0.380400	0.379700	0.000000
C181	C18	0.161000	0.000000	0.798400
C191	C19	0.699500	0.304800	0.940760
C201	C20	0.356500	0.000000	0.554760
C211	C21	0.753300	0.940780	0.262500
C221	C22	0.753300	0.737500	0.940780
C231	C23	0.445190	0.000000	0.353500
C241	C24	0.466630	0.290300	0.000000
C251	C25	0.753300	0.737500	0.059220
C261	C26	0.300500	0.304800	0.059240
C271	C27	0.380400	0.620300	0.000000
C281	C28	0.533370	0.000000	0.709700
C291	C29	0.246700	0.737500	0.940780
C301	C30	0.466630	0.000000	0.709700
C311	C31	0.554810	0.000000	0.646500
C321	C32	0.619600	0.379700	0.000000
C331	C33	0.218400	0.243300	0.000000
C341	C34	0.643500	0.000000	0.445240
C351	C35	0.781600	0.000000	0.756700
C361	C36	0.753300	0.059220	0.737500
C371	C37	0.781600	0.000000	0.243300
C381	C38	0.699500	0.304800	0.059240
C391	C39	0.356500	0.445240	0.000000
C401	C40	0.674200	0.672200	0.000000
C411	C41	0.706900	0.533320	0.000000
C421	C42	0.753300	0.940780	0.737500
C431	C43	0.533370	0.000000	0.290300
C441	C44	0.445190	0.000000	0.646500
C451	C45	0.619600	0.000000	0.620300
C461	C46	0.161000	0.000000	0.201600
C471	C47	0.218400	0.000000	0.756700
C481	C48	0.643500	0.000000	0.554760
C491	C49	0.839000	0.000000	0.201600
C501	C50	0.466630	0.709700	0.000000
C511	C51	0.753300	0.262500	0.059220
C521	C52	0.246700	0.940780	0.262500
C531	C53	0.300500	0.695200	0.059240
C541	C54	0.300500	0.940760	0.695200
C551	C55	0.325800	0.327800	0.000000
C561	C56	0.699500	0.695200	0.059240
C571	C57	0.246700	0.059220	0.737500
C581	C58	0.218400	0.756700	0.000000
C591	C59	0.325800	0.000000	0.327800
C601	C60	0.839000	0.000000	0.798400
C611	C61	0.293100	0.000000	0.466680
C621	C62	0.619600	0.000000	0.379700
C631	C63	0.293100	0.533320	0.000000
C641	C64	0.300500	0.059240	0.695200
C651	C65	0.674200	0.000000	0.672200
C661	C66	0.380400	0.000000	0.620300
C671	C67	0.643500	0.554760	0.000000
C681	C68	0.246700	0.059220	0.262500
C691	C69	0.706900	0.000000	0.533320
C701	C70	0.706900	0.466680	0.000000
C711	C71	0.533370	0.290300	0.000000
C721	C72	0.554810	0.353500	0.000000
C731	C73	0.246700	0.940780	0.737500
C741	C74	0.781600	0.756700	0.000000
C751	C75	0.699500	0.059240	0.695200
C761	C76	0.753300	0.059220	0.262500
C771	C77	0.293100	0.466680	0.000000
C781	C78	0.619600	0.620300	0.000000
C791	C79	0.293100	0.000000	0.533320
C801	C80	0.300500	0.940760	0.304800
C811	C81	0.325800	0.672200	0.000000
C821	C82	0.445190	0.353500	0.000000
C831	C83	0.161000	0.798400	0.000000
C841	C84	0.218400	0.000000	0.243300
C851	C85	0.699500	0.695200	0.940760
C861	C86	0.699500	0.940760	0.304800
C871	C87	0.643500	0.445240	0.000000
C881	C88	0.300500	0.304800	0.940760
C891	C89	0.246700	0.262500	0.059220
C901	C90	0.699500	0.940760	0.695200
C911	C91	0.706900	0.000000	0.466680
C921	C92	0.356500	0.000000	0.445240
C931	C93	0.554810	0.000000	0.353500
C941	C94	0.466630	0.000000	0.290300
C951	C95	0.554810	0.646500	0.000000
C961	C96	0.300500	0.695200	0.940760
N11	N1	0.500000	0.000000	0.604700
N21	N2	0.869600	0.055000	0.181600
N31	N3	0.130400	0.945000	0.818400
N41	N4	0.920620	0.146500	0.967880
N51	N5	0.130400	0.818400	0.945000
N61	N6	0.869600	0.181600	0.945000
N71	N7	0.869600	0.818400	0.055000
N81	N8	0.079380	0.032120	0.853500
N91	N9	0.079380	0.032120	0.146500
N101	N10	0.079380	0.853500	0.967880
N111	N11	0.920620	0.967880	0.853500
N121	N12	0.869600	0.055000	0.818400
N131	N13	0.130400	0.945000	0.181600
N141	N14	0.079380	0.146500	0.032120
N151	N15	0.869600	0.945000	0.818400
N161	N16	0.920620	0.967880	0.146500
N171	N17	0.869600	0.818400	0.945000
N181	N18	0.500000	0.604700	0.000000
N191	N19	0.601700	0.000000	0.500000
N201	N20	0.130400	0.055000	0.181600
N211	N21	0.130400	0.181600	0.055000
N221	N22	0.920620	0.146500	0.032120
N231	N23	0.869600	0.945000	0.181600
N241	N24	0.398300	0.000000	0.500000
N251	N25	0.500000	0.395300	0.000000
N261	N26	0.920620	0.853500	0.967880
N271	N27	0.920620	0.032120	0.853500
N281	N28	0.920620	0.032120	0.146500
N291	N29	0.398300	0.500000	0.000000
N301	N30	0.079380	0.967880	0.146500
N311	N31	0.130400	0.055000	0.818400
N321	N32	0.601700	0.500000	0.000000
N331	N33	0.079380	0.967880	0.853500
N341	N34	0.500000	0.000000	0.395300
N351	N35	0.869600	0.181600	0.055000
N361	N36	0.130400	0.818400	0.055000
N371	N37	0.920620	0.853500	0.032120
N381	N38	0.130400	0.181600	0.945000
N391	N39	0.079380	0.146500	0.967880
N401	N40	0.079380	0.853500	0.032120
Cl11	Cl1	0.000000	0.820600	0.179400
Cl21	Cl2	0.000000	0.179400	0.179400
Cl31	Cl3	0.000000	0.820600	0.820600
Cl41	Cl4	0.000000	0.179400	0.820600
