data_ja5b02999_si_002_clean_PM
_symmetry_space_group_name_H-M	'P1'
_cell_length_a	19.383000
_cell_length_b	21.599000
_cell_length_c	21.599000
_cell_angle_alpha	90.000000
_cell_angle_beta	90.000000
_cell_angle_gamma	90.000000
_symmetry_Int_Tables_number 1

loop_
_symmetry_equiv_pos_as_xyz
'x,y,z'

loop_
_atom_site_label
_atom_site_type_symbol
_atom_site_fract_x
_atom_site_fract_y
_atom_site_fract_z
Cd11	Cd1	0.000000	0.091400	0.908600
Cd21	Cd2	0.000000	0.908600	0.091400
Cd31	Cd3	0.867300	0.173200	0.826800
Cd41	Cd4	0.867300	0.173200	0.173200
Cd51	Cd5	0.000000	0.091400	0.091400
Cd61	Cd6	0.000000	0.908600	0.908600
Cd71	Cd7	0.500000	0.500000	0.962390
Cd81	Cd8	0.500000	0.500000	0.037610
Cd91	Cd9	0.500000	0.962390	0.500000
Cd101	Cd10	0.500000	0.037610	0.500000
Cd111	Cd11	0.867300	0.826800	0.826800
Cd121	Cd12	0.867300	0.826800	0.173200
H11	H1	0.756400	0.000000	0.556600
H21	H2	0.776100	0.093000	0.255200
H31	H3	0.310100	0.093100	0.329800
H41	H4	0.689900	0.906900	0.670200
H51	H5	0.689900	0.093100	0.329800
H61	H6	0.310100	0.670200	0.093100
H71	H7	0.223900	0.744800	0.907000
H81	H8	0.243600	0.000000	0.556600
H91	H9	0.689900	0.670200	0.093100
H101	H10	0.776100	0.255200	0.093000
H111	H11	0.436700	0.731500	0.000000
H121	H12	0.776100	0.907000	0.255200
H131	H13	0.223900	0.093000	0.744800
H141	H14	0.776100	0.907000	0.744800
H151	H15	0.756400	0.000000	0.443400
H161	H16	0.689900	0.093100	0.670200
H171	H17	0.310100	0.093100	0.670200
H181	H18	0.756400	0.443400	0.000000
H191	H19	0.776100	0.255200	0.907000
H201	H20	0.436700	0.000000	0.268500
H211	H21	0.310100	0.906900	0.670200
H221	H22	0.310100	0.906900	0.329800
H231	H23	0.436700	0.000000	0.731500
H241	H24	0.223900	0.744800	0.093000
H251	H25	0.563300	0.000000	0.731500
H261	H26	0.689900	0.906900	0.329800
H271	H27	0.310100	0.329800	0.906900
H281	H28	0.223900	0.907000	0.744800
H291	H29	0.223900	0.907000	0.255200
H301	H30	0.689900	0.329800	0.906900
H311	H31	0.223900	0.255200	0.093000
H321	H32	0.563300	0.268500	0.000000
H331	H33	0.776100	0.093000	0.744800
H341	H34	0.563300	0.000000	0.268500
H351	H35	0.776100	0.744800	0.093000
H361	H36	0.223900	0.255200	0.907000
H371	H37	0.436700	0.268500	0.000000
H381	H38	0.310100	0.329800	0.093100
H391	H39	0.243600	0.443400	0.000000
H401	H40	0.689900	0.329800	0.093100
H411	H41	0.243600	0.556600	0.000000
H421	H42	0.223900	0.093000	0.255200
H431	H43	0.243600	0.000000	0.443400
H441	H44	0.689900	0.670200	0.906900
H451	H45	0.756400	0.556600	0.000000
H461	H46	0.776100	0.744800	0.907000
H471	H47	0.563300	0.731500	0.000000
H481	H48	0.310100	0.670200	0.906900
C11	C1	0.717700	0.468700	0.000000
C21	C2	0.840800	0.800300	0.000000
C31	C3	0.465100	0.000000	0.303200
C41	C4	0.292700	0.315000	0.055780
C51	C5	0.784800	0.000000	0.248160
C61	C6	0.159200	0.000000	0.199700
C71	C7	0.215200	0.000000	0.248160
C81	C8	0.241100	0.944240	0.270300
C91	C9	0.555500	0.637600	0.000000
C101	C10	0.758900	0.055760	0.729700
C111	C11	0.215200	0.751840	0.000000
C121	C12	0.784800	0.248160	0.000000
C131	C13	0.292700	0.944220	0.315000
C141	C14	0.292700	0.685000	0.055780
C151	C15	0.465100	0.303200	0.000000
C161	C16	0.624800	0.612800	0.000000
C171	C17	0.717700	0.000000	0.468700
C181	C18	0.758900	0.270300	0.944240
C191	C19	0.758900	0.729700	0.944240
C201	C20	0.282300	0.468700	0.000000
C211	C21	0.348200	0.550400	0.000000
C221	C22	0.651800	0.550400	0.000000
C231	C23	0.292700	0.315000	0.944220
C241	C24	0.292700	0.055780	0.315000
C251	C25	0.282300	0.531300	0.000000
C261	C26	0.465100	0.696800	0.000000
C271	C27	0.348200	0.000000	0.449600
C281	C28	0.784800	0.751840	0.000000
C291	C29	0.651800	0.449600	0.000000
C301	C30	0.318300	0.000000	0.337500
C311	C31	0.215200	0.248160	0.000000
C321	C32	0.840800	0.000000	0.800300
C331	C33	0.758900	0.944240	0.270300
C341	C34	0.707300	0.685000	0.944220
C351	C35	0.375200	0.000000	0.612800
C361	C36	0.375200	0.612800	0.000000
C371	C37	0.241100	0.055760	0.729700
C381	C38	0.241100	0.055760	0.270300
C391	C39	0.681700	0.337500	0.000000
C401	C40	0.758900	0.729700	0.055760
C411	C41	0.444500	0.000000	0.362400
C421	C42	0.758900	0.270300	0.055760
C431	C43	0.681700	0.662500	0.000000
C441	C44	0.624800	0.000000	0.612800
C451	C45	0.707300	0.944220	0.685000
C461	C46	0.555500	0.000000	0.362400
C471	C47	0.681700	0.000000	0.337500
C481	C48	0.215200	0.000000	0.751840
C491	C49	0.784800	0.000000	0.751840
C501	C50	0.534900	0.000000	0.696800
C511	C51	0.707300	0.315000	0.055780
C521	C52	0.534900	0.000000	0.303200
C531	C53	0.444500	0.362400	0.000000
C541	C54	0.624800	0.000000	0.387200
C551	C55	0.292700	0.944220	0.685000
C561	C56	0.292700	0.685000	0.944220
C571	C57	0.758900	0.055760	0.270300
C581	C58	0.651800	0.000000	0.449600
C591	C59	0.159200	0.000000	0.800300
C601	C60	0.555500	0.000000	0.637600
C611	C61	0.717700	0.000000	0.531300
C621	C62	0.241100	0.944240	0.729700
C631	C63	0.707300	0.055780	0.685000
C641	C64	0.534900	0.696800	0.000000
C651	C65	0.707300	0.055780	0.315000
C661	C66	0.159200	0.199700	0.000000
C671	C67	0.241100	0.729700	0.055760
C681	C68	0.444500	0.637600	0.000000
C691	C69	0.241100	0.270300	0.055760
C701	C70	0.375200	0.000000	0.387200
C711	C71	0.375200	0.387200	0.000000
C721	C72	0.282300	0.000000	0.531300
C731	C73	0.282300	0.000000	0.468700
C741	C74	0.318300	0.000000	0.662500
C751	C75	0.465100	0.000000	0.696800
C761	C76	0.534900	0.303200	0.000000
C771	C77	0.555500	0.362400	0.000000
C781	C78	0.707300	0.685000	0.055780
C791	C79	0.707300	0.944220	0.315000
C801	C80	0.348200	0.000000	0.550400
C811	C81	0.651800	0.000000	0.550400
C821	C82	0.292700	0.055780	0.685000
C831	C83	0.840800	0.199700	0.000000
C841	C84	0.318300	0.337500	0.000000
C851	C85	0.159200	0.800300	0.000000
C861	C86	0.348200	0.449600	0.000000
C871	C87	0.318300	0.662500	0.000000
C881	C88	0.241100	0.270300	0.944240
C891	C89	0.241100	0.729700	0.944240
C901	C90	0.681700	0.000000	0.662500
C911	C91	0.444500	0.000000	0.637600
C921	C92	0.840800	0.000000	0.199700
C931	C93	0.758900	0.944240	0.729700
C941	C94	0.624800	0.387200	0.000000
C951	C95	0.717700	0.531300	0.000000
C961	C96	0.707300	0.315000	0.944220
N11	N1	0.500000	0.000000	0.402000
N21	N2	0.869500	0.180000	0.948000
N31	N3	0.081220	0.859310	0.030620
N41	N4	0.130500	0.052000	0.180000
N51	N5	0.130500	0.052000	0.820000
N61	N6	0.130500	0.180000	0.052000
N71	N7	0.081220	0.030620	0.859310
N81	N8	0.130500	0.948000	0.180000
N91	N9	0.918780	0.030620	0.140690
N101	N10	0.869500	0.948000	0.820000
N111	N11	0.081220	0.969380	0.140690
N121	N12	0.130500	0.820000	0.052000
N131	N13	0.500000	0.402000	0.000000
N141	N14	0.500000	0.598000	0.000000
N151	N15	0.500000	0.000000	0.598000
N161	N16	0.130500	0.820000	0.948000
N171	N17	0.130500	0.180000	0.948000
N181	N18	0.918780	0.140690	0.030620
N191	N19	0.918780	0.140690	0.969380
N201	N20	0.081220	0.140690	0.969380
N211	N21	0.918780	0.969380	0.859310
N221	N22	0.081220	0.859310	0.969380
N231	N23	0.869500	0.948000	0.180000
N241	N24	0.918780	0.859310	0.030620
N251	N25	0.869500	0.180000	0.052000
N261	N26	0.869500	0.820000	0.052000
N271	N27	0.130500	0.948000	0.820000
N281	N28	0.869500	0.052000	0.180000
N291	N29	0.081220	0.030620	0.140690
N301	N30	0.391400	0.000000	0.500000
N311	N31	0.869500	0.820000	0.948000
N321	N32	0.869500	0.052000	0.820000
N331	N33	0.918780	0.969380	0.140690
N341	N34	0.081220	0.140690	0.030620
N351	N35	0.918780	0.859310	0.969380
N361	N36	0.081220	0.969380	0.859310
N371	N37	0.918780	0.030620	0.859310
N381	N38	0.391400	0.500000	0.000000
N391	N39	0.608600	0.500000	0.000000
N401	N40	0.608600	0.000000	0.500000
Cl11	Cl1	0.000000	0.830700	0.169300
Cl21	Cl2	0.000000	0.169300	0.830700
Cl31	Cl3	0.000000	0.830700	0.830700
Cl41	Cl4	0.000000	0.169300	0.169300
