data_ja5b02556_si_002_clean_PM
_symmetry_space_group_name_H-M	'P1'
_cell_length_a	5.159400
_cell_length_b	11.027400
_cell_length_c	15.274000
_cell_angle_alpha	83.310000
_cell_angle_beta	87.657000
_cell_angle_gamma	83.128000
_symmetry_Int_Tables_number 1

loop_
_symmetry_equiv_pos_as_xyz
'x,y,z'

loop_
_atom_site_label
_atom_site_type_symbol
_atom_site_fract_x
_atom_site_fract_y
_atom_site_fract_z
C11	C1	0.979500	0.625400	0.490550
H11	H1	0.964600	0.710800	0.484200
C21	C2	0.077200	0.562080	0.568940
C31	C3	0.096600	0.432660	0.578480
C41	C4	0.185000	0.356000	0.661350
C51	C5	0.409200	0.271900	0.660400
H21	H2	0.499400	0.260500	0.607500
C61	C6	0.498000	0.205000	0.738220
H31	H3	0.651600	0.151600	0.737300
C71	C7	0.361100	0.217000	0.817000
C81	C8	0.132400	0.297000	0.816920
H41	H4	0.034900	0.304000	0.869000
C91	C9	0.048600	0.366100	0.740080
H51	H5	0.896900	0.420700	0.741400
C101	C10	0.464500	0.150200	0.901980
C111	C11	0.157300	0.633530	0.638920
C121	C12	0.385800	0.596200	0.684480
H61	H6	0.497300	0.529000	0.668900
C131	C13	0.448700	0.658200	0.752680
H71	H7	0.602100	0.632100	0.782800
C141	C14	0.285500	0.758950	0.776790
C151	C15	0.061400	0.798900	0.729500
H81	H8	0.952400	0.867600	0.743900
C161	C16	0.999800	0.737000	0.661130
H91	H9	0.850200	0.765100	0.629400
C171	C17	0.338700	0.820600	0.854210
O11	O1	0.304800	0.141970	0.967940
O21	O2	0.698300	0.109580	0.904230
O31	O3	0.181800	0.898160	0.883250
O41	O4	0.568600	0.784650	0.887190
H101	H10	0.586900	0.821800	0.929600
C181	C18	0.020500	0.374600	0.509450
H111	H11	0.035400	0.289200	0.515800
C191	C19	0.922800	0.437920	0.431060
C201	C20	0.903400	0.567340	0.421520
C211	C21	0.815000	0.644000	0.338650
C221	C22	0.590800	0.728100	0.339600
H121	H12	0.500600	0.739500	0.392500
C231	C23	0.502000	0.795000	0.261780
H131	H13	0.348400	0.848400	0.262700
C241	C24	0.638900	0.783000	0.183000
C251	C25	0.867600	0.703000	0.183080
H141	H14	0.965100	0.696000	0.131000
C261	C26	0.951400	0.633900	0.259920
H151	H15	0.103100	0.579300	0.258600
C271	C27	0.535500	0.849800	0.098020
C281	C28	0.842700	0.366470	0.361080
C291	C29	0.614200	0.403800	0.315520
H161	H16	0.502700	0.471000	0.331100
C301	C30	0.551300	0.341800	0.247320
H171	H17	0.397900	0.367900	0.217200
C311	C31	0.714500	0.241050	0.223210
C321	C32	0.938600	0.201100	0.270500
H181	H18	0.047600	0.132400	0.256100
C331	C33	0.000200	0.263000	0.338870
H191	H19	0.149800	0.234900	0.370600
C341	C34	0.661300	0.179400	0.145790
O51	O5	0.695200	0.858030	0.032060
O61	O6	0.301700	0.890420	0.095770
O71	O7	0.818200	0.101840	0.116750
O81	O8	0.431400	0.215350	0.112810
H201	H20	0.413100	0.178200	0.070400
Ca11	Ca1	0.000000	0.000000	0.000000
