data_ja5b02999_si_003_clean_PM
_symmetry_space_group_name_H-M	'P1'
_cell_length_a	20.452000
_cell_length_b	27.849000
_cell_length_c	27.849000
_cell_angle_alpha	90.000000
_cell_angle_beta	90.000000
_cell_angle_gamma	90.000000
_symmetry_Int_Tables_number 1

loop_
_symmetry_equiv_pos_as_xyz
'x,y,z'

loop_
_atom_site_label
_atom_site_type_symbol
_atom_site_fract_x
_atom_site_fract_y
_atom_site_fract_z
Cd11	Cd1	0.124710	0.315090	0.453910
Cd21	Cd2	0.500000	0.179690	0.679690
Cd31	Cd3	0.124710	0.815090	0.046090
Cd41	Cd4	0.875290	0.953910	0.815090
Cd51	Cd5	0.875290	0.046090	0.184910
Cd61	Cd6	0.875290	0.815090	0.046090
Cd71	Cd7	0.000000	0.025400	0.096520
Cd81	Cd8	0.875290	0.684910	0.546090
Cd91	Cd9	0.124710	0.184910	0.953910
Cd101	Cd10	0.124710	0.546090	0.315090
Cd111	Cd11	0.875290	0.546090	0.315090
Cd121	Cd12	0.000000	0.525400	0.403480
Cd131	Cd13	0.000000	0.903480	0.025400
Cd141	Cd14	0.000000	0.596520	0.525400
Cd151	Cd15	0.875290	0.315090	0.453910
Cd161	Cd16	0.500000	0.820310	0.320310
Cd171	Cd17	0.500000	0.320310	0.179690
Cd181	Cd18	0.875290	0.184910	0.953910
Cd191	Cd19	0.000000	0.096520	0.974600
Cd201	Cd20	0.875290	0.453910	0.684910
Cd211	Cd21	0.500000	0.721500	0.778500
Cd221	Cd22	0.500000	0.278500	0.221500
Cd231	Cd23	0.124710	0.684910	0.546090
Cd241	Cd24	0.500000	0.679690	0.820310
Cd251	Cd25	0.000000	0.974600	0.903480
Cd261	Cd26	0.500000	0.778500	0.278500
Cd271	Cd27	0.500000	0.221500	0.721500
Cd281	Cd28	0.000000	0.403480	0.474600
Cd291	Cd29	0.124710	0.046090	0.184910
Cd301	Cd30	0.124710	0.953910	0.815090
Cd311	Cd31	0.000000	0.474600	0.596520
Cd321	Cd32	0.124710	0.453910	0.684910
H11	H1	0.676000	0.822100	0.156300
H21	H2	0.684100	0.559300	0.740400
H31	H3	0.560100	0.588400	0.661800
H41	H4	0.224300	0.197800	0.032400
H51	H5	0.684100	0.940700	0.240400
H61	H6	0.315900	0.440700	0.259600
H71	H7	0.743200	0.171400	0.737300
H81	H8	0.767600	0.848900	0.113700
H91	H9	0.324000	0.343700	0.677900
H101	H10	0.224300	0.967600	0.197800
H111	H11	0.256800	0.828600	0.262700
H121	H12	0.324000	0.843700	0.822100
H131	H13	0.560100	0.088400	0.838200
H141	H14	0.324000	0.156300	0.177900
H151	H15	0.684100	0.240400	0.059300
H161	H16	0.315900	0.740400	0.440700
H171	H17	0.560100	0.411600	0.338200
H181	H18	0.324000	0.677900	0.656300
H191	H19	0.743200	0.828600	0.262700
H201	H20	0.775700	0.197800	0.032400
H211	H21	0.775700	0.802200	0.967600
H221	H22	0.676000	0.843700	0.822100
H231	H23	0.439900	0.838200	0.911600
H241	H24	0.743200	0.762700	0.328600
H251	H25	0.315900	0.240400	0.059300
H261	H26	0.743200	0.328600	0.237300
H271	H27	0.224300	0.532400	0.697800
H281	H28	0.767600	0.886300	0.848900
H291	H29	0.560100	0.338200	0.588400
H301	H30	0.232400	0.386300	0.651100
H311	H31	0.256800	0.671400	0.762700
H321	H32	0.676000	0.322100	0.343700
H331	H33	0.232400	0.848900	0.113700
H341	H34	0.775700	0.532400	0.697800
H351	H35	0.256800	0.328600	0.237300
H361	H36	0.224300	0.032400	0.802200
H371	H37	0.676000	0.177900	0.843700
H381	H38	0.232400	0.151100	0.886300
H391	H39	0.315900	0.759600	0.940700
H401	H40	0.232400	0.886300	0.848900
H411	H41	0.684100	0.259600	0.559300
H421	H42	0.560100	0.838200	0.911600
H431	H43	0.224300	0.697800	0.467600
H441	H44	0.767600	0.113700	0.151100
H451	H45	0.676000	0.156300	0.177900
H461	H46	0.439900	0.661800	0.411600
H471	H47	0.676000	0.343700	0.677900
H481	H48	0.767600	0.651100	0.613700
H491	H49	0.232400	0.651100	0.613700
H501	H50	0.232400	0.348900	0.386300
H511	H51	0.684100	0.440700	0.259600
H521	H52	0.315900	0.059300	0.759600
H531	H53	0.324000	0.656300	0.322100
H541	H54	0.439900	0.911600	0.161800
H551	H55	0.676000	0.656300	0.322100
H561	H56	0.775700	0.032400	0.802200
H571	H57	0.775700	0.467600	0.302200
H581	H58	0.439900	0.338200	0.588400
H591	H59	0.767600	0.348900	0.386300
H601	H60	0.256800	0.237300	0.671400
H611	H61	0.560100	0.161800	0.088400
H621	H62	0.232400	0.113700	0.151100
H631	H63	0.256800	0.762700	0.328600
H641	H64	0.315900	0.940700	0.240400
H651	H65	0.324000	0.822100	0.156300
H661	H66	0.324000	0.177900	0.843700
H671	H67	0.324000	0.322100	0.343700
H681	H68	0.224300	0.802200	0.967600
H691	H69	0.743200	0.237300	0.671400
H701	H70	0.439900	0.588400	0.661800
H711	H71	0.232400	0.613700	0.348900
H721	H72	0.743200	0.737300	0.828600
H731	H73	0.560100	0.661800	0.411600
H741	H74	0.315900	0.559300	0.740400
H751	H75	0.775700	0.697800	0.467600
H761	H76	0.775700	0.302200	0.532400
H771	H77	0.684100	0.059300	0.759600
H781	H78	0.224300	0.302200	0.532400
H791	H79	0.775700	0.967600	0.197800
H801	H80	0.439900	0.088400	0.838200
H811	H81	0.224300	0.467600	0.302200
H821	H82	0.684100	0.740400	0.440700
H831	H83	0.743200	0.262700	0.171400
H841	H84	0.560100	0.911600	0.161800
H851	H85	0.256800	0.737300	0.828600
H861	H86	0.315900	0.259600	0.559300
H871	H87	0.256800	0.171400	0.737300
H881	H88	0.439900	0.411600	0.338200
H891	H89	0.767600	0.151100	0.886300
H901	H90	0.676000	0.677900	0.656300
H911	H91	0.767600	0.386300	0.651100
H921	H92	0.684100	0.759600	0.940700
H931	H93	0.439900	0.161800	0.088400
H941	H94	0.767600	0.613700	0.348900
H951	H95	0.743200	0.671400	0.762700
H961	H96	0.256800	0.262700	0.171400
C11	C1	0.303800	0.351600	0.335300
C21	C2	0.701000	0.922100	0.214700
C31	C3	0.750600	0.132400	0.860600
C41	C4	0.381000	0.765400	0.858500
C51	C5	0.750600	0.360600	0.632400
C61	C6	0.357400	0.825900	0.269300
C71	C7	0.299000	0.714700	0.422100
C81	C8	0.219800	0.910800	0.151700
C91	C9	0.299000	0.785300	0.922100
C101	C10	0.244600	0.438000	0.310600
C111	C11	0.158900	0.125700	0.073360
C121	C12	0.706000	0.722100	0.814900
C131	C13	0.158900	0.625700	0.426640
C141	C14	0.249400	0.639400	0.367600
C151	C15	0.294000	0.185100	0.722100
C161	C16	0.219800	0.410800	0.348300
C171	C17	0.294000	0.685100	0.777900
C181	C18	0.467010	0.315100	0.603600
C191	C19	0.701000	0.285300	0.577900
C201	C20	0.619000	0.734600	0.358500
C211	C21	0.619000	0.141500	0.765400
C221	C22	0.696200	0.148400	0.835300
C231	C23	0.445900	0.871200	0.223400
C241	C24	0.219800	0.651700	0.410800
C251	C25	0.554100	0.128800	0.776600
C261	C26	0.619000	0.265400	0.641500
C271	C27	0.750600	0.367600	0.360600
C281	C28	0.750600	0.632400	0.639400
C291	C29	0.445900	0.723400	0.371200
C301	C30	0.554100	0.723400	0.371200
C311	C31	0.244600	0.689400	0.438000
C321	C32	0.642600	0.230700	0.674100
C331	C33	0.303800	0.851600	0.164700
C341	C34	0.445900	0.128800	0.776600
C351	C35	0.696200	0.335300	0.648400
C361	C36	0.780200	0.848300	0.910800
C371	C37	0.696200	0.164700	0.148400
C381	C38	0.671400	0.797600	0.878900
C391	C39	0.750600	0.139400	0.132400
C401	C40	0.244600	0.189400	0.062000
C411	C41	0.619000	0.641500	0.734600
C421	C42	0.467010	0.103600	0.815100
C431	C43	0.303800	0.648400	0.664700
C441	C44	0.219800	0.089200	0.848300
C451	C45	0.328600	0.797600	0.878900
C461	C46	0.755400	0.189400	0.062000
C471	C47	0.328600	0.702400	0.378900
C481	C48	0.532990	0.896400	0.184900
C491	C49	0.619000	0.358500	0.265400
C501	C50	0.328600	0.378900	0.297600
C511	C51	0.219800	0.151700	0.089200
C521	C52	0.249400	0.367600	0.360600
C531	C53	0.671400	0.378900	0.297600
C541	C54	0.755400	0.689400	0.438000
C551	C55	0.328600	0.297600	0.621100
C561	C56	0.249400	0.360600	0.632400
C571	C57	0.671400	0.702400	0.378900
C581	C58	0.841100	0.426640	0.374300
C591	C59	0.445900	0.223400	0.128800
C601	C60	0.467010	0.396400	0.315100
C611	C61	0.445900	0.776600	0.871200
C621	C62	0.706000	0.685100	0.777900
C631	C63	0.381000	0.858500	0.234600
C641	C64	0.780200	0.348300	0.589200
C651	C65	0.294000	0.222100	0.685100
C661	C66	0.445900	0.371200	0.276600
C671	C67	0.671400	0.121100	0.797600
C681	C68	0.696200	0.835300	0.851600
C691	C69	0.158900	0.926640	0.125700
C701	C70	0.219800	0.348300	0.589200
C711	C71	0.467010	0.684900	0.396400
C721	C72	0.696200	0.648400	0.664700
C731	C73	0.328600	0.121100	0.797600
C741	C74	0.554100	0.871200	0.223400
C751	C75	0.642600	0.825900	0.269300
C761	C76	0.554100	0.371200	0.276600
C771	C77	0.706000	0.185100	0.722100
C781	C78	0.841100	0.073360	0.874300
C791	C79	0.701000	0.214700	0.077900
C801	C80	0.532990	0.315100	0.603600
C811	C81	0.381000	0.234600	0.141500
C821	C82	0.381000	0.358500	0.265400
C831	C83	0.706000	0.314900	0.222100
C841	C84	0.671400	0.202400	0.121100
C851	C85	0.445900	0.276600	0.628800
C861	C86	0.303800	0.835300	0.851600
C871	C87	0.701000	0.577900	0.714700
C881	C88	0.841100	0.874300	0.926640
C891	C89	0.841100	0.926640	0.125700
C901	C90	0.381000	0.641500	0.734600
C911	C91	0.328600	0.202400	0.121100
C921	C92	0.357400	0.674100	0.769300
C931	C93	0.532990	0.103600	0.815100
C941	C94	0.357400	0.269300	0.174100
C951	C95	0.554100	0.776600	0.871200
C961	C96	0.467010	0.815100	0.896400
C971	C97	0.642600	0.325900	0.230700
C981	C98	0.303800	0.148400	0.835300
C991	C99	0.554100	0.223400	0.128800
C1001	C100	0.701000	0.422100	0.285300
C1011	C101	0.158900	0.073360	0.874300
C1021	C102	0.244600	0.938000	0.189400
C1031	C103	0.445900	0.628800	0.723400
C1041	C104	0.642600	0.674100	0.769300
C1051	C105	0.701000	0.077900	0.785300
C1061	C106	0.755400	0.810600	0.938000
C1071	C107	0.532990	0.684900	0.396400
C1081	C108	0.642600	0.174100	0.730700
C1091	C109	0.532990	0.184900	0.103600
C1101	C110	0.381000	0.141500	0.765400
C1111	C111	0.244600	0.562000	0.689400
C1121	C112	0.357400	0.730700	0.825900
C1131	C113	0.357400	0.230700	0.674100
C1141	C114	0.249400	0.632400	0.639400
C1151	C115	0.158900	0.874300	0.926640
C1161	C116	0.780200	0.651700	0.410800
C1171	C117	0.706000	0.814900	0.277900
C1181	C118	0.357400	0.769300	0.325900
C1191	C119	0.696200	0.351600	0.335300
C1201	C120	0.294000	0.277900	0.185100
C1211	C121	0.755400	0.310600	0.562000
C1221	C122	0.303800	0.335300	0.648400
C1231	C123	0.532990	0.603600	0.684900
C1241	C124	0.780200	0.410800	0.348300
C1251	C125	0.554100	0.276600	0.628800
C1261	C126	0.750600	0.867600	0.139400
C1271	C127	0.467010	0.603600	0.684900
C1281	C128	0.299000	0.922100	0.214700
C1291	C129	0.696200	0.851600	0.164700
C1301	C130	0.619000	0.234600	0.141500
C1311	C131	0.701000	0.714700	0.422100
C1321	C132	0.841100	0.573360	0.625700
C1331	C133	0.701000	0.785300	0.922100
C1341	C134	0.706000	0.277900	0.185100
C1351	C135	0.381000	0.265400	0.641500
C1361	C136	0.841100	0.625700	0.426640
C1371	C137	0.467010	0.896400	0.184900
C1381	C138	0.249400	0.139400	0.132400
C1391	C139	0.532990	0.815100	0.896400
C1401	C140	0.750600	0.639400	0.367600
C1411	C141	0.696200	0.664700	0.351600
C1421	C142	0.642600	0.730700	0.825900
C1431	C143	0.299000	0.422100	0.285300
C1441	C144	0.244600	0.062000	0.810600
C1451	C145	0.299000	0.077900	0.785300
C1461	C146	0.249400	0.867600	0.139400
C1471	C147	0.249400	0.860600	0.867600
C1481	C148	0.671400	0.297600	0.621100
C1491	C149	0.357400	0.325900	0.230700
C1501	C150	0.294000	0.722100	0.814900
C1511	C151	0.554100	0.628800	0.723400
C1521	C152	0.642600	0.269300	0.174100
C1531	C153	0.706000	0.222100	0.685100
C1541	C154	0.244600	0.310600	0.562000
C1551	C155	0.381000	0.734600	0.358500
C1561	C156	0.642600	0.769300	0.325900
C1571	C157	0.158900	0.573360	0.625700
C1581	C158	0.219800	0.589200	0.651700
C1591	C159	0.780200	0.910800	0.151700
C1601	C160	0.619000	0.765400	0.858500
C1611	C161	0.219800	0.848300	0.910800
C1621	C162	0.755400	0.062000	0.810600
C1631	C163	0.357400	0.174100	0.730700
C1641	C164	0.619000	0.858500	0.234600
C1651	C165	0.841100	0.374300	0.573360
C1661	C166	0.299000	0.214700	0.077900
C1671	C167	0.303800	0.164700	0.148400
C1681	C168	0.158900	0.374300	0.573360
C1691	C169	0.299000	0.577900	0.714700
C1701	C170	0.532990	0.396400	0.315100
C1711	C171	0.780200	0.589200	0.651700
C1721	C172	0.328600	0.878900	0.202400
C1731	C173	0.158900	0.426640	0.374300
C1741	C174	0.755400	0.562000	0.689400
C1751	C175	0.299000	0.285300	0.577900
C1761	C176	0.750600	0.860600	0.867600
C1771	C177	0.294000	0.777900	0.314900
C1781	C178	0.706000	0.777900	0.314900
C1791	C179	0.671400	0.878900	0.202400
C1801	C180	0.249400	0.132400	0.860600
C1811	C181	0.294000	0.314900	0.222100
C1821	C182	0.755400	0.938000	0.189400
C1831	C183	0.755400	0.438000	0.310600
C1841	C184	0.244600	0.810600	0.938000
C1851	C185	0.841100	0.125700	0.073360
C1861	C186	0.780200	0.089200	0.848300
C1871	C187	0.328600	0.621100	0.702400
C1881	C188	0.467010	0.184900	0.103600
C1891	C189	0.780200	0.151700	0.089200
C1901	C190	0.294000	0.814900	0.277900
C1911	C191	0.671400	0.621100	0.702400
C1921	C192	0.303800	0.664700	0.351600
N11	N1	0.130700	0.899800	0.093700
N21	N2	0.079200	0.395600	0.532500
N31	N3	0.396500	0.695200	0.804800
N41	N4	0.920800	0.467500	0.395600
N51	N5	0.500000	0.354400	0.250500
N61	N6	0.868700	0.032300	0.865800
N71	N7	0.131300	0.134200	0.032300
N81	N8	0.869300	0.093700	0.100200
N91	N9	0.131300	0.634200	0.467700
N101	N10	0.079200	0.604400	0.467500
N111	N11	0.130700	0.406300	0.600200
N121	N12	0.500000	0.749500	0.354400
N131	N13	0.868700	0.634200	0.467700
N141	N14	0.080000	0.574800	0.579000
N151	N15	0.500000	0.854400	0.249500
N161	N16	0.079200	0.104400	0.032500
N171	N17	0.500000	0.145600	0.750500
N181	N18	0.868700	0.365800	0.532300
N191	N19	0.396500	0.195200	0.695200
N201	N20	0.079200	0.467500	0.395600
N211	N21	0.603500	0.195200	0.695200
N221	N22	0.920000	0.079000	0.074800
N231	N23	0.920000	0.425200	0.421000
N241	N24	0.396500	0.804800	0.304800
N251	N25	0.500000	0.645600	0.749500
N261	N26	0.869300	0.399800	0.406300
N271	N27	0.080000	0.421000	0.574800
N281	N28	0.920000	0.925200	0.079000
N291	N29	0.396500	0.304800	0.195200
N301	N30	0.869300	0.593700	0.399800
N311	N31	0.920800	0.104400	0.032500
N321	N32	0.500000	0.249500	0.145600
N331	N33	0.080000	0.074800	0.921000
N341	N34	0.131300	0.365800	0.532300
N351	N35	0.920800	0.967500	0.104400
N361	N36	0.920000	0.574800	0.579000
N371	N37	0.131300	0.967700	0.134200
N381	N38	0.920800	0.895600	0.967500
N391	N39	0.131300	0.865800	0.967700
N401	N40	0.080000	0.425200	0.421000
N411	N41	0.868700	0.865800	0.967700
N421	N42	0.130700	0.399800	0.406300
N431	N43	0.869300	0.600200	0.593700
N441	N44	0.869300	0.906300	0.899800
N451	N45	0.920800	0.532500	0.604400
N461	N46	0.131300	0.032300	0.865800
N471	N47	0.080000	0.925200	0.079000
N481	N48	0.079200	0.532500	0.604400
N491	N49	0.079200	0.895600	0.967500
N501	N50	0.920000	0.421000	0.574800
N511	N51	0.079200	0.967500	0.104400
N521	N52	0.130700	0.600200	0.593700
N531	N53	0.920000	0.074800	0.921000
N541	N54	0.920000	0.579000	0.425200
N551	N55	0.869300	0.899800	0.093700
N561	N56	0.920800	0.032500	0.895600
N571	N57	0.920800	0.604400	0.467500
N581	N58	0.920000	0.921000	0.925200
N591	N59	0.500000	0.750500	0.854400
N601	N60	0.130700	0.593700	0.399800
N611	N61	0.130700	0.100200	0.906300
N621	N62	0.130700	0.906300	0.899800
N631	N63	0.603500	0.304800	0.195200
N641	N64	0.130700	0.093700	0.100200
N651	N65	0.131300	0.467700	0.365800
N661	N66	0.868700	0.134200	0.032300
N671	N67	0.868700	0.532300	0.634200
N681	N68	0.079200	0.032500	0.895600
N691	N69	0.868700	0.467700	0.365800
N701	N70	0.920800	0.395600	0.532500
N711	N71	0.131300	0.532300	0.634200
N721	N72	0.500000	0.250500	0.645600
N731	N73	0.869300	0.406300	0.600200
N741	N74	0.080000	0.579000	0.425200
N751	N75	0.603500	0.804800	0.304800
N761	N76	0.869300	0.100200	0.906300
N771	N77	0.603500	0.695200	0.804800
N781	N78	0.868700	0.967700	0.134200
N791	N79	0.080000	0.921000	0.925200
N801	N80	0.080000	0.079000	0.074800
Cl11	Cl1	0.000000	0.951200	0.817810
Cl21	Cl2	0.000000	0.048800	0.182190
Cl31	Cl3	0.000000	0.548800	0.317810
Cl41	Cl4	0.000000	0.817810	0.048800
Cl51	Cl5	0.000000	0.451200	0.682190
Cl61	Cl6	0.000000	0.317810	0.451200
Cl71	Cl7	0.000000	0.182190	0.951200
Cl81	Cl8	0.000000	0.682190	0.548800
