data_ja907023c_si_004_clean_PM
_symmetry_space_group_name_H-M	'P1'
_cell_length_a	20.066400
_cell_length_b	20.066200
_cell_length_c	20.066200
_cell_angle_alpha	109.471000
_cell_angle_beta	109.471000
_cell_angle_gamma	109.471000
_symmetry_Int_Tables_number 1

loop_
_symmetry_equiv_pos_as_xyz
'x,y,z'

loop_
_atom_site_label
_atom_site_type_symbol
_atom_site_fract_x
_atom_site_fract_y
_atom_site_fract_z
Co11	Co1	0.500000	0.500000	0.500000
Co21	Co2	0.500000	0.000000	0.000000
Co31	Co3	0.000000	0.000000	0.500000
Co41	Co4	0.000000	0.500000	0.000000
H11	H1	0.513100	0.890200	0.090300
H21	H2	0.255300	0.360000	0.333700
H31	H3	0.109800	0.622900	0.200100
H41	H4	0.890200	0.377100	0.799900
H51	H5	0.149100	0.272600	0.336100
H61	H6	0.102100	0.803300	0.382200
H71	H7	0.109800	0.909700	0.486900
H81	H8	0.921600	0.666300	0.026300
H91	H9	0.813000	0.876500	0.149100
H101	H10	0.104700	0.026300	0.360000
H111	H11	0.701200	0.421100	0.803300
H121	H12	0.280100	0.382200	0.578900
H131	H13	0.744700	0.078400	0.104700
H141	H14	0.909700	0.486900	0.109800
H151	H15	0.333700	0.255300	0.360000
H161	H16	0.876500	0.063500	0.727400
H171	H17	0.078400	0.104700	0.744700
H181	H18	0.622900	0.200100	0.109800
H191	H19	0.102100	0.719900	0.298800
H201	H20	0.486900	0.577200	0.377100
H211	H21	0.078400	0.333700	0.973700
H221	H22	0.486900	0.109800	0.909700
H231	H23	0.577200	0.377100	0.486900
H241	H24	0.090300	0.200100	0.577200
H251	H25	0.640000	0.895300	0.973700
H261	H26	0.890200	0.090300	0.513100
H271	H27	0.936500	0.272600	0.123500
H281	H28	0.298800	0.102100	0.719900
H291	H29	0.422800	0.909700	0.799900
H301	H30	0.513100	0.422800	0.622900
H311	H31	0.421100	0.719900	0.617800
H321	H32	0.336100	0.063500	0.187000
H331	H33	0.377100	0.799900	0.890200
H341	H34	0.666300	0.744700	0.640000
H351	H35	0.026300	0.921600	0.666300
H361	H36	0.272600	0.336100	0.149100
H371	H37	0.280100	0.701200	0.897900
H381	H38	0.578900	0.196700	0.298800
H391	H39	0.666300	0.026300	0.921600
H401	H40	0.640000	0.666300	0.744700
H411	H41	0.090300	0.513100	0.890200
H421	H42	0.123500	0.936500	0.272600
H431	H43	0.298800	0.578900	0.196700
H441	H44	0.617800	0.897900	0.196700
H451	H45	0.719900	0.617800	0.421100
H461	H46	0.577200	0.090300	0.200100
H471	H47	0.663900	0.850900	0.727400
H481	H48	0.727400	0.663900	0.850900
H491	H49	0.727400	0.876500	0.063500
H501	H50	0.895300	0.255300	0.921600
H511	H51	0.196700	0.617800	0.897900
H521	H52	0.104700	0.744700	0.078400
H531	H53	0.187000	0.336100	0.063500
H541	H54	0.272600	0.123500	0.936500
H551	H55	0.850900	0.727400	0.663900
H561	H56	0.360000	0.104700	0.026300
H571	H57	0.421100	0.803300	0.701200
H581	H58	0.617800	0.421100	0.719900
H591	H59	0.973700	0.640000	0.895300
H601	H60	0.744700	0.640000	0.666300
H611	H61	0.897900	0.196700	0.617800
H621	H62	0.333700	0.973700	0.078400
H631	H63	0.200100	0.109800	0.622900
H641	H64	0.422800	0.622900	0.513100
H651	H65	0.063500	0.727400	0.876500
H661	H66	0.799900	0.422800	0.909700
H671	H67	0.936500	0.813000	0.663900
H681	H68	0.876500	0.149100	0.813000
H691	H69	0.578900	0.280100	0.382200
H701	H70	0.026300	0.360000	0.104700
H711	H71	0.909700	0.799900	0.422800
H721	H72	0.799900	0.890200	0.377100
H731	H73	0.200100	0.577200	0.090300
H741	H74	0.360000	0.333700	0.255300
H751	H75	0.377100	0.486900	0.577200
H761	H76	0.382200	0.578900	0.280100
H771	H77	0.123500	0.850900	0.187000
H781	H78	0.336100	0.149100	0.272600
H791	H79	0.622900	0.513100	0.422800
H801	H80	0.149100	0.813000	0.876500
H811	H81	0.803300	0.382200	0.102100
H821	H82	0.973700	0.078400	0.333700
H831	H83	0.921600	0.895300	0.255300
H841	H84	0.850900	0.187000	0.123500
H851	H85	0.803300	0.701200	0.421100
H861	H86	0.813000	0.663900	0.936500
H871	H87	0.663900	0.936500	0.813000
H881	H88	0.382200	0.102100	0.803300
H891	H89	0.895300	0.973700	0.640000
H901	H90	0.063500	0.187000	0.336100
H911	H91	0.255300	0.921600	0.895300
H921	H92	0.719900	0.298800	0.102100
H931	H93	0.196700	0.298800	0.578900
H941	H94	0.897900	0.280100	0.701200
H951	H95	0.187000	0.123500	0.850900
H961	H96	0.701200	0.897900	0.280100
C11	C1	0.204450	0.317880	0.457730
C21	C2	0.893270	0.332920	0.805630
C31	C3	0.620520	0.471440	0.727280
C41	C4	0.615560	0.740540	0.633240
C51	C5	0.892700	0.017680	0.633240
C61	C6	0.633240	0.892700	0.017680
C71	C7	0.272720	0.744160	0.893240
C81	C8	0.332920	0.439650	0.527290
C91	C9	0.255840	0.528560	0.149080
C101	C10	0.542270	0.860150	0.746720
C111	C11	0.385940	0.198000	0.313740
C121	C12	0.560350	0.472710	0.667080
C131	C13	0.686260	0.614060	0.802000
C141	C14	0.614060	0.802000	0.686260
C151	C15	0.682120	0.886570	0.139850
C161	C16	0.850920	0.744160	0.471440
C171	C17	0.667080	0.560350	0.472710
C181	C18	0.087640	0.194370	0.527290
C191	C19	0.884260	0.198000	0.812060
C201	C20	0.912360	0.805630	0.472710
C211	C21	0.527290	0.087640	0.194370
C221	C22	0.139850	0.253280	0.457730
C231	C23	0.106730	0.912360	0.439650
C241	C24	0.614060	0.927800	0.812060
C251	C25	0.194370	0.106730	0.667080
C261	C26	0.860150	0.746720	0.542270
C271	C27	0.272720	0.379480	0.528560
C281	C28	0.259460	0.875020	0.892700
C291	C29	0.332920	0.805630	0.893270
C301	C30	0.805630	0.472710	0.912360
C311	C31	0.727280	0.255840	0.106760
C321	C32	0.802000	0.187940	0.115740
C331	C33	0.106760	0.727280	0.255840
C341	C34	0.439650	0.106730	0.912360
C351	C35	0.615560	0.982320	0.875020
C361	C36	0.744160	0.893240	0.272720
C371	C37	0.740540	0.124980	0.107300
C381	C38	0.682120	0.542270	0.795550
C391	C39	0.982320	0.875020	0.615560
C401	C40	0.317880	0.457730	0.204450
C411	C41	0.875020	0.892700	0.259460
C421	C42	0.198000	0.812060	0.884260
C431	C43	0.107300	0.982320	0.366760
C441	C44	0.982320	0.366760	0.107300
C451	C45	0.893240	0.272720	0.744160
C461	C46	0.927800	0.313740	0.115740
C471	C47	0.259460	0.366760	0.384440
C481	C48	0.542270	0.795550	0.682120
C491	C49	0.439650	0.527290	0.332920
C501	C50	0.860150	0.317880	0.113430
C511	C51	0.812060	0.614060	0.927800
C521	C52	0.072200	0.187940	0.385940
C531	C53	0.313740	0.385940	0.198000
C541	C54	0.107300	0.740540	0.124980
C551	C55	0.366760	0.384440	0.259460
C561	C56	0.850920	0.379480	0.106760
C571	C57	0.620520	0.893240	0.149080
C581	C58	0.884260	0.072200	0.686260
C591	C59	0.795550	0.682120	0.542270
C601	C60	0.528560	0.149080	0.255840
C611	C61	0.017680	0.124980	0.384440
C621	C62	0.187940	0.115740	0.802000
C631	C63	0.927800	0.812060	0.614060
C641	C64	0.886570	0.139850	0.682120
C651	C65	0.204450	0.746720	0.886570
C661	C66	0.385940	0.072200	0.187940
C671	C67	0.198000	0.313740	0.385940
C681	C68	0.087640	0.560350	0.893270
C691	C69	0.886570	0.204450	0.746720
C701	C70	0.457730	0.204450	0.317880
C711	C71	0.746720	0.542270	0.860150
C721	C72	0.106760	0.850920	0.379480
C731	C73	0.366760	0.107300	0.982320
C741	C74	0.115740	0.802000	0.187940
C751	C75	0.379480	0.528560	0.272720
C761	C76	0.912360	0.439650	0.106730
C771	C77	0.633240	0.615560	0.740540
C781	C78	0.194370	0.527290	0.087640
C791	C79	0.472710	0.667080	0.560350
C801	C80	0.667080	0.194370	0.106730
C811	C81	0.149080	0.620520	0.893240
C821	C82	0.255840	0.106760	0.727280
C831	C83	0.457730	0.139850	0.253280
C841	C84	0.727280	0.620520	0.471440
C851	C85	0.149080	0.255840	0.528560
C861	C86	0.471440	0.727280	0.620520
C871	C87	0.017680	0.633240	0.892700
C881	C88	0.187940	0.385940	0.072200
C891	C89	0.740540	0.633240	0.615560
C901	C90	0.875020	0.615560	0.982320
C911	C91	0.471440	0.850920	0.744160
C921	C92	0.528560	0.272720	0.379480
C931	C93	0.317880	0.113430	0.860150
C941	C94	0.746720	0.886570	0.204450
C951	C95	0.313740	0.115740	0.927800
C961	C96	0.113430	0.860150	0.317880
C971	C97	0.560350	0.893270	0.087640
C981	C98	0.139850	0.682120	0.886570
C991	C99	0.744160	0.471440	0.850920
C1001	C100	0.805630	0.893270	0.332920
C1011	C101	0.115740	0.927800	0.313740
C1021	C102	0.072200	0.686260	0.884260
C1031	C103	0.527290	0.332920	0.439650
C1041	C104	0.384440	0.017680	0.124980
C1051	C105	0.384440	0.259460	0.366760
C1061	C106	0.893270	0.087640	0.560350
C1071	C107	0.253280	0.457730	0.139850
C1081	C108	0.686260	0.884260	0.072200
C1091	C109	0.106730	0.667080	0.194370
C1101	C110	0.472710	0.912360	0.805630
C1111	C111	0.802000	0.686260	0.614060
C1121	C112	0.812060	0.884260	0.198000
C1131	C113	0.253280	0.113430	0.795550
C1141	C114	0.892700	0.259460	0.875020
C1151	C115	0.379480	0.106760	0.850920
C1161	C116	0.124980	0.384440	0.017680
C1171	C117	0.893240	0.149080	0.620520
C1181	C118	0.124980	0.107300	0.740540
C1191	C119	0.795550	0.253280	0.113430
C1201	C120	0.113430	0.795550	0.253280
N11	N1	0.026070	0.568850	0.897580
N21	N2	0.973930	0.431150	0.102420
N31	N3	0.102420	0.973930	0.431150
N41	N4	0.568850	0.897580	0.026070
N51	N5	0.328730	0.431150	0.457220
N61	N6	0.457220	0.026070	0.128490
N71	N7	0.871510	0.897580	0.328730
N81	N8	0.568850	0.542780	0.671270
N91	N9	0.431150	0.102420	0.973930
N101	N10	0.102420	0.671270	0.128490
N111	N11	0.431150	0.457220	0.328730
N121	N12	0.026070	0.128490	0.457220
N131	N13	0.128490	0.102420	0.671270
N141	N14	0.457220	0.328730	0.431150
N151	N15	0.871510	0.542780	0.973930
N161	N16	0.542780	0.671270	0.568850
N171	N17	0.328730	0.871510	0.897580
N181	N18	0.671270	0.128490	0.102420
N191	N19	0.973930	0.871510	0.542780
N201	N20	0.671270	0.568850	0.542780
N211	N21	0.542780	0.973930	0.871510
N221	N22	0.897580	0.328730	0.871510
N231	N23	0.128490	0.457220	0.026070
N241	N24	0.897580	0.026070	0.568850
O11	O1	0.101130	0.033760	0.486790
O21	O2	0.546970	0.614340	0.513210
O31	O3	0.932630	0.546970	0.033760
O41	O4	0.067370	0.453030	0.966240
O51	O5	0.966240	0.067370	0.453030
O61	O6	0.033760	0.486790	0.101130
O71	O7	0.614340	0.067370	0.101130
O81	O8	0.614340	0.513210	0.546970
O91	O9	0.033760	0.932630	0.546970
O101	O10	0.453030	0.385660	0.486790
O111	O11	0.513210	0.546970	0.614340
O121	O12	0.486790	0.101130	0.033760
O131	O13	0.932630	0.898870	0.385660
O141	O14	0.067370	0.101130	0.614340
O151	O15	0.453030	0.966240	0.067370
O161	O16	0.385660	0.486790	0.453030
O171	O17	0.898870	0.966240	0.513210
O181	O18	0.101130	0.614340	0.067370
O191	O19	0.546970	0.033760	0.932630
O201	O20	0.966240	0.513210	0.898870
O211	O21	0.486790	0.453030	0.385660
O221	O22	0.898870	0.385660	0.932630
O231	O23	0.385660	0.932630	0.898870
O241	O24	0.513210	0.898870	0.966240
