data_ja907023c_si_003_clean_PM
_symmetry_space_group_name_H-M	'P1'
_cell_length_a	20.048300
_cell_length_b	20.048100
_cell_length_c	20.048100
_cell_angle_alpha	109.471000
_cell_angle_beta	109.471000
_cell_angle_gamma	109.471000
_symmetry_Int_Tables_number 1

loop_
_symmetry_equiv_pos_as_xyz
'x,y,z'

loop_
_atom_site_label
_atom_site_type_symbol
_atom_site_fract_x
_atom_site_fract_y
_atom_site_fract_z
Co11	Co1	0.500000	0.000000	0.000000
Co21	Co2	0.000000	0.000000	0.500000
Co31	Co3	0.000000	0.500000	0.000000
Co41	Co4	0.500000	0.500000	0.500000
H11	H1	0.574600	0.093200	0.193400
H21	H2	0.849800	0.726000	0.664200
H31	H3	0.185600	0.335800	0.061800
H41	H4	0.664200	0.938200	0.814400
H51	H5	0.637200	0.666300	0.745900
H61	H6	0.093200	0.518600	0.899800
H71	H7	0.274000	0.123800	0.938200
H81	H8	0.386700	0.109100	0.810400
H91	H9	0.423700	0.722400	0.613300
H101	H10	0.613300	0.890900	0.189600
H111	H11	0.274000	0.335800	0.150200
H121	H12	0.100200	0.618800	0.193400
H131	H13	0.335800	0.150200	0.274000
H141	H14	0.810400	0.701300	0.423700
H151	H15	0.298700	0.109100	0.722400
H161	H16	0.335800	0.061800	0.185600
H171	H17	0.150200	0.814400	0.876200
H181	H18	0.906800	0.806600	0.425400
H191	H19	0.891300	0.970900	0.637200
H201	H20	0.386700	0.576300	0.277600
H211	H21	0.637200	0.891300	0.970900
H221	H22	0.362800	0.108700	0.029100
H231	H23	0.254100	0.362800	0.333700
H241	H24	0.806600	0.899800	0.381200
H251	H25	0.277600	0.701300	0.890900
H261	H26	0.701300	0.423700	0.810400
H271	H27	0.726000	0.876200	0.061800
H281	H28	0.814400	0.664200	0.938200
H291	H29	0.425400	0.618800	0.518600
H301	H30	0.109100	0.722400	0.298700
H311	H31	0.189600	0.298700	0.576300
H321	H32	0.618800	0.193400	0.100200
H331	H33	0.193400	0.100200	0.618800
H341	H34	0.664200	0.849800	0.726000
H351	H35	0.722400	0.613300	0.423700
H361	H36	0.618800	0.518600	0.425400
H371	H37	0.518600	0.899800	0.093200
H381	H38	0.576300	0.277600	0.386700
H391	H39	0.899800	0.093200	0.518600
H401	H40	0.254100	0.920400	0.891300
H411	H41	0.899800	0.381200	0.806600
H421	H42	0.906800	0.481400	0.100200
H431	H43	0.666300	0.029100	0.920400
H441	H44	0.970900	0.637200	0.891300
H451	H45	0.193400	0.574600	0.093200
H461	H46	0.576300	0.189600	0.298700
H471	H47	0.108700	0.029100	0.362800
H481	H48	0.938200	0.814400	0.664200
H491	H49	0.333700	0.970900	0.079600
H501	H50	0.810400	0.386700	0.109100
H511	H51	0.481400	0.100200	0.906800
H521	H52	0.574600	0.381200	0.481400
H531	H53	0.150200	0.274000	0.335800
H541	H54	0.189600	0.613300	0.890900
H551	H55	0.029100	0.362800	0.108700
H561	H56	0.381200	0.481400	0.574600
H571	H57	0.876200	0.150200	0.814400
H581	H58	0.726000	0.664200	0.849800
H591	H59	0.333700	0.254100	0.362800
H601	H60	0.876200	0.061800	0.726000
H611	H61	0.079600	0.333700	0.970900
H621	H62	0.849800	0.185600	0.123800
H631	H63	0.425400	0.906800	0.806600
H641	H64	0.701300	0.890900	0.277600
H651	H65	0.814400	0.876200	0.150200
H661	H66	0.093200	0.193400	0.574600
H671	H67	0.890900	0.189600	0.613300
H681	H68	0.806600	0.425400	0.906800
H691	H69	0.079600	0.108700	0.745900
H701	H70	0.920400	0.666300	0.029100
H711	H71	0.061800	0.185600	0.335800
H721	H72	0.722400	0.298700	0.109100
H731	H73	0.423700	0.810400	0.701300
H741	H74	0.745900	0.637200	0.666300
H751	H75	0.938200	0.274000	0.123800
H761	H76	0.123800	0.938200	0.274000
H771	H77	0.123800	0.849800	0.185600
H781	H78	0.277600	0.386700	0.576300
H791	H79	0.185600	0.123800	0.849800
H801	H80	0.298700	0.576300	0.189600
H811	H81	0.029100	0.920400	0.666300
H821	H82	0.613300	0.423700	0.722400
H831	H83	0.061800	0.726000	0.876200
H841	H84	0.518600	0.425400	0.618800
H851	H85	0.745900	0.079600	0.108700
H861	H86	0.481400	0.574600	0.381200
H871	H87	0.970900	0.079600	0.333700
H881	H88	0.920400	0.891300	0.254100
H891	H89	0.100200	0.906800	0.481400
H901	H90	0.891300	0.254100	0.920400
H911	H91	0.381200	0.806600	0.899800
H921	H92	0.109100	0.810400	0.386700
H931	H93	0.108700	0.745900	0.079600
H941	H94	0.890900	0.277600	0.701300
H951	H95	0.666300	0.745900	0.637200
H961	H96	0.362800	0.333700	0.254100
C11	C1	0.525730	0.087340	0.191070
C21	C2	0.254200	0.526600	0.145600
C31	C3	0.103730	0.665340	0.191070
C41	C4	0.883660	0.198060	0.813400
C51	C5	0.108600	0.854400	0.381000
C61	C6	0.631400	0.616700	0.741100
C71	C7	0.251720	0.112700	0.795220
C81	C8	0.887300	0.204780	0.748280
C91	C9	0.087340	0.561610	0.896270
C101	C10	0.616700	0.741100	0.631400
C111	C11	0.616700	0.985300	0.875600
C121	C12	0.438390	0.525730	0.334660
C131	C13	0.891400	0.272400	0.745800
C141	C14	0.139020	0.682520	0.887300
C151	C15	0.381000	0.526600	0.272400
C161	C16	0.875600	0.616700	0.985300
C171	C17	0.070260	0.685600	0.883660
C181	C18	0.383300	0.258900	0.368600
C191	C19	0.615340	0.801940	0.685600
C201	C20	0.665340	0.191070	0.103730
C211	C21	0.191070	0.525730	0.087340
C221	C22	0.615340	0.929740	0.813400
C231	C23	0.314400	0.384660	0.198060
C241	C24	0.741100	0.124400	0.109700
C251	C25	0.561610	0.896270	0.087340
C261	C26	0.474270	0.665340	0.561610
C271	C27	0.070260	0.186600	0.384660
C281	C28	0.272400	0.381000	0.526600
C291	C29	0.272400	0.745800	0.891400
C301	C30	0.116340	0.929740	0.314400
C311	C31	0.456500	0.204780	0.317480
C321	C32	0.383300	0.014700	0.124400
C331	C33	0.795220	0.682520	0.543500
C341	C34	0.619000	0.473400	0.727600
C351	C35	0.204780	0.317480	0.456500
C361	C36	0.186600	0.116340	0.801940
C371	C37	0.254200	0.108600	0.727600
C381	C38	0.314400	0.116340	0.929740
C391	C39	0.619000	0.891400	0.145600
C401	C40	0.251720	0.456500	0.139020
C411	C41	0.381000	0.108600	0.854400
C421	C42	0.334660	0.438390	0.525730
C431	C43	0.860980	0.748280	0.543500
C441	C44	0.526600	0.272400	0.381000
C451	C45	0.801940	0.186600	0.116340
C461	C46	0.087340	0.191070	0.525730
C471	C47	0.665340	0.561610	0.474270
C481	C48	0.682520	0.543500	0.795220
C491	C49	0.912660	0.808930	0.474270
C501	C50	0.258900	0.875600	0.890300
C511	C51	0.727600	0.254200	0.108600
C521	C52	0.795220	0.251720	0.112700
C531	C53	0.317480	0.456500	0.204780
C541	C54	0.631400	0.890300	0.014700
C551	C55	0.808930	0.896270	0.334660
C561	C56	0.186600	0.384660	0.070260
C571	C57	0.139020	0.251720	0.456500
C581	C58	0.384660	0.070260	0.186600
C591	C59	0.543500	0.860980	0.748280
C601	C60	0.474270	0.912660	0.808930
C611	C61	0.890300	0.014700	0.631400
C621	C62	0.887300	0.139020	0.682520
C631	C63	0.745800	0.473400	0.854400
C641	C64	0.685600	0.615340	0.801940
C651	C65	0.526600	0.145600	0.254200
C661	C66	0.985300	0.368600	0.109700
C671	C67	0.813400	0.615340	0.929740
C681	C68	0.116340	0.801940	0.186600
C691	C69	0.368600	0.383300	0.258900
C701	C70	0.860980	0.317480	0.112700
C711	C71	0.748280	0.887300	0.204780
C721	C72	0.198060	0.314400	0.384660
C731	C73	0.985300	0.875600	0.616700
C741	C74	0.109700	0.741100	0.124400
C751	C75	0.912660	0.438390	0.103730
C761	C76	0.727600	0.619000	0.473400
C771	C77	0.854400	0.745800	0.473400
C781	C78	0.124400	0.383300	0.014700
C791	C79	0.890300	0.258900	0.875600
C801	C80	0.384660	0.198060	0.314400
C811	C81	0.145600	0.254200	0.526600
C821	C82	0.883660	0.070260	0.685600
C831	C83	0.112700	0.860980	0.317480
C841	C84	0.112700	0.795220	0.251720
C851	C85	0.109700	0.985300	0.368600
C861	C86	0.929740	0.813400	0.615340
C871	C87	0.473400	0.854400	0.745800
C881	C88	0.525730	0.334660	0.438390
C891	C89	0.334660	0.808930	0.896270
C901	C90	0.145600	0.619000	0.891400
C911	C91	0.191070	0.103730	0.665340
C921	C92	0.014700	0.631400	0.890300
C931	C93	0.473400	0.727600	0.619000
C941	C94	0.204780	0.748280	0.887300
C951	C95	0.896270	0.087340	0.561610
C961	C96	0.456500	0.139020	0.251720
C971	C97	0.543500	0.795220	0.682520
C981	C98	0.875600	0.890300	0.258900
C991	C99	0.198060	0.813400	0.883660
C1001	C100	0.801940	0.685600	0.615340
C1011	C101	0.808930	0.474270	0.912660
C1021	C102	0.741100	0.631400	0.616700
C1031	C103	0.258900	0.368600	0.383300
C1041	C104	0.317480	0.112700	0.860980
C1051	C105	0.896270	0.334660	0.808930
C1061	C106	0.368600	0.109700	0.985300
C1071	C107	0.891400	0.145600	0.619000
C1081	C108	0.748280	0.543500	0.860980
C1091	C109	0.103730	0.912660	0.438390
C1101	C110	0.854400	0.381000	0.108600
C1111	C111	0.813400	0.883660	0.198060
C1121	C112	0.014700	0.124400	0.383300
C1131	C113	0.108600	0.727600	0.254200
C1141	C114	0.745800	0.891400	0.272400
C1151	C115	0.561610	0.474270	0.665340
C1161	C116	0.682520	0.887300	0.139020
C1171	C117	0.124400	0.109700	0.741100
C1181	C118	0.685600	0.883660	0.070260
C1191	C119	0.929740	0.314400	0.116340
C1201	C120	0.438390	0.103730	0.912660
N11	N1	0.127670	0.104220	0.672610
N21	N2	0.872330	0.895780	0.327390
N31	N3	0.455060	0.327390	0.431610
N41	N4	0.672610	0.127670	0.104220
N51	N5	0.327390	0.872330	0.895780
N61	N6	0.104220	0.976550	0.431610
N71	N7	0.672610	0.568390	0.544940
N81	N8	0.976550	0.431610	0.104220
N91	N9	0.872330	0.544940	0.976550
N101	N10	0.544940	0.672610	0.568390
N111	N11	0.895780	0.327390	0.872330
N121	N12	0.568390	0.544940	0.672610
N131	N13	0.104220	0.672610	0.127670
N141	N14	0.023450	0.568390	0.895780
N151	N15	0.895780	0.023450	0.568390
N161	N16	0.327390	0.431610	0.455060
N171	N17	0.127670	0.455060	0.023450
N181	N18	0.568390	0.895780	0.023450
N191	N19	0.431610	0.455060	0.327390
N201	N20	0.431610	0.104220	0.976550
N211	N21	0.023450	0.127670	0.455060
N221	N22	0.455060	0.023450	0.127670
N231	N23	0.544940	0.976550	0.872330
N241	N24	0.976550	0.872330	0.544940
O11	O1	0.965470	0.512610	0.898480
O21	O2	0.487390	0.452860	0.385870
O31	O3	0.547140	0.614130	0.512610
O41	O4	0.898480	0.965470	0.512610
O51	O5	0.547140	0.034530	0.933010
O61	O6	0.933010	0.547140	0.034530
O71	O7	0.034530	0.933010	0.547140
O81	O8	0.487390	0.101520	0.034530
O91	O9	0.512610	0.547140	0.614130
O101	O10	0.512610	0.898480	0.965470
O111	O11	0.034530	0.487390	0.101520
O121	O12	0.101520	0.614130	0.066990
O131	O13	0.066990	0.101520	0.614130
O141	O14	0.898480	0.385870	0.933010
O151	O15	0.385870	0.933010	0.898480
O161	O16	0.066990	0.452860	0.965470
O171	O17	0.965470	0.066990	0.452860
O181	O18	0.614130	0.066990	0.101520
O191	O19	0.452860	0.385870	0.487390
O201	O20	0.933010	0.898480	0.385870
O211	O21	0.614130	0.512610	0.547140
O221	O22	0.101520	0.034530	0.487390
O231	O23	0.385870	0.487390	0.452860
O241	O24	0.452860	0.965470	0.066990
