data_ja907023c_si_001_clean_PM
_symmetry_space_group_name_H-M	'P1'
_cell_length_a	20.057600
_cell_length_b	20.057400
_cell_length_c	20.057400
_cell_angle_alpha	109.471000
_cell_angle_beta	109.471000
_cell_angle_gamma	109.471000
_symmetry_Int_Tables_number 1

loop_
_symmetry_equiv_pos_as_xyz
'x,y,z'

loop_
_atom_site_label
_atom_site_type_symbol
_atom_site_fract_x
_atom_site_fract_y
_atom_site_fract_z
Co11	Co1	0.500000	0.000000	0.000000
Co21	Co2	0.000000	0.500000	0.000000
Co31	Co3	0.500000	0.500000	0.500000
Co41	Co4	0.000000	0.000000	0.500000
H11	H1	0.730500	0.848500	0.665400
H21	H2	0.665500	0.920000	0.032100
H31	H3	0.189700	0.892200	0.613300
H41	H4	0.882000	0.816900	0.151500
H51	H5	0.613300	0.189700	0.892200
H61	H6	0.892200	0.613300	0.189700
H71	H7	0.032100	0.112100	0.366600
H81	H8	0.934900	0.665400	0.816900
H91	H9	0.898300	0.805100	0.381200
H101	H10	0.576400	0.297500	0.189700
H111	H11	0.702500	0.810300	0.423600
H121	H12	0.882000	0.730500	0.065100
H131	H13	0.613300	0.721100	0.423600
H141	H14	0.254500	0.334500	0.366600
H151	H15	0.482900	0.381200	0.576100
H161	H16	0.334600	0.183100	0.065100
H171	H17	0.848500	0.665400	0.730500
H181	H18	0.892200	0.702500	0.278900
H191	H19	0.183100	0.848500	0.118000
H201	H20	0.118000	0.269500	0.934900
H211	H21	0.633400	0.967900	0.887900
H221	H22	0.810300	0.107800	0.386700
H231	H23	0.334600	0.269500	0.151500
H241	H24	0.665400	0.816900	0.934900
H251	H25	0.107800	0.386700	0.810300
H261	H26	0.093200	0.576100	0.194900
H271	H27	0.381200	0.898300	0.805100
H281	H28	0.618800	0.423900	0.517100
H291	H29	0.816900	0.934900	0.665400
H301	H30	0.381200	0.576100	0.482900
H311	H31	0.101700	0.482900	0.906800
H321	H32	0.423900	0.517100	0.618800
H331	H33	0.816900	0.151500	0.882000
H341	H34	0.297500	0.189700	0.576400
H351	H35	0.920000	0.032100	0.665500
H361	H36	0.517100	0.093200	0.898300
H371	H37	0.576400	0.386700	0.278900
H381	H38	0.576100	0.194900	0.093200
H391	H39	0.633400	0.745500	0.665500
H401	H40	0.189700	0.576400	0.297500
H411	H41	0.269500	0.151500	0.334600
H421	H42	0.721100	0.423600	0.613300
H431	H43	0.366600	0.254500	0.334500
H441	H44	0.032100	0.665500	0.920000
H451	H45	0.745500	0.112100	0.080000
H461	H46	0.898300	0.517100	0.093200
H471	H47	0.386700	0.810300	0.107800
H481	H48	0.065100	0.334600	0.183100
H491	H49	0.576100	0.482900	0.381200
H501	H50	0.080000	0.967900	0.334500
H511	H51	0.334500	0.366600	0.254500
H521	H52	0.810300	0.423600	0.702500
H531	H53	0.906800	0.423900	0.805100
H541	H54	0.297500	0.721100	0.107800
H551	H55	0.423600	0.702500	0.810300
H561	H56	0.107800	0.297500	0.721100
H571	H57	0.934900	0.118000	0.269500
H581	H58	0.702500	0.278900	0.892200
H591	H59	0.080000	0.745500	0.112100
H601	H60	0.101700	0.194900	0.618800
H611	H61	0.112100	0.366600	0.032100
H621	H62	0.967900	0.334500	0.080000
H631	H63	0.745500	0.665500	0.633400
H641	H64	0.112100	0.080000	0.745500
H651	H65	0.805100	0.906800	0.423900
H661	H66	0.151500	0.882000	0.816900
H671	H67	0.887900	0.633400	0.967900
H681	H68	0.194900	0.618800	0.101700
H691	H69	0.517100	0.618800	0.423900
H701	H70	0.920000	0.254500	0.887900
H711	H71	0.730500	0.065100	0.882000
H721	H72	0.183100	0.065100	0.334600
H731	H73	0.721100	0.107800	0.297500
H741	H74	0.278900	0.892200	0.702500
H751	H75	0.151500	0.334600	0.269500
H761	H76	0.366600	0.032100	0.112100
H771	H77	0.906800	0.101700	0.482900
H781	H78	0.665400	0.730500	0.848500
H791	H79	0.423600	0.613300	0.721100
H801	H80	0.386700	0.278900	0.576400
H811	H81	0.887900	0.920000	0.254500
H821	H82	0.423900	0.805100	0.906800
H831	H83	0.334500	0.080000	0.967900
H841	H84	0.805100	0.381200	0.898300
H851	H85	0.254500	0.887900	0.920000
H861	H86	0.967900	0.887900	0.633400
H871	H87	0.278900	0.576400	0.386700
H881	H88	0.118000	0.183100	0.848500
H891	H89	0.482900	0.906800	0.101700
H901	H90	0.065100	0.882000	0.730500
H911	H91	0.194900	0.093200	0.576100
H921	H92	0.093200	0.898300	0.517100
H931	H93	0.618800	0.101700	0.194900
H941	H94	0.848500	0.118000	0.183100
H951	H95	0.665500	0.633400	0.745500
H961	H96	0.269500	0.934900	0.118000
C11	C1	0.561000	0.665000	0.472600
C21	C2	0.892100	0.618300	0.145200
C31	C3	0.527400	0.439000	0.335000
C41	C4	0.138300	0.887900	0.685400
C51	C5	0.807600	0.335000	0.896000
C61	C6	0.123700	0.013600	0.383500
C71	C7	0.927500	0.615900	0.813600
C81	C8	0.253100	0.145200	0.526900
C91	C9	0.335000	0.896000	0.807600
C101	C10	0.192400	0.088400	0.527400
C111	C11	0.145200	0.892100	0.618300
C121	C12	0.927500	0.113900	0.311600
C131	C13	0.273800	0.526900	0.381700
C141	C14	0.547100	0.685400	0.797500
C151	C15	0.665000	0.472600	0.561000
C161	C16	0.384100	0.186400	0.072500
C171	C17	0.685400	0.797500	0.547100
C181	C18	0.887900	0.685400	0.138300
C191	C19	0.889900	0.630100	0.013600
C201	C20	0.112100	0.250400	0.797500
C211	C21	0.250400	0.797500	0.112100
C221	C22	0.110100	0.123700	0.740200
C231	C23	0.797500	0.112100	0.250400
C241	C24	0.311600	0.197700	0.384100
C251	C25	0.876300	0.986400	0.616500
C261	C26	0.861700	0.112100	0.314600
C271	C27	0.618300	0.145200	0.892100
C281	C28	0.369900	0.986400	0.110100
C291	C29	0.526900	0.253100	0.145200
C301	C30	0.186400	0.072500	0.384100
C311	C31	0.013600	0.383500	0.123700
C321	C32	0.123700	0.740200	0.110100
C331	C33	0.202500	0.887900	0.749600
C341	C34	0.615900	0.688400	0.802300
C351	C35	0.088400	0.896000	0.561000
C361	C36	0.202500	0.452900	0.314600
C371	C37	0.616500	0.876300	0.986400
C381	C38	0.726200	0.107900	0.253100
C391	C39	0.383500	0.369900	0.259800
C401	C40	0.688400	0.072500	0.886100
C411	C41	0.746900	0.273800	0.892100
C421	C42	0.369900	0.259800	0.383500
C431	C43	0.197700	0.886100	0.813600
C441	C44	0.561000	0.088400	0.896000
C451	C45	0.876300	0.259800	0.889900
C461	C46	0.439000	0.911600	0.104000
C471	C47	0.452900	0.250400	0.138300
C481	C48	0.472600	0.561000	0.665000
C491	C49	0.526900	0.381700	0.273800
C501	C50	0.618300	0.726200	0.473100
C511	C51	0.813600	0.197700	0.886100
C521	C52	0.749600	0.202500	0.887900
C531	C53	0.104000	0.192400	0.665000
C541	C54	0.250400	0.138300	0.452900
C551	C55	0.072500	0.886100	0.688400
C561	C56	0.886100	0.688400	0.072500
C571	C57	0.630100	0.013600	0.889900
C581	C58	0.088400	0.527400	0.192400
C591	C59	0.802300	0.615900	0.688400
C601	C60	0.630100	0.740200	0.616500
C611	C61	0.381700	0.854800	0.107900
C621	C62	0.107900	0.253100	0.726200
C631	C63	0.113900	0.186400	0.802300
C641	C64	0.253100	0.726200	0.107900
C651	C65	0.892100	0.746900	0.273800
C661	C66	0.547100	0.749600	0.861700
C671	C67	0.527400	0.192400	0.088400
C681	C68	0.112100	0.314600	0.861700
C691	C69	0.887900	0.749600	0.202500
C701	C70	0.452900	0.314600	0.202500
C711	C71	0.896000	0.807600	0.335000
C721	C72	0.383500	0.123700	0.013600
C731	C73	0.889900	0.876300	0.259800
C741	C74	0.797500	0.547100	0.685400
C751	C75	0.854800	0.107900	0.381700
C761	C76	0.013600	0.889900	0.630100
C771	C77	0.314600	0.861700	0.112100
C781	C78	0.381700	0.273800	0.526900
C791	C79	0.746900	0.854800	0.473100
C801	C80	0.802300	0.113900	0.186400
C811	C81	0.335000	0.527400	0.439000
C821	C82	0.616500	0.630100	0.740200
C831	C83	0.072500	0.384100	0.186400
C841	C84	0.911600	0.472600	0.807600
C851	C85	0.749600	0.861700	0.547100
C861	C86	0.186400	0.802300	0.113900
C871	C87	0.439000	0.335000	0.527400
C881	C88	0.110100	0.369900	0.986400
C891	C89	0.472600	0.807600	0.911600
C901	C90	0.896000	0.561000	0.088400
C911	C91	0.259800	0.383500	0.369900
C921	C92	0.986400	0.110100	0.369900
C931	C93	0.726200	0.473100	0.618300
C941	C94	0.854800	0.473100	0.746900
C951	C95	0.107900	0.381700	0.854800
C961	C96	0.384100	0.311600	0.197700
C971	C97	0.740200	0.110100	0.123700
C981	C98	0.665000	0.104000	0.192400
C991	C99	0.986400	0.616500	0.876300
C1001	C100	0.314600	0.202500	0.452900
C1011	C101	0.473100	0.618300	0.726200
C1021	C102	0.273800	0.892100	0.746900
C1031	C103	0.740200	0.616500	0.630100
C1041	C104	0.138300	0.452900	0.250400
C1051	C105	0.911600	0.104000	0.439000
C1061	C106	0.688400	0.802300	0.615900
C1071	C107	0.685400	0.138300	0.887900
C1081	C108	0.113900	0.311600	0.927500
C1091	C109	0.813600	0.927500	0.615900
C1101	C110	0.473100	0.746900	0.854800
C1111	C111	0.807600	0.911600	0.472600
C1121	C112	0.145200	0.526900	0.253100
C1131	C113	0.104000	0.439000	0.911600
C1141	C114	0.615900	0.813600	0.927500
C1151	C115	0.259800	0.889900	0.876300
C1161	C116	0.886100	0.813600	0.197700
C1171	C117	0.311600	0.927500	0.113900
C1181	C118	0.192400	0.665000	0.104000
C1191	C119	0.197700	0.384100	0.311600
C1201	C120	0.861700	0.547100	0.749600
N11	N1	0.872400	0.325400	0.896400
N21	N2	0.674600	0.103600	0.127600
N31	N3	0.024000	0.896400	0.571000
N41	N4	0.547000	0.872400	0.976000
N51	N5	0.872400	0.976000	0.547000
N61	N6	0.103600	0.429000	0.976000
N71	N7	0.453000	0.429000	0.325400
N81	N8	0.571000	0.674600	0.547000
N91	N9	0.896400	0.872400	0.325400
N101	N10	0.024000	0.453000	0.127600
N111	N11	0.127600	0.024000	0.453000
N121	N12	0.429000	0.325400	0.453000
N131	N13	0.896400	0.571000	0.024000
N141	N14	0.976000	0.103600	0.429000
N151	N15	0.103600	0.127600	0.674600
N161	N16	0.976000	0.547000	0.872400
N171	N17	0.429000	0.976000	0.103600
N181	N18	0.547000	0.571000	0.674600
N191	N19	0.571000	0.024000	0.896400
N201	N20	0.325400	0.896400	0.872400
N211	N21	0.674600	0.547000	0.571000
N221	N22	0.127600	0.674600	0.103600
N231	N23	0.453000	0.127600	0.024000
N241	N24	0.325400	0.453000	0.429000
O11	O1	0.967000	0.451700	0.067100
O21	O2	0.100100	0.484700	0.033000
O31	O3	0.451700	0.484700	0.384600
O41	O4	0.515300	0.967000	0.899900
O51	O5	0.484700	0.384600	0.451700
O61	O6	0.548300	0.515300	0.615400
O71	O7	0.100100	0.067100	0.615400
O81	O8	0.899900	0.515300	0.967000
O91	O9	0.515300	0.615400	0.548300
O101	O10	0.615400	0.548300	0.515300
O111	O11	0.899900	0.932900	0.384600
O121	O12	0.932900	0.033000	0.548300
O131	O13	0.484700	0.033000	0.100100
O141	O14	0.033000	0.100100	0.484700
O151	O15	0.384600	0.451700	0.484700
O161	O16	0.384600	0.899900	0.932900
O171	O17	0.451700	0.067100	0.967000
O181	O18	0.548300	0.932900	0.033000
O191	O19	0.967000	0.899900	0.515300
O201	O20	0.067100	0.967000	0.451700
O211	O21	0.033000	0.548300	0.932900
O221	O22	0.932900	0.384600	0.899900
O231	O23	0.615400	0.100100	0.067100
O241	O24	0.067100	0.615400	0.100100
