data_JABMEF_clean_PM
_symmetry_space_group_name_H-M	'P1'
_cell_length_a	17.351400
_cell_length_b	9.507500
_cell_length_c	9.806500
_cell_angle_alpha	90.000000
_cell_angle_beta	102.682000
_cell_angle_gamma	90.000000
_symmetry_Int_Tables_number 1

loop_
_symmetry_equiv_pos_as_xyz
'x,y,z'

loop_
_atom_site_label
_atom_site_type_symbol
_atom_site_fract_x
_atom_site_fract_y
_atom_site_fract_z
Zn11	Zn1	0.178920	0.079500	0.375230
P11	P1	0.310430	0.322130	0.318760
O11	O1	0.250600	0.208700	0.319300
O21	O2	0.313100	0.438100	0.426500
O31	O3	0.297000	0.385800	0.171800
O41	O4	0.074120	0.135100	0.265300
O51	O5	0.393600	0.245100	0.349900
H11	H1	0.428700	0.303100	0.350800
O61	O6	0.991100	0.945700	0.120400
H21	H2	0.030700	0.896800	0.128300
Zn21	Zn2	0.678920	0.579500	0.375230
P21	P2	0.810430	0.822130	0.318760
O71	O7	0.750600	0.708700	0.319300
O81	O8	0.813100	0.938100	0.426500
O91	O9	0.797000	0.885800	0.171800
O101	O10	0.574120	0.635100	0.265300
O111	O11	0.893600	0.745100	0.349900
H31	H3	0.928700	0.803100	0.350800
O121	O12	0.491100	0.445700	0.120400
H41	H4	0.530700	0.396800	0.128300
Zn31	Zn3	0.821080	0.079500	0.124770
P31	P3	0.689570	0.322130	0.181240
O131	O13	0.749400	0.208700	0.180700
O141	O14	0.686900	0.438100	0.073500
O151	O15	0.703000	0.385800	0.328200
O161	O16	0.925880	0.135100	0.234700
O171	O17	0.606400	0.245100	0.150100
H51	H5	0.571300	0.303100	0.149200
O181	O18	0.008900	0.945700	0.379600
H61	H6	0.969300	0.896800	0.371700
Zn41	Zn4	0.321080	0.579500	0.124770
P41	P4	0.189570	0.822130	0.181240
O191	O19	0.249400	0.708700	0.180700
O201	O20	0.186900	0.938100	0.073500
O211	O21	0.203000	0.885800	0.328200
O221	O22	0.425880	0.635100	0.234700
O231	O23	0.106400	0.745100	0.150100
H71	H7	0.071300	0.803100	0.149200
O241	O24	0.508900	0.445700	0.379600
H81	H8	0.469300	0.396800	0.371700
Zn51	Zn5	0.821080	0.920500	0.624770
P51	P5	0.689570	0.677870	0.681240
O251	O25	0.749400	0.791300	0.680700
O261	O26	0.686900	0.561900	0.573500
O271	O27	0.703000	0.614200	0.828200
O281	O28	0.925880	0.864900	0.734700
O291	O29	0.606400	0.754900	0.650100
H91	H9	0.571300	0.696900	0.649200
O301	O30	0.008900	0.054300	0.879600
H101	H10	0.969300	0.103200	0.871700
Zn61	Zn6	0.321080	0.420500	0.624770
P61	P6	0.189570	0.177870	0.681240
O311	O31	0.249400	0.291300	0.680700
O321	O32	0.186900	0.061900	0.573500
O331	O33	0.203000	0.114200	0.828200
O341	O34	0.425880	0.364900	0.734700
O351	O35	0.106400	0.254900	0.650100
H111	H11	0.071300	0.196900	0.649200
O361	O36	0.508900	0.554300	0.879600
H121	H12	0.469300	0.603200	0.871700
Zn71	Zn7	0.178920	0.920500	0.875230
P71	P7	0.310430	0.677870	0.818760
O371	O37	0.250600	0.791300	0.819300
O381	O38	0.313100	0.561900	0.926500
O391	O39	0.297000	0.614200	0.671800
O401	O40	0.074120	0.864900	0.765300
O411	O41	0.393600	0.754900	0.849900
H131	H13	0.428700	0.696900	0.850800
O421	O42	0.991100	0.054300	0.620400
H141	H14	0.030700	0.103200	0.628300
Zn81	Zn8	0.678920	0.420500	0.875230
P81	P8	0.810430	0.177870	0.818760
O431	O43	0.750600	0.291300	0.819300
O441	O44	0.813100	0.061900	0.926500
O451	O45	0.797000	0.114200	0.671800
O461	O46	0.574120	0.364900	0.765300
O471	O47	0.893600	0.254900	0.849900
H151	H15	0.928700	0.196900	0.850800
O481	O48	0.491100	0.554300	0.620400
H161	H16	0.530700	0.603200	0.628300
P91	P9	0.000000	0.044560	0.250000
P101	P10	0.500000	0.544560	0.250000
P111	P11	0.000000	0.955440	0.750000
P121	P12	0.500000	0.455440	0.750000
