data_jacs_PM
_symmetry_space_group_name_H-M	'P1'
_cell_length_a	22.901000
_cell_length_b	22.901000
_cell_length_c	22.272000
_cell_angle_alpha	90.000000
_cell_angle_beta	90.000000
_cell_angle_gamma	120.000000
_symmetry_Int_Tables_number 1

loop_
_symmetry_equiv_pos_as_xyz
'x,y,z'

loop_
_atom_site_label
_atom_site_type_symbol
_atom_site_fract_x
_atom_site_fract_y
_atom_site_fract_z
I11	I1	0.762740	0.609530	0.837880
I21	I2	0.810520	0.444640	0.791010
Cu11	Cu1	0.716520	0.481210	0.804210
Cu21	Cu2	0.841550	0.575800	0.777450
N11	N1	0.656200	0.421400	0.873900
N21	N2	0.937900	0.627100	0.811600
C11	C1	0.604300	0.437100	0.887800
H11	H1	0.574000	0.425800	0.853800
H21	H2	0.624500	0.485000	0.895500
C21	C2	0.697300	0.430600	0.926800
H31	H3	0.717000	0.476600	0.941300
H41	H4	0.733400	0.421900	0.917000
C31	C3	0.621700	0.351300	0.855700
H51	H5	0.654700	0.337400	0.848000
H61	H6	0.597400	0.346300	0.818700
C41	C4	0.985800	0.618800	0.771300
H71	H7	0.983800	0.634300	0.731200
H81	H8	0.972500	0.571500	0.768900
C51	C5	0.941900	0.601200	0.871200
H91	H9	0.922900	0.552800	0.868600
H101	H10	0.914900	0.609900	0.899400
C61	C6	0.963000	0.701500	0.818100
H111	H11	0.931900	0.708200	0.842800
H121	H12	0.965200	0.721000	0.778900
I31	I3	0.390470	0.153210	0.171210
I41	I4	0.555360	0.365880	0.124340
Cu31	Cu3	0.518790	0.235310	0.137540
Cu41	Cu4	0.424200	0.265750	0.110780
N31	N3	0.578600	0.234800	0.207230
N41	N4	0.372900	0.310800	0.144930
C71	C7	0.562900	0.167200	0.221130
H131	H13	0.574200	0.148200	0.187130
H141	H14	0.515000	0.139500	0.228830
C81	C8	0.569400	0.266700	0.260130
H151	H15	0.523400	0.240400	0.274630
H161	H16	0.578100	0.311500	0.250330
C91	C9	0.648700	0.270400	0.189030
H171	H17	0.662600	0.317300	0.181330
H181	H18	0.653700	0.251100	0.152030
C101	C10	0.381200	0.367000	0.104630
H191	H19	0.365700	0.349500	0.064530
H201	H20	0.428500	0.401000	0.102230
C111	C11	0.398800	0.340700	0.204530
H211	H21	0.447200	0.370100	0.201930
H221	H22	0.390100	0.305000	0.232730
C121	C12	0.298500	0.261500	0.151430
H231	H23	0.291800	0.223700	0.176130
H241	H24	0.279000	0.244200	0.112230
I51	I5	0.846790	0.237260	0.504550
I61	I6	0.634120	0.189480	0.457680
Cu51	Cu5	0.764690	0.283480	0.470880
Cu61	Cu6	0.734250	0.158450	0.444120
N51	N5	0.765200	0.343800	0.540570
N61	N6	0.689200	0.062100	0.478270
C131	C13	0.832800	0.395700	0.554470
H251	H25	0.851800	0.426000	0.520470
H261	H26	0.860500	0.375500	0.562170
C141	C14	0.733300	0.302700	0.593470
H271	H27	0.759600	0.283000	0.607970
H281	H28	0.688500	0.266600	0.583670
C151	C15	0.729600	0.378300	0.522370
H291	H29	0.682700	0.345300	0.514670
H301	H30	0.748900	0.402600	0.485370
C161	C16	0.633000	0.014200	0.437970
H311	H31	0.650500	0.016200	0.397870
H321	H32	0.599000	0.027500	0.435570
C171	C17	0.659300	0.058100	0.537870
H331	H33	0.629900	0.077100	0.535270
H341	H34	0.695000	0.085100	0.566070
C181	C18	0.738500	0.037000	0.484770
H351	H35	0.776300	0.068100	0.509470
H361	H36	0.755800	0.034800	0.445570
I71	I7	0.237260	0.390470	0.337880
I81	I8	0.189480	0.555360	0.291010
Cu71	Cu7	0.283480	0.518790	0.304210
Cu81	Cu8	0.158450	0.424200	0.277450
N71	N7	0.343800	0.578600	0.373900
N81	N8	0.062100	0.372900	0.311600
C191	C19	0.395700	0.562900	0.387800
H371	H37	0.426000	0.574200	0.353800
H381	H38	0.375500	0.515000	0.395500
C201	C20	0.302700	0.569400	0.426800
H391	H39	0.283000	0.523400	0.441300
H401	H40	0.266600	0.578100	0.417000
C211	C21	0.378300	0.648700	0.355700
H411	H41	0.345300	0.662600	0.348000
H421	H42	0.402600	0.653700	0.318700
C221	C22	0.014200	0.381200	0.271300
H431	H43	0.016200	0.365700	0.231200
H441	H44	0.027500	0.428500	0.268900
C231	C23	0.058100	0.398800	0.371200
H451	H45	0.077100	0.447200	0.368600
H461	H46	0.085100	0.390100	0.399400
C241	C24	0.037000	0.298500	0.318100
H471	H47	0.068100	0.291800	0.342800
H481	H48	0.034800	0.279000	0.278900
I91	I9	0.609530	0.846790	0.671210
I101	I10	0.444640	0.634120	0.624340
Cu91	Cu9	0.481210	0.764690	0.637540
Cu101	Cu10	0.575800	0.734250	0.610780
N91	N9	0.421400	0.765200	0.707230
N101	N10	0.627100	0.689200	0.644930
C251	C25	0.437100	0.832800	0.721130
H491	H49	0.425800	0.851800	0.687130
H501	H50	0.485000	0.860500	0.728830
C261	C26	0.430600	0.733300	0.760130
H511	H51	0.476600	0.759600	0.774630
H521	H52	0.421900	0.688500	0.750330
C271	C27	0.351300	0.729600	0.689030
H531	H53	0.337400	0.682700	0.681330
H541	H54	0.346300	0.748900	0.652030
C281	C28	0.618800	0.633000	0.604630
H551	H55	0.634300	0.650500	0.564530
H561	H56	0.571500	0.599000	0.602230
C291	C29	0.601200	0.659300	0.704530
H571	H57	0.552800	0.629900	0.701930
H581	H58	0.609900	0.695000	0.732730
C301	C30	0.701500	0.738500	0.651430
H591	H59	0.708200	0.776300	0.676130
H601	H60	0.721000	0.755800	0.612230
I111	I11	0.153210	0.762740	0.004550
I121	I12	0.365880	0.810520	0.957680
Cu111	Cu11	0.235310	0.716520	0.970880
Cu121	Cu12	0.265750	0.841550	0.944120
N111	N11	0.234800	0.656200	0.040570
N121	N12	0.310800	0.937900	0.978270
C311	C31	0.167200	0.604300	0.054470
H611	H61	0.148200	0.574000	0.020470
H621	H62	0.139500	0.624500	0.062170
C321	C32	0.266700	0.697300	0.093470
H631	H63	0.240400	0.717000	0.107970
H641	H64	0.311500	0.733400	0.083670
C331	C33	0.270400	0.621700	0.022370
H651	H65	0.317300	0.654700	0.014670
H661	H66	0.251100	0.597400	0.985370
C341	C34	0.367000	0.985800	0.937970
H671	H67	0.349500	0.983800	0.897870
H681	H68	0.401000	0.972500	0.935570
C351	C35	0.340700	0.941900	0.037870
H691	H69	0.370100	0.922900	0.035270
H701	H70	0.305000	0.914900	0.066070
C361	C36	0.261500	0.963000	0.984770
H711	H71	0.223700	0.931900	0.009470
H721	H72	0.244200	0.965200	0.945570
I131	I13	0.609530	0.762740	0.495450
I141	I14	0.444640	0.810520	0.542320
Cu131	Cu13	0.481210	0.716520	0.529120
Cu141	Cu14	0.575800	0.841550	0.555880
N131	N13	0.421400	0.656200	0.459430
N141	N14	0.627100	0.937900	0.521730
C371	C37	0.437100	0.604300	0.445530
H731	H73	0.425800	0.574000	0.479530
H741	H74	0.485000	0.624500	0.437830
C381	C38	0.430600	0.697300	0.406530
H751	H75	0.476600	0.717000	0.392030
H761	H76	0.421900	0.733400	0.416330
C391	C39	0.351300	0.621700	0.477630
H771	H77	0.337400	0.654700	0.485330
H781	H78	0.346300	0.597400	0.514630
C401	C40	0.618800	0.985800	0.562030
H791	H79	0.634300	0.983800	0.602130
H801	H80	0.571500	0.972500	0.564430
C411	C41	0.601200	0.941900	0.462130
H811	H81	0.552800	0.922900	0.464730
H821	H82	0.609900	0.914900	0.433930
C421	C42	0.701500	0.963000	0.515230
H831	H83	0.708200	0.931900	0.490530
H841	H84	0.721000	0.965200	0.554430
I151	I15	0.153210	0.390470	0.162120
I161	I16	0.365880	0.555360	0.208990
Cu151	Cu15	0.235310	0.518790	0.195790
Cu161	Cu16	0.265750	0.424200	0.222550
N151	N15	0.234800	0.578600	0.126100
N161	N16	0.310800	0.372900	0.188400
C431	C43	0.167200	0.562900	0.112200
H851	H85	0.148200	0.574200	0.146200
H861	H86	0.139500	0.515000	0.104500
C441	C44	0.266700	0.569400	0.073200
H871	H87	0.240400	0.523400	0.058700
H881	H88	0.311500	0.578100	0.083000
C451	C45	0.270400	0.648700	0.144300
H891	H89	0.317300	0.662600	0.152000
H901	H90	0.251100	0.653700	0.181300
C461	C46	0.367000	0.381200	0.228700
H911	H91	0.349500	0.365700	0.268800
H921	H92	0.401000	0.428500	0.231100
C471	C47	0.340700	0.398800	0.128800
H931	H93	0.370100	0.447200	0.131400
H941	H94	0.305000	0.390100	0.100600
C481	C48	0.261500	0.298500	0.181900
H951	H95	0.223700	0.291800	0.157200
H961	H96	0.244200	0.279000	0.221100
I171	I17	0.237260	0.846790	0.828790
I181	I18	0.189480	0.634120	0.875660
Cu171	Cu17	0.283480	0.764690	0.862460
Cu181	Cu18	0.158450	0.734250	0.889220
N171	N17	0.343800	0.765200	0.792770
N181	N18	0.062100	0.689200	0.855070
C491	C49	0.395700	0.832800	0.778870
H971	H97	0.426000	0.851800	0.812870
H981	H98	0.375500	0.860500	0.771170
C501	C50	0.302700	0.733300	0.739870
H991	H99	0.283000	0.759600	0.725370
H1001	H100	0.266600	0.688500	0.749670
C511	C51	0.378300	0.729600	0.810970
H1011	H101	0.345300	0.682700	0.818670
H1021	H102	0.402600	0.748900	0.847970
C521	C52	0.014200	0.633000	0.895370
H1031	H103	0.016200	0.650500	0.935470
H1041	H104	0.027500	0.599000	0.897770
C531	C53	0.058100	0.659300	0.795470
H1051	H105	0.077100	0.629900	0.798070
H1061	H106	0.085100	0.695000	0.767270
C541	C54	0.037000	0.738500	0.848570
H1071	H107	0.068100	0.776300	0.823870
H1081	H108	0.034800	0.755800	0.887770
I191	I19	0.390470	0.237260	0.995450
I201	I20	0.555360	0.189480	0.042320
Cu191	Cu19	0.518790	0.283480	0.029120
Cu201	Cu20	0.424200	0.158450	0.055880
N191	N19	0.578600	0.343800	0.959430
N201	N20	0.372900	0.062100	0.021730
C551	C55	0.562900	0.395700	0.945530
H1091	H109	0.574200	0.426000	0.979530
H1101	H110	0.515000	0.375500	0.937830
C561	C56	0.569400	0.302700	0.906530
H1111	H111	0.523400	0.283000	0.892030
H1121	H112	0.578100	0.266600	0.916330
C571	C57	0.648700	0.378300	0.977630
H1131	H113	0.662600	0.345300	0.985330
H1141	H114	0.653700	0.402600	0.014630
C581	C58	0.381200	0.014200	0.062030
H1151	H115	0.365700	0.016200	0.102130
H1161	H116	0.428500	0.027500	0.064430
C591	C59	0.398800	0.058100	0.962130
H1171	H117	0.447200	0.077100	0.964730
H1181	H118	0.390100	0.085100	0.933930
C601	C60	0.298500	0.037000	0.015230
H1191	H119	0.291800	0.068100	0.990530
H1201	H120	0.279000	0.034800	0.054430
I211	I21	0.846790	0.609530	0.662120
I221	I22	0.634120	0.444640	0.708990
Cu211	Cu21	0.764690	0.481210	0.695790
Cu221	Cu22	0.734250	0.575800	0.722550
N211	N21	0.765200	0.421400	0.626100
N221	N22	0.689200	0.627100	0.688400
C611	C61	0.832800	0.437100	0.612200
H1211	H121	0.851800	0.425800	0.646200
H1221	H122	0.860500	0.485000	0.604500
C621	C62	0.733300	0.430600	0.573200
H1231	H123	0.759600	0.476600	0.558700
H1241	H124	0.688500	0.421900	0.583000
C631	C63	0.729600	0.351300	0.644300
H1251	H125	0.682700	0.337400	0.652000
H1261	H126	0.748900	0.346300	0.681300
C641	C64	0.633000	0.618800	0.728700
H1271	H127	0.650500	0.634300	0.768800
H1281	H128	0.599000	0.571500	0.731100
C651	C65	0.659300	0.601200	0.628800
H1291	H129	0.629900	0.552800	0.631400
H1301	H130	0.695000	0.609900	0.600600
C661	C66	0.738500	0.701500	0.681900
H1311	H131	0.776300	0.708200	0.657200
H1321	H132	0.755800	0.721000	0.721100
I231	I23	0.762740	0.153210	0.328790
I241	I24	0.810520	0.365880	0.375660
Cu231	Cu23	0.716520	0.235310	0.362460
Cu241	Cu24	0.841550	0.265750	0.389220
N231	N23	0.656200	0.234800	0.292770
N241	N24	0.937900	0.310800	0.355070
C671	C67	0.604300	0.167200	0.278870
H1331	H133	0.574000	0.148200	0.312870
H1341	H134	0.624500	0.139500	0.271170
C681	C68	0.697300	0.266700	0.239870
H1351	H135	0.717000	0.240400	0.225370
H1361	H136	0.733400	0.311500	0.249670
C691	C69	0.621700	0.270400	0.310970
H1371	H137	0.654700	0.317300	0.318670
H1381	H138	0.597400	0.251100	0.347970
C701	C70	0.985800	0.367000	0.395370
H1391	H139	0.983800	0.349500	0.435470
H1401	H140	0.972500	0.401000	0.397770
C711	C71	0.941900	0.340700	0.295470
H1411	H141	0.922900	0.370100	0.298070
H1421	H142	0.914900	0.305000	0.267270
C721	C72	0.963000	0.261500	0.348570
H1431	H143	0.931900	0.223700	0.323870
H1441	H144	0.965200	0.244200	0.387770
Cu251	Cu25	0.136450	0.219760	0.392330
N251	N25	0.225100	0.145400	0.282900
N261	N26	0.194300	0.204000	0.343400
C731	C73	0.106500	0.121400	0.273400
C741	C74	0.069600	0.049800	0.270600
H1451	H145	0.090100	0.025900	0.284000
C751	C75	0.176200	0.157000	0.298800
C761	C76	0.278600	0.188200	0.318800
C771	C77	0.258000	0.223700	0.355400
C781	C78	0.303100	0.271400	0.395600
H1461	H146	0.289300	0.295100	0.420000
C791	C79	0.368800	0.283600	0.399200
H1471	H147	0.399000	0.315500	0.426100
C801	C80	0.389500	0.248100	0.362600
H1481	H148	0.433500	0.256200	0.365100
C811	C81	0.344400	0.200400	0.322500
H1491	H149	0.358200	0.176600	0.298000
Cu261	Cu26	0.780240	0.916690	0.725660
N271	N27	0.854600	0.079700	0.616230
N281	N28	0.796000	0.990300	0.676730
C821	C82	0.878600	0.985100	0.606730
C831	C83	0.950200	0.019800	0.603930
H1501	H150	0.974100	0.064200	0.617330
C841	C84	0.843000	0.019200	0.632130
C851	C85	0.811800	0.090400	0.652130
C861	C86	0.776300	0.034300	0.688730
C871	C87	0.728600	0.031700	0.728930
H1511	H151	0.704900	0.994200	0.753330
C881	C88	0.716400	0.085200	0.732530
H1521	H152	0.684500	0.083500	0.759430
C891	C89	0.751900	0.141400	0.695930
H1531	H153	0.743800	0.177300	0.698430
C901	C90	0.799600	0.144000	0.655830
H1541	H154	0.823400	0.181600	0.631330
Cu271	Cu27	0.083310	0.863550	0.059000
N291	N29	0.920300	0.774900	0.949570
N301	N30	0.009700	0.805700	0.010070
C911	C91	0.014900	0.893500	0.940070
C921	C92	0.980200	0.930400	0.937270
H1551	H155	0.935800	0.909900	0.950670
C931	C93	0.980800	0.823800	0.965470
C941	C94	0.909600	0.721400	0.985470
C951	C95	0.965700	0.742000	0.022070
C961	C96	0.968300	0.696900	0.062270
H1561	H156	0.005800	0.710700	0.086670
C971	C97	0.914800	0.631200	0.065870
H1571	H157	0.916500	0.601000	0.092770
C981	C98	0.858600	0.610500	0.029270
H1581	H158	0.822700	0.566500	0.031770
C991	C99	0.856000	0.655600	0.989170
H1591	H159	0.818400	0.641800	0.964670
Cu281	Cu28	0.863550	0.780240	0.892330
N311	N31	0.774900	0.854600	0.782900
N321	N32	0.805700	0.796000	0.843400
C1001	C100	0.893500	0.878600	0.773400
C1011	C101	0.930400	0.950200	0.770600
H1601	H160	0.909900	0.974100	0.784000
C1021	C102	0.823800	0.843000	0.798800
C1031	C103	0.721400	0.811800	0.818800
C1041	C104	0.742000	0.776300	0.855400
C1051	C105	0.696900	0.728600	0.895600
H1611	H161	0.710700	0.704900	0.920000
C1061	C106	0.631200	0.716400	0.899200
H1621	H162	0.601000	0.684500	0.926100
C1071	C107	0.610500	0.751900	0.862600
H1631	H163	0.566500	0.743800	0.865100
C1081	C108	0.655600	0.799600	0.822500
H1641	H164	0.641800	0.823400	0.798000
Cu291	Cu29	0.219760	0.083310	0.225660
N331	N33	0.145400	0.920300	0.116230
N341	N34	0.204000	0.009700	0.176730
C1091	C109	0.121400	0.014900	0.106730
C1101	C110	0.049800	0.980200	0.103930
H1651	H165	0.025900	0.935800	0.117330
C1111	C111	0.157000	0.980800	0.132130
C1121	C112	0.188200	0.909600	0.152130
C1131	C113	0.223700	0.965700	0.188730
C1141	C114	0.271400	0.968300	0.228930
H1661	H166	0.295100	0.005800	0.253330
C1151	C115	0.283600	0.914800	0.232530
H1671	H167	0.315500	0.916500	0.259430
C1161	C116	0.248100	0.858600	0.195930
H1681	H168	0.256200	0.822700	0.198430
C1171	C117	0.200400	0.856000	0.155830
H1691	H169	0.176600	0.818400	0.131330
Cu301	Cu30	0.916690	0.136450	0.559000
N351	N35	0.079700	0.225100	0.449570
N361	N36	0.990300	0.194300	0.510070
C1181	C118	0.985100	0.106500	0.440070
C1191	C119	0.019800	0.069600	0.437270
H1701	H170	0.064200	0.090100	0.450670
C1201	C120	0.019200	0.176200	0.465470
C1211	C121	0.090400	0.278600	0.485470
C1221	C122	0.034300	0.258000	0.522070
C1231	C123	0.031700	0.303100	0.562270
H1711	H171	0.994200	0.289300	0.586670
C1241	C124	0.085200	0.368800	0.565870
H1721	H172	0.083500	0.399000	0.592770
C1251	C125	0.141400	0.389500	0.529270
H1731	H173	0.177300	0.433500	0.531770
C1261	C126	0.144000	0.344400	0.489170
H1741	H174	0.181600	0.358200	0.464670
Cu311	Cu31	0.219760	0.136450	0.941000
N371	N37	0.145400	0.225100	0.050430
N381	N38	0.204000	0.194300	0.989930
C1271	C127	0.121400	0.106500	0.059930
C1281	C128	0.049800	0.069600	0.062730
H1751	H175	0.025900	0.090100	0.049330
C1291	C129	0.157000	0.176200	0.034530
C1301	C130	0.188200	0.278600	0.014530
C1311	C131	0.223700	0.258000	0.977930
C1321	C132	0.271400	0.303100	0.937730
H1761	H176	0.295100	0.289300	0.913330
C1331	C133	0.283600	0.368800	0.934130
H1771	H177	0.315500	0.399000	0.907230
C1341	C134	0.248100	0.389500	0.970730
H1781	H178	0.256200	0.433500	0.968230
C1351	C135	0.200400	0.344400	0.010830
H1791	H179	0.176600	0.358200	0.035330
Cu321	Cu32	0.916690	0.780240	0.607670
N391	N39	0.079700	0.854600	0.717100
N401	N40	0.990300	0.796000	0.656600
C1361	C136	0.985100	0.878600	0.726600
C1371	C137	0.019800	0.950200	0.729400
H1801	H180	0.064200	0.974100	0.716000
C1381	C138	0.019200	0.843000	0.701200
C1391	C139	0.090400	0.811800	0.681200
C1401	C140	0.034300	0.776300	0.644600
C1411	C141	0.031700	0.728600	0.604400
H1811	H181	0.994200	0.704900	0.580000
C1421	C142	0.085200	0.716400	0.600800
H1821	H182	0.083500	0.684500	0.573900
C1431	C143	0.141400	0.751900	0.637400
H1831	H183	0.177300	0.743800	0.634900
C1441	C144	0.144000	0.799600	0.677500
H1841	H184	0.181600	0.823400	0.702000
Cu331	Cu33	0.863550	0.083310	0.274340
N411	N41	0.774900	0.920300	0.383770
N421	N42	0.805700	0.009700	0.323270
C1451	C145	0.893500	0.014900	0.393270
C1461	C146	0.930400	0.980200	0.396070
H1851	H185	0.909900	0.935800	0.382670
C1471	C147	0.823800	0.980800	0.367870
C1481	C148	0.721400	0.909600	0.347870
C1491	C149	0.742000	0.965700	0.311270
C1501	C150	0.696900	0.968300	0.271070
H1861	H186	0.710700	0.005800	0.246670
C1511	C151	0.631200	0.914800	0.267470
H1871	H187	0.601000	0.916500	0.240570
C1521	C152	0.610500	0.858600	0.304070
H1881	H188	0.566500	0.822700	0.301570
C1531	C153	0.655600	0.856000	0.344170
H1891	H189	0.641800	0.818400	0.368670
Cu341	Cu34	0.780240	0.863550	0.441000
N431	N43	0.854600	0.774900	0.550430
N441	N44	0.796000	0.805700	0.489930
C1541	C154	0.878600	0.893500	0.559930
C1551	C155	0.950200	0.930400	0.562730
H1901	H190	0.974100	0.909900	0.549330
C1561	C156	0.843000	0.823800	0.534530
C1571	C157	0.811800	0.721400	0.514530
C1581	C158	0.776300	0.742000	0.477930
C1591	C159	0.728600	0.696900	0.437730
H1911	H191	0.704900	0.710700	0.413330
C1601	C160	0.716400	0.631200	0.434130
H1921	H192	0.684500	0.601000	0.407230
C1611	C161	0.751900	0.610500	0.470730
H1931	H193	0.743800	0.566500	0.468230
C1621	C162	0.799600	0.655600	0.510830
H1941	H194	0.823400	0.641800	0.535330
Cu351	Cu35	0.083310	0.219760	0.107670
N451	N45	0.920300	0.145400	0.217100
N461	N46	0.009700	0.204000	0.156600
C1631	C163	0.014900	0.121400	0.226600
C1641	C164	0.980200	0.049800	0.229400
H1951	H195	0.935800	0.025900	0.216000
C1651	C165	0.980800	0.157000	0.201200
C1661	C166	0.909600	0.188200	0.181200
C1671	C167	0.965700	0.223700	0.144600
C1681	C168	0.968300	0.271400	0.104400
H1961	H196	0.005800	0.295100	0.080000
C1691	C169	0.914800	0.283600	0.100800
H1971	H197	0.916500	0.315500	0.073900
C1701	C170	0.858600	0.248100	0.137400
H1981	H198	0.822700	0.256200	0.134900
C1711	C171	0.856000	0.200400	0.177500
H1991	H199	0.818400	0.176600	0.202000
Cu361	Cu36	0.136450	0.916690	0.774340
N471	N47	0.225100	0.079700	0.883770
N481	N48	0.194300	0.990300	0.823270
C1721	C172	0.106500	0.985100	0.893270
C1731	C173	0.069600	0.019800	0.896070
H2001	H200	0.090100	0.064200	0.882670
C1741	C174	0.176200	0.019200	0.867870
C1751	C175	0.278600	0.090400	0.847870
C1761	C176	0.258000	0.034300	0.811270
C1771	C177	0.303100	0.031700	0.771070
H2011	H201	0.289300	0.994200	0.746670
C1781	C178	0.368800	0.085200	0.767470
H2021	H202	0.399000	0.083500	0.740570
C1791	C179	0.389500	0.141400	0.804070
H2031	H203	0.433500	0.177300	0.801570
C1801	C180	0.344400	0.144000	0.844170
H2041	H204	0.358200	0.181600	0.868670
C1811	C181	0.076850	0.153700	0.250000
H2051	H205	0.100300	0.200600	0.250000
C1821	C182	0.008100	0.016200	0.250000
H2061	H206	0.984650	0.969300	0.250000
C1831	C183	0.846300	0.923150	0.583330
H2071	H207	0.799400	0.899700	0.583330
C1841	C184	0.983800	0.991900	0.583330
H2081	H208	0.030700	0.015350	0.583330
C1851	C185	0.076850	0.923150	0.916670
H2091	H209	0.100300	0.899700	0.916670
C1861	C186	0.008100	0.991900	0.916670
H2101	H210	0.984650	0.015350	0.916670
C1871	C187	0.923150	0.846300	0.750000
H2111	H211	0.899700	0.799400	0.750000
C1881	C188	0.991900	0.983800	0.750000
H2121	H212	0.015350	0.030700	0.750000
C1891	C189	0.153700	0.076850	0.083330
H2131	H213	0.200600	0.100300	0.083330
C1901	C190	0.016200	0.008100	0.083330
H2141	H214	0.969300	0.984650	0.083330
C1911	C191	0.923150	0.076850	0.416670
H2151	H215	0.899700	0.100300	0.416670
C1921	C192	0.991900	0.008100	0.416670
H2161	H216	0.015350	0.984650	0.416670
