data_jacs_PM
_symmetry_space_group_name_H-M	'P1'
_cell_length_a	22.955600
_cell_length_b	22.955600
_cell_length_c	15.883000
_cell_angle_alpha	90.000000
_cell_angle_beta	90.000000
_cell_angle_gamma	120.000000
_symmetry_Int_Tables_number 1

loop_
_symmetry_equiv_pos_as_xyz
'x,y,z'

loop_
_atom_site_label
_atom_site_type_symbol
_atom_site_fract_x
_atom_site_fract_y
_atom_site_fract_z
O11	O1	0.596700	0.630300	0.162300
C11	C1	0.675000	0.832800	0.921200
C21	C2	0.687800	0.892400	0.878600
C31	C3	0.652700	0.773100	0.876100
H11	H1	0.642700	0.733400	0.903600
C41	C4	0.575400	0.624800	0.087700
O21	O2	0.593600	0.679000	0.045000
O31	O3	0.683500	0.834300	0.006000
O41	O4	0.263370	0.963630	0.495630
C51	C5	0.341670	0.166130	0.254530
C61	C6	0.354470	0.225730	0.211930
C71	C7	0.319370	0.106430	0.209430
H21	H2	0.309370	0.066730	0.236930
C81	C8	0.242070	0.958130	0.421030
O51	O5	0.260270	0.012330	0.378330
O61	O6	0.350170	0.167630	0.339330
O71	O7	0.930030	0.296970	0.828970
C91	C9	0.008330	0.499470	0.587870
C101	C10	0.021130	0.559070	0.545270
C111	C11	0.986030	0.439770	0.542770
H31	H3	0.976030	0.400070	0.570270
C121	C12	0.908730	0.291470	0.754370
O81	O8	0.926930	0.345670	0.711670
O91	O9	0.016830	0.500970	0.672670
O101	O10	0.369700	0.966400	0.162300
C131	C13	0.167200	0.842200	0.921200
C141	C14	0.107600	0.795400	0.878600
C151	C15	0.226900	0.879600	0.876100
H41	H4	0.266600	0.909300	0.903600
C161	C16	0.375200	0.950600	0.087700
O111	O11	0.321000	0.914600	0.045000
O121	O12	0.165700	0.849200	0.006000
O131	O13	0.036370	0.299730	0.495630
C171	C17	0.833870	0.175530	0.254530
C181	C18	0.774270	0.128730	0.211930
C191	C19	0.893570	0.212930	0.209430
H51	H5	0.933270	0.242630	0.236930
C201	C20	0.041870	0.283930	0.421030
O141	O14	0.987670	0.247930	0.378330
O151	O15	0.832370	0.182530	0.339330
O161	O16	0.703030	0.633070	0.828970
C211	C21	0.500530	0.508870	0.587870
C221	C22	0.440930	0.462070	0.545270
C231	C23	0.560230	0.546270	0.542770
H61	H6	0.599930	0.575970	0.570270
C241	C24	0.708530	0.617270	0.754370
O171	O17	0.654330	0.581270	0.711670
O181	O18	0.499030	0.515870	0.672670
O191	O19	0.033600	0.403300	0.162300
C251	C25	0.157800	0.325000	0.921200
C261	C26	0.204600	0.312200	0.878600
C271	C27	0.120400	0.347300	0.876100
H71	H7	0.090700	0.357300	0.903600
C281	C28	0.049400	0.424600	0.087700
O201	O20	0.085400	0.406400	0.045000
O211	O21	0.150800	0.316500	0.006000
O221	O22	0.700270	0.736630	0.495630
C291	C29	0.824470	0.658330	0.254530
C301	C30	0.871270	0.645530	0.211930
C311	C31	0.787070	0.680630	0.209430
H81	H8	0.757370	0.690630	0.236930
C321	C32	0.716070	0.757930	0.421030
O231	O23	0.752070	0.739730	0.378330
O241	O24	0.817470	0.649830	0.339330
O251	O25	0.366930	0.069970	0.828970
C331	C33	0.491130	0.991670	0.587870
C341	C34	0.537930	0.978870	0.545270
C351	C35	0.453730	0.013970	0.542770
H91	H9	0.424030	0.023970	0.570270
C361	C36	0.382730	0.091270	0.754370
O261	O26	0.418730	0.073070	0.711670
O271	O27	0.484130	0.983170	0.672670
O281	O28	0.630300	0.596700	0.337700
C371	C37	0.832800	0.675000	0.578800
C381	C38	0.892400	0.687800	0.621400
C391	C39	0.773100	0.652700	0.623900
H101	H10	0.733400	0.642700	0.596400
C401	C40	0.624800	0.575400	0.412300
O291	O29	0.679000	0.593600	0.455000
O301	O30	0.834300	0.683500	0.494000
O311	O31	0.296970	0.930030	0.671030
C411	C41	0.499470	0.008330	0.912130
C421	C42	0.559070	0.021130	0.954730
C431	C43	0.439770	0.986030	0.957230
H111	H11	0.400070	0.976030	0.929730
C441	C44	0.291470	0.908730	0.745630
O321	O32	0.345670	0.926930	0.788330
O331	O33	0.500970	0.016830	0.827330
O341	O34	0.963630	0.263370	0.004370
C451	C45	0.166130	0.341670	0.245470
C461	C46	0.225730	0.354470	0.288070
C471	C47	0.106430	0.319370	0.290570
H121	H12	0.066730	0.309370	0.263070
C481	C48	0.958130	0.242070	0.078970
O351	O35	0.012330	0.260270	0.121670
O361	O36	0.167630	0.350170	0.160670
O371	O37	0.966400	0.369700	0.337700
C491	C49	0.842200	0.167200	0.578800
C501	C50	0.795400	0.107600	0.621400
C511	C51	0.879600	0.226900	0.623900
H131	H13	0.909300	0.266600	0.596400
C521	C52	0.950600	0.375200	0.412300
O381	O38	0.914600	0.321000	0.455000
O391	O39	0.849200	0.165700	0.494000
O401	O40	0.633070	0.703030	0.671030
C531	C53	0.508870	0.500530	0.912130
C541	C54	0.462070	0.440930	0.954730
C551	C55	0.546270	0.560230	0.957230
H141	H14	0.575970	0.599930	0.929730
C561	C56	0.617270	0.708530	0.745630
O411	O41	0.581270	0.654330	0.788330
O421	O42	0.515870	0.499030	0.827330
O431	O43	0.299730	0.036370	0.004370
C571	C57	0.175530	0.833870	0.245470
C581	C58	0.128730	0.774270	0.288070
C591	C59	0.212930	0.893570	0.290570
H151	H15	0.242630	0.933270	0.263070
C601	C60	0.283930	0.041870	0.078970
O441	O44	0.247930	0.987670	0.121670
O451	O45	0.182530	0.832370	0.160670
O461	O46	0.403300	0.033600	0.337700
C611	C61	0.325000	0.157800	0.578800
C621	C62	0.312200	0.204600	0.621400
C631	C63	0.347300	0.120400	0.623900
H161	H16	0.357300	0.090700	0.596400
C641	C64	0.424600	0.049400	0.412300
O471	O47	0.406400	0.085400	0.455000
O481	O48	0.316500	0.150800	0.494000
O491	O49	0.069970	0.366930	0.671030
C651	C65	0.991670	0.491130	0.912130
C661	C66	0.978870	0.537930	0.954730
C671	C67	0.013970	0.453730	0.957230
H171	H17	0.023970	0.424030	0.929730
C681	C68	0.091270	0.382730	0.745630
O501	O50	0.073070	0.418730	0.788330
O511	O51	0.983170	0.484130	0.827330
O521	O52	0.736630	0.700270	0.004370
C691	C69	0.658330	0.824470	0.245470
C701	C70	0.645530	0.871270	0.288070
C711	C71	0.680630	0.787070	0.290570
H181	H18	0.690630	0.757370	0.263070
C721	C72	0.757930	0.716070	0.078970
O531	O53	0.739730	0.752070	0.121670
O541	O54	0.649830	0.817470	0.160670
O551	O55	0.403300	0.369700	0.837700
C731	C73	0.325000	0.167200	0.078800
C741	C74	0.312200	0.107600	0.121400
C751	C75	0.347300	0.226900	0.123900
H191	H19	0.357300	0.266600	0.096400
C761	C76	0.424600	0.375200	0.912300
O561	O56	0.406400	0.321000	0.955000
O571	O57	0.316500	0.165700	0.994000
O581	O58	0.069970	0.703030	0.171030
C771	C77	0.991670	0.500530	0.412130
C781	C78	0.978870	0.440930	0.454730
C791	C79	0.013970	0.560230	0.457230
H201	H20	0.023970	0.599930	0.429730
C801	C80	0.091270	0.708530	0.245630
O591	O59	0.073070	0.654330	0.288330
O601	O60	0.983170	0.499030	0.327330
O611	O61	0.736630	0.036370	0.504370
C811	C81	0.658330	0.833870	0.745470
C821	C82	0.645530	0.774270	0.788070
C831	C83	0.680630	0.893570	0.790570
H211	H21	0.690630	0.933270	0.763070
C841	C84	0.757930	0.041870	0.578970
O621	O62	0.739730	0.987670	0.621670
O631	O63	0.649830	0.832370	0.660670
O641	O64	0.630300	0.033600	0.837700
C851	C85	0.832800	0.157800	0.078800
C861	C86	0.892400	0.204600	0.121400
C871	C87	0.773100	0.120400	0.123900
H221	H22	0.733400	0.090700	0.096400
C881	C88	0.624800	0.049400	0.912300
O651	O65	0.679000	0.085400	0.955000
O661	O66	0.834300	0.150800	0.994000
O671	O67	0.296970	0.366930	0.171030
C891	C89	0.499470	0.491130	0.412130
C901	C90	0.559070	0.537930	0.454730
C911	C91	0.439770	0.453730	0.457230
H231	H23	0.400070	0.424030	0.429730
C921	C92	0.291470	0.382730	0.245630
O681	O68	0.345670	0.418730	0.288330
O691	O69	0.500970	0.484130	0.327330
O701	O70	0.963630	0.700270	0.504370
C931	C93	0.166130	0.824470	0.745470
C941	C94	0.225730	0.871270	0.788070
C951	C95	0.106430	0.787070	0.790570
H241	H24	0.066730	0.757370	0.763070
C961	C96	0.958130	0.716070	0.578970
O711	O71	0.012330	0.752070	0.621670
O721	O72	0.167630	0.817470	0.660670
O731	O73	0.966400	0.596700	0.837700
C971	C97	0.842200	0.675000	0.078800
C981	C98	0.795400	0.687800	0.121400
C991	C99	0.879600	0.652700	0.123900
H251	H25	0.909300	0.642700	0.096400
C1001	C100	0.950600	0.575400	0.912300
O741	O74	0.914600	0.593600	0.955000
O751	O75	0.849200	0.683500	0.994000
O761	O76	0.633070	0.930030	0.171030
C1011	C101	0.508870	0.008330	0.412130
C1021	C102	0.462070	0.021130	0.454730
C1031	C103	0.546270	0.986030	0.457230
H261	H26	0.575970	0.976030	0.429730
C1041	C104	0.617270	0.908730	0.245630
O771	O77	0.581270	0.926930	0.288330
O781	O78	0.515870	0.016830	0.327330
O791	O79	0.299730	0.263370	0.504370
C1051	C105	0.175530	0.341670	0.745470
C1061	C106	0.128730	0.354470	0.788070
C1071	C107	0.212930	0.319370	0.790570
H271	H27	0.242630	0.309370	0.763070
C1081	C108	0.283930	0.242070	0.578970
O801	O80	0.247930	0.260270	0.621670
O811	O81	0.182530	0.350170	0.660670
O821	O82	0.369700	0.403300	0.662300
C1091	C109	0.167200	0.325000	0.421200
C1101	C110	0.107600	0.312200	0.378600
C1111	C111	0.226900	0.347300	0.376100
H281	H28	0.266600	0.357300	0.403600
C1121	C112	0.375200	0.424600	0.587700
O831	O83	0.321000	0.406400	0.545000
O841	O84	0.165700	0.316500	0.506000
O851	O85	0.036370	0.736630	0.995630
C1131	C113	0.833870	0.658330	0.754530
C1141	C114	0.774270	0.645530	0.711930
C1151	C115	0.893570	0.680630	0.709430
H291	H29	0.933270	0.690630	0.736930
C1161	C116	0.041870	0.757930	0.921030
O861	O86	0.987670	0.739730	0.878330
O871	O87	0.832370	0.649830	0.839330
O881	O88	0.703030	0.069970	0.328970
C1171	C117	0.500530	0.991670	0.087870
C1181	C118	0.440930	0.978870	0.045270
C1191	C119	0.560230	0.013970	0.042770
H301	H30	0.599930	0.023970	0.070270
C1201	C120	0.708530	0.091270	0.254370
O891	O89	0.654330	0.073070	0.211670
O901	O90	0.499030	0.983170	0.172670
O911	O91	0.033600	0.630300	0.662300
C1211	C121	0.157800	0.832800	0.421200
C1221	C122	0.204600	0.892400	0.378600
C1231	C123	0.120400	0.773100	0.376100
H311	H31	0.090700	0.733400	0.403600
C1241	C124	0.049400	0.624800	0.587700
O921	O92	0.085400	0.679000	0.545000
O931	O93	0.150800	0.834300	0.506000
O941	O94	0.700270	0.963630	0.995630
C1251	C125	0.824470	0.166130	0.754530
C1261	C126	0.871270	0.225730	0.711930
C1271	C127	0.787070	0.106430	0.709430
H321	H32	0.757370	0.066730	0.736930
C1281	C128	0.716070	0.958130	0.921030
O951	O95	0.752070	0.012330	0.878330
O961	O96	0.817470	0.167630	0.839330
O971	O97	0.366930	0.296970	0.328970
C1291	C129	0.491130	0.499470	0.087870
C1301	C130	0.537930	0.559070	0.045270
C1311	C131	0.453730	0.439770	0.042770
H331	H33	0.424030	0.400070	0.070270
C1321	C132	0.382730	0.291470	0.254370
O981	O98	0.418730	0.345670	0.211670
O991	O99	0.484130	0.500970	0.172670
O1001	O100	0.596700	0.966400	0.662300
C1331	C133	0.675000	0.842200	0.421200
C1341	C134	0.687800	0.795400	0.378600
C1351	C135	0.652700	0.879600	0.376100
H341	H34	0.642700	0.909300	0.403600
C1361	C136	0.575400	0.950600	0.587700
O1011	O101	0.593600	0.914600	0.545000
O1021	O102	0.683500	0.849200	0.506000
O1031	O103	0.263370	0.299730	0.995630
C1371	C137	0.341670	0.175530	0.754530
C1381	C138	0.354470	0.128730	0.711930
C1391	C139	0.319370	0.212930	0.709430
H351	H35	0.309370	0.242630	0.736930
C1401	C140	0.242070	0.283930	0.921030
O1041	O104	0.260270	0.247930	0.878330
O1051	O105	0.350170	0.182530	0.839330
O1061	O106	0.930030	0.633070	0.328970
C1411	C141	0.008330	0.508870	0.087870
C1421	C142	0.021130	0.462070	0.045270
C1431	C143	0.986030	0.546270	0.042770
H361	H36	0.976030	0.575970	0.070270
C1441	C144	0.908730	0.617270	0.254370
O1071	O107	0.926930	0.581270	0.211670
O1081	O108	0.016830	0.515870	0.172670
Zn11	Zn1	0.666670	0.761320	0.083330
Zn21	Zn2	0.666670	0.892920	0.083330
Zn31	Zn3	0.238680	0.905340	0.083330
Zn41	Zn4	0.107080	0.773740	0.083330
Zn51	Zn5	0.094660	0.333330	0.083330
Zn61	Zn6	0.226260	0.333330	0.083330
Zn71	Zn7	0.761320	0.666670	0.416670
Zn81	Zn8	0.892920	0.666670	0.416670
Zn91	Zn9	0.427990	0.000000	0.750000
Zn101	Zn10	0.559590	0.000000	0.750000
Zn111	Zn11	0.905340	0.238680	0.416670
Zn121	Zn12	0.773740	0.107080	0.416670
Zn131	Zn13	0.572010	0.572010	0.750000
Zn141	Zn14	0.440410	0.440410	0.750000
Zn151	Zn15	0.333330	0.094660	0.416670
Zn161	Zn16	0.333330	0.226260	0.416670
Zn171	Zn17	0.000000	0.427990	0.750000
Zn181	Zn18	0.000000	0.559590	0.750000
Zn191	Zn19	0.333330	0.238680	0.916670
Zn201	Zn20	0.333330	0.107080	0.916670
Zn211	Zn21	0.000000	0.572010	0.250000
Zn221	Zn22	0.000000	0.440410	0.250000
Zn231	Zn23	0.761320	0.094660	0.916670
Zn241	Zn24	0.892920	0.226260	0.916670
Zn251	Zn25	0.427990	0.427990	0.250000
Zn261	Zn26	0.559590	0.559590	0.250000
Zn271	Zn27	0.905340	0.666670	0.916670
Zn281	Zn28	0.773740	0.666670	0.916670
Zn291	Zn29	0.572010	0.000000	0.250000
Zn301	Zn30	0.440410	0.000000	0.250000
Zn311	Zn31	0.238680	0.333330	0.583330
Zn321	Zn32	0.107080	0.333330	0.583330
Zn331	Zn33	0.094660	0.761320	0.583330
Zn341	Zn34	0.226260	0.892920	0.583330
Zn351	Zn35	0.666670	0.905340	0.583330
Zn361	Zn36	0.666670	0.773740	0.583330
