data_JADBIC_clean_PM
_symmetry_space_group_name_H-M	'P1'
_cell_length_a	10.061000
_cell_length_b	11.721900
_cell_length_c	13.689100
_cell_angle_alpha	66.934000
_cell_angle_beta	87.182000
_cell_angle_gamma	76.257000
_symmetry_Int_Tables_number 1

loop_
_symmetry_equiv_pos_as_xyz
'x,y,z'

loop_
_atom_site_label
_atom_site_type_symbol
_atom_site_fract_x
_atom_site_fract_y
_atom_site_fract_z
Ce11	Ce1	0.235190	0.528480	0.503390
N11	N1	0.458100	0.177400	0.014600
N21	N2	0.804500	0.003800	0.020200
N31	N3	0.150800	0.557800	0.005100
O11	O1	0.435200	0.442500	0.624400
O21	O2	0.658300	0.345200	0.657700
O31	O3	0.791800	0.690700	0.392600
O41	O4	0.597600	0.837000	0.372800
O51	O5	0.080600	0.510900	0.383800
O61	O6	0.896100	0.472000	0.336900
C11	C1	0.536200	0.362600	0.686200
C21	C2	0.578400	0.142500	0.975500
C31	C3	0.608600	0.200100	0.869800
H11	H1	0.694200	0.173400	0.846500
C41	C4	0.510600	0.296400	0.800500
C51	C5	0.382100	0.334800	0.840600
H21	H2	0.312900	0.400400	0.796400
C61	C6	0.363800	0.272300	0.945700
H31	H3	0.279500	0.297500	0.971600
C71	C7	0.707500	0.794700	0.337600
C81	C8	0.680400	0.032100	0.054200
C91	C9	0.646100	0.966500	0.156400
H41	H4	0.557600	0.988600	0.177200
C101	C10	0.742200	0.868400	0.227600
C111	C11	0.874900	0.836800	0.192700
H51	H5	0.943900	0.772500	0.238300
C121	C12	0.898000	0.905500	0.087800
H61	H6	0.983400	0.882200	0.062600
C131	C13	0.009200	0.498300	0.319100
C141	C14	0.036200	0.512300	0.039600
C151	C15	0.989800	0.493900	0.137900
H71	H7	0.909400	0.466200	0.157000
C161	C16	0.061800	0.516300	0.211300
C171	C17	0.178500	0.561200	0.177000
H81	H8	0.229500	0.579200	0.221700
C181	C18	0.217300	0.579000	0.074700
H91	H9	0.296700	0.607200	0.053300
Ce21	Ce2	0.764810	0.471520	0.496610
N41	N4	0.541900	0.822600	0.985400
N51	N5	0.195500	0.996200	0.979800
N61	N6	0.849200	0.442200	0.994900
O71	O7	0.564800	0.557500	0.375600
O81	O8	0.341700	0.654800	0.342300
O91	O9	0.208200	0.309300	0.607400
O101	O10	0.402400	0.163000	0.627200
O111	O11	0.919400	0.489100	0.616200
O121	O12	0.103900	0.528000	0.663100
C191	C19	0.463800	0.637400	0.313800
C201	C20	0.421600	0.857500	0.024500
C211	C21	0.391400	0.799900	0.130200
H101	H10	0.305800	0.826600	0.153500
C221	C22	0.489400	0.703600	0.199500
C231	C23	0.617900	0.665200	0.159400
H111	H11	0.687100	0.599600	0.203600
C241	C24	0.636200	0.727700	0.054300
H121	H12	0.720500	0.702500	0.028400
C251	C25	0.292500	0.205300	0.662400
C261	C26	0.319600	0.967900	0.945800
C271	C27	0.353900	0.033500	0.843600
H131	H13	0.442400	0.011400	0.822800
C281	C28	0.257800	0.131600	0.772400
C291	C29	0.125100	0.163200	0.807300
H141	H14	0.056100	0.227500	0.761700
C301	C30	0.102000	0.094500	0.912200
H151	H15	0.016600	0.117800	0.937400
C311	C31	0.990800	0.501700	0.680900
C321	C32	0.963800	0.487700	0.960400
C331	C33	0.010200	0.506100	0.862100
H161	H16	0.090600	0.533800	0.843000
C341	C34	0.938200	0.483700	0.788700
C351	C35	0.821500	0.438800	0.823000
H171	H17	0.770500	0.420800	0.778300
C361	C36	0.782700	0.421000	0.925300
H181	H18	0.703300	0.392800	0.946700
