data_JADJOQ_clean_PM
_symmetry_space_group_name_H-M	'P1'
_cell_length_a	10.328700
_cell_length_b	11.736600
_cell_length_c	20.335400
_cell_angle_alpha	90.000000
_cell_angle_beta	90.000000
_cell_angle_gamma	90.000000
_symmetry_Int_Tables_number 1

loop_
_symmetry_equiv_pos_as_xyz
'x,y,z'

loop_
_atom_site_label
_atom_site_type_symbol
_atom_site_fract_x
_atom_site_fract_y
_atom_site_fract_z
Zn11	Zn1	0.960920	0.420880	0.506810
Zn21	Zn2	0.646910	0.325010	0.510180
O11	O1	0.844800	0.270800	0.507180
O21	O2	0.962700	0.123100	0.473520
O31	O3	0.624700	0.160700	0.493120
C11	C1	0.858100	0.171200	0.483920
C21	C2	0.734600	0.107200	0.465200
H11	H1	0.740400	0.027700	0.482600
C31	C3	0.724900	0.101900	0.390000
H21	H2	0.646400	0.060300	0.377500
H31	H3	0.801000	0.062500	0.372300
H41	H4	0.721200	0.179400	0.372200
O41	O4	0.876500	0.457800	0.421540
O51	O5	0.664900	0.415400	0.427780
C41	C4	0.765300	0.447200	0.398110
C51	C5	0.749900	0.476100	0.326300
C61	C6	0.856800	0.510900	0.290000
H51	H5	0.938800	0.518300	0.310700
C71	C7	0.843700	0.535200	0.223200
H61	H6	0.917400	0.557100	0.198300
C81	C8	0.725000	0.527600	0.193100
C91	C9	0.617300	0.492500	0.229000
H71	H7	0.535000	0.486800	0.208300
C101	C10	0.630800	0.465700	0.295400
H81	H8	0.557800	0.440100	0.319600
C111	C11	0.711900	0.555500	0.121100
O61	O6	0.605300	0.535700	0.094710
O71	O7	0.811000	0.596200	0.094160
Zn31	Zn3	0.539080	0.579120	0.006810
Zn41	Zn4	0.853090	0.674990	0.010180
O81	O8	0.655200	0.729200	0.007180
O91	O9	0.537300	0.876900	0.973520
O101	O10	0.875300	0.839300	0.993120
C121	C12	0.641900	0.828800	0.983920
C131	C13	0.765400	0.892800	0.965200
H91	H9	0.759600	0.972300	0.982600
C141	C14	0.775100	0.898100	0.890000
H101	H10	0.853600	0.939700	0.877500
H111	H11	0.699000	0.937500	0.872300
H121	H12	0.778800	0.820600	0.872200
O111	O11	0.623500	0.542200	0.921540
O121	O12	0.835100	0.584600	0.927780
C151	C15	0.734700	0.552800	0.898110
C161	C16	0.750100	0.523900	0.826300
C171	C17	0.643200	0.489100	0.790000
H131	H13	0.561200	0.481700	0.810700
C181	C18	0.656300	0.464800	0.723200
H141	H14	0.582600	0.442900	0.698300
C191	C19	0.775000	0.472400	0.693100
C201	C20	0.882700	0.507500	0.729000
H151	H15	0.965000	0.513200	0.708300
C211	C21	0.869200	0.534300	0.795400
H161	H16	0.942200	0.559900	0.819600
C221	C22	0.788100	0.444500	0.621100
O131	O13	0.894700	0.464300	0.594710
O141	O14	0.689000	0.403800	0.594160
Zn51	Zn5	0.039080	0.920880	0.993190
Zn61	Zn6	0.353090	0.825010	0.989820
O151	O15	0.155200	0.770800	0.992820
O161	O16	0.037300	0.623100	0.026480
O171	O17	0.375300	0.660700	0.006880
C231	C23	0.141900	0.671200	0.016080
C241	C24	0.265400	0.607200	0.034800
H171	H17	0.259600	0.527700	0.017400
C251	C25	0.275100	0.601900	0.110000
H181	H18	0.353600	0.560300	0.122500
H191	H19	0.199000	0.562500	0.127700
H201	H20	0.278800	0.679400	0.127800
O181	O18	0.123500	0.957800	0.078460
O191	O19	0.335100	0.915400	0.072220
C261	C26	0.234700	0.947200	0.101890
C271	C27	0.250100	0.976100	0.173700
C281	C28	0.143200	0.010900	0.210000
H211	H21	0.061200	0.018300	0.189300
C291	C29	0.156300	0.035200	0.276800
H221	H22	0.082600	0.057100	0.301700
C301	C30	0.275000	0.027600	0.306900
C311	C31	0.382700	0.992500	0.271000
H231	H23	0.465000	0.986800	0.291700
C321	C32	0.369200	0.965700	0.204600
H241	H24	0.442200	0.940100	0.180400
C331	C33	0.288100	0.055500	0.378900
O201	O20	0.394700	0.035700	0.405290
O211	O21	0.189000	0.096200	0.405840
Zn71	Zn7	0.460920	0.079120	0.493190
Zn81	Zn8	0.146910	0.174990	0.489820
O221	O22	0.344800	0.229200	0.492820
O231	O23	0.462700	0.376900	0.526480
O241	O24	0.124700	0.339300	0.506880
C341	C34	0.358100	0.328800	0.516080
C351	C35	0.234600	0.392800	0.534800
H251	H25	0.240400	0.472300	0.517400
C361	C36	0.224900	0.398100	0.610000
H261	H26	0.146400	0.439700	0.622500
H271	H27	0.301000	0.437500	0.627700
H281	H28	0.221200	0.320600	0.627800
O251	O25	0.376500	0.042200	0.578460
O261	O26	0.164900	0.084600	0.572220
C371	C37	0.265300	0.052800	0.601890
C381	C38	0.249900	0.023900	0.673700
C391	C39	0.356800	0.989100	0.710000
H291	H29	0.438800	0.981700	0.689300
C401	C40	0.343700	0.964800	0.776800
H301	H30	0.417400	0.942900	0.801700
C411	C41	0.225000	0.972400	0.806900
C421	C42	0.117300	0.007500	0.771000
H311	H31	0.035000	0.013200	0.791700
C431	C43	0.130800	0.034300	0.704600
H321	H32	0.057800	0.059900	0.680400
C441	C44	0.211900	0.944500	0.878900
O271	O27	0.105300	0.964300	0.905290
O281	O28	0.311000	0.903800	0.905840
