data_JAHNEM03_clean_PM
_symmetry_space_group_name_H-M	'P1'
_cell_length_a	13.620600
_cell_length_b	13.620600
_cell_length_c	8.175100
_cell_angle_alpha	90.000000
_cell_angle_beta	90.000000
_cell_angle_gamma	120.000000
_symmetry_Int_Tables_number 1

loop_
_symmetry_equiv_pos_as_xyz
'x,y,z'

loop_
_atom_site_label
_atom_site_type_symbol
_atom_site_fract_x
_atom_site_fract_y
_atom_site_fract_z
Mn11	Mn1	0.295610	0.334260	0.543830
O11	O1	0.228200	0.180400	0.405100
C11	C1	0.530300	0.321700	0.553700
C21	C2	0.354300	0.556100	0.775500
O21	O2	0.244300	0.058700	0.246500
C31	C3	0.267000	0.158800	0.280200
N11	N1	0.344800	0.210100	0.004200
H11	H1	0.408900	0.257800	0.950500
H21	H2	0.285200	0.201300	0.945100
C41	C4	0.344000	0.255000	0.167200
H31	H3	0.421000	0.286800	0.210800
N21	N2	0.363100	0.425100	0.307000
H41	H4	0.346500	0.481100	0.299500
H51	H5	0.439100	0.457400	0.307600
C51	C5	0.318500	0.352300	0.161000
H61	H6	0.352500	0.397500	0.063700
H71	H7	0.237200	0.321600	0.154600
N31	N3	0.449900	0.319300	0.603500
N41	N4	0.366000	0.495400	0.691600
Mn21	Mn2	0.665740	0.961350	0.543830
O31	O3	0.819600	0.047800	0.405100
C61	C6	0.678300	0.208600	0.553700
C71	C7	0.443900	0.798200	0.775500
O41	O4	0.941300	0.185600	0.246500
C81	C8	0.841200	0.108200	0.280200
N51	N5	0.789900	0.134700	0.004200
H81	H8	0.742200	0.151100	0.950500
H91	H9	0.798700	0.083900	0.945100
C91	C9	0.745000	0.089000	0.167200
H101	H10	0.713200	0.134200	0.210800
N61	N6	0.574900	0.938000	0.307000
H111	H11	0.518900	0.865400	0.299500
H121	H12	0.542600	0.981700	0.307600
C101	C10	0.647700	0.966200	0.161000
H131	H13	0.602500	0.955000	0.063700
H141	H14	0.678400	0.915600	0.154600
N71	N7	0.680700	0.130600	0.603500
N81	N8	0.504600	0.870600	0.691600
Mn31	Mn3	0.038650	0.704390	0.543830
O51	O5	0.952200	0.771800	0.405100
C111	C11	0.791400	0.469700	0.553700
C121	C12	0.201800	0.645700	0.775500
O61	O6	0.814400	0.755700	0.246500
C131	C13	0.891800	0.733000	0.280200
N91	N9	0.865300	0.655200	0.004200
H151	H15	0.848900	0.591100	0.950500
H161	H16	0.916100	0.714800	0.945100
C141	C14	0.911000	0.656000	0.167200
H171	H17	0.865800	0.579000	0.210800
N101	N10	0.062000	0.636900	0.307000
H181	H18	0.134600	0.653500	0.299500
H191	H19	0.018300	0.560900	0.307600
C151	C15	0.033800	0.681500	0.161000
H201	H20	0.045000	0.647500	0.063700
H211	H21	0.084400	0.762800	0.154600
N111	N11	0.869400	0.550100	0.603500
N121	N12	0.129400	0.634000	0.691600
Mn41	Mn4	0.704390	0.665740	0.043830
O71	O7	0.771800	0.819600	0.905100
C161	C16	0.469700	0.678300	0.053700
C171	C17	0.645700	0.443900	0.275500
O81	O8	0.755700	0.941300	0.746500
C181	C18	0.733000	0.841200	0.780200
N131	N13	0.655200	0.789900	0.504200
H221	H22	0.591100	0.742200	0.450500
H231	H23	0.714800	0.798700	0.445100
C191	C19	0.656000	0.745000	0.667200
H241	H24	0.579000	0.713200	0.710800
N141	N14	0.636900	0.574900	0.807000
H251	H25	0.653500	0.518900	0.799500
H261	H26	0.560900	0.542600	0.807600
C201	C20	0.681500	0.647700	0.661000
H271	H27	0.647500	0.602500	0.563700
H281	H28	0.762800	0.678400	0.654600
N151	N15	0.550100	0.680700	0.103500
N161	N16	0.634000	0.504600	0.191600
Mn51	Mn5	0.334260	0.038650	0.043830
O91	O9	0.180400	0.952200	0.905100
C211	C21	0.321700	0.791400	0.053700
C221	C22	0.556100	0.201800	0.275500
O101	O10	0.058700	0.814400	0.746500
C231	C23	0.158800	0.891800	0.780200
N171	N17	0.210100	0.865300	0.504200
H291	H29	0.257800	0.848900	0.450500
H301	H30	0.201300	0.916100	0.445100
C241	C24	0.255000	0.911000	0.667200
H311	H31	0.286800	0.865800	0.710800
N181	N18	0.425100	0.062000	0.807000
H321	H32	0.481100	0.134600	0.799500
H331	H33	0.457400	0.018300	0.807600
C251	C25	0.352300	0.033800	0.661000
H341	H34	0.397500	0.045000	0.563700
H351	H35	0.321600	0.084400	0.654600
N191	N19	0.319300	0.869400	0.103500
N201	N20	0.495400	0.129400	0.191600
Mn61	Mn6	0.961350	0.295610	0.043830
O111	O11	0.047800	0.228200	0.905100
C261	C26	0.208600	0.530300	0.053700
C271	C27	0.798200	0.354300	0.275500
O121	O12	0.185600	0.244300	0.746500
C281	C28	0.108200	0.267000	0.780200
N211	N21	0.134700	0.344800	0.504200
H361	H36	0.151100	0.408900	0.450500
H371	H37	0.083900	0.285200	0.445100
C291	C29	0.089000	0.344000	0.667200
H381	H38	0.134200	0.421000	0.710800
N221	N22	0.938000	0.363100	0.807000
H391	H39	0.865400	0.346500	0.799500
H401	H40	0.981700	0.439100	0.807600
C301	C30	0.966200	0.318500	0.661000
H411	H41	0.955000	0.352500	0.563700
H421	H42	0.915600	0.237200	0.654600
N231	N23	0.130600	0.449900	0.103500
N241	N24	0.870600	0.366000	0.191600
Cr11	Cr1	0.333330	0.666670	0.924570
Cr21	Cr2	0.666670	0.333330	0.424570
