data_JAHNEM_clean_PM
_symmetry_space_group_name_H-M	'P1'
_cell_length_a	8.153000
_cell_length_b	13.680200
_cell_length_c	13.680200
_cell_angle_alpha	120.000000
_cell_angle_beta	90.000000
_cell_angle_gamma	90.000000
_symmetry_Int_Tables_number 1

loop_
_symmetry_equiv_pos_as_xyz
'x,y,z'

loop_
_atom_site_label
_atom_site_type_symbol
_atom_site_fract_x
_atom_site_fract_y
_atom_site_fract_z
Mn11	Mn1	0.206920	0.334270	0.037880
Mn21	Mn2	0.206920	0.703610	0.665730
Mn31	Mn3	0.206920	0.962120	0.296390
Mn41	Mn4	0.706920	0.665730	0.962120
Mn51	Mn5	0.706920	0.296390	0.334270
Mn61	Mn6	0.706920	0.037880	0.703610
Cr11	Cr1	0.589600	0.666670	0.333340
Cr21	Cr2	0.089600	0.333330	0.666660
H11	H1	0.609500	0.254300	0.848100
H21	H2	0.605800	0.197200	0.914200
H31	H3	0.869200	0.285800	0.866000
H41	H4	0.724100	0.395400	0.043400
H51	H5	0.816300	0.320400	0.082800
H61	H6	0.960200	0.480200	0.133200
H71	H7	0.968600	0.456600	0.017200
H81	H8	0.609500	0.593800	0.745700
H91	H9	0.605800	0.717000	0.802800
H101	H10	0.869200	0.580200	0.714200
H111	H11	0.724100	0.648000	0.604600
H121	H12	0.816300	0.762400	0.679600
H131	H13	0.960200	0.653000	0.519800
H141	H14	0.968600	0.560600	0.543400
H151	H15	0.609500	0.151900	0.406200
H161	H16	0.605800	0.085800	0.283000
H171	H17	0.869200	0.134000	0.419800
H181	H18	0.724100	0.956600	0.352000
H191	H19	0.816300	0.917200	0.237600
H201	H20	0.960200	0.866800	0.347000
H211	H21	0.968600	0.982800	0.439400
H221	H22	0.109500	0.745700	0.151900
H231	H23	0.105800	0.802800	0.085800
H241	H24	0.369200	0.714200	0.134000
H251	H25	0.224100	0.604600	0.956600
H261	H26	0.316300	0.679600	0.917200
H271	H27	0.460200	0.519800	0.866800
H281	H28	0.468600	0.543400	0.982800
H291	H29	0.109500	0.406200	0.254300
H301	H30	0.105800	0.283000	0.197200
H311	H31	0.369200	0.419800	0.285800
H321	H32	0.224100	0.352000	0.395400
H331	H33	0.316300	0.237600	0.320400
H341	H34	0.460200	0.347000	0.480200
H351	H35	0.468600	0.439400	0.456600
H361	H36	0.109500	0.848100	0.593800
H371	H37	0.105800	0.914200	0.717000
H381	H38	0.369200	0.866000	0.580200
H391	H39	0.224100	0.043400	0.648000
H401	H40	0.316300	0.082800	0.762400
H411	H41	0.460200	0.133200	0.653000
H421	H42	0.468600	0.017200	0.560600
C11	C1	0.439100	0.556600	0.202600
C21	C2	0.826600	0.254100	0.911200
C31	C3	0.822100	0.350700	0.032200
C41	C4	0.721100	0.679500	0.209800
C51	C5	0.944800	0.158600	0.892000
C61	C6	0.439100	0.646000	0.443400
C71	C7	0.826600	0.657100	0.745900
C81	C8	0.822100	0.681500	0.649300
C91	C9	0.721100	0.530300	0.320500
C101	C10	0.944800	0.733400	0.841400
C111	C11	0.439100	0.797400	0.354000
C121	C12	0.826600	0.088800	0.342900
C131	C13	0.822100	0.967800	0.318500
C141	C14	0.721100	0.790200	0.469700
C151	C15	0.944800	0.108000	0.266600
C161	C16	0.939100	0.443400	0.797400
C171	C17	0.326600	0.745900	0.088800
C181	C18	0.322100	0.649300	0.967800
C191	C19	0.221100	0.320500	0.790200
C201	C20	0.444800	0.841400	0.108000
C211	C21	0.939100	0.354000	0.556600
C221	C22	0.326600	0.342900	0.254100
C231	C23	0.322100	0.318500	0.350700
C241	C24	0.221100	0.469700	0.679500
C251	C25	0.444800	0.266600	0.158600
C261	C26	0.939100	0.202600	0.646000
C271	C27	0.326600	0.911200	0.657100
C281	C28	0.322100	0.032200	0.681500
C291	C29	0.221100	0.209800	0.530300
C301	C30	0.444800	0.892000	0.733400
N11	N1	0.664700	0.207100	0.864200
N21	N2	0.353600	0.495500	0.129400
N31	N3	0.768800	0.680400	0.129900
N41	N4	0.968200	0.424500	0.060800
N51	N5	0.664700	0.657100	0.792900
N61	N6	0.353600	0.633900	0.504500
N71	N7	0.768800	0.449500	0.319600
N81	N8	0.968200	0.636300	0.575500
N91	N9	0.664700	0.135800	0.342900
N101	N10	0.353600	0.870600	0.366100
N111	N11	0.768800	0.870100	0.550500
N121	N12	0.968200	0.939200	0.363700
N131	N13	0.164700	0.792900	0.135800
N141	N14	0.853600	0.504500	0.870600
N151	N15	0.268800	0.319600	0.870100
N161	N16	0.468200	0.575500	0.939200
N171	N17	0.164700	0.342900	0.207100
N181	N18	0.853600	0.366100	0.495500
N191	N19	0.268800	0.550500	0.680400
N201	N20	0.468200	0.363700	0.424500
N211	N21	0.164700	0.864200	0.657100
N221	N22	0.853600	0.129400	0.633900
N231	N23	0.268800	0.129900	0.449500
N241	N24	0.468200	0.060800	0.636300
O11	O1	0.066400	0.179700	0.952200
O21	O2	0.910300	0.057700	0.813100
O31	O3	0.066400	0.772500	0.820300
O41	O4	0.910300	0.755400	0.942300
O51	O5	0.066400	0.047800	0.227500
O61	O6	0.910300	0.186900	0.244600
O71	O7	0.566400	0.820300	0.047800
O81	O8	0.410300	0.942300	0.186900
O91	O9	0.566400	0.227500	0.179700
O101	O10	0.410300	0.244600	0.057700
O111	O11	0.566400	0.952200	0.772500
O121	O12	0.410300	0.813100	0.755400
