data_JAHNEM02_clean_PM
_symmetry_space_group_name_H-M	'P1'
_cell_length_a	13.609300
_cell_length_b	13.609300
_cell_length_c	8.160900
_cell_angle_alpha	90.000000
_cell_angle_beta	90.000000
_cell_angle_gamma	120.000000
_symmetry_Int_Tables_number 1

loop_
_symmetry_equiv_pos_as_xyz
'x,y,z'

loop_
_atom_site_label
_atom_site_type_symbol
_atom_site_fract_x
_atom_site_fract_y
_atom_site_fract_z
Mn11	Mn1	0.295780	0.334710	0.543400
O11	O1	0.227900	0.180600	0.404800
C11	C1	0.529700	0.320700	0.555200
C21	C2	0.354400	0.555800	0.776300
O21	O2	0.244700	0.058500	0.246700
C31	C3	0.266600	0.158700	0.280000
N11	N1	0.345900	0.210100	0.003600
H11	H1	0.410400	0.257700	0.950300
H21	H2	0.286600	0.201600	0.943700
C41	C4	0.344700	0.255400	0.165800
H31	H3	0.421600	0.287200	0.210100
N21	N2	0.363600	0.425900	0.306600
H41	H4	0.347000	0.482000	0.299000
H51	H5	0.439700	0.458100	0.307100
C51	C5	0.318600	0.352800	0.161200
H61	H6	0.351800	0.397900	0.063300
H71	H7	0.237100	0.321600	0.155800
N31	N3	0.448700	0.318900	0.603700
N41	N4	0.366500	0.495700	0.691600
Mn21	Mn2	0.665290	0.961070	0.543400
O31	O3	0.819400	0.047300	0.404800
C61	C6	0.679300	0.209000	0.555200
C71	C7	0.444200	0.798600	0.776300
O41	O4	0.941500	0.186200	0.246700
C81	C8	0.841300	0.107900	0.280000
N51	N5	0.789900	0.135800	0.003600
H81	H8	0.742300	0.152700	0.950300
H91	H9	0.798400	0.085000	0.943700
C91	C9	0.744600	0.089300	0.165800
H101	H10	0.712800	0.134400	0.210100
N61	N6	0.574100	0.937700	0.306600
H111	H11	0.518000	0.865000	0.299000
H121	H12	0.541900	0.981600	0.307100
C101	C10	0.647200	0.965800	0.161200
H131	H13	0.602100	0.953900	0.063300
H141	H14	0.678400	0.915500	0.155800
N71	N7	0.681100	0.129800	0.603700
N81	N8	0.504300	0.870800	0.691600
Mn31	Mn3	0.038930	0.704220	0.543400
O51	O5	0.952700	0.772100	0.404800
C111	C11	0.791000	0.470300	0.555200
C121	C12	0.201400	0.645600	0.776300
O61	O6	0.813800	0.755300	0.246700
C131	C13	0.892100	0.733400	0.280000
N91	N9	0.864200	0.654100	0.003600
H151	H15	0.847300	0.589600	0.950300
H161	H16	0.915000	0.713400	0.943700
C141	C14	0.910700	0.655300	0.165800
H171	H17	0.865600	0.578400	0.210100
N101	N10	0.062300	0.636400	0.306600
H181	H18	0.135000	0.653000	0.299000
H191	H19	0.018400	0.560300	0.307100
C151	C15	0.034200	0.681400	0.161200
H201	H20	0.046100	0.648200	0.063300
H211	H21	0.084500	0.762900	0.155800
N111	N11	0.870200	0.551300	0.603700
N121	N12	0.129200	0.633500	0.691600
Mn41	Mn4	0.704220	0.665290	0.043400
O71	O7	0.772100	0.819400	0.904800
C161	C16	0.470300	0.679300	0.055200
C171	C17	0.645600	0.444200	0.276300
O81	O8	0.755300	0.941500	0.746700
C181	C18	0.733400	0.841300	0.780000
N131	N13	0.654100	0.789900	0.503600
H221	H22	0.589600	0.742300	0.450300
H231	H23	0.713400	0.798400	0.443700
C191	C19	0.655300	0.744600	0.665800
H241	H24	0.578400	0.712800	0.710100
N141	N14	0.636400	0.574100	0.806600
H251	H25	0.653000	0.518000	0.799000
H261	H26	0.560300	0.541900	0.807100
C201	C20	0.681400	0.647200	0.661200
H271	H27	0.648200	0.602100	0.563300
H281	H28	0.762900	0.678400	0.655800
N151	N15	0.551300	0.681100	0.103700
N161	N16	0.633500	0.504300	0.191600
Mn51	Mn5	0.334710	0.038930	0.043400
O91	O9	0.180600	0.952700	0.904800
C211	C21	0.320700	0.791000	0.055200
C221	C22	0.555800	0.201400	0.276300
O101	O10	0.058500	0.813800	0.746700
C231	C23	0.158700	0.892100	0.780000
N171	N17	0.210100	0.864200	0.503600
H291	H29	0.257700	0.847300	0.450300
H301	H30	0.201600	0.915000	0.443700
C241	C24	0.255400	0.910700	0.665800
H311	H31	0.287200	0.865600	0.710100
N181	N18	0.425900	0.062300	0.806600
H321	H32	0.482000	0.135000	0.799000
H331	H33	0.458100	0.018400	0.807100
C251	C25	0.352800	0.034200	0.661200
H341	H34	0.397900	0.046100	0.563300
H351	H35	0.321600	0.084500	0.655800
N191	N19	0.318900	0.870200	0.103700
N201	N20	0.495700	0.129200	0.191600
Mn61	Mn6	0.961070	0.295780	0.043400
O111	O11	0.047300	0.227900	0.904800
C261	C26	0.209000	0.529700	0.055200
C271	C27	0.798600	0.354400	0.276300
O121	O12	0.186200	0.244700	0.746700
C281	C28	0.107900	0.266600	0.780000
N211	N21	0.135800	0.345900	0.503600
H361	H36	0.152700	0.410400	0.450300
H371	H37	0.085000	0.286600	0.443700
C291	C29	0.089300	0.344700	0.665800
H381	H38	0.134400	0.421600	0.710100
N221	N22	0.937700	0.363600	0.806600
H391	H39	0.865000	0.347000	0.799000
H401	H40	0.981600	0.439700	0.807100
C301	C30	0.965800	0.318600	0.661200
H411	H41	0.953900	0.351800	0.563300
H421	H42	0.915500	0.237100	0.655800
N231	N23	0.129800	0.448700	0.103700
N241	N24	0.870800	0.366500	0.191600
Cr11	Cr1	0.333330	0.666670	0.925660
Cr21	Cr2	0.666670	0.333330	0.425660
