data_JAKBIJ_clean_PM
_symmetry_space_group_name_H-M	'P1'
_cell_length_a	10.496000
_cell_length_b	12.396000
_cell_length_c	16.254000
_cell_angle_alpha	90.000000
_cell_angle_beta	90.000000
_cell_angle_gamma	90.000000
_symmetry_Int_Tables_number 1

loop_
_symmetry_equiv_pos_as_xyz
'x,y,z'

loop_
_atom_site_label
_atom_site_type_symbol
_atom_site_fract_x
_atom_site_fract_y
_atom_site_fract_z
C11	C1	0.328900	0.105400	0.984400
C21	C2	0.352500	0.062900	0.118700
C31	C3	0.086200	0.838000	0.834200
C41	C4	0.004200	0.699800	0.759900
C51	C5	0.443900	0.858100	0.818800
C61	C6	0.582100	0.718600	0.794000
Mn11	Mn1	0.226510	0.048890	0.799880
N11	N1	0.281200	0.109800	0.922400
N21	N2	0.390900	0.112600	0.052400
N31	N3	0.328500	0.022900	0.178500
N41	N4	0.097500	0.923900	0.857100
N51	N5	0.086500	0.736100	0.812700
N61	N6	0.937500	0.660100	0.713100
N71	N7	0.383200	0.929000	0.808700
N81	N8	0.516500	0.778700	0.844200
N91	N9	0.646400	0.665300	0.760200
C71	C7	0.171100	0.894600	0.484400
C81	C8	0.147500	0.937100	0.618700
C91	C9	0.413800	0.162000	0.334200
C101	C10	0.495800	0.300200	0.259900
C111	C11	0.056100	0.141900	0.318800
C121	C12	0.917900	0.281400	0.294000
Mn21	Mn2	0.273490	0.951110	0.299880
N101	N10	0.218800	0.890200	0.422400
N111	N11	0.109100	0.887400	0.552400
N121	N12	0.171500	0.977100	0.678500
N131	N13	0.402500	0.076100	0.357100
N141	N14	0.413500	0.263900	0.312700
N151	N15	0.562500	0.339900	0.213100
N161	N16	0.116800	0.071000	0.308700
N171	N17	0.983500	0.221300	0.344200
N181	N18	0.853600	0.334700	0.260200
C131	C13	0.671100	0.605400	0.515600
C141	C14	0.647500	0.562900	0.381300
C151	C15	0.913800	0.338000	0.665800
C161	C16	0.995800	0.199800	0.740100
C171	C17	0.556100	0.358100	0.681200
C181	C18	0.417900	0.218600	0.706000
Mn31	Mn3	0.773490	0.548890	0.700120
N191	N19	0.718800	0.609800	0.577600
N201	N20	0.609100	0.612600	0.447600
N211	N21	0.671500	0.522900	0.321500
N221	N22	0.902500	0.423900	0.642900
N231	N23	0.913500	0.236100	0.687300
N241	N24	0.062500	0.160100	0.786900
N251	N25	0.616800	0.429000	0.691300
N261	N26	0.483500	0.278700	0.655800
N271	N27	0.353600	0.165300	0.739800
C191	C19	0.828900	0.394600	0.015600
C201	C20	0.852500	0.437100	0.881300
C211	C21	0.586200	0.662000	0.165800
C221	C22	0.504200	0.800200	0.240100
C231	C23	0.943900	0.641900	0.181200
C241	C24	0.082100	0.781400	0.206000
Mn41	Mn4	0.726510	0.451110	0.200120
N281	N28	0.781200	0.390200	0.077600
N291	N29	0.890900	0.387400	0.947600
N301	N30	0.828500	0.477100	0.821500
N311	N31	0.597500	0.576100	0.142900
N321	N32	0.586500	0.763900	0.187300
N331	N33	0.437500	0.839900	0.286900
N341	N34	0.883200	0.571000	0.191300
N351	N35	0.016500	0.721300	0.155800
N361	N36	0.146400	0.834700	0.239800
