data_JAKBOP_clean_PM
_symmetry_space_group_name_H-M	'P1'
_cell_length_a	10.694000
_cell_length_b	12.092000
_cell_length_c	16.108000
_cell_angle_alpha	90.000000
_cell_angle_beta	90.000000
_cell_angle_gamma	90.000000
_symmetry_Int_Tables_number 1

loop_
_symmetry_equiv_pos_as_xyz
'x,y,z'

loop_
_atom_site_label
_atom_site_type_symbol
_atom_site_fract_x
_atom_site_fract_y
_atom_site_fract_z
C11	C1	0.167000	0.607900	0.011300
C21	C2	0.417100	0.340000	0.161000
N11	N1	0.123800	0.427900	0.187100
N21	N2	0.402700	0.426800	0.134900
N31	N3	0.214700	0.617300	0.073000
Mn11	Mn1	0.275450	0.554270	0.194510
N41	N4	0.421300	0.237800	0.186400
N51	N5	0.101400	0.607300	0.943500
N61	N6	0.001900	0.266800	0.159200
C31	C3	0.064100	0.354800	0.179600
C41	C4	0.921500	0.218600	0.209800
N71	N7	0.851600	0.170600	0.243400
N81	N8	0.168400	0.517600	0.816100
C51	C5	0.142400	0.557500	0.876800
N91	N9	0.565200	0.170000	0.293100
C61	C6	0.501300	0.206700	0.242100
C71	C7	0.333000	0.392100	0.511300
C81	C8	0.082900	0.660000	0.661000
N101	N10	0.376200	0.572100	0.687100
N111	N11	0.097300	0.573200	0.634900
N121	N12	0.285300	0.382700	0.573000
Mn21	Mn2	0.224550	0.445730	0.694510
N131	N13	0.078700	0.762200	0.686400
N141	N14	0.398600	0.392700	0.443500
N151	N15	0.498100	0.733200	0.659200
C91	C9	0.435900	0.645200	0.679600
C101	C10	0.578500	0.781400	0.709800
N161	N16	0.648400	0.829400	0.743400
N171	N17	0.331600	0.482400	0.316100
C111	C11	0.357600	0.442500	0.376800
N181	N18	0.934800	0.830000	0.793100
C121	C12	0.998700	0.793300	0.742100
C131	C13	0.833000	0.107900	0.488700
C141	C14	0.582900	0.840000	0.339000
N191	N19	0.876200	0.927900	0.312900
N201	N20	0.597300	0.926800	0.365100
N211	N21	0.785300	0.117300	0.427000
Mn31	Mn3	0.724550	0.054270	0.305490
N221	N22	0.578700	0.737800	0.313600
N231	N23	0.898600	0.107300	0.556500
N241	N24	0.998100	0.766800	0.340800
C151	C15	0.935900	0.854800	0.320400
C161	C16	0.078500	0.718600	0.290200
N251	N25	0.148400	0.670600	0.256600
N261	N26	0.831600	0.017600	0.683900
C171	C17	0.857600	0.057500	0.623200
N271	N27	0.434800	0.670000	0.206900
C181	C18	0.498700	0.706700	0.257900
C191	C19	0.667000	0.892100	0.988700
C201	C20	0.917100	0.160000	0.839000
N281	N28	0.623800	0.072100	0.812900
N291	N29	0.902700	0.073200	0.865100
N301	N30	0.714700	0.882700	0.927000
Mn41	Mn4	0.775450	0.945730	0.805490
N311	N31	0.921300	0.262200	0.813600
N321	N32	0.601400	0.892700	0.056500
N331	N33	0.501900	0.233200	0.840800
C211	C21	0.564100	0.145200	0.820400
C221	C22	0.421500	0.281400	0.790200
N341	N34	0.351600	0.329400	0.756600
N351	N35	0.668400	0.982400	0.183900
C231	C23	0.642400	0.942500	0.123200
N361	N36	0.065200	0.330000	0.706900
C241	C24	0.001300	0.293300	0.757900
