data_JAVWUY_clean_PM
_symmetry_space_group_name_H-M	'P1'
_cell_length_a	8.601000
_cell_length_b	14.224000
_cell_length_c	16.098000
_cell_angle_alpha	90.000000
_cell_angle_beta	90.000000
_cell_angle_gamma	90.000000
_symmetry_Int_Tables_number 1

loop_
_symmetry_equiv_pos_as_xyz
'x,y,z'

loop_
_atom_site_label
_atom_site_type_symbol
_atom_site_fract_x
_atom_site_fract_y
_atom_site_fract_z
Ag11	Ag1	0.941450	0.430420	0.374500
Ag21	Ag2	0.558550	0.569580	0.874500
Ag31	Ag3	0.058550	0.930420	0.125500
Ag41	Ag4	0.441450	0.069580	0.625500
H11	H1	0.280700	0.367000	0.257100
H21	H2	0.142500	0.332000	0.189400
H31	H3	0.360700	0.206400	0.264600
H41	H4	0.386600	0.225400	0.176100
H51	H5	0.845000	0.658000	0.373800
H61	H6	0.917100	0.642500	0.264600
H71	H7	0.635400	0.433900	0.217500
H81	H8	0.616400	0.550000	0.191900
H91	H9	0.890000	0.551600	0.156700
H101	H10	0.868200	0.423000	0.148700
H111	H11	0.828200	0.568000	0.565800
H121	H12	0.660700	0.525900	0.530800
H131	H13	0.582900	0.359500	0.447100
H141	H14	0.576100	0.346400	0.547300
H151	H15	0.793900	0.209300	0.468100
H161	H16	0.612500	0.200500	0.497100
H171	H17	0.299300	0.370200	0.424200
H181	H18	0.358900	0.268400	0.394600
H191	H19	0.219300	0.633000	0.757100
H201	H20	0.357500	0.668000	0.689400
H211	H21	0.139300	0.793600	0.764600
H221	H22	0.113400	0.774600	0.676100
H231	H23	0.655000	0.342000	0.873800
H241	H24	0.582900	0.357500	0.764600
H251	H25	0.864600	0.566100	0.717500
H261	H26	0.883600	0.450000	0.691900
H271	H27	0.610000	0.448400	0.656700
H281	H28	0.631800	0.577000	0.648700
H291	H29	0.671800	0.432000	0.065800
H301	H30	0.839300	0.474100	0.030800
H311	H31	0.917100	0.640500	0.947100
H321	H32	0.923900	0.653600	0.047300
H331	H33	0.706100	0.790700	0.968100
H341	H34	0.887500	0.799500	0.997100
H351	H35	0.200700	0.629800	0.924200
H361	H36	0.141100	0.731600	0.894600
H371	H37	0.719300	0.867000	0.242900
H381	H38	0.857500	0.832000	0.310600
H391	H39	0.639300	0.706400	0.235400
H401	H40	0.613400	0.725400	0.323900
H411	H41	0.155000	0.158000	0.126200
H421	H42	0.082900	0.142500	0.235400
H431	H43	0.364600	0.933900	0.282500
H441	H44	0.383600	0.050000	0.308100
H451	H45	0.110000	0.051600	0.343300
H461	H46	0.131800	0.923000	0.351300
H471	H47	0.171800	0.068000	0.934200
H481	H48	0.339300	0.025900	0.969200
H491	H49	0.417100	0.859500	0.052900
H501	H50	0.423900	0.846400	0.952700
H511	H51	0.206100	0.709300	0.031900
H521	H52	0.387500	0.700500	0.002900
H531	H53	0.700700	0.870200	0.075800
H541	H54	0.641100	0.768400	0.105400
H551	H55	0.780700	0.133000	0.742900
H561	H56	0.642500	0.168000	0.810600
H571	H57	0.860700	0.293600	0.735400
H581	H58	0.886600	0.274600	0.823900
H591	H59	0.345000	0.842000	0.626200
H601	H60	0.417100	0.857500	0.735400
H611	H61	0.135400	0.066100	0.782500
H621	H62	0.116400	0.950000	0.808100
H631	H63	0.390000	0.948400	0.843300
H641	H64	0.368200	0.077000	0.851300
H651	H65	0.328200	0.932000	0.434200
H661	H66	0.160700	0.974100	0.469200
H671	H67	0.082900	0.140500	0.552900
H681	H68	0.076100	0.153600	0.452700
H691	H69	0.293900	0.290700	0.531900
H701	H70	0.112500	0.299500	0.502900
H711	H71	0.799300	0.129800	0.575800
H721	H72	0.858900	0.231600	0.605400
C11	C1	0.211700	0.310900	0.240400
C21	C2	0.294700	0.222200	0.214100
C31	C3	0.820000	0.644500	0.306000
C41	C4	0.684000	0.499000	0.207700
C51	C5	0.819800	0.486400	0.149300
C61	C6	0.736500	0.519400	0.559900
C71	C7	0.664900	0.337100	0.502600
C81	C8	0.713700	0.235000	0.502800
C91	C9	0.269400	0.301600	0.413400
C101	C10	0.288300	0.689100	0.740400
C111	C11	0.205300	0.777800	0.714100
C121	C12	0.680000	0.355500	0.806000
C131	C13	0.816000	0.501000	0.707700
C141	C14	0.680200	0.513600	0.649300
C151	C15	0.763500	0.480600	0.059900
C161	C16	0.835100	0.662900	0.002600
C171	C17	0.786300	0.765000	0.002800
C181	C18	0.230600	0.698400	0.913400
C191	C19	0.788300	0.810900	0.259600
C201	C20	0.705300	0.722200	0.285900
C211	C21	0.180000	0.144500	0.194000
C221	C22	0.316000	0.999000	0.292300
C231	C23	0.180200	0.986400	0.350700
C241	C24	0.263500	0.019400	0.940100
C251	C25	0.335100	0.837100	0.997400
C261	C26	0.286300	0.735000	0.997200
C271	C27	0.730600	0.801600	0.086600
C281	C28	0.711700	0.189100	0.759600
C291	C29	0.794700	0.277800	0.785900
C301	C30	0.320000	0.855500	0.694000
C311	C31	0.184000	0.001000	0.792300
C321	C32	0.319800	0.013600	0.850700
C331	C33	0.236500	0.980600	0.440100
C341	C34	0.164900	0.162900	0.497400
C351	C35	0.213700	0.265000	0.497200
C361	C36	0.769400	0.198400	0.586600
S11	S1	0.110100	0.296200	0.339400
S21	S2	0.731100	0.528200	0.314700
S31	S3	0.829800	0.411500	0.525090
S41	S4	0.389900	0.703800	0.839400
S51	S5	0.768900	0.471800	0.814700
S61	S6	0.670200	0.588500	0.025090
S71	S7	0.889900	0.796200	0.160600
S81	S8	0.268900	0.028200	0.185300
S91	S9	0.170200	0.911500	0.974910
S101	S10	0.610100	0.203800	0.660600
S111	S11	0.231100	0.971800	0.685300
S121	S12	0.329800	0.088500	0.474910
