data_JEJKIT_clean_PM
_symmetry_space_group_name_H-M	'P1'
_cell_length_a	9.352500
_cell_length_b	10.917000
_cell_length_c	24.175000
_cell_angle_alpha	90.000000
_cell_angle_beta	90.000000
_cell_angle_gamma	90.000000
_symmetry_Int_Tables_number 1

loop_
_symmetry_equiv_pos_as_xyz
'x,y,z'

loop_
_atom_site_label
_atom_site_type_symbol
_atom_site_fract_x
_atom_site_fract_y
_atom_site_fract_z
Co11	Co1	0.240040	0.230110	0.037750
O11	O1	0.331400	0.397000	0.052100
O21	O2	0.320400	0.268280	0.957970
O31	O3	0.059200	0.323100	0.008150
N11	N1	0.151000	0.227300	0.115800
C11	C1	0.332900	0.461500	0.009870
C21	C2	0.309800	0.399700	0.953390
H11	H1	0.382600	0.429100	0.927500
C31	C3	0.162000	0.429700	0.930410
H21	H2	0.159100	0.405400	0.891800
H31	H3	0.148600	0.517800	0.931800
C41	C4	0.037700	0.368600	0.960530
C51	C5	0.097700	0.330900	0.137430
H41	H4	0.101900	0.402500	0.116600
C61	C6	0.036600	0.335500	0.189570
H51	H5	0.999000	0.408500	0.203000
C71	C7	0.032000	0.229700	0.221620
C81	C8	0.087000	0.123100	0.198630
H61	H6	0.085600	0.050300	0.218600
C91	C9	0.144000	0.125900	0.145540
H71	H7	0.178700	0.053500	0.130300
O41	O4	0.353500	0.575500	0.008300
O51	O5	0.919300	0.369700	0.936860
Ni11	Ni1	0.259960	0.730110	0.037750
Co21	Co2	0.259960	0.269890	0.537750
O61	O6	0.168600	0.103000	0.552100
O71	O7	0.179600	0.231720	0.457970
O81	O8	0.440800	0.176900	0.508150
N21	N2	0.349000	0.272700	0.615800
C101	C10	0.167100	0.038500	0.509870
C111	C11	0.190200	0.100300	0.453390
H81	H8	0.117400	0.070900	0.427500
C121	C12	0.338000	0.070300	0.430410
H91	H9	0.340900	0.094600	0.391800
H101	H10	0.351400	0.982200	0.431800
C131	C13	0.462300	0.131400	0.460530
C141	C14	0.402300	0.169100	0.637430
H111	H11	0.398100	0.097500	0.616600
C151	C15	0.463400	0.164500	0.689570
H121	H12	0.501000	0.091500	0.703000
C161	C16	0.468000	0.270300	0.721620
C171	C17	0.413000	0.376900	0.698630
H131	H13	0.414400	0.449700	0.718600
C181	C18	0.356000	0.374100	0.645540
H141	H14	0.321300	0.446500	0.630300
O91	O9	0.146500	0.924500	0.508300
O101	O10	0.580700	0.130300	0.436860
Ni21	Ni2	0.240040	0.769890	0.537750
Co31	Co3	0.759960	0.230110	0.462260
O111	O11	0.668600	0.397000	0.447900
O121	O12	0.679600	0.268280	0.542030
O131	O13	0.940800	0.323100	0.491850
N31	N3	0.849000	0.227300	0.384200
C191	C19	0.667100	0.461500	0.490130
C201	C20	0.690200	0.399700	0.546610
H151	H15	0.617400	0.429100	0.572500
C211	C21	0.838000	0.429700	0.569590
H161	H16	0.840900	0.405400	0.608200
H171	H17	0.851400	0.517800	0.568200
C221	C22	0.962300	0.368600	0.539470
C231	C23	0.902300	0.330900	0.362570
H181	H18	0.898100	0.402500	0.383400
C241	C24	0.963400	0.335500	0.310430
H191	H19	0.001000	0.408500	0.297000
C251	C25	0.968000	0.229700	0.278380
C261	C26	0.913000	0.123100	0.301370
H201	H20	0.914400	0.050300	0.281400
C271	C27	0.856000	0.125900	0.354460
H211	H21	0.821300	0.053500	0.369700
O141	O14	0.646500	0.575500	0.491700
O151	O15	0.080700	0.369700	0.563140
Ni31	Ni3	0.740040	0.730110	0.462260
Co41	Co4	0.740040	0.269890	0.962260
O161	O16	0.831400	0.103000	0.947900
O171	O17	0.820400	0.231720	0.042030
O181	O18	0.559200	0.176900	0.991850
N41	N4	0.651000	0.272700	0.884200
C281	C28	0.832900	0.038500	0.990130
C291	C29	0.809800	0.100300	0.046610
H221	H22	0.882600	0.070900	0.072500
C301	C30	0.662000	0.070300	0.069590
H231	H23	0.659100	0.094600	0.108200
H241	H24	0.648600	0.982200	0.068200
C311	C31	0.537700	0.131400	0.039470
C321	C32	0.597700	0.169100	0.862570
H251	H25	0.601900	0.097500	0.883400
C331	C33	0.536600	0.164500	0.810430
H261	H26	0.499000	0.091500	0.797000
C341	C34	0.532000	0.270300	0.778380
C351	C35	0.587000	0.376900	0.801370
H271	H27	0.585600	0.449700	0.781400
C361	C36	0.644000	0.374100	0.854460
H281	H28	0.678700	0.446500	0.869700
O191	O19	0.853500	0.924500	0.991700
O201	O20	0.419300	0.130300	0.063140
Ni41	Ni4	0.759960	0.769890	0.962260
O211	O21	0.668600	0.603000	0.947900
O221	O22	0.679600	0.731720	0.042030
O231	O23	0.940800	0.676900	0.991850
N51	N5	0.849000	0.772700	0.884200
C371	C37	0.667100	0.538500	0.990130
C381	C38	0.690200	0.600300	0.046610
H291	H29	0.617400	0.570900	0.072500
C391	C39	0.838000	0.570300	0.069590
H301	H30	0.840900	0.594600	0.108200
H311	H31	0.851400	0.482200	0.068200
C401	C40	0.962300	0.631400	0.039470
C411	C41	0.902300	0.669100	0.862570
H321	H32	0.898100	0.597500	0.883400
C421	C42	0.963400	0.664500	0.810430
H331	H33	0.001000	0.591500	0.797000
C431	C43	0.968000	0.770300	0.778380
C441	C44	0.913000	0.876900	0.801370
H341	H34	0.914400	0.949700	0.781400
C451	C45	0.856000	0.874100	0.854460
H351	H35	0.821300	0.946500	0.869700
O241	O24	0.646500	0.424500	0.991700
O251	O25	0.080700	0.630300	0.063140
O261	O26	0.831400	0.897000	0.447900
O271	O27	0.820400	0.768280	0.542030
O281	O28	0.559200	0.823100	0.491850
N61	N6	0.651000	0.727300	0.384200
C461	C46	0.832900	0.961500	0.490130
C471	C47	0.809800	0.899700	0.546610
H361	H36	0.882600	0.929100	0.572500
C481	C48	0.662000	0.929700	0.569590
H371	H37	0.659100	0.905400	0.608200
H381	H38	0.648600	0.017800	0.568200
C491	C49	0.537700	0.868600	0.539470
C501	C50	0.597700	0.830900	0.362570
H391	H39	0.601900	0.902500	0.383400
C511	C51	0.536600	0.835500	0.310430
H401	H40	0.499000	0.908500	0.297000
C521	C52	0.532000	0.729700	0.278380
C531	C53	0.587000	0.623100	0.301370
H411	H41	0.585600	0.550300	0.281400
C541	C54	0.644000	0.625900	0.354460
H421	H42	0.678700	0.553500	0.369700
O291	O29	0.853500	0.075500	0.491700
O301	O30	0.419300	0.869700	0.563140
O311	O31	0.331400	0.603000	0.552100
O321	O32	0.320400	0.731720	0.457970
O331	O33	0.059200	0.676900	0.508150
N71	N7	0.151000	0.772700	0.615800
C551	C55	0.332900	0.538500	0.509870
C561	C56	0.309800	0.600300	0.453390
H431	H43	0.382600	0.570900	0.427500
C571	C57	0.162000	0.570300	0.430410
H441	H44	0.159100	0.594600	0.391800
H451	H45	0.148600	0.482200	0.431800
C581	C58	0.037700	0.631400	0.460530
C591	C59	0.097700	0.669100	0.637430
H461	H46	0.101900	0.597500	0.616600
C601	C60	0.036600	0.664500	0.689570
H471	H47	0.999000	0.591500	0.703000
C611	C61	0.032000	0.770300	0.721620
C621	C62	0.087000	0.876900	0.698630
H481	H48	0.085600	0.949700	0.718600
C631	C63	0.144000	0.874100	0.645540
H491	H49	0.178700	0.946500	0.630300
O341	O34	0.353500	0.424500	0.508300
O351	O35	0.919300	0.630300	0.436860
O361	O36	0.168600	0.897000	0.052100
O371	O37	0.179600	0.768280	0.957970
O381	O38	0.440800	0.823100	0.008150
N81	N8	0.349000	0.727300	0.115800
C641	C64	0.167100	0.961500	0.009870
C651	C65	0.190200	0.899700	0.953390
H501	H50	0.117400	0.929100	0.927500
C661	C66	0.338000	0.929700	0.930410
H511	H51	0.340900	0.905400	0.891800
H521	H52	0.351400	0.017800	0.931800
C671	C67	0.462300	0.868600	0.960530
C681	C68	0.402300	0.830900	0.137430
H531	H53	0.398100	0.902500	0.116600
C691	C69	0.463400	0.835500	0.189570
H541	H54	0.501000	0.908500	0.203000
C701	C70	0.468000	0.729700	0.221620
C711	C71	0.413000	0.623100	0.198630
H551	H55	0.414400	0.550300	0.218600
C721	C72	0.356000	0.625900	0.145540
H561	H56	0.321300	0.553500	0.130300
O391	O39	0.146500	0.075500	0.008300
O401	O40	0.580700	0.869700	0.936860
