data_JEJWOL_clean_PM
_symmetry_space_group_name_H-M	'P1'
_cell_length_a	15.156000
_cell_length_b	15.657000
_cell_length_c	26.967000
_cell_angle_alpha	81.603000
_cell_angle_beta	78.042000
_cell_angle_gamma	73.529000
_symmetry_Int_Tables_number 1

loop_
_symmetry_equiv_pos_as_xyz
'x,y,z'

loop_
_atom_site_label
_atom_site_type_symbol
_atom_site_fract_x
_atom_site_fract_y
_atom_site_fract_z
Nd11	Nd1	0.866090	0.227970	0.792430
Nd21	Nd2	0.954990	0.855880	0.325520
Nd31	Nd3	0.133910	0.772030	0.207570
Nd41	Nd4	0.045010	0.144120	0.674480
H11	H1	0.834500	0.558400	0.768700
H21	H2	0.827000	0.693200	0.796400
H31	H3	0.907600	0.569000	0.928300
H41	H4	0.916400	0.434300	0.899200
H51	H5	0.947600	0.735600	0.157000
H61	H6	0.872200	0.709800	0.100200
H71	H7	0.630900	0.870000	0.165300
H81	H8	0.709700	0.899100	0.222500
H91	H9	0.770300	0.633200	0.370000
H101	H10	0.693000	0.534100	0.419700
H111	H11	0.787000	0.577500	0.541300
H121	H12	0.862900	0.675300	0.490300
H131	H13	0.472700	0.651700	0.172000
H141	H14	0.390200	0.888100	0.096100
H151	H15	0.835200	0.014000	0.825100
H161	H16	0.789600	0.901300	0.879600
H171	H17	0.544000	0.630000	0.499900
H181	H18	0.603500	0.363800	0.512100
H191	H19	0.850500	0.398000	0.527300
H201	H20	0.906300	0.319400	0.598900
H211	H21	0.646200	0.360000	0.673900
H221	H22	0.591700	0.441900	0.603700
H231	H23	0.836600	0.837000	0.028100
H241	H24	0.900200	0.811400	0.946700
H251	H25	0.715900	0.681000	0.938700
H261	H26	0.650300	0.702600	0.020000
H271	H27	0.627500	0.654700	0.143400
H281	H28	0.541800	0.891600	0.065700
H291	H29	0.993100	0.718200	0.805100
H301	H30	0.038100	0.831500	0.747100
H311	H31	0.165500	0.441600	0.231300
H321	H32	0.173000	0.306800	0.203600
H331	H33	0.092400	0.431000	0.071700
H341	H34	0.083600	0.565700	0.100800
H351	H35	0.052400	0.264400	0.843000
H361	H36	0.127800	0.290200	0.899800
H371	H37	0.369100	0.130000	0.834700
H381	H38	0.290300	0.100900	0.777500
H391	H39	0.229700	0.366800	0.630000
H401	H40	0.307000	0.465900	0.580300
H411	H41	0.213000	0.422500	0.458700
H421	H42	0.137100	0.324700	0.509700
H431	H43	0.527300	0.348300	0.828000
H441	H44	0.609800	0.111900	0.903900
H451	H45	0.164800	0.986000	0.174900
H461	H46	0.210400	0.098700	0.120400
H471	H47	0.456000	0.370000	0.500100
H481	H48	0.396500	0.636200	0.487900
H491	H49	0.149500	0.602000	0.472700
H501	H50	0.093700	0.680600	0.401100
H511	H51	0.353800	0.640000	0.326100
H521	H52	0.408300	0.558100	0.396300
H531	H53	0.163400	0.163000	0.971900
H541	H54	0.099800	0.188600	0.053300
H551	H55	0.284100	0.319000	0.061300
H561	H56	0.349700	0.297400	0.980000
H571	H57	0.372500	0.345300	0.856600
H581	H58	0.458200	0.108400	0.934300
H591	H59	0.006900	0.281800	0.194900
H601	H60	0.961900	0.168500	0.252900
C11	C1	0.871700	0.393800	0.819500
C21	C2	0.873100	0.481100	0.834200
C31	C3	0.848000	0.560800	0.800500
C41	C4	0.844700	0.640800	0.817300
C51	C5	0.866400	0.646500	0.863600
C61	C6	0.893300	0.567100	0.896700
C71	C7	0.896700	0.487000	0.879000
C81	C8	0.882900	0.837200	0.236200
C91	C9	0.835600	0.818600	0.196800
C101	C10	0.884200	0.762900	0.158500
C111	C11	0.839700	0.749200	0.124500
C121	C12	0.743000	0.792800	0.123700
C131	C13	0.695000	0.845000	0.162700
C141	C14	0.741600	0.860300	0.197800
C151	C15	0.876600	0.723700	0.390500
C161	C16	0.826400	0.661000	0.423600
C171	C17	0.774400	0.620900	0.404400
C181	C18	0.726800	0.562000	0.434200
C191	C19	0.730500	0.545200	0.486700
C201	C20	0.783400	0.588300	0.506800
C211	C21	0.829600	0.646100	0.476300
C221	C22	0.316900	0.768900	0.155700
C231	C23	0.486800	0.700500	0.150900
C241	C24	0.416500	0.770000	0.136400
C251	C25	0.438300	0.840600	0.105600
C261	C26	0.972100	0.008000	0.740800
C271	C27	0.940500	0.935100	0.781700
C281	C28	0.867100	0.954700	0.820500
C291	C29	0.839800	0.887100	0.853100
C301	C30	0.590900	0.494200	0.508800
C311	C31	0.527000	0.577300	0.500300
C321	C32	0.561800	0.419500	0.507500
C331	C33	0.714200	0.436500	0.558900
C341	C34	0.808800	0.393400	0.557500
C351	C35	0.842500	0.343800	0.600100
C361	C36	0.688500	0.368600	0.644500
C371	C37	0.655800	0.419100	0.602300
C381	C38	0.819000	0.282300	0.688200
C391	C39	0.781000	0.331300	0.643800
C401	C40	0.738500	0.767000	0.034600
C411	C41	0.813100	0.803700	0.010700
C421	C42	0.849300	0.789100	0.962000
C431	C43	0.817200	0.744300	0.933200
C441	C44	0.740600	0.711700	0.957000
C451	C45	0.702200	0.723700	0.005500
C461	C46	0.579500	0.702600	0.134200
C471	C47	0.600400	0.777400	0.103300
C481	C48	0.529100	0.843800	0.088100
C491	C49	0.884200	0.801400	0.847200
C501	C50	0.961100	0.777800	0.808200
C511	C51	0.988900	0.845300	0.774100
C521	C52	0.128300	0.606200	0.180500
C531	C53	0.126900	0.518900	0.165800
C541	C54	0.152000	0.439200	0.199500
C551	C55	0.155300	0.359200	0.182700
C561	C56	0.133600	0.353500	0.136400
C571	C57	0.106700	0.432900	0.103300
C581	C58	0.103300	0.513000	0.121000
C591	C59	0.117100	0.162800	0.763800
C601	C60	0.164400	0.181400	0.803200
C611	C61	0.115800	0.237100	0.841500
C621	C62	0.160300	0.250800	0.875500
C631	C63	0.257000	0.207200	0.876300
C641	C64	0.305000	0.155000	0.837300
C651	C65	0.258400	0.139700	0.802200
C661	C66	0.123400	0.276300	0.609500
C671	C67	0.173600	0.339000	0.576400
C681	C68	0.225600	0.379100	0.595600
C691	C69	0.273200	0.438000	0.565800
C701	C70	0.269500	0.454800	0.513300
C711	C71	0.216600	0.411700	0.493200
C721	C72	0.170400	0.353900	0.523700
C731	C73	0.683100	0.231100	0.844300
C741	C74	0.513200	0.299500	0.849100
C751	C75	0.583500	0.230000	0.863600
C761	C76	0.561700	0.159400	0.894400
C771	C77	0.027900	0.992000	0.259200
C781	C78	0.059500	0.064900	0.218300
C791	C79	0.132900	0.045300	0.179500
C801	C80	0.160200	0.112900	0.146900
C811	C81	0.409100	0.505800	0.491200
C821	C82	0.473000	0.422700	0.499700
C831	C83	0.438200	0.580500	0.492500
C841	C84	0.285800	0.563500	0.441100
C851	C85	0.191200	0.606600	0.442500
C861	C86	0.157500	0.656200	0.399900
C871	C87	0.311500	0.631400	0.355500
C881	C88	0.344200	0.580900	0.397700
C891	C89	0.181000	0.717700	0.311800
C901	C90	0.219000	0.668700	0.356200
C911	C91	0.261500	0.233000	0.965400
C921	C92	0.186900	0.196300	0.989300
C931	C93	0.150700	0.210900	0.038000
C941	C94	0.182800	0.255700	0.066800
C951	C95	0.259400	0.288300	0.043000
C961	C96	0.297800	0.276300	0.994500
C971	C97	0.420500	0.297400	0.865800
C981	C98	0.399600	0.222600	0.896700
C991	C99	0.470900	0.156200	0.911900
C1001	C100	0.115800	0.198600	0.152800
C1011	C101	0.038900	0.222200	0.191800
C1021	C102	0.011100	0.154700	0.225900
N11	N1	0.861000	0.729700	0.881800
N21	N2	0.697000	0.779000	0.087200
N31	N3	0.677900	0.488400	0.517300
N41	N4	0.139000	0.270300	0.118200
N51	N5	0.303000	0.221000	0.912800
N61	N6	0.322100	0.511600	0.482700
O11	O1	0.854500	0.391100	0.773600
O21	O2	0.889600	0.324100	0.850500
O31	O3	0.841500	0.895900	0.265600
O41	O4	0.964400	0.790400	0.239500
O51	O5	0.926400	0.760300	0.408300
O61	O6	0.867000	0.741000	0.345400
O71	O7	0.927800	0.090400	0.751110
O81	O8	0.042500	0.987800	0.707600
O91	O9	0.256300	0.843400	0.162500
O101	O10	0.296000	0.696200	0.164400
O111	O11	0.902800	0.261600	0.691300
O121	O12	0.761300	0.264600	0.728200
O131	O13	0.145500	0.608900	0.226400
O141	O14	0.110400	0.675900	0.149500
O151	O15	0.158500	0.104100	0.734400
O161	O16	0.035600	0.209600	0.760500
O171	O17	0.073600	0.239700	0.591700
O181	O18	0.133000	0.259000	0.654600
O191	O19	0.072200	0.909600	0.248890
O201	O20	0.957500	0.012200	0.292400
O211	O21	0.743700	0.156600	0.837500
O221	O22	0.704000	0.303800	0.835600
O231	O23	0.097200	0.738400	0.308700
O241	O24	0.238700	0.735400	0.271800
