data_JELPAS_clean_PM
_symmetry_space_group_name_H-M	'P1'
_cell_length_a	13.989900
_cell_length_b	13.989900
_cell_length_c	14.936000
_cell_angle_alpha	90.000000
_cell_angle_beta	90.000000
_cell_angle_gamma	120.000000
_symmetry_Int_Tables_number 1

loop_
_symmetry_equiv_pos_as_xyz
'x,y,z'

loop_
_atom_site_label
_atom_site_type_symbol
_atom_site_fract_x
_atom_site_fract_y
_atom_site_fract_z
As11	As1	0.325320	0.863130	0.480330
Fe11	Fe1	0.536740	0.870240	0.595950
O11	O1	0.409500	0.821000	0.519550
O21	O2	0.376700	0.999400	0.483020
O31	O3	0.202800	0.807200	0.532430
O41	O4	0.298700	0.823200	0.370210
H11	H1	0.312400	0.773600	0.360900
O51	O5	0.465700	0.746500	0.679090
O61	O6	0.486800	0.957400	0.683770
O71	O7	0.671300	0.945500	0.688990
As21	As2	0.136870	0.462190	0.480330
Fe21	Fe2	0.129760	0.666500	0.595950
O81	O8	0.179000	0.588500	0.519550
O91	O9	0.000600	0.377300	0.483020
O101	O10	0.192800	0.395600	0.532430
O111	O11	0.176800	0.475500	0.370210
H21	H2	0.226400	0.538800	0.360900
O121	O12	0.253500	0.719200	0.679090
O131	O13	0.042600	0.529400	0.683770
O141	O14	0.054500	0.725800	0.688990
As31	As3	0.537810	0.674680	0.480330
Fe31	Fe3	0.333500	0.463260	0.595950
O151	O15	0.411500	0.590500	0.519550
O161	O16	0.622700	0.623300	0.483020
O171	O17	0.604400	0.797200	0.532430
O181	O18	0.524500	0.701300	0.370210
H31	H3	0.461200	0.687600	0.360900
O191	O19	0.280800	0.534300	0.679090
O201	O20	0.470600	0.513200	0.683770
O211	O21	0.274200	0.328700	0.688990
As41	As4	0.863130	0.325320	0.019670
Fe41	Fe4	0.870240	0.536740	0.904050
O221	O22	0.821000	0.409500	0.980450
O231	O23	0.999400	0.376700	0.016980
O241	O24	0.807200	0.202800	0.967570
O251	O25	0.823200	0.298700	0.129790
H41	H4	0.773600	0.312400	0.139100
O261	O26	0.746500	0.465700	0.820910
O271	O27	0.957400	0.486800	0.816230
O281	O28	0.945500	0.671300	0.811010
As51	As5	0.462190	0.136870	0.019670
Fe51	Fe5	0.666500	0.129760	0.904050
O291	O29	0.588500	0.179000	0.980450
O301	O30	0.377300	0.000600	0.016980
O311	O31	0.395600	0.192800	0.967570
O321	O32	0.475500	0.176800	0.129790
H51	H5	0.538800	0.226400	0.139100
O331	O33	0.719200	0.253500	0.820910
O341	O34	0.529400	0.042600	0.816230
O351	O35	0.725800	0.054500	0.811010
As61	As6	0.674680	0.537810	0.019670
Fe61	Fe6	0.463260	0.333500	0.904050
O361	O36	0.590500	0.411500	0.980450
O371	O37	0.623300	0.622700	0.016980
O381	O38	0.797200	0.604400	0.967570
O391	O39	0.701300	0.524500	0.129790
H61	H6	0.687600	0.461200	0.139100
O401	O40	0.534300	0.280800	0.820910
O411	O41	0.513200	0.470600	0.816230
O421	O42	0.328700	0.274200	0.811010
As71	As7	0.674680	0.136870	0.519670
Fe71	Fe7	0.463260	0.129760	0.404050
O431	O43	0.590500	0.179000	0.480450
O441	O44	0.623300	0.000600	0.516980
O451	O45	0.797200	0.192800	0.467570
O461	O46	0.701300	0.176800	0.629790
H71	H7	0.687600	0.226400	0.639100
O471	O47	0.534300	0.253500	0.320910
O481	O48	0.513200	0.042600	0.316230
O491	O49	0.328700	0.054500	0.311010
As81	As8	0.863130	0.537810	0.519670
Fe81	Fe8	0.870240	0.333500	0.404050
O501	O50	0.821000	0.411500	0.480450
O511	O51	0.999400	0.622700	0.516980
O521	O52	0.807200	0.604400	0.467570
O531	O53	0.823200	0.524500	0.629790
H81	H8	0.773600	0.461200	0.639100
O541	O54	0.746500	0.280800	0.320910
O551	O55	0.957400	0.470600	0.316230
O561	O56	0.945500	0.274200	0.311010
As91	As9	0.462190	0.325320	0.519670
Fe91	Fe9	0.666500	0.536740	0.404050
O571	O57	0.588500	0.409500	0.480450
O581	O58	0.377300	0.376700	0.516980
O591	O59	0.395600	0.202800	0.467570
O601	O60	0.475500	0.298700	0.629790
H91	H9	0.538800	0.312400	0.639100
O611	O61	0.719200	0.465700	0.320910
O621	O62	0.529400	0.486800	0.316230
O631	O63	0.725800	0.671300	0.311010
As101	As10	0.136870	0.674680	0.980330
Fe101	Fe10	0.129760	0.463260	0.095950
O641	O64	0.179000	0.590500	0.019550
O651	O65	0.000600	0.623300	0.983020
O661	O66	0.192800	0.797200	0.032430
O671	O67	0.176800	0.701300	0.870210
H101	H10	0.226400	0.687600	0.860900
O681	O68	0.253500	0.534300	0.179090
O691	O69	0.042600	0.513200	0.183770
O701	O70	0.054500	0.328700	0.188990
As111	As11	0.537810	0.863130	0.980330
Fe111	Fe11	0.333500	0.870240	0.095950
O711	O71	0.411500	0.821000	0.019550
O721	O72	0.622700	0.999400	0.983020
O731	O73	0.604400	0.807200	0.032430
O741	O74	0.524500	0.823200	0.870210
H111	H11	0.461200	0.773600	0.860900
O751	O75	0.280800	0.746500	0.179090
O761	O76	0.470600	0.957400	0.183770
O771	O77	0.274200	0.945500	0.188990
As121	As12	0.325320	0.462190	0.980330
Fe121	Fe12	0.536740	0.666500	0.095950
O781	O78	0.409500	0.588500	0.019550
O791	O79	0.376700	0.377300	0.983020
O801	O80	0.202800	0.395600	0.032430
O811	O81	0.298700	0.475500	0.870210
H121	H12	0.312400	0.538800	0.860900
O821	O82	0.465700	0.719200	0.179090
O831	O83	0.486800	0.529400	0.183770
O841	O84	0.671300	0.725800	0.188990
As131	As13	0.333330	0.666670	0.708260
As141	As14	0.666670	0.333330	0.791740
As151	As15	0.666670	0.333330	0.291740
As161	As16	0.333330	0.666670	0.208260
C11	C1	0.549400	0.000000	0.750000
C21	C2	0.659200	0.000000	0.750000
C31	C3	0.000000	0.549400	0.750000
C41	C4	0.000000	0.659200	0.750000
C51	C5	0.450600	0.450600	0.750000
C61	C6	0.340800	0.340800	0.750000
C71	C7	0.450600	0.000000	0.250000
C81	C8	0.340800	0.000000	0.250000
C91	C9	0.000000	0.450600	0.250000
C101	C10	0.000000	0.340800	0.250000
C111	C11	0.549400	0.549400	0.250000
C121	C12	0.659200	0.659200	0.250000
