data_JESDIV_clean_PM
_symmetry_space_group_name_H-M	'P1'
_cell_length_a	7.107200
_cell_length_b	9.409400
_cell_length_c	11.784700
_cell_angle_alpha	71.602000
_cell_angle_beta	78.165000
_cell_angle_gamma	70.296000
_symmetry_Int_Tables_number 1

loop_
_symmetry_equiv_pos_as_xyz
'x,y,z'

loop_
_atom_site_label
_atom_site_type_symbol
_atom_site_fract_x
_atom_site_fract_y
_atom_site_fract_z
Ga11	Ga1	0.465210	0.375650	0.839570
P11	P1	0.645710	0.098330	0.697750
P21	P2	0.309900	0.734270	0.671250
P31	P3	0.712920	0.547140	0.905630
F11	F1	0.205800	0.088700	0.509980
F21	F2	0.525400	0.188200	0.964340
F31	F3	0.220800	0.338100	0.836800
O11	O1	0.709200	0.421000	0.851500
O21	O2	0.400900	0.557300	0.700700
O31	O3	0.682500	0.502400	0.041600
O41	O4	0.610800	0.256100	0.722000
O51	O5	0.866600	0.034300	0.654000
O61	O6	0.469400	0.819900	0.631000
O71	O7	0.499900	0.107000	0.616400
O81	O8	0.157300	0.788800	0.580300
O91	O9	0.914300	0.590100	0.857100
H11	H1	0.586000	0.689000	0.861000
H21	H2	0.219000	0.773000	0.768000
H31	H3	0.609000	0.994000	0.807000
H41	H4	0.028000	0.522000	0.856000
Ga21	Ga2	0.534790	0.624350	0.160430
P41	P4	0.354290	0.901670	0.302250
P51	P5	0.690100	0.265730	0.328750
P61	P6	0.287080	0.452860	0.094370
F41	F4	0.794200	0.911300	0.490020
F51	F5	0.474600	0.811800	0.035660
F61	F6	0.779200	0.661900	0.163200
O101	O10	0.290800	0.579000	0.148500
O111	O11	0.599100	0.442700	0.299300
O121	O12	0.317500	0.497600	0.958400
O131	O13	0.389200	0.743900	0.278000
O141	O14	0.133400	0.965700	0.346000
O151	O15	0.530600	0.180100	0.369000
O161	O16	0.500100	0.893000	0.383600
O171	O17	0.842700	0.211200	0.419700
O181	O18	0.085700	0.409900	0.142900
H51	H5	0.414000	0.311000	0.139000
H61	H6	0.781000	0.227000	0.232000
H71	H7	0.391000	0.006000	0.193000
H81	H8	0.972000	0.478000	0.144000
Ga31	Ga3	0.000000	0.000000	0.500000
Ga41	Ga4	0.500000	0.000000	0.500000
