data_JEXSOV_clean_PM
_symmetry_space_group_name_H-M	'P1'
_cell_length_a	6.267200
_cell_length_b	8.620400
_cell_length_c	12.936000
_cell_angle_alpha	105.314000
_cell_angle_beta	90.439000
_cell_angle_gamma	105.081000
_symmetry_Int_Tables_number 1

loop_
_symmetry_equiv_pos_as_xyz
'x,y,z'

loop_
_atom_site_label
_atom_site_type_symbol
_atom_site_fract_x
_atom_site_fract_y
_atom_site_fract_z
Nd11	Nd1	0.809130	0.666460	0.074900
Nd21	Nd2	0.557560	0.027800	0.257620
Nd31	Nd3	0.190870	0.333540	0.925100
Nd41	Nd4	0.442440	0.972200	0.742380
H11	H1	0.980300	0.969500	0.295300
H21	H2	0.019700	0.030500	0.704700
C11	C1	0.944700	0.051900	0.045600
C21	C2	0.542600	0.302100	0.128400
C31	C3	0.731200	0.394700	0.218300
C41	C4	0.405400	0.918400	0.478700
C51	C5	0.055300	0.948100	0.954400
C61	C6	0.457400	0.697900	0.871600
C71	C7	0.268800	0.605300	0.781700
C81	C8	0.594600	0.081600	0.521300
N11	N1	0.284300	0.707500	0.131400
N21	N2	0.715700	0.292500	0.868600
O11	O1	0.827400	0.971200	0.103500
O21	O2	0.979100	0.203900	0.055400
O31	O3	0.441700	0.156300	0.125500
O41	O4	0.504600	0.384100	0.065800
O51	O5	0.765300	0.314200	0.282100
O61	O6	0.835900	0.540200	0.222100
O71	O7	0.358400	0.869700	0.379500
O81	O8	0.316300	0.849300	0.547800
O91	O9	0.200600	0.831800	0.162300
O101	O10	0.160400	0.566900	0.075300
O111	O11	0.490000	0.732200	0.160500
O121	O12	0.858700	0.897900	0.294800
O131	O13	0.172600	0.028800	0.896500
O141	O14	0.020900	0.796100	0.944600
O151	O15	0.558300	0.843700	0.874500
O161	O16	0.495400	0.615900	0.934200
O171	O17	0.234700	0.685800	0.717900
O181	O18	0.164100	0.459800	0.777900
O191	O19	0.641600	0.130300	0.620500
O201	O20	0.683700	0.150700	0.452200
O211	O21	0.799400	0.168200	0.837700
O221	O22	0.839600	0.433100	0.924700
O231	O23	0.510000	0.267800	0.839500
O241	O24	0.141300	0.102100	0.705200
