data_JEXWUF01_clean_PM
_symmetry_space_group_name_H-M	'P1'
_cell_length_a	7.305800
_cell_length_b	7.305800
_cell_length_c	8.189700
_cell_angle_alpha	90.000000
_cell_angle_beta	90.000000
_cell_angle_gamma	120.000000
_symmetry_Int_Tables_number 1

loop_
_symmetry_equiv_pos_as_xyz
'x,y,z'

loop_
_atom_site_label
_atom_site_type_symbol
_atom_site_fract_x
_atom_site_fract_y
_atom_site_fract_z
O11	O1	0.890450	0.307380	0.894440
O21	O2	0.692620	0.583070	0.894440
O31	O3	0.416930	0.109550	0.894440
O41	O4	0.109550	0.692620	0.394440
O51	O5	0.307380	0.416930	0.394440
O61	O6	0.583070	0.890450	0.394440
O71	O7	0.307380	0.890450	0.105560
O81	O8	0.583070	0.692620	0.105560
O91	O9	0.109550	0.416930	0.105560
O101	O10	0.692620	0.109550	0.605560
O111	O11	0.416930	0.307380	0.605560
O121	O12	0.890450	0.583070	0.605560
Co11	Co1	0.666670	0.333330	0.750000
Co21	Co2	0.333330	0.666670	0.250000
C11	C1	0.000000	0.439000	0.000000
H11	H1	0.000000	0.592000	0.000000
C21	C2	0.561000	0.561000	0.000000
H21	H2	0.408000	0.408000	0.000000
C31	C3	0.439000	0.000000	0.000000
H31	H3	0.592000	0.000000	0.000000
C41	C4	0.000000	0.561000	0.500000
H41	H4	0.000000	0.408000	0.500000
C51	C5	0.439000	0.439000	0.500000
H51	H5	0.592000	0.592000	0.500000
C61	C6	0.561000	0.000000	0.500000
H61	H6	0.408000	0.000000	0.500000
