data_JEXXAM_clean_PM
_symmetry_space_group_name_H-M	'P1'
_cell_length_a	7.286100
_cell_length_b	7.286100
_cell_length_c	8.020700
_cell_angle_alpha	90.000000
_cell_angle_beta	90.000000
_cell_angle_gamma	120.000000
_symmetry_Int_Tables_number 1

loop_
_symmetry_equiv_pos_as_xyz
'x,y,z'

loop_
_atom_site_label
_atom_site_type_symbol
_atom_site_fract_x
_atom_site_fract_y
_atom_site_fract_z
O11	O1	0.888600	0.309600	0.894110
O21	O2	0.690400	0.579000	0.894110
O31	O3	0.421000	0.111400	0.894110
O41	O4	0.111400	0.690400	0.394110
O51	O5	0.309600	0.421000	0.394110
O61	O6	0.579000	0.888600	0.394110
O71	O7	0.309600	0.888600	0.105890
O81	O8	0.579000	0.690400	0.105890
O91	O9	0.111400	0.421000	0.105890
O101	O10	0.690400	0.111400	0.605890
O111	O11	0.421000	0.309600	0.605890
O121	O12	0.888600	0.579000	0.605890
Ni11	Ni1	0.666670	0.333330	0.750000
Ni21	Ni2	0.333330	0.666670	0.250000
C11	C1	0.000000	0.442600	0.000000
H11	H1	0.000000	0.577000	0.000000
C21	C2	0.557400	0.557400	0.000000
H21	H2	0.423000	0.423000	0.000000
C31	C3	0.442600	0.000000	0.000000
H31	H3	0.577000	0.000000	0.000000
C41	C4	0.000000	0.557400	0.500000
H41	H4	0.000000	0.423000	0.500000
C51	C5	0.442600	0.442600	0.500000
H51	H5	0.577000	0.577000	0.500000
C61	C6	0.557400	0.000000	0.500000
H61	H6	0.423000	0.000000	0.500000
