data_JIVFUQ_clean_PM
_symmetry_space_group_name_H-M	'P1'
_cell_length_a	9.157100
_cell_length_b	10.457100
_cell_length_c	10.457100
_cell_angle_alpha	95.899300
_cell_angle_beta	100.305000
_cell_angle_gamma	79.695100
_symmetry_Int_Tables_number 1

loop_
_symmetry_equiv_pos_as_xyz
'x,y,z'

loop_
_atom_site_label
_atom_site_type_symbol
_atom_site_fract_x
_atom_site_fract_y
_atom_site_fract_z
Zn11	Zn1	0.750000	0.024430	0.024430
Zn21	Zn2	0.250000	0.975570	0.975570
P11	P1	0.991530	0.206320	0.055260
P21	P2	0.508470	0.055260	0.206320
P31	P3	0.008470	0.793680	0.944740
P41	P4	0.491530	0.944740	0.793680
H11	H1	0.013200	0.234900	0.247500
H21	H2	0.726400	0.345900	0.962500
H31	H3	0.214400	0.363100	0.086300
H41	H4	0.486800	0.247500	0.234900
H51	H5	0.773600	0.962500	0.345900
H61	H6	0.285600	0.086300	0.363100
H71	H7	0.986800	0.765100	0.752500
H81	H8	0.273600	0.654100	0.037500
H91	H9	0.785600	0.636900	0.913700
H101	H10	0.513200	0.752500	0.765100
H111	H11	0.226400	0.037500	0.654100
H121	H12	0.714400	0.913700	0.636900
C11	C1	0.861000	0.456680	0.973320
C21	C2	0.990100	0.373090	0.025750
C31	C3	0.128200	0.418200	0.051600
C41	C4	0.639000	0.973320	0.456680
C51	C5	0.509900	0.025750	0.373090
C61	C6	0.371800	0.051600	0.418200
C71	C7	0.139000	0.543320	0.026680
C81	C8	0.009900	0.626910	0.974250
C91	C9	0.871800	0.581800	0.948400
C101	C10	0.361000	0.026680	0.543320
C111	C11	0.490100	0.974250	0.626910
C121	C12	0.628200	0.948400	0.581800
O11	O1	0.062100	0.184810	0.199310
O21	O2	0.827000	0.187680	0.026980
O31	O3	0.089300	0.120640	0.968920
O41	O4	0.721000	0.420880	0.943380
O51	O5	0.437900	0.199310	0.184810
O61	O6	0.673000	0.026980	0.187680
O71	O7	0.410700	0.968920	0.120640
O81	O8	0.779000	0.943380	0.420880
O91	O9	0.937900	0.815190	0.800690
O101	O10	0.173000	0.812320	0.973020
O111	O11	0.910700	0.879360	0.031080
O121	O12	0.279000	0.579120	0.056620
O131	O13	0.562100	0.800690	0.815190
O141	O14	0.327000	0.973020	0.812320
O151	O15	0.589300	0.031080	0.879360
O161	O16	0.221000	0.056620	0.579120
