data_JIVSEN_clean_PM
_symmetry_space_group_name_H-M	'P1'
_cell_length_a	36.936000
_cell_length_b	7.008100
_cell_length_c	6.212700
_cell_angle_alpha	90.000000
_cell_angle_beta	97.246000
_cell_angle_gamma	90.000000
_symmetry_Int_Tables_number 1

loop_
_symmetry_equiv_pos_as_xyz
'x,y,z'

loop_
_atom_site_label
_atom_site_type_symbol
_atom_site_fract_x
_atom_site_fract_y
_atom_site_fract_z
Sm11	Sm1	0.219900	0.689390	0.522630
O11	O1	0.153370	0.745300	0.489900
O21	O2	0.180380	0.668900	0.809700
O31	O3	0.272830	0.530300	0.348400
O41	O4	0.279100	0.838300	0.410100
O51	O5	0.266610	0.665800	0.837800
O61	O6	0.296100	0.391000	0.774900
N11	N1	0.046570	0.685000	0.904000
C11	C1	0.151740	0.700000	0.683400
C21	C2	0.114950	0.695000	0.766500
C31	C3	0.110810	0.641900	0.973300
H11	H1	0.131100	0.608800	0.070400
C41	C4	0.076500	0.638000	0.037700
H21	H2	0.074100	0.601300	0.179000
C51	C5	0.050800	0.756900	0.707000
H31	H3	0.030500	0.803400	0.619100
C61	C6	0.084900	0.763200	0.631000
H41	H4	0.087400	0.811700	0.494400
C71	C7	0.359900	0.594700	0.947400
H51	H5	0.361300	0.543800	0.810400
C81	C8	0.391510	0.657000	0.071200
H61	H6	0.413800	0.650400	0.017000
C91	C9	0.389470	0.728800	0.275000
H71	H7	0.410700	0.767900	0.360600
C101	C10	0.356360	0.743600	0.353900
H81	H8	0.355400	0.793900	0.491700
C111	C11	0.324640	0.685000	0.231500
C121	C12	0.326350	0.606200	0.022700
C131	C13	0.289830	0.676000	0.332600
C141	C14	0.293240	0.546900	0.870300
Sm21	Sm2	0.719900	0.189390	0.522630
O71	O7	0.653370	0.245300	0.489900
O81	O8	0.680380	0.168900	0.809700
O91	O9	0.772830	0.030300	0.348400
O101	O10	0.779100	0.338300	0.410100
O111	O11	0.766610	0.165800	0.837800
O121	O12	0.796100	0.891000	0.774900
N21	N2	0.546570	0.185000	0.904000
C151	C15	0.651740	0.200000	0.683400
C161	C16	0.614950	0.195000	0.766500
C171	C17	0.610810	0.141900	0.973300
H91	H9	0.631100	0.108800	0.070400
C181	C18	0.576500	0.138000	0.037700
H101	H10	0.574100	0.101300	0.179000
C191	C19	0.550800	0.256900	0.707000
H111	H11	0.530500	0.303400	0.619100
C201	C20	0.584900	0.263200	0.631000
H121	H12	0.587400	0.311700	0.494400
C211	C21	0.859900	0.094700	0.947400
H131	H13	0.861300	0.043800	0.810400
C221	C22	0.891510	0.157000	0.071200
H141	H14	0.913800	0.150400	0.017000
C231	C23	0.889470	0.228800	0.275000
H151	H15	0.910700	0.267900	0.360600
C241	C24	0.856360	0.243600	0.353900
H161	H16	0.855400	0.293900	0.491700
C251	C25	0.824640	0.185000	0.231500
C261	C26	0.826350	0.106200	0.022700
C271	C27	0.789830	0.176000	0.332600
C281	C28	0.793240	0.046900	0.870300
Sm31	Sm3	0.780100	0.689390	0.477370
O131	O13	0.846630	0.745300	0.510100
O141	O14	0.819620	0.668900	0.190300
O151	O15	0.727170	0.530300	0.651600
O161	O16	0.720900	0.838300	0.589900
O171	O17	0.733390	0.665800	0.162200
O181	O18	0.703900	0.391000	0.225100
N31	N3	0.953430	0.685000	0.096000
C291	C29	0.848260	0.700000	0.316600
C301	C30	0.885050	0.695000	0.233500
C311	C31	0.889190	0.641900	0.026700
H171	H17	0.868900	0.608800	0.929600
C321	C32	0.923500	0.638000	0.962300
H181	H18	0.925900	0.601300	0.821000
C331	C33	0.949200	0.756900	0.293000
H191	H19	0.969500	0.803400	0.380900
C341	C34	0.915100	0.763200	0.369000
H201	H20	0.912600	0.811700	0.505600
C351	C35	0.640100	0.594700	0.052600
H211	H21	0.638700	0.543800	0.189600
C361	C36	0.608490	0.657000	0.928800
H221	H22	0.586200	0.650400	0.983000
C371	C37	0.610530	0.728800	0.725000
H231	H23	0.589300	0.767900	0.639400
C381	C38	0.643640	0.743600	0.646100
H241	H24	0.644600	0.793900	0.508300
C391	C39	0.675360	0.685000	0.768500
C401	C40	0.673650	0.606200	0.977300
C411	C41	0.710170	0.676000	0.667400
C421	C42	0.706760	0.546900	0.129700
Sm41	Sm4	0.280100	0.189390	0.477370
O191	O19	0.346630	0.245300	0.510100
O201	O20	0.319620	0.168900	0.190300
O211	O21	0.227170	0.030300	0.651600
O221	O22	0.220900	0.338300	0.589900
O231	O23	0.233390	0.165800	0.162200
O241	O24	0.203900	0.891000	0.225100
N41	N4	0.453430	0.185000	0.096000
C431	C43	0.348260	0.200000	0.316600
C441	C44	0.385050	0.195000	0.233500
C451	C45	0.389190	0.141900	0.026700
H251	H25	0.368900	0.108800	0.929600
C461	C46	0.423500	0.138000	0.962300
H261	H26	0.425900	0.101300	0.821000
C471	C47	0.449200	0.256900	0.293000
H271	H27	0.469500	0.303400	0.380900
C481	C48	0.415100	0.263200	0.369000
H281	H28	0.412600	0.311700	0.505600
C491	C49	0.140100	0.094700	0.052600
H291	H29	0.138700	0.043800	0.189600
C501	C50	0.108490	0.157000	0.928800
H301	H30	0.086200	0.150400	0.983000
C511	C51	0.110530	0.228800	0.725000
H311	H31	0.089300	0.267900	0.639400
C521	C52	0.143640	0.243600	0.646100
H321	H32	0.144600	0.293900	0.508300
C531	C53	0.175360	0.185000	0.768500
C541	C54	0.173650	0.106200	0.977300
C551	C55	0.210170	0.176000	0.667400
C561	C56	0.206760	0.046900	0.129700
Cu11	Cu1	0.000000	0.691600	0.000000
Cu21	Cu2	0.500000	0.191600	0.000000
