data_JIXWUJ01_clean_PM
_symmetry_space_group_name_H-M	'P1'
_cell_length_a	10.130900
_cell_length_b	11.682900
_cell_length_c	14.895200
_cell_angle_alpha	91.625000
_cell_angle_beta	90.000000
_cell_angle_gamma	90.000000
_symmetry_Int_Tables_number 1

loop_
_symmetry_equiv_pos_as_xyz
'x,y,z'

loop_
_atom_site_label
_atom_site_type_symbol
_atom_site_fract_x
_atom_site_fract_y
_atom_site_fract_z
Mn11	Mn1	0.101330	0.760500	0.185480
Mn21	Mn2	0.583470	0.243230	0.869000
Mn31	Mn3	0.601330	0.739500	0.314520
Mn41	Mn4	0.083470	0.256770	0.631000
Mn51	Mn5	0.898670	0.239500	0.814520
Mn61	Mn6	0.416530	0.756770	0.131000
Mn71	Mn7	0.398670	0.260500	0.685480
Mn81	Mn8	0.916530	0.743230	0.369000
Mn91	Mn9	0.500000	0.000000	0.000000
Mn101	Mn10	0.000000	0.500000	0.500000
Mn111	Mn11	0.500000	0.500000	0.000000
Mn121	Mn12	0.000000	0.000000	0.500000
H11	H1	0.248200	0.861900	0.370600
H21	H2	0.885600	0.446700	0.957200
H31	H3	0.340200	0.308500	0.076100
H41	H4	0.203300	0.995000	0.010300
H51	H5	0.309400	0.024100	0.767100
H61	H6	0.481300	0.519000	0.733200
H71	H7	0.748200	0.638100	0.129400
H81	H8	0.385600	0.053300	0.542800
H91	H9	0.840200	0.191500	0.423900
H101	H10	0.703300	0.505000	0.489700
H111	H11	0.809400	0.475900	0.732900
H121	H12	0.981300	0.981000	0.766800
H131	H13	0.751800	0.138100	0.629400
H141	H14	0.114400	0.553300	0.042800
H151	H15	0.659800	0.691500	0.923900
H161	H16	0.796700	0.005000	0.989700
H171	H17	0.690600	0.975900	0.232900
H181	H18	0.518700	0.481000	0.266800
H191	H19	0.251800	0.361900	0.870600
H201	H20	0.614400	0.946700	0.457200
H211	H21	0.159800	0.808500	0.576100
H221	H22	0.296700	0.495000	0.510300
H231	H23	0.190600	0.524100	0.267100
H241	H24	0.018700	0.019000	0.233200
C11	C1	0.369300	0.052100	0.814130
C21	C2	0.319800	0.829800	0.329650
C31	C3	0.790400	0.426300	0.949360
C41	C4	0.219600	0.934500	0.054050
C51	C5	0.488600	0.480400	0.789160
C61	C6	0.399300	0.257800	0.032800
C71	C7	0.869300	0.447900	0.685870
C81	C8	0.819800	0.670200	0.170350
C91	C9	0.290400	0.073700	0.550640
C101	C10	0.719600	0.565500	0.445950
C111	C11	0.988600	0.019600	0.710840
C121	C12	0.899300	0.242200	0.467200
C131	C13	0.630700	0.947900	0.185870
C141	C14	0.680200	0.170200	0.670350
C151	C15	0.209600	0.573700	0.050640
C161	C16	0.780400	0.065500	0.945950
C171	C17	0.511400	0.519600	0.210840
C181	C18	0.600700	0.742200	0.967200
C191	C19	0.130700	0.552100	0.314130
C201	C20	0.180200	0.329800	0.829650
C211	C21	0.709600	0.926300	0.449360
C221	C22	0.280400	0.434500	0.554050
C231	C23	0.011400	0.980400	0.289160
C241	C24	0.100700	0.757800	0.532800
O11	O1	0.471780	0.313870	0.978930
O21	O2	0.294410	0.806850	0.247860
O31	O3	0.762070	0.346550	0.893200
O41	O4	0.338450	0.901400	0.060710
O51	O5	0.498990	0.372710	0.781230
O61	O6	0.500700	0.537660	0.858920
O71	O7	0.122760	0.893040	0.092010
O81	O8	0.389000	0.987800	0.876480
O91	O9	0.423140	0.148630	0.802940
O101	O10	0.426990	0.815160	0.367910
O111	O11	0.711520	0.481320	0.996660
O121	O12	0.394610	0.153700	0.037420
O131	O13	0.971780	0.186130	0.521070
O141	O14	0.794410	0.693150	0.252140
O151	O15	0.262070	0.153450	0.606800
O161	O16	0.838450	0.598600	0.439290
O171	O17	0.998990	0.127290	0.718770
O181	O18	0.000700	0.962340	0.641080
O191	O19	0.622760	0.606960	0.407990
O201	O20	0.889000	0.512200	0.623520
O211	O21	0.923140	0.351370	0.697060
O221	O22	0.926990	0.684840	0.132090
O231	O23	0.211520	0.018680	0.503340
O241	O24	0.894610	0.346300	0.462580
O251	O25	0.528220	0.686130	0.021070
O261	O26	0.705590	0.193150	0.752140
O271	O27	0.237930	0.653450	0.106800
O281	O28	0.661550	0.098600	0.939290
O291	O29	0.501010	0.627290	0.218770
O301	O30	0.499300	0.462340	0.141080
O311	O31	0.877240	0.106960	0.907990
O321	O32	0.611000	0.012200	0.123520
O331	O33	0.576860	0.851370	0.197060
O341	O34	0.573010	0.184840	0.632090
O351	O35	0.288480	0.518680	0.003340
O361	O36	0.605390	0.846300	0.962580
O371	O37	0.028220	0.813870	0.478930
O381	O38	0.205590	0.306850	0.747860
O391	O39	0.737930	0.846550	0.393200
O401	O40	0.161550	0.401400	0.560710
O411	O41	0.001010	0.872710	0.281230
O421	O42	0.999300	0.037660	0.358920
O431	O43	0.377240	0.393040	0.592010
O441	O44	0.111000	0.487800	0.376480
O451	O45	0.076860	0.648630	0.302940
O461	O46	0.073010	0.315160	0.867910
O471	O47	0.788480	0.981320	0.496660
O481	O48	0.105390	0.653700	0.537420
