data_JIXWUJ_clean_PM
_symmetry_space_group_name_H-M	'P1'
_cell_length_a	10.151000
_cell_length_b	11.695400
_cell_length_c	14.916200
_cell_angle_alpha	91.642000
_cell_angle_beta	90.000000
_cell_angle_gamma	90.000000
_symmetry_Int_Tables_number 1

loop_
_symmetry_equiv_pos_as_xyz
'x,y,z'

loop_
_atom_site_label
_atom_site_type_symbol
_atom_site_fract_x
_atom_site_fract_y
_atom_site_fract_z
Mn11	Mn1	0.102690	0.760390	0.185990
Mn21	Mn2	0.917400	0.743210	0.369010
Mn31	Mn3	0.602690	0.739610	0.314010
Mn41	Mn4	0.417400	0.756790	0.130990
Mn51	Mn5	0.897310	0.239610	0.814010
Mn61	Mn6	0.082600	0.256790	0.630990
Mn71	Mn7	0.397310	0.260390	0.685990
Mn81	Mn8	0.582600	0.243210	0.869010
Mn91	Mn9	0.000000	0.500000	0.500000
Mn101	Mn10	0.500000	0.000000	0.000000
Mn111	Mn11	0.000000	0.000000	0.500000
Mn121	Mn12	0.500000	0.500000	0.000000
H11	H1	0.247300	0.855200	0.371400
H21	H2	0.838900	0.191200	0.429300
H31	H3	0.013000	0.016900	0.233200
H41	H4	0.384600	0.051400	0.543800
H51	H5	0.196600	0.523000	0.264100
H61	H6	0.705900	0.498000	0.485000
H71	H7	0.747300	0.644800	0.128600
H81	H8	0.338900	0.308800	0.070700
H91	H9	0.513000	0.483100	0.266800
H101	H10	0.884600	0.448600	0.956200
H111	H11	0.696600	0.977000	0.235900
H121	H12	0.205900	0.002000	0.015000
H131	H13	0.752700	0.144800	0.628600
H141	H14	0.161100	0.808800	0.570700
H151	H15	0.987000	0.983100	0.766800
H161	H16	0.615400	0.948600	0.456200
H171	H17	0.803400	0.477000	0.735900
H181	H18	0.294100	0.502000	0.515000
H191	H19	0.252700	0.355200	0.871400
H201	H20	0.661100	0.691200	0.929300
H211	H21	0.487000	0.516900	0.733200
H221	H22	0.115400	0.551400	0.043800
H231	H23	0.303400	0.023000	0.764100
H241	H24	0.794100	0.998000	0.985000
C11	C1	0.321500	0.829400	0.329440
C21	C2	0.131300	0.552400	0.314730
C31	C3	0.013300	0.980080	0.289620
C41	C4	0.289500	0.073500	0.551500
C51	C5	0.720200	0.565700	0.445370
C61	C6	0.899900	0.242160	0.467280
C71	C7	0.821500	0.670600	0.170560
C81	C8	0.631300	0.947600	0.185270
C91	C9	0.513300	0.519920	0.210380
C101	C10	0.789500	0.426500	0.948500
C111	C11	0.220200	0.934300	0.054630
C121	C12	0.399900	0.257840	0.032720
C131	C13	0.678500	0.170600	0.670560
C141	C14	0.868700	0.447600	0.685270
C151	C15	0.986700	0.019920	0.710380
C161	C16	0.710500	0.926500	0.448500
C171	C17	0.279800	0.434300	0.554630
C181	C18	0.100100	0.757840	0.532720
C191	C19	0.178500	0.329400	0.829440
C201	C20	0.368700	0.052400	0.814730
C211	C21	0.486700	0.480080	0.789620
C221	C22	0.210500	0.573500	0.051500
C231	C23	0.779800	0.065700	0.945370
C241	C24	0.600100	0.742160	0.967280
O11	O1	0.295830	0.806600	0.248180
O21	O2	0.839090	0.598700	0.439060
O31	O3	0.971610	0.186240	0.521020
O41	O4	0.261080	0.153600	0.607170
O51	O5	0.078010	0.648740	0.303390
O61	O6	0.002840	0.872540	0.281660
O71	O7	0.000700	0.037140	0.359120
O81	O8	0.624070	0.607130	0.407340
O91	O9	0.428930	0.815040	0.367330
O101	O10	0.895370	0.346370	0.462620
O111	O11	0.111300	0.488220	0.376750
O121	O12	0.211210	0.018330	0.504200
O131	O13	0.795830	0.693400	0.251820
O141	O14	0.339090	0.901300	0.060940
O151	O15	0.471610	0.313760	0.978980
O161	O16	0.761080	0.346400	0.892830
O171	O17	0.578010	0.851260	0.196610
O181	O18	0.502840	0.627460	0.218340
O191	O19	0.500700	0.462860	0.140880
O201	O20	0.124070	0.892870	0.092660
O211	O21	0.928930	0.684960	0.132670
O221	O22	0.395370	0.153630	0.037380
O231	O23	0.611300	0.011780	0.123250
O241	O24	0.711210	0.481670	0.995800
O251	O25	0.704170	0.193400	0.751820
O261	O26	0.160910	0.401300	0.560940
O271	O27	0.028390	0.813760	0.478980
O281	O28	0.738920	0.846400	0.392830
O291	O29	0.921990	0.351260	0.696610
O301	O30	0.997160	0.127460	0.718340
O311	O31	0.999300	0.962860	0.640880
O321	O32	0.375930	0.392870	0.592660
O331	O33	0.571070	0.184960	0.632670
O341	O34	0.104630	0.653630	0.537380
O351	O35	0.888700	0.511780	0.623250
O361	O36	0.788790	0.981670	0.495800
O371	O37	0.204170	0.306600	0.748180
O381	O38	0.660910	0.098700	0.939060
O391	O39	0.528390	0.686240	0.021020
O401	O40	0.238920	0.653600	0.107170
O411	O41	0.421990	0.148740	0.803390
O421	O42	0.497160	0.372540	0.781660
O431	O43	0.499300	0.537140	0.859120
O441	O44	0.875930	0.107130	0.907340
O451	O45	0.071070	0.315040	0.867330
O461	O46	0.604630	0.846370	0.962620
O471	O47	0.388700	0.988220	0.876750
O481	O48	0.288790	0.518330	0.004200
