data_JIZJEJ_clean_PM
_symmetry_space_group_name_H-M	'P1'
_cell_length_a	17.519100
_cell_length_b	17.519100
_cell_length_c	15.163000
_cell_angle_alpha	90.000000
_cell_angle_beta	90.000000
_cell_angle_gamma	90.000000
_symmetry_Int_Tables_number 1

loop_
_symmetry_equiv_pos_as_xyz
'x,y,z'

loop_
_atom_site_label
_atom_site_type_symbol
_atom_site_fract_x
_atom_site_fract_y
_atom_site_fract_z
Co11	Co1	0.901120	0.141640	0.968510
C11	C1	0.052600	0.125100	0.903300
C21	C2	0.006800	0.146300	0.821700
H11	H1	0.019900	0.110200	0.773000
C31	C3	0.029200	0.227100	0.794300
H21	H2	0.001800	0.241100	0.740400
H31	H3	0.084300	0.229100	0.783400
H41	H4	0.015900	0.262900	0.841500
C41	C4	0.736900	0.142200	0.889100
C51	C5	0.653700	0.132500	0.911700
C61	C6	0.631600	0.124500	0.999300
H51	H5	0.668900	0.126600	0.044700
C71	C7	0.555100	0.113300	0.020600
H61	H6	0.540500	0.106300	0.080400
C81	C8	0.499700	0.112400	0.954300
C91	C9	0.522100	0.121200	0.867100
H71	H7	0.484800	0.120900	0.821600
C101	C10	0.598700	0.130600	0.845900
H81	H8	0.613500	0.135600	0.786000
C111	C11	0.417100	0.104300	0.976700
C121	C12	0.366800	0.066500	0.921100
H91	H9	0.385100	0.043300	0.868600
C131	C13	0.290100	0.062700	0.941800
H101	H10	0.256800	0.036800	0.902500
C141	C14	0.309100	0.129600	0.069500
H111	H11	0.289200	0.151900	0.121700
C151	C15	0.386300	0.135400	0.053800
H121	H12	0.418500	0.160400	0.095100
N11	N1	0.260570	0.093980	0.014920
O11	O1	0.123630	0.113710	0.896670
O21	O2	0.019690	0.122070	0.976950
O31	O3	0.927940	0.139720	0.841330
O41	O4	0.752350	0.146100	0.807920
O51	O5	0.784010	0.144920	0.950700
Co21	Co2	0.098880	0.858360	0.968510
C161	C16	0.947400	0.874900	0.903300
C171	C17	0.993200	0.853700	0.821700
H131	H13	0.980100	0.889800	0.773000
C181	C18	0.970800	0.772900	0.794300
H141	H14	0.998200	0.758900	0.740400
H151	H15	0.915700	0.770900	0.783400
H161	H16	0.984100	0.737100	0.841500
C191	C19	0.263100	0.857800	0.889100
C201	C20	0.346300	0.867500	0.911700
C211	C21	0.368400	0.875500	0.999300
H171	H17	0.331100	0.873400	0.044700
C221	C22	0.444900	0.886700	0.020600
H181	H18	0.459500	0.893700	0.080400
C231	C23	0.500300	0.887600	0.954300
C241	C24	0.477900	0.878800	0.867100
H191	H19	0.515200	0.879100	0.821600
C251	C25	0.401300	0.869400	0.845900
H201	H20	0.386500	0.864400	0.786000
C261	C26	0.582900	0.895700	0.976700
C271	C27	0.633200	0.933500	0.921100
H211	H21	0.614900	0.956700	0.868600
C281	C28	0.709900	0.937300	0.941800
H221	H22	0.743200	0.963200	0.902500
C291	C29	0.690900	0.870400	0.069500
H231	H23	0.710800	0.848100	0.121700
C301	C30	0.613700	0.864600	0.053800
H241	H24	0.581500	0.839600	0.095100
N21	N2	0.739430	0.906020	0.014920
O61	O6	0.876370	0.886290	0.896670
O71	O7	0.980310	0.877930	0.976950
O81	O8	0.072060	0.860280	0.841330
O91	O9	0.247650	0.853900	0.807920
O101	O10	0.215990	0.855080	0.950700
Co31	Co3	0.141640	0.098880	0.031490
C311	C31	0.125100	0.947400	0.096700
C321	C32	0.146300	0.993200	0.178300
H251	H25	0.110200	0.980100	0.227000
C331	C33	0.227100	0.970800	0.205700
H261	H26	0.241100	0.998200	0.259600
H271	H27	0.229100	0.915700	0.216600
H281	H28	0.262900	0.984100	0.158500
C341	C34	0.142200	0.263100	0.110900
C351	C35	0.132500	0.346300	0.088300
C361	C36	0.124500	0.368400	0.000700
H291	H29	0.126600	0.331100	0.955300
C371	C37	0.113300	0.444900	0.979400
H301	H30	0.106300	0.459500	0.919600
C381	C38	0.112400	0.500300	0.045700
C391	C39	0.121200	0.477900	0.132900
H311	H31	0.120900	0.515200	0.178400
C401	C40	0.130600	0.401300	0.154100
H321	H32	0.135600	0.386500	0.214000
C411	C41	0.104300	0.582900	0.023300
C421	C42	0.066500	0.633200	0.078900
H331	H33	0.043300	0.614900	0.131400
C431	C43	0.062700	0.709900	0.058200
H341	H34	0.036800	0.743200	0.097500
C441	C44	0.129600	0.690900	0.930500
H351	H35	0.151900	0.710800	0.878300
C451	C45	0.135400	0.613700	0.946200
H361	H36	0.160400	0.581500	0.904900
N31	N3	0.093980	0.739430	0.985080
O111	O11	0.113710	0.876370	0.103330
O121	O12	0.122070	0.980310	0.023050
O131	O13	0.139720	0.072060	0.158670
O141	O14	0.146100	0.247650	0.192080
O151	O15	0.144920	0.215990	0.049300
Co41	Co4	0.858360	0.901120	0.031490
C461	C46	0.874900	0.052600	0.096700
C471	C47	0.853700	0.006800	0.178300
H371	H37	0.889800	0.019900	0.227000
C481	C48	0.772900	0.029200	0.205700
H381	H38	0.758900	0.001800	0.259600
H391	H39	0.770900	0.084300	0.216600
H401	H40	0.737100	0.015900	0.158500
C491	C49	0.857800	0.736900	0.110900
C501	C50	0.867500	0.653700	0.088300
C511	C51	0.875500	0.631600	0.000700
H411	H41	0.873400	0.668900	0.955300
C521	C52	0.886700	0.555100	0.979400
H421	H42	0.893700	0.540500	0.919600
C531	C53	0.887600	0.499700	0.045700
C541	C54	0.878800	0.522100	0.132900
H431	H43	0.879100	0.484800	0.178400
C551	C55	0.869400	0.598700	0.154100
H441	H44	0.864400	0.613500	0.214000
C561	C56	0.895700	0.417100	0.023300
C571	C57	0.933500	0.366800	0.078900
H451	H45	0.956700	0.385100	0.131400
C581	C58	0.937300	0.290100	0.058200
H461	H46	0.963200	0.256800	0.097500
C591	C59	0.870400	0.309100	0.930500
H471	H47	0.848100	0.289200	0.878300
C601	C60	0.864600	0.386300	0.946200
H481	H48	0.839600	0.418500	0.904900
N41	N4	0.906020	0.260570	0.985080
O161	O16	0.886290	0.123630	0.103330
O171	O17	0.877930	0.019690	0.023050
O181	O18	0.860280	0.927940	0.158670
O191	O19	0.853900	0.752350	0.192080
O201	O20	0.855080	0.784010	0.049300
Co51	Co5	0.901120	0.858360	0.468510
C611	C61	0.052600	0.874900	0.403300
C621	C62	0.006800	0.853700	0.321700
H491	H49	0.019900	0.889800	0.273000
C631	C63	0.029200	0.772900	0.294300
H501	H50	0.001800	0.758900	0.240400
H511	H51	0.084300	0.770900	0.283400
H521	H52	0.015900	0.737100	0.341500
C641	C64	0.736900	0.857800	0.389100
C651	C65	0.653700	0.867500	0.411700
C661	C66	0.631600	0.875500	0.499300
H531	H53	0.668900	0.873400	0.544700
C671	C67	0.555100	0.886700	0.520600
H541	H54	0.540500	0.893700	0.580400
C681	C68	0.499700	0.887600	0.454300
C691	C69	0.522100	0.878800	0.367100
H551	H55	0.484800	0.879100	0.321600
C701	C70	0.598700	0.869400	0.345900
H561	H56	0.613500	0.864400	0.286000
C711	C71	0.417100	0.895700	0.476700
C721	C72	0.366800	0.933500	0.421100
H571	H57	0.385100	0.956700	0.368600
C731	C73	0.290100	0.937300	0.441800
H581	H58	0.256800	0.963200	0.402500
C741	C74	0.309100	0.870400	0.569500
H591	H59	0.289200	0.848100	0.621700
C751	C75	0.386300	0.864600	0.553800
H601	H60	0.418500	0.839600	0.595100
N51	N5	0.260570	0.906020	0.514920
O211	O21	0.123630	0.886290	0.396670
O221	O22	0.019690	0.877930	0.476950
O231	O23	0.927940	0.860280	0.341330
O241	O24	0.752350	0.853900	0.307920
O251	O25	0.784010	0.855080	0.450700
Co61	Co6	0.098880	0.141640	0.468510
C761	C76	0.947400	0.125100	0.403300
C771	C77	0.993200	0.146300	0.321700
H611	H61	0.980100	0.110200	0.273000
C781	C78	0.970800	0.227100	0.294300
H621	H62	0.998200	0.241100	0.240400
H631	H63	0.915700	0.229100	0.283400
H641	H64	0.984100	0.262900	0.341500
C791	C79	0.263100	0.142200	0.389100
C801	C80	0.346300	0.132500	0.411700
C811	C81	0.368400	0.124500	0.499300
H651	H65	0.331100	0.126600	0.544700
C821	C82	0.444900	0.113300	0.520600
H661	H66	0.459500	0.106300	0.580400
C831	C83	0.500300	0.112400	0.454300
C841	C84	0.477900	0.121200	0.367100
H671	H67	0.515200	0.120900	0.321600
C851	C85	0.401300	0.130600	0.345900
H681	H68	0.386500	0.135600	0.286000
C861	C86	0.582900	0.104300	0.476700
C871	C87	0.633200	0.066500	0.421100
H691	H69	0.614900	0.043300	0.368600
C881	C88	0.709900	0.062700	0.441800
H701	H70	0.743200	0.036800	0.402500
C891	C89	0.690900	0.129600	0.569500
H711	H71	0.710800	0.151900	0.621700
C901	C90	0.613700	0.135400	0.553800
H721	H72	0.581500	0.160400	0.595100
N61	N6	0.739430	0.093980	0.514920
O261	O26	0.876370	0.113710	0.396670
O271	O27	0.980310	0.122070	0.476950
O281	O28	0.072060	0.139720	0.341330
O291	O29	0.247650	0.146100	0.307920
O301	O30	0.215990	0.144920	0.450700
Co71	Co7	0.141640	0.901120	0.531490
C911	C91	0.125100	0.052600	0.596700
C921	C92	0.146300	0.006800	0.678300
H731	H73	0.110200	0.019900	0.727000
C931	C93	0.227100	0.029200	0.705700
H741	H74	0.241100	0.001800	0.759600
H751	H75	0.229100	0.084300	0.716600
H761	H76	0.262900	0.015900	0.658500
C941	C94	0.142200	0.736900	0.610900
C951	C95	0.132500	0.653700	0.588300
C961	C96	0.124500	0.631600	0.500700
H771	H77	0.126600	0.668900	0.455300
C971	C97	0.113300	0.555100	0.479400
H781	H78	0.106300	0.540500	0.419600
C981	C98	0.112400	0.499700	0.545700
C991	C99	0.121200	0.522100	0.632900
H791	H79	0.120900	0.484800	0.678400
C1001	C100	0.130600	0.598700	0.654100
H801	H80	0.135600	0.613500	0.714000
C1011	C101	0.104300	0.417100	0.523300
C1021	C102	0.066500	0.366800	0.578900
H811	H81	0.043300	0.385100	0.631400
C1031	C103	0.062700	0.290100	0.558200
H821	H82	0.036800	0.256800	0.597500
C1041	C104	0.129600	0.309100	0.430500
H831	H83	0.151900	0.289200	0.378300
C1051	C105	0.135400	0.386300	0.446200
H841	H84	0.160400	0.418500	0.404900
N71	N7	0.093980	0.260570	0.485080
O311	O31	0.113710	0.123630	0.603330
O321	O32	0.122070	0.019690	0.523050
O331	O33	0.139720	0.927940	0.658670
O341	O34	0.146100	0.752350	0.692080
O351	O35	0.144920	0.784010	0.549300
Co81	Co8	0.858360	0.098880	0.531490
C1061	C106	0.874900	0.947400	0.596700
C1071	C107	0.853700	0.993200	0.678300
H851	H85	0.889800	0.980100	0.727000
C1081	C108	0.772900	0.970800	0.705700
H861	H86	0.758900	0.998200	0.759600
H871	H87	0.770900	0.915700	0.716600
H881	H88	0.737100	0.984100	0.658500
C1091	C109	0.857800	0.263100	0.610900
C1101	C110	0.867500	0.346300	0.588300
C1111	C111	0.875500	0.368400	0.500700
H891	H89	0.873400	0.331100	0.455300
C1121	C112	0.886700	0.444900	0.479400
H901	H90	0.893700	0.459500	0.419600
C1131	C113	0.887600	0.500300	0.545700
C1141	C114	0.878800	0.477900	0.632900
H911	H91	0.879100	0.515200	0.678400
C1151	C115	0.869400	0.401300	0.654100
H921	H92	0.864400	0.386500	0.714000
C1161	C116	0.895700	0.582900	0.523300
C1171	C117	0.933500	0.633200	0.578900
H931	H93	0.956700	0.614900	0.631400
C1181	C118	0.937300	0.709900	0.558200
H941	H94	0.963200	0.743200	0.597500
C1191	C119	0.870400	0.690900	0.430500
H951	H95	0.848100	0.710800	0.378300
C1201	C120	0.864600	0.613700	0.446200
H961	H96	0.839600	0.581500	0.404900
N81	N8	0.906020	0.739430	0.485080
O361	O36	0.886290	0.876370	0.603330
O371	O37	0.877930	0.980310	0.523050
O381	O38	0.860280	0.072060	0.658670
O391	O39	0.853900	0.247650	0.692080
O401	O40	0.855080	0.215990	0.549300
Co91	Co9	0.852900	0.147100	0.750000
Co101	Co10	0.147100	0.852900	0.750000
Co111	Co11	0.147100	0.147100	0.250000
Co121	Co12	0.852900	0.852900	0.250000
