data_JOBKUI_clean_PM
_symmetry_space_group_name_H-M	'P1'
_cell_length_a	22.696000
_cell_length_b	12.696000
_cell_length_c	16.126000
_cell_angle_alpha	90.000000
_cell_angle_beta	90.000000
_cell_angle_gamma	90.000000
_symmetry_Int_Tables_number 1

loop_
_symmetry_equiv_pos_as_xyz
'x,y,z'

loop_
_atom_site_label
_atom_site_type_symbol
_atom_site_fract_x
_atom_site_fract_y
_atom_site_fract_z
Fe11	Fe1	0.519500	0.288100	0.118680
Fe21	Fe2	0.262610	0.398860	0.000640
N11	N1	0.489500	0.117300	0.137100
N21	N2	0.589750	0.192300	0.066300
N31	N3	0.629100	0.029500	0.057300
N41	N4	0.670600	0.101100	0.032900
N51	N5	0.740800	0.266400	0.003200
N61	N6	0.671670	0.388600	0.025000
N71	N7	0.724200	0.437900	0.007700
N81	N8	0.291900	0.377700	0.867200
N91	N9	0.353100	0.358800	0.008500
N101	N10	0.436500	0.307200	0.945000
N111	N11	0.446520	0.309100	0.028200
N121	N12	0.347200	0.367500	0.200600
N131	N13	0.443250	0.331700	0.195900
N141	N14	0.427400	0.337100	0.278100
C11	C1	0.438000	0.083300	0.165500
H11	H1	0.411600	0.133000	0.185700
C21	C2	0.421300	0.979500	0.167100
H21	H2	0.384800	0.960100	0.188400
C31	C3	0.459200	0.905000	0.136900
H31	H3	0.448500	0.834300	0.136300
C41	C4	0.513800	0.936600	0.107100
H41	H4	0.541000	0.887800	0.087600
C51	C5	0.526400	0.044300	0.107400
C61	C6	0.582300	0.087000	0.076000
C71	C7	0.645800	0.196300	0.040400
C81	C8	0.683600	0.286700	0.022000
C91	C9	0.764100	0.362900	0.996900
H51	H5	0.803700	0.375900	0.986300
C101	C10	0.258800	0.388400	0.799600
H61	H6	0.219900	0.410100	0.806100
C111	C11	0.279200	0.369100	0.720600
H71	H7	0.254800	0.376600	0.674700
C121	C12	0.337800	0.338100	0.711900
H81	H8	0.353200	0.324700	0.659500
C131	C13	0.372900	0.327100	0.781200
H91	H9	0.412200	0.307600	0.776200
C141	C14	0.348200	0.346000	0.858400
C151	C15	0.381400	0.336800	0.936600
C161	C16	0.396400	0.339500	0.064300
C171	C17	0.394300	0.350300	0.154000
C181	C18	0.370900	0.359500	0.276500
H101	H10	0.348900	0.369000	0.324500
Fe31	Fe3	0.980500	0.211900	0.618680
Fe41	Fe4	0.237390	0.101140	0.500640
N151	N15	0.010500	0.382700	0.637100
N161	N16	0.910250	0.307700	0.566300
N171	N17	0.870900	0.470500	0.557300
N181	N18	0.829400	0.398900	0.532900
N191	N19	0.759200	0.233600	0.503200
N201	N20	0.828330	0.111400	0.525000
N211	N21	0.775800	0.062100	0.507700
N221	N22	0.208100	0.122300	0.367200
N231	N23	0.146900	0.141200	0.508500
N241	N24	0.063500	0.192800	0.445000
N251	N25	0.053480	0.190900	0.528200
N261	N26	0.152800	0.132500	0.700600
N271	N27	0.056750	0.168300	0.695900
N281	N28	0.072600	0.162900	0.778100
C191	C19	0.062000	0.416700	0.665500
H111	H11	0.088400	0.367000	0.685700
C201	C20	0.078700	0.520500	0.667100
H121	H12	0.115200	0.539900	0.688400
C211	C21	0.040800	0.595000	0.636900
H131	H13	0.051500	0.665700	0.636300
C221	C22	0.986200	0.563400	0.607100
H141	H14	0.959000	0.612200	0.587600
C231	C23	0.973600	0.455700	0.607400
C241	C24	0.917700	0.413000	0.576000
C251	C25	0.854200	0.303700	0.540400
C261	C26	0.816400	0.213300	0.522000
C271	C27	0.735900	0.137100	0.496900
H151	H15	0.696300	0.124100	0.486300
C281	C28	0.241200	0.111600	0.299600
H161	H16	0.280100	0.089900	0.306100
C291	C29	0.220800	0.130900	0.220600
H171	H17	0.245200	0.123400	0.174700
C301	C30	0.162200	0.161900	0.211900
H181	H18	0.146800	0.175300	0.159500
C311	C31	0.127100	0.172900	0.281200
H191	H19	0.087800	0.192400	0.276200
C321	C32	0.151800	0.154000	0.358400
C331	C33	0.118600	0.163200	0.436600
C341	C34	0.103600	0.160500	0.564300
C351	C35	0.105700	0.149700	0.654000
C361	C36	0.129100	0.140500	0.776500
H201	H20	0.151100	0.131000	0.824500
Fe51	Fe5	0.480500	0.288100	0.381320
Fe61	Fe6	0.737390	0.398860	0.499360
N291	N29	0.510500	0.117300	0.362900
N301	N30	0.410250	0.192300	0.433700
N311	N31	0.370900	0.029500	0.442700
N321	N32	0.329400	0.101100	0.467100
N331	N33	0.259200	0.266400	0.496800
N341	N34	0.328330	0.388600	0.475000
N351	N35	0.275800	0.437900	0.492300
N361	N36	0.708100	0.377700	0.632800
N371	N37	0.646900	0.358800	0.491500
N381	N38	0.563500	0.307200	0.555000
N391	N39	0.553480	0.309100	0.471800
N401	N40	0.652800	0.367500	0.299400
N411	N41	0.556750	0.331700	0.304100
N421	N42	0.572600	0.337100	0.221900
C371	C37	0.562000	0.083300	0.334500
H211	H21	0.588400	0.133000	0.314300
C381	C38	0.578700	0.979500	0.332900
H221	H22	0.615200	0.960100	0.311600
C391	C39	0.540800	0.905000	0.363100
H231	H23	0.551500	0.834300	0.363700
C401	C40	0.486200	0.936600	0.392900
H241	H24	0.459000	0.887800	0.412400
C411	C41	0.473600	0.044300	0.392600
C421	C42	0.417700	0.087000	0.424000
C431	C43	0.354200	0.196300	0.459600
C441	C44	0.316400	0.286700	0.478000
C451	C45	0.235900	0.362900	0.503100
H251	H25	0.196300	0.375900	0.513700
C461	C46	0.741200	0.388400	0.700400
H261	H26	0.780100	0.410100	0.693900
C471	C47	0.720800	0.369100	0.779400
H271	H27	0.745200	0.376600	0.825300
C481	C48	0.662200	0.338100	0.788100
H281	H28	0.646800	0.324700	0.840500
C491	C49	0.627100	0.327100	0.718800
H291	H29	0.587800	0.307600	0.723800
C501	C50	0.651800	0.346000	0.641600
C511	C51	0.618600	0.336800	0.563400
C521	C52	0.603600	0.339500	0.435700
C531	C53	0.605700	0.350300	0.346000
C541	C54	0.629100	0.359500	0.223500
H301	H30	0.651100	0.369000	0.175500
Fe71	Fe7	0.019500	0.211900	0.881320
Fe81	Fe8	0.762610	0.101140	0.999360
N431	N43	0.989500	0.382700	0.862900
N441	N44	0.089750	0.307700	0.933700
N451	N45	0.129100	0.470500	0.942700
N461	N46	0.170600	0.398900	0.967100
N471	N47	0.240800	0.233600	0.996800
N481	N48	0.171670	0.111400	0.975000
N491	N49	0.224200	0.062100	0.992300
N501	N50	0.791900	0.122300	0.132800
N511	N51	0.853100	0.141200	0.991500
N521	N52	0.936500	0.192800	0.055000
N531	N53	0.946520	0.190900	0.971800
N541	N54	0.847200	0.132500	0.799400
N551	N55	0.943250	0.168300	0.804100
N561	N56	0.927400	0.162900	0.721900
C551	C55	0.938000	0.416700	0.834500
H311	H31	0.911600	0.367000	0.814300
C561	C56	0.921300	0.520500	0.832900
H321	H32	0.884800	0.539900	0.811600
C571	C57	0.959200	0.595000	0.863100
H331	H33	0.948500	0.665700	0.863700
C581	C58	0.013800	0.563400	0.892900
H341	H34	0.041000	0.612200	0.912400
C591	C59	0.026400	0.455700	0.892600
C601	C60	0.082300	0.413000	0.924000
C611	C61	0.145800	0.303700	0.959600
C621	C62	0.183600	0.213300	0.978000
C631	C63	0.264100	0.137100	0.003100
H351	H35	0.303700	0.124100	0.013700
C641	C64	0.758800	0.111600	0.200400
H361	H36	0.719900	0.089900	0.193900
C651	C65	0.779200	0.130900	0.279400
H371	H37	0.754800	0.123400	0.325300
C661	C66	0.837800	0.161900	0.288100
H381	H38	0.853200	0.175300	0.340500
C671	C67	0.872900	0.172900	0.218800
H391	H39	0.912200	0.192400	0.223800
C681	C68	0.848200	0.154000	0.141600
C691	C69	0.881400	0.163200	0.063400
C701	C70	0.896400	0.160500	0.935700
C711	C71	0.894300	0.149700	0.846000
C721	C72	0.870900	0.140500	0.723500
H401	H40	0.848900	0.131000	0.675500
Fe91	Fe9	0.480500	0.711900	0.881320
Fe101	Fe10	0.737390	0.601140	0.999360
N571	N57	0.510500	0.882700	0.862900
N581	N58	0.410250	0.807700	0.933700
N591	N59	0.370900	0.970500	0.942700
N601	N60	0.329400	0.898900	0.967100
N611	N61	0.259200	0.733600	0.996800
N621	N62	0.328330	0.611400	0.975000
N631	N63	0.275800	0.562100	0.992300
N641	N64	0.708100	0.622300	0.132800
N651	N65	0.646900	0.641200	0.991500
N661	N66	0.563500	0.692800	0.055000
N671	N67	0.553480	0.690900	0.971800
N681	N68	0.652800	0.632500	0.799400
N691	N69	0.556750	0.668300	0.804100
N701	N70	0.572600	0.662900	0.721900
C731	C73	0.562000	0.916700	0.834500
H411	H41	0.588400	0.867000	0.814300
C741	C74	0.578700	0.020500	0.832900
H421	H42	0.615200	0.039900	0.811600
C751	C75	0.540800	0.095000	0.863100
H431	H43	0.551500	0.165700	0.863700
C761	C76	0.486200	0.063400	0.892900
H441	H44	0.459000	0.112200	0.912400
C771	C77	0.473600	0.955700	0.892600
C781	C78	0.417700	0.913000	0.924000
C791	C79	0.354200	0.803700	0.959600
C801	C80	0.316400	0.713300	0.978000
C811	C81	0.235900	0.637100	0.003100
H451	H45	0.196300	0.624100	0.013700
C821	C82	0.741200	0.611600	0.200400
H461	H46	0.780100	0.589900	0.193900
C831	C83	0.720800	0.630900	0.279400
H471	H47	0.745200	0.623400	0.325300
C841	C84	0.662200	0.661900	0.288100
H481	H48	0.646800	0.675300	0.340500
C851	C85	0.627100	0.672900	0.218800
H491	H49	0.587800	0.692400	0.223800
C861	C86	0.651800	0.654000	0.141600
C871	C87	0.618600	0.663200	0.063400
C881	C88	0.603600	0.660500	0.935700
C891	C89	0.605700	0.649700	0.846000
C901	C90	0.629100	0.640500	0.723500
H501	H50	0.651100	0.631000	0.675500
Fe111	Fe11	0.019500	0.788100	0.381320
Fe121	Fe12	0.762610	0.898860	0.499360
N711	N71	0.989500	0.617300	0.362900
N721	N72	0.089750	0.692300	0.433700
N731	N73	0.129100	0.529500	0.442700
N741	N74	0.170600	0.601100	0.467100
N751	N75	0.240800	0.766400	0.496800
N761	N76	0.171670	0.888600	0.475000
N771	N77	0.224200	0.937900	0.492300
N781	N78	0.791900	0.877700	0.632800
N791	N79	0.853100	0.858800	0.491500
N801	N80	0.936500	0.807200	0.555000
N811	N81	0.946520	0.809100	0.471800
N821	N82	0.847200	0.867500	0.299400
N831	N83	0.943250	0.831700	0.304100
N841	N84	0.927400	0.837100	0.221900
C911	C91	0.938000	0.583300	0.334500
H511	H51	0.911600	0.633000	0.314300
C921	C92	0.921300	0.479500	0.332900
H521	H52	0.884800	0.460100	0.311600
C931	C93	0.959200	0.405000	0.363100
H531	H53	0.948500	0.334300	0.363700
C941	C94	0.013800	0.436600	0.392900
H541	H54	0.041000	0.387800	0.412400
C951	C95	0.026400	0.544300	0.392600
C961	C96	0.082300	0.587000	0.424000
C971	C97	0.145800	0.696300	0.459600
C981	C98	0.183600	0.786700	0.478000
C991	C99	0.264100	0.862900	0.503100
H551	H55	0.303700	0.875900	0.513700
C1001	C100	0.758800	0.888400	0.700400
H561	H56	0.719900	0.910100	0.693900
C1011	C101	0.779200	0.869100	0.779400
H571	H57	0.754800	0.876600	0.825300
C1021	C102	0.837800	0.838100	0.788100
H581	H58	0.853200	0.824700	0.840500
C1031	C103	0.872900	0.827100	0.718800
H591	H59	0.912200	0.807600	0.723800
C1041	C104	0.848200	0.846000	0.641600
C1051	C105	0.881400	0.836800	0.563400
C1061	C106	0.896400	0.839500	0.435700
C1071	C107	0.894300	0.850300	0.346000
C1081	C108	0.870900	0.859500	0.223500
H601	H60	0.848900	0.869000	0.175500
Fe131	Fe13	0.519500	0.711900	0.618680
Fe141	Fe14	0.262610	0.601140	0.500640
N851	N85	0.489500	0.882700	0.637100
N861	N86	0.589750	0.807700	0.566300
N871	N87	0.629100	0.970500	0.557300
N881	N88	0.670600	0.898900	0.532900
N891	N89	0.740800	0.733600	0.503200
N901	N90	0.671670	0.611400	0.525000
N911	N91	0.724200	0.562100	0.507700
N921	N92	0.291900	0.622300	0.367200
N931	N93	0.353100	0.641200	0.508500
N941	N94	0.436500	0.692800	0.445000
N951	N95	0.446520	0.690900	0.528200
N961	N96	0.347200	0.632500	0.700600
N971	N97	0.443250	0.668300	0.695900
N981	N98	0.427400	0.662900	0.778100
C1091	C109	0.438000	0.916700	0.665500
H611	H61	0.411600	0.867000	0.685700
C1101	C110	0.421300	0.020500	0.667100
H621	H62	0.384800	0.039900	0.688400
C1111	C111	0.459200	0.095000	0.636900
H631	H63	0.448500	0.165700	0.636300
C1121	C112	0.513800	0.063400	0.607100
H641	H64	0.541000	0.112200	0.587600
C1131	C113	0.526400	0.955700	0.607400
C1141	C114	0.582300	0.913000	0.576000
C1151	C115	0.645800	0.803700	0.540400
C1161	C116	0.683600	0.713300	0.522000
C1171	C117	0.764100	0.637100	0.496900
H651	H65	0.803700	0.624100	0.486300
C1181	C118	0.258800	0.611600	0.299600
H661	H66	0.219900	0.589900	0.306100
C1191	C119	0.279200	0.630900	0.220600
H671	H67	0.254800	0.623400	0.174700
C1201	C120	0.337800	0.661900	0.211900
H681	H68	0.353200	0.675300	0.159500
C1211	C121	0.372900	0.672900	0.281200
H691	H69	0.412200	0.692400	0.276200
C1221	C122	0.348200	0.654000	0.358400
C1231	C123	0.381400	0.663200	0.436600
C1241	C124	0.396400	0.660500	0.564300
C1251	C125	0.394300	0.649700	0.654000
C1261	C126	0.370900	0.640500	0.776500
H701	H70	0.348900	0.631000	0.824500
Fe151	Fe15	0.980500	0.788100	0.118680
Fe161	Fe16	0.237390	0.898860	0.000640
N991	N99	0.010500	0.617300	0.137100
N1001	N100	0.910250	0.692300	0.066300
N1011	N101	0.870900	0.529500	0.057300
N1021	N102	0.829400	0.601100	0.032900
N1031	N103	0.759200	0.766400	0.003200
N1041	N104	0.828330	0.888600	0.025000
N1051	N105	0.775800	0.937900	0.007700
N1061	N106	0.208100	0.877700	0.867200
N1071	N107	0.146900	0.858800	0.008500
N1081	N108	0.063500	0.807200	0.945000
N1091	N109	0.053480	0.809100	0.028200
N1101	N110	0.152800	0.867500	0.200600
N1111	N111	0.056750	0.831700	0.195900
N1121	N112	0.072600	0.837100	0.278100
C1271	C127	0.062000	0.583300	0.165500
H711	H71	0.088400	0.633000	0.185700
C1281	C128	0.078700	0.479500	0.167100
H721	H72	0.115200	0.460100	0.188400
C1291	C129	0.040800	0.405000	0.136900
H731	H73	0.051500	0.334300	0.136300
C1301	C130	0.986200	0.436600	0.107100
H741	H74	0.959000	0.387800	0.087600
C1311	C131	0.973600	0.544300	0.107400
C1321	C132	0.917700	0.587000	0.076000
C1331	C133	0.854200	0.696300	0.040400
C1341	C134	0.816400	0.786700	0.022000
C1351	C135	0.735900	0.862900	0.996900
H751	H75	0.696300	0.875900	0.986300
C1361	C136	0.241200	0.888400	0.799600
H761	H76	0.280100	0.910100	0.806100
C1371	C137	0.220800	0.869100	0.720600
H771	H77	0.245200	0.876600	0.674700
C1381	C138	0.162200	0.838100	0.711900
H781	H78	0.146800	0.824700	0.659500
C1391	C139	0.127100	0.827100	0.781200
H791	H79	0.087800	0.807600	0.776200
C1401	C140	0.151800	0.846000	0.858400
C1411	C141	0.118600	0.836800	0.936600
C1421	C142	0.103600	0.839500	0.064300
C1431	C143	0.105700	0.850300	0.154000
C1441	C144	0.129100	0.859500	0.276500
H801	H80	0.151100	0.869000	0.324500
