data_JOCLOD_clean_PM
_symmetry_space_group_name_H-M	'P1'
_cell_length_a	15.645000
_cell_length_b	15.645000
_cell_length_c	19.750000
_cell_angle_alpha	90.000000
_cell_angle_beta	90.000000
_cell_angle_gamma	90.000000
_symmetry_Int_Tables_number 1

loop_
_symmetry_equiv_pos_as_xyz
'x,y,z'

loop_
_atom_site_label
_atom_site_type_symbol
_atom_site_fract_x
_atom_site_fract_y
_atom_site_fract_z
N11	N1	0.067770	0.180310	0.046190
C11	C1	0.028230	0.147560	0.991360
H11	H1	0.968900	0.150300	0.989200
C21	C2	0.071650	0.110200	0.938490
H21	H2	0.042000	0.088000	0.901700
C31	C3	0.159910	0.106130	0.940660
H31	H3	0.190300	0.082200	0.904900
C41	C4	0.202610	0.138210	0.997020
C51	C5	0.153430	0.174330	0.048160
H41	H4	0.181500	0.195700	0.086100
N21	N2	0.567770	0.680310	0.546190
C61	C6	0.528230	0.647560	0.491360
H51	H5	0.468900	0.650300	0.489200
C71	C7	0.571650	0.610200	0.438490
H61	H6	0.542000	0.588000	0.401700
C81	C8	0.659910	0.606130	0.440660
H71	H7	0.690300	0.582200	0.404900
C91	C9	0.702610	0.638210	0.497020
C101	C10	0.653430	0.674330	0.548160
H81	H8	0.681500	0.695700	0.586100
N31	N3	0.432230	0.819690	0.546190
C111	C11	0.471770	0.852440	0.491360
H91	H9	0.531100	0.849700	0.489200
C121	C12	0.428350	0.889800	0.438490
H101	H10	0.458000	0.912000	0.401700
C131	C13	0.340090	0.893870	0.440660
H111	H11	0.309700	0.917800	0.404900
C141	C14	0.297390	0.861790	0.497020
C151	C15	0.346570	0.825670	0.548160
H121	H12	0.318500	0.804300	0.586100
N41	N4	0.932230	0.319690	0.046190
C161	C16	0.971770	0.352440	0.991360
H131	H13	0.031100	0.349700	0.989200
C171	C17	0.928350	0.389800	0.938490
H141	H14	0.958000	0.412000	0.901700
C181	C18	0.840090	0.393870	0.940660
H151	H15	0.809700	0.417800	0.904900
C191	C19	0.797390	0.361790	0.997020
C201	C20	0.846570	0.325670	0.048160
H161	H16	0.818500	0.304300	0.086100
N51	N5	0.069690	0.817770	0.296190
C211	C21	0.102440	0.778230	0.241360
H171	H17	0.099700	0.718900	0.239200
C221	C22	0.139800	0.821650	0.188490
H181	H18	0.162000	0.792000	0.151700
C231	C23	0.143870	0.909910	0.190660
H191	H19	0.167800	0.940300	0.154900
C241	C24	0.111790	0.952610	0.247020
C251	C25	0.075670	0.903430	0.298160
H201	H20	0.054300	0.931500	0.336100
N61	N6	0.569690	0.317770	0.796190
C261	C26	0.602440	0.278230	0.741360
H211	H21	0.599700	0.218900	0.739200
C271	C27	0.639800	0.321650	0.688490
H221	H22	0.662000	0.292000	0.651700
C281	C28	0.643870	0.409910	0.690660
H231	H23	0.667800	0.440300	0.654900
C291	C29	0.611790	0.452610	0.747020
C301	C30	0.575670	0.403430	0.798160
H241	H24	0.554300	0.431500	0.836100
N71	N7	0.430310	0.182230	0.796190
C311	C31	0.397560	0.221770	0.741360
H251	H25	0.400300	0.281100	0.739200
C321	C32	0.360200	0.178350	0.688490
H261	H26	0.338000	0.208000	0.651700
C331	C33	0.356130	0.090090	0.690660
H271	H27	0.332200	0.059700	0.654900
C341	C34	0.388210	0.047390	0.747020
C351	C35	0.424330	0.096570	0.798160
H281	H28	0.445700	0.068500	0.836100
N81	N8	0.930310	0.682230	0.296190
C361	C36	0.897560	0.721770	0.241360
H291	H29	0.900300	0.781100	0.239200
C371	C37	0.860200	0.678350	0.188490
H301	H30	0.838000	0.708000	0.151700
C381	C38	0.856130	0.590090	0.190660
H311	H31	0.832200	0.559700	0.154900
C391	C39	0.888210	0.547390	0.247020
C401	C40	0.924330	0.596570	0.298160
H321	H32	0.945700	0.568500	0.336100
N91	N9	0.432230	0.180310	0.953810
C411	C41	0.471770	0.147560	0.008640
H331	H33	0.531100	0.150300	0.010800
C421	C42	0.428350	0.110200	0.061510
H341	H34	0.458000	0.088000	0.098300
C431	C43	0.340090	0.106130	0.059340
H351	H35	0.309700	0.082200	0.095100
C441	C44	0.297390	0.138210	0.002980
C451	C45	0.346570	0.174330	0.951840
H361	H36	0.318500	0.195700	0.913900
N101	N10	0.932230	0.680310	0.453810
C461	C46	0.971770	0.647560	0.508640
H371	H37	0.031100	0.650300	0.510800
C471	C47	0.928350	0.610200	0.561510
H381	H38	0.958000	0.588000	0.598300
C481	C48	0.840090	0.606130	0.559340
H391	H39	0.809700	0.582200	0.595100
C491	C49	0.797390	0.638210	0.502980
C501	C50	0.846570	0.674330	0.451840
H401	H40	0.818500	0.695700	0.413900
N111	N11	0.067770	0.819690	0.453810
C511	C51	0.028230	0.852440	0.508640
H411	H41	0.968900	0.849700	0.510800
C521	C52	0.071650	0.889800	0.561510
H421	H42	0.042000	0.912000	0.598300
C531	C53	0.159910	0.893870	0.559340
H431	H43	0.190300	0.917800	0.595100
C541	C54	0.202610	0.861790	0.502980
C551	C55	0.153430	0.825670	0.451840
H441	H44	0.181500	0.804300	0.413900
N121	N12	0.567770	0.319690	0.953810
C561	C56	0.528230	0.352440	0.008640
H451	H45	0.468900	0.349700	0.010800
C571	C57	0.571650	0.389800	0.061510
H461	H46	0.542000	0.412000	0.098300
C581	C58	0.659910	0.393870	0.059340
H471	H47	0.690300	0.417800	0.095100
C591	C59	0.702610	0.361790	0.002980
C601	C60	0.653430	0.325670	0.951840
H481	H48	0.681500	0.304300	0.913900
N131	N13	0.430310	0.817770	0.703810
C611	C61	0.397560	0.778230	0.758640
H491	H49	0.400300	0.718900	0.760800
C621	C62	0.360200	0.821650	0.811510
H501	H50	0.338000	0.792000	0.848300
C631	C63	0.356130	0.909910	0.809340
H511	H51	0.332200	0.940300	0.845100
C641	C64	0.388210	0.952610	0.752980
C651	C65	0.424330	0.903430	0.701840
H521	H52	0.445700	0.931500	0.663900
N141	N14	0.930310	0.317770	0.203810
C661	C66	0.897560	0.278230	0.258640
H531	H53	0.900300	0.218900	0.260800
C671	C67	0.860200	0.321650	0.311510
H541	H54	0.838000	0.292000	0.348300
C681	C68	0.856130	0.409910	0.309340
H551	H55	0.832200	0.440300	0.345100
C691	C69	0.888210	0.452610	0.252980
C701	C70	0.924330	0.403430	0.201840
H561	H56	0.945700	0.431500	0.163900
N151	N15	0.069690	0.182230	0.203810
C711	C71	0.102440	0.221770	0.258640
H571	H57	0.099700	0.281100	0.260800
C721	C72	0.139800	0.178350	0.311510
H581	H58	0.162000	0.208000	0.348300
C731	C73	0.143870	0.090090	0.309340
H591	H59	0.167800	0.059700	0.345100
C741	C74	0.111790	0.047390	0.252980
C751	C75	0.075670	0.096570	0.201840
H601	H60	0.054300	0.068500	0.163900
N161	N16	0.569690	0.682230	0.703810
C761	C76	0.602440	0.721770	0.758640
H611	H61	0.599700	0.781100	0.760800
C771	C77	0.639800	0.678350	0.811510
H621	H62	0.662000	0.708000	0.848300
C781	C78	0.643870	0.590090	0.809340
H631	H63	0.667800	0.559700	0.845100
C791	C79	0.611790	0.547390	0.752980
C801	C80	0.575670	0.596570	0.701840
H641	H64	0.554300	0.568500	0.663900
Co11	Co1	0.000000	0.250000	0.125000
Co21	Co2	0.500000	0.750000	0.625000
Co31	Co3	0.000000	0.750000	0.375000
Co41	Co4	0.500000	0.250000	0.875000
N171	N17	0.932230	0.819690	0.953810
C811	C81	0.971770	0.852440	0.008640
H651	H65	0.031100	0.849700	0.010800
C821	C82	0.928350	0.889800	0.061510
H661	H66	0.958000	0.912000	0.098300
C831	C83	0.840090	0.893870	0.059340
H671	H67	0.809700	0.917800	0.095100
C841	C84	0.797390	0.861790	0.002980
C851	C85	0.846570	0.825670	0.951840
H681	H68	0.818500	0.804300	0.913900
N181	N18	0.432230	0.319690	0.453810
C861	C86	0.471770	0.352440	0.508640
H691	H69	0.531100	0.349700	0.510800
C871	C87	0.428350	0.389800	0.561510
H701	H70	0.458000	0.412000	0.598300
C881	C88	0.340090	0.393870	0.559340
H711	H71	0.309700	0.417800	0.595100
C891	C89	0.297390	0.361790	0.502980
C901	C90	0.346570	0.325670	0.451840
H721	H72	0.318500	0.304300	0.413900
N191	N19	0.567770	0.180310	0.453810
C911	C91	0.528230	0.147560	0.508640
H731	H73	0.468900	0.150300	0.510800
C921	C92	0.571650	0.110200	0.561510
H741	H74	0.542000	0.088000	0.598300
C931	C93	0.659910	0.106130	0.559340
H751	H75	0.690300	0.082200	0.595100
C941	C94	0.702610	0.138210	0.502980
C951	C95	0.653430	0.174330	0.451840
H761	H76	0.681500	0.195700	0.413900
N201	N20	0.067770	0.680310	0.953810
C961	C96	0.028230	0.647560	0.008640
H771	H77	0.968900	0.650300	0.010800
C971	C97	0.071650	0.610200	0.061510
H781	H78	0.042000	0.588000	0.098300
C981	C98	0.159910	0.606130	0.059340
H791	H79	0.190300	0.582200	0.095100
C991	C99	0.202610	0.638210	0.002980
C1001	C100	0.153430	0.674330	0.951840
H801	H80	0.181500	0.695700	0.913900
N211	N21	0.930310	0.182230	0.703810
C1011	C101	0.897560	0.221770	0.758640
H811	H81	0.900300	0.281100	0.760800
C1021	C102	0.860200	0.178350	0.811510
H821	H82	0.838000	0.208000	0.848300
C1031	C103	0.856130	0.090090	0.809340
H831	H83	0.832200	0.059700	0.845100
C1041	C104	0.888210	0.047390	0.752980
C1051	C105	0.924330	0.096570	0.701840
H841	H84	0.945700	0.068500	0.663900
N221	N22	0.430310	0.682230	0.203810
C1061	C106	0.397560	0.721770	0.258640
H851	H85	0.400300	0.781100	0.260800
C1071	C107	0.360200	0.678350	0.311510
H861	H86	0.338000	0.708000	0.348300
C1081	C108	0.356130	0.590090	0.309340
H871	H87	0.332200	0.559700	0.345100
C1091	C109	0.388210	0.547390	0.252980
C1101	C110	0.424330	0.596570	0.201840
H881	H88	0.445700	0.568500	0.163900
N231	N23	0.569690	0.817770	0.203810
C1111	C111	0.602440	0.778230	0.258640
H891	H89	0.599700	0.718900	0.260800
C1121	C112	0.639800	0.821650	0.311510
H901	H90	0.662000	0.792000	0.348300
C1131	C113	0.643870	0.909910	0.309340
H911	H91	0.667800	0.940300	0.345100
C1141	C114	0.611790	0.952610	0.252980
C1151	C115	0.575670	0.903430	0.201840
H921	H92	0.554300	0.931500	0.163900
N241	N24	0.069690	0.317770	0.703810
C1161	C116	0.102440	0.278230	0.758640
H931	H93	0.099700	0.218900	0.760800
C1171	C117	0.139800	0.321650	0.811510
H941	H94	0.162000	0.292000	0.848300
C1181	C118	0.143870	0.409910	0.809340
H951	H95	0.167800	0.440300	0.845100
C1191	C119	0.111790	0.452610	0.752980
C1201	C120	0.075670	0.403430	0.701840
H961	H96	0.054300	0.431500	0.663900
N251	N25	0.567770	0.819690	0.046190
C1211	C121	0.528230	0.852440	0.991360
H971	H97	0.468900	0.849700	0.989200
C1221	C122	0.571650	0.889800	0.938490
H981	H98	0.542000	0.912000	0.901700
C1231	C123	0.659910	0.893870	0.940660
H991	H99	0.690300	0.917800	0.904900
C1241	C124	0.702610	0.861790	0.997020
C1251	C125	0.653430	0.825670	0.048160
H1001	H100	0.681500	0.804300	0.086100
N261	N26	0.067770	0.319690	0.546190
C1261	C126	0.028230	0.352440	0.491360
H1011	H101	0.968900	0.349700	0.489200
C1271	C127	0.071650	0.389800	0.438490
H1021	H102	0.042000	0.412000	0.401700
C1281	C128	0.159910	0.393870	0.440660
H1031	H103	0.190300	0.417800	0.404900
C1291	C129	0.202610	0.361790	0.497020
C1301	C130	0.153430	0.325670	0.548160
H1041	H104	0.181500	0.304300	0.586100
N271	N27	0.932230	0.180310	0.546190
C1311	C131	0.971770	0.147560	0.491360
H1051	H105	0.031100	0.150300	0.489200
C1321	C132	0.928350	0.110200	0.438490
H1061	H106	0.958000	0.088000	0.401700
C1331	C133	0.840090	0.106130	0.440660
H1071	H107	0.809700	0.082200	0.404900
C1341	C134	0.797390	0.138210	0.497020
C1351	C135	0.846570	0.174330	0.548160
H1081	H108	0.818500	0.195700	0.586100
N281	N28	0.432230	0.680310	0.046190
C1361	C136	0.471770	0.647560	0.991360
H1091	H109	0.531100	0.650300	0.989200
C1371	C137	0.428350	0.610200	0.938490
H1101	H110	0.458000	0.588000	0.901700
C1381	C138	0.340090	0.606130	0.940660
H1111	H111	0.309700	0.582200	0.904900
C1391	C139	0.297390	0.638210	0.997020
C1401	C140	0.346570	0.674330	0.048160
H1121	H112	0.318500	0.695700	0.086100
N291	N29	0.569690	0.182230	0.296190
C1411	C141	0.602440	0.221770	0.241360
H1131	H113	0.599700	0.281100	0.239200
C1421	C142	0.639800	0.178350	0.188490
H1141	H114	0.662000	0.208000	0.151700
C1431	C143	0.643870	0.090090	0.190660
H1151	H115	0.667800	0.059700	0.154900
C1441	C144	0.611790	0.047390	0.247020
C1451	C145	0.575670	0.096570	0.298160
H1161	H116	0.554300	0.068500	0.336100
N301	N30	0.069690	0.682230	0.796190
C1461	C146	0.102440	0.721770	0.741360
H1171	H117	0.099700	0.781100	0.739200
C1471	C147	0.139800	0.678350	0.688490
H1181	H118	0.162000	0.708000	0.651700
C1481	C148	0.143870	0.590090	0.690660
H1191	H119	0.167800	0.559700	0.654900
C1491	C149	0.111790	0.547390	0.747020
C1501	C150	0.075670	0.596570	0.798160
H1201	H120	0.054300	0.568500	0.836100
N311	N31	0.930310	0.817770	0.796190
C1511	C151	0.897560	0.778230	0.741360
H1211	H121	0.900300	0.718900	0.739200
C1521	C152	0.860200	0.821650	0.688490
H1221	H122	0.838000	0.792000	0.651700
C1531	C153	0.856130	0.909910	0.690660
H1231	H123	0.832200	0.940300	0.654900
C1541	C154	0.888210	0.952610	0.747020
C1551	C155	0.924330	0.903430	0.798160
H1241	H124	0.945700	0.931500	0.836100
N321	N32	0.430310	0.317770	0.296190
C1561	C156	0.397560	0.278230	0.241360
H1251	H125	0.400300	0.218900	0.239200
C1571	C157	0.360200	0.321650	0.188490
H1261	H126	0.338000	0.292000	0.151700
C1581	C158	0.356130	0.409910	0.190660
H1271	H127	0.332200	0.440300	0.154900
C1591	C159	0.388210	0.452610	0.247020
C1601	C160	0.424330	0.403430	0.298160
H1281	H128	0.445700	0.431500	0.336100
Co51	Co5	0.000000	0.750000	0.875000
Co61	Co6	0.500000	0.250000	0.375000
Co71	Co7	0.000000	0.250000	0.625000
Co81	Co8	0.500000	0.750000	0.125000
