data_JODFOZ_clean_PM
_symmetry_space_group_name_H-M	'P1'
_cell_length_a	8.504600
_cell_length_b	13.337400
_cell_length_c	14.158400
_cell_angle_alpha	61.900200
_cell_angle_beta	85.719000
_cell_angle_gamma	80.881000
_symmetry_Int_Tables_number 1

loop_
_symmetry_equiv_pos_as_xyz
'x,y,z'

loop_
_atom_site_label
_atom_site_type_symbol
_atom_site_fract_x
_atom_site_fract_y
_atom_site_fract_z
Co11	Co1	0.200980	0.297140	0.192840
Co21	Co2	0.700980	0.489980	0.807160
H11	H1	0.481500	0.004000	0.838600
H21	H2	0.328000	0.474500	0.980800
H31	H3	0.572500	0.180600	0.775000
H41	H4	0.404400	0.815000	0.114200
H51	H5	0.077800	0.508100	0.512200
H61	H6	0.799900	0.906300	0.527200
H71	H7	0.577800	0.020300	0.487800
H81	H8	0.051900	0.412200	0.867800
H91	H9	0.072500	0.955600	0.225000
H101	H10	0.259000	0.673400	0.174600
H111	H11	0.908400	0.559600	0.093000
H121	H12	0.197500	0.946100	0.414600
H131	H13	0.981500	0.842600	0.161400
H141	H14	0.680400	0.383000	0.250600
H151	H15	0.429000	0.831100	0.912800
H161	H16	0.011100	0.095200	0.862000
H171	H17	0.828000	0.455300	0.019200
H181	H18	0.110000	0.206400	0.926400
H191	H19	0.551900	0.280000	0.132200
H201	H20	0.408400	0.652600	0.907000
H211	H21	0.929000	0.743900	0.087200
H221	H22	0.795400	0.178500	0.205400
H231	H23	0.295400	0.383900	0.794600
H241	H24	0.462700	0.405000	0.642200
H251	H25	0.937300	0.324700	0.503000
H261	H26	0.446800	0.415200	0.334400
H271	H27	0.697500	0.360700	0.585400
H281	H28	0.610000	0.132800	0.073600
H291	H29	0.685900	0.738600	0.756600
H301	H30	0.511100	0.957200	0.138000
H311	H31	0.334900	0.128400	0.405600
H321	H32	0.759000	0.848000	0.825400
H331	H33	0.962700	0.047200	0.357800
H341	H34	0.946800	0.749600	0.665600
H351	H35	0.185900	0.495200	0.243400
H361	H36	0.180400	0.633600	0.749400
H371	H37	0.299900	0.433500	0.472800
H381	H38	0.834900	0.534000	0.594400
H391	H39	0.437300	0.827700	0.497000
H401	H40	0.904400	0.929200	0.885800
C11	C1	0.685500	0.377100	0.319200
C21	C2	0.545100	0.397400	0.369000
C31	C3	0.506800	0.028700	0.887200
C41	C4	0.096900	0.091400	0.083400
C51	C5	0.330400	0.716700	0.632200
C61	C6	0.203600	0.413900	0.751600
C71	C7	0.277300	0.633000	0.134600
C81	C8	0.490800	0.960400	0.996200
C91	C9	0.391400	0.417200	0.513600
C101	C10	0.050000	0.859000	0.532600
C111	C11	0.733000	0.701900	0.825000
C121	C12	0.838900	0.342800	0.468400
C131	C13	0.525600	0.001400	0.064000
C141	C14	0.647600	0.289500	0.873800
C151	C15	0.929700	0.890800	0.959000
C161	C16	0.147600	0.163300	0.126200
C171	C17	0.194200	0.882300	0.482400
C181	C18	0.233000	0.526900	0.175000
C191	C19	0.694200	0.364700	0.517600
C201	C20	0.990800	0.956600	0.003800
C211	C21	0.907100	0.782000	0.013400
C221	C22	0.816800	0.535700	0.978800
C231	C23	0.871800	0.020100	0.398400
C241	C24	0.550000	0.391600	0.467400
C251	C25	0.891400	0.930800	0.486400
C261	C26	0.713400	0.085900	0.354400
C271	C27	0.556200	0.226700	0.205400
C281	C28	0.429700	0.849800	0.041000
C291	C29	0.928700	0.503100	0.635600
C301	C30	0.575100	0.072700	0.414400
C311	C31	0.006800	0.915900	0.112800
C321	C32	0.185500	0.696300	0.680800
C331	C33	0.060900	0.984400	0.150800
C341	C34	0.830400	0.348900	0.367800
C351	C35	0.056200	0.432100	0.794600
C361	C36	0.703600	0.165500	0.248400
C371	C37	0.316800	0.514500	0.021200
C381	C38	0.213400	0.440300	0.645600
C391	C39	0.596900	0.174800	0.916600
C401	C40	0.865200	0.597900	0.023600
C411	C41	0.475400	0.636200	0.689600
C421	C42	0.407100	0.795400	0.986600
C431	C43	0.777300	0.767600	0.865400
C441	C44	0.338900	0.811200	0.531600
C451	C45	0.428700	0.138700	0.364400
C461	C46	0.371800	0.418500	0.601600
C471	C47	0.082600	0.133800	0.974200
C481	C48	0.365200	0.621500	0.976400
C491	C49	0.075100	0.487100	0.585600
C501	C50	0.350500	0.683100	0.033000
C511	C51	0.560900	0.135200	0.849200
C521	C52	0.045100	0.766400	0.631000
C531	C53	0.582600	0.108000	0.025800
C541	C54	0.025600	0.065400	0.936000
C551	C55	0.850500	0.716100	0.967000
C561	C56	0.975400	0.325800	0.310400
N11	N1	0.921000	0.475500	0.739800
N21	N2	0.254200	0.464400	0.120600
N31	N3	0.754200	0.585000	0.879400
N41	N4	0.421000	0.215300	0.260200
O11	O1	0.608700	0.652000	0.645200
O21	O2	0.653600	0.352390	0.773620
O31	O3	0.463000	0.558300	0.783600
O41	O4	0.153600	0.126010	0.226380
O51	O5	0.108700	0.297200	0.354800
O61	O6	0.963000	0.341900	0.216400
O71	O7	0.678100	0.330790	0.935020
O81	O8	0.178100	0.265810	0.064980
