data_JOFGOC_clean_PM
_symmetry_space_group_name_H-M	'P1'
_cell_length_a	13.515000
_cell_length_b	16.181900
_cell_length_c	16.181900
_cell_angle_alpha	79.957000
_cell_angle_beta	65.317000
_cell_angle_gamma	65.317100
_symmetry_Int_Tables_number 1

loop_
_symmetry_equiv_pos_as_xyz
'x,y,z'

loop_
_atom_site_label
_atom_site_type_symbol
_atom_site_fract_x
_atom_site_fract_y
_atom_site_fract_z
Cd11	Cd1	0.588340	0.791970	0.794440
H11	H1	0.454200	0.003700	0.739300
H21	H2	0.746900	0.588800	0.765600
H31	H3	0.465300	0.164200	0.600200
H41	H4	0.576600	0.703400	0.004200
H51	H5	0.364600	0.149200	0.687400
H61	H6	0.805100	0.413000	0.767200
H71	H7	0.622300	0.873200	0.459600
H81	H8	0.963400	0.284800	0.587200
H91	H9	0.641300	0.567600	0.073200
H101	H10	0.223100	0.094400	0.719800
H111	H11	0.332900	0.385100	0.636100
H121	H12	0.349700	0.201400	0.524800
H131	H13	0.154500	0.437600	0.621200
H141	H14	0.192900	0.287300	0.884100
H151	H15	0.154300	0.272500	0.523700
H161	H16	0.031500	0.105700	0.779700
H171	H17	0.513200	0.028900	0.474700
H181	H18	0.009900	0.346700	0.873700
H191	H19	0.956700	0.452200	0.682000
H201	H20	0.868600	0.362800	0.834200
H211	H21	0.647500	0.788300	0.583700
H221	H22	0.767200	0.435200	0.984800
C11	C1	0.523100	0.993930	0.524870
C21	C2	0.398600	0.294100	0.771700
C31	C3	0.407630	0.136350	0.622790
C41	C4	0.625850	0.651440	0.968460
C51	C5	0.851330	0.201490	0.727850
C61	C6	0.472380	0.034490	0.609750
C71	C7	0.281790	0.330910	0.762110
C81	C8	0.171670	0.132670	0.692390
C91	C9	0.848980	0.418120	0.799320
C101	C10	0.074620	0.352780	0.824980
C111	C11	0.664500	0.570290	0.010310
C121	C12	0.129950	0.239300	0.575800
C131	C13	0.184620	0.318680	0.831880
C141	C14	0.739700	0.490930	0.957470
C151	C15	0.771750	0.497730	0.863770
C161	C16	0.212110	0.182530	0.615650
C171	C17	0.015710	0.245560	0.613420
C181	C18	0.602050	0.850350	0.590750
C191	C19	0.974650	0.195660	0.689240
C201	C20	0.588230	0.901070	0.515870
C211	C21	0.268840	0.376230	0.683090
C221	C22	0.726580	0.583670	0.828170
C231	C23	0.061390	0.396100	0.745120
C241	C24	0.161440	0.407940	0.674380
C251	C25	0.056180	0.139420	0.728220
C261	C26	0.488790	0.977820	0.682000
N11	N1	0.552420	0.887110	0.673650
N21	N2	0.325890	0.178140	0.577880
N31	N3	0.957830	0.426280	0.732860
N41	N4	0.655690	0.659530	0.878490
O11	O1	0.479510	0.322220	0.720160
O21	O2	0.416010	0.232820	0.830960
O31	O3	0.778120	0.254750	0.693490
O41	O4	0.818990	0.150650	0.795770
Cd21	Cd2	0.619690	0.205560	0.791970
H231	H23	0.862800	0.220300	0.105700
H241	H24	0.791100	0.926800	0.567600
H251	H25	0.448900	0.475200	0.201400
H261	H26	0.664300	0.234400	0.588800
H271	H27	0.720000	0.995800	0.703400
H281	H28	0.519800	0.115900	0.287300
H291	H29	0.781900	0.232800	0.413000
H301	H30	0.591100	0.318000	0.452200
H311	H31	0.370500	0.399800	0.164200
H321	H32	0.486200	0.312600	0.149200
H331	H33	0.542100	0.260700	0.003700
H341	H34	0.797600	0.015200	0.435200
H351	H35	0.768600	0.165800	0.362800
H361	H36	0.407900	0.378800	0.437600
H371	H37	0.682500	0.280200	0.094400
H381	H38	0.504500	0.540400	0.873200
H391	H39	0.643400	0.126300	0.346700
H401	H40	0.564200	0.416300	0.788300
H411	H41	0.457900	0.525300	0.028900
H421	H42	0.751800	0.412800	0.284800
H431	H43	0.573200	0.476300	0.272500
H441	H44	0.282000	0.363900	0.385100
C271	C27	0.769370	0.042530	0.490930
C281	C28	0.456020	0.377210	0.136350
C291	C29	0.482970	0.475130	0.993930
C301	C30	0.829690	0.310760	0.195660
C311	C31	0.547600	0.409250	0.850350
C321	C32	0.307300	0.228300	0.294100
C331	C33	0.510700	0.484130	0.901070
C341	C34	0.496700	0.168120	0.318680
C351	C35	0.572600	0.175020	0.352780
C361	C36	0.354930	0.316910	0.376230
C371	C37	0.730520	0.136230	0.497730
C381	C38	0.738730	0.386580	0.245560
C391	C39	0.695660	0.307610	0.132670
C401	C40	0.542510	0.254880	0.396100
C411	C41	0.689750	0.171830	0.583670
C421	C42	0.493130	0.390250	0.034490
C431	C43	0.630750	0.424200	0.239300
C441	C44	0.947180	0.272150	0.201490
C451	C45	0.387300	0.237890	0.330910
C461	C46	0.605360	0.384350	0.182530
C471	C47	0.732900	0.200680	0.418120
C481	C48	0.765210	0.989690	0.570290
C491	C49	0.722710	0.031540	0.651440
C501	C50	0.804400	0.271780	0.139420
C511	C51	0.430620	0.325620	0.407940
C521	C52	0.533390	0.318000	0.977820
N51	N5	0.560470	0.326350	0.887110
N61	N6	0.495970	0.422120	0.178140
N71	N7	0.684780	0.121510	0.659530
N81	N8	0.615890	0.267140	0.426280
O51	O5	0.967130	0.306510	0.254750
O61	O6	0.351170	0.169040	0.232820
O71	O7	0.030360	0.204230	0.150650
O81	O8	0.198270	0.279840	0.322220
Cd31	Cd3	0.174750	0.208030	0.205550
H451	H45	0.354100	0.614900	0.363900
H461	H46	0.985300	0.587000	0.232800
H471	H47	0.090900	0.547800	0.318000
H481	H48	0.019500	0.211700	0.416300
H491	H49	0.213300	0.562400	0.378800
H501	H50	0.916900	0.894300	0.220300
H511	H51	0.229700	0.835800	0.399800
H521	H52	0.201200	0.850800	0.312600
H531	H53	0.187200	0.564800	0.015200
H541	H54	0.282100	0.432400	0.926800
H551	H55	0.037300	0.905600	0.280200
H561	H56	0.197200	0.996300	0.260700
H571	H57	0.016800	0.971100	0.525300
H581	H58	0.075900	0.798600	0.475200
H591	H59	0.284200	0.296600	0.995800
H601	H60	0.835400	0.715200	0.412800
H611	H61	0.364300	0.712700	0.115900
H621	H62	0.950500	0.727500	0.476300
H631	H63	0.101300	0.411200	0.234400
H641	H64	0.065600	0.637200	0.165800
H651	H65	0.955100	0.126800	0.540400
H661	H66	0.230300	0.653300	0.126300
C531	C53	0.923820	0.860580	0.271780
C541	C54	0.010290	0.817470	0.384350
C551	C55	0.188100	0.509070	0.042530
C561	C56	0.166770	0.863650	0.377210
C571	C57	0.245100	0.429710	0.989690
C581	C58	0.243760	0.592060	0.325620
C591	C59	0.945050	0.760700	0.424200
C601	C60	0.859550	0.804340	0.310760
C611	C61	0.996730	0.867330	0.307610
C621	C62	0.464400	0.705900	0.228300
C631	C63	0.245750	0.348560	0.031540
C641	C64	0.252380	0.647220	0.175020
C651	C65	0.374810	0.669090	0.237890
C661	C66	0.335180	0.681320	0.168120
C671	C67	0.066420	0.581880	0.200680
C681	C68	0.041900	0.006070	0.475130
C691	C69	0.328160	0.623770	0.316910
C701	C70	0.005170	0.098930	0.484130
C711	C71	0.202610	0.603900	0.254880
C721	C72	0.874690	0.754440	0.386580
C731	C73	0.133250	0.502270	0.136230
C741	C74	0.780670	0.798510	0.272150
C751	C75	0.043150	0.149650	0.409250
C761	C76	0.148610	0.022180	0.318000
C771	C77	0.116620	0.965510	0.390250
C781	C78	0.138420	0.416330	0.171830
N91	N9	0.116970	0.573720	0.267140
N101	N10	0.113180	0.112890	0.326350
N111	N11	0.081910	0.821860	0.422120
N121	N12	0.193710	0.340470	0.121510
O91	O9	0.479790	0.767180	0.169040
O101	O10	0.726360	0.745250	0.306510
O111	O11	0.765410	0.849350	0.204230
O121	O12	0.521890	0.677780	0.279840
Cd41	Cd4	0.617230	0.794440	0.208020
H671	H67	0.057100	0.719800	0.905600
H681	H68	0.361300	0.682000	0.547800
H691	H69	0.427700	0.767200	0.587000
H701	H70	0.449400	0.587200	0.715200
H711	H71	0.487500	0.765600	0.411200
H721	H72	0.322000	0.523700	0.727500
H731	H73	0.012100	0.474700	0.971100
H741	H74	0.125500	0.524800	0.798600
H751	H75	0.934500	0.600200	0.835800
H761	H76	0.188800	0.779700	0.894300
H771	H77	0.116400	0.873700	0.653300
H781	H78	0.918100	0.459600	0.126800
H791	H79	0.806500	0.739300	0.996300
H801	H80	0.419200	0.004200	0.296600
H811	H81	0.248000	0.984800	0.564800
H821	H82	0.031000	0.636100	0.614900
H831	H83	0.297200	0.834200	0.637200
H841	H84	0.285500	0.073200	0.432400
H851	H85	0.948000	0.687400	0.850800
H861	H86	0.923000	0.884100	0.712700
H871	H87	0.768800	0.583700	0.211700
H881	H88	0.224300	0.621200	0.562400
C791	C79	0.351700	0.799320	0.581880
C801	C80	0.829700	0.771700	0.705900
C811	C81	0.420820	0.727850	0.798510
C821	C82	0.956100	0.762110	0.669090
C831	C83	0.172240	0.615650	0.817470
C841	C84	0.302830	0.957470	0.509070
C851	C85	0.164180	0.674380	0.592060
C861	C86	0.364480	0.863770	0.502270
C871	C87	0.215600	0.728220	0.860580
C881	C88	0.336110	0.689240	0.804340
C891	C89	0.969580	0.622790	0.863650
C901	C90	0.983500	0.831880	0.681320
C911	C91	0.370870	0.613420	0.754440
C921	C92	0.952030	0.524870	0.006070
C931	C93	0.193490	0.745120	0.603900
C941	C94	0.325190	0.010310	0.429710
C951	C95	0.048070	0.683090	0.623770
C961	C96	0.807200	0.590750	0.149650
C971	C97	0.917870	0.609750	0.965510
C981	C98	0.100400	0.824980	0.647220
C991	C99	0.829210	0.682000	0.022180
C1001	C100	0.895900	0.515870	0.098930
C1011	C101	0.405690	0.968460	0.348560
C1021	C102	0.135940	0.692390	0.867330
C1031	C103	0.445250	0.828170	0.416330
C1041	C104	0.294250	0.575800	0.760700
N131	N13	0.096230	0.577880	0.821860
N141	N14	0.773930	0.673650	0.112890
N151	N15	0.309310	0.732860	0.573720
N161	N16	0.465820	0.878490	0.340470
O131	O13	0.753030	0.830960	0.767180
O141	O14	0.385240	0.795770	0.849350
O151	O15	0.800330	0.720160	0.677780
O161	O16	0.528390	0.693490	0.745250
