data_JOGBIR_clean_PM
_symmetry_space_group_name_H-M	'P1'
_cell_length_a	6.657900
_cell_length_b	15.258200
_cell_length_c	15.258200
_cell_angle_alpha	120.000000
_cell_angle_beta	90.000000
_cell_angle_gamma	90.000000
_symmetry_Int_Tables_number 1

loop_
_symmetry_equiv_pos_as_xyz
'x,y,z'

loop_
_atom_site_label
_atom_site_type_symbol
_atom_site_fract_x
_atom_site_fract_y
_atom_site_fract_z
Cu11	Cu1	0.511600	0.915820	0.864310
Cu21	Cu2	0.216490	0.757580	0.469370
Cu31	Cu3	0.511600	0.948490	0.084180
Cu41	Cu4	0.216490	0.711790	0.242420
Cu51	Cu5	0.511600	0.135690	0.051510
Cu61	Cu6	0.216490	0.530630	0.288210
Cu71	Cu7	0.857100	0.000000	0.000000
Cu81	Cu8	0.873100	0.666670	0.333340
H11	H1	0.097900	0.888100	0.774700
H21	H2	0.095600	0.796900	0.663100
H31	H3	0.335000	0.973200	0.729800
H41	H4	0.617000	0.874100	0.674500
H51	H5	0.642700	0.789400	0.560300
H61	H6	0.360400	0.703200	0.585400
H71	H7	0.556500	0.703600	0.643400
H81	H8	0.114100	0.025900	0.645200
H91	H9	0.976700	0.998600	0.711500
H101	H10	0.998100	0.922600	0.595100
H111	H11	0.240500	0.780200	0.847200
H121	H12	0.117100	0.723500	0.747400
H131	H13	0.433500	0.610300	0.699400
H141	H14	0.203600	0.653400	0.867400
H151	H15	0.344900	0.555200	0.807300
H161	H16	0.539800	0.896400	0.486900
H171	H17	0.329100	0.950400	0.513600
H181	H18	0.585900	0.030700	0.684100
H191	H19	0.521600	0.116000	0.561700
H201	H20	0.624700	0.172300	0.672000
H211	H21	0.097900	0.886600	0.111900
H221	H22	0.095600	0.866200	0.203100
H231	H23	0.335000	0.756600	0.026800
H241	H24	0.617000	0.800400	0.125900
H251	H25	0.642700	0.770900	0.210600
H261	H26	0.360400	0.882200	0.296800
H271	H27	0.556500	0.939800	0.296400
H281	H28	0.114100	0.619300	0.974100
H291	H29	0.976700	0.712900	0.001400
H301	H30	0.998100	0.672500	0.077400
H311	H31	0.240500	0.067000	0.219800
H321	H32	0.117100	0.023900	0.276500
H331	H33	0.433500	0.089100	0.389700
H341	H34	0.203600	0.214000	0.346600
H351	H35	0.344900	0.252100	0.444800
H361	H36	0.539800	0.590500	0.103600
H371	H37	0.329100	0.563200	0.049600
H381	H38	0.585900	0.653400	0.969300
H391	H39	0.521600	0.445700	0.884000
H401	H40	0.624700	0.499700	0.827700
H411	H41	0.097900	0.225300	0.113400
H421	H42	0.095600	0.336900	0.133800
H431	H43	0.335000	0.270200	0.243400
H441	H44	0.617000	0.325500	0.199600
H451	H45	0.642700	0.439700	0.229100
H461	H46	0.360400	0.414600	0.117800
H471	H47	0.556500	0.356600	0.060200
H481	H48	0.114100	0.354800	0.380700
H491	H49	0.976700	0.288500	0.287100
H501	H50	0.998100	0.404900	0.327500
H511	H51	0.240500	0.152800	0.933000
H521	H52	0.117100	0.252600	0.976100
H531	H53	0.433500	0.300600	0.910900
H541	H54	0.203600	0.132600	0.786000
H551	H55	0.344900	0.192700	0.747900
H561	H56	0.539800	0.513100	0.409500
H571	H57	0.329100	0.486400	0.436800
H581	H58	0.585900	0.315900	0.346600
H591	H59	0.521600	0.438300	0.554300
H601	H60	0.624700	0.328000	0.500300
C11	C1	0.178900	0.849800	0.714400
C21	C2	0.253100	0.919800	0.676300
C31	C3	0.547500	0.822000	0.615600
C41	C4	0.453900	0.746100	0.638400
C51	C5	0.067000	0.971900	0.654900
C61	C6	0.252600	0.739200	0.774300
C71	C7	0.344800	0.645700	0.752800
C81	C8	0.292900	0.615200	0.815000
C91	C9	0.444000	0.933200	0.541100
C101	C10	0.541500	0.030200	0.626000
C111	C11	0.565100	0.115100	0.619200
C121	C12	0.178900	0.864600	0.150200
C131	C13	0.253100	0.756500	0.080200
C141	C14	0.547500	0.793600	0.178000
C151	C15	0.453900	0.892300	0.253900
C161	C16	0.067000	0.683000	0.028100
C171	C17	0.252600	0.035100	0.260800
C181	C18	0.344800	0.107100	0.354300
C191	C19	0.292900	0.199800	0.384800
C201	C20	0.444000	0.607900	0.066800
C211	C21	0.541500	0.595800	0.969800
C221	C22	0.565100	0.504100	0.884900
C231	C23	0.178900	0.285600	0.135400
C241	C24	0.253100	0.323700	0.243500
C251	C25	0.547500	0.384400	0.206400
C261	C26	0.453900	0.361600	0.107700
C271	C27	0.067000	0.345100	0.317000
C281	C28	0.252600	0.225700	0.964900
C291	C29	0.344800	0.247200	0.892900
C301	C30	0.292900	0.185000	0.800200
C311	C31	0.444000	0.458900	0.392100
C321	C32	0.541500	0.374000	0.404200
C331	C33	0.565100	0.380800	0.495900
Br11	Br1	0.713040	0.828210	0.937270
Br21	Br2	0.988730	0.625270	0.461070
Br31	Br3	0.713040	0.109060	0.171790
Br41	Br4	0.988730	0.835800	0.374730
Br51	Br5	0.713040	0.062730	0.890940
Br61	Br6	0.988730	0.538930	0.164200
Br71	Br7	0.221600	0.000000	0.000000
Br81	Br8	0.489800	0.666670	0.333340
N11	N1	0.346500	0.805300	0.737100
N21	N2	0.376100	0.866500	0.586800
N31	N3	0.346500	0.931800	0.194700
N41	N4	0.376100	0.720300	0.133500
N51	N5	0.346500	0.262900	0.068200
N61	N6	0.376100	0.413200	0.279700
