data_JOGHEU_clean_PM
_symmetry_space_group_name_H-M	'P1'
_cell_length_a	10.456000
_cell_length_b	20.017000
_cell_length_c	8.107700
_cell_angle_alpha	90.000000
_cell_angle_beta	102.602000
_cell_angle_gamma	90.000000
_symmetry_Int_Tables_number 1

loop_
_symmetry_equiv_pos_as_xyz
'x,y,z'

loop_
_atom_site_label
_atom_site_type_symbol
_atom_site_fract_x
_atom_site_fract_y
_atom_site_fract_z
N11	N1	0.651500	0.157220	0.990500
C11	C1	0.710000	0.100320	0.944600
H11	H1	0.790000	0.103200	0.912800
C21	C2	0.651600	0.041730	0.946100
H21	H2	0.691700	0.004200	0.912600
C31	C3	0.531700	0.033550	0.996000
C41	C4	0.475300	0.093800	0.045000
H31	H3	0.396100	0.091900	0.079200
C51	C5	0.534700	0.152100	0.042100
H41	H4	0.496800	0.190400	0.075500
O11	O1	0.913600	0.201600	0.146600
N21	N2	0.151500	0.657220	0.990500
C61	C6	0.210000	0.600320	0.944600
H51	H5	0.290000	0.603200	0.912800
C71	C7	0.151600	0.541730	0.946100
H61	H6	0.191700	0.504200	0.912600
C81	C8	0.031700	0.533550	0.996000
C91	C9	0.975300	0.593800	0.045000
H71	H7	0.896100	0.591900	0.079200
C101	C10	0.034700	0.652100	0.042100
H81	H8	0.996800	0.690400	0.075500
O21	O2	0.413600	0.701600	0.146600
N31	N3	0.348500	0.157220	0.509500
C111	C11	0.290000	0.100320	0.555400
H91	H9	0.210000	0.103200	0.587200
C121	C12	0.348400	0.041730	0.553900
H101	H10	0.308300	0.004200	0.587400
C131	C13	0.468300	0.033550	0.504000
C141	C14	0.524700	0.093800	0.455000
H111	H11	0.603900	0.091900	0.420800
C151	C15	0.465300	0.152100	0.457900
H121	H12	0.503200	0.190400	0.424500
O31	O3	0.086400	0.201600	0.353400
N41	N4	0.848500	0.657220	0.509500
C161	C16	0.790000	0.600320	0.555400
H131	H13	0.710000	0.603200	0.587200
C171	C17	0.848400	0.541730	0.553900
H141	H14	0.808300	0.504200	0.587400
C181	C18	0.968300	0.533550	0.504000
C191	C19	0.024700	0.593800	0.455000
H151	H15	0.103900	0.591900	0.420800
C201	C20	0.965300	0.652100	0.457900
H161	H16	0.003200	0.690400	0.424500
O41	O4	0.586400	0.701600	0.353400
N51	N5	0.348500	0.842780	0.009500
C211	C21	0.290000	0.899680	0.055400
H171	H17	0.210000	0.896800	0.087200
C221	C22	0.348400	0.958270	0.053900
H181	H18	0.308300	0.995800	0.087400
C231	C23	0.468300	0.966450	0.004000
C241	C24	0.524700	0.906200	0.955000
H191	H19	0.603900	0.908100	0.920800
C251	C25	0.465300	0.847900	0.957900
H201	H20	0.503200	0.809600	0.924500
O51	O5	0.086400	0.798400	0.853400
N61	N6	0.848500	0.342780	0.009500
C261	C26	0.790000	0.399680	0.055400
H211	H21	0.710000	0.396800	0.087200
C271	C27	0.848400	0.458270	0.053900
H221	H22	0.808300	0.495800	0.087400
C281	C28	0.968300	0.466450	0.004000
C291	C29	0.024700	0.406200	0.955000
H231	H23	0.103900	0.408100	0.920800
C301	C30	0.965300	0.347900	0.957900
H241	H24	0.003200	0.309600	0.924500
O61	O6	0.586400	0.298400	0.853400
N71	N7	0.651500	0.842780	0.490500
C311	C31	0.710000	0.899680	0.444600
H251	H25	0.790000	0.896800	0.412800
C321	C32	0.651600	0.958270	0.446100
H261	H26	0.691700	0.995800	0.412600
C331	C33	0.531700	0.966450	0.496000
C341	C34	0.475300	0.906200	0.545000
H271	H27	0.396100	0.908100	0.579200
C351	C35	0.534700	0.847900	0.542100
H281	H28	0.496800	0.809600	0.575500
O71	O7	0.913600	0.798400	0.646600
N81	N8	0.151500	0.342780	0.490500
C361	C36	0.210000	0.399680	0.444600
H291	H29	0.290000	0.396800	0.412800
C371	C37	0.151600	0.458270	0.446100
H301	H30	0.191700	0.495800	0.412600
C381	C38	0.031700	0.466450	0.496000
C391	C39	0.975300	0.406200	0.545000
H311	H31	0.896100	0.408100	0.579200
C401	C40	0.034700	0.347900	0.542100
H321	H32	0.996800	0.309600	0.575500
O81	O8	0.413600	0.298400	0.646600
C411	C41	0.000000	0.232000	0.250000
H331	H33	0.000000	0.278400	0.250000
C421	C42	0.500000	0.732000	0.250000
H341	H34	0.500000	0.778400	0.250000
C431	C43	0.000000	0.768000	0.750000
H351	H35	0.000000	0.721600	0.750000
C441	C44	0.500000	0.268000	0.750000
H361	H36	0.500000	0.221600	0.750000
Ni11	Ni1	0.750000	0.250000	0.000000
Ni21	Ni2	0.250000	0.250000	0.500000
Ni31	Ni3	0.250000	0.750000	0.000000
Ni41	Ni4	0.750000	0.750000	0.500000
