data_JOGSAA_clean_PM
_symmetry_space_group_name_H-M	'P1'
_cell_length_a	15.072100
_cell_length_b	24.769400
_cell_length_c	15.170700
_cell_angle_alpha	90.000000
_cell_angle_beta	110.541000
_cell_angle_gamma	90.000000
_symmetry_Int_Tables_number 1

loop_
_symmetry_equiv_pos_as_xyz
'x,y,z'

loop_
_atom_site_label
_atom_site_type_symbol
_atom_site_fract_x
_atom_site_fract_y
_atom_site_fract_z
Ni11	Ni1	0.396210	0.522270	0.108120
C11	C1	0.209500	0.495900	0.130100
H11	H1	0.248300	0.484300	0.189400
C21	C2	0.110700	0.490400	0.104000
H21	H2	0.084800	0.477800	0.147400
C31	C3	0.052700	0.503500	0.014400
C41	C4	0.094500	0.522500	0.956000
H31	H3	0.057100	0.531700	0.894800
C51	C5	0.192700	0.528900	0.984200
H41	H4	0.219600	0.541300	0.941400
C61	C6	0.322700	0.636300	0.080700
C71	C7	0.322300	0.691800	0.081900
H51	H5	0.265200	0.710100	0.056200
C81	C8	0.404000	0.720200	0.119800
C91	C9	0.479700	0.691700	0.150500
H61	H6	0.538100	0.709100	0.172800
C101	C10	0.476800	0.633200	0.151500
H71	H7	0.532300	0.614100	0.182100
C111	C11	0.546500	0.498300	0.044000
C121	C12	0.495300	0.479600	0.298300
H81	H8	0.517200	0.455600	0.263400
C131	C13	0.520700	0.472800	0.394200
H91	H9	0.561600	0.444700	0.422600
C141	C14	0.489000	0.505400	0.449900
C151	C15	0.433400	0.548700	0.401900
H101	H10	0.410500	0.573500	0.434800
C161	C16	0.412300	0.555000	0.307000
H111	H11	0.377400	0.585200	0.278200
N11	N1	0.438000	0.521300	0.254700
N21	N2	0.248500	0.517200	0.073000
N31	N3	0.398500	0.606600	0.110700
O11	O1	0.620400	0.482700	0.034800
O21	O2	0.536600	0.512600	0.120100
Ni21	Ni2	0.603790	0.022270	0.891880
C171	C17	0.790500	0.995900	0.869900
H121	H12	0.751700	0.984300	0.810600
C181	C18	0.889300	0.990400	0.896000
H131	H13	0.915200	0.977800	0.852600
C191	C19	0.947300	0.003500	0.985600
C201	C20	0.905500	0.022500	0.044000
H141	H14	0.942900	0.031700	0.105200
C211	C21	0.807300	0.028900	0.015800
H151	H15	0.780400	0.041300	0.058600
C221	C22	0.677300	0.136300	0.919300
C231	C23	0.677700	0.191800	0.918100
H161	H16	0.734800	0.210100	0.943800
C241	C24	0.596000	0.220200	0.880200
C251	C25	0.520300	0.191700	0.849500
H171	H17	0.461900	0.209100	0.827200
C261	C26	0.523200	0.133200	0.848500
H181	H18	0.467700	0.114100	0.817900
C271	C27	0.453500	0.998300	0.956000
C281	C28	0.504700	0.979600	0.701700
H191	H19	0.482800	0.955600	0.736600
C291	C29	0.479300	0.972800	0.605800
H201	H20	0.438400	0.944700	0.577400
C301	C30	0.511000	0.005400	0.550100
C311	C31	0.566600	0.048700	0.598100
H211	H21	0.589500	0.073500	0.565200
C321	C32	0.587700	0.055000	0.693000
H221	H22	0.622600	0.085200	0.721800
N41	N4	0.562000	0.021300	0.745300
N51	N5	0.751500	0.017200	0.927000
N61	N6	0.601500	0.106600	0.889300
O31	O3	0.379600	0.982700	0.965200
O41	O4	0.463400	0.012600	0.879900
Ni31	Ni3	0.603790	0.477730	0.891880
C331	C33	0.790500	0.504100	0.869900
H231	H23	0.751700	0.515700	0.810600
C341	C34	0.889300	0.509600	0.896000
H241	H24	0.915200	0.522200	0.852600
C351	C35	0.947300	0.496500	0.985600
C361	C36	0.905500	0.477500	0.044000
H251	H25	0.942900	0.468300	0.105200
C371	C37	0.807300	0.471100	0.015800
H261	H26	0.780400	0.458700	0.058600
C381	C38	0.677300	0.363700	0.919300
C391	C39	0.677700	0.308200	0.918100
H271	H27	0.734800	0.289900	0.943800
C401	C40	0.596000	0.279800	0.880200
C411	C41	0.520300	0.308300	0.849500
H281	H28	0.461900	0.290900	0.827200
C421	C42	0.523200	0.366800	0.848500
H291	H29	0.467700	0.385900	0.817900
C431	C43	0.453500	0.501700	0.956000
C441	C44	0.504700	0.520400	0.701700
H301	H30	0.482800	0.544400	0.736600
C451	C45	0.479300	0.527200	0.605800
H311	H31	0.438400	0.555300	0.577400
C461	C46	0.511000	0.494600	0.550100
C471	C47	0.566600	0.451300	0.598100
H321	H32	0.589500	0.426500	0.565200
C481	C48	0.587700	0.445000	0.693000
H331	H33	0.622600	0.414800	0.721800
N71	N7	0.562000	0.478700	0.745300
N81	N8	0.751500	0.482800	0.927000
N91	N9	0.601500	0.393400	0.889300
O51	O5	0.379600	0.517300	0.965200
O61	O6	0.463400	0.487400	0.879900
Ni41	Ni4	0.396210	0.977730	0.108120
C491	C49	0.209500	0.004100	0.130100
H341	H34	0.248300	0.015700	0.189400
C501	C50	0.110700	0.009600	0.104000
H351	H35	0.084800	0.022200	0.147400
C511	C51	0.052700	0.996500	0.014400
C521	C52	0.094500	0.977500	0.956000
H361	H36	0.057100	0.968300	0.894800
C531	C53	0.192700	0.971100	0.984200
H371	H37	0.219600	0.958700	0.941400
C541	C54	0.322700	0.863700	0.080700
C551	C55	0.322300	0.808200	0.081900
H381	H38	0.265200	0.789900	0.056200
C561	C56	0.404000	0.779800	0.119800
C571	C57	0.479700	0.808300	0.150500
H391	H39	0.538100	0.790900	0.172800
C581	C58	0.476800	0.866800	0.151500
H401	H40	0.532300	0.885900	0.182100
C591	C59	0.546500	0.001700	0.044000
C601	C60	0.495300	0.020400	0.298300
H411	H41	0.517200	0.044400	0.263400
C611	C61	0.520700	0.027200	0.394200
H421	H42	0.561600	0.055300	0.422600
C621	C62	0.489000	0.994600	0.449900
C631	C63	0.433400	0.951300	0.401900
H431	H43	0.410500	0.926500	0.434800
C641	C64	0.412300	0.945000	0.307000
H441	H44	0.377400	0.914800	0.278200
N101	N10	0.438000	0.978700	0.254700
N111	N11	0.248500	0.982800	0.073000
N121	N12	0.398500	0.893400	0.110700
O71	O7	0.620400	0.017300	0.034800
O81	O8	0.536600	0.987400	0.120100
