data_JOHFIW_manual_PM
_symmetry_space_group_name_H-M	'P1'
_cell_length_a	10.223000
_cell_length_b	10.223000
_cell_length_c	14.493000
_cell_angle_alpha	90.000000
_cell_angle_beta	90.000000
_cell_angle_gamma	90.000000
_symmetry_Int_Tables_number 1

loop_
_symmetry_equiv_pos_as_xyz
'x,y,z'

loop_
_atom_site_label
_atom_site_type_symbol
_atom_site_fract_x
_atom_site_fract_y
_atom_site_fract_z
Y11	Y1	0.650230	0.650230	0.875000
Y21	Y2	0.349770	0.349770	0.375000
Y31	Y3	0.349770	0.650230	0.125000
Y41	Y4	0.650230	0.349770	0.625000
H11	H1	0.941600	0.575700	0.121400
H21	H2	0.058400	0.424300	0.621400
H31	H3	0.424300	0.941600	0.371400
H41	H4	0.575700	0.058400	0.871400
H51	H5	0.058400	0.575700	0.878600
H61	H6	0.941600	0.424300	0.378600
H71	H7	0.575700	0.941600	0.628600
H81	H8	0.424300	0.058400	0.128600
H91	H9	0.603200	0.500000	0.250000
H101	H10	0.396800	0.500000	0.750000
H111	H11	0.500000	0.603200	0.500000
H121	H12	0.500000	0.396800	0.000000
C11	C1	0.755000	0.549000	0.171400
C21	C2	0.894000	0.547000	0.172100
C31	C3	0.674000	0.589000	0.093000
C41	C4	0.245000	0.451000	0.671400
C51	C5	0.106000	0.453000	0.672100
C61	C6	0.326000	0.411000	0.593000
C71	C7	0.451000	0.755000	0.421400
C81	C8	0.453000	0.894000	0.422100
C91	C9	0.411000	0.674000	0.343000
C101	C10	0.549000	0.245000	0.921400
C111	C11	0.547000	0.106000	0.922100
C121	C12	0.589000	0.326000	0.843000
C131	C13	0.245000	0.549000	0.828600
C141	C14	0.106000	0.547000	0.827900
C151	C15	0.326000	0.589000	0.907000
C161	C16	0.755000	0.451000	0.328600
C171	C17	0.894000	0.453000	0.327900
C181	C18	0.674000	0.411000	0.407000
C191	C19	0.549000	0.755000	0.578600
C201	C20	0.547000	0.894000	0.577900
C211	C21	0.589000	0.674000	0.657000
C221	C22	0.451000	0.245000	0.078600
C231	C23	0.453000	0.106000	0.077900
C241	C24	0.411000	0.326000	0.157000
C251	C25	0.694000	0.500000	0.250000
C261	C26	0.957000	0.500000	0.250000
C271	C27	0.114000	0.500000	0.250000
C281	C28	0.306000	0.500000	0.750000
C291	C29	0.043000	0.500000	0.750000
C301	C30	0.886000	0.500000	0.750000
C311	C31	0.500000	0.694000	0.500000
C321	C32	0.500000	0.957000	0.500000
C331	C33	0.500000	0.114000	0.500000
C341	C34	0.500000	0.306000	0.000000
C351	C35	0.500000	0.043000	0.000000
C361	C36	0.500000	0.886000	0.000000
O11	O1	0.739000	0.594800	0.014400
O21	O2	0.561000	0.616000	0.102000
O31	O3	0.164600	0.422100	0.307500
O41	O4	0.261000	0.405200	0.514400
O51	O5	0.439000	0.384000	0.602000
O61	O6	0.835400	0.577900	0.807500
O71	O7	0.405200	0.739000	0.264400
O81	O8	0.384000	0.561000	0.352000
O91	O9	0.577900	0.164600	0.557500
O101	O10	0.594800	0.261000	0.764400
O111	O11	0.616000	0.439000	0.852000
O121	O12	0.422100	0.835400	0.057500
O131	O13	0.261000	0.594800	0.985600
O141	O14	0.439000	0.616000	0.898000
O151	O15	0.835400	0.422100	0.692500
O161	O16	0.739000	0.405200	0.485600
O171	O17	0.561000	0.384000	0.398000
O181	O18	0.164600	0.577900	0.192500
O191	O19	0.594800	0.739000	0.735600
O201	O20	0.616000	0.561000	0.648000
O211	O21	0.422100	0.164600	0.442500
O221	O22	0.405200	0.261000	0.235600
O231	O23	0.384000	0.439000	0.148000
O241	O24	0.577900	0.835400	0.942500
