data_JOKXUC_clean_PM
_symmetry_space_group_name_H-M	'P1'
_cell_length_a	13.961000
_cell_length_b	26.998000
_cell_length_c	7.589000
_cell_angle_alpha	90.000000
_cell_angle_beta	90.000000
_cell_angle_gamma	90.840000
_symmetry_Int_Tables_number 1

loop_
_symmetry_equiv_pos_as_xyz
'x,y,z'

loop_
_atom_site_label
_atom_site_type_symbol
_atom_site_fract_x
_atom_site_fract_y
_atom_site_fract_z
Cd11	Cd1	0.213750	0.134540	0.123330
N11	N1	0.236600	0.078900	0.909600
N21	N2	0.238000	0.077900	0.350800
N31	N3	0.367000	0.168800	0.130000
N41	N4	0.167600	0.198600	0.913000
N51	N5	0.175600	0.192100	0.351000
N61	N6	0.047100	0.124600	0.166300
C11	C1	0.242400	0.048700	0.805000
C21	C2	0.257500	0.048500	0.458000
C31	C3	0.418700	0.199000	0.174000
C41	C4	0.104500	0.218100	0.849000
C51	C5	0.071500	0.192100	0.372000
C61	C6	0.017700	0.152900	0.315000
C71	C7	0.909600	0.155100	0.348000
Cd21	Cd2	0.213750	0.634540	0.623330
N71	N7	0.236600	0.578900	0.409600
N81	N8	0.238000	0.577900	0.850800
N91	N9	0.367000	0.668800	0.630000
N101	N10	0.167600	0.698600	0.413000
N111	N11	0.175600	0.692100	0.851000
N121	N12	0.047100	0.624600	0.666300
C81	C8	0.242400	0.548700	0.305000
C91	C9	0.257500	0.548500	0.958000
C101	C10	0.418700	0.699000	0.674000
C111	C11	0.104500	0.718100	0.349000
C121	C12	0.071500	0.692100	0.872000
C131	C13	0.017700	0.652900	0.815000
C141	C14	0.909600	0.655100	0.848000
Cd31	Cd3	0.286250	0.865460	0.123330
N131	N13	0.263400	0.921100	0.909600
N141	N14	0.262000	0.922100	0.350800
N151	N15	0.133000	0.831200	0.130000
N161	N16	0.332400	0.801400	0.913000
N171	N17	0.324400	0.807900	0.351000
N181	N18	0.452900	0.875400	0.166300
C151	C15	0.257600	0.951300	0.805000
C161	C16	0.242500	0.951500	0.458000
C171	C17	0.081300	0.801000	0.174000
C181	C18	0.395500	0.781900	0.849000
C191	C19	0.428500	0.807900	0.372000
C201	C20	0.482300	0.847100	0.315000
C211	C21	0.590400	0.844900	0.348000
Cd41	Cd4	0.286250	0.365460	0.623330
N191	N19	0.263400	0.421100	0.409600
N201	N20	0.262000	0.422100	0.850800
N211	N21	0.133000	0.331200	0.630000
N221	N22	0.332400	0.301400	0.413000
N231	N23	0.324400	0.307900	0.851000
N241	N24	0.452900	0.375400	0.666300
C221	C22	0.257600	0.451300	0.305000
C231	C23	0.242500	0.451500	0.958000
C241	C24	0.081300	0.301000	0.674000
C251	C25	0.395500	0.281900	0.349000
C261	C26	0.428500	0.307900	0.872000
C271	C27	0.482300	0.347100	0.815000
C281	C28	0.590400	0.344900	0.848000
Cd51	Cd5	0.786250	0.865460	0.876670
N251	N25	0.763400	0.921100	0.090400
N261	N26	0.762000	0.922100	0.649200
N271	N27	0.633000	0.831200	0.870000
N281	N28	0.832400	0.801400	0.087000
N291	N29	0.824400	0.807900	0.649000
N301	N30	0.952900	0.875400	0.833700
C291	C29	0.757600	0.951300	0.195000
C301	C30	0.742500	0.951500	0.542000
C311	C31	0.581300	0.801000	0.826000
C321	C32	0.895500	0.781900	0.151000
C331	C33	0.928500	0.807900	0.628000
C341	C34	0.982300	0.847100	0.685000
C351	C35	0.090400	0.844900	0.652000
Cd61	Cd6	0.786250	0.365460	0.376670
N311	N31	0.763400	0.421100	0.590400
N321	N32	0.762000	0.422100	0.149200
N331	N33	0.633000	0.331200	0.370000
N341	N34	0.832400	0.301400	0.587000
N351	N35	0.824400	0.307900	0.149000
N361	N36	0.952900	0.375400	0.333700
C361	C36	0.757600	0.451300	0.695000
C371	C37	0.742500	0.451500	0.042000
C381	C38	0.581300	0.301000	0.326000
C391	C39	0.895500	0.281900	0.651000
C401	C40	0.928500	0.307900	0.128000
C411	C41	0.982300	0.347100	0.185000
C421	C42	0.090400	0.344900	0.152000
Cd71	Cd7	0.713750	0.134540	0.876670
N371	N37	0.736600	0.078900	0.090400
N381	N38	0.738000	0.077900	0.649200
N391	N39	0.867000	0.168800	0.870000
N401	N40	0.667600	0.198600	0.087000
N411	N41	0.675600	0.192100	0.649000
N421	N42	0.547100	0.124600	0.833700
C431	C43	0.742400	0.048700	0.195000
C441	C44	0.757500	0.048500	0.542000
C451	C45	0.918700	0.199000	0.826000
C461	C46	0.604500	0.218100	0.151000
C471	C47	0.571500	0.192100	0.628000
C481	C48	0.517700	0.152900	0.685000
C491	C49	0.409600	0.155100	0.652000
Cd81	Cd8	0.713750	0.634540	0.376670
N431	N43	0.736600	0.578900	0.590400
N441	N44	0.738000	0.577900	0.149200
N451	N45	0.867000	0.668800	0.370000
N461	N46	0.667600	0.698600	0.587000
N471	N47	0.675600	0.692100	0.149000
N481	N48	0.547100	0.624600	0.333700
C501	C50	0.742400	0.548700	0.695000
C511	C51	0.757500	0.548500	0.042000
C521	C52	0.918700	0.699000	0.326000
C531	C53	0.604500	0.718100	0.651000
C541	C54	0.571500	0.692100	0.128000
C551	C55	0.517700	0.652900	0.185000
C561	C56	0.409600	0.655100	0.152000
Ni11	Ni1	0.250000	0.000000	0.632100
Ni21	Ni2	0.250000	0.500000	0.132100
Ni31	Ni3	0.750000	0.000000	0.367900
Ni41	Ni4	0.750000	0.500000	0.867900
Ni51	Ni5	0.500000	0.250000	0.250000
Ni61	Ni6	0.000000	0.750000	0.250000
Ni71	Ni7	0.500000	0.750000	0.750000
Ni81	Ni8	0.000000	0.250000	0.750000
