data_JORBAV_clean_PM
_symmetry_space_group_name_H-M	'P1'
_cell_length_a	13.130000
_cell_length_b	13.761900
_cell_length_c	13.859200
_cell_angle_alpha	114.002000
_cell_angle_beta	112.312000
_cell_angle_gamma	100.919000
_symmetry_Int_Tables_number 1

loop_
_symmetry_equiv_pos_as_xyz
'x,y,z'

loop_
_atom_site_label
_atom_site_type_symbol
_atom_site_fract_x
_atom_site_fract_y
_atom_site_fract_z
Mn11	Mn1	0.385080	0.140730	0.870460
Mn21	Mn2	0.232900	0.804740	0.354540
Mn31	Mn3	0.378360	0.450200	0.645460
Mn41	Mn4	0.767100	0.195260	0.645460
Mn51	Mn5	0.985380	0.729730	0.870460
Mn61	Mn6	0.014620	0.270270	0.129540
Mn71	Mn7	0.621640	0.549800	0.354540
Mn81	Mn8	0.614920	0.859270	0.129540
W11	W1	0.771040	0.521040	0.042080
W21	W2	0.379070	0.129070	0.258140
W31	W3	0.620930	0.870930	0.741860
W41	W4	0.228960	0.478960	0.957920
C11	C1	0.229160	0.175640	0.199000
C21	C2	0.530160	0.976640	0.801000
C31	C3	0.487090	0.300670	0.313560
C41	C4	0.257410	0.447710	0.807240
C51	C5	0.770840	0.824360	0.801000
C61	C6	0.372460	0.241320	0.418580
C71	C7	0.744530	0.680230	0.106660
C81	C8	0.617360	0.496340	0.886720
C91	C9	0.950170	0.640470	0.192760
C101	C10	0.137840	0.387470	0.015420
C111	C11	0.626580	0.870520	0.899440
C121	C12	0.742590	0.552290	0.192760
C131	C13	0.862160	0.612530	0.984580
C141	C14	0.862130	0.426430	0.106660
C151	C15	0.622420	0.372050	0.984580
C161	C16	0.373420	0.129480	0.100560
C171	C17	0.627540	0.758680	0.581420
C181	C18	0.453880	0.822740	0.581420
C191	C19	0.227140	0.971080	0.100560
C201	C20	0.769360	0.390380	0.886720
C211	C21	0.377580	0.627950	0.015420
C221	C22	0.546120	0.177260	0.418580
C231	C23	0.512910	0.699330	0.686440
C241	C24	0.382640	0.503660	0.113280
C251	C25	0.772860	0.028920	0.899440
C261	C26	0.255470	0.319770	0.893340
C271	C27	0.469840	0.023360	0.199000
C281	C28	0.230640	0.609620	0.113280
C291	C29	0.049830	0.359530	0.807240
C301	C30	0.137870	0.573570	0.893340
C311	C31	0.673530	0.987110	0.686440
C321	C32	0.326470	0.012890	0.313560
N11	N1	0.463690	0.521050	0.199760
N21	N2	0.047570	0.703620	0.270020
N31	N3	0.481610	0.032380	0.831380
N41	N4	0.536310	0.478950	0.800240
N51	N5	0.702540	0.053280	0.661820
N61	N6	0.729530	0.763710	0.139640
N71	N7	0.150230	0.201000	0.168620
N81	N8	0.540720	0.391460	0.338180
N91	N9	0.459280	0.608540	0.661820
N101	N10	0.371560	0.304010	0.502280
N111	N11	0.910110	0.375930	0.139640
N121	N12	0.277550	0.433600	0.729980
N131	N13	0.143990	0.888460	0.017820
N141	N14	0.086530	0.336410	0.042820
N151	N15	0.628440	0.695990	0.497720
N161	N16	0.089890	0.624070	0.860360
N171	N17	0.456290	0.706410	0.042820
N181	N18	0.626170	0.870640	0.982180
N191	N19	0.913470	0.663590	0.957180
N201	N20	0.722450	0.566400	0.270020
N211	N21	0.763930	0.321290	0.800240
N221	N22	0.373830	0.129360	0.017820
N231	N23	0.518390	0.967620	0.168620
N241	N24	0.952430	0.296380	0.729980
N251	N25	0.236070	0.678710	0.199760
N261	N26	0.543710	0.293590	0.957180
N271	N27	0.369280	0.801730	0.497720
N281	N28	0.849770	0.799000	0.831380
N291	N29	0.856010	0.111540	0.982180
N301	N30	0.630720	0.198270	0.502280
N311	N31	0.270470	0.236290	0.860360
N321	N32	0.297460	0.946720	0.338180
