data_JORLEJ_clean_PM
_symmetry_space_group_name_H-M	'P1'
_cell_length_a	21.114600
_cell_length_b	21.580400
_cell_length_c	28.251400
_cell_angle_alpha	80.927800
_cell_angle_beta	71.197000
_cell_angle_gamma	60.711500
_symmetry_Int_Tables_number 1

loop_
_symmetry_equiv_pos_as_xyz
'x,y,z'

loop_
_atom_site_label
_atom_site_type_symbol
_atom_site_fract_x
_atom_site_fract_y
_atom_site_fract_z
Cd11	Cd1	0.096220	0.504680	0.715990
Cd21	Cd2	0.903780	0.495320	0.284010
Cd31	Cd3	0.597310	0.487650	0.719970
Cd41	Cd4	0.084960	0.512350	0.219970
Cd51	Cd5	0.399100	0.504680	0.784010
Cd61	Cd6	0.402690	0.512350	0.280030
Cd71	Cd7	0.915040	0.487650	0.780030
Cd81	Cd8	0.600900	0.495320	0.215990
H11	H1	0.713300	0.034400	0.901200
H21	H2	0.134100	0.341200	0.723900
H31	H3	0.377800	0.768800	0.925300
H41	H4	0.848600	0.491400	0.130900
H51	H5	0.275700	0.336400	0.316900
H61	H6	0.178900	0.040400	0.551000
H71	H7	0.470000	0.652400	0.731200
H81	H8	0.109200	0.041000	0.420600
H91	H9	0.676300	0.360600	0.365600
H101	H10	0.671700	0.956000	0.665100
H111	H11	0.637300	0.558800	0.788200
H121	H12	0.608600	0.883000	0.110300
H131	H13	0.207800	0.232200	0.751300
H141	H14	0.340000	0.508600	0.630900
H151	H15	0.777100	0.977200	0.135400
H161	H16	0.364300	0.953400	0.436900
H171	H17	0.361700	0.432000	0.714300
H181	H18	0.635700	0.046600	0.563100
H191	H19	0.564100	0.051000	0.515700
H201	H20	0.718900	0.674200	0.182800
H211	H21	0.146600	0.231200	0.425300
H221	H22	0.877600	0.652400	0.768800
H231	H23	0.242700	0.152800	0.312900
H241	H24	0.245700	0.977200	0.364600
H251	H25	0.803900	0.558800	0.711800
H261	H26	0.438800	0.971000	0.268600
H271	H27	0.751200	0.686800	0.032700
H281	H28	0.122400	0.347600	0.231200
H291	H29	0.747700	0.965600	0.401200
H301	H30	0.286700	0.965600	0.098800
H311	H31	0.929400	0.771800	0.042700
H321	H32	0.014500	0.229600	0.332000
H331	H33	0.530000	0.347600	0.268800
H341	H34	0.747300	0.122000	0.504700
H351	H35	0.619600	0.767600	0.694900
H361	H36	0.440500	0.576000	0.358100
H371	H37	0.469000	0.123000	0.322200
H381	H38	0.219300	0.959600	0.051000
H391	H39	0.326000	0.357200	0.914800
H401	H40	0.545100	0.546800	0.618700
H411	H41	0.206300	0.432000	0.785700
H421	H42	0.606900	0.674200	0.317200
H431	H43	0.674000	0.642800	0.085200
H441	H44	0.612100	0.663600	0.816900
H451	H45	0.435900	0.949000	0.484300
H461	H46	0.782200	0.875600	0.543100
H471	H47	0.568300	0.571600	0.535000
H481	H48	0.431700	0.428400	0.465000
H491	H49	0.561800	0.433800	0.137200
H501	H50	0.711600	0.332400	0.208200
H511	H51	0.683200	0.642800	0.414800
H521	H52	0.252300	0.034400	0.598800
H531	H53	0.531000	0.877000	0.677800
H541	H54	0.508400	0.883000	0.389700
H551	H55	0.780700	0.040400	0.949000
H561	H56	0.562000	0.686800	0.467300
H571	H57	0.969300	0.780400	0.178400
H581	H58	0.849800	0.041000	0.079400
H591	H59	0.438200	0.566200	0.862800
H601	H60	0.384900	0.051000	0.984300
H611	H61	0.627700	0.044000	0.165100
H621	H62	0.800600	0.760200	0.741900
H631	H63	0.362700	0.441200	0.211800
H641	H64	0.638300	0.568000	0.285700
H651	H65	0.842100	0.870600	0.172900
H661	H66	0.425900	0.073400	0.423900
H671	H67	0.397100	0.665000	0.907100
H681	H68	0.535400	0.774200	0.365700
H691	H69	0.592000	0.877000	0.822200
H701	H70	0.439200	0.760200	0.758100
H711	H71	0.376600	0.940000	0.129700
H721	H72	0.217800	0.124400	0.456900
H731	H73	0.655000	0.333600	0.449900
H741	H74	0.865900	0.658800	0.276100
H751	H75	0.016500	0.424000	0.858100
H761	H76	0.070600	0.228200	0.957300
H771	H77	0.500700	0.073400	0.076100
H781	H78	0.869300	0.878000	0.004700
H791	H79	0.288400	0.667600	0.791800
H801	H80	0.316800	0.357200	0.585200
H811	H81	0.151400	0.508600	0.869100
H821	H82	0.309600	0.225800	0.865700
H831	H83	0.454900	0.453200	0.381300
H841	H84	0.657800	0.124400	0.043100
H851	H85	0.757300	0.847200	0.687100
H861	H86	0.342200	0.875600	0.956900
H871	H87	0.539300	0.137200	0.752800
H881	H88	0.499600	0.923000	0.534300
H891	H89	0.091900	0.453200	0.118700
H901	H90	0.749700	0.219600	0.678400
H911	H91	0.793700	0.568000	0.214300
H921	H92	0.451900	0.938400	0.173200
H931	H93	0.186600	0.852600	0.887400
H941	H94	0.390300	0.061600	0.673200
H951	H95	0.316600	0.060000	0.629700
H961	H96	0.960800	0.852600	0.612600
H971	H97	0.328300	0.044000	0.334900
H981	H98	0.682300	0.953400	0.063100
H991	H99	0.724300	0.663600	0.683100
H1001	H100	0.599800	0.322400	0.600800
H1011	H101	0.157900	0.129400	0.827100
H1021	H102	0.524700	0.341200	0.776100
H1031	H103	0.676500	0.862800	0.252800
H1041	H104	0.792200	0.767800	0.248700
H1051	H105	0.380400	0.232400	0.305100
H1061	H106	0.072300	0.469000	0.926500
H1071	H107	0.988600	0.666400	0.949900
H1081	H108	0.604500	0.152800	0.187100
H1091	H109	0.615100	0.949000	0.015700
H1101	H110	0.541300	0.531000	0.426500
H1111	H111	0.475300	0.658800	0.223900
H1121	H112	0.033600	0.674600	0.215100
H1131	H113	0.966400	0.325400	0.784900
H1141	H114	0.291800	0.674600	0.284900
H1151	H115	0.561200	0.029000	0.731400
H1161	H116	0.252700	0.878000	0.495300
H1171	H117	0.287300	0.870600	0.327100
H1181	H118	0.393100	0.325800	0.682800
H1191	H119	0.937900	0.665000	0.592900
H1201	H120	0.499300	0.926600	0.923900
H1211	H121	0.985500	0.770400	0.668000
H1221	H122	0.222900	0.022800	0.864600
H1231	H123	0.609700	0.938400	0.326800
H1241	H124	0.612800	0.767600	0.805100
H1251	H125	0.701200	0.228200	0.542700
H1261	H126	0.400200	0.677600	0.399200
H1271	H127	0.660000	0.491400	0.369100
H1281	H128	0.391400	0.117000	0.889700
H1291	H129	0.708200	0.325400	0.715100
H1301	H130	0.281100	0.325800	0.817200
H1311	H131	0.754300	0.022800	0.635400
H1321	H132	0.030700	0.219600	0.821600
H1331	H133	0.755900	0.229600	0.168000
H1341	H134	0.491600	0.117000	0.610300
H1351	H135	0.623400	0.060000	0.870300
H1361	H136	0.408000	0.123000	0.177800
H1371	H137	0.690400	0.774200	0.134300
H1381	H138	0.927700	0.531000	0.073500
H1391	H139	0.458700	0.469000	0.573500
H1401	H140	0.464600	0.225800	0.634300
H1411	H141	0.559500	0.424000	0.641900
H1421	H142	0.199400	0.239800	0.258100
H1431	H143	0.139900	0.428400	0.035000
H1441	H144	0.438000	0.313200	0.532700
H1451	H145	0.387200	0.232400	0.194900
H1461	H146	0.460700	0.862800	0.247200
H1471	H147	0.860100	0.571600	0.965000
H1481	H148	0.995600	0.566200	0.637200
H1491	H149	0.908100	0.546800	0.881300
H1501	H150	0.044000	0.667600	0.708200
H1511	H151	0.250300	0.780400	0.321600
H1521	H152	0.560000	0.232200	0.748700
H1531	H153	0.244100	0.770400	0.832000
H1541	H154	0.500400	0.077000	0.465700
H1551	H155	0.395500	0.847200	0.812900
H1561	H156	0.712700	0.129400	0.672900
H1571	H157	0.821100	0.959600	0.449000
H1581	H158	0.004400	0.433800	0.362800
H1591	H159	0.323700	0.639400	0.634400
H1601	H160	0.196100	0.441200	0.288200
H1611	H161	0.387900	0.336400	0.183100
H1621	H162	0.372300	0.956000	0.834900
H1631	H163	0.590200	0.971000	0.231400
H1641	H164	0.150200	0.959000	0.920600
H1651	H165	0.036900	0.639400	0.865600
H1661	H166	0.548100	0.061600	0.826800
H1671	H167	0.440000	0.767800	0.251300
H1681	H168	0.062100	0.335000	0.407100
H1691	H169	0.574100	0.926600	0.576100
H1701	H170	0.298800	0.771800	0.457300
H1711	H171	0.130700	0.122000	0.995300
H1721	H172	0.248800	0.313200	0.967300
H1731	H173	0.813400	0.147400	0.112600
H1741	H174	0.577400	0.923000	0.965700
H1751	H175	0.890800	0.959000	0.579400
H1761	H176	0.683400	0.940000	0.370300
H1771	H177	0.956000	0.332400	0.291800
H1781	H178	0.409800	0.029000	0.768600
H1791	H179	0.077800	0.322400	0.899200
H1801	H180	0.922200	0.677600	0.100800
H1811	H181	0.622200	0.231200	0.074700
H1821	H182	0.602900	0.335000	0.092900
H1831	H183	0.317700	0.046600	0.936900
H1841	H184	0.345000	0.666400	0.550100
H1851	H185	0.011400	0.333600	0.050100
H1861	H186	0.963100	0.360600	0.134400
H1871	H187	0.323500	0.137200	0.747200
H1881	H188	0.039200	0.147400	0.387400
H1891	H189	0.853400	0.768800	0.574700
H1901	H190	0.983500	0.576000	0.141900
H1911	H191	0.422600	0.077000	0.034300
H1921	H192	0.560800	0.239800	0.241900
C11	C1	0.200140	0.280260	0.264910
C21	C2	0.658940	0.029320	0.530560
C31	C3	0.603430	0.392340	0.142320
C41	C4	0.920160	0.621040	0.966720
C51	C5	0.044410	0.269180	0.376190
C61	C6	0.262680	0.000840	0.989040
C71	C7	0.297450	0.465900	0.852130
C81	C8	0.345520	0.379540	0.583620
C91	C9	0.182040	0.128720	0.442420
C101	C10	0.648190	0.968020	0.001750
C111	C11	0.389700	0.068380	0.788540
C121	C12	0.971800	0.739200	0.169800
C131	C13	0.421370	0.918460	0.828090
C141	C14	0.074710	0.430060	0.104970
C151	C15	0.015100	0.564540	0.811620
C161	C16	0.294120	0.981360	0.065870
C171	C17	0.515210	0.813820	0.346100
C181	C18	0.914070	0.798860	0.598870
C191	C19	0.255480	0.264720	0.787000
C201	C20	0.063190	0.257620	0.864640
C211	C21	0.725060	0.620460	0.083620
C221	C22	0.341060	0.970680	0.469440
C231	C23	0.420540	0.327200	0.702280
C241	C24	0.757060	0.060480	0.566090
C251	C25	0.208760	0.272000	0.759040
C261	C26	0.769010	0.977780	0.462810
C271	C27	0.716980	0.271040	0.159940
C281	C28	0.153620	0.345680	0.248890
C291	C29	0.577120	0.871160	0.678840
C301	C30	0.704960	0.190280	0.610770
C311	C31	0.499300	0.654320	0.748890
C321	C32	0.598540	0.032520	0.881540
C331	C33	0.614340	0.358400	0.436420
C341	C34	0.377510	0.678980	0.375530
C351	C35	0.286490	0.813220	0.438300
C361	C36	0.740370	0.122860	0.538860
C371	C37	0.236650	0.465900	0.647870
C381	C38	0.552980	0.033640	0.855360
C391	C39	0.979100	0.587960	0.864530
C401	C40	0.981880	0.617640	0.148690
C411	C41	0.527170	0.061060	0.669450
C421	C42	0.018120	0.382360	0.851310
C431	C43	0.499730	0.121140	0.639820
C441	C44	0.280160	0.871880	0.361240
C451	C45	0.153580	0.387160	0.951310
C461	C46	0.599520	0.382360	0.648690
C471	C47	0.579640	0.435460	0.311620
C481	C48	0.579460	0.672800	0.297720
C491	C49	0.860550	0.807500	0.576670
C501	C50	0.458080	0.931620	0.288540
C511	C51	0.591790	0.929020	0.669030
C521	C52	0.028200	0.260800	0.830200
C531	C53	0.435680	0.194040	0.190000
C541	C54	0.972740	0.641600	0.936420
C551	C55	0.835760	0.662140	0.257030
C561	C56	0.564320	0.805960	0.810000
C571	C57	0.497900	0.337860	0.757030
C581	C58	0.104760	0.190280	0.889230
C591	C59	0.521900	0.725660	0.790830
C601	C60	0.679190	0.257620	0.635360
C611	C61	0.493600	0.204200	0.194090
C621	C62	0.809060	0.936280	0.116110
C631	C63	0.056490	0.321020	0.875530
C641	C64	0.578630	0.081540	0.171910
C651	C65	0.259630	0.877140	0.461140
C661	C66	0.827470	0.929060	0.559660
C671	C67	0.500270	0.878860	0.360180
C681	C68	0.085930	0.201140	0.401130
C691	C69	0.396570	0.607660	0.857680
C701	C70	0.752440	0.725660	0.709170
C711	C71	0.528390	0.133540	0.724310
C721	C72	0.391980	0.008040	0.076240
C731	C73	0.372930	0.667540	0.884060
C741	C74	0.379130	0.121140	0.860180
C751	C75	0.661930	0.866460	0.224310
C761	C76	0.476810	0.952180	0.562130
C771	C77	0.331950	0.807500	0.923330
C781	C78	0.079840	0.378960	0.033280
C791	C79	0.616210	0.031980	0.501750
C801	C80	0.586620	0.966360	0.355360
C811	C81	0.631060	0.967480	0.381540
C821	C82	0.689240	0.128720	0.057580
C831	C83	0.345250	0.007700	0.046760
C841	C84	0.252260	0.327200	0.797720
C851	C85	0.478100	0.274340	0.209170
C861	C86	0.274940	0.379540	0.916380
C871	C87	0.351810	0.031980	0.998250
C881	C88	0.509610	0.005380	0.370480
C891	C89	0.413380	0.033640	0.644640
C901	C90	0.172530	0.070940	0.440340
C911	C91	0.876040	0.554380	0.076750
C921	C92	0.685800	0.324800	0.691780
C931	C93	0.099710	0.186780	0.938300
C941	C94	0.475420	0.046360	0.087570
C951	C95	0.417670	0.353360	0.551850
C961	C96	0.771030	0.646640	0.051850
C971	C97	0.254660	0.936280	0.383890
C981	C98	0.448280	0.128840	0.178840
C991	C99	0.118050	0.079100	0.420760
C1001	C100	0.385660	0.641600	0.563580
C1011	C101	0.244970	0.336860	0.299450
C1021	C102	0.817960	0.871280	0.557580
C1031	C103	0.314200	0.675200	0.308220
C1041	C104	0.989400	0.324800	0.808220
C1051	C105	0.403550	0.399900	0.218000
C1061	C106	0.896000	0.585080	0.945210
C1071	C107	0.847960	0.871880	0.138760
C1081	C108	0.622490	0.321020	0.624470
C1091	C109	0.641440	0.529780	0.389710
C1101	C110	0.571010	0.952180	0.937870
C1111	C111	0.302200	0.204200	0.305910
C1121	C112	0.688260	0.970680	0.030560
C1131	C113	0.400020	0.991960	0.576240
C1141	C114	0.693150	0.805720	0.195990
C1151	C115	0.490390	0.994620	0.629520
C1161	C116	0.955590	0.730820	0.623810
C1171	C117	0.608020	0.991960	0.923760
C1181	C118	0.458800	0.621040	0.533280
C1191	C119	0.182460	0.060480	0.933910
C1201	C120	0.472830	0.938940	0.330550
C1211	C121	0.422880	0.128840	0.321160
C1221	C122	0.506400	0.795800	0.805910
C1231	C123	0.197150	0.920900	0.920760
C1241	C124	0.697800	0.795800	0.694090
C1251	C125	0.567060	0.412040	0.364530
C1261	C126	0.747740	0.672800	0.202280
C1271	C127	0.287070	0.798860	0.901130
C1281	C128	0.524580	0.953640	0.912430
C1291	C129	0.480760	0.728000	0.259040
C1301	C130	0.459260	0.387160	0.548690
C1311	C131	0.196550	0.399900	0.282000
C1321	C132	0.925290	0.569940	0.895030
C1331	C133	0.736480	0.000840	0.510960
C1341	C134	0.724520	0.981360	0.434130
C1351	C135	0.551720	0.871160	0.821160
C1361	C136	0.711880	0.852840	0.684770
C1371	C137	0.520810	0.070980	0.169030
C1381	C138	0.243470	0.929060	0.940340
C1391	C139	0.310760	0.871280	0.942420
C1401	C140	0.519600	0.280260	0.235090
C1411	C141	0.447020	0.966360	0.144640
C1421	C142	0.519240	0.272000	0.740960
C1431	C143	0.685610	0.561360	0.386530
C1441	C144	0.504770	0.569940	0.604970
C1451	C145	0.763350	0.534100	0.352130
C1461	C146	0.263520	0.999160	0.489040
C1471	C147	0.514990	0.994620	0.870480
C1481	C148	0.626990	0.374740	0.385750
C1491	C149	0.828780	0.529780	0.110290
C1501	C150	0.582330	0.646640	0.448150
C1511	C151	0.190940	0.063720	0.883890
C1521	C152	0.660170	0.918460	0.671910
C1531	C153	0.780970	0.143260	0.098910
C1541	C154	0.755030	0.663140	0.700550
C1551	C155	0.793950	0.608840	0.220720
C1561	C156	0.998270	0.374740	0.114250
C1571	C157	0.479190	0.929020	0.830970
C1581	C158	0.654750	0.992300	0.953240
C1591	C159	0.647050	0.007700	0.453240
C1601	C160	0.228970	0.353360	0.948150
C1611	C161	0.599980	0.008040	0.423760
C1621	C162	0.520200	0.735280	0.287000
C1631	C163	0.995770	0.607660	0.642320
C1641	C164	0.881950	0.920900	0.579240
C1651	C165	0.480400	0.719740	0.764910
C1661	C166	0.368940	0.032520	0.618460
C1671	C167	0.502100	0.662140	0.242970
C1681	C168	0.712930	0.201140	0.098870
C1691	C169	0.746790	0.022220	0.962810
C1701	C170	0.541200	0.378960	0.466720
C1711	C171	0.521780	0.953640	0.587570
C1721	C172	0.610300	0.931620	0.211460
C1731	C173	0.435280	0.852840	0.815230
C1741	C174	0.745340	0.063720	0.616110
C1751	C175	0.803450	0.600100	0.718000
C1761	C176	0.352950	0.992300	0.546760
C1771	C177	0.370280	0.194040	0.310000
C1781	C178	0.597210	0.608840	0.279280
C1791	C179	0.206050	0.391160	0.779280
C1801	C180	0.686410	0.269180	0.123810
C1811	C181	0.713510	0.186780	0.561700
C1821	C182	0.936810	0.742380	0.135360
C1831	C183	0.690210	0.333380	0.183830
C1841	C184	0.283020	0.728960	0.840060
C1851	C185	0.306850	0.194280	0.804010
C1861	C186	0.498870	0.194280	0.695990
C1871	C187	0.420360	0.564540	0.688380
C1881	C188	0.253210	0.977780	0.037190
C1891	C189	0.988020	0.728960	0.659940
C1901	C190	0.711000	0.260800	0.669800
C1911	C191	0.627070	0.332460	0.115940
C1921	C192	0.959530	0.667540	0.615940
C1931	C193	0.501130	0.805720	0.304010
C1941	C194	0.670970	0.813820	0.153900
C1951	C195	0.314390	0.438640	0.613470
C1961	C196	0.408210	0.070980	0.330970
C1971	C197	0.924230	0.856740	0.598910
C1981	C198	0.484790	0.186180	0.653900
C1991	C199	0.596450	0.600100	0.782000
C2001	C200	0.001730	0.625260	0.885750
C2011	C201	0.541920	0.068380	0.711460
C2021	C202	0.430420	0.445620	0.576750
C2031	C203	0.702550	0.534100	0.147870
C2041	C204	0.744520	0.735280	0.213000
C2051	C205	0.540740	0.612840	0.451310
C2061	C206	0.020900	0.412040	0.135470
C2071	C207	0.295040	0.809720	0.389230
C2081	C208	0.309790	0.666620	0.816170
C2091	C209	0.500700	0.345680	0.251110
C2101	C210	0.518920	0.585080	0.554790
C2111	C211	0.313590	0.730820	0.876190
C2121	C212	0.219030	0.856740	0.901090
C2131	C213	0.320810	0.742380	0.364640
C2141	C214	0.668050	0.192500	0.076670
C2151	C215	0.756530	0.070940	0.059660
C2161	C216	0.040470	0.332460	0.384060
C2171	C217	0.400480	0.617640	0.351310
C2181	C218	0.588230	0.938940	0.169450
C2191	C219	0.719840	0.128120	0.638760
C2201	C220	0.428990	0.047820	0.062130
C2211	C221	0.411770	0.061060	0.830550
C2221	C222	0.654480	0.620460	0.416380
C2231	C223	0.481080	0.414920	0.445210
C2241	C224	0.495230	0.430060	0.395030
C2251	C225	0.152040	0.128120	0.861240
C2261	C226	0.075770	0.143260	0.401090
C2271	C227	0.846420	0.612840	0.048690
C2281	C228	0.010600	0.675200	0.191780
C2291	C229	0.311740	0.029320	0.969440
C2301	C230	0.401460	0.967480	0.118460
C2311	C231	0.737320	0.999160	0.010960
C2321	C232	0.275480	0.018640	0.565870
C2331	C233	0.123960	0.445620	0.923250
C2341	C234	0.900290	0.813220	0.061700
C2351	C235	0.171220	0.470220	0.889710
C2361	C236	0.791240	0.728000	0.240960
C2371	C237	0.136770	0.122860	0.961140
C2381	C238	0.569580	0.554380	0.423250
C2391	C239	0.023590	0.666620	0.683830
C2401	C240	0.164240	0.337860	0.742970
C2411	C241	0.011980	0.271040	0.340060
C2421	C242	0.247560	0.274340	0.290830
C2431	C243	0.027260	0.358400	0.063580
C2441	C244	0.478220	0.046360	0.412430
C2451	C245	0.799860	0.719740	0.735090
C2461	C246	0.402790	0.391160	0.720720
C2471	C247	0.230990	0.022220	0.537190
C2481	C248	0.620870	0.878860	0.139820
C2491	C249	0.471610	0.866460	0.275690
C2501	C250	0.943510	0.678980	0.124470
C2511	C251	0.004230	0.392340	0.357680
C2521	C252	0.339830	0.081540	0.328090
C2531	C253	0.581830	0.663140	0.799450
C2541	C254	0.418170	0.336860	0.200550
C2551	C255	0.242940	0.939520	0.433910
C2561	C256	0.863230	0.877140	0.038860
C2571	C257	0.329030	0.186180	0.846100
C2581	C258	0.817540	0.939520	0.066090
C2591	C259	0.705880	0.018640	0.934130
C2601	C260	0.564720	0.147160	0.184770
C2611	C261	0.895240	0.809720	0.110770
C2621	C262	0.373010	0.625260	0.614250
C2631	C263	0.246970	0.438640	0.886530
C2641	C264	0.984900	0.435460	0.188380
C2651	C265	0.753030	0.561360	0.113470
C2661	C266	0.383790	0.968020	0.498250
C2671	C267	0.485010	0.005380	0.129520
C2681	C268	0.846380	0.654320	0.751110
C2691	C269	0.523190	0.047820	0.437870
C2701	C270	0.976410	0.333380	0.316170
C2711	C271	0.338070	0.133540	0.775690
C2721	C272	0.358560	0.470220	0.610290
C2731	C273	0.629720	0.805960	0.690000
C2741	C274	0.288120	0.147160	0.315230
C2751	C275	0.139450	0.192500	0.423330
C2761	C276	0.104000	0.414920	0.054790
C2771	C277	0.289000	0.739200	0.330200
C2781	C278	0.432940	0.587960	0.635470
C2791	C279	0.802850	0.079100	0.079240
C2801	C280	0.479800	0.264720	0.713000
N11	N1	0.463010	0.004900	0.343660
N21	N2	0.780790	0.997120	0.541920
N31	N3	0.368610	0.614960	0.319030
N41	N4	0.631390	0.385040	0.680970
N51	N5	0.219210	0.002880	0.458080
N61	N6	0.016430	0.614960	0.180970
N71	N7	0.150300	0.405880	0.256850
N81	N8	0.558960	0.602620	0.253090
N91	N9	0.364270	0.605180	0.825960
N101	N10	0.838420	0.602620	0.246910
N111	N11	0.030550	0.605180	0.674040
N121	N12	0.849700	0.594120	0.743150
N131	N13	0.532090	0.004900	0.156340
N141	N14	0.777910	0.002880	0.041920
N151	N15	0.222090	0.997120	0.958080
N161	N16	0.441040	0.397380	0.746910
N171	N17	0.635730	0.394820	0.174040
N181	N18	0.983570	0.385040	0.819030
N191	N19	0.161580	0.397380	0.753090
N201	N20	0.443820	0.405880	0.243150
N211	N21	0.536990	0.995100	0.656340
N221	N22	0.556180	0.594120	0.756850
N231	N23	0.467910	0.995100	0.843660
N241	N24	0.969450	0.394820	0.325960
O11	O1	0.723860	0.491360	0.181540
O21	O2	0.215220	0.508640	0.681540
O31	O3	0.361640	0.444440	0.857580
O41	O4	0.010020	0.465820	0.206880
O51	O5	0.276140	0.508640	0.818460
O61	O6	0.989980	0.534180	0.793120
O71	O7	0.929080	0.427060	0.214380
O81	O8	0.466430	0.638740	0.483630
O91	O9	0.894830	0.638740	0.016370
O101	O10	0.533570	0.361260	0.516370
O111	O11	0.638360	0.555560	0.142420
O121	O12	0.105170	0.361260	0.983630
O131	O13	0.806080	0.555560	0.357580
O141	O14	0.193920	0.444440	0.642420
O151	O15	0.524160	0.465820	0.293120
O161	O16	0.356140	0.572940	0.714380
O171	O17	0.475840	0.534180	0.706880
O181	O18	0.784780	0.491360	0.318460
O191	O19	0.643860	0.427060	0.285620
O201	O20	0.070920	0.572940	0.785620
