data_JORSEQ_clean_PM
_symmetry_space_group_name_H-M	'P1'
_cell_length_a	36.873000
_cell_length_b	9.315200
_cell_length_c	10.928800
_cell_angle_alpha	90.000000
_cell_angle_beta	93.643000
_cell_angle_gamma	90.000000
_symmetry_Int_Tables_number 1

loop_
_symmetry_equiv_pos_as_xyz
'x,y,z'

loop_
_atom_site_label
_atom_site_type_symbol
_atom_site_fract_x
_atom_site_fract_y
_atom_site_fract_z
Cd11	Cd1	0.207490	0.806080	0.395790
N11	N1	0.219400	0.981800	0.250000
N21	N2	0.226200	0.082100	0.070400
N31	N3	0.250400	0.152800	0.157100
N41	N4	0.184100	0.894700	0.075800
H11	H1	0.179600	0.898900	0.997700
H21	H2	0.173000	0.832900	0.118500
N51	N5	0.261400	0.123900	0.373100
H31	H3	0.276800	0.193100	0.378100
H41	H4	0.256400	0.077300	0.437900
O11	O1	0.157700	0.746900	0.282400
O21	O2	0.137300	0.922600	0.394200
O31	O3	0.069100	0.994600	0.371600
H51	H5	0.090300	0.994700	0.399500
C11	C1	0.132200	0.827000	0.310300
C21	C2	0.032500	0.881000	0.210600
C31	C3	0.065400	0.900000	0.272600
C41	C4	0.095600	0.815000	0.245300
C51	C5	0.091900	0.717000	0.152000
H61	H6	0.111000	0.656400	0.136900
C61	C6	0.058900	0.709000	0.078100
C71	C7	0.028900	0.793000	0.107400
C81	C8	0.996600	0.787000	0.028600
H71	H7	0.976700	0.843600	0.043900
C91	C9	0.995300	0.696000	0.930600
H81	H8	0.974300	0.695200	0.878600
C101	C10	0.023200	0.605000	0.903900
H91	H9	0.020500	0.539500	0.839600
C111	C11	0.055700	0.614000	0.976600
H101	H10	0.075400	0.556700	0.958400
H111	H11	0.008300	0.035200	0.317800
C121	C12	0.208700	0.986100	0.131800
C131	C13	0.244700	0.088200	0.262600
Cd21	Cd2	0.707490	0.306080	0.395790
N61	N6	0.719400	0.481800	0.250000
N71	N7	0.726200	0.582100	0.070400
N81	N8	0.750400	0.652800	0.157100
N91	N9	0.684100	0.394700	0.075800
H121	H12	0.679600	0.398900	0.997700
H131	H13	0.673000	0.332900	0.118500
N101	N10	0.761400	0.623900	0.373100
H141	H14	0.776800	0.693100	0.378100
H151	H15	0.756400	0.577300	0.437900
O41	O4	0.657700	0.246900	0.282400
O51	O5	0.637300	0.422600	0.394200
O61	O6	0.569100	0.494600	0.371600
H161	H16	0.590300	0.494700	0.399500
C141	C14	0.632200	0.327000	0.310300
C151	C15	0.532500	0.381000	0.210600
C161	C16	0.565400	0.400000	0.272600
C171	C17	0.595600	0.315000	0.245300
C181	C18	0.591900	0.217000	0.152000
H171	H17	0.611000	0.156400	0.136900
C191	C19	0.558900	0.209000	0.078100
C201	C20	0.528900	0.293000	0.107400
C211	C21	0.496600	0.287000	0.028600
H181	H18	0.476700	0.343600	0.043900
C221	C22	0.495300	0.196000	0.930600
H191	H19	0.474300	0.195200	0.878600
C231	C23	0.523200	0.105000	0.903900
H201	H20	0.520500	0.039500	0.839600
C241	C24	0.555700	0.114000	0.976600
H211	H21	0.575400	0.056700	0.958400
H221	H22	0.508300	0.535200	0.317800
C251	C25	0.708700	0.486100	0.131800
C261	C26	0.744700	0.588200	0.262600
Cd31	Cd3	0.792510	0.806080	0.104210
N111	N11	0.780600	0.981800	0.250000
N121	N12	0.773800	0.082100	0.429600
N131	N13	0.749600	0.152800	0.342900
N141	N14	0.815900	0.894700	0.424200
H231	H23	0.820400	0.898900	0.502300
H241	H24	0.827000	0.832900	0.381500
N151	N15	0.738600	0.123900	0.126900
H251	H25	0.723200	0.193100	0.121900
H261	H26	0.743600	0.077300	0.062100
O71	O7	0.842300	0.746900	0.217600
O81	O8	0.862700	0.922600	0.105800
O91	O9	0.930900	0.994600	0.128400
H271	H27	0.909700	0.994700	0.100500
C271	C27	0.867800	0.827000	0.189700
C281	C28	0.967500	0.881000	0.289400
C291	C29	0.934600	0.900000	0.227400
C301	C30	0.904400	0.815000	0.254700
C311	C31	0.908100	0.717000	0.348000
H281	H28	0.889000	0.656400	0.363100
C321	C32	0.941100	0.709000	0.421900
C331	C33	0.971100	0.793000	0.392600
C341	C34	0.003400	0.787000	0.471400
H291	H29	0.023300	0.843600	0.456100
C351	C35	0.004700	0.696000	0.569400
H301	H30	0.025700	0.695200	0.621400
C361	C36	0.976800	0.605000	0.596100
H311	H31	0.979500	0.539500	0.660400
C371	C37	0.944300	0.614000	0.523400
H321	H32	0.924600	0.556700	0.541600
H331	H33	0.991700	0.035200	0.182200
C381	C38	0.791300	0.986100	0.368200
C391	C39	0.755300	0.088200	0.237400
Cd41	Cd4	0.292510	0.306080	0.104210
N161	N16	0.280600	0.481800	0.250000
N171	N17	0.273800	0.582100	0.429600
N181	N18	0.249600	0.652800	0.342900
N191	N19	0.315900	0.394700	0.424200
H341	H34	0.320400	0.398900	0.502300
H351	H35	0.327000	0.332900	0.381500
N201	N20	0.238600	0.623900	0.126900
H361	H36	0.223200	0.693100	0.121900
H371	H37	0.243600	0.577300	0.062100
O101	O10	0.342300	0.246900	0.217600
O111	O11	0.362700	0.422600	0.105800
O121	O12	0.430900	0.494600	0.128400
H381	H38	0.409700	0.494700	0.100500
C401	C40	0.367800	0.327000	0.189700
C411	C41	0.467500	0.381000	0.289400
C421	C42	0.434600	0.400000	0.227400
C431	C43	0.404400	0.315000	0.254700
C441	C44	0.408100	0.217000	0.348000
H391	H39	0.389000	0.156400	0.363100
C451	C45	0.441100	0.209000	0.421900
C461	C46	0.471100	0.293000	0.392600
C471	C47	0.503400	0.287000	0.471400
H401	H40	0.523300	0.343600	0.456100
C481	C48	0.504700	0.196000	0.569400
H411	H41	0.525700	0.195200	0.621400
C491	C49	0.476800	0.105000	0.596100
H421	H42	0.479500	0.039500	0.660400
C501	C50	0.444300	0.114000	0.523400
H431	H43	0.424600	0.056700	0.541600
H441	H44	0.491700	0.535200	0.182200
C511	C51	0.291300	0.486100	0.368200
C521	C52	0.255300	0.588200	0.237400
Cd51	Cd5	0.792510	0.193920	0.604210
N211	N21	0.780600	0.018200	0.750000
N221	N22	0.773800	0.917900	0.929600
N231	N23	0.749600	0.847200	0.842900
N241	N24	0.815900	0.105300	0.924200
H451	H45	0.820400	0.101100	0.002300
H461	H46	0.827000	0.167100	0.881500
N251	N25	0.738600	0.876100	0.626900
H471	H47	0.723200	0.806900	0.621900
H481	H48	0.743600	0.922700	0.562100
O131	O13	0.842300	0.253100	0.717600
O141	O14	0.862700	0.077400	0.605800
O151	O15	0.930900	0.005400	0.628400
H491	H49	0.909700	0.005300	0.600500
C531	C53	0.867800	0.173000	0.689700
C541	C54	0.967500	0.119000	0.789400
C551	C55	0.934600	0.100000	0.727400
C561	C56	0.904400	0.185000	0.754700
C571	C57	0.908100	0.283000	0.848000
H501	H50	0.889000	0.343600	0.863100
C581	C58	0.941100	0.291000	0.921900
C591	C59	0.971100	0.207000	0.892600
C601	C60	0.003400	0.213000	0.971400
H511	H51	0.023300	0.156400	0.956100
C611	C61	0.004700	0.304000	0.069400
H521	H52	0.025700	0.304800	0.121400
C621	C62	0.976800	0.395000	0.096100
H531	H53	0.979500	0.460500	0.160400
C631	C63	0.944300	0.386000	0.023400
H541	H54	0.924600	0.443300	0.041600
H551	H55	0.991700	0.964800	0.682200
C641	C64	0.791300	0.013900	0.868200
C651	C65	0.755300	0.911800	0.737400
Cd61	Cd6	0.292510	0.693920	0.604210
N261	N26	0.280600	0.518200	0.750000
N271	N27	0.273800	0.417900	0.929600
N281	N28	0.249600	0.347200	0.842900
N291	N29	0.315900	0.605300	0.924200
H561	H56	0.320400	0.601100	0.002300
H571	H57	0.327000	0.667100	0.881500
N301	N30	0.238600	0.376100	0.626900
H581	H58	0.223200	0.306900	0.621900
H591	H59	0.243600	0.422700	0.562100
O161	O16	0.342300	0.753100	0.717600
O171	O17	0.362700	0.577400	0.605800
O181	O18	0.430900	0.505400	0.628400
H601	H60	0.409700	0.505300	0.600500
C661	C66	0.367800	0.673000	0.689700
C671	C67	0.467500	0.619000	0.789400
C681	C68	0.434600	0.600000	0.727400
C691	C69	0.404400	0.685000	0.754700
C701	C70	0.408100	0.783000	0.848000
H611	H61	0.389000	0.843600	0.863100
C711	C71	0.441100	0.791000	0.921900
C721	C72	0.471100	0.707000	0.892600
C731	C73	0.503400	0.713000	0.971400
H621	H62	0.523300	0.656400	0.956100
C741	C74	0.504700	0.804000	0.069400
H631	H63	0.525700	0.804800	0.121400
C751	C75	0.476800	0.895000	0.096100
H641	H64	0.479500	0.960500	0.160400
C761	C76	0.444300	0.886000	0.023400
H651	H65	0.424600	0.943300	0.041600
H661	H66	0.491700	0.464800	0.682200
C771	C77	0.291300	0.513900	0.868200
C781	C78	0.255300	0.411800	0.737400
Cd71	Cd7	0.207490	0.193920	0.895790
N311	N31	0.219400	0.018200	0.750000
N321	N32	0.226200	0.917900	0.570400
N331	N33	0.250400	0.847200	0.657100
N341	N34	0.184100	0.105300	0.575800
H671	H67	0.179600	0.101100	0.497700
H681	H68	0.173000	0.167100	0.618500
N351	N35	0.261400	0.876100	0.873100
H691	H69	0.276800	0.806900	0.878100
H701	H70	0.256400	0.922700	0.937900
O191	O19	0.157700	0.253100	0.782400
O201	O20	0.137300	0.077400	0.894200
O211	O21	0.069100	0.005400	0.871600
H711	H71	0.090300	0.005300	0.899500
C791	C79	0.132200	0.173000	0.810300
C801	C80	0.032500	0.119000	0.710600
C811	C81	0.065400	0.100000	0.772600
C821	C82	0.095600	0.185000	0.745300
C831	C83	0.091900	0.283000	0.652000
H721	H72	0.111000	0.343600	0.636900
C841	C84	0.058900	0.291000	0.578100
C851	C85	0.028900	0.207000	0.607400
C861	C86	0.996600	0.213000	0.528600
H731	H73	0.976700	0.156400	0.543900
C871	C87	0.995300	0.304000	0.430600
H741	H74	0.974300	0.304800	0.378600
C881	C88	0.023200	0.395000	0.403900
H751	H75	0.020500	0.460500	0.339600
C891	C89	0.055700	0.386000	0.476600
H761	H76	0.075400	0.443300	0.458400
H771	H77	0.008300	0.964800	0.817800
C901	C90	0.208700	0.013900	0.631800
C911	C91	0.244700	0.911800	0.762600
Cd81	Cd8	0.707490	0.693920	0.895790
N361	N36	0.719400	0.518200	0.750000
N371	N37	0.726200	0.417900	0.570400
N381	N38	0.750400	0.347200	0.657100
N391	N39	0.684100	0.605300	0.575800
H781	H78	0.679600	0.601100	0.497700
H791	H79	0.673000	0.667100	0.618500
N401	N40	0.761400	0.376100	0.873100
H801	H80	0.776800	0.306900	0.878100
H811	H81	0.756400	0.422700	0.937900
O221	O22	0.657700	0.753100	0.782400
O231	O23	0.637300	0.577400	0.894200
O241	O24	0.569100	0.505400	0.871600
H821	H82	0.590300	0.505300	0.899500
C921	C92	0.632200	0.673000	0.810300
C931	C93	0.532500	0.619000	0.710600
C941	C94	0.565400	0.600000	0.772600
C951	C95	0.595600	0.685000	0.745300
C961	C96	0.591900	0.783000	0.652000
H831	H83	0.611000	0.843600	0.636900
C971	C97	0.558900	0.791000	0.578100
C981	C98	0.528900	0.707000	0.607400
C991	C99	0.496600	0.713000	0.528600
H841	H84	0.476700	0.656400	0.543900
C1001	C100	0.495300	0.804000	0.430600
H851	H85	0.474300	0.804800	0.378600
C1011	C101	0.523200	0.895000	0.403900
H861	H86	0.520500	0.960500	0.339600
C1021	C102	0.555700	0.886000	0.476600
H871	H87	0.575400	0.943300	0.458400
H881	H88	0.508300	0.464800	0.817800
C1031	C103	0.708700	0.513900	0.631800
C1041	C104	0.744700	0.411800	0.762600
C1051	C105	0.000000	0.974000	0.250000
C1061	C106	0.500000	0.474000	0.250000
C1071	C107	0.000000	0.026000	0.750000
C1081	C108	0.500000	0.526000	0.750000
