data_JOVROD_clean_PM
_symmetry_space_group_name_H-M	'P1'
_cell_length_a	9.257100
_cell_length_b	11.823000
_cell_length_c	16.861000
_cell_angle_alpha	90.000000
_cell_angle_beta	90.000000
_cell_angle_gamma	90.000000
_symmetry_Int_Tables_number 1

loop_
_symmetry_equiv_pos_as_xyz
'x,y,z'

loop_
_atom_site_label
_atom_site_type_symbol
_atom_site_fract_x
_atom_site_fract_y
_atom_site_fract_z
Co11	Co1	0.833680	0.541620	0.113460
C11	C1	0.811500	0.382800	0.111900
N11	N1	0.649800	0.546100	0.962670
N21	N2	0.883400	0.796400	0.114890
C21	C2	0.860800	0.701300	0.114290
C31	C3	0.661400	0.559700	0.172920
C41	C4	0.010700	0.526600	0.057740
C51	C5	0.722900	0.547900	0.017890
C61	C6	0.930900	0.524900	0.212320
N31	N3	0.805400	0.286000	0.111000
N41	N4	0.979300	0.509200	0.273260
N51	N5	0.559100	0.570600	0.210130
N61	N6	0.119900	0.519300	0.025740
Li11	Li1	0.476600	0.549000	0.884600
Co21	Co2	0.666320	0.458380	0.613460
C71	C7	0.688500	0.617200	0.611900
N71	N7	0.850200	0.453900	0.462670
N81	N8	0.616600	0.203600	0.614890
C81	C8	0.639200	0.298700	0.614290
C91	C9	0.838600	0.440300	0.672920
C101	C10	0.489300	0.473400	0.557740
C111	C11	0.777100	0.452100	0.517890
C121	C12	0.569100	0.475100	0.712320
N91	N9	0.694600	0.714000	0.611000
N101	N10	0.520700	0.490800	0.773260
N111	N11	0.940900	0.429400	0.710130
N121	N12	0.380100	0.480700	0.525740
Li21	Li2	0.023400	0.451000	0.384600
Co31	Co3	0.166320	0.041620	0.386540
C131	C13	0.188500	0.882800	0.388100
N131	N13	0.350200	0.046100	0.537330
N141	N14	0.116600	0.296400	0.385110
C141	C14	0.139200	0.201300	0.385710
C151	C15	0.338600	0.059700	0.327080
C161	C16	0.989300	0.026600	0.442260
C171	C17	0.277100	0.047900	0.482110
C181	C18	0.069100	0.024900	0.287680
N151	N15	0.194600	0.786000	0.389000
N161	N16	0.020700	0.009200	0.226740
N171	N17	0.440900	0.070600	0.289870
N181	N18	0.880100	0.019300	0.474260
Li31	Li3	0.523400	0.049000	0.615400
Co41	Co4	0.333680	0.958380	0.886540
C191	C19	0.311500	0.117200	0.888100
N191	N19	0.149800	0.953900	0.037330
N201	N20	0.383400	0.703600	0.885110
C201	C20	0.360800	0.798700	0.885710
C211	C21	0.161400	0.940300	0.827080
C221	C22	0.510700	0.973400	0.942260
C231	C23	0.222900	0.952100	0.982110
C241	C24	0.430900	0.975100	0.787680
N211	N21	0.305400	0.214000	0.889000
N221	N22	0.479300	0.990800	0.726740
N231	N23	0.059100	0.929400	0.789870
N241	N24	0.619900	0.980700	0.974260
Li41	Li4	0.976600	0.951000	0.115400
