data_JOVXEZ_clean_PM
_symmetry_space_group_name_H-M	'P1'
_cell_length_a	11.066700
_cell_length_b	11.066700
_cell_length_c	14.914200
_cell_angle_alpha	80.653200
_cell_angle_beta	72.107100
_cell_angle_gamma	111.535000
_symmetry_Int_Tables_number 1

loop_
_symmetry_equiv_pos_as_xyz
'x,y,z'

loop_
_atom_site_label
_atom_site_type_symbol
_atom_site_fract_x
_atom_site_fract_y
_atom_site_fract_z
Cu11	Cu1	0.183150	0.035520	0.328250
Cu21	Cu2	0.136230	0.488600	0.828250
Cu31	Cu3	0.863770	0.511400	0.171750
Cu41	Cu4	0.816850	0.964480	0.671750
H11	H1	0.990600	0.657900	0.576100
H21	H2	0.335300	0.174400	0.900300
H31	H3	0.425300	0.764400	0.400300
H41	H4	0.865100	0.652800	0.325700
H51	H5	0.384200	0.608400	0.952200
H61	H6	0.433100	0.817600	0.128500
H71	H7	0.478500	0.190800	0.174300
H81	H8	0.734000	0.566700	0.923900
H91	H9	0.566900	0.182400	0.871500
H101	H10	0.615800	0.391600	0.047800
H111	H11	0.822900	0.736300	0.076400
H121	H12	0.144600	0.243100	0.209300
H131	H13	0.521500	0.809200	0.825700
H141	H14	0.574700	0.235600	0.599700
H151	H15	0.298500	0.931100	0.163400
H161	H16	0.177100	0.263700	0.923600
H171	H17	0.009400	0.342100	0.423900
H181	H18	0.405500	0.538100	0.663400
H191	H19	0.553900	0.438400	0.628500
H201	H20	0.134900	0.347200	0.674300
H211	H21	0.594500	0.461900	0.336600
H221	H22	0.047600	0.646100	0.709300
H231	H23	0.312700	0.899300	0.423600
H241	H24	0.446100	0.561600	0.371500
H251	H25	0.664700	0.825600	0.099700
H261	H26	0.687300	0.100700	0.576400
H271	H27	0.855400	0.756900	0.790700
H281	H28	0.060600	0.336400	0.547800
H291	H29	0.952400	0.353900	0.290700
H301	H30	0.939400	0.663600	0.452200
H311	H31	0.701500	0.068900	0.836600
H321	H32	0.266000	0.433300	0.076100
C11	C1	0.564800	0.757400	0.844000
C21	C2	0.594800	0.198700	0.650700
C31	C3	0.241100	0.271800	0.174900
C41	C4	0.518500	0.362000	0.077300
C51	C5	0.334600	0.880500	0.363700
C61	C6	0.939300	0.595800	0.422700
C71	C7	0.686300	0.612900	0.904600
C81	C8	0.650600	0.754500	0.150700
C91	C9	0.758900	0.728200	0.825100
C101	C10	0.255800	0.301700	0.863700
C111	C11	0.313700	0.387100	0.095400
C121	C12	0.665400	0.119500	0.636300
C131	C13	0.387500	0.460400	0.710500
C141	C14	0.101400	0.408800	0.656000
C151	C15	0.954900	0.524000	0.977700
C161	C16	0.593400	0.169900	0.809500
C171	C17	0.349400	0.245500	0.849300
C181	C18	0.898600	0.591200	0.344000
C191	C19	0.553800	0.224100	0.739700
C201	C20	0.446200	0.775900	0.260300
C211	C21	0.481500	0.638000	0.922700
C221	C22	0.520600	0.597100	0.309500
C231	C23	0.612500	0.539600	0.289500
C241	C24	0.946700	0.416000	0.325100
C251	C25	0.744200	0.698300	0.136300
C261	C26	0.536200	0.706500	0.239700
C271	C27	0.998300	0.067400	0.477700
C281	C28	0.329100	0.902000	0.210500
C291	C29	0.045100	0.476000	0.022300
C301	C30	0.670900	0.098000	0.789500
C311	C31	0.406600	0.830100	0.190500
C321	C32	0.020700	0.498300	0.542800
C331	C33	0.479400	0.402900	0.690500
C341	C34	0.017500	0.590900	0.595400
C351	C35	0.458900	0.436500	0.042800
C361	C36	0.979300	0.501700	0.457200
C371	C37	0.982500	0.409100	0.404600
C381	C38	0.435200	0.242600	0.156000
C391	C39	0.463800	0.293500	0.760300
C401	C40	0.001700	0.932600	0.522300
C411	C41	0.541100	0.563500	0.957200
C421	C42	0.053300	0.584000	0.674900
C431	C43	0.060700	0.404200	0.577300
C441	C44	0.405200	0.801300	0.349300
N11	N1	0.700300	0.801800	0.793900
N21	N2	0.271900	0.407600	0.796300
N31	N3	0.904300	0.505800	0.293900
N41	N4	0.703900	0.068200	0.703700
N51	N5	0.296100	0.931800	0.296300
N61	N6	0.095700	0.494200	0.706100
N71	N7	0.728100	0.592400	0.203700
N81	N8	0.299700	0.198200	0.206100
O11	O1	0.141000	0.462500	0.962100
O21	O2	0.070800	0.128700	0.388300
O31	O3	0.017000	0.459100	0.111700
O41	O4	0.983000	0.540900	0.888300
O51	O5	0.075400	0.896900	0.462100
O61	O6	0.924600	0.103100	0.537900
O71	O7	0.929200	0.871300	0.611700
O81	O8	0.859000	0.537500	0.037900
