data_JOVYAW_clean_PM
_symmetry_space_group_name_H-M	'P1'
_cell_length_a	9.530000
_cell_length_b	10.168000
_cell_length_c	13.026000
_cell_angle_alpha	111.005000
_cell_angle_beta	105.569000
_cell_angle_gamma	90.497000
_symmetry_Int_Tables_number 1

loop_
_symmetry_equiv_pos_as_xyz
'x,y,z'

loop_
_atom_site_label
_atom_site_type_symbol
_atom_site_fract_x
_atom_site_fract_y
_atom_site_fract_z
C11	C1	0.593700	0.225000	0.847700
C21	C2	0.571800	0.308700	0.781800
H11	H1	0.537500	0.266500	0.702100
C31	C3	0.601500	0.456700	0.835600
C41	C4	0.660800	0.515300	0.954100
H21	H2	0.683400	0.613200	0.989800
C51	C5	0.648500	0.287400	0.965400
H31	H3	0.659200	0.229900	0.008000
C61	C6	0.688500	0.432400	0.023200
C71	C7	0.751600	0.497000	0.142200
C81	C8	0.810200	0.546000	0.244000
C91	C9	0.878200	0.606200	0.362700
C101	C10	0.795500	0.656900	0.441600
H41	H4	0.694500	0.654700	0.414100
C111	C11	0.861700	0.709000	0.557800
C121	C12	0.013500	0.717400	0.601100
H51	H5	0.058400	0.754300	0.680000
C131	C13	0.097900	0.669700	0.524500
C141	C14	0.028400	0.610700	0.409100
H61	H6	0.084300	0.571700	0.359400
C151	C15	0.561300	0.066100	0.788800
C161	C16	0.572300	0.544900	0.766300
C171	C17	0.768800	0.756200	0.638800
C181	C18	0.260700	0.675300	0.568600
O11	O1	0.575600	0.991800	0.850000
O21	O2	0.527500	0.010300	0.682900
O31	O3	0.599600	0.680000	0.818600
O41	O4	0.524400	0.484300	0.659800
O51	O5	0.825700	0.841300	0.737100
O61	O6	0.633500	0.712300	0.599300
O71	O7	0.323900	0.756400	0.669700
O81	O8	0.321600	0.596000	0.499000
Zn11	Zn1	0.540710	0.797450	0.726170
C191	C19	0.406300	0.775000	0.152300
C201	C20	0.428200	0.691300	0.218200
H71	H7	0.462500	0.733500	0.297900
C211	C21	0.398500	0.543300	0.164400
C221	C22	0.339200	0.484700	0.045900
H81	H8	0.316600	0.386800	0.010200
C231	C23	0.351500	0.712600	0.034600
H91	H9	0.340800	0.770100	0.992000
C241	C24	0.311500	0.567600	0.976800
C251	C25	0.248400	0.503000	0.857800
C261	C26	0.189800	0.454000	0.756000
C271	C27	0.121800	0.393800	0.637300
C281	C28	0.204500	0.343100	0.558400
H101	H10	0.305500	0.345300	0.585900
C291	C29	0.138300	0.291000	0.442200
C301	C30	0.986500	0.282600	0.398900
H111	H11	0.941600	0.245700	0.320000
C311	C31	0.902100	0.330300	0.475500
C321	C32	0.971600	0.389300	0.590900
H121	H12	0.915700	0.428300	0.640600
C331	C33	0.438700	0.933900	0.211200
C341	C34	0.427700	0.455100	0.233700
C351	C35	0.231200	0.243800	0.361200
C361	C36	0.739300	0.324700	0.431400
O91	O9	0.424400	0.008200	0.150000
O101	O10	0.472500	0.989700	0.317100
O111	O11	0.400400	0.320000	0.181400
O121	O12	0.475600	0.515700	0.340200
O131	O13	0.174300	0.158700	0.262900
O141	O14	0.366500	0.287700	0.400700
O151	O15	0.676100	0.243600	0.330300
O161	O16	0.678400	0.404000	0.501000
Zn21	Zn2	0.459290	0.202550	0.273830
Zn31	Zn3	0.500000	0.500000	0.500000
