data_JOXPIX_clean_PM
_symmetry_space_group_name_H-M	'P1'
_cell_length_a	13.847500
_cell_length_b	15.171900
_cell_length_c	16.477000
_cell_angle_alpha	75.798000
_cell_angle_beta	81.449000
_cell_angle_gamma	63.074000
_symmetry_Int_Tables_number 1

loop_
_symmetry_equiv_pos_as_xyz
'x,y,z'

loop_
_atom_site_label
_atom_site_type_symbol
_atom_site_fract_x
_atom_site_fract_y
_atom_site_fract_z
Ag11	Ag1	0.762130	0.087110	0.260100
Ag21	Ag2	0.669800	0.538190	0.695120
Ag31	Ag3	0.427270	0.093330	0.598940
Ag41	Ag4	0.335090	0.533000	0.027440
Ag51	Ag5	0.912350	0.913730	0.077480
Ag61	Ag6	0.999940	0.463300	0.642860
C11	C1	0.723900	0.675300	0.467700
C21	C2	0.809300	0.589000	0.506300
C31	C3	0.781400	0.773700	0.513800
H11	H1	0.775300	0.836600	0.516300
C41	C4	0.864400	0.687400	0.554500
H21	H2	0.911100	0.694300	0.585000
C51	C5	0.832000	0.480800	0.503500
C61	C6	0.639800	0.672300	0.420000
C71	C7	0.832300	0.760600	0.276000
C81	C8	0.789500	0.864700	0.254000
C91	C9	0.911500	0.864400	0.332800
H31	H3	0.939600	0.898300	0.354900
C101	C10	0.956700	0.760300	0.353100
H41	H4	0.016100	0.725500	0.386900
C111	C11	0.785100	0.701900	0.247200
C121	C12	0.694400	0.929900	0.195600
C131	C13	0.513900	0.762600	0.620400
C141	C14	0.463500	0.868000	0.600700
C151	C15	0.635800	0.769500	0.697100
H51	H5	0.695800	0.737400	0.730400
C161	C16	0.585100	0.872800	0.677700
H61	H6	0.611400	0.909400	0.698200
C171	C17	0.472800	0.699400	0.592400
C181	C18	0.364000	0.930700	0.546000
C191	C19	0.864500	0.407100	0.812000
C201	C20	0.946000	0.319900	0.856800
C211	C21	0.805400	0.310800	0.765400
H71	H7	0.757300	0.305000	0.735500
C221	C22	0.887000	0.224400	0.808500
H81	H8	0.893600	0.161600	0.805100
C231	C23	0.847900	0.514200	0.812400
C241	C24	0.022600	0.327700	0.908700
C251	C25	0.834100	0.243900	0.047600
C261	C26	0.887700	0.138400	0.065500
C271	C27	0.715700	0.236900	0.968100
H91	H9	0.656400	0.268900	0.934100
C281	C28	0.768600	0.134000	0.985400
H101	H10	0.744600	0.097500	0.962500
C291	C29	0.867000	0.309800	0.084000
C301	C30	0.986700	0.076200	0.119400
C311	C31	0.533600	0.407000	0.151400
C321	C32	0.616500	0.319800	0.194100
C331	C33	0.479800	0.307900	0.102600
H111	H11	0.434800	0.301700	0.069900
C341	C34	0.558900	0.222600	0.146400
H121	H12	0.563400	0.159800	0.145600
C351	C35	0.513200	0.515000	0.150500
C361	C36	0.698900	0.321900	0.243300
Gd11	Gd1	0.755850	0.481310	0.323210
Gd21	Gd2	0.132120	0.201290	0.103660
N11	N1	0.879600	0.595300	0.551600
N21	N2	0.710400	0.768500	0.471400
N31	N3	0.916800	0.708900	0.325300
N41	N4	0.828600	0.917400	0.282200
N51	N5	0.629000	0.227500	0.189900
N61	N6	0.467100	0.399000	0.106300
N71	N7	0.498600	0.922500	0.629800
N81	N8	0.600700	0.714100	0.669100
N91	N9	0.795900	0.401600	0.767000
N101	N10	0.955500	0.228600	0.854100
N111	N11	0.747800	0.292500	0.999300
N121	N12	0.854200	0.083700	0.034400
O11	O1	0.870700	0.452600	0.433300
O21	O2	0.818900	0.428000	0.568900
O31	O3	0.649400	0.584400	0.422200
O41	O4	0.575200	0.750900	0.380700
O51	O5	0.809200	0.613500	0.289200
O61	O6	0.730700	0.742700	0.185100
O71	O7	0.601000	0.951900	0.228800
O81	O8	0.718800	0.960300	0.122000
O91	O9	0.069900	0.249900	0.964700
O101	O10	0.031300	0.406500	0.892900
O111	O11	0.789500	0.550500	0.872900
O121	O12	0.885300	0.557400	0.751600
O131	O13	0.946900	0.263200	0.130000
O141	O14	0.812400	0.401300	0.068000
O151	O15	0.075200	0.076600	0.088000
O161	O16	0.970400	0.029000	0.188400
O171	O17	0.778000	0.241200	0.268000
O181	O18	0.681800	0.408400	0.253300
O191	O19	0.451100	0.555900	0.207100
O201	O20	0.556100	0.554000	0.090200
O211	O21	0.531500	0.607100	0.602700
O221	O22	0.381000	0.745100	0.562500
O231	O23	0.274800	0.965400	0.583300
O241	O24	0.382600	0.945500	0.468600
O251	O25	0.693600	0.384700	0.435600
H131	H13	0.748300	0.327700	0.445900
H141	H14	0.691200	0.418800	0.470400
Ag71	Ag7	0.237870	0.912890	0.739900
Ag81	Ag8	0.330200	0.461810	0.304880
Ag91	Ag9	0.572730	0.906670	0.401060
Ag101	Ag10	0.664910	0.467000	0.972560
Ag111	Ag11	0.087650	0.086270	0.922520
Ag121	Ag12	0.000060	0.536700	0.357140
C371	C37	0.276100	0.324700	0.532300
C381	C38	0.190700	0.411000	0.493700
C391	C39	0.218600	0.226300	0.486200
H151	H15	0.224700	0.163400	0.483700
C401	C40	0.135600	0.312600	0.445500
H161	H16	0.088900	0.305700	0.415000
C411	C41	0.168000	0.519200	0.496500
C421	C42	0.360200	0.327700	0.580000
C431	C43	0.167700	0.239400	0.724000
C441	C44	0.210500	0.135300	0.746000
C451	C45	0.088500	0.135600	0.667200
H171	H17	0.060400	0.101700	0.645100
C461	C46	0.043300	0.239700	0.646900
H181	H18	0.983900	0.274500	0.613100
C471	C47	0.214900	0.298100	0.752800
C481	C48	0.305600	0.070100	0.804400
C491	C49	0.486100	0.237400	0.379600
C501	C50	0.536500	0.132000	0.399300
C511	C51	0.364200	0.230500	0.302900
H191	H19	0.304200	0.262600	0.269600
C521	C52	0.414900	0.127200	0.322300
H201	H20	0.388600	0.090600	0.301800
C531	C53	0.527200	0.300600	0.407600
C541	C54	0.636000	0.069300	0.454000
C551	C55	0.135500	0.592900	0.188000
C561	C56	0.054000	0.680100	0.143200
C571	C57	0.194600	0.689200	0.234600
H211	H21	0.242700	0.695000	0.264500
C581	C58	0.113000	0.775600	0.191500
H221	H22	0.106400	0.838400	0.194900
C591	C59	0.152100	0.485800	0.187600
C601	C60	0.977400	0.672300	0.091300
C611	C61	0.165900	0.756100	0.952400
C621	C62	0.112300	0.861600	0.934500
C631	C63	0.284300	0.763100	0.031900
H231	H23	0.343600	0.731100	0.065900
C641	C64	0.231400	0.866000	0.014600
H241	H24	0.255400	0.902500	0.037500
C651	C65	0.133000	0.690200	0.916000
C661	C66	0.013300	0.923800	0.880600
C671	C67	0.466400	0.593000	0.848600
C681	C68	0.383500	0.680200	0.805900
C691	C69	0.520200	0.692100	0.897400
H251	H25	0.565200	0.698300	0.930100
C701	C70	0.441100	0.777400	0.853600
H261	H26	0.436600	0.840200	0.854400
C711	C71	0.486800	0.485000	0.849500
C721	C72	0.301100	0.678100	0.756700
Gd31	Gd3	0.244150	0.518690	0.676790
Gd41	Gd4	0.867880	0.798710	0.896340
N131	N13	0.120400	0.404700	0.448400
N141	N14	0.289600	0.231500	0.528600
N151	N15	0.083200	0.291100	0.674700
N161	N16	0.171400	0.082600	0.717800
N171	N17	0.371000	0.772500	0.810100
N181	N18	0.532900	0.601000	0.893700
N191	N19	0.501400	0.077500	0.370200
N201	N20	0.399300	0.285900	0.330900
N211	N21	0.204100	0.598400	0.233000
N221	N22	0.044500	0.771400	0.145900
N231	N23	0.252200	0.707500	0.000700
N241	N24	0.145800	0.916300	0.965600
O261	O26	0.129300	0.547400	0.566700
O271	O27	0.181100	0.572000	0.431100
O281	O28	0.350600	0.415600	0.577800
O291	O29	0.424800	0.249100	0.619300
O301	O30	0.190800	0.386500	0.710800
O311	O31	0.269300	0.257300	0.814900
O321	O32	0.399000	0.048100	0.771200
O331	O33	0.281200	0.039700	0.878000
O341	O34	0.930100	0.750100	0.035300
O351	O35	0.968700	0.593500	0.107100
O361	O36	0.210500	0.449500	0.127100
O371	O37	0.114700	0.442600	0.248400
O381	O38	0.053100	0.736800	0.870000
O391	O39	0.187600	0.598700	0.932000
O401	O40	0.924800	0.923400	0.912000
O411	O41	0.029600	0.971000	0.811600
O421	O42	0.222000	0.758800	0.732000
O431	O43	0.318200	0.591600	0.746700
O441	O44	0.548900	0.444100	0.792900
O451	O45	0.443900	0.446000	0.909800
O461	O46	0.468500	0.392900	0.397300
O471	O47	0.619000	0.254900	0.437500
O481	O48	0.725200	0.034600	0.416700
O491	O49	0.617400	0.054500	0.531400
O501	O50	0.306400	0.615300	0.564400
H271	H27	0.251700	0.672300	0.554100
H281	H28	0.308800	0.581200	0.529600
