data_JUCGUL_clean_PM
_symmetry_space_group_name_H-M	'P1'
_cell_length_a	9.882400
_cell_length_b	11.548000
_cell_length_c	15.648000
_cell_angle_alpha	89.784000
_cell_angle_beta	76.441000
_cell_angle_gamma	75.603000
_symmetry_Int_Tables_number 1

loop_
_symmetry_equiv_pos_as_xyz
'x,y,z'

loop_
_atom_site_label
_atom_site_type_symbol
_atom_site_fract_x
_atom_site_fract_y
_atom_site_fract_z
Zn11	Zn1	0.159650	0.973540	0.976750
O11	O1	0.160250	0.856510	0.073430
O21	O2	0.921410	0.893730	0.099970
O31	O3	0.882670	0.143380	0.105360
O41	O4	0.123520	0.105750	0.070720
N11	N1	0.365580	0.963640	0.911300
C11	C1	0.000220	0.155420	0.117320
C21	C2	0.993580	0.235260	0.194810
C31	C3	0.107680	0.284990	0.196000
H11	H1	0.186800	0.271000	0.147900
C41	C4	0.104200	0.355430	0.268510
H21	H2	0.179900	0.390000	0.268200
C51	C5	0.987800	0.374740	0.341920
C61	C6	0.875000	0.323750	0.340750
H31	H3	0.797600	0.335100	0.389700
C71	C7	0.876400	0.255910	0.267090
H41	H4	0.798700	0.224400	0.266300
C81	C8	0.990400	0.442840	0.422640
C91	C9	0.026600	0.611630	0.496910
H51	H5	0.045300	0.686800	0.494600
C101	C10	0.016520	0.557100	0.419910
C111	C11	0.428600	0.051000	0.921820
H61	H6	0.385600	0.106800	0.969200
C121	C12	0.554900	0.062000	0.865350
H71	H7	0.596400	0.122800	0.876000
C131	C13	0.619800	0.981630	0.792360
C141	C14	0.744900	0.999770	0.727060
H81	H8	0.800400	0.045400	0.744200
C151	C15	0.557000	0.888290	0.784020
H91	H9	0.599300	0.829800	0.738300
C161	C16	0.431800	0.882700	0.843800
H101	H10	0.391400	0.819700	0.836900
C171	C17	0.025280	0.626240	0.338430
C181	C18	0.154100	0.647070	0.293020
H111	H11	0.237500	0.615600	0.312000
C191	C19	0.039600	0.844290	0.115700
C201	C20	0.036700	0.764650	0.191930
C211	C21	0.907500	0.743400	0.237280
H121	H12	0.823600	0.776600	0.219200
C221	C22	0.902600	0.672800	0.309630
H131	H13	0.816100	0.657000	0.338600
C231	C23	0.160100	0.714460	0.219360
H141	H14	0.247800	0.725900	0.188300
C241	C24	0.782900	0.953940	0.644170
H151	H15	0.732200	0.901500	0.630600
C251	C25	0.895970	0.977310	0.572280
C261	C26	0.902100	0.939530	0.486020
H161	H16	0.836400	0.898600	0.476500
C271	C27	0.996500	0.038200	0.585080
H171	H17	0.995000	0.063700	0.641700
Zn21	Zn2	0.840350	0.026460	0.023250
O51	O5	0.839750	0.143490	0.926570
O61	O6	0.078590	0.106270	0.900030
O71	O7	0.117330	0.856620	0.894640
O81	O8	0.876480	0.894250	0.929280
N21	N2	0.634420	0.036360	0.088700
C281	C28	0.999780	0.844580	0.882680
C291	C29	0.006420	0.764740	0.805190
C301	C30	0.892320	0.715010	0.804000
H181	H18	0.813200	0.729000	0.852100
C311	C31	0.895800	0.644570	0.731490
H191	H19	0.820100	0.610000	0.731800
C321	C32	0.012200	0.625260	0.658080
C331	C33	0.125000	0.676250	0.659250
H201	H20	0.202400	0.664900	0.610300
C341	C34	0.123600	0.744090	0.732910
H211	H21	0.201300	0.775600	0.733700
C351	C35	0.009600	0.557160	0.577360
C361	C36	0.973400	0.388370	0.503090
H221	H22	0.954700	0.313200	0.505400
C371	C37	0.983480	0.442900	0.580090
C381	C38	0.571400	0.949000	0.078180
H231	H23	0.614400	0.893200	0.030800
C391	C39	0.445100	0.938000	0.134650
H241	H24	0.403600	0.877200	0.124000
C401	C40	0.380200	0.018370	0.207640
C411	C41	0.255100	0.000230	0.272940
H251	H25	0.199600	0.954600	0.255800
C421	C42	0.443000	0.111710	0.215980
H261	H26	0.400700	0.170200	0.261700
C431	C43	0.568200	0.117300	0.156200
H271	H27	0.608600	0.180300	0.163100
C441	C44	0.974720	0.373760	0.661570
C451	C45	0.845900	0.352930	0.706980
H281	H28	0.762500	0.384400	0.688000
C461	C46	0.960400	0.155710	0.884300
C471	C47	0.963300	0.235350	0.808070
C481	C48	0.092500	0.256600	0.762720
H291	H29	0.176400	0.223400	0.780800
C491	C49	0.097400	0.327200	0.690370
H301	H30	0.183900	0.343000	0.661400
C501	C50	0.839900	0.285540	0.780640
H311	H31	0.752200	0.274100	0.811700
C511	C51	0.217100	0.046060	0.355830
H321	H32	0.267800	0.098500	0.369400
C521	C52	0.104030	0.022690	0.427720
C531	C53	0.097900	0.060470	0.513980
H331	H33	0.163600	0.101400	0.523500
C541	C54	0.003500	0.961800	0.414920
H341	H34	0.005000	0.936300	0.358300
