data_JUCXEK_clean_PM
_symmetry_space_group_name_H-M	'P1'
_cell_length_a	11.382000
_cell_length_b	11.382000
_cell_length_c	11.734000
_cell_angle_alpha	90.000000
_cell_angle_beta	90.000000
_cell_angle_gamma	120.000000
_symmetry_Int_Tables_number 1

loop_
_symmetry_equiv_pos_as_xyz
'x,y,z'

loop_
_atom_site_label
_atom_site_type_symbol
_atom_site_fract_x
_atom_site_fract_y
_atom_site_fract_z
Np11	Np1	0.507440	0.896480	0.750000
Np21	Np2	0.389040	0.492560	0.750000
Np31	Np3	0.103520	0.610960	0.750000
Np41	Np4	0.492560	0.103520	0.250000
Np51	Np5	0.610960	0.507440	0.250000
Np61	Np6	0.896480	0.389040	0.250000
C11	C1	0.499300	0.936900	0.475600
C21	C2	0.437600	0.500700	0.475600
C31	C3	0.063100	0.562400	0.475600
C41	C4	0.500700	0.063100	0.975600
C51	C5	0.562400	0.499300	0.975600
C61	C6	0.936900	0.437600	0.975600
C71	C7	0.500700	0.063100	0.524400
C81	C8	0.562400	0.499300	0.524400
C91	C9	0.936900	0.437600	0.524400
C101	C10	0.499300	0.936900	0.024400
C111	C11	0.437600	0.500700	0.024400
C121	C12	0.063100	0.562400	0.024400
O11	O1	0.504300	0.856000	0.544200
O21	O2	0.510100	0.076000	0.631600
O31	O3	0.351700	0.495700	0.544200
O41	O4	0.565900	0.489900	0.631600
O51	O5	0.144000	0.648300	0.544200
O61	O6	0.924000	0.434100	0.631600
O71	O7	0.495700	0.144000	0.044200
O81	O8	0.489900	0.924000	0.131600
O91	O9	0.648300	0.504300	0.044200
O101	O10	0.434100	0.510100	0.131600
O111	O11	0.856000	0.351700	0.044200
O121	O12	0.076000	0.565900	0.131600
O131	O13	0.495700	0.144000	0.455800
O141	O14	0.489900	0.924000	0.368400
O151	O15	0.648300	0.504300	0.455800
O161	O16	0.434100	0.510100	0.368400
O171	O17	0.856000	0.351700	0.455800
O181	O18	0.076000	0.565900	0.368400
O191	O19	0.504300	0.856000	0.955800
O201	O20	0.510100	0.076000	0.868400
O211	O21	0.351700	0.495700	0.955800
O221	O22	0.565900	0.489900	0.868400
O231	O23	0.144000	0.648300	0.955800
O241	O24	0.924000	0.434100	0.868400
O251	O25	0.316600	0.812900	0.750000
O261	O26	0.496300	0.683400	0.750000
O271	O27	0.187100	0.503700	0.750000
O281	O28	0.683400	0.187100	0.250000
O291	O29	0.503700	0.316600	0.250000
O301	O30	0.812900	0.496300	0.250000
