data_JUJTAL_clean_PM
_symmetry_space_group_name_H-M	'P1'
_cell_length_a	10.034500
_cell_length_b	15.285200
_cell_length_c	18.421000
_cell_angle_alpha	67.732000
_cell_angle_beta	87.024000
_cell_angle_gamma	77.361000
_symmetry_Int_Tables_number 1

loop_
_symmetry_equiv_pos_as_xyz
'x,y,z'

loop_
_atom_site_label
_atom_site_type_symbol
_atom_site_fract_x
_atom_site_fract_y
_atom_site_fract_z
Co11	Co1	0.861720	0.980400	0.432870
O11	O1	0.539600	0.000790	0.888800
O21	O2	0.864000	0.968480	0.545220
O31	O3	0.254500	0.014340	0.669440
O41	O4	0.959100	0.019560	0.623340
O51	O5	0.354500	0.008400	0.563050
O61	O6	0.606700	0.476600	0.760390
N11	N1	0.918400	0.824200	0.471020
N21	N2	0.826000	0.136000	0.382620
O71	O7	0.667200	0.443100	0.149810
O81	O8	0.109200	0.471800	0.663670
N31	N3	0.498200	0.356400	0.771430
H11	H1	0.450700	0.336800	0.744800
C11	C1	0.614200	0.991800	0.622180
H21	H2	0.608000	0.991000	0.571700
N41	N4	0.517700	0.150700	0.957720
O91	O9	0.758300	0.925600	0.897160
N51	N5	0.957400	0.611800	0.652040
H31	H3	0.901900	0.639800	0.678500
C21	C2	0.740500	0.987800	0.653050
N61	N6	0.844600	0.313700	0.185510
H41	H4	0.915300	0.282600	0.169200
C31	C3	0.750500	0.981600	0.729500
H51	H5	0.836100	0.976600	0.750900
C41	C4	0.497500	0.997100	0.665830
C51	C5	0.440600	0.486800	0.520200
C61	C6	0.863700	0.991800	0.603210
C71	C7	0.852800	0.483000	0.886900
C81	C8	0.635800	0.982600	0.775100
C91	C9	0.438600	0.461200	0.602800
H61	H6	0.361100	0.442800	0.630000
C101	C10	0.547200	0.463000	0.643100
C111	C11	0.918600	0.764200	0.546200
H71	H7	0.887200	0.791200	0.583700
C121	C12	0.552700	0.434600	0.730600
C131	C13	0.806300	0.421600	0.047700
C141	C14	0.361200	0.007500	0.630930
C151	C15	0.702600	0.484600	0.992500
H81	H8	0.616900	0.507200	0.009700
C161	C16	0.962400	0.665200	0.571700
C171	C17	0.508300	0.994200	0.741900
H91	H9	0.429300	0.000200	0.770900
C181	C18	0.725100	0.513000	0.914600
H101	H10	0.653700	0.553500	0.878400
C191	C19	0.848400	0.179200	0.306500
H111	H11	0.888200	0.139800	0.279000
C201	C20	0.879000	0.513700	0.806100
H121	H12	0.808300	0.554400	0.769500
C211	C21	0.646500	0.969600	0.859800
C221	C22	0.669400	0.516400	0.523200
H131	H13	0.747800	0.534700	0.497100
C231	C23	0.772500	0.193400	0.421600
H141	H14	0.756600	0.164700	0.475300
C241	C24	0.502300	0.208400	0.881800
H151	H15	0.483600	0.182200	0.845800
C251	C25	0.959500	0.421100	0.942100
C261	C26	0.512400	0.304800	0.853000
C271	C27	0.816900	0.277700	0.265800
C281	C28	0.003700	0.486000	0.779900
C291	C29	0.766400	0.394700	0.131900
C301	C30	0.663500	0.493500	0.601700
H161	H16	0.736600	0.497800	0.629200
C311	C31	0.029700	0.520600	0.693800
C321	C32	0.761400	0.336400	0.306400
H171	H17	0.738900	0.404100	0.280900
C331	C33	0.535400	0.344400	0.905900
H181	H18	0.537800	0.410200	0.889400
C341	C34	0.931900	0.391100	0.022600
H191	H19	0.001200	0.349200	0.059800
C351	C35	0.962200	0.784800	0.418200
H201	H20	0.963600	0.825700	0.365200
C361	C36	0.005000	0.624600	0.516000
H211	H21	0.032600	0.557200	0.530700
C371	C37	0.740200	0.292200	0.385600
H221	H22	0.703500	0.330100	0.414800
C381	C38	0.005300	0.686500	0.438500
H231	H23	0.034900	0.661400	0.399700
C391	C39	0.109100	0.422800	0.834900
H241	H24	0.195000	0.401800	0.817100
C401	C40	0.554900	0.284200	0.983600
H251	H25	0.574500	0.308600	0.020800
C411	C41	0.546000	0.189300	0.007800
H261	H26	0.560200	0.149900	0.061400
C421	C42	0.087800	0.392300	0.912900
H271	H27	0.159700	0.351000	0.948400
Co21	Co2	0.138280	0.019600	0.567130
O101	O10	0.460400	0.999210	0.111200
O111	O11	0.136000	0.031520	0.454780
O121	O12	0.745500	0.985660	0.330560
O131	O13	0.040900	0.980440	0.376660
O141	O14	0.645500	0.991600	0.436950
O151	O15	0.393300	0.523400	0.239610
N71	N7	0.081600	0.175800	0.528980
N81	N8	0.174000	0.864000	0.617380
O161	O16	0.332800	0.556900	0.850190
O171	O17	0.890800	0.528200	0.336330
N91	N9	0.501800	0.643600	0.228570
H281	H28	0.549300	0.663200	0.255200
C431	C43	0.385800	0.008200	0.377820
H291	H29	0.392000	0.009000	0.428300
N101	N10	0.482300	0.849300	0.042280
O181	O18	0.241700	0.074400	0.102840
N111	N11	0.042600	0.388200	0.347960
H301	H30	0.098100	0.360200	0.321500
C441	C44	0.259500	0.012200	0.346950
N121	N12	0.155400	0.686300	0.814490
H311	H31	0.084700	0.717400	0.830800
C451	C45	0.249500	0.018400	0.270500
H321	H32	0.163900	0.023400	0.249100
C461	C46	0.502500	0.002900	0.334170
C471	C47	0.559400	0.513200	0.479800
C481	C48	0.136300	0.008200	0.396790
C491	C49	0.147200	0.517000	0.113100
C501	C50	0.364200	0.017400	0.224900
C511	C51	0.561400	0.538800	0.397200
H331	H33	0.638900	0.557200	0.370000
C521	C52	0.452800	0.537000	0.356900
C531	C53	0.081400	0.235800	0.453800
H341	H34	0.112800	0.208800	0.416300
C541	C54	0.447300	0.565400	0.269400
C551	C55	0.193700	0.578400	0.952300
C561	C56	0.638800	0.992500	0.369070
C571	C57	0.297400	0.515400	0.007500
H351	H35	0.383100	0.492800	0.990300
C581	C58	0.037600	0.334800	0.428300
C591	C59	0.491700	0.005800	0.258100
H361	H36	0.570700	0.999800	0.229100
C601	C60	0.274900	0.487000	0.085400
H371	H37	0.346300	0.446500	0.121600
C611	C61	0.151600	0.820800	0.693500
H381	H38	0.111800	0.860200	0.721000
C621	C62	0.121000	0.486300	0.193900
H391	H39	0.191700	0.445600	0.230500
C631	C63	0.353500	0.030400	0.140200
C641	C64	0.330600	0.483600	0.476800
H401	H40	0.252200	0.465300	0.502900
C651	C65	0.227500	0.806600	0.578400
H411	H41	0.243400	0.835300	0.524700
C661	C66	0.497700	0.791600	0.118200
H421	H42	0.516400	0.817800	0.154200
C671	C67	0.040500	0.578900	0.057900
C681	C68	0.487600	0.695200	0.147000
C691	C69	0.183100	0.722300	0.734200
C701	C70	0.996300	0.514000	0.220100
C711	C71	0.233600	0.605300	0.868100
C721	C72	0.336500	0.506500	0.398300
H431	H43	0.263400	0.502200	0.370800
C731	C73	0.970300	0.479400	0.306200
C741	C74	0.238600	0.663600	0.693600
H441	H44	0.261100	0.595900	0.719100
C751	C75	0.464600	0.655600	0.094100
H451	H45	0.462200	0.589800	0.110600
C761	C76	0.068100	0.608900	0.977400
H461	H46	0.998800	0.650800	0.940200
C771	C77	0.037800	0.215200	0.581800
H471	H47	0.036400	0.174300	0.634800
C781	C78	0.995000	0.375400	0.484000
H481	H48	0.967400	0.442800	0.469300
C791	C79	0.259800	0.707800	0.614400
H491	H49	0.296500	0.669900	0.585200
C801	C80	0.994700	0.313500	0.561500
H501	H50	0.965100	0.338600	0.600300
C811	C81	0.890900	0.577200	0.165100
H511	H51	0.805000	0.598200	0.182900
C821	C82	0.445100	0.715800	0.016400
H521	H52	0.425500	0.691400	0.979200
C831	C83	0.454000	0.810700	0.992200
H531	H53	0.439800	0.850100	0.938600
C841	C84	0.912200	0.607700	0.087100
H541	H54	0.840300	0.649000	0.051600
Co31	Co3	0.500000	0.000000	0.000000
