data_JUJZEV_clean_PM
_symmetry_space_group_name_H-M	'P1'
_cell_length_a	10.103200
_cell_length_b	9.229900
_cell_length_c	31.773000
_cell_angle_alpha	90.000000
_cell_angle_beta	107.486000
_cell_angle_gamma	90.000000
_symmetry_Int_Tables_number 1

loop_
_symmetry_equiv_pos_as_xyz
'x,y,z'

loop_
_atom_site_label
_atom_site_type_symbol
_atom_site_fract_x
_atom_site_fract_y
_atom_site_fract_z
Co11	Co1	0.099580	0.903510	0.219530
Co21	Co2	0.679810	0.155450	0.093890
Co31	Co3	0.114600	0.013110	0.624880
Co41	Co4	0.547880	0.179720	0.656980
Co51	Co5	0.131840	0.929540	0.529670
P11	P1	0.828900	0.131500	0.627810
P21	P2	0.399800	0.894100	0.621700
C11	C1	0.871200	0.301500	0.607400
C21	C2	0.925300	0.323200	0.572000
C31	C3	0.962700	0.463100	0.563100
H11	H1	0.993800	0.478300	0.538100
C41	C4	0.956000	0.580200	0.589600
C51	C5	0.905600	0.558400	0.625300
C61	C6	0.861800	0.422500	0.633200
H21	H2	0.823900	0.410100	0.656900
C71	C7	0.946700	0.200900	0.543000
C81	C8	0.008000	0.726100	0.581200
C91	C9	0.894800	0.671900	0.658900
C101	C10	0.356600	0.723600	0.641500
C111	C11	0.302500	0.703400	0.677100
C121	C12	0.263000	0.567200	0.686400
H31	H3	0.231700	0.554200	0.711500
C131	C13	0.267900	0.448200	0.660000
C141	C14	0.321400	0.468000	0.624100
C151	C15	0.366700	0.604000	0.616000
H41	H4	0.405600	0.615800	0.592500
C161	C16	0.284100	0.826100	0.706900
C171	C17	0.218100	0.301300	0.668100
C181	C18	0.335300	0.352300	0.592100
C191	C19	0.507900	0.297900	0.741100
H51	H5	0.467700	0.212600	0.748700
C201	C20	0.612300	0.449200	0.710500
H61	H6	0.659700	0.487700	0.691400
C211	C21	0.584000	0.522700	0.742900
H71	H7	0.605600	0.621100	0.750800
C221	C22	0.459300	0.460400	0.798800
H81	H8	0.407700	0.375500	0.804700
H91	H9	0.393400	0.542300	0.790100
C231	C23	0.573300	0.499800	0.840200
C241	C24	0.626500	0.397600	0.872200
H101	H10	0.588800	0.302500	0.868900
C251	C25	0.735200	0.432500	0.909500
C261	C26	0.788600	0.569900	0.914800
H111	H11	0.863300	0.593600	0.940200
C271	C27	0.733600	0.673900	0.883300
H121	H12	0.770600	0.769300	0.887300
C281	C28	0.625700	0.641800	0.845800
H131	H13	0.587800	0.714300	0.824400
C291	C29	0.792600	0.321500	0.945300
H141	H14	0.780400	0.223300	0.932200
H151	H15	0.893200	0.338400	0.958900
C301	C30	0.725600	0.221400	0.008400
H161	H16	0.763900	0.127900	0.007400
C311	C31	0.659900	0.445800	0.992200
H171	H17	0.643000	0.537900	0.978300
C321	C32	0.626600	0.404100	0.028800
H181	H18	0.581800	0.463400	0.044800
C331	C33	0.002800	0.630000	0.257800
H191	H19	0.044200	0.568900	0.241200
C341	C34	0.932500	0.818300	0.285000
H201	H20	0.915500	0.916400	0.290800
C351	C35	0.896800	0.700100	0.305400
H211	H21	0.850300	0.699900	0.327300
C361	C36	0.938700	0.432600	0.302100
H221	H22	0.918000	0.367200	0.276200
H231	H23	0.863700	0.421700	0.316000
C371	C37	0.074700	0.389600	0.334600
C381	C38	0.109200	0.429600	0.377900
H241	H24	0.044900	0.484900	0.387800
C391	C39	0.168600	0.311000	0.320100
H251	H25	0.146000	0.282900	0.290000
C401	C40	0.295500	0.273100	0.349200
H261	H26	0.359800	0.219100	0.339000
C411	C41	0.329700	0.312900	0.392900
H271	H27	0.417300	0.286200	0.412600
C421	C42	0.237500	0.391300	0.408400
C431	C43	0.275900	0.430200	0.456500
H281	H28	0.212300	0.379200	0.469900
H291	H29	0.371100	0.394800	0.471200
C441	C44	0.213400	0.646600	0.494000
H301	H30	0.166500	0.594400	0.511000
C451	C45	0.329700	0.695600	0.448300
H311	H31	0.380000	0.687600	0.427500
C461	C46	0.302700	0.817500	0.466800
H321	H32	0.330100	0.911600	0.460600
N11	N1	0.562300	0.308000	0.708900
N21	N2	0.517000	0.426300	0.762300
N31	N3	0.666800	0.265700	0.039000
N41	N4	0.722300	0.329900	0.979200
N51	N5	0.997200	0.772300	0.254600
N61	N6	0.942100	0.582600	0.287500
N71	N7	0.230100	0.788400	0.495900
N81	N8	0.270600	0.583800	0.465000
O11	O1	0.756900	0.036300	0.588300
O21	O2	0.739500	0.161100	0.657230
O31	O3	0.968500	0.069900	0.655120
O41	O4	0.014900	0.088400	0.560400
O51	O5	0.902900	0.220200	0.501700
O61	O6	0.040600	0.746100	0.546200
O71	O7	0.013500	0.817700	0.610810
O81	O8	0.784100	0.751400	0.648700
O91	O9	0.981300	0.669100	0.695700
O101	O10	0.488800	0.863000	0.591900
O111	O11	0.472400	0.987900	0.661190
O121	O12	0.259500	0.956200	0.594300
O131	O13	0.216400	0.938900	0.689500
O141	O14	0.334900	0.808800	0.747100
O151	O15	0.180300	0.284800	0.702240
O161	O16	0.217600	0.206700	0.640600
O171	O17	0.444100	0.275000	0.601700
O181	O18	0.247400	0.350300	0.555000
Co61	Co6	0.099580	0.096490	0.719530
Co71	Co7	0.679810	0.844550	0.593890
Co81	Co8	0.114600	0.986890	0.124880
Co91	Co9	0.547880	0.820280	0.156980
Co101	Co10	0.131840	0.070460	0.029670
P31	P3	0.828900	0.868500	0.127810
P41	P4	0.399800	0.105900	0.121700
C471	C47	0.871200	0.698500	0.107400
C481	C48	0.925300	0.676800	0.072000
C491	C49	0.962700	0.536900	0.063100
H331	H33	0.993800	0.521700	0.038100
C501	C50	0.956000	0.419800	0.089600
C511	C51	0.905600	0.441600	0.125300
C521	C52	0.861800	0.577500	0.133200
H341	H34	0.823900	0.589900	0.156900
C531	C53	0.946700	0.799100	0.043000
C541	C54	0.008000	0.273900	0.081200
C551	C55	0.894800	0.328100	0.158900
C561	C56	0.356600	0.276400	0.141500
C571	C57	0.302500	0.296600	0.177100
C581	C58	0.263000	0.432800	0.186400
H351	H35	0.231700	0.445800	0.211500
C591	C59	0.267900	0.551800	0.160000
C601	C60	0.321400	0.532000	0.124100
C611	C61	0.366700	0.396000	0.116000
H361	H36	0.405600	0.384200	0.092500
C621	C62	0.284100	0.173900	0.206900
C631	C63	0.218100	0.698700	0.168100
C641	C64	0.335300	0.647700	0.092100
C651	C65	0.507900	0.702100	0.241100
H371	H37	0.467700	0.787400	0.248700
C661	C66	0.612300	0.550800	0.210500
H381	H38	0.659700	0.512300	0.191400
C671	C67	0.584000	0.477300	0.242900
H391	H39	0.605600	0.378900	0.250800
C681	C68	0.459300	0.539600	0.298800
H401	H40	0.407700	0.624500	0.304700
H411	H41	0.393400	0.457700	0.290100
C691	C69	0.573300	0.500200	0.340200
C701	C70	0.626500	0.602400	0.372200
H421	H42	0.588800	0.697500	0.368900
C711	C71	0.735200	0.567500	0.409500
C721	C72	0.788600	0.430100	0.414800
H431	H43	0.863300	0.406400	0.440200
C731	C73	0.733600	0.326100	0.383300
H441	H44	0.770600	0.230700	0.387300
C741	C74	0.625700	0.358200	0.345800
H451	H45	0.587800	0.285700	0.324400
C751	C75	0.792600	0.678500	0.445300
H461	H46	0.780400	0.776700	0.432200
H471	H47	0.893200	0.661600	0.458900
C761	C76	0.725600	0.778600	0.508400
H481	H48	0.763900	0.872100	0.507400
C771	C77	0.659900	0.554200	0.492200
H491	H49	0.643000	0.462100	0.478300
C781	C78	0.626600	0.595900	0.528800
H501	H50	0.581800	0.536600	0.544800
C791	C79	0.002800	0.370000	0.757800
H511	H51	0.044200	0.431100	0.741200
C801	C80	0.932500	0.181700	0.785000
H521	H52	0.915500	0.083600	0.790800
C811	C81	0.896800	0.299900	0.805400
H531	H53	0.850300	0.300100	0.827300
C821	C82	0.938700	0.567400	0.802100
H541	H54	0.918000	0.632800	0.776200
H551	H55	0.863700	0.578300	0.816000
C831	C83	0.074700	0.610400	0.834600
C841	C84	0.109200	0.570400	0.877900
H561	H56	0.044900	0.515100	0.887800
C851	C85	0.168600	0.689000	0.820100
H571	H57	0.146000	0.717100	0.790000
C861	C86	0.295500	0.726900	0.849200
H581	H58	0.359800	0.780900	0.839000
C871	C87	0.329700	0.687100	0.892900
H591	H59	0.417300	0.713800	0.912600
C881	C88	0.237500	0.608700	0.908400
C891	C89	0.275900	0.569800	0.956500
H601	H60	0.212300	0.620800	0.969900
H611	H61	0.371100	0.605200	0.971200
C901	C90	0.213400	0.353400	0.994000
H621	H62	0.166500	0.405600	0.011000
C911	C91	0.329700	0.304400	0.948300
H631	H63	0.380000	0.312400	0.927500
C921	C92	0.302700	0.182500	0.966800
H641	H64	0.330100	0.088400	0.960600
N91	N9	0.562300	0.692000	0.208900
N101	N10	0.517000	0.573700	0.262300
N111	N11	0.666800	0.734300	0.539000
N121	N12	0.722300	0.670100	0.479200
N131	N13	0.997200	0.227700	0.754600
N141	N14	0.942100	0.417400	0.787500
N151	N15	0.230100	0.211600	0.995900
N161	N16	0.270600	0.416200	0.965000
O191	O19	0.756900	0.963700	0.088300
O201	O20	0.739500	0.838900	0.157230
O211	O21	0.968500	0.930100	0.155120
O221	O22	0.014900	0.911600	0.060400
O231	O23	0.902900	0.779800	0.001700
O241	O24	0.040600	0.253900	0.046200
O251	O25	0.013500	0.182300	0.110810
O261	O26	0.784100	0.248600	0.148700
O271	O27	0.981300	0.330900	0.195700
O281	O28	0.488800	0.137000	0.091900
O291	O29	0.472400	0.012100	0.161190
O301	O30	0.259500	0.043800	0.094300
O311	O31	0.216400	0.061100	0.189500
O321	O32	0.334900	0.191200	0.247100
O331	O33	0.180300	0.715200	0.202240
O341	O34	0.217600	0.793300	0.140600
O351	O35	0.444100	0.725000	0.101700
O361	O36	0.247400	0.649700	0.055000
