data_JUJZIZ_clean_PM
_symmetry_space_group_name_H-M	'P1'
_cell_length_a	9.247000
_cell_length_b	9.970000
_cell_length_c	15.025000
_cell_angle_alpha	100.151000
_cell_angle_beta	91.372000
_cell_angle_gamma	91.776000
_symmetry_Int_Tables_number 1

loop_
_symmetry_equiv_pos_as_xyz
'x,y,z'

loop_
_atom_site_label
_atom_site_type_symbol
_atom_site_fract_x
_atom_site_fract_y
_atom_site_fract_z
Co11	Co1	0.067920	0.843950	0.806530
Co21	Co2	0.829370	0.613310	0.062520
P11	P1	0.113770	0.710190	0.993830
O11	O1	0.138700	0.575500	0.934370
O21	O2	0.050800	0.808200	0.938050
O31	O3	0.023200	0.697100	0.075600
O41	O4	0.084000	0.997600	0.132070
O51	O5	0.213600	0.963300	0.251200
O61	O6	0.743200	0.044800	0.159500
O71	O7	0.806800	0.915300	0.031190
O81	O8	0.724500	0.629700	0.950980
O91	O9	0.649300	0.762100	0.857260
N11	N1	0.711400	0.677300	0.170000
N21	N2	0.626400	0.809900	0.287100
N31	N3	0.397800	0.599000	0.684400
N41	N4	0.199700	0.687300	0.743500
C11	C1	0.286800	0.783900	0.034300
C21	C2	0.312000	0.891000	0.107900
C31	C3	0.453600	0.940600	0.126100
H11	H1	0.473000	0.009200	0.177900
C41	C4	0.567700	0.895000	0.072400
C51	C5	0.541200	0.789300	0.998900
C61	C6	0.402300	0.734900	0.981600
H21	H2	0.384800	0.661700	0.932400
C71	C7	0.194300	0.952800	0.168500
C81	C8	0.717100	0.957100	0.089000
C91	C9	0.649800	0.729000	0.932000
C101	C10	0.742300	0.779900	0.236500
H31	H3	0.834100	0.826200	0.247100
C111	C11	0.569100	0.639900	0.179100
H41	H4	0.516400	0.568000	0.140700
C121	C12	0.516000	0.721500	0.251100
H51	H5	0.420500	0.718100	0.272600
C131	C13	0.620100	0.915500	0.368300
H61	H6	0.537700	0.974700	0.362300
H71	H7	0.710300	0.972900	0.375700
C141	C14	0.601600	0.847800	0.449900
C151	C15	0.465000	0.805100	0.469800
H81	H8	0.383000	0.830500	0.438100
C161	C16	0.446500	0.725500	0.535400
H91	H9	0.351900	0.694400	0.547300
C171	C17	0.563600	0.690800	0.583900
C181	C18	0.702200	0.739600	0.566600
H101	H10	0.784000	0.719600	0.600800
C191	C19	0.719000	0.816700	0.499800
H111	H11	0.813000	0.849000	0.487900
C201	C20	0.545300	0.599400	0.652600
H121	H12	0.569700	0.505400	0.625400
H131	H13	0.613100	0.630800	0.704600
C211	C21	0.340600	0.704400	0.739000
H141	H14	0.395100	0.781500	0.770200
C221	C22	0.285900	0.510700	0.651300
H151	H15	0.291800	0.427300	0.610100
C231	C23	0.165900	0.564800	0.688400
H161	H16	0.071300	0.524300	0.678000
Co31	Co3	0.932080	0.156050	0.193470
Co41	Co4	0.170630	0.386690	0.937480
P21	P2	0.886230	0.289810	0.006170
O101	O10	0.861300	0.424500	0.065630
O111	O11	0.949200	0.191800	0.061950
O121	O12	0.976800	0.302900	0.924400
O131	O13	0.916000	0.002400	0.867930
O141	O14	0.786400	0.036700	0.748800
O151	O15	0.256800	0.955200	0.840500
O161	O16	0.193200	0.084700	0.968810
O171	O17	0.275500	0.370300	0.049020
O181	O18	0.350700	0.237900	0.142740
N51	N5	0.288600	0.322700	0.830000
N61	N6	0.373600	0.190100	0.712900
N71	N7	0.602200	0.401000	0.315600
N81	N8	0.800300	0.312700	0.256500
C241	C24	0.713200	0.216100	0.965700
C251	C25	0.688000	0.109000	0.892100
C261	C26	0.546400	0.059400	0.873900
H171	H17	0.527000	0.990800	0.822100
C271	C27	0.432300	0.105000	0.927600
C281	C28	0.458800	0.210700	0.001100
C291	C29	0.597700	0.265100	0.018400
H181	H18	0.615200	0.338300	0.067600
C301	C30	0.805700	0.047200	0.831500
C311	C31	0.282900	0.042900	0.911000
C321	C32	0.350200	0.271000	0.068000
C331	C33	0.257700	0.220100	0.763500
H191	H19	0.165900	0.173800	0.752900
C341	C34	0.430900	0.360100	0.820900
H201	H20	0.483600	0.432000	0.859300
C351	C35	0.484000	0.278500	0.748900
H211	H21	0.579500	0.281900	0.727400
C361	C36	0.379900	0.084500	0.631700
H221	H22	0.462300	0.025300	0.637700
H231	H23	0.289700	0.027100	0.624300
C371	C37	0.398400	0.152200	0.550100
C381	C38	0.535000	0.194900	0.530200
H241	H24	0.617000	0.169500	0.561900
C391	C39	0.553500	0.274500	0.464600
H251	H25	0.648100	0.305600	0.452700
C401	C40	0.436400	0.309200	0.416100
C411	C41	0.297800	0.260400	0.433400
H261	H26	0.216000	0.280400	0.399200
C421	C42	0.281000	0.183300	0.500200
H271	H27	0.187000	0.151000	0.512100
C431	C43	0.454700	0.400600	0.347400
H281	H28	0.430300	0.494600	0.374600
H291	H29	0.386900	0.369200	0.295400
C441	C44	0.659400	0.295600	0.261000
H301	H30	0.604900	0.218500	0.229800
C451	C45	0.714100	0.489300	0.348700
H311	H31	0.708200	0.572700	0.389900
C461	C46	0.834100	0.435200	0.311600
H321	H32	0.928700	0.475700	0.322000
Co51	Co5	0.000000	0.000000	0.000000
