data_JUMCOL_clean_PM
_symmetry_space_group_name_H-M	'P1'
_cell_length_a	6.822300
_cell_length_b	15.268900
_cell_length_c	14.910900
_cell_angle_alpha	90.000000
_cell_angle_beta	90.000000
_cell_angle_gamma	90.000000
_symmetry_Int_Tables_number 1

loop_
_symmetry_equiv_pos_as_xyz
'x,y,z'

loop_
_atom_site_label
_atom_site_type_symbol
_atom_site_fract_x
_atom_site_fract_y
_atom_site_fract_z
O11	O1	0.635400	0.341480	0.829310
O21	O2	0.308100	0.341590	0.840200
C11	C1	0.476000	0.367970	0.862100
C21	C2	0.488200	0.436810	0.933320
C31	C3	0.669900	0.467280	0.961380
H11	H1	0.783700	0.445100	0.935600
C41	C4	0.682100	0.530520	0.027520
H21	H2	0.803900	0.551200	0.045800
O31	O3	0.864600	0.658520	0.329310
O41	O4	0.191900	0.658410	0.340200
C51	C5	0.024000	0.632030	0.362100
C61	C6	0.011800	0.563190	0.433320
C71	C7	0.830100	0.532720	0.461380
H31	H3	0.716300	0.554900	0.435600
C81	C8	0.817900	0.469480	0.527520
H41	H4	0.696100	0.448800	0.545800
O51	O5	0.364600	0.841480	0.170690
O61	O6	0.691900	0.841590	0.159800
C91	C9	0.524000	0.867970	0.137900
C101	C10	0.511800	0.936810	0.066680
C111	C11	0.330100	0.967280	0.038620
H51	H5	0.216300	0.945100	0.064400
C121	C12	0.317900	0.030520	0.972480
H61	H6	0.196100	0.051200	0.954200
O71	O7	0.135400	0.158520	0.670690
O81	O8	0.808100	0.158410	0.659800
C131	C13	0.976000	0.132030	0.637900
C141	C14	0.988200	0.063190	0.566680
C151	C15	0.169900	0.032720	0.538620
H71	H7	0.283700	0.054900	0.564400
C161	C16	0.182100	0.969480	0.472480
H81	H8	0.303900	0.948800	0.454200
O91	O9	0.364600	0.658520	0.170690
O101	O10	0.691900	0.658410	0.159800
C171	C17	0.524000	0.632030	0.137900
C181	C18	0.511800	0.563190	0.066680
C191	C19	0.330100	0.532720	0.038620
H91	H9	0.216300	0.554900	0.064400
C201	C20	0.317900	0.469480	0.972480
H101	H10	0.196100	0.448800	0.954200
O111	O11	0.135400	0.341480	0.670690
O121	O12	0.808100	0.341590	0.659800
C211	C21	0.976000	0.367970	0.637900
C221	C22	0.988200	0.436810	0.566680
C231	C23	0.169900	0.467280	0.538620
H111	H11	0.283700	0.445100	0.564400
C241	C24	0.182100	0.530520	0.472480
H121	H12	0.303900	0.551200	0.454200
O131	O13	0.635400	0.158520	0.829310
O141	O14	0.308100	0.158410	0.840200
C251	C25	0.476000	0.132030	0.862100
C261	C26	0.488200	0.063190	0.933320
C271	C27	0.669900	0.032720	0.961380
H131	H13	0.783700	0.054900	0.935600
C281	C28	0.682100	0.969480	0.027520
H141	H14	0.803900	0.948800	0.045800
O151	O15	0.864600	0.841480	0.329310
O161	O16	0.191900	0.841590	0.340200
C291	C29	0.024000	0.867970	0.362100
C301	C30	0.011800	0.936810	0.433320
C311	C31	0.830100	0.967280	0.461380
H151	H15	0.716300	0.945100	0.435600
C321	C32	0.817900	0.030520	0.527520
H161	H16	0.696100	0.051200	0.545800
V11	V1	0.187820	0.250000	0.762020
O171	O17	0.970000	0.250000	0.804870
V21	V2	0.312180	0.750000	0.262020
O181	O18	0.530000	0.750000	0.304870
V31	V3	0.812180	0.750000	0.237980
O191	O19	0.030000	0.750000	0.195130
V41	V4	0.687820	0.250000	0.737980
O201	O20	0.470000	0.250000	0.695130
