data_JUMCUR_clean_PM
_symmetry_space_group_name_H-M	'P1'
_cell_length_a	6.798000
_cell_length_b	13.285000
_cell_length_c	16.457000
_cell_angle_alpha	90.000000
_cell_angle_beta	90.000000
_cell_angle_gamma	90.000000
_symmetry_Int_Tables_number 1

loop_
_symmetry_equiv_pos_as_xyz
'x,y,z'

loop_
_atom_site_label
_atom_site_type_symbol
_atom_site_fract_x
_atom_site_fract_y
_atom_site_fract_z
C11	C1	0.774700	0.609500	0.904500
C21	C2	0.759200	0.534900	0.836500
C31	C3	0.928600	0.489700	0.806500
H11	H1	0.049300	0.502300	0.831100
C41	C4	0.578400	0.512600	0.802400
H21	H2	0.464400	0.539600	0.824800
C51	C5	0.566200	0.450700	0.735600
H31	H3	0.444400	0.437500	0.712200
C61	C6	0.917700	0.425500	0.739900
H41	H4	0.030900	0.394700	0.720200
C71	C7	0.737000	0.407500	0.702600
C81	C8	0.725800	0.345800	0.627400
O11	O1	0.283700	0.689600	0.009600
O21	O2	0.883400	0.313800	0.598500
O31	O3	0.614600	0.646400	0.929400
O41	O4	0.556600	0.330700	0.598200
O51	O5	0.944200	0.632000	0.929800
V11	V1	0.064090	0.735090	0.001420
C91	C9	0.725300	0.390500	0.404500
C101	C10	0.740800	0.465100	0.336500
C111	C11	0.571400	0.510300	0.306500
H51	H5	0.450700	0.497700	0.331100
C121	C12	0.921600	0.487400	0.302400
H61	H6	0.035600	0.460400	0.324800
C131	C13	0.933800	0.549300	0.235600
H71	H7	0.055600	0.562500	0.212200
C141	C14	0.582300	0.574500	0.239900
H81	H8	0.469100	0.605300	0.220200
C151	C15	0.763000	0.592500	0.202600
C161	C16	0.774200	0.654200	0.127400
O61	O6	0.216300	0.310400	0.509600
O71	O7	0.616600	0.686200	0.098500
O81	O8	0.885400	0.353600	0.429400
O91	O9	0.943400	0.669300	0.098200
O101	O10	0.555800	0.368000	0.429800
V21	V2	0.435910	0.264910	0.501420
C171	C17	0.225300	0.109500	0.595500
C181	C18	0.240800	0.034900	0.663500
C191	C19	0.071400	0.989700	0.693500
H91	H9	0.950700	0.002300	0.668900
C201	C20	0.421600	0.012600	0.697600
H101	H10	0.535600	0.039600	0.675200
C211	C21	0.433800	0.950700	0.764400
H111	H11	0.555600	0.937500	0.787800
C221	C22	0.082300	0.925500	0.760100
H121	H12	0.969100	0.894700	0.779800
C231	C23	0.263000	0.907500	0.797400
C241	C24	0.274200	0.845800	0.872600
O111	O11	0.716300	0.189600	0.490400
O121	O12	0.116600	0.813800	0.901500
O131	O13	0.385400	0.146400	0.570600
O141	O14	0.443400	0.830700	0.901800
O151	O15	0.055800	0.132000	0.570200
V31	V3	0.935910	0.235090	0.498580
C251	C25	0.274700	0.890500	0.095500
C261	C26	0.259200	0.965100	0.163500
C271	C27	0.428600	0.010300	0.193500
H131	H13	0.549300	0.997700	0.168900
C281	C28	0.078400	0.987400	0.197600
H141	H14	0.964400	0.960400	0.175200
C291	C29	0.066200	0.049300	0.264400
H151	H15	0.944400	0.062500	0.287800
C301	C30	0.417700	0.074500	0.260100
H161	H16	0.530900	0.105300	0.279800
C311	C31	0.237000	0.092500	0.297400
C321	C32	0.225800	0.154200	0.372600
O161	O16	0.783700	0.810400	0.990400
O171	O17	0.383400	0.186200	0.401500
O181	O18	0.114600	0.853600	0.070600
O191	O19	0.056600	0.169300	0.401800
O201	O20	0.444200	0.868000	0.070200
V41	V4	0.564090	0.764910	0.998580
