data_JUMDAY_clean_PM
_symmetry_space_group_name_H-M	'P1'
_cell_length_a	6.799900
_cell_length_b	12.700200
_cell_length_c	16.680200
_cell_angle_alpha	90.000000
_cell_angle_beta	90.000000
_cell_angle_gamma	90.000000
_symmetry_Int_Tables_number 1

loop_
_symmetry_equiv_pos_as_xyz
'x,y,z'

loop_
_atom_site_label
_atom_site_type_symbol
_atom_site_fract_x
_atom_site_fract_y
_atom_site_fract_z
C11	C1	0.773700	0.902800	0.911460
C21	C2	0.759400	0.980700	0.844700
C31	C3	0.577100	0.999900	0.809300
H11	H1	0.463400	0.971300	0.831300
C41	C4	0.566400	0.061700	0.741400
H21	H2	0.445200	0.074400	0.717400
C51	C5	0.928300	0.027300	0.814000
H31	H3	0.049000	0.016900	0.839000
C61	C6	0.915700	0.089400	0.745700
H41	H4	0.028300	0.120700	0.724900
C71	C7	0.736000	0.105000	0.708740
C81	C8	0.725400	0.162800	0.630980
O11	O1	0.282500	0.813310	0.012640
O21	O2	0.557700	0.174800	0.600490
O31	O3	0.942000	0.879630	0.936900
O41	O4	0.885200	0.192600	0.600730
O51	O5	0.614100	0.863560	0.935840
V11	V1	0.063500	0.765920	0.001840
C91	C9	0.726300	0.097200	0.411460
C101	C10	0.740600	0.019300	0.344700
C111	C11	0.922900	0.000100	0.309300
H51	H5	0.036600	0.028700	0.331300
C121	C12	0.933600	0.938300	0.241400
H61	H6	0.054800	0.925600	0.217400
C131	C13	0.571700	0.972700	0.314000
H71	H7	0.451000	0.983100	0.339000
C141	C14	0.584300	0.910600	0.245700
H81	H8	0.471700	0.879300	0.224900
C151	C15	0.764000	0.895000	0.208740
C161	C16	0.774600	0.837200	0.130980
O61	O6	0.217500	0.186690	0.512640
O71	O7	0.942300	0.825200	0.100490
O81	O8	0.558000	0.120370	0.436900
O91	O9	0.614800	0.807400	0.100730
O101	O10	0.885900	0.136440	0.435840
V21	V2	0.436500	0.234080	0.501840
C171	C17	0.226300	0.402800	0.588540
C181	C18	0.240600	0.480700	0.655300
C191	C19	0.422900	0.499900	0.690700
H91	H9	0.536600	0.471300	0.668700
C201	C20	0.433600	0.561700	0.758600
H101	H10	0.554800	0.574400	0.782600
C211	C21	0.071700	0.527300	0.686000
H111	H11	0.951000	0.516900	0.661000
C221	C22	0.084300	0.589400	0.754300
H121	H12	0.971700	0.620700	0.775100
C231	C23	0.264000	0.605000	0.791260
C241	C24	0.274600	0.662800	0.869020
O111	O11	0.717500	0.313310	0.487360
O121	O12	0.442300	0.674800	0.899510
O131	O13	0.058000	0.379630	0.563100
O141	O14	0.114800	0.692600	0.899270
O151	O15	0.385900	0.363560	0.564160
V31	V3	0.936500	0.265920	0.498160
C251	C25	0.273700	0.597200	0.088540
C261	C26	0.259400	0.519300	0.155300
C271	C27	0.077100	0.500100	0.190700
H131	H13	0.963400	0.528700	0.168700
C281	C28	0.066400	0.438300	0.258600
H141	H14	0.945200	0.425600	0.282600
C291	C29	0.428300	0.472700	0.186000
H151	H15	0.549000	0.483100	0.161000
C301	C30	0.415700	0.410600	0.254300
H161	H16	0.528300	0.379300	0.275100
C311	C31	0.236000	0.395000	0.291260
C321	C32	0.225400	0.337200	0.369020
O161	O16	0.782500	0.686690	0.987360
O171	O17	0.057700	0.325200	0.399510
O181	O18	0.442000	0.620370	0.063100
O191	O19	0.385200	0.307400	0.399270
O201	O20	0.114100	0.636440	0.064160
V41	V4	0.563500	0.734080	0.998160
