data_JUQTOG_clean_PM
_symmetry_space_group_name_H-M	'P1'
_cell_length_a	17.461100
_cell_length_b	17.461100
_cell_length_c	17.461100
_cell_angle_alpha	90.000000
_cell_angle_beta	90.000000
_cell_angle_gamma	90.000000
_symmetry_Int_Tables_number 1

loop_
_symmetry_equiv_pos_as_xyz
'x,y,z'

loop_
_atom_site_label
_atom_site_type_symbol
_atom_site_fract_x
_atom_site_fract_y
_atom_site_fract_z
Co11	Co1	0.144040	0.379030	0.011800
C11	C1	0.731100	0.267700	0.965900
H11	H1	0.715100	0.270700	0.915200
C21	C2	0.746900	0.231800	0.081500
H21	H2	0.743100	0.203200	0.126300
C31	C3	0.779100	0.317900	0.001200
C41	C4	0.817800	0.386800	0.975100
C51	C5	0.263100	0.572200	0.077100
H31	H3	0.263000	0.622800	0.093700
C61	C6	0.299900	0.462300	0.037600
H41	H4	0.331700	0.422200	0.022700
C71	C7	0.198900	0.527700	0.067100
C81	C8	0.118400	0.539100	0.075200
N11	N1	0.787800	0.293200	0.075500
N21	N2	0.710400	0.213300	0.015600
N31	N3	0.326200	0.531400	0.059200
N41	N4	0.224600	0.457100	0.039800
H51	H5	0.549500	0.514800	0.002400
O11	O1	0.820600	0.403600	0.906100
O21	O2	0.849100	0.428300	0.029100
O31	O3	0.091900	0.599700	0.101800
O41	O4	0.077000	0.481300	0.054800
Co21	Co2	0.355960	0.620970	0.511800
C91	C9	0.768900	0.732300	0.465900
H61	H6	0.784900	0.729300	0.415200
C101	C10	0.753100	0.768200	0.581500
H71	H7	0.756900	0.796800	0.626300
C111	C11	0.720900	0.682100	0.501200
C121	C12	0.682200	0.613200	0.475100
C131	C13	0.236900	0.427800	0.577100
H81	H8	0.237000	0.377200	0.593700
C141	C14	0.200100	0.537700	0.537600
H91	H9	0.168300	0.577800	0.522700
C151	C15	0.301100	0.472300	0.567100
C161	C16	0.381600	0.460900	0.575200
N51	N5	0.712200	0.706800	0.575500
N61	N6	0.789600	0.786700	0.515600
N71	N7	0.173800	0.468600	0.559200
N81	N8	0.275400	0.542900	0.539800
H101	H10	0.950500	0.485200	0.502400
O51	O5	0.679400	0.596400	0.406100
O61	O6	0.650900	0.571700	0.529100
O71	O7	0.408100	0.400300	0.601800
O81	O8	0.423000	0.518700	0.554800
Co31	Co3	0.855960	0.879030	0.488200
C171	C17	0.268900	0.767700	0.534100
H111	H11	0.284900	0.770700	0.584800
C181	C18	0.253100	0.731800	0.418500
H121	H12	0.256900	0.703200	0.373700
C191	C19	0.220900	0.817900	0.498800
C201	C20	0.182200	0.886800	0.524900
C211	C21	0.736900	0.072200	0.422900
H131	H13	0.737000	0.122800	0.406300
C221	C22	0.700100	0.962300	0.462400
H141	H14	0.668300	0.922200	0.477300
C231	C23	0.801100	0.027700	0.432900
C241	C24	0.881600	0.039100	0.424800
N91	N9	0.212200	0.793200	0.424500
N101	N10	0.289600	0.713300	0.484400
N111	N11	0.673800	0.031400	0.440800
N121	N12	0.775400	0.957100	0.460200
H151	H15	0.450500	0.014800	0.497600
O91	O9	0.179400	0.903600	0.593900
O101	O10	0.150900	0.928300	0.470900
O111	O11	0.908100	0.099700	0.398200
O121	O12	0.923000	0.981300	0.445200
Co41	Co4	0.644040	0.120970	0.988200
C251	C25	0.231100	0.232300	0.034100
H161	H16	0.215100	0.229300	0.084800
C261	C26	0.246900	0.268200	0.918500
H171	H17	0.243100	0.296800	0.873700
C271	C27	0.279100	0.182100	0.998800
C281	C28	0.317800	0.113200	0.024900
C291	C29	0.763100	0.927800	0.922900
H181	H18	0.763000	0.877200	0.906300
C301	C30	0.799900	0.037700	0.962400
H191	H19	0.831700	0.077800	0.977300
C311	C31	0.698900	0.972300	0.932900
C321	C32	0.618400	0.960900	0.924800
N131	N13	0.287800	0.206800	0.924500
N141	N14	0.210400	0.286700	0.984400
N151	N15	0.826200	0.968600	0.940800
N161	N16	0.724600	0.042900	0.960200
H201	H20	0.049500	0.985200	0.997600
O131	O13	0.320600	0.096400	0.093900
O141	O14	0.349100	0.071700	0.970900
O151	O15	0.591900	0.900300	0.898200
O161	O16	0.577000	0.018700	0.945200
Co51	Co5	0.011800	0.144040	0.379030
C331	C33	0.965900	0.731100	0.267700
H211	H21	0.915200	0.715100	0.270700
C341	C34	0.081500	0.746900	0.231800
H221	H22	0.126300	0.743100	0.203200
C351	C35	0.001200	0.779100	0.317900
C361	C36	0.975100	0.817800	0.386800
C371	C37	0.077100	0.263100	0.572200
H231	H23	0.093700	0.263000	0.622800
C381	C38	0.037600	0.299900	0.462300
H241	H24	0.022700	0.331700	0.422200
C391	C39	0.067100	0.198900	0.527700
C401	C40	0.075200	0.118400	0.539100
N171	N17	0.075500	0.787800	0.293200
N181	N18	0.015600	0.710400	0.213300
N191	N19	0.059200	0.326200	0.531400
N201	N20	0.039800	0.224600	0.457100
H251	H25	0.002400	0.549500	0.514800
O171	O17	0.906100	0.820600	0.403600
O181	O18	0.029100	0.849100	0.428300
O191	O19	0.101800	0.091900	0.599700
O201	O20	0.054800	0.077000	0.481300
Co61	Co6	0.511800	0.355960	0.620970
C411	C41	0.465900	0.768900	0.732300
H261	H26	0.415200	0.784900	0.729300
C421	C42	0.581500	0.753100	0.768200
H271	H27	0.626300	0.756900	0.796800
C431	C43	0.501200	0.720900	0.682100
C441	C44	0.475100	0.682200	0.613200
C451	C45	0.577100	0.236900	0.427800
H281	H28	0.593700	0.237000	0.377200
C461	C46	0.537600	0.200100	0.537700
H291	H29	0.522700	0.168300	0.577800
C471	C47	0.567100	0.301100	0.472300
C481	C48	0.575200	0.381600	0.460900
N211	N21	0.575500	0.712200	0.706800
N221	N22	0.515600	0.789600	0.786700
N231	N23	0.559200	0.173800	0.468600
N241	N24	0.539800	0.275400	0.542900
H301	H30	0.502400	0.950500	0.485200
O211	O21	0.406100	0.679400	0.596400
O221	O22	0.529100	0.650900	0.571700
O231	O23	0.601800	0.408100	0.400300
O241	O24	0.554800	0.423000	0.518700
Co71	Co7	0.488200	0.855960	0.879030
C491	C49	0.534100	0.268900	0.767700
H311	H31	0.584800	0.284900	0.770700
C501	C50	0.418500	0.253100	0.731800
H321	H32	0.373700	0.256900	0.703200
C511	C51	0.498800	0.220900	0.817900
C521	C52	0.524900	0.182200	0.886800
C531	C53	0.422900	0.736900	0.072200
H331	H33	0.406300	0.737000	0.122800
C541	C54	0.462400	0.700100	0.962300
H341	H34	0.477300	0.668300	0.922200
C551	C55	0.432900	0.801100	0.027700
C561	C56	0.424800	0.881600	0.039100
N251	N25	0.424500	0.212200	0.793200
N261	N26	0.484400	0.289600	0.713300
N271	N27	0.440800	0.673800	0.031400
N281	N28	0.460200	0.775400	0.957100
H351	H35	0.497600	0.450500	0.014800
O251	O25	0.593900	0.179400	0.903600
O261	O26	0.470900	0.150900	0.928300
O271	O27	0.398200	0.908100	0.099700
O281	O28	0.445200	0.923000	0.981300
Co81	Co8	0.988200	0.644040	0.120970
C571	C57	0.034100	0.231100	0.232300
H361	H36	0.084800	0.215100	0.229300
C581	C58	0.918500	0.246900	0.268200
H371	H37	0.873700	0.243100	0.296800
C591	C59	0.998800	0.279100	0.182100
C601	C60	0.024900	0.317800	0.113200
C611	C61	0.922900	0.763100	0.927800
H381	H38	0.906300	0.763000	0.877200
C621	C62	0.962400	0.799900	0.037700
H391	H39	0.977300	0.831700	0.077800
C631	C63	0.932900	0.698900	0.972300
C641	C64	0.924800	0.618400	0.960900
N291	N29	0.924500	0.287800	0.206800
N301	N30	0.984400	0.210400	0.286700
N311	N31	0.940800	0.826200	0.968600
N321	N32	0.960200	0.724600	0.042900
H401	H40	0.997600	0.049500	0.985200
O291	O29	0.093900	0.320600	0.096400
O301	O30	0.970900	0.349100	0.071700
O311	O31	0.898200	0.591900	0.900300
O321	O32	0.945200	0.577000	0.018700
Co91	Co9	0.379030	0.011800	0.144040
C651	C65	0.267700	0.965900	0.731100
H411	H41	0.270700	0.915200	0.715100
C661	C66	0.231800	0.081500	0.746900
H421	H42	0.203200	0.126300	0.743100
C671	C67	0.317900	0.001200	0.779100
C681	C68	0.386800	0.975100	0.817800
C691	C69	0.572200	0.077100	0.263100
H431	H43	0.622800	0.093700	0.263000
C701	C70	0.462300	0.037600	0.299900
H441	H44	0.422200	0.022700	0.331700
C711	C71	0.527700	0.067100	0.198900
C721	C72	0.539100	0.075200	0.118400
N331	N33	0.293200	0.075500	0.787800
N341	N34	0.213300	0.015600	0.710400
N351	N35	0.531400	0.059200	0.326200
N361	N36	0.457100	0.039800	0.224600
H451	H45	0.514800	0.002400	0.549500
O331	O33	0.403600	0.906100	0.820600
O341	O34	0.428300	0.029100	0.849100
O351	O35	0.599700	0.101800	0.091900
O361	O36	0.481300	0.054800	0.077000
Co101	Co10	0.620970	0.511800	0.355960
C731	C73	0.732300	0.465900	0.768900
H461	H46	0.729300	0.415200	0.784900
C741	C74	0.768200	0.581500	0.753100
H471	H47	0.796800	0.626300	0.756900
C751	C75	0.682100	0.501200	0.720900
C761	C76	0.613200	0.475100	0.682200
C771	C77	0.427800	0.577100	0.236900
H481	H48	0.377200	0.593700	0.237000
C781	C78	0.537700	0.537600	0.200100
H491	H49	0.577800	0.522700	0.168300
C791	C79	0.472300	0.567100	0.301100
C801	C80	0.460900	0.575200	0.381600
N371	N37	0.706800	0.575500	0.712200
N381	N38	0.786700	0.515600	0.789600
N391	N39	0.468600	0.559200	0.173800
N401	N40	0.542900	0.539800	0.275400
H501	H50	0.485200	0.502400	0.950500
O371	O37	0.596400	0.406100	0.679400
O381	O38	0.571700	0.529100	0.650900
O391	O39	0.400300	0.601800	0.408100
O401	O40	0.518700	0.554800	0.423000
Co111	Co11	0.879030	0.488200	0.855960
C811	C81	0.767700	0.534100	0.268900
H511	H51	0.770700	0.584800	0.284900
C821	C82	0.731800	0.418500	0.253100
H521	H52	0.703200	0.373700	0.256900
C831	C83	0.817900	0.498800	0.220900
C841	C84	0.886800	0.524900	0.182200
C851	C85	0.072200	0.422900	0.736900
H531	H53	0.122800	0.406300	0.737000
C861	C86	0.962300	0.462400	0.700100
H541	H54	0.922200	0.477300	0.668300
C871	C87	0.027700	0.432900	0.801100
C881	C88	0.039100	0.424800	0.881600
N411	N41	0.793200	0.424500	0.212200
N421	N42	0.713300	0.484400	0.289600
N431	N43	0.031400	0.440800	0.673800
N441	N44	0.957100	0.460200	0.775400
H551	H55	0.014800	0.497600	0.450500
O411	O41	0.903600	0.593900	0.179400
O421	O42	0.928300	0.470900	0.150900
O431	O43	0.099700	0.398200	0.908100
O441	O44	0.981300	0.445200	0.923000
Co121	Co12	0.120970	0.988200	0.644040
C891	C89	0.232300	0.034100	0.231100
H561	H56	0.229300	0.084800	0.215100
C901	C90	0.268200	0.918500	0.246900
H571	H57	0.296800	0.873700	0.243100
C911	C91	0.182100	0.998800	0.279100
C921	C92	0.113200	0.024900	0.317800
C931	C93	0.927800	0.922900	0.763100
H581	H58	0.877200	0.906300	0.763000
C941	C94	0.037700	0.962400	0.799900
H591	H59	0.077800	0.977300	0.831700
C951	C95	0.972300	0.932900	0.698900
C961	C96	0.960900	0.924800	0.618400
N451	N45	0.206800	0.924500	0.287800
N461	N46	0.286700	0.984400	0.210400
N471	N47	0.968600	0.940800	0.826200
N481	N48	0.042900	0.960200	0.724600
H601	H60	0.985200	0.997600	0.049500
O451	O45	0.096400	0.093900	0.320600
O461	O46	0.071700	0.970900	0.349100
O471	O47	0.900300	0.898200	0.591900
O481	O48	0.018700	0.945200	0.577000
Co131	Co13	0.436040	0.563960	0.063960
N491	N49	0.501100	0.498900	0.998900
Co141	Co14	0.063960	0.436040	0.563960
N501	N50	0.998900	0.501100	0.498900
Co151	Co15	0.563960	0.063960	0.436040
N511	N51	0.498900	0.998900	0.501100
Co161	Co16	0.936040	0.936040	0.936040
N521	N52	0.001100	0.001100	0.001100
Co171	Co17	0.963250	0.463250	0.036750
Co181	Co18	0.860900	0.360900	0.139100
Co191	Co19	0.536750	0.536750	0.536750
Co201	Co20	0.639100	0.639100	0.639100
Co211	Co21	0.036750	0.963250	0.463250
Co221	Co22	0.139100	0.860900	0.360900
Co231	Co23	0.463250	0.036750	0.963250
Co241	Co24	0.360900	0.139100	0.860900
