data_JUQVAU_clean_PM
_symmetry_space_group_name_H-M	'P1'
_cell_length_a	17.527900
_cell_length_b	17.527900
_cell_length_c	17.527900
_cell_angle_alpha	90.000000
_cell_angle_beta	90.000000
_cell_angle_gamma	90.000000
_symmetry_Int_Tables_number 1

loop_
_symmetry_equiv_pos_as_xyz
'x,y,z'

loop_
_atom_site_label
_atom_site_type_symbol
_atom_site_fract_x
_atom_site_fract_y
_atom_site_fract_z
Co11	Co1	0.871330	0.105530	0.238260
N11	N1	0.792400	0.025700	0.211100
O11	O1	0.769640	0.173420	0.194270
N21	N2	0.961800	0.037300	0.265300
O21	O2	0.930800	0.155900	0.154100
O31	O3	0.854600	0.152200	0.340350
C11	C1	0.785200	0.951900	0.214600
C21	C2	0.723100	0.052000	0.181200
C31	C3	0.712800	0.134300	0.173200
C41	C4	0.018000	0.018100	0.215600
C51	C5	0.979800	0.000500	0.329100
C61	C6	0.931400	0.225400	0.138100
N31	N3	0.718100	0.925500	0.190400
H11	H1	0.825400	0.919500	0.233800
C71	C7	0.678400	0.989100	0.168600
O41	O4	0.901240	0.279040	0.178160
C81	C8	0.067500	0.970200	0.251100
H21	H2	0.022200	0.033200	0.166300
N41	N4	0.042900	0.959700	0.324700
H31	H3	0.951500	0.001700	0.374300
H41	H4	0.630200	0.990200	0.151100
Co21	Co2	0.628670	0.894470	0.738260
N51	N5	0.707600	0.974300	0.711100
O51	O5	0.730360	0.826580	0.694270
N61	N6	0.538200	0.962700	0.765300
O61	O6	0.569200	0.844100	0.654100
O71	O7	0.645400	0.847800	0.840350
C91	C9	0.714800	0.048100	0.714600
C101	C10	0.776900	0.948000	0.681200
C111	C11	0.787200	0.865700	0.673200
C121	C12	0.482000	0.981900	0.715600
C131	C13	0.520200	0.999500	0.829100
C141	C14	0.568600	0.774600	0.638100
N71	N7	0.781900	0.074500	0.690400
H51	H5	0.674600	0.080500	0.733800
C151	C15	0.821600	0.010900	0.668600
O81	O8	0.598760	0.720960	0.678160
C161	C16	0.432500	0.029800	0.751100
H61	H6	0.477800	0.966800	0.666300
N81	N8	0.457100	0.040300	0.824700
H71	H7	0.548500	0.998300	0.874300
H81	H8	0.869800	0.009800	0.651100
Co31	Co3	0.128670	0.605530	0.261740
N91	N9	0.207600	0.525700	0.288900
O91	O9	0.230360	0.673420	0.305730
N101	N10	0.038200	0.537300	0.234700
O101	O10	0.069200	0.655900	0.345900
O111	O11	0.145400	0.652200	0.159650
C171	C17	0.214800	0.451900	0.285400
C181	C18	0.276900	0.552000	0.318800
C191	C19	0.287200	0.634300	0.326800
C201	C20	0.982000	0.518100	0.284400
C211	C21	0.020200	0.500500	0.170900
C221	C22	0.068600	0.725400	0.361900
N111	N11	0.281900	0.425500	0.309600
H91	H9	0.174600	0.419500	0.266200
C231	C23	0.321600	0.489100	0.331400
O121	O12	0.098760	0.779040	0.321840
C241	C24	0.932500	0.470200	0.248900
H101	H10	0.977800	0.533200	0.333700
N121	N12	0.957100	0.459700	0.175300
H111	H11	0.048500	0.501700	0.125700
H121	H12	0.369800	0.490200	0.348900
Co41	Co4	0.371330	0.394470	0.761740
N131	N13	0.292400	0.474300	0.788900
O131	O13	0.269640	0.326580	0.805730
N141	N14	0.461800	0.462700	0.734700
O141	O14	0.430800	0.344100	0.845900
O151	O15	0.354600	0.347800	0.659650
C251	C25	0.285200	0.548100	0.785400
C261	C26	0.223100	0.448000	0.818800
C271	C27	0.212800	0.365700	0.826800
C281	C28	0.518000	0.481900	0.784400
C291	C29	0.479800	0.499500	0.670900
C301	C30	0.431400	0.274600	0.861900
N151	N15	0.218100	0.574500	0.809600
H131	H13	0.325400	0.580500	0.766200
C311	C31	0.178400	0.510900	0.831400
O161	O16	0.401240	0.220960	0.821840
C321	C32	0.567500	0.529800	0.748900
H141	H14	0.522200	0.466800	0.833700
N161	N16	0.542900	0.540300	0.675300
H151	H15	0.451500	0.498300	0.625700
H161	H16	0.130200	0.509800	0.848900
Co51	Co5	0.238260	0.871330	0.105530
N171	N17	0.211100	0.792400	0.025700
O171	O17	0.194270	0.769640	0.173420
N181	N18	0.265300	0.961800	0.037300
O181	O18	0.154100	0.930800	0.155900
O191	O19	0.340350	0.854600	0.152200
C331	C33	0.214600	0.785200	0.951900
C341	C34	0.181200	0.723100	0.052000
C351	C35	0.173200	0.712800	0.134300
C361	C36	0.215600	0.018000	0.018100
C371	C37	0.329100	0.979800	0.000500
C381	C38	0.138100	0.931400	0.225400
N191	N19	0.190400	0.718100	0.925500
H171	H17	0.233800	0.825400	0.919500
C391	C39	0.168600	0.678400	0.989100
O201	O20	0.178160	0.901240	0.279040
C401	C40	0.251100	0.067500	0.970200
H181	H18	0.166300	0.022200	0.033200
N201	N20	0.324700	0.042900	0.959700
H191	H19	0.374300	0.951500	0.001700
H201	H20	0.151100	0.630200	0.990200
Co61	Co6	0.738260	0.628670	0.894470
N211	N21	0.711100	0.707600	0.974300
O211	O21	0.694270	0.730360	0.826580
N221	N22	0.765300	0.538200	0.962700
O221	O22	0.654100	0.569200	0.844100
O231	O23	0.840350	0.645400	0.847800
C411	C41	0.714600	0.714800	0.048100
C421	C42	0.681200	0.776900	0.948000
C431	C43	0.673200	0.787200	0.865700
C441	C44	0.715600	0.482000	0.981900
C451	C45	0.829100	0.520200	0.999500
C461	C46	0.638100	0.568600	0.774600
N231	N23	0.690400	0.781900	0.074500
H211	H21	0.733800	0.674600	0.080500
C471	C47	0.668600	0.821600	0.010900
O241	O24	0.678160	0.598760	0.720960
C481	C48	0.751100	0.432500	0.029800
H221	H22	0.666300	0.477800	0.966800
N241	N24	0.824700	0.457100	0.040300
H231	H23	0.874300	0.548500	0.998300
H241	H24	0.651100	0.869800	0.009800
Co71	Co7	0.261740	0.128670	0.605530
N251	N25	0.288900	0.207600	0.525700
O251	O25	0.305730	0.230360	0.673420
N261	N26	0.234700	0.038200	0.537300
O261	O26	0.345900	0.069200	0.655900
O271	O27	0.159650	0.145400	0.652200
C491	C49	0.285400	0.214800	0.451900
C501	C50	0.318800	0.276900	0.552000
C511	C51	0.326800	0.287200	0.634300
C521	C52	0.284400	0.982000	0.518100
C531	C53	0.170900	0.020200	0.500500
C541	C54	0.361900	0.068600	0.725400
N271	N27	0.309600	0.281900	0.425500
H251	H25	0.266200	0.174600	0.419500
C551	C55	0.331400	0.321600	0.489100
O281	O28	0.321840	0.098760	0.779040
C561	C56	0.248900	0.932500	0.470200
H261	H26	0.333700	0.977800	0.533200
N281	N28	0.175300	0.957100	0.459700
H271	H27	0.125700	0.048500	0.501700
H281	H28	0.348900	0.369800	0.490200
Co81	Co8	0.761740	0.371330	0.394470
N291	N29	0.788900	0.292400	0.474300
O291	O29	0.805730	0.269640	0.326580
N301	N30	0.734700	0.461800	0.462700
O301	O30	0.845900	0.430800	0.344100
O311	O31	0.659650	0.354600	0.347800
C571	C57	0.785400	0.285200	0.548100
C581	C58	0.818800	0.223100	0.448000
C591	C59	0.826800	0.212800	0.365700
C601	C60	0.784400	0.518000	0.481900
C611	C61	0.670900	0.479800	0.499500
C621	C62	0.861900	0.431400	0.274600
N311	N31	0.809600	0.218100	0.574500
H291	H29	0.766200	0.325400	0.580500
C631	C63	0.831400	0.178400	0.510900
O321	O32	0.821840	0.401240	0.220960
C641	C64	0.748900	0.567500	0.529800
H301	H30	0.833700	0.522200	0.466800
N321	N32	0.675300	0.542900	0.540300
H311	H31	0.625700	0.451500	0.498300
H321	H32	0.848900	0.130200	0.509800
Co91	Co9	0.105530	0.238260	0.871330
N331	N33	0.025700	0.211100	0.792400
O331	O33	0.173420	0.194270	0.769640
N341	N34	0.037300	0.265300	0.961800
O341	O34	0.155900	0.154100	0.930800
O351	O35	0.152200	0.340350	0.854600
C651	C65	0.951900	0.214600	0.785200
C661	C66	0.052000	0.181200	0.723100
C671	C67	0.134300	0.173200	0.712800
C681	C68	0.018100	0.215600	0.018000
C691	C69	0.000500	0.329100	0.979800
C701	C70	0.225400	0.138100	0.931400
N351	N35	0.925500	0.190400	0.718100
H331	H33	0.919500	0.233800	0.825400
C711	C71	0.989100	0.168600	0.678400
O361	O36	0.279040	0.178160	0.901240
C721	C72	0.970200	0.251100	0.067500
H341	H34	0.033200	0.166300	0.022200
N361	N36	0.959700	0.324700	0.042900
H351	H35	0.001700	0.374300	0.951500
H361	H36	0.990200	0.151100	0.630200
Co101	Co10	0.894470	0.738260	0.628670
N371	N37	0.974300	0.711100	0.707600
O371	O37	0.826580	0.694270	0.730360
N381	N38	0.962700	0.765300	0.538200
O381	O38	0.844100	0.654100	0.569200
O391	O39	0.847800	0.840350	0.645400
C731	C73	0.048100	0.714600	0.714800
C741	C74	0.948000	0.681200	0.776900
C751	C75	0.865700	0.673200	0.787200
C761	C76	0.981900	0.715600	0.482000
C771	C77	0.999500	0.829100	0.520200
C781	C78	0.774600	0.638100	0.568600
N391	N39	0.074500	0.690400	0.781900
H371	H37	0.080500	0.733800	0.674600
C791	C79	0.010900	0.668600	0.821600
O401	O40	0.720960	0.678160	0.598760
C801	C80	0.029800	0.751100	0.432500
H381	H38	0.966800	0.666300	0.477800
N401	N40	0.040300	0.824700	0.457100
H391	H39	0.998300	0.874300	0.548500
H401	H40	0.009800	0.651100	0.869800
Co111	Co11	0.605530	0.261740	0.128670
N411	N41	0.525700	0.288900	0.207600
O411	O41	0.673420	0.305730	0.230360
N421	N42	0.537300	0.234700	0.038200
O421	O42	0.655900	0.345900	0.069200
O431	O43	0.652200	0.159650	0.145400
C811	C81	0.451900	0.285400	0.214800
C821	C82	0.552000	0.318800	0.276900
C831	C83	0.634300	0.326800	0.287200
C841	C84	0.518100	0.284400	0.982000
C851	C85	0.500500	0.170900	0.020200
C861	C86	0.725400	0.361900	0.068600
N431	N43	0.425500	0.309600	0.281900
H411	H41	0.419500	0.266200	0.174600
C871	C87	0.489100	0.331400	0.321600
O441	O44	0.779040	0.321840	0.098760
C881	C88	0.470200	0.248900	0.932500
H421	H42	0.533200	0.333700	0.977800
N441	N44	0.459700	0.175300	0.957100
H431	H43	0.501700	0.125700	0.048500
H441	H44	0.490200	0.348900	0.369800
Co121	Co12	0.394470	0.761740	0.371330
N451	N45	0.474300	0.788900	0.292400
O451	O45	0.326580	0.805730	0.269640
N461	N46	0.462700	0.734700	0.461800
O461	O46	0.344100	0.845900	0.430800
O471	O47	0.347800	0.659650	0.354600
C891	C89	0.548100	0.785400	0.285200
C901	C90	0.448000	0.818800	0.223100
C911	C91	0.365700	0.826800	0.212800
C921	C92	0.481900	0.784400	0.518000
C931	C93	0.499500	0.670900	0.479800
C941	C94	0.274600	0.861900	0.431400
N471	N47	0.574500	0.809600	0.218100
H451	H45	0.580500	0.766200	0.325400
C951	C95	0.510900	0.831400	0.178400
O481	O48	0.220960	0.821840	0.401240
C961	C96	0.529800	0.748900	0.567500
H461	H46	0.466800	0.833700	0.522200
N481	N48	0.540300	0.675300	0.542900
H471	H47	0.498300	0.625700	0.451500
H481	H48	0.509800	0.848900	0.130200
Co131	Co13	0.787040	0.287040	0.212960
Co141	Co14	0.888950	0.388950	0.111050
Co151	Co15	0.712960	0.712960	0.712960
Co161	Co16	0.611050	0.611050	0.611050
Co171	Co17	0.212960	0.787040	0.287040
Co181	Co18	0.111050	0.888950	0.388950
Co191	Co19	0.287040	0.212960	0.787040
Co201	Co20	0.388950	0.111050	0.888950
Co211	Co21	0.684090	0.815910	0.184090
Co221	Co22	0.815910	0.184090	0.684090
Co231	Co23	0.315910	0.315910	0.315910
Co241	Co24	0.184090	0.684090	0.815910
