data_JUSHAI_clean_PM
_symmetry_space_group_name_H-M	'P1'
_cell_length_a	12.282100
_cell_length_b	14.426000
_cell_length_c	12.573300
_cell_angle_alpha	90.000000
_cell_angle_beta	113.909000
_cell_angle_gamma	90.000000
_symmetry_Int_Tables_number 1

loop_
_symmetry_equiv_pos_as_xyz
'x,y,z'

loop_
_atom_site_label
_atom_site_type_symbol
_atom_site_fract_x
_atom_site_fract_y
_atom_site_fract_z
C11	C1	0.926400	0.254800	0.286900
C21	C2	0.033100	0.252400	0.273700
H11	H1	0.090400	0.297400	0.309600
C31	C3	0.055700	0.183700	0.207800
C41	C4	0.968900	0.117300	0.154300
H21	H2	0.983300	0.070600	0.110600
C51	C5	0.860800	0.119700	0.165100
C61	C6	0.840300	0.188000	0.232900
H31	H3	0.768800	0.188900	0.242000
C71	C7	0.904300	0.331400	0.356700
C81	C8	0.168900	0.187000	0.189100
C91	C9	0.764400	0.051200	0.098000
C101	C10	0.894900	0.508600	0.732900
H41	H4	0.842100	0.541500	0.669400
C111	C11	0.911100	0.534400	0.843200
H51	H5	0.869100	0.584600	0.853900
C121	C12	0.990000	0.486100	0.939300
C131	C13	0.049700	0.410900	0.917300
H61	H6	0.102700	0.376400	0.979000
C141	C14	0.030500	0.387600	0.805100
H71	H7	0.070900	0.337600	0.791500
Co11	Co1	0.759770	0.362570	0.503550
N11	N1	0.954300	0.436200	0.715700
O11	O1	0.808300	0.330340	0.368800
O21	O2	0.986300	0.391140	0.397300
O31	O3	0.238600	0.253700	0.233700
O41	O4	0.184300	0.124850	0.126400
O51	O5	0.788700	0.998780	0.029900
O61	O6	0.668900	0.052370	0.111000
O71	O7	0.934600	0.411110	0.605800
H81	H8	0.983000	0.355000	0.617500
C151	C15	0.573600	0.754800	0.213100
C161	C16	0.466900	0.752400	0.226300
H91	H9	0.409600	0.797400	0.190400
C171	C17	0.444300	0.683700	0.292200
C181	C18	0.531100	0.617300	0.345700
H101	H10	0.516700	0.570600	0.389400
C191	C19	0.639200	0.619700	0.334900
C201	C20	0.659700	0.688000	0.267100
H111	H11	0.731200	0.688900	0.258000
C211	C21	0.595700	0.831400	0.143300
C221	C22	0.331100	0.687000	0.310900
C231	C23	0.735600	0.551200	0.402000
C241	C24	0.605100	0.008600	0.767100
H121	H12	0.657900	0.041500	0.830600
C251	C25	0.588900	0.034400	0.656800
H131	H13	0.630900	0.084600	0.646100
C261	C26	0.510000	0.986100	0.560700
C271	C27	0.450300	0.910900	0.582700
H141	H14	0.397300	0.876400	0.521000
C281	C28	0.469500	0.887600	0.694900
H151	H15	0.429100	0.837600	0.708500
Co21	Co2	0.740230	0.862570	0.996450
N21	N2	0.545700	0.936200	0.784300
O81	O8	0.691700	0.830340	0.131200
O91	O9	0.513700	0.891140	0.102700
O101	O10	0.261400	0.753700	0.266300
O111	O11	0.315700	0.624850	0.373600
O121	O12	0.711300	0.498780	0.470100
O131	O13	0.831100	0.552370	0.389000
O141	O14	0.565400	0.911110	0.894200
H161	H16	0.517000	0.855000	0.882500
C291	C29	0.073600	0.745200	0.713100
C301	C30	0.966900	0.747600	0.726300
H171	H17	0.909600	0.702600	0.690400
C311	C31	0.944300	0.816300	0.792200
C321	C32	0.031100	0.882700	0.845700
H181	H18	0.016700	0.929400	0.889400
C331	C33	0.139200	0.880300	0.834900
C341	C34	0.159700	0.812000	0.767100
H191	H19	0.231200	0.811100	0.758000
C351	C35	0.095700	0.668600	0.643300
C361	C36	0.831100	0.813000	0.810900
C371	C37	0.235600	0.948800	0.902000
C381	C38	0.105100	0.491400	0.267100
H201	H20	0.157900	0.458500	0.330600
C391	C39	0.088900	0.465600	0.156800
H211	H21	0.130900	0.415400	0.146100
C401	C40	0.010000	0.513900	0.060700
C411	C41	0.950300	0.589100	0.082700
H221	H22	0.897300	0.623600	0.021000
C421	C42	0.969500	0.612400	0.194900
H231	H23	0.929100	0.662400	0.208500
Co31	Co3	0.240230	0.637430	0.496450
N31	N3	0.045700	0.563800	0.284300
O151	O15	0.191700	0.669660	0.631200
O161	O16	0.013700	0.608860	0.602700
O171	O17	0.761400	0.746300	0.766300
O181	O18	0.815700	0.875150	0.873600
O191	O19	0.211300	0.001220	0.970100
O201	O20	0.331100	0.947630	0.889000
O211	O21	0.065400	0.588890	0.394200
H241	H24	0.017000	0.645000	0.382500
C431	C43	0.426400	0.245200	0.786900
C441	C44	0.533100	0.247600	0.773700
H251	H25	0.590400	0.202600	0.809600
C451	C45	0.555700	0.316300	0.707800
C461	C46	0.468900	0.382700	0.654300
H261	H26	0.483300	0.429400	0.610600
C471	C47	0.360800	0.380300	0.665100
C481	C48	0.340300	0.312000	0.732900
H271	H27	0.268800	0.311100	0.742000
C491	C49	0.404300	0.168600	0.856700
C501	C50	0.668900	0.313000	0.689100
C511	C51	0.264400	0.448800	0.598000
C521	C52	0.394900	0.991400	0.232900
H281	H28	0.342100	0.958500	0.169400
C531	C53	0.411100	0.965600	0.343200
H291	H29	0.369100	0.915400	0.353900
C541	C54	0.490000	0.013900	0.439300
C551	C55	0.549700	0.089100	0.417300
H301	H30	0.602700	0.123600	0.479000
C561	C56	0.530500	0.112400	0.305100
H311	H31	0.570900	0.162400	0.291500
Co41	Co4	0.259770	0.137430	0.003550
N41	N4	0.454300	0.063800	0.215700
O221	O22	0.308300	0.169660	0.868800
O231	O23	0.486300	0.108860	0.897300
O241	O24	0.738600	0.246300	0.733700
O251	O25	0.684300	0.375150	0.626400
O261	O26	0.288700	0.501220	0.529900
O271	O27	0.168900	0.447630	0.611000
O281	O28	0.434600	0.088890	0.105800
H321	H32	0.483000	0.145000	0.117500
Co51	Co5	0.000000	0.500000	0.500000
Co61	Co6	0.500000	0.000000	0.000000
