data_JUSHIQ_clean_PM
_symmetry_space_group_name_H-M	'P1'
_cell_length_a	12.176100
_cell_length_b	14.336000
_cell_length_c	12.555200
_cell_angle_alpha	90.000000
_cell_angle_beta	113.220000
_cell_angle_gamma	90.000000
_symmetry_Int_Tables_number 1

loop_
_symmetry_equiv_pos_as_xyz
'x,y,z'

loop_
_atom_site_label
_atom_site_type_symbol
_atom_site_fract_x
_atom_site_fract_y
_atom_site_fract_z
Ni11	Ni1	0.738370	0.637430	0.495300
O11	O1	0.691600	0.668570	0.629000
O21	O2	0.566400	0.587560	0.397600
O31	O3	0.313500	0.876970	0.874600
O41	O4	0.710200	0.003840	0.966100
C11	C1	0.593700	0.667700	0.641200
N11	N1	0.546900	0.562400	0.285700
C21	C2	0.573000	0.744800	0.713100
O51	O5	0.510600	0.609570	0.600100
C31	C3	0.469600	0.611900	0.197700
C41	C4	0.606100	0.490600	0.266500
O61	O6	0.833760	0.946380	0.889200
C51	C5	0.465600	0.747600	0.726700
C61	C6	0.660300	0.812200	0.765800
H11	H1	0.428300	0.661400	0.212500
C71	C7	0.451200	0.589800	0.085800
C81	C8	0.590300	0.464900	0.155600
H21	H2	0.659000	0.457100	0.329200
H31	H3	0.407900	0.702300	0.691700
C91	C9	0.443200	0.817600	0.792300
C101	C10	0.640300	0.880700	0.834800
H41	H4	0.731600	0.811400	0.755000
H51	H5	0.399100	0.625700	0.025300
C111	C11	0.510000	0.513400	0.060900
H61	H6	0.633300	0.415100	0.144100
C121	C12	0.530500	0.883700	0.846200
C131	C13	0.328200	0.813500	0.812300
C141	C14	0.736000	0.949600	0.901000
H71	H7	0.516100	0.930500	0.890400
O71	O7	0.257500	0.748350	0.765900
H81	H8	0.517300	0.643800	0.386200
Ni21	Ni2	0.761630	0.137430	0.004700
O81	O8	0.808400	0.168570	0.871000
O91	O9	0.933600	0.087560	0.102400
O101	O10	0.186500	0.376970	0.625400
O111	O11	0.789800	0.503840	0.533900
C151	C15	0.906300	0.167700	0.858800
N21	N2	0.953100	0.062400	0.214300
C161	C16	0.927000	0.244800	0.786900
O121	O12	0.989400	0.109570	0.899900
C171	C17	0.030400	0.111900	0.302300
C181	C18	0.893900	0.990600	0.233500
O131	O13	0.666240	0.446380	0.610800
C191	C19	0.034400	0.247600	0.773300
C201	C20	0.839700	0.312200	0.734200
H91	H9	0.071700	0.161400	0.287500
C211	C21	0.048800	0.089800	0.414200
C221	C22	0.909700	0.964900	0.344400
H101	H10	0.841000	0.957100	0.170800
H111	H11	0.092100	0.202300	0.808300
C231	C23	0.056800	0.317600	0.707700
C241	C24	0.859700	0.380700	0.665200
H121	H12	0.768400	0.311400	0.745000
H131	H13	0.100900	0.125700	0.474700
C251	C25	0.990000	0.013400	0.439100
H141	H14	0.866700	0.915100	0.355900
C261	C26	0.969500	0.383700	0.653800
C271	C27	0.171800	0.313500	0.687700
C281	C28	0.764000	0.449600	0.599000
H151	H15	0.983900	0.430500	0.609600
O141	O14	0.242500	0.248350	0.734100
H161	H16	0.982700	0.143800	0.113800
Ni31	Ni3	0.261630	0.362570	0.504700
O151	O15	0.308400	0.331430	0.371000
O161	O16	0.433600	0.412440	0.602400
O171	O17	0.686500	0.123030	0.125400
O181	O18	0.289800	0.996160	0.033900
C291	C29	0.406300	0.332300	0.358800
N31	N3	0.453100	0.437600	0.714300
C301	C30	0.427000	0.255200	0.286900
O191	O19	0.489400	0.390430	0.399900
C311	C31	0.530400	0.388100	0.802300
C321	C32	0.393900	0.509400	0.733500
O201	O20	0.166240	0.053620	0.110800
C331	C33	0.534400	0.252400	0.273300
C341	C34	0.339700	0.187800	0.234200
H171	H17	0.571700	0.338600	0.787500
C351	C35	0.548800	0.410200	0.914200
C361	C36	0.409700	0.535100	0.844400
H181	H18	0.341000	0.542900	0.670800
H191	H19	0.592100	0.297700	0.308300
C371	C37	0.556800	0.182400	0.207700
C381	C38	0.359700	0.119300	0.165200
H201	H20	0.268400	0.188600	0.245000
H211	H21	0.600900	0.374300	0.974700
C391	C39	0.490000	0.486600	0.939100
H221	H22	0.366700	0.584900	0.855900
C401	C40	0.469500	0.116300	0.153800
C411	C41	0.671800	0.186500	0.187700
C421	C42	0.264000	0.050400	0.099000
H231	H23	0.483900	0.069500	0.109600
O211	O21	0.742500	0.251650	0.234100
H241	H24	0.482700	0.356200	0.613800
Ni41	Ni4	0.238370	0.862570	0.995300
O221	O22	0.191600	0.831430	0.129000
O231	O23	0.066400	0.912440	0.897600
O241	O24	0.813500	0.623030	0.374600
O251	O25	0.210200	0.496160	0.466100
C431	C43	0.093700	0.832300	0.141200
N41	N4	0.046900	0.937600	0.785700
C441	C44	0.073000	0.755200	0.213100
O261	O26	0.010600	0.890430	0.100100
C451	C45	0.969600	0.888100	0.697700
C461	C46	0.106100	0.009400	0.766500
O271	O27	0.333760	0.553620	0.389200
C471	C47	0.965600	0.752400	0.226700
C481	C48	0.160300	0.687800	0.265800
H251	H25	0.928300	0.838600	0.712500
C491	C49	0.951200	0.910200	0.585800
C501	C50	0.090300	0.035100	0.655600
H261	H26	0.159000	0.042900	0.829200
H271	H27	0.907900	0.797700	0.191700
C511	C51	0.943200	0.682400	0.292300
C521	C52	0.140300	0.619300	0.334800
H281	H28	0.231600	0.688600	0.255000
H291	H29	0.899100	0.874300	0.525300
C531	C53	0.010000	0.986600	0.560900
H301	H30	0.133300	0.084900	0.644100
C541	C54	0.030500	0.616300	0.346200
C551	C55	0.828200	0.686500	0.312300
C561	C56	0.236000	0.550400	0.401000
H311	H31	0.016100	0.569500	0.390400
O281	O28	0.757500	0.751650	0.265900
H321	H32	0.017300	0.856200	0.886200
Ni51	Ni5	0.500000	0.500000	0.500000
Ni61	Ni6	0.000000	0.000000	0.000000
