data_JUSKAL_clean_PM
_symmetry_space_group_name_H-M	'P1'
_cell_length_a	9.036200
_cell_length_b	17.484000
_cell_length_c	24.772000
_cell_angle_alpha	69.717000
_cell_angle_beta	84.873000
_cell_angle_gamma	82.904000
_symmetry_Int_Tables_number 1

loop_
_symmetry_equiv_pos_as_xyz
'x,y,z'

loop_
_atom_site_label
_atom_site_type_symbol
_atom_site_fract_x
_atom_site_fract_y
_atom_site_fract_z
Ba11	Ba1	0.748530	0.816120	0.689820
Ba21	Ba2	0.248320	0.735730	0.769870
O11	O1	0.543100	0.783100	0.788700
O21	O2	0.645700	0.711000	0.640200
O31	O3	0.351000	0.818300	0.839000
O41	O4	0.450700	0.772600	0.673000
O51	O5	0.595100	0.017600	0.740100
H11	H1	0.680100	0.996800	0.736300
O61	O6	0.098500	0.874400	0.879500
H21	H2	0.088300	0.865000	0.914300
O71	O7	0.851000	0.942700	0.717700
O81	O8	0.396600	0.775000	0.190200
O91	O9	0.454700	0.605900	0.778800
O101	O10	0.527600	0.701200	0.124800
O111	O11	0.545100	0.950900	0.683300
O121	O12	0.099900	0.078400	0.957000
C11	C1	0.507000	0.726500	0.646500
O131	O13	0.893600	0.437000	0.545200
O141	O14	0.399900	0.498500	0.760000
H31	H3	0.316000	0.523200	0.757700
O151	O15	0.400200	0.287200	0.695700
C21	C2	0.363000	0.596700	0.569900
O161	O16	0.544800	0.206600	0.635200
O171	O17	0.963200	0.211600	0.965700
C31	C3	0.455800	0.459800	0.558700
O181	O18	0.033600	0.303800	0.537900
C41	C4	0.634300	0.912900	0.923000
C51	C5	0.405000	0.687300	0.621100
C61	C6	0.487200	0.813000	0.825800
C71	C7	0.785400	0.898100	0.914300
H41	H4	0.850400	0.916800	0.932900
C81	C8	0.245000	0.966200	0.712800
H51	H5	0.283200	0.922200	0.701200
C91	C9	0.458300	0.632800	0.593800
H61	H6	0.560800	0.619300	0.590900
C101	C10	0.022800	0.250100	0.697000
C111	C11	0.210400	0.614200	0.576300
H71	H7	0.145200	0.588700	0.562600
C121	C12	0.591300	0.841700	0.858000
C131	C13	0.134200	0.104200	0.740800
C141	C14	0.525500	0.913000	0.020400
C151	C15	0.429700	0.546400	0.534400
C161	C16	0.252100	0.707600	0.625100
H81	H8	0.214600	0.746200	0.642100
C171	C17	0.952500	0.325300	0.701300
C181	C18	0.090800	0.981700	0.721600
C191	C19	0.538400	0.883900	0.895000
H91	H9	0.435900	0.893100	0.901500
C201	C20	0.543800	0.044000	0.941700
C211	C21	0.527600	0.415100	0.523800
C221	C22	0.988800	0.925100	0.713900
C231	C23	0.568500	0.958400	0.963300
C241	C24	0.068100	0.184000	0.747500
C251	C25	0.754700	0.568900	0.766400
H101	H10	0.717800	0.619500	0.769300
C261	C26	0.041400	0.193700	0.801500
C271	C27	0.744200	0.827700	0.849700
H111	H11	0.781900	0.799500	0.825000
C281	C28	0.037700	0.052100	0.734000
H121	H12	0.935200	0.064900	0.737900
C291	C29	0.906200	0.549700	0.762000
C301	C30	0.285300	0.085600	0.735300
H131	H13	0.350300	0.119300	0.740700
C311	C31	0.972100	0.268700	0.806100
C321	C32	0.861500	0.415400	0.760600
C331	C33	0.928100	0.334300	0.756100
C341	C34	0.959600	0.471900	0.759700
H141	H14	0.062100	0.457600	0.757500
C351	C35	0.154500	0.670700	0.603800
C361	C36	0.932400	0.380100	0.597400
C371	C37	0.410500	0.416700	0.617500
H151	H15	0.361200	0.445700	0.640100
C381	C38	0.005600	0.305500	0.593100
C391	C39	0.434900	0.826200	0.135000
C401	C40	0.438800	0.334400	0.640200
C411	C41	0.051200	0.242700	0.641600
H161	H16	0.101400	0.194700	0.638100
C421	C42	0.558000	0.326800	0.550300
H171	H17	0.606600	0.296200	0.528700
C431	C43	0.411100	0.909000	0.115300
H181	H18	0.364100	0.935600	0.139800
C441	C44	0.646000	0.162700	0.607000
H191	H19	0.600900	0.159700	0.574200
H201	H20	0.671500	0.108300	0.633100
H211	H21	0.735100	0.190300	0.594300
C451	C45	0.085900	0.129100	0.853700
H221	H22	0.133200	0.080100	0.851000
C461	C46	0.711200	0.435500	0.764200
H231	H23	0.645600	0.398000	0.765000
C471	C47	0.549800	0.825900	0.044500
H241	H24	0.596600	0.797000	0.021400
C481	C48	0.503800	0.991700	0.713900
C491	C49	0.330000	0.328400	0.732600
H251	H25	0.235700	0.355900	0.717900
H261	H26	0.392600	0.367900	0.734500
H271	H27	0.314200	0.289500	0.770500
C501	C50	0.341600	0.016800	0.721600
C511	C51	0.990000	0.210200	0.911200
C521	C52	0.062200	0.136400	0.905900
C531	C53	0.655100	0.513700	0.766700
C541	C54	0.164600	0.001500	0.955200
H281	H28	0.101200	0.980900	0.935400
H291	H29	0.175900	0.963800	0.993700
H301	H30	0.260700	0.007600	0.935100
C551	C55	0.507500	0.784100	0.099100
C561	C56	0.908600	0.389300	0.649100
H311	H31	0.862200	0.438800	0.651200
C571	C57	0.842800	0.854700	0.877400
C581	C58	0.003700	0.836500	0.864100
C591	C59	0.825600	0.513200	0.545700
H321	H32	0.803000	0.547600	0.507200
H331	H33	0.892200	0.538600	0.560800
H341	H34	0.735000	0.505600	0.569600
C601	C60	0.327400	0.814300	0.228900
H351	H35	0.237000	0.846200	0.213300
H361	H36	0.394100	0.849500	0.234200
H371	H37	0.304500	0.773600	0.265400
C611	C61	0.945200	0.275100	0.862300
H381	H38	0.897200	0.323300	0.866200
C621	C62	0.516100	0.288500	0.606400
C631	C63	0.494600	0.542700	0.769300
C641	C64	0.133000	0.237400	0.532000
H391	H39	0.159900	0.247400	0.491900
H401	H40	0.085000	0.187800	0.547600
H411	H41	0.221100	0.232200	0.552400
C651	C65	0.629000	0.658200	0.096100
H421	H42	0.583800	0.656800	0.062800
H431	H43	0.652400	0.603300	0.121600
H441	H44	0.718100	0.685400	0.084400
O191	O19	0.045200	0.863400	0.702600
O201	O20	0.953700	0.684500	0.753900
O211	O21	0.901100	0.642500	0.611900
H451	H45	0.814600	0.659900	0.617300
O221	O22	0.950300	0.761400	0.617800
O231	O23	0.146400	0.591100	0.762100
O241	O24	0.042900	0.790300	0.838600
C661	C66	0.010400	0.612200	0.758600
C671	C67	0.992400	0.696800	0.611900
C681	C68	0.859000	0.269500	0.976400
H461	H46	0.765500	0.267400	0.961600
H471	H47	0.892300	0.322900	0.957800
H481	H48	0.846400	0.258600	0.017200
Ba31	Ba3	0.251470	0.183880	0.310180
Ba41	Ba4	0.751680	0.264270	0.230130
O251	O25	0.456900	0.216900	0.211300
O261	O26	0.354300	0.289000	0.359800
O271	O27	0.649000	0.181700	0.161000
O281	O28	0.549300	0.227400	0.327000
O291	O29	0.404900	0.982400	0.259900
H491	H49	0.319900	0.003200	0.263700
O301	O30	0.901500	0.125600	0.120500
H501	H50	0.911700	0.135000	0.085700
O311	O31	0.149000	0.057300	0.282300
O321	O32	0.603400	0.225000	0.809800
O331	O33	0.545300	0.394100	0.221200
O341	O34	0.472400	0.298800	0.875200
O351	O35	0.454900	0.049100	0.316700
O361	O36	0.900100	0.921600	0.043000
C691	C69	0.493000	0.273500	0.353500
O371	O37	0.106400	0.563000	0.454800
O381	O38	0.600100	0.501500	0.240000
H511	H51	0.684000	0.476800	0.242300
O391	O39	0.599800	0.712800	0.304300
C701	C70	0.637000	0.403300	0.430100
O401	O40	0.455200	0.793400	0.364800
O411	O41	0.036800	0.788400	0.034300
C711	C71	0.544200	0.540200	0.441300
O421	O42	0.966400	0.696200	0.462100
C721	C72	0.365700	0.087100	0.077000
C731	C73	0.595000	0.312700	0.378900
C741	C74	0.512800	0.187000	0.174200
C751	C75	0.214600	0.101900	0.085700
H521	H52	0.149600	0.083200	0.067100
C761	C76	0.755000	0.033800	0.287200
H531	H53	0.716800	0.077800	0.298800
C771	C77	0.541700	0.367200	0.406200
H541	H54	0.439200	0.380700	0.409100
C781	C78	0.977200	0.749900	0.303000
C791	C79	0.789600	0.385800	0.423700
H551	H55	0.854800	0.411300	0.437400
C801	C80	0.408700	0.158300	0.142000
C811	C81	0.865800	0.895800	0.259200
C821	C82	0.474500	0.087000	0.979600
C831	C83	0.570300	0.453600	0.465600
C841	C84	0.747900	0.292400	0.374900
H561	H56	0.785400	0.253800	0.357900
C851	C85	0.047500	0.674700	0.298700
C861	C86	0.909200	0.018300	0.278400
C871	C87	0.461600	0.116100	0.105000
H571	H57	0.564100	0.106900	0.098500
C881	C88	0.456200	0.956000	0.058300
C891	C89	0.472400	0.584900	0.476200
C901	C90	0.011200	0.074900	0.286100
C911	C91	0.431500	0.041600	0.036700
C921	C92	0.931900	0.816000	0.252500
C931	C93	0.245300	0.431100	0.233600
H581	H58	0.282200	0.380500	0.230700
C941	C94	0.958600	0.806300	0.198500
C951	C95	0.255800	0.172300	0.150300
H591	H59	0.218100	0.200500	0.175000
C961	C96	0.962300	0.947900	0.266000
H601	H60	0.064800	0.935100	0.262100
C971	C97	0.093800	0.450300	0.238000
C981	C98	0.714700	0.914400	0.264700
H611	H61	0.649700	0.880700	0.259300
C991	C99	0.027900	0.731300	0.193900
C1001	C100	0.138500	0.584600	0.239400
C1011	C101	0.071900	0.665700	0.243900
C1021	C102	0.040400	0.528100	0.240300
H621	H62	0.937900	0.542400	0.242500
C1031	C103	0.845500	0.329300	0.396200
C1041	C104	0.067600	0.619900	0.402600
C1051	C105	0.589500	0.583300	0.382500
H631	H63	0.638800	0.554300	0.359900
C1061	C106	0.994400	0.694500	0.406900
C1071	C107	0.565100	0.173800	0.865000
C1081	C108	0.561200	0.665600	0.359800
C1091	C109	0.948800	0.757300	0.358400
H641	H64	0.898600	0.805300	0.361900
C1101	C110	0.442000	0.673200	0.449700
H651	H65	0.393400	0.703800	0.471300
C1111	C111	0.588900	0.091000	0.884700
H661	H66	0.635900	0.064400	0.860200
C1121	C112	0.354000	0.837300	0.393000
H671	H67	0.399100	0.840300	0.425800
H681	H68	0.328500	0.891700	0.366900
H691	H69	0.264900	0.809700	0.405700
C1131	C113	0.914100	0.870900	0.146300
H701	H70	0.866800	0.919900	0.149000
C1141	C114	0.288800	0.564500	0.235800
H711	H71	0.354400	0.602000	0.235000
C1151	C115	0.450200	0.174100	0.955500
H721	H72	0.403400	0.203000	0.978600
C1161	C116	0.496200	0.008300	0.286100
C1171	C117	0.670000	0.671600	0.267400
H731	H73	0.764300	0.644100	0.282100
H741	H74	0.607400	0.632100	0.265500
H751	H75	0.685800	0.710500	0.229500
C1181	C118	0.658400	0.983200	0.278400
C1191	C119	0.010000	0.789800	0.088800
C1201	C120	0.937800	0.863600	0.094100
C1211	C121	0.344900	0.486300	0.233300
C1221	C122	0.835400	0.998500	0.044800
H761	H76	0.898800	0.019100	0.064600
H771	H77	0.824100	0.036200	0.006300
H781	H78	0.739300	0.992400	0.064900
C1231	C123	0.492500	0.215900	0.900900
C1241	C124	0.091400	0.610700	0.350900
H791	H79	0.137800	0.561200	0.348800
C1251	C125	0.157200	0.145300	0.122600
C1261	C126	0.996300	0.163500	0.135900
C1271	C127	0.174400	0.486800	0.454300
H801	H80	0.197000	0.452400	0.492800
H811	H81	0.107800	0.461400	0.439200
H821	H82	0.265000	0.494400	0.430400
C1281	C128	0.672600	0.185700	0.771100
H831	H83	0.763000	0.153800	0.786700
H841	H84	0.605900	0.150500	0.765800
H851	H85	0.695500	0.226400	0.734600
C1291	C129	0.054800	0.724900	0.137700
H861	H86	0.102800	0.676700	0.133800
C1301	C130	0.483900	0.711500	0.393600
C1311	C131	0.505400	0.457300	0.230700
C1321	C132	0.867000	0.762600	0.468000
H871	H87	0.840100	0.752600	0.508100
H881	H88	0.915000	0.812200	0.452400
H891	H89	0.778900	0.767800	0.447600
C1331	C133	0.371000	0.341800	0.903900
H901	H90	0.416200	0.343200	0.937200
H911	H91	0.347600	0.396700	0.878400
H921	H92	0.281900	0.314600	0.915600
O431	O43	0.954800	0.136600	0.297400
O441	O44	0.046300	0.315500	0.246100
O451	O45	0.098900	0.357500	0.388100
H931	H93	0.185400	0.340100	0.382700
O461	O46	0.049700	0.238600	0.382200
O471	O47	0.853600	0.408900	0.237900
O481	O48	0.957100	0.209700	0.161400
C1341	C134	0.989600	0.387800	0.241400
C1351	C135	0.007600	0.303200	0.388100
C1361	C136	0.141000	0.730500	0.023600
H941	H94	0.234500	0.732600	0.038400
H951	H95	0.107700	0.677100	0.042200
H961	H96	0.153600	0.741400	0.982800
