data_JUXFOZ_clean_PM
_symmetry_space_group_name_H-M	'P1'
_cell_length_a	14.777600
_cell_length_b	12.409400
_cell_length_c	29.955400
_cell_angle_alpha	90.000000
_cell_angle_beta	115.572000
_cell_angle_gamma	90.000000
_symmetry_Int_Tables_number 1

loop_
_symmetry_equiv_pos_as_xyz
'x,y,z'

loop_
_atom_site_label
_atom_site_type_symbol
_atom_site_fract_x
_atom_site_fract_y
_atom_site_fract_z
Zn11	Zn1	0.747190	0.003150	0.760000
Zn21	Zn2	0.377160	0.683180	0.824780
O11	O1	0.838600	0.860100	0.732450
O21	O2	0.836710	0.893300	0.804650
O31	O3	0.382600	0.802100	0.256970
O41	O4	0.093500	0.602500	0.726880
O51	O5	0.611800	0.561600	0.225930
O61	O6	0.545700	0.460600	0.157050
O71	O7	0.239380	0.594200	0.793090
O81	O8	0.272640	0.896200	0.193240
C11	C1	0.873700	0.848700	0.777930
C21	C2	0.966800	0.782200	0.804460
C31	C3	0.011800	0.776600	0.854980
H11	H1	0.981900	0.810300	0.872900
C41	C4	0.336100	0.822900	0.211690
C51	C5	0.357100	0.752900	0.176420
C61	C6	0.437900	0.681200	0.194810
H21	H2	0.478800	0.678700	0.228600
C71	C7	0.298100	0.758300	0.125710
H31	H3	0.244700	0.806500	0.113600
C81	C8	0.316400	0.694300	0.092740
C91	C9	0.256200	0.703500	0.038470
C101	C10	0.265000	0.796700	0.013990
C111	C11	0.192900	0.619700	0.011750
C121	C12	0.544900	0.538400	0.183700
C131	C13	0.457700	0.614300	0.163350
C141	C14	0.396800	0.619300	0.112370
H41	H4	0.409100	0.573200	0.091100
C151	C15	0.144000	0.621400	0.770860
C161	C16	0.100200	0.676400	0.801400
C171	C17	0.010900	0.731300	0.777160
H51	H5	0.980200	0.734400	0.742800
C181	C18	0.146800	0.673200	0.852630
H61	H6	0.208400	0.638900	0.868800
C191	C19	0.101700	0.721300	0.880000
C201	C20	0.152600	0.717100	0.935790
C211	C21	0.141000	0.626100	0.960250
C221	C22	0.213300	0.803500	0.962550
C231	C23	0.221300	0.903300	0.935830
H71	H7	0.224600	0.965700	0.955400
H81	H8	0.163500	0.908500	0.904500
H91	H9	0.280800	0.899400	0.930500
C241	C24	0.069700	0.537700	0.930150
H101	H10	0.005500	0.548100	0.930300
H111	H11	0.096200	0.468800	0.944400
H121	H12	0.062300	0.540200	0.896700
C251	C25	0.328700	0.891000	0.042810
H131	H13	0.330600	0.944600	0.020100
H141	H14	0.395600	0.866500	0.063200
H151	H15	0.300200	0.921600	0.063300
C261	C26	0.177200	0.522400	0.038920
H161	H16	0.199600	0.539600	0.073300
H171	H17	0.214900	0.462200	0.035700
H181	H18	0.107200	0.504100	0.024800
Zn31	Zn3	0.252810	0.503150	0.740000
Zn41	Zn4	0.622840	0.183180	0.675220
O91	O9	0.161400	0.360100	0.767550
O101	O10	0.163290	0.393300	0.695350
O111	O11	0.617400	0.302100	0.243030
O121	O12	0.906500	0.102500	0.773120
O131	O13	0.388200	0.061600	0.274070
O141	O14	0.454300	0.960600	0.342950
O151	O15	0.760620	0.094200	0.706910
O161	O16	0.727360	0.396200	0.306760
C271	C27	0.126300	0.348700	0.722070
C281	C28	0.033200	0.282200	0.695540
C291	C29	0.988200	0.276600	0.645020
H191	H19	0.018100	0.310300	0.627100
C301	C30	0.663900	0.322900	0.288310
C311	C31	0.642900	0.252900	0.323580
C321	C32	0.562100	0.181200	0.305190
H201	H20	0.521200	0.178700	0.271400
C331	C33	0.701900	0.258300	0.374290
H211	H21	0.755300	0.306500	0.386400
C341	C34	0.683600	0.194300	0.407260
C351	C35	0.743800	0.203500	0.461530
C361	C36	0.735000	0.296700	0.486010
C371	C37	0.807100	0.119700	0.488250
C381	C38	0.455100	0.038400	0.316300
C391	C39	0.542300	0.114300	0.336650
C401	C40	0.603200	0.119300	0.387630
H221	H22	0.590900	0.073200	0.408900
C411	C41	0.856000	0.121400	0.729140
C421	C42	0.899800	0.176400	0.698600
C431	C43	0.989100	0.231300	0.722840
H231	H23	0.019800	0.234400	0.757200
C441	C44	0.853200	0.173200	0.647370
H241	H24	0.791600	0.138900	0.631200
C451	C45	0.898300	0.221300	0.620000
C461	C46	0.847400	0.217100	0.564210
C471	C47	0.859000	0.126100	0.539750
C481	C48	0.786700	0.303500	0.537450
C491	C49	0.778700	0.403300	0.564170
H251	H25	0.775400	0.465700	0.544600
H261	H26	0.836500	0.408500	0.595500
H271	H27	0.719200	0.399400	0.569500
C501	C50	0.930300	0.037700	0.569850
H281	H28	0.994500	0.048100	0.569700
H291	H29	0.903800	0.968800	0.555600
H301	H30	0.937700	0.040200	0.603300
C511	C51	0.671300	0.391000	0.457190
H311	H31	0.669400	0.444600	0.479900
H321	H32	0.604400	0.366500	0.436800
H331	H33	0.699800	0.421600	0.436700
C521	C52	0.822800	0.022400	0.461080
H341	H34	0.800400	0.039600	0.426700
H351	H35	0.785100	0.962200	0.464300
H361	H36	0.892800	0.004100	0.475200
Zn51	Zn5	0.252810	0.996850	0.240000
Zn61	Zn6	0.622840	0.316820	0.175220
O171	O17	0.161400	0.139900	0.267550
O181	O18	0.163290	0.106700	0.195350
O191	O19	0.617400	0.197900	0.743030
O201	O20	0.906500	0.397500	0.273120
O211	O21	0.388200	0.438400	0.774070
O221	O22	0.454300	0.539400	0.842950
O231	O23	0.760620	0.405800	0.206910
O241	O24	0.727360	0.103800	0.806760
C531	C53	0.126300	0.151300	0.222070
C541	C54	0.033200	0.217800	0.195540
C551	C55	0.988200	0.223400	0.145020
H371	H37	0.018100	0.189700	0.127100
C561	C56	0.663900	0.177100	0.788310
C571	C57	0.642900	0.247100	0.823580
C581	C58	0.562100	0.318800	0.805190
H381	H38	0.521200	0.321300	0.771400
C591	C59	0.701900	0.241700	0.874290
H391	H39	0.755300	0.193500	0.886400
C601	C60	0.683600	0.305700	0.907260
C611	C61	0.743800	0.296500	0.961530
C621	C62	0.735000	0.203300	0.986010
C631	C63	0.807100	0.380300	0.988250
C641	C64	0.455100	0.461600	0.816300
C651	C65	0.542300	0.385700	0.836650
C661	C66	0.603200	0.380700	0.887630
H401	H40	0.590900	0.426800	0.908900
C671	C67	0.856000	0.378600	0.229140
C681	C68	0.899800	0.323600	0.198600
C691	C69	0.989100	0.268700	0.222840
H411	H41	0.019800	0.265600	0.257200
C701	C70	0.853200	0.326800	0.147370
H421	H42	0.791600	0.361100	0.131200
C711	C71	0.898300	0.278700	0.120000
C721	C72	0.847400	0.282900	0.064210
C731	C73	0.859000	0.373900	0.039750
C741	C74	0.786700	0.196500	0.037450
C751	C75	0.778700	0.096700	0.064170
H431	H43	0.775400	0.034300	0.044600
H441	H44	0.836500	0.091500	0.095500
H451	H45	0.719200	0.100600	0.069500
C761	C76	0.930300	0.462300	0.069850
H461	H46	0.994500	0.451900	0.069700
H471	H47	0.903800	0.531200	0.055600
H481	H48	0.937700	0.459800	0.103300
C771	C77	0.671300	0.109000	0.957190
H491	H49	0.669400	0.055400	0.979900
H501	H50	0.604400	0.133500	0.936800
H511	H51	0.699800	0.078400	0.936700
C781	C78	0.822800	0.477600	0.961080
H521	H52	0.800400	0.460400	0.926700
H531	H53	0.785100	0.537800	0.964300
H541	H54	0.892800	0.495900	0.975200
Zn71	Zn7	0.747190	0.496850	0.260000
Zn81	Zn8	0.377160	0.816820	0.324780
O251	O25	0.838600	0.639900	0.232450
O261	O26	0.836710	0.606700	0.304650
O271	O27	0.382600	0.697900	0.756970
O281	O28	0.093500	0.897500	0.226880
O291	O29	0.611800	0.938400	0.725930
O301	O30	0.545700	0.039400	0.657050
O311	O31	0.239380	0.905800	0.293090
O321	O32	0.272640	0.603800	0.693240
C791	C79	0.873700	0.651300	0.277930
C801	C80	0.966800	0.717800	0.304460
C811	C81	0.011800	0.723400	0.354980
H551	H55	0.981900	0.689700	0.372900
C821	C82	0.336100	0.677100	0.711690
C831	C83	0.357100	0.747100	0.676420
C841	C84	0.437900	0.818800	0.694810
H561	H56	0.478800	0.821300	0.728600
C851	C85	0.298100	0.741700	0.625710
H571	H57	0.244700	0.693500	0.613600
C861	C86	0.316400	0.805700	0.592740
C871	C87	0.256200	0.796500	0.538470
C881	C88	0.265000	0.703300	0.513990
C891	C89	0.192900	0.880300	0.511750
C901	C90	0.544900	0.961600	0.683700
C911	C91	0.457700	0.885700	0.663350
C921	C92	0.396800	0.880700	0.612370
H581	H58	0.409100	0.926800	0.591100
C931	C93	0.144000	0.878600	0.270860
C941	C94	0.100200	0.823600	0.301400
C951	C95	0.010900	0.768700	0.277160
H591	H59	0.980200	0.765600	0.242800
C961	C96	0.146800	0.826800	0.352630
H601	H60	0.208400	0.861100	0.368800
C971	C97	0.101700	0.778700	0.380000
C981	C98	0.152600	0.782900	0.435790
C991	C99	0.141000	0.873900	0.460250
C1001	C100	0.213300	0.696500	0.462550
C1011	C101	0.221300	0.596700	0.435830
H611	H61	0.224600	0.534300	0.455400
H621	H62	0.163500	0.591500	0.404500
H631	H63	0.280800	0.600600	0.430500
C1021	C102	0.069700	0.962300	0.430150
H641	H64	0.005500	0.951900	0.430300
H651	H65	0.096200	0.031200	0.444400
H661	H66	0.062300	0.959800	0.396700
C1031	C103	0.328700	0.609000	0.542810
H671	H67	0.330600	0.555400	0.520100
H681	H68	0.395600	0.633500	0.563200
H691	H69	0.300200	0.578400	0.563300
C1041	C104	0.177200	0.977600	0.538920
H701	H70	0.199600	0.960400	0.573300
H711	H71	0.214900	0.037800	0.535700
H721	H72	0.107200	0.995900	0.524800
