data_JUYROM_clean_PM
_symmetry_space_group_name_H-M	'P1'
_cell_length_a	11.472000
_cell_length_b	19.940000
_cell_length_c	12.002500
_cell_angle_alpha	90.000000
_cell_angle_beta	101.475000
_cell_angle_gamma	90.000000
_symmetry_Int_Tables_number 1

loop_
_symmetry_equiv_pos_as_xyz
'x,y,z'

loop_
_atom_site_label
_atom_site_type_symbol
_atom_site_fract_x
_atom_site_fract_y
_atom_site_fract_z
Zn11	Zn1	0.495130	0.081610	0.081490
O11	O1	0.458800	0.406690	0.918530
H11	H1	0.472800	0.377400	0.876800
O21	O2	0.458460	0.430140	0.411500
O31	O3	0.494990	0.179370	0.095890
O41	O4	0.469500	0.193550	0.271370
O51	O5	0.478630	0.513350	0.294300
N11	N1	0.685130	0.082480	0.080520
N21	N2	0.304470	0.075860	0.078750
C11	C1	0.472000	0.289100	0.156100
C21	C2	0.468050	0.452230	0.316200
C31	C3	0.059800	0.081190	0.081600
C41	C4	0.470400	0.334650	0.244050
H21	H2	0.472500	0.319300	0.317600
C51	C5	0.466900	0.313050	0.046300
H31	H3	0.466900	0.283000	0.987000
C61	C6	0.144200	0.066130	0.177300
H41	H4	0.120700	0.057800	0.245700
C71	C7	0.103600	0.093140	0.983500
H51	H5	0.051300	0.102700	0.915700
C81	C8	0.479100	0.214750	0.178200
C91	C9	0.461800	0.381090	0.024800
C101	C10	0.465500	0.403030	0.221480
C111	C11	0.931400	0.083210	0.082000
C121	C12	0.462200	0.426440	0.112400
H61	H6	0.460200	0.472300	0.097900
C131	C13	0.766300	0.069690	0.174500
H71	H7	0.739200	0.059800	0.240700
C141	C14	0.728200	0.096550	0.987400
H81	H8	0.674300	0.106400	0.920700
C151	C15	0.886700	0.070110	0.180000
H91	H9	0.938500	0.061700	0.248600
C161	C16	0.262800	0.063280	0.172400
H101	H10	0.316900	0.051900	0.238200
C171	C17	0.846900	0.097250	0.984500
H111	H11	0.871200	0.107200	0.917000
C181	C18	0.223300	0.090860	0.986400
H121	H12	0.249700	0.100400	0.919700
Zn21	Zn2	0.504870	0.581610	0.418510
O61	O6	0.541200	0.906690	0.581470
H131	H13	0.527200	0.877400	0.623200
O71	O7	0.541540	0.930140	0.088500
O81	O8	0.505010	0.679370	0.404110
O91	O9	0.530500	0.693550	0.228630
O101	O10	0.521370	0.013350	0.205700
N31	N3	0.314870	0.582480	0.419480
N41	N4	0.695530	0.575860	0.421250
C191	C19	0.528000	0.789100	0.343900
C201	C20	0.531950	0.952230	0.183800
C211	C21	0.940200	0.581190	0.418400
C221	C22	0.529600	0.834650	0.255950
H141	H14	0.527500	0.819300	0.182400
C231	C23	0.533100	0.813050	0.453700
H151	H15	0.533100	0.783000	0.513000
C241	C24	0.855800	0.566130	0.322700
H161	H16	0.879300	0.557800	0.254300
C251	C25	0.896400	0.593140	0.516500
H171	H17	0.948700	0.602700	0.584300
C261	C26	0.520900	0.714750	0.321800
C271	C27	0.538200	0.881090	0.475200
C281	C28	0.534500	0.903030	0.278520
C291	C29	0.068600	0.583210	0.418000
C301	C30	0.537800	0.926440	0.387600
H181	H18	0.539800	0.972300	0.402100
C311	C31	0.233700	0.569690	0.325500
H191	H19	0.260800	0.559800	0.259300
C321	C32	0.271800	0.596550	0.512600
H201	H20	0.325700	0.606400	0.579300
C331	C33	0.113300	0.570110	0.320000
H211	H21	0.061500	0.561700	0.251400
C341	C34	0.737200	0.563280	0.327600
H221	H22	0.683100	0.551900	0.261800
C351	C35	0.153100	0.597250	0.515500
H231	H23	0.128800	0.607200	0.583000
C361	C36	0.776700	0.590860	0.513600
H241	H24	0.750300	0.600400	0.580300
Zn31	Zn3	0.504870	0.918390	0.918510
O111	O11	0.541200	0.593310	0.081470
H251	H25	0.527200	0.622600	0.123200
O121	O12	0.541540	0.569860	0.588500
O131	O13	0.505010	0.820630	0.904110
O141	O14	0.530500	0.806450	0.728630
O151	O15	0.521370	0.486650	0.705700
N51	N5	0.314870	0.917520	0.919480
N61	N6	0.695530	0.924140	0.921250
C371	C37	0.528000	0.710900	0.843900
C381	C38	0.531950	0.547770	0.683800
C391	C39	0.940200	0.918810	0.918400
C401	C40	0.529600	0.665350	0.755950
H261	H26	0.527500	0.680700	0.682400
C411	C41	0.533100	0.686950	0.953700
H271	H27	0.533100	0.717000	0.013000
C421	C42	0.855800	0.933870	0.822700
H281	H28	0.879300	0.942200	0.754300
C431	C43	0.896400	0.906860	0.016500
H291	H29	0.948700	0.897300	0.084300
C441	C44	0.520900	0.785250	0.821800
C451	C45	0.538200	0.618910	0.975200
C461	C46	0.534500	0.596970	0.778520
C471	C47	0.068600	0.916790	0.918000
C481	C48	0.537800	0.573560	0.887600
H301	H30	0.539800	0.527700	0.902100
C491	C49	0.233700	0.930310	0.825500
H311	H31	0.260800	0.940200	0.759300
C501	C50	0.271800	0.903450	0.012600
H321	H32	0.325700	0.893600	0.079300
C511	C51	0.113300	0.929890	0.820000
H331	H33	0.061500	0.938300	0.751400
C521	C52	0.737200	0.936720	0.827600
H341	H34	0.683100	0.948100	0.761800
C531	C53	0.153100	0.902750	0.015500
H351	H35	0.128800	0.892800	0.083000
C541	C54	0.776700	0.909140	0.013600
H361	H36	0.750300	0.899600	0.080300
Zn41	Zn4	0.495130	0.418390	0.581490
O161	O16	0.458800	0.093310	0.418530
H371	H37	0.472800	0.122600	0.376800
O171	O17	0.458460	0.069860	0.911500
O181	O18	0.494990	0.320630	0.595890
O191	O19	0.469500	0.306450	0.771370
O201	O20	0.478630	0.986650	0.794300
N71	N7	0.685130	0.417520	0.580520
N81	N8	0.304470	0.424140	0.578750
C551	C55	0.472000	0.210900	0.656100
C561	C56	0.468050	0.047770	0.816200
C571	C57	0.059800	0.418810	0.581600
C581	C58	0.470400	0.165350	0.744050
H381	H38	0.472500	0.180700	0.817600
C591	C59	0.466900	0.186950	0.546300
H391	H39	0.466900	0.217000	0.487000
C601	C60	0.144200	0.433870	0.677300
H401	H40	0.120700	0.442200	0.745700
C611	C61	0.103600	0.406860	0.483500
H411	H41	0.051300	0.397300	0.415700
C621	C62	0.479100	0.285250	0.678200
C631	C63	0.461800	0.118910	0.524800
C641	C64	0.465500	0.096970	0.721480
C651	C65	0.931400	0.416790	0.582000
C661	C66	0.462200	0.073560	0.612400
H421	H42	0.460200	0.027700	0.597900
C671	C67	0.766300	0.430310	0.674500
H431	H43	0.739200	0.440200	0.740700
C681	C68	0.728200	0.403450	0.487400
H441	H44	0.674300	0.393600	0.420700
C691	C69	0.886700	0.429890	0.680000
H451	H45	0.938500	0.438300	0.748600
C701	C70	0.262800	0.436720	0.672400
H461	H46	0.316900	0.448100	0.738200
C711	C71	0.846900	0.402750	0.484500
H471	H47	0.871200	0.392800	0.417000
C721	C72	0.223300	0.409140	0.486400
H481	H48	0.249700	0.399600	0.419700
