data_KABXIW_clean_PM
_symmetry_space_group_name_H-M	'P1'
_cell_length_a	13.786600
_cell_length_b	13.786600
_cell_length_c	16.522000
_cell_angle_alpha	67.087400
_cell_angle_beta	67.087400
_cell_angle_gamma	75.506100
_symmetry_Int_Tables_number 1

loop_
_symmetry_equiv_pos_as_xyz
'x,y,z'

loop_
_atom_site_label
_atom_site_type_symbol
_atom_site_fract_x
_atom_site_fract_y
_atom_site_fract_z
Pr11	Pr1	0.831580	0.546000	0.502540
Pr21	Pr2	0.454000	0.168420	0.997460
Pr31	Pr3	0.168420	0.454000	0.497460
Pr41	Pr4	0.546000	0.831580	0.002540
H11	H1	0.913300	0.452100	0.286000
H21	H2	0.078000	0.347600	0.068000
H31	H3	0.222200	0.340600	0.240500
H41	H4	0.920100	0.874300	0.346700
H51	H5	0.547900	0.086700	0.214000
H61	H6	0.652400	0.922000	0.432000
H71	H7	0.659400	0.777800	0.259500
H81	H8	0.125700	0.079900	0.153300
H91	H9	0.086700	0.547900	0.714000
H101	H10	0.922000	0.652400	0.932000
H111	H11	0.777800	0.659400	0.759500
H121	H12	0.079900	0.125700	0.653300
H131	H13	0.452100	0.913300	0.786000
H141	H14	0.347600	0.078000	0.568000
H151	H15	0.340600	0.222200	0.740500
H161	H16	0.874300	0.920100	0.846700
H171	H17	0.229100	0.770900	0.250000
H181	H18	0.770900	0.229100	0.750000
C11	C1	0.065800	0.425800	0.358100
C21	C2	0.067900	0.402300	0.275700
C31	C3	0.977000	0.423800	0.251200
C41	C4	0.982800	0.402400	0.174200
C51	C5	0.076000	0.360000	0.120100
C61	C6	0.166400	0.336600	0.145800
C71	C7	0.161900	0.357100	0.223200
C81	C8	0.266000	0.285400	0.089900
C91	C9	0.049400	0.694000	0.376000
C101	C10	0.071400	0.805200	0.310400
C111	C11	0.989300	0.887100	0.308800
C121	C12	0.574200	0.934200	0.141900
C131	C13	0.597700	0.932100	0.224300
C141	C14	0.576200	0.023000	0.248800
C151	C15	0.597600	0.017200	0.325800
C161	C16	0.640000	0.924000	0.379900
C171	C17	0.663400	0.833600	0.354200
C181	C18	0.642900	0.838100	0.276800
C191	C19	0.714600	0.734000	0.410100
C201	C20	0.306000	0.950600	0.124000
C211	C21	0.194800	0.928600	0.189600
C221	C22	0.112900	0.010700	0.191200
C231	C23	0.934200	0.574200	0.641900
C241	C24	0.932100	0.597700	0.724300
C251	C25	0.023000	0.576200	0.748800
C261	C26	0.017200	0.597600	0.825800
C271	C27	0.924000	0.640000	0.879900
C281	C28	0.833600	0.663400	0.854200
C291	C29	0.838100	0.642900	0.776800
C301	C30	0.734000	0.714600	0.910100
C311	C31	0.950600	0.306000	0.624000
C321	C32	0.928600	0.194800	0.689600
C331	C33	0.010700	0.112900	0.691200
C341	C34	0.425800	0.065800	0.858100
C351	C35	0.402300	0.067900	0.775700
C361	C36	0.423800	0.977000	0.751200
C371	C37	0.402400	0.982800	0.674200
C381	C38	0.360000	0.076000	0.620100
C391	C39	0.336600	0.166400	0.645800
C401	C40	0.357100	0.161900	0.723200
C411	C41	0.285400	0.266000	0.589900
C421	C42	0.694000	0.049400	0.876000
C431	C43	0.805200	0.071400	0.810400
C441	C44	0.887100	0.989300	0.808800
C451	C45	0.174000	0.826000	0.250000
C461	C46	0.012200	0.987800	0.250000
C471	C47	0.826000	0.174000	0.750000
C481	C48	0.987800	0.012200	0.750000
N11	N1	0.887600	0.424400	0.147700
N21	N2	0.575600	0.112400	0.352300
N31	N3	0.112400	0.575600	0.852300
N41	N4	0.424400	0.887600	0.647700
N51	N5	0.925100	0.074900	0.250000
N61	N6	0.074900	0.925100	0.750000
O11	O1	0.801600	0.441800	0.205000
O21	O2	0.897400	0.424200	0.071400
O31	O3	0.978690	0.467090	0.402500
O41	O4	0.150330	0.405330	0.375900
O51	O5	0.344600	0.252400	0.120200
O61	O6	0.268300	0.275900	0.017000
O71	O7	0.953710	0.678310	0.412700
O81	O8	0.127030	0.628030	0.388900
O91	O9	0.833100	0.053100	0.290500
O101	O10	0.558200	0.198400	0.295000
O111	O11	0.575800	0.102600	0.428600
O121	O12	0.532910	0.021310	0.097500
O131	O13	0.594670	0.849670	0.124100
O141	O14	0.747600	0.655400	0.379800
O151	O15	0.724100	0.731700	0.483000
O161	O16	0.321690	0.046290	0.087300
O171	O17	0.371970	0.872970	0.111100
O181	O18	0.946900	0.166900	0.209500
O191	O19	0.198400	0.558200	0.795000
O201	O20	0.102600	0.575800	0.928600
O211	O21	0.021310	0.532910	0.597500
O221	O22	0.849670	0.594670	0.624100
O231	O23	0.655400	0.747600	0.879800
O241	O24	0.731700	0.724100	0.983000
O251	O25	0.046290	0.321690	0.587300
O261	O26	0.872970	0.371970	0.611100
O271	O27	0.166900	0.946900	0.709500
O281	O28	0.441800	0.801600	0.705000
O291	O29	0.424200	0.897400	0.571400
O301	O30	0.467090	0.978690	0.902500
O311	O31	0.405330	0.150330	0.875900
O321	O32	0.252400	0.344600	0.620200
O331	O33	0.275900	0.268300	0.517000
O341	O34	0.678310	0.953710	0.912700
O351	O35	0.628030	0.127030	0.888900
O361	O36	0.053100	0.833100	0.790500
