data_KABXAO_clean_PM
_symmetry_space_group_name_H-M	'P1'
_cell_length_a	12.713700
_cell_length_b	13.330100
_cell_length_c	13.403400
_cell_angle_alpha	64.676000
_cell_angle_beta	61.810000
_cell_angle_gamma	84.079000
_symmetry_Int_Tables_number 1

loop_
_symmetry_equiv_pos_as_xyz
'x,y,z'

loop_
_atom_site_label
_atom_site_type_symbol
_atom_site_fract_x
_atom_site_fract_y
_atom_site_fract_z
W11	W1	0.851690	0.263080	0.544950
W21	W2	0.974490	0.742660	0.763130
W31	W3	0.825950	0.965260	0.752270
W41	W4	0.003820	0.205660	0.701310
W51	W5	0.850800	0.016180	0.291840
W61	W6	0.827910	0.821730	0.596190
O11	O1	0.908000	0.407700	0.483100
O21	O2	0.826500	0.088100	0.620300
O31	O3	0.863900	0.699400	0.731800
O41	O4	0.835200	0.958500	0.472500
O51	O5	0.739300	0.871800	0.728900
O61	O6	0.862900	0.814400	0.856500
O71	O7	0.036000	0.219700	0.515400
O81	O8	0.099900	0.842000	0.735600
O91	O9	0.846600	0.855100	0.340900
O101	O10	0.960700	0.026300	0.742700
O111	O11	0.960600	0.901700	0.616000
O121	O12	0.852100	0.225200	0.703500
O131	O13	0.895700	0.264400	0.388300
O141	O14	0.899200	0.044900	0.131200
N11	N1	0.855600	0.490100	0.658400
C11	C1	0.860500	0.470100	0.760900
H11	H1	0.933200	0.456500	0.762200
O151	O15	0.450600	0.537700	0.873600
N21	N2	0.654400	0.489700	0.867600
C21	C2	0.746800	0.506500	0.660600
H21	H2	0.739300	0.517500	0.591000
O161	O16	0.514500	0.550000	0.680900
C31	C3	0.647300	0.506600	0.767200
C41	C4	0.759600	0.469000	0.867700
H31	H3	0.765500	0.453700	0.939200
C51	C5	0.530600	0.529300	0.773700
Cu11	Cu1	0.989000	0.997000	0.009000
O171	O17	0.858800	0.910000	0.037700
W71	W7	0.148310	0.736920	0.455050
W81	W8	0.025510	0.257340	0.236870
W91	W9	0.174050	0.034740	0.247730
W101	W10	0.996180	0.794340	0.298690
W111	W11	0.149200	0.983820	0.708160
W121	W12	0.172090	0.178270	0.403810
O181	O18	0.092000	0.592300	0.516900
O191	O19	0.173500	0.911900	0.379700
O201	O20	0.136100	0.300600	0.268200
O211	O21	0.164800	0.041500	0.527500
O221	O22	0.260700	0.128200	0.271100
O231	O23	0.137100	0.185600	0.143500
O241	O24	0.964000	0.780300	0.484600
O251	O25	0.900100	0.158000	0.264400
O261	O26	0.153400	0.144900	0.659100
O271	O27	0.039300	0.973700	0.257300
O281	O28	0.039400	0.098300	0.384000
O291	O29	0.147900	0.774800	0.296500
O301	O30	0.104300	0.735600	0.611700
O311	O31	0.100800	0.955100	0.868800
N31	N3	0.144400	0.509900	0.341600
C61	C6	0.139500	0.529900	0.239100
H41	H4	0.066800	0.543500	0.237800
O321	O32	0.549400	0.462300	0.126400
N41	N4	0.345600	0.510300	0.132400
C71	C7	0.253200	0.493500	0.339400
H51	H5	0.260700	0.482500	0.409000
O331	O33	0.485500	0.450000	0.319100
C81	C8	0.352700	0.493400	0.232800
C91	C9	0.240400	0.531000	0.132300
H61	H6	0.234500	0.546300	0.060800
C101	C10	0.469400	0.470700	0.226300
Cu21	Cu2	0.011000	0.003000	0.991000
O341	O34	0.141200	0.090000	0.962300
Cu31	Cu3	0.000000	0.500000	0.500000
Cu41	Cu4	0.500000	0.500000	0.000000
