data_KAFTUI_clean_PM
_symmetry_space_group_name_H-M	'P1'
_cell_length_a	7.541700
_cell_length_b	17.885000
_cell_length_c	23.764000
_cell_angle_alpha	92.498000
_cell_angle_beta	90.000000
_cell_angle_gamma	90.000000
_symmetry_Int_Tables_number 1

loop_
_symmetry_equiv_pos_as_xyz
'x,y,z'

loop_
_atom_site_label
_atom_site_type_symbol
_atom_site_fract_x
_atom_site_fract_y
_atom_site_fract_z
Zn11	Zn1	0.973850	0.921560	0.968610
Zn21	Zn2	0.294440	0.990510	0.912670
Zn31	Zn3	0.973850	0.578440	0.531390
Zn41	Zn4	0.294440	0.509490	0.587330
Zn51	Zn5	0.026150	0.078440	0.031390
Zn61	Zn6	0.705560	0.009490	0.087330
Zn71	Zn7	0.026150	0.421560	0.468610
Zn81	Zn8	0.705560	0.490510	0.412670
H11	H1	0.495000	0.909900	0.731200
H21	H2	0.743000	0.176200	0.728800
H31	H3	0.739700	0.826100	0.640100
H41	H4	0.065400	0.004900	0.758500
H51	H5	0.933700	0.009300	0.670000
H61	H6	0.077000	0.212500	0.860500
H71	H7	0.163000	0.798300	0.571900
H81	H8	0.555100	0.108900	0.785600
H91	H9	0.887200	0.146700	0.917200
H101	H10	0.624200	0.909300	0.819900
H111	H11	0.629400	0.707200	0.617700
H121	H12	0.276200	0.917600	0.591800
H131	H13	0.495000	0.590100	0.768800
H141	H14	0.743000	0.323800	0.771200
H151	H15	0.739700	0.673900	0.859900
H161	H16	0.065400	0.495100	0.741500
H171	H17	0.933700	0.490700	0.830000
H181	H18	0.077000	0.287500	0.639500
H191	H19	0.163000	0.701700	0.928100
H201	H20	0.555100	0.391100	0.714400
H211	H21	0.887200	0.353300	0.582800
H221	H22	0.624200	0.590700	0.680100
H231	H23	0.629400	0.792800	0.882300
H241	H24	0.276200	0.582400	0.908200
H251	H25	0.505000	0.090100	0.268800
H261	H26	0.257000	0.823800	0.271200
H271	H27	0.260300	0.173900	0.359900
H281	H28	0.934600	0.995100	0.241500
H291	H29	0.066300	0.990700	0.330000
H301	H30	0.923000	0.787500	0.139500
H311	H31	0.837000	0.201700	0.428100
H321	H32	0.444900	0.891100	0.214400
H331	H33	0.112800	0.853300	0.082800
H341	H34	0.375800	0.090700	0.180100
H351	H35	0.370600	0.292800	0.382300
H361	H36	0.723800	0.082400	0.408200
H371	H37	0.505000	0.409900	0.231200
H381	H38	0.257000	0.676200	0.228800
H391	H39	0.260300	0.326100	0.140100
H401	H40	0.934600	0.504900	0.258500
H411	H41	0.066300	0.509300	0.170000
H421	H42	0.923000	0.712500	0.360500
H431	H43	0.837000	0.298300	0.071900
H441	H44	0.444900	0.608900	0.285600
H451	H45	0.112800	0.646700	0.417200
H461	H46	0.375800	0.409300	0.319900
H471	H47	0.370600	0.207200	0.117700
H481	H48	0.723800	0.417600	0.091800
C11	C1	0.308600	0.664090	0.580510
C21	C2	0.610800	0.929800	0.736730
C31	C3	0.925600	0.204150	0.789480
C41	C4	0.771500	0.171150	0.767400
C51	C5	0.699400	0.123280	0.857520
C61	C6	0.945100	0.957210	0.854240
C71	C7	0.603000	0.961040	0.634240
C81	C8	0.518700	0.883900	0.618990
C91	C9	0.701000	0.959600	0.691380
C101	C10	0.857900	0.957060	0.797510
C111	C11	0.622200	0.820570	0.626060
C121	C12	0.948600	0.986140	0.752910
C131	C13	0.462500	0.024660	0.640500
C141	C14	0.871000	0.988260	0.700200
C151	C15	0.969200	0.192900	0.845410
C161	C16	0.162500	0.306630	0.782680
C171	C17	0.280800	0.803960	0.585620
C181	C18	0.659700	0.131130	0.801190
C191	C19	0.727400	0.979440	0.584940
C201	C20	0.856800	0.153410	0.878950
C211	C21	0.574400	0.082640	0.894540
C221	C22	0.687500	0.928980	0.789350
C231	C23	0.556600	0.749860	0.613050
C241	C24	0.347400	0.874930	0.597840
C251	C25	0.384100	0.740800	0.593100
C261	C26	0.308600	0.835910	0.919490
C271	C27	0.610800	0.570200	0.763270
C281	C28	0.925600	0.295850	0.710520
C291	C29	0.771500	0.328850	0.732600
C301	C30	0.699400	0.376720	0.642480
C311	C31	0.945100	0.542790	0.645760
C321	C32	0.603000	0.538960	0.865760
C331	C33	0.518700	0.616100	0.881010
C341	C34	0.701000	0.540400	0.808620
C351	C35	0.857900	0.542940	0.702490
C361	C36	0.622200	0.679430	0.873940
C371	C37	0.948600	0.513860	0.747090
C381	C38	0.462500	0.475340	0.859500
C391	C39	0.871000	0.511740	0.799800
C401	C40	0.969200	0.307100	0.654590
C411	C41	0.162500	0.193370	0.717320
C421	C42	0.280800	0.696040	0.914380
C431	C43	0.659700	0.368870	0.698810
C441	C44	0.727400	0.520560	0.915060
C451	C45	0.856800	0.346590	0.621050
C461	C46	0.574400	0.417360	0.605460
C471	C47	0.687500	0.571020	0.710650
C481	C48	0.556600	0.750140	0.886950
C491	C49	0.347400	0.625070	0.902160
C501	C50	0.384100	0.759200	0.906900
C511	C51	0.691400	0.335910	0.419490
C521	C52	0.389200	0.070200	0.263270
C531	C53	0.074400	0.795850	0.210520
C541	C54	0.228500	0.828850	0.232600
C551	C55	0.300600	0.876720	0.142480
C561	C56	0.054900	0.042790	0.145760
C571	C57	0.397000	0.038960	0.365760
C581	C58	0.481300	0.116100	0.381010
C591	C59	0.299000	0.040400	0.308620
C601	C60	0.142100	0.042940	0.202490
C611	C61	0.377800	0.179430	0.373940
C621	C62	0.051400	0.013860	0.247090
C631	C63	0.537500	0.975340	0.359500
C641	C64	0.129000	0.011740	0.299800
C651	C65	0.030800	0.807100	0.154590
C661	C66	0.837500	0.693370	0.217320
C671	C67	0.719200	0.196040	0.414380
C681	C68	0.340300	0.868870	0.198810
C691	C69	0.272600	0.020560	0.415060
C701	C70	0.143200	0.846590	0.121050
C711	C71	0.425600	0.917360	0.105460
C721	C72	0.312500	0.071020	0.210650
C731	C73	0.443400	0.250140	0.386950
C741	C74	0.652600	0.125070	0.402160
C751	C75	0.615900	0.259200	0.406900
C761	C76	0.691400	0.164090	0.080510
C771	C77	0.389200	0.429800	0.236730
C781	C78	0.074400	0.704150	0.289480
C791	C79	0.228500	0.671150	0.267400
C801	C80	0.300600	0.623280	0.357520
C811	C81	0.054900	0.457210	0.354240
C821	C82	0.397000	0.461040	0.134240
C831	C83	0.481300	0.383900	0.118990
C841	C84	0.299000	0.459600	0.191380
C851	C85	0.142100	0.457060	0.297510
C861	C86	0.377800	0.320570	0.126060
C871	C87	0.051400	0.486140	0.252910
C881	C88	0.537500	0.524660	0.140500
C891	C89	0.129000	0.488260	0.200200
C901	C90	0.030800	0.692900	0.345410
C911	C91	0.837500	0.806630	0.282680
C921	C92	0.719200	0.303960	0.085620
C931	C93	0.340300	0.631130	0.301190
C941	C94	0.272600	0.479440	0.084940
C951	C95	0.143200	0.653410	0.378950
C961	C96	0.425600	0.582640	0.394540
C971	C97	0.312500	0.428980	0.289350
C981	C98	0.443400	0.249860	0.113050
C991	C99	0.652600	0.374930	0.097840
C1001	C100	0.615900	0.240800	0.093100
C1011	C101	0.041700	0.250000	0.750000
C1021	C102	0.958300	0.750000	0.250000
O11	O1	0.430400	0.060460	0.871480
O21	O2	0.154200	0.660490	0.561400
O31	O3	0.859000	0.932120	0.894630
O41	O4	0.610300	0.074380	0.944890
O51	O5	0.099900	0.982460	0.857150
O61	O6	0.406200	0.609040	0.590750
O71	O7	0.174400	0.996900	0.986280
O81	O8	0.430400	0.439540	0.628520
O91	O9	0.154200	0.839510	0.938600
O101	O10	0.859000	0.567880	0.605370
O111	O11	0.610300	0.425620	0.555110
O121	O12	0.099900	0.517540	0.642850
O131	O13	0.406200	0.890960	0.909250
O141	O14	0.174400	0.503100	0.513720
O151	O15	0.569600	0.939540	0.128520
O161	O16	0.845800	0.339510	0.438600
O171	O17	0.141000	0.067880	0.105370
O181	O18	0.389700	0.925620	0.055110
O191	O19	0.900100	0.017540	0.142850
O201	O20	0.593800	0.390960	0.409250
O211	O21	0.825600	0.003100	0.013720
O221	O22	0.569600	0.560460	0.371480
O231	O23	0.845800	0.160490	0.061400
O241	O24	0.141000	0.432120	0.394630
O251	O25	0.389700	0.574380	0.444890
O261	O26	0.900100	0.482460	0.357150
O271	O27	0.593800	0.109040	0.090750
O281	O28	0.825600	0.496900	0.486280
F11	F1	0.237600	0.354880	0.748430
F21	F2	0.295400	0.274800	0.810360
F31	F3	0.869700	0.934950	0.582760
F41	F4	0.787600	0.050190	0.587890
F51	F5	0.069600	0.347660	0.820860
F61	F6	0.534700	0.088190	0.661680
F71	F7	0.330800	0.006900	0.674810
F81	F8	0.645700	0.970150	0.535160
F91	F9	0.388100	0.041210	0.591210
F101	F10	0.237600	0.145120	0.751570
F111	F11	0.295400	0.225200	0.689640
F121	F12	0.869700	0.565050	0.917240
F131	F13	0.787600	0.449810	0.912110
F141	F14	0.069600	0.152340	0.679140
F151	F15	0.534700	0.411810	0.838320
F161	F16	0.330800	0.493100	0.825190
F171	F17	0.645700	0.529850	0.964840
F181	F18	0.388100	0.458790	0.908790
F191	F19	0.762400	0.645120	0.251570
F201	F20	0.704600	0.725200	0.189640
F211	F21	0.130300	0.065050	0.417240
F221	F22	0.212400	0.949810	0.412110
F231	F23	0.930400	0.652340	0.179140
F241	F24	0.465300	0.911810	0.338320
F251	F25	0.669200	0.993100	0.325190
F261	F26	0.354300	0.029850	0.464840
F271	F27	0.611900	0.958790	0.408790
F281	F28	0.762400	0.854880	0.248430
F291	F29	0.704600	0.774800	0.310360
F301	F30	0.130300	0.434950	0.082760
F311	F31	0.212400	0.550190	0.087890
F321	F32	0.930400	0.847660	0.320860
F331	F33	0.465300	0.588190	0.161680
F341	F34	0.669200	0.506900	0.174810
F351	F35	0.354300	0.470150	0.035160
F361	F36	0.611900	0.541210	0.091210
