data_KAGVUL_clean_PM
_symmetry_space_group_name_H-M	'P1'
_cell_length_a	10.277600
_cell_length_b	18.339000
_cell_length_c	22.788000
_cell_angle_alpha	90.000000
_cell_angle_beta	90.000000
_cell_angle_gamma	90.000000
_symmetry_Int_Tables_number 1

loop_
_symmetry_equiv_pos_as_xyz
'x,y,z'

loop_
_atom_site_label
_atom_site_type_symbol
_atom_site_fract_x
_atom_site_fract_y
_atom_site_fract_z
U11	U1	0.955320	0.740660	0.974530
U21	U2	0.124990	0.531690	0.116670
U31	U3	0.756850	0.740370	0.745960
S11	S1	0.148700	0.732300	0.105500
S21	S2	0.241300	0.614700	0.979400
S31	S3	0.989500	0.644200	0.836500
O11	O1	0.091000	0.662900	0.114100
O21	O2	0.077900	0.774200	0.059000
O31	O3	0.282200	0.718100	0.086500
O41	O4	0.942200	0.655800	0.897000
O51	O5	0.998000	0.572400	0.196600
O61	O6	0.878400	0.644800	0.794900
O71	O7	0.146900	0.772700	0.161000
O81	O8	0.238500	0.568900	0.925800
O91	O9	0.055900	0.573900	0.831500
O101	O10	0.083700	0.704100	0.821400
O111	O11	0.133000	0.668300	0.979300
O121	O12	0.359000	0.658500	0.977800
O131	O13	0.239000	0.572800	0.032200
O141	O14	0.890000	0.661700	0.252000
U41	U4	0.455320	0.240660	0.974530
U51	U5	0.624990	0.031690	0.116670
U61	U6	0.256850	0.240370	0.745960
S41	S4	0.648700	0.232300	0.105500
S51	S5	0.741300	0.114700	0.979400
S61	S6	0.489500	0.144200	0.836500
O151	O15	0.591000	0.162900	0.114100
O161	O16	0.577900	0.274200	0.059000
O171	O17	0.782200	0.218100	0.086500
O181	O18	0.442200	0.155800	0.897000
O191	O19	0.498000	0.072400	0.196600
O201	O20	0.378400	0.144800	0.794900
O211	O21	0.646900	0.272700	0.161000
O221	O22	0.738500	0.068900	0.925800
O231	O23	0.555900	0.073900	0.831500
O241	O24	0.583700	0.204100	0.821400
O251	O25	0.633000	0.168300	0.979300
O261	O26	0.859000	0.158500	0.977800
O271	O27	0.739000	0.072800	0.032200
O281	O28	0.390000	0.161700	0.252000
U71	U7	0.044680	0.259340	0.474530
U81	U8	0.875010	0.468310	0.616670
U91	U9	0.243150	0.259630	0.245960
S71	S7	0.851300	0.267700	0.605500
S81	S8	0.758700	0.385300	0.479400
S91	S9	0.010500	0.355800	0.336500
O291	O29	0.909000	0.337100	0.614100
O301	O30	0.922100	0.225800	0.559000
O311	O31	0.717800	0.281900	0.586500
O321	O32	0.057800	0.344200	0.397000
O331	O33	0.002000	0.427600	0.696600
O341	O34	0.121600	0.355200	0.294900
O351	O35	0.853100	0.227300	0.661000
O361	O36	0.761500	0.431100	0.425800
O371	O37	0.944100	0.426100	0.331500
O381	O38	0.916300	0.295900	0.321400
O391	O39	0.867000	0.331700	0.479300
O401	O40	0.641000	0.341500	0.477800
O411	O41	0.761000	0.427200	0.532200
O421	O42	0.110000	0.338300	0.752000
U101	U10	0.544680	0.759340	0.474530
U111	U11	0.375010	0.968310	0.616670
U121	U12	0.743150	0.759630	0.245960
S101	S10	0.351300	0.767700	0.605500
S111	S11	0.258700	0.885300	0.479400
S121	S12	0.510500	0.855800	0.336500
O431	O43	0.409000	0.837100	0.614100
O441	O44	0.422100	0.725800	0.559000
O451	O45	0.217800	0.781900	0.586500
O461	O46	0.557800	0.844200	0.397000
O471	O47	0.502000	0.927600	0.696600
O481	O48	0.621600	0.855200	0.294900
O491	O49	0.353100	0.727300	0.661000
O501	O50	0.261500	0.931100	0.425800
O511	O51	0.444100	0.926100	0.331500
O521	O52	0.416300	0.795900	0.321400
O531	O53	0.367000	0.831700	0.479300
O541	O54	0.141000	0.841500	0.477800
O551	O55	0.261000	0.927200	0.532200
O561	O56	0.610000	0.838300	0.752000
U131	U13	0.044680	0.740660	0.525470
U141	U14	0.875010	0.531690	0.383330
U151	U15	0.243150	0.740370	0.754040
S131	S13	0.851300	0.732300	0.394500
S141	S14	0.758700	0.614700	0.520600
S151	S15	0.010500	0.644200	0.663500
O571	O57	0.909000	0.662900	0.385900
O581	O58	0.922100	0.774200	0.441000
O591	O59	0.717800	0.718100	0.413500
O601	O60	0.057800	0.655800	0.603000
O611	O61	0.002000	0.572400	0.303400
O621	O62	0.121600	0.644800	0.705100
O631	O63	0.853100	0.772700	0.339000
O641	O64	0.761500	0.568900	0.574200
O651	O65	0.944100	0.573900	0.668500
O661	O66	0.916300	0.704100	0.678600
O671	O67	0.867000	0.668300	0.520700
O681	O68	0.641000	0.658500	0.522200
O691	O69	0.761000	0.572800	0.467800
O701	O70	0.110000	0.661700	0.248000
U161	U16	0.544680	0.240660	0.525470
U171	U17	0.375010	0.031690	0.383330
U181	U18	0.743150	0.240370	0.754040
S161	S16	0.351300	0.232300	0.394500
S171	S17	0.258700	0.114700	0.520600
S181	S18	0.510500	0.144200	0.663500
O711	O71	0.409000	0.162900	0.385900
O721	O72	0.422100	0.274200	0.441000
O731	O73	0.217800	0.218100	0.413500
O741	O74	0.557800	0.155800	0.603000
O751	O75	0.502000	0.072400	0.303400
O761	O76	0.621600	0.144800	0.705100
O771	O77	0.353100	0.272700	0.339000
O781	O78	0.261500	0.068900	0.574200
O791	O79	0.444100	0.073900	0.668500
O801	O80	0.416300	0.204100	0.678600
O811	O81	0.367000	0.168300	0.520700
O821	O82	0.141000	0.158500	0.522200
O831	O83	0.261000	0.072800	0.467800
O841	O84	0.610000	0.161700	0.248000
U191	U19	0.955320	0.259340	0.025470
U201	U20	0.124990	0.468310	0.883330
U211	U21	0.756850	0.259630	0.254040
S191	S19	0.148700	0.267700	0.894500
S201	S20	0.241300	0.385300	0.020600
S211	S21	0.989500	0.355800	0.163500
O851	O85	0.091000	0.337100	0.885900
O861	O86	0.077900	0.225800	0.941000
O871	O87	0.282200	0.281900	0.913500
O881	O88	0.942200	0.344200	0.103000
O891	O89	0.998000	0.427600	0.803400
O901	O90	0.878400	0.355200	0.205100
O911	O91	0.146900	0.227300	0.839000
O921	O92	0.238500	0.431100	0.074200
O931	O93	0.055900	0.426100	0.168500
O941	O94	0.083700	0.295900	0.178600
O951	O95	0.133000	0.331700	0.020700
O961	O96	0.359000	0.341500	0.022200
O971	O97	0.239000	0.427200	0.967800
O981	O98	0.890000	0.338300	0.748000
U221	U22	0.455320	0.759340	0.025470
U231	U23	0.624990	0.968310	0.883330
U241	U24	0.256850	0.759630	0.254040
S221	S22	0.648700	0.767700	0.894500
S231	S23	0.741300	0.885300	0.020600
S241	S24	0.489500	0.855800	0.163500
O991	O99	0.591000	0.837100	0.885900
O1001	O100	0.577900	0.725800	0.941000
O1011	O101	0.782200	0.781900	0.913500
O1021	O102	0.442200	0.844200	0.103000
O1031	O103	0.498000	0.927600	0.803400
O1041	O104	0.378400	0.855200	0.205100
O1051	O105	0.646900	0.727300	0.839000
O1061	O106	0.738500	0.931100	0.074200
O1071	O107	0.555900	0.926100	0.168500
O1081	O108	0.583700	0.795900	0.178600
O1091	O109	0.633000	0.831700	0.020700
O1101	O110	0.859000	0.841500	0.022200
O1111	O111	0.739000	0.927200	0.967800
O1121	O112	0.390000	0.838300	0.748000
S251	S25	0.000000	0.614700	0.250000
S261	S26	0.500000	0.114700	0.250000
S271	S27	0.000000	0.385300	0.750000
S281	S28	0.500000	0.885300	0.750000
