data_KAHKUB02_clean_PM
_symmetry_space_group_name_H-M	'P1'
_cell_length_a	13.462000
_cell_length_b	8.767000
_cell_length_c	15.125000
_cell_angle_alpha	90.000000
_cell_angle_beta	111.930000
_cell_angle_gamma	90.000000
_symmetry_Int_Tables_number 1

loop_
_symmetry_equiv_pos_as_xyz
'x,y,z'

loop_
_atom_site_label
_atom_site_type_symbol
_atom_site_fract_x
_atom_site_fract_y
_atom_site_fract_z
C11	C1	0.165300	0.081500	0.925100
C21	C2	0.165500	0.403000	0.909600
C31	C3	0.337400	0.232000	0.922800
N11	N1	0.119700	0.975500	0.885100
N21	N2	0.119000	0.494800	0.855200
N31	N3	0.386700	0.216600	0.875700
C41	C4	0.665300	0.581500	0.925100
C51	C5	0.665500	0.903000	0.909600
C61	C6	0.837400	0.732000	0.922800
N41	N4	0.619700	0.475500	0.885100
N51	N5	0.619000	0.994800	0.855200
N61	N6	0.886700	0.716600	0.875700
C71	C7	0.834700	0.081500	0.574900
C81	C8	0.834500	0.403000	0.590400
C91	C9	0.662600	0.232000	0.577200
N71	N7	0.880300	0.975500	0.614900
N81	N8	0.881000	0.494800	0.644800
N91	N9	0.613300	0.216600	0.624300
C101	C10	0.334700	0.581500	0.574900
C111	C11	0.334500	0.903000	0.590400
C121	C12	0.162600	0.732000	0.577200
N101	N10	0.380300	0.475500	0.614900
N111	N11	0.381000	0.994800	0.644800
N121	N12	0.113300	0.716600	0.624300
C131	C13	0.834700	0.918500	0.074900
C141	C14	0.834500	0.597000	0.090400
C151	C15	0.662600	0.768000	0.077200
N131	N13	0.880300	0.024500	0.114900
N141	N14	0.881000	0.505200	0.144800
N151	N15	0.613300	0.783400	0.124300
C161	C16	0.334700	0.418500	0.074900
C171	C17	0.334500	0.097000	0.090400
C181	C18	0.162600	0.268000	0.077200
N161	N16	0.380300	0.524500	0.114900
N171	N17	0.381000	0.005200	0.144800
N181	N18	0.113300	0.283400	0.124300
C191	C19	0.165300	0.918500	0.425100
C201	C20	0.165500	0.597000	0.409600
C211	C21	0.337400	0.768000	0.422800
N191	N19	0.119700	0.024500	0.385100
N201	N20	0.119000	0.505200	0.355200
N211	N21	0.386700	0.783400	0.375700
C221	C22	0.665300	0.418500	0.425100
C231	C23	0.665500	0.097000	0.409600
C241	C24	0.837400	0.268000	0.422800
N221	N22	0.619700	0.524500	0.385100
N231	N23	0.619000	0.005200	0.355200
N241	N24	0.886700	0.283400	0.375700
Fe11	Fe1	0.250000	0.250000	0.000000
Fe21	Fe2	0.750000	0.250000	0.500000
Fe31	Fe3	0.750000	0.750000	0.000000
Fe41	Fe4	0.250000	0.750000	0.500000
K11	K1	0.000000	0.751560	0.750000
K21	K2	0.500000	0.251560	0.750000
K31	K3	0.000000	0.248440	0.250000
K41	K4	0.500000	0.748440	0.250000
