data_KAHKUB_clean_PM
_symmetry_space_group_name_H-M	'P1'
_cell_length_a	8.749800
_cell_length_b	8.749800
_cell_length_c	19.029000
_cell_angle_alpha	90.000000
_cell_angle_beta	90.000000
_cell_angle_gamma	120.000000
_symmetry_Int_Tables_number 1

loop_
_symmetry_equiv_pos_as_xyz
'x,y,z'

loop_
_atom_site_label
_atom_site_type_symbol
_atom_site_fract_x
_atom_site_fract_y
_atom_site_fract_z
Fe11	Fe1	0.000000	0.000000	0.500000
Fe21	Fe2	0.666670	0.333330	0.833330
Fe31	Fe3	0.333330	0.666670	0.166670
K11	K1	0.333330	0.666670	0.666670
K21	K2	0.000000	0.000000	0.000000
K31	K3	0.666670	0.333330	0.333330
N11	N1	0.170050	0.340100	0.589330
C11	C1	0.106000	0.212000	0.557110
N21	N2	0.836720	0.673430	0.922660
C21	C2	0.772670	0.545330	0.890440
N31	N3	0.503380	0.006770	0.256000
C31	C3	0.439330	0.878670	0.223780
N41	N4	0.659900	0.829950	0.589330
C41	C4	0.788000	0.894000	0.557110
N51	N5	0.326570	0.163280	0.922660
C51	C5	0.454670	0.227330	0.890440
N61	N6	0.993230	0.496620	0.256000
C61	C6	0.121330	0.560670	0.223780
N71	N7	0.170050	0.829950	0.589330
C71	C7	0.106000	0.894000	0.557110
N81	N8	0.836720	0.163280	0.922660
C81	C8	0.772670	0.227330	0.890440
N91	N9	0.503380	0.496620	0.256000
C91	C9	0.439330	0.560670	0.223780
N101	N10	0.340100	0.170050	0.410670
C101	C10	0.212000	0.106000	0.442890
N111	N11	0.006770	0.503380	0.744000
C111	C11	0.878670	0.439330	0.776220
N121	N12	0.673430	0.836720	0.077340
C121	C12	0.545330	0.772670	0.109560
N131	N13	0.829950	0.659900	0.410670
C131	C13	0.894000	0.788000	0.442890
N141	N14	0.496620	0.993230	0.744000
C141	C14	0.560670	0.121330	0.776220
N151	N15	0.163280	0.326570	0.077340
C151	C15	0.227330	0.454670	0.109560
N161	N16	0.829950	0.170050	0.410670
C161	C16	0.894000	0.106000	0.442890
N171	N17	0.496620	0.503380	0.744000
C171	C17	0.560670	0.439330	0.776220
N181	N18	0.163280	0.836720	0.077340
C181	C18	0.227330	0.772670	0.109560
