data_KAHNOX_clean_PM
_symmetry_space_group_name_H-M	'P1'
_cell_length_a	9.420400
_cell_length_b	9.420400
_cell_length_c	16.449000
_cell_angle_alpha	88.512100
_cell_angle_beta	88.512100
_cell_angle_gamma	83.722200
_symmetry_Int_Tables_number 1

loop_
_symmetry_equiv_pos_as_xyz
'x,y,z'

loop_
_atom_site_label
_atom_site_type_symbol
_atom_site_fract_x
_atom_site_fract_y
_atom_site_fract_z
Cu11	Cu1	0.494090	0.135070	0.002070
Cu21	Cu2	0.864930	0.505910	0.497930
Cu31	Cu3	0.505910	0.864930	0.997930
Cu41	Cu4	0.135070	0.494090	0.502070
Cu51	Cu5	0.000000	0.000000	0.000000
Cu61	Cu6	0.000000	0.000000	0.500000
Cu71	Cu7	0.634600	0.365400	0.250000
Cu81	Cu8	0.365400	0.634600	0.750000
Cu91	Cu9	0.598400	0.401600	0.750000
Cu101	Cu10	0.401600	0.598400	0.250000
C11	C1	0.681800	0.962000	0.988600
C21	C2	0.570500	0.284500	0.160700
C31	C3	0.513400	0.241200	0.901700
C41	C4	0.038000	0.318200	0.511400
C51	C5	0.715500	0.429500	0.339300
C61	C6	0.758800	0.486600	0.598300
C71	C7	0.318200	0.038000	0.011400
C81	C8	0.429500	0.715500	0.839300
C91	C9	0.486600	0.758800	0.098300
C101	C10	0.962000	0.681800	0.488600
C111	C11	0.284500	0.570500	0.660700
C121	C12	0.241200	0.513400	0.401700
N11	N1	0.801400	0.975800	0.986500
N21	N2	0.541600	0.229800	0.101100
N31	N3	0.533900	0.305500	0.842700
N41	N4	0.024200	0.198600	0.513500
N51	N5	0.770200	0.458400	0.398900
N61	N6	0.694500	0.466100	0.657300
N71	N7	0.198600	0.024200	0.013500
N81	N8	0.458400	0.770200	0.898900
N91	N9	0.466100	0.694500	0.157300
N101	N10	0.975800	0.801400	0.486500
N111	N11	0.229800	0.541600	0.601100
N121	N12	0.305500	0.533900	0.342700
