data_KAHYID_clean_PM
_symmetry_space_group_name_H-M	'P1'
_cell_length_a	30.554000
_cell_length_b	16.306000
_cell_length_c	21.656000
_cell_angle_alpha	90.000000
_cell_angle_beta	134.437000
_cell_angle_gamma	90.000000
_symmetry_Int_Tables_number 1

loop_
_symmetry_equiv_pos_as_xyz
'x,y,z'

loop_
_atom_site_label
_atom_site_type_symbol
_atom_site_fract_x
_atom_site_fract_y
_atom_site_fract_z
Gd11	Gd1	0.825570	0.130650	0.955000
Gd21	Gd2	0.609820	0.380480	0.696900
O11	O1	0.746600	0.229900	0.851900
O21	O2	0.717600	0.349800	0.786400
O31	O3	0.932300	0.142100	0.040600
O41	O4	0.016700	0.199000	0.087600
O51	O5	0.866900	0.987100	0.859800
O61	O6	0.820500	0.100100	0.844300
O71	O7	0.853400	0.874000	0.663000
O81	O8	0.813800	0.939000	0.538000
N11	N1	0.861700	0.258500	0.937300
C11	C1	0.821200	0.318500	0.882100
C21	C2	0.840900	0.386900	0.871800
H11	H1	0.812600	0.428800	0.833100
C31	C3	0.901200	0.395300	0.916700
H21	H2	0.915000	0.443100	0.909500
C41	C4	0.941700	0.335300	0.972000
H31	H3	0.983800	0.341100	0.003400
C51	C5	0.921900	0.266900	0.982300
C61	C6	0.758000	0.298100	0.837600
C71	C7	0.960300	0.199000	0.041000
N21	N2	0.831100	0.005700	0.708800
C81	C8	0.816400	0.065400	0.735300
C91	C9	0.781900	0.130500	0.683000
H41	H4	0.771600	0.172300	0.701600
C101	C10	0.762300	0.135800	0.604200
H51	H5	0.738200	0.181300	0.567600
C111	C11	0.777000	0.076100	0.577600
H61	H6	0.763300	0.079800	0.522500
C121	C12	0.811500	0.011000	0.629900
C131	C13	0.836000	0.050000	0.818000
C141	C14	0.828000	0.939000	0.610000
Gd31	Gd3	0.325570	0.630650	0.955000
Gd41	Gd4	0.109820	0.880480	0.696900
O91	O9	0.246600	0.729900	0.851900
O101	O10	0.217600	0.849800	0.786400
O111	O11	0.432300	0.642100	0.040600
O121	O12	0.516700	0.699000	0.087600
O131	O13	0.366900	0.487100	0.859800
O141	O14	0.320500	0.600100	0.844300
O151	O15	0.353400	0.374000	0.663000
O161	O16	0.313800	0.439000	0.538000
N31	N3	0.361700	0.758500	0.937300
C151	C15	0.321200	0.818500	0.882100
C161	C16	0.340900	0.886900	0.871800
H71	H7	0.312600	0.928800	0.833100
C171	C17	0.401200	0.895300	0.916700
H81	H8	0.415000	0.943100	0.909500
C181	C18	0.441700	0.835300	0.972000
H91	H9	0.483800	0.841100	0.003400
C191	C19	0.421900	0.766900	0.982300
C201	C20	0.258000	0.798100	0.837600
C211	C21	0.460300	0.699000	0.041000
N41	N4	0.331100	0.505700	0.708800
C221	C22	0.316400	0.565400	0.735300
C231	C23	0.281900	0.630500	0.683000
H101	H10	0.271600	0.672300	0.701600
C241	C24	0.262300	0.635800	0.604200
H111	H11	0.238200	0.681300	0.567600
C251	C25	0.277000	0.576100	0.577600
H121	H12	0.263300	0.579800	0.522500
C261	C26	0.311500	0.511000	0.629900
C271	C27	0.336000	0.550000	0.818000
C281	C28	0.328000	0.439000	0.610000
Gd51	Gd5	0.174430	0.130650	0.545000
Gd61	Gd6	0.390180	0.380480	0.803100
O171	O17	0.253400	0.229900	0.648100
O181	O18	0.282400	0.349800	0.713600
O191	O19	0.067700	0.142100	0.459400
O201	O20	0.983300	0.199000	0.412400
O211	O21	0.133100	0.987100	0.640200
O221	O22	0.179500	0.100100	0.655700
O231	O23	0.146600	0.874000	0.837000
O241	O24	0.186200	0.939000	0.962000
N51	N5	0.138300	0.258500	0.562700
C291	C29	0.178800	0.318500	0.617900
C301	C30	0.159100	0.386900	0.628200
H131	H13	0.187400	0.428800	0.666900
C311	C31	0.098800	0.395300	0.583300
H141	H14	0.085000	0.443100	0.590500
C321	C32	0.058300	0.335300	0.528000
H151	H15	0.016200	0.341100	0.496600
C331	C33	0.078100	0.266900	0.517700
C341	C34	0.242000	0.298100	0.662400
C351	C35	0.039700	0.199000	0.459000
N61	N6	0.168900	0.005700	0.791200
C361	C36	0.183600	0.065400	0.764700
C371	C37	0.218100	0.130500	0.817000
H161	H16	0.228400	0.172300	0.798400
C381	C38	0.237700	0.135800	0.895800
H171	H17	0.261800	0.181300	0.932400
C391	C39	0.223000	0.076100	0.922400
H181	H18	0.236700	0.079800	0.977500
C401	C40	0.188500	0.011000	0.870100
C411	C41	0.164000	0.050000	0.682000
C421	C42	0.172000	0.939000	0.890000
Gd71	Gd7	0.674430	0.630650	0.545000
Gd81	Gd8	0.890180	0.880480	0.803100
O251	O25	0.753400	0.729900	0.648100
O261	O26	0.782400	0.849800	0.713600
O271	O27	0.567700	0.642100	0.459400
O281	O28	0.483300	0.699000	0.412400
O291	O29	0.633100	0.487100	0.640200
O301	O30	0.679500	0.600100	0.655700
O311	O31	0.646600	0.374000	0.837000
O321	O32	0.686200	0.439000	0.962000
N71	N7	0.638300	0.758500	0.562700
C431	C43	0.678800	0.818500	0.617900
C441	C44	0.659100	0.886900	0.628200
H191	H19	0.687400	0.928800	0.666900
C451	C45	0.598800	0.895300	0.583300
H201	H20	0.585000	0.943100	0.590500
C461	C46	0.558300	0.835300	0.528000
H211	H21	0.516200	0.841100	0.496600
C471	C47	0.578100	0.766900	0.517700
C481	C48	0.742000	0.798100	0.662400
C491	C49	0.539700	0.699000	0.459000
N81	N8	0.668900	0.505700	0.791200
C501	C50	0.683600	0.565400	0.764700
C511	C51	0.718100	0.630500	0.817000
H221	H22	0.728400	0.672300	0.798400
C521	C52	0.737700	0.635800	0.895800
H231	H23	0.761800	0.681300	0.932400
C531	C53	0.723000	0.576100	0.922400
H241	H24	0.736700	0.579800	0.977500
C541	C54	0.688500	0.511000	0.870100
C551	C55	0.664000	0.550000	0.682000
C561	C56	0.672000	0.439000	0.890000
Gd91	Gd9	0.174430	0.869350	0.045000
Gd101	Gd10	0.390180	0.619520	0.303100
O331	O33	0.253400	0.770100	0.148100
O341	O34	0.282400	0.650200	0.213600
O351	O35	0.067700	0.857900	0.959400
O361	O36	0.983300	0.801000	0.912400
O371	O37	0.133100	0.012900	0.140200
O381	O38	0.179500	0.899900	0.155700
O391	O39	0.146600	0.126000	0.337000
O401	O40	0.186200	0.061000	0.462000
N91	N9	0.138300	0.741500	0.062700
C571	C57	0.178800	0.681500	0.117900
C581	C58	0.159100	0.613100	0.128200
H251	H25	0.187400	0.571200	0.166900
C591	C59	0.098800	0.604700	0.083300
H261	H26	0.085000	0.556900	0.090500
C601	C60	0.058300	0.664700	0.028000
H271	H27	0.016200	0.658900	0.996600
C611	C61	0.078100	0.733100	0.017700
C621	C62	0.242000	0.701900	0.162400
C631	C63	0.039700	0.801000	0.959000
N101	N10	0.168900	0.994300	0.291200
C641	C64	0.183600	0.934600	0.264700
C651	C65	0.218100	0.869500	0.317000
H281	H28	0.228400	0.827700	0.298400
C661	C66	0.237700	0.864200	0.395800
H291	H29	0.261800	0.818700	0.432400
C671	C67	0.223000	0.923900	0.422400
H301	H30	0.236700	0.920200	0.477500
C681	C68	0.188500	0.989000	0.370100
C691	C69	0.164000	0.950000	0.182000
C701	C70	0.172000	0.061000	0.390000
Gd111	Gd11	0.674430	0.369350	0.045000
Gd121	Gd12	0.890180	0.119520	0.303100
O411	O41	0.753400	0.270100	0.148100
O421	O42	0.782400	0.150200	0.213600
O431	O43	0.567700	0.357900	0.959400
O441	O44	0.483300	0.301000	0.912400
O451	O45	0.633100	0.512900	0.140200
O461	O46	0.679500	0.399900	0.155700
O471	O47	0.646600	0.626000	0.337000
O481	O48	0.686200	0.561000	0.462000
N111	N11	0.638300	0.241500	0.062700
C711	C71	0.678800	0.181500	0.117900
C721	C72	0.659100	0.113100	0.128200
H311	H31	0.687400	0.071200	0.166900
C731	C73	0.598800	0.104700	0.083300
H321	H32	0.585000	0.056900	0.090500
C741	C74	0.558300	0.164700	0.028000
H331	H33	0.516200	0.158900	0.996600
C751	C75	0.578100	0.233100	0.017700
C761	C76	0.742000	0.201900	0.162400
C771	C77	0.539700	0.301000	0.959000
N121	N12	0.668900	0.494300	0.291200
C781	C78	0.683600	0.434600	0.264700
C791	C79	0.718100	0.369500	0.317000
H341	H34	0.728400	0.327700	0.298400
C801	C80	0.737700	0.364200	0.395800
H351	H35	0.761800	0.318700	0.432400
C811	C81	0.723000	0.423900	0.422400
H361	H36	0.736700	0.420200	0.477500
C821	C82	0.688500	0.489000	0.370100
C831	C83	0.664000	0.450000	0.182000
C841	C84	0.672000	0.561000	0.390000
Gd131	Gd13	0.825570	0.869350	0.455000
Gd141	Gd14	0.609820	0.619520	0.196900
O491	O49	0.746600	0.770100	0.351900
O501	O50	0.717600	0.650200	0.286400
O511	O51	0.932300	0.857900	0.540600
O521	O52	0.016700	0.801000	0.587600
O531	O53	0.866900	0.012900	0.359800
O541	O54	0.820500	0.899900	0.344300
O551	O55	0.853400	0.126000	0.163000
O561	O56	0.813800	0.061000	0.038000
N131	N13	0.861700	0.741500	0.437300
C851	C85	0.821200	0.681500	0.382100
C861	C86	0.840900	0.613100	0.371800
H371	H37	0.812600	0.571200	0.333100
C871	C87	0.901200	0.604700	0.416700
H381	H38	0.915000	0.556900	0.409500
C881	C88	0.941700	0.664700	0.472000
H391	H39	0.983800	0.658900	0.503400
C891	C89	0.921900	0.733100	0.482300
C901	C90	0.758000	0.701900	0.337600
C911	C91	0.960300	0.801000	0.541000
N141	N14	0.831100	0.994300	0.208800
C921	C92	0.816400	0.934600	0.235300
C931	C93	0.781900	0.869500	0.183000
H401	H40	0.771600	0.827700	0.201600
C941	C94	0.762300	0.864200	0.104200
H411	H41	0.738200	0.818700	0.067600
C951	C95	0.777000	0.923900	0.077600
H421	H42	0.763300	0.920200	0.022500
C961	C96	0.811500	0.989000	0.129900
C971	C97	0.836000	0.950000	0.318000
C981	C98	0.828000	0.061000	0.110000
Gd151	Gd15	0.325570	0.369350	0.455000
Gd161	Gd16	0.109820	0.119520	0.196900
O571	O57	0.246600	0.270100	0.351900
O581	O58	0.217600	0.150200	0.286400
O591	O59	0.432300	0.357900	0.540600
O601	O60	0.516700	0.301000	0.587600
O611	O61	0.366900	0.512900	0.359800
O621	O62	0.320500	0.399900	0.344300
O631	O63	0.353400	0.626000	0.163000
O641	O64	0.313800	0.561000	0.038000
N151	N15	0.361700	0.241500	0.437300
C991	C99	0.321200	0.181500	0.382100
C1001	C100	0.340900	0.113100	0.371800
H431	H43	0.312600	0.071200	0.333100
C1011	C101	0.401200	0.104700	0.416700
H441	H44	0.415000	0.056900	0.409500
C1021	C102	0.441700	0.164700	0.472000
H451	H45	0.483800	0.158900	0.503400
C1031	C103	0.421900	0.233100	0.482300
C1041	C104	0.258000	0.201900	0.337600
C1051	C105	0.460300	0.301000	0.541000
N161	N16	0.331100	0.494300	0.208800
C1061	C106	0.316400	0.434600	0.235300
C1071	C107	0.281900	0.369500	0.183000
H461	H46	0.271600	0.327700	0.201600
C1081	C108	0.262300	0.364200	0.104200
H471	H47	0.238200	0.318700	0.067600
C1091	C109	0.277000	0.423900	0.077600
H481	H48	0.263300	0.420200	0.022500
C1101	C110	0.311500	0.489000	0.129900
C1111	C111	0.336000	0.450000	0.318000
C1121	C112	0.328000	0.561000	0.110000
