data_KAKCEH01_clean_PM
_symmetry_space_group_name_H-M	'P1'
_cell_length_a	7.245900
_cell_length_b	19.224200
_cell_length_c	25.807000
_cell_angle_alpha	90.000000
_cell_angle_beta	90.000000
_cell_angle_gamma	90.000000
_symmetry_Int_Tables_number 1

loop_
_symmetry_equiv_pos_as_xyz
'x,y,z'

loop_
_atom_site_label
_atom_site_type_symbol
_atom_site_fract_x
_atom_site_fract_y
_atom_site_fract_z
Ba11	Ba1	0.181980	0.311400	0.892570
O11	O1	0.620900	0.771200	0.460800
O21	O2	0.513800	0.875500	0.474200
O31	O3	0.109600	0.451600	0.876100
O41	O4	0.971100	0.503800	0.940100
O51	O5	0.058400	0.177100	0.879800
O61	O6	0.325700	0.185900	0.841600
C11	C1	0.188800	0.154200	0.855200
C21	C2	0.159000	0.080700	0.831600
C31	C3	0.223200	0.063200	0.785800
H11	H1	0.296900	0.094300	0.767600
C41	C4	0.182000	0.997900	0.763900
H21	H2	0.221600	0.986800	0.730700
C51	C5	0.082400	0.951400	0.792300
C61	C6	0.026900	0.966600	0.842000
H31	H3	0.968900	0.933400	0.862500
C71	C7	0.059700	0.032700	0.860400
H41	H4	0.014300	0.045300	0.892700
C81	C8	0.027900	0.881400	0.770400
C91	C9	0.605400	0.823600	0.489000
C101	C10	0.683200	0.821300	0.542600
C111	C11	0.668700	0.878000	0.576400
H51	H5	0.609100	0.918100	0.565200
C121	C12	0.738000	0.876100	0.624200
H61	H6	0.724200	0.914900	0.645400
C131	C13	0.773600	0.762600	0.560800
H71	H7	0.788300	0.724200	0.539300
C141	C14	0.841400	0.761000	0.610300
H81	H8	0.897100	0.720600	0.622500
C151	C15	0.036500	0.504300	0.895100
C161	C16	0.024100	0.569900	0.866900
C171	C17	0.061600	0.572200	0.813300
H91	H9	0.097600	0.531500	0.796600
C181	C18	0.047000	0.631600	0.784900
H101	H10	0.072300	0.630800	0.749600
C191	C19	0.995400	0.692300	0.808200
C201	C20	0.961000	0.690600	0.861200
H111	H11	0.929200	0.731800	0.877900
C211	C21	0.971100	0.631300	0.889200
H121	H12	0.941700	0.632200	0.924300
C221	C22	0.976000	0.758400	0.777000
C231	C23	0.913900	0.757700	0.725700
H131	H13	0.877400	0.715700	0.711100
C241	C24	0.905200	0.816800	0.696600
C251	C25	0.967700	0.878800	0.717500
H141	H14	0.970500	0.918700	0.697300
C261	C26	0.028100	0.821300	0.798800
H151	H15	0.063900	0.822700	0.833400
C271	C27	0.828300	0.819500	0.643400
Ba21	Ba2	0.818020	0.688600	0.392570
O71	O7	0.379100	0.228800	0.960800
O81	O8	0.486200	0.124500	0.974200
O91	O9	0.890400	0.548400	0.376100
O101	O10	0.028900	0.496200	0.440100
O111	O11	0.941600	0.822900	0.379800
O121	O12	0.674300	0.814100	0.341600
C281	C28	0.811200	0.845800	0.355200
C291	C29	0.841000	0.919300	0.331600
C301	C30	0.776800	0.936800	0.285800
H161	H16	0.703100	0.905700	0.267600
C311	C31	0.818000	0.002100	0.263900
H171	H17	0.778400	0.013200	0.230700
C321	C32	0.917600	0.048600	0.292300
C331	C33	0.973100	0.033400	0.342000
H181	H18	0.031100	0.066600	0.362500
C341	C34	0.940300	0.967300	0.360400
H191	H19	0.985700	0.954700	0.392700
C351	C35	0.972100	0.118600	0.270400
C361	C36	0.394600	0.176400	0.989000
C371	C37	0.316800	0.178700	0.042600
C381	C38	0.331300	0.122000	0.076400
H201	H20	0.390900	0.081900	0.065200
C391	C39	0.262000	0.123900	0.124200
H211	H21	0.275800	0.085100	0.145400
C401	C40	0.226400	0.237400	0.060800
H221	H22	0.211700	0.275800	0.039300
C411	C41	0.158600	0.239000	0.110300
H231	H23	0.102900	0.279400	0.122500
C421	C42	0.963500	0.495700	0.395100
C431	C43	0.975900	0.430100	0.366900
C441	C44	0.938400	0.427800	0.313300
H241	H24	0.902400	0.468500	0.296600
C451	C45	0.953000	0.368400	0.284900
H251	H25	0.927700	0.369200	0.249600
C461	C46	0.004600	0.307700	0.308200
C471	C47	0.039000	0.309400	0.361200
H261	H26	0.070800	0.268200	0.377900
C481	C48	0.028900	0.368700	0.389200
H271	H27	0.058300	0.367800	0.424300
C491	C49	0.024000	0.241600	0.277000
C501	C50	0.086100	0.242300	0.225700
H281	H28	0.122600	0.284300	0.211100
C511	C51	0.094800	0.183200	0.196600
C521	C52	0.032300	0.121200	0.217500
H291	H29	0.029500	0.081300	0.197300
C531	C53	0.971900	0.178700	0.298800
H301	H30	0.936100	0.177300	0.333400
C541	C54	0.171700	0.180500	0.143400
Ba31	Ba3	0.681980	0.188600	0.892570
O131	O13	0.120900	0.728800	0.460800
O141	O14	0.013800	0.624500	0.474200
O151	O15	0.609600	0.048400	0.876100
O161	O16	0.471100	0.996200	0.940100
O171	O17	0.558400	0.322900	0.879800
O181	O18	0.825700	0.314100	0.841600
C551	C55	0.688800	0.345800	0.855200
C561	C56	0.659000	0.419300	0.831600
C571	C57	0.723200	0.436800	0.785800
H311	H31	0.796900	0.405700	0.767600
C581	C58	0.682000	0.502100	0.763900
H321	H32	0.721600	0.513200	0.730700
C591	C59	0.582400	0.548600	0.792300
C601	C60	0.526900	0.533400	0.842000
H331	H33	0.468900	0.566600	0.862500
C611	C61	0.559700	0.467300	0.860400
H341	H34	0.514300	0.454700	0.892700
C621	C62	0.527900	0.618600	0.770400
C631	C63	0.105400	0.676400	0.489000
C641	C64	0.183200	0.678700	0.542600
C651	C65	0.168700	0.622000	0.576400
H351	H35	0.109100	0.581900	0.565200
C661	C66	0.238000	0.623900	0.624200
H361	H36	0.224200	0.585100	0.645400
C671	C67	0.273600	0.737400	0.560800
H371	H37	0.288300	0.775800	0.539300
C681	C68	0.341400	0.739000	0.610300
H381	H38	0.397100	0.779400	0.622500
C691	C69	0.536500	0.995700	0.895100
C701	C70	0.524100	0.930100	0.866900
C711	C71	0.561600	0.927800	0.813300
H391	H39	0.597600	0.968500	0.796600
C721	C72	0.547000	0.868400	0.784900
H401	H40	0.572300	0.869200	0.749600
C731	C73	0.495400	0.807700	0.808200
C741	C74	0.461000	0.809400	0.861200
H411	H41	0.429200	0.768200	0.877900
C751	C75	0.471100	0.868700	0.889200
H421	H42	0.441700	0.867800	0.924300
C761	C76	0.476000	0.741600	0.777000
C771	C77	0.413900	0.742300	0.725700
H431	H43	0.377400	0.784300	0.711100
C781	C78	0.405200	0.683200	0.696600
C791	C79	0.467700	0.621200	0.717500
H441	H44	0.470500	0.581300	0.697300
C801	C80	0.528100	0.678700	0.798800
H451	H45	0.563900	0.677300	0.833400
C811	C81	0.328300	0.680500	0.643400
Ba41	Ba4	0.318020	0.811400	0.392570
O191	O19	0.879100	0.271200	0.960800
O201	O20	0.986200	0.375500	0.974200
O211	O21	0.390400	0.951600	0.376100
O221	O22	0.528900	0.003800	0.440100
O231	O23	0.441600	0.677100	0.379800
O241	O24	0.174300	0.685900	0.341600
C821	C82	0.311200	0.654200	0.355200
C831	C83	0.341000	0.580700	0.331600
C841	C84	0.276800	0.563200	0.285800
H461	H46	0.203100	0.594300	0.267600
C851	C85	0.318000	0.497900	0.263900
H471	H47	0.278400	0.486800	0.230700
C861	C86	0.417600	0.451400	0.292300
C871	C87	0.473100	0.466600	0.342000
H481	H48	0.531100	0.433400	0.362500
C881	C88	0.440300	0.532700	0.360400
H491	H49	0.485700	0.545300	0.392700
C891	C89	0.472100	0.381400	0.270400
C901	C90	0.894600	0.323600	0.989000
C911	C91	0.816800	0.321300	0.042600
C921	C92	0.831300	0.378000	0.076400
H501	H50	0.890900	0.418100	0.065200
C931	C93	0.762000	0.376100	0.124200
H511	H51	0.775800	0.414900	0.145400
C941	C94	0.726400	0.262600	0.060800
H521	H52	0.711700	0.224200	0.039300
C951	C95	0.658600	0.261000	0.110300
H531	H53	0.602900	0.220600	0.122500
C961	C96	0.463500	0.004300	0.395100
C971	C97	0.475900	0.069900	0.366900
C981	C98	0.438400	0.072200	0.313300
H541	H54	0.402400	0.031500	0.296600
C991	C99	0.453000	0.131600	0.284900
H551	H55	0.427700	0.130800	0.249600
C1001	C100	0.504600	0.192300	0.308200
C1011	C101	0.539000	0.190600	0.361200
H561	H56	0.570800	0.231800	0.377900
C1021	C102	0.528900	0.131300	0.389200
H571	H57	0.558300	0.132200	0.424300
C1031	C103	0.524000	0.258400	0.277000
C1041	C104	0.586100	0.257700	0.225700
H581	H58	0.622600	0.215700	0.211100
C1051	C105	0.594800	0.316800	0.196600
C1061	C106	0.532300	0.378800	0.217500
H591	H59	0.529500	0.418700	0.197300
C1071	C107	0.471900	0.321300	0.298800
H601	H60	0.436100	0.322700	0.333400
C1081	C108	0.671700	0.319500	0.143400
