data_KAKCEH02_clean_PM
_symmetry_space_group_name_H-M	'P1'
_cell_length_a	7.265200
_cell_length_b	19.315200
_cell_length_c	26.072300
_cell_angle_alpha	90.000000
_cell_angle_beta	90.000000
_cell_angle_gamma	90.000000
_symmetry_Int_Tables_number 1

loop_
_symmetry_equiv_pos_as_xyz
'x,y,z'

loop_
_atom_site_label
_atom_site_type_symbol
_atom_site_fract_x
_atom_site_fract_y
_atom_site_fract_z
Ba11	Ba1	0.367440	0.308200	0.411670
O11	O1	0.669300	0.268700	0.341400
O21	O2	0.549700	0.372300	0.328700
O31	O3	0.990300	0.326500	0.421300
O41	O4	0.714100	0.315300	0.455700
O51	O5	0.421200	0.450700	0.425700
C11	C1	0.361600	0.151900	0.445400
C21	C2	0.375800	0.077200	0.466900
C31	C3	0.301900	0.061000	0.512200
C41	C4	0.469700	0.029300	0.438200
C51	C5	0.336600	0.996700	0.533500
H11	H1	0.225900	0.093300	0.529600
C61	C6	0.501000	0.964200	0.458400
H21	H2	0.512800	0.040800	0.404800
C71	C7	0.437400	0.946400	0.506500
H31	H3	0.291900	0.986500	0.566900
H41	H4	0.567500	0.931100	0.438800
C81	C8	0.486500	0.877700	0.529800
C91	C9	0.540200	0.875000	0.581200
C101	C10	0.490100	0.818100	0.501800
C111	C11	0.594200	0.813300	0.604800
H51	H5	0.539900	0.916500	0.600900
H61	H6	0.459800	0.819800	0.466400
C121	C12	0.536900	0.755000	0.523900
C131	C13	0.663700	0.814000	0.657100
C141	C14	0.593700	0.754200	0.574700
C151	C15	0.521700	0.690800	0.493100
C161	C16	0.641200	0.759100	0.690000
C171	C17	0.756000	0.871000	0.677000
H71	H7	0.633400	0.711700	0.589400
C181	C18	0.566000	0.690300	0.441200
C191	C19	0.466000	0.629800	0.515000
C201	C20	0.702300	0.760600	0.739900
H81	H8	0.581400	0.718500	0.677800
C211	C21	0.817000	0.874900	0.726500
H91	H9	0.777200	0.909300	0.655000
C221	C22	0.558000	0.628800	0.414000
H101	H10	0.601500	0.731900	0.424500
C231	C23	0.450000	0.568800	0.486300
H111	H11	0.437500	0.628900	0.550600
C241	C24	0.785900	0.818300	0.759900
H121	H12	0.686300	0.720900	0.761000
H131	H13	0.879800	0.915100	0.738300
H141	H14	0.594300	0.629200	0.379000
C251	C25	0.499700	0.566500	0.435300
H151	H15	0.404000	0.528200	0.502400
C261	C26	0.855600	0.820400	0.813600
C271	C27	0.491500	0.501200	0.406000
O61	O6	0.563900	0.502200	0.360500
Ba21	Ba2	0.632560	0.691800	0.911670
O71	O7	0.330700	0.731300	0.841400
O81	O8	0.450300	0.627700	0.828700
O91	O9	0.009700	0.673500	0.921300
O101	O10	0.285900	0.684700	0.955700
O111	O11	0.578800	0.549300	0.925700
C281	C28	0.638400	0.848100	0.945400
C291	C29	0.624200	0.922800	0.966900
C301	C30	0.698100	0.939000	0.012200
C311	C31	0.530300	0.970700	0.938200
C321	C32	0.663400	0.003300	0.033500
H161	H16	0.774100	0.906700	0.029600
C331	C33	0.499000	0.035800	0.958400
H171	H17	0.487200	0.959200	0.904800
C341	C34	0.562600	0.053600	0.006500
H181	H18	0.708100	0.013500	0.066900
H191	H19	0.432500	0.068900	0.938800
C351	C35	0.513500	0.122300	0.029800
C361	C36	0.459800	0.125000	0.081200
C371	C37	0.509900	0.181900	0.001800
C381	C38	0.405800	0.186700	0.104800
H201	H20	0.460100	0.083500	0.100900
H211	H21	0.540200	0.180200	0.966400
C391	C39	0.463100	0.245000	0.023900
C401	C40	0.336300	0.186000	0.157100
C411	C41	0.406300	0.245800	0.074700
C421	C42	0.478300	0.309200	0.993100
C431	C43	0.358800	0.240900	0.190000
C441	C44	0.244000	0.129000	0.177000
H221	H22	0.366600	0.288300	0.089400
C451	C45	0.434000	0.309700	0.941200
C461	C46	0.534000	0.370200	0.015000
C471	C47	0.297700	0.239400	0.239900
H231	H23	0.418600	0.281500	0.177800
C481	C48	0.183000	0.125100	0.226500
H241	H24	0.222800	0.090700	0.155000
C491	C49	0.442000	0.371200	0.914000
H251	H25	0.398500	0.268100	0.924500
C501	C50	0.550000	0.431200	0.986300
H261	H26	0.562500	0.371100	0.050600
C511	C51	0.214100	0.181700	0.259900
H271	H27	0.313700	0.279100	0.261000
H281	H28	0.120200	0.084900	0.238300
H291	H29	0.405700	0.370800	0.879000
C521	C52	0.500300	0.433500	0.935300
H301	H30	0.596000	0.471800	0.002400
C531	C53	0.144400	0.179600	0.313600
C541	C54	0.508500	0.498800	0.906000
O121	O12	0.436100	0.497800	0.860500
Ba31	Ba3	0.867440	0.191800	0.411670
O131	O13	0.169300	0.231300	0.341400
O141	O14	0.049700	0.127700	0.328700
O151	O15	0.490300	0.173500	0.421300
O161	O16	0.214100	0.184700	0.455700
O171	O17	0.921200	0.049300	0.425700
C551	C55	0.861600	0.348100	0.445400
C561	C56	0.875800	0.422800	0.466900
C571	C57	0.801900	0.439000	0.512200
C581	C58	0.969700	0.470700	0.438200
C591	C59	0.836600	0.503300	0.533500
H311	H31	0.725900	0.406700	0.529600
C601	C60	0.001000	0.535800	0.458400
H321	H32	0.012800	0.459200	0.404800
C611	C61	0.937400	0.553600	0.506500
H331	H33	0.791900	0.513500	0.566900
H341	H34	0.067500	0.568900	0.438800
C621	C62	0.986500	0.622300	0.529800
C631	C63	0.040200	0.625000	0.581200
C641	C64	0.990100	0.681900	0.501800
C651	C65	0.094200	0.686700	0.604800
H351	H35	0.039900	0.583500	0.600900
H361	H36	0.959800	0.680200	0.466400
C661	C66	0.036900	0.745000	0.523900
C671	C67	0.163700	0.686000	0.657100
C681	C68	0.093700	0.745800	0.574700
C691	C69	0.021700	0.809200	0.493100
C701	C70	0.141200	0.740900	0.690000
C711	C71	0.256000	0.629000	0.677000
H371	H37	0.133400	0.788300	0.589400
C721	C72	0.066000	0.809700	0.441200
C731	C73	0.966000	0.870200	0.515000
C741	C74	0.202300	0.739400	0.739900
H381	H38	0.081400	0.781500	0.677800
C751	C75	0.317000	0.625100	0.726500
H391	H39	0.277200	0.590700	0.655000
C761	C76	0.058000	0.871200	0.414000
H401	H40	0.101500	0.768100	0.424500
C771	C77	0.950000	0.931200	0.486300
H411	H41	0.937500	0.871100	0.550600
C781	C78	0.285900	0.681700	0.759900
H421	H42	0.186300	0.779100	0.761000
H431	H43	0.379800	0.584900	0.738300
H441	H44	0.094300	0.870800	0.379000
C791	C79	0.999700	0.933500	0.435300
H451	H45	0.904000	0.971800	0.502400
C801	C80	0.355600	0.679600	0.813600
C811	C81	0.991500	0.998800	0.406000
O181	O18	0.063900	0.997800	0.360500
Ba41	Ba4	0.132560	0.808200	0.911670
O191	O19	0.830700	0.768700	0.841400
O201	O20	0.950300	0.872300	0.828700
O211	O21	0.509700	0.826500	0.921300
O221	O22	0.785900	0.815300	0.955700
O231	O23	0.078800	0.950700	0.925700
C821	C82	0.138400	0.651900	0.945400
C831	C83	0.124200	0.577200	0.966900
C841	C84	0.198100	0.561000	0.012200
C851	C85	0.030300	0.529300	0.938200
C861	C86	0.163400	0.496700	0.033500
H461	H46	0.274100	0.593300	0.029600
C871	C87	0.999000	0.464200	0.958400
H471	H47	0.987200	0.540800	0.904800
C881	C88	0.062600	0.446400	0.006500
H481	H48	0.208100	0.486500	0.066900
H491	H49	0.932500	0.431100	0.938800
C891	C89	0.013500	0.377700	0.029800
C901	C90	0.959800	0.375000	0.081200
C911	C91	0.009900	0.318100	0.001800
C921	C92	0.905800	0.313300	0.104800
H501	H50	0.960100	0.416500	0.100900
H511	H51	0.040200	0.319800	0.966400
C931	C93	0.963100	0.255000	0.023900
C941	C94	0.836300	0.314000	0.157100
C951	C95	0.906300	0.254200	0.074700
C961	C96	0.978300	0.190800	0.993100
C971	C97	0.858800	0.259100	0.190000
C981	C98	0.744000	0.371000	0.177000
H521	H52	0.866600	0.211700	0.089400
C991	C99	0.934000	0.190300	0.941200
C1001	C100	0.034000	0.129800	0.015000
C1011	C101	0.797700	0.260600	0.239900
H531	H53	0.918600	0.218500	0.177800
C1021	C102	0.683000	0.374900	0.226500
H541	H54	0.722800	0.409300	0.155000
C1031	C103	0.942000	0.128800	0.914000
H551	H55	0.898500	0.231900	0.924500
C1041	C104	0.050000	0.068800	0.986300
H561	H56	0.062500	0.128900	0.050600
C1051	C105	0.714100	0.318300	0.259900
H571	H57	0.813700	0.220900	0.261000
H581	H58	0.620200	0.415100	0.238300
H591	H59	0.905700	0.129200	0.879000
C1061	C106	0.000300	0.066500	0.935300
H601	H60	0.096000	0.028200	0.002400
C1071	C107	0.644400	0.320400	0.313600
C1081	C108	0.008500	0.001200	0.906000
O241	O24	0.936100	0.002200	0.860500
