data_KAPGUE_clean_PM
_symmetry_space_group_name_H-M	'P1'
_cell_length_a	8.307000
_cell_length_b	8.769000
_cell_length_c	9.204000
_cell_angle_alpha	95.630000
_cell_angle_beta	115.610000
_cell_angle_gamma	110.260000
_symmetry_Int_Tables_number 1

loop_
_symmetry_equiv_pos_as_xyz
'x,y,z'

loop_
_atom_site_label
_atom_site_type_symbol
_atom_site_fract_x
_atom_site_fract_y
_atom_site_fract_z
La11	La1	0.920080	0.991410	0.730320
La21	La2	0.079920	0.008590	0.269680
C11	C1	0.328700	0.995200	0.107600
C21	C2	0.453400	0.998800	0.033400
C31	C3	0.150800	0.445100	0.889900
C41	C4	0.331400	0.575900	0.040100
C51	C5	0.475800	0.674500	0.165300
C61	C6	0.650900	0.789900	0.324900
C71	C7	0.671300	0.004800	0.892400
C81	C8	0.546600	0.001200	0.966600
C91	C9	0.849200	0.554900	0.110100
C101	C10	0.668600	0.424100	0.959900
C111	C11	0.524200	0.325500	0.834700
C121	C12	0.349100	0.210100	0.675100
O11	O1	0.154600	0.974000	0.011300
O21	O2	0.395900	0.012400	0.262600
O31	O3	0.093900	0.298800	0.906100
O41	O4	0.072700	0.488500	0.763100
O51	O5	0.628900	0.799700	0.450300
O61	O6	0.809100	0.870500	0.327500
O71	O7	0.845400	0.026000	0.988700
O81	O8	0.604100	0.987600	0.737400
O91	O9	0.906100	0.701200	0.093900
O101	O10	0.927300	0.511500	0.236900
O111	O11	0.371100	0.200300	0.549700
O121	O12	0.190900	0.129500	0.672500
