data_KAPHOZ_ion_b_PM
_symmetry_space_group_name_H-M	'P1'
_cell_length_a	9.554500
_cell_length_b	9.554500
_cell_length_c	11.108500
_cell_angle_alpha	90.829300
_cell_angle_beta	90.829300
_cell_angle_gamma	107.222500
_symmetry_Int_Tables_number 1

loop_
_symmetry_equiv_pos_as_xyz
'x,y,z'

loop_
_atom_site_label
_atom_site_type_symbol
_atom_site_fract_x
_atom_site_fract_y
_atom_site_fract_z
K11	K1	0.642190	0.789810	0.492440
O21	O2	0.444210	0.319990	0.152100
O31	O3	0.677500	0.380100	0.099000
O41	O4	0.472220	0.345380	0.874900
O51	O5	0.500300	0.204500	0.723700
C61	C6	0.552700	0.294500	0.099400
C71	C7	0.489300	0.227300	0.832500
C81	C8	0.522700	0.143100	0.043900
C91	C9	0.495800	0.111400	0.921200
C101	C10	0.526200	0.031200	0.121000
H111	H11	0.543600	0.052200	0.202800
K151	K15	0.210190	0.357810	0.007560
O161	O16	0.680010	0.555790	0.347900
O171	O17	0.619900	0.322500	0.401000
O181	O18	0.654620	0.527780	0.625100
O191	O19	0.795500	0.499700	0.776300
C201	C20	0.705500	0.447300	0.400600
C211	C21	0.772700	0.510700	0.667500
C221	C22	0.856900	0.477300	0.456100
C231	C23	0.888600	0.504200	0.578800
C241	C24	0.968800	0.473800	0.379000
H251	H25	0.947800	0.456400	0.297200
K291	K29	0.357810	0.210190	0.507560
O301	O30	0.555790	0.680010	0.847900
O311	O31	0.322500	0.619900	0.901000
O321	O32	0.527780	0.654620	0.125100
O331	O33	0.499700	0.795500	0.276300
C341	C34	0.447300	0.705500	0.900600
C351	C35	0.510700	0.772700	0.167500
C361	C36	0.477300	0.856900	0.956100
C371	C37	0.504200	0.888600	0.078800
C381	C38	0.473800	0.968800	0.879000
H391	H39	0.456400	0.947800	0.797200
K431	K43	0.789810	0.642190	0.992440
O441	O44	0.319990	0.444210	0.652100
O451	O45	0.380100	0.677500	0.599000
O461	O46	0.345380	0.472220	0.374900
O471	O47	0.204500	0.500300	0.223700
C481	C48	0.294500	0.552700	0.599400
C491	C49	0.227300	0.489300	0.332500
C501	C50	0.143100	0.522700	0.543900
C511	C51	0.111400	0.495800	0.421200
C521	C52	0.031200	0.526200	0.621000
H531	H53	0.052200	0.543600	0.702800
Zn571	Zn57	0.496750	0.503250	0.250000
Zn591	Zn59	0.503250	0.496750	0.750000
