data_KARTAA_clean_PM
_symmetry_space_group_name_H-M	'P1'
_cell_length_a	20.649400
_cell_length_b	35.261000
_cell_length_c	10.131800
_cell_angle_alpha	90.000000
_cell_angle_beta	115.004000
_cell_angle_gamma	90.000000
_symmetry_Int_Tables_number 1

loop_
_symmetry_equiv_pos_as_xyz
'x,y,z'

loop_
_atom_site_label
_atom_site_type_symbol
_atom_site_fract_x
_atom_site_fract_y
_atom_site_fract_z
Sm11	Sm1	0.636980	0.470080	0.977960
Sm21	Sm2	0.756990	0.308030	0.010540
S11	S1	0.844780	0.247010	0.320680
S21	S2	0.707210	0.390340	0.019990
S31	S3	0.557890	0.535420	0.139420
S41	S4	0.867330	0.232920	0.943290
S51	S5	0.753980	0.526910	0.873440
S61	S6	0.903580	0.344390	0.043180
O11	O1	0.799690	0.280640	0.251700
O21	O2	0.815430	0.253140	0.986900
O31	O3	0.585040	0.528040	0.028500
O41	O4	0.850100	0.192460	0.944800
O51	O5	0.739540	0.426730	0.004500
O61	O6	0.917120	0.253660	0.329900
O71	O7	0.600200	0.565330	0.241600
O81	O8	0.893300	0.324470	0.164900
O91	O9	0.939960	0.240000	0.054600
O101	O10	0.565100	0.501300	0.229100
O111	O11	0.758190	0.368470	0.145200
O121	O12	0.848000	0.242360	0.466000
O131	O13	0.836560	0.338210	0.912000
O141	O14	0.641950	0.401270	0.036900
O151	O15	0.482950	0.548080	0.063300
O161	O16	0.814500	0.212590	0.233600
O171	O17	0.689850	0.365590	0.892300
O181	O18	0.965490	0.325240	0.036900
O191	O19	0.860300	0.244940	0.801900
O201	O20	0.916400	0.384650	0.073700
O211	O21	0.714000	0.514950	0.957400
O221	O22	0.710000	0.518970	0.719900
O231	O23	0.771500	0.566450	0.894900
O241	O24	0.819000	0.504200	0.921900
Sm31	Sm3	0.136980	0.970080	0.977960
Sm41	Sm4	0.256990	0.808030	0.010540
S71	S7	0.344780	0.747010	0.320680
S81	S8	0.207210	0.890340	0.019990
S91	S9	0.057890	0.035420	0.139420
S101	S10	0.367330	0.732920	0.943290
S111	S11	0.253980	0.026910	0.873440
S121	S12	0.403580	0.844390	0.043180
O251	O25	0.299690	0.780640	0.251700
O261	O26	0.315430	0.753140	0.986900
O271	O27	0.085040	0.028040	0.028500
O281	O28	0.350100	0.692460	0.944800
O291	O29	0.239540	0.926730	0.004500
O301	O30	0.417120	0.753660	0.329900
O311	O31	0.100200	0.065330	0.241600
O321	O32	0.393300	0.824470	0.164900
O331	O33	0.439960	0.740000	0.054600
O341	O34	0.065100	0.001300	0.229100
O351	O35	0.258190	0.868470	0.145200
O361	O36	0.348000	0.742360	0.466000
O371	O37	0.336560	0.838210	0.912000
O381	O38	0.141950	0.901270	0.036900
O391	O39	0.982950	0.048080	0.063300
O401	O40	0.314500	0.712590	0.233600
O411	O41	0.189850	0.865590	0.892300
O421	O42	0.465490	0.825240	0.036900
O431	O43	0.360300	0.744940	0.801900
O441	O44	0.416400	0.884650	0.073700
O451	O45	0.214000	0.014950	0.957400
O461	O46	0.210000	0.018970	0.719900
O471	O47	0.271500	0.066450	0.894900
O481	O48	0.319000	0.004200	0.921900
Sm51	Sm5	0.363020	0.470080	0.522040
Sm61	Sm6	0.243010	0.308030	0.489460
S131	S13	0.155220	0.247010	0.179320
S141	S14	0.292790	0.390340	0.480010
S151	S15	0.442110	0.535420	0.360580
S161	S16	0.132670	0.232920	0.556710
S171	S17	0.246020	0.526910	0.626560
S181	S18	0.096420	0.344390	0.456820
O491	O49	0.200310	0.280640	0.248300
O501	O50	0.184570	0.253140	0.513100
O511	O51	0.414960	0.528040	0.471500
O521	O52	0.149900	0.192460	0.555200
O531	O53	0.260460	0.426730	0.495500
O541	O54	0.082880	0.253660	0.170100
O551	O55	0.399800	0.565330	0.258400
O561	O56	0.106700	0.324470	0.335100
O571	O57	0.060040	0.240000	0.445400
O581	O58	0.434900	0.501300	0.270900
O591	O59	0.241810	0.368470	0.354800
O601	O60	0.152000	0.242360	0.034000
O611	O61	0.163440	0.338210	0.588000
O621	O62	0.358050	0.401270	0.463100
O631	O63	0.517050	0.548080	0.436700
O641	O64	0.185500	0.212590	0.266400
O651	O65	0.310150	0.365590	0.607700
O661	O66	0.034510	0.325240	0.463100
O671	O67	0.139700	0.244940	0.698100
O681	O68	0.083600	0.384650	0.426300
O691	O69	0.286000	0.514950	0.542600
O701	O70	0.290000	0.518970	0.780100
O711	O71	0.228500	0.566450	0.605100
O721	O72	0.181000	0.504200	0.578100
Sm71	Sm7	0.863020	0.970080	0.522040
Sm81	Sm8	0.743010	0.808030	0.489460
S191	S19	0.655220	0.747010	0.179320
S201	S20	0.792790	0.890340	0.480010
S211	S21	0.942110	0.035420	0.360580
S221	S22	0.632670	0.732920	0.556710
S231	S23	0.746020	0.026910	0.626560
S241	S24	0.596420	0.844390	0.456820
O731	O73	0.700310	0.780640	0.248300
O741	O74	0.684570	0.753140	0.513100
O751	O75	0.914960	0.028040	0.471500
O761	O76	0.649900	0.692460	0.555200
O771	O77	0.760460	0.926730	0.495500
O781	O78	0.582880	0.753660	0.170100
O791	O79	0.899800	0.065330	0.258400
O801	O80	0.606700	0.824470	0.335100
O811	O81	0.560040	0.740000	0.445400
O821	O82	0.934900	0.001300	0.270900
O831	O83	0.741810	0.868470	0.354800
O841	O84	0.652000	0.742360	0.034000
O851	O85	0.663440	0.838210	0.588000
O861	O86	0.858050	0.901270	0.463100
O871	O87	0.017050	0.048080	0.436700
O881	O88	0.685500	0.712590	0.266400
O891	O89	0.810150	0.865590	0.607700
O901	O90	0.534510	0.825240	0.463100
O911	O91	0.639700	0.744940	0.698100
O921	O92	0.583600	0.884650	0.426300
O931	O93	0.786000	0.014950	0.542600
O941	O94	0.790000	0.018970	0.780100
O951	O95	0.728500	0.066450	0.605100
O961	O96	0.681000	0.004200	0.578100
Sm91	Sm9	0.363020	0.529920	0.022040
Sm101	Sm10	0.243010	0.691970	0.989460
S251	S25	0.155220	0.752990	0.679320
S261	S26	0.292790	0.609660	0.980010
S271	S27	0.442110	0.464580	0.860580
S281	S28	0.132670	0.767080	0.056710
S291	S29	0.246020	0.473090	0.126560
S301	S30	0.096420	0.655610	0.956820
O971	O97	0.200310	0.719360	0.748300
O981	O98	0.184570	0.746860	0.013100
O991	O99	0.414960	0.471960	0.971500
O1001	O100	0.149900	0.807540	0.055200
O1011	O101	0.260460	0.573270	0.995500
O1021	O102	0.082880	0.746340	0.670100
O1031	O103	0.399800	0.434670	0.758400
O1041	O104	0.106700	0.675530	0.835100
O1051	O105	0.060040	0.760000	0.945400
O1061	O106	0.434900	0.498700	0.770900
O1071	O107	0.241810	0.631530	0.854800
O1081	O108	0.152000	0.757640	0.534000
O1091	O109	0.163440	0.661790	0.088000
O1101	O110	0.358050	0.598730	0.963100
O1111	O111	0.517050	0.451920	0.936700
O1121	O112	0.185500	0.787410	0.766400
O1131	O113	0.310150	0.634410	0.107700
O1141	O114	0.034510	0.674760	0.963100
O1151	O115	0.139700	0.755060	0.198100
O1161	O116	0.083600	0.615350	0.926300
O1171	O117	0.286000	0.485050	0.042600
O1181	O118	0.290000	0.481030	0.280100
O1191	O119	0.228500	0.433550	0.105100
O1201	O120	0.181000	0.495800	0.078100
Sm111	Sm11	0.863020	0.029920	0.022040
Sm121	Sm12	0.743010	0.191970	0.989460
S311	S31	0.655220	0.252990	0.679320
S321	S32	0.792790	0.109660	0.980010
S331	S33	0.942110	0.964580	0.860580
S341	S34	0.632670	0.267080	0.056710
S351	S35	0.746020	0.973090	0.126560
S361	S36	0.596420	0.155610	0.956820
O1211	O121	0.700310	0.219360	0.748300
O1221	O122	0.684570	0.246860	0.013100
O1231	O123	0.914960	0.971960	0.971500
O1241	O124	0.649900	0.307540	0.055200
O1251	O125	0.760460	0.073270	0.995500
O1261	O126	0.582880	0.246340	0.670100
O1271	O127	0.899800	0.934670	0.758400
O1281	O128	0.606700	0.175530	0.835100
O1291	O129	0.560040	0.260000	0.945400
O1301	O130	0.934900	0.998700	0.770900
O1311	O131	0.741810	0.131530	0.854800
O1321	O132	0.652000	0.257640	0.534000
O1331	O133	0.663440	0.161790	0.088000
O1341	O134	0.858050	0.098730	0.963100
O1351	O135	0.017050	0.951920	0.936700
O1361	O136	0.685500	0.287410	0.766400
O1371	O137	0.810150	0.134410	0.107700
O1381	O138	0.534510	0.174760	0.963100
O1391	O139	0.639700	0.255060	0.198100
O1401	O140	0.583600	0.115350	0.926300
O1411	O141	0.786000	0.985050	0.042600
O1421	O142	0.790000	0.981030	0.280100
O1431	O143	0.728500	0.933550	0.105100
O1441	O144	0.681000	0.995800	0.078100
Sm131	Sm13	0.636980	0.529920	0.477960
Sm141	Sm14	0.756990	0.691970	0.510540
S371	S37	0.844780	0.752990	0.820680
S381	S38	0.707210	0.609660	0.519990
S391	S39	0.557890	0.464580	0.639420
S401	S40	0.867330	0.767080	0.443290
S411	S41	0.753980	0.473090	0.373440
S421	S42	0.903580	0.655610	0.543180
O1451	O145	0.799690	0.719360	0.751700
O1461	O146	0.815430	0.746860	0.486900
O1471	O147	0.585040	0.471960	0.528500
O1481	O148	0.850100	0.807540	0.444800
O1491	O149	0.739540	0.573270	0.504500
O1501	O150	0.917120	0.746340	0.829900
O1511	O151	0.600200	0.434670	0.741600
O1521	O152	0.893300	0.675530	0.664900
O1531	O153	0.939960	0.760000	0.554600
O1541	O154	0.565100	0.498700	0.729100
O1551	O155	0.758190	0.631530	0.645200
O1561	O156	0.848000	0.757640	0.966000
O1571	O157	0.836560	0.661790	0.412000
O1581	O158	0.641950	0.598730	0.536900
O1591	O159	0.482950	0.451920	0.563300
O1601	O160	0.814500	0.787410	0.733600
O1611	O161	0.689850	0.634410	0.392300
O1621	O162	0.965490	0.674760	0.536900
O1631	O163	0.860300	0.755060	0.301900
O1641	O164	0.916400	0.615350	0.573700
O1651	O165	0.714000	0.485050	0.457400
O1661	O166	0.710000	0.481030	0.219900
O1671	O167	0.771500	0.433550	0.394900
O1681	O168	0.819000	0.495800	0.421900
Sm151	Sm15	0.136980	0.029920	0.477960
Sm161	Sm16	0.256990	0.191970	0.510540
S431	S43	0.344780	0.252990	0.820680
S441	S44	0.207210	0.109660	0.519990
S451	S45	0.057890	0.964580	0.639420
S461	S46	0.367330	0.267080	0.443290
S471	S47	0.253980	0.973090	0.373440
S481	S48	0.403580	0.155610	0.543180
O1691	O169	0.299690	0.219360	0.751700
O1701	O170	0.315430	0.246860	0.486900
O1711	O171	0.085040	0.971960	0.528500
O1721	O172	0.350100	0.307540	0.444800
O1731	O173	0.239540	0.073270	0.504500
O1741	O174	0.417120	0.246340	0.829900
O1751	O175	0.100200	0.934670	0.741600
O1761	O176	0.393300	0.175530	0.664900
O1771	O177	0.439960	0.260000	0.554600
O1781	O178	0.065100	0.998700	0.729100
O1791	O179	0.258190	0.131530	0.645200
O1801	O180	0.348000	0.257640	0.966000
O1811	O181	0.336560	0.161790	0.412000
O1821	O182	0.141950	0.098730	0.536900
O1831	O183	0.982950	0.951920	0.563300
O1841	O184	0.314500	0.287410	0.733600
O1851	O185	0.189850	0.134410	0.392300
O1861	O186	0.465490	0.174760	0.536900
O1871	O187	0.360300	0.255060	0.301900
O1881	O188	0.416400	0.115350	0.573700
O1891	O189	0.214000	0.985050	0.457400
O1901	O190	0.210000	0.981030	0.219900
O1911	O191	0.271500	0.933550	0.394900
O1921	O192	0.319000	0.995800	0.421900
Sm171	Sm17	0.000000	0.280950	0.250000
Sm181	Sm18	0.500000	0.780950	0.250000
Sm191	Sm19	0.000000	0.719050	0.750000
Sm201	Sm20	0.500000	0.219050	0.750000
