data_KASHUK_clean_PM
_symmetry_space_group_name_H-M	'P1'
_cell_length_a	12.965000
_cell_length_b	12.979600
_cell_length_c	20.103800
_cell_angle_alpha	90.000000
_cell_angle_beta	95.169600
_cell_angle_gamma	90.000000
_symmetry_Int_Tables_number 1

loop_
_symmetry_equiv_pos_as_xyz
'x,y,z'

loop_
_atom_site_label
_atom_site_type_symbol
_atom_site_fract_x
_atom_site_fract_y
_atom_site_fract_z
Np11	Np1	0.399550	0.875380	0.368140
Np21	Np2	0.279400	0.587700	0.304160
Np31	Np3	0.198400	0.285600	0.338330
Np41	Np4	0.011190	0.696780	0.372100
Np51	Np5	0.098280	0.978710	0.301940
Np61	Np6	0.695160	0.781330	0.335440
Np71	Np7	0.801410	0.090730	0.342360
Np81	Np8	0.509050	0.176230	0.332370
Np91	Np9	0.892810	0.394400	0.334970
Np101	Np10	0.584940	0.475200	0.338700
O11	O1	0.063100	0.323400	0.348000
O21	O2	0.945600	0.519600	0.363200
O31	O3	0.462200	0.052800	0.360800
O41	O4	0.452800	0.520300	0.312500
O51	O5	0.719900	0.433400	0.362100
O61	O6	0.497100	0.218700	0.459500
O71	O7	0.732900	0.918400	0.339100
O81	O8	0.475700	0.346500	0.755900
O91	O9	0.745700	0.067400	0.213000
O101	O10	0.584500	0.005500	0.919500
O111	O11	0.334700	0.245200	0.335500
O121	O12	0.332400	0.544100	0.422400
O131	O13	0.313700	0.513200	0.733600
O141	O14	0.563700	0.165800	0.955200
O151	O15	0.637400	0.362400	0.721300
O161	O16	0.149100	0.113200	0.302400
O171	O17	0.146100	0.649200	0.370400
O181	O18	0.604400	0.069700	0.264200
O191	O19	0.351300	0.999400	0.949100
O201	O20	0.266800	0.927400	0.356600
O211	O21	0.531400	0.825000	0.380600
O221	O22	0.500100	0.372600	0.412600
O231	O23	0.465400	0.580800	0.727200
O241	O24	0.921800	0.039600	0.312800
O251	O25	0.226300	0.456400	0.295200
O261	O26	0.653900	0.645100	0.325000
O271	O27	0.580100	0.834100	0.242600
O281	O28	0.421400	0.843400	0.940200
O291	O29	0.645100	0.231700	0.114300
O301	O30	0.261300	0.387500	0.431200
C11	C1	0.390200	0.524600	0.702400
O311	O31	0.679700	0.308900	0.559000
O321	O32	0.687100	0.143800	0.381100
O331	O33	0.760000	0.141700	0.058100
C21	C2	0.517600	0.937700	0.153000
O341	O34	0.402900	0.750400	0.139900
O351	O35	0.559600	0.294700	0.295600
O361	O36	0.189200	0.550600	0.536000
O371	O37	0.284400	0.640300	0.613800
O381	O38	0.599800	0.187500	0.615500
C31	C3	0.569600	0.075800	0.962800
O391	O39	0.844800	0.263100	0.309100
C41	C4	0.505200	0.889900	0.222100
C51	C5	0.608700	0.061400	0.088300
C61	C6	0.514600	0.343600	0.587200
C71	C7	0.463800	0.905700	0.096200
C81	C8	0.680800	0.149800	0.085200
C91	C9	0.471900	0.949900	0.036000
O401	O40	0.875200	0.736600	0.371800
C101	C10	0.490000	0.316000	0.460500
O411	O41	0.424500	0.907000	0.249800
O421	O42	0.308200	0.823500	0.056300
C111	C11	0.267700	0.566900	0.574400
C121	C12	0.537200	0.364100	0.713700
C131	C13	0.603700	0.271600	0.588400
C141	C14	0.651500	0.056300	0.211700
C151	C15	0.385900	0.818000	0.097500
C161	C16	0.461000	0.366600	0.523400
C171	C17	0.485800	0.393400	0.643300
O431	O43	0.049200	0.844600	0.304100
C181	C18	0.408700	0.465600	0.638900
C191	C19	0.410200	0.925900	0.971400
C201	C20	0.320200	0.456200	0.452800
C211	C21	0.556300	0.027700	0.031400
O441	O44	0.335300	0.719800	0.313200
C221	C22	0.375600	0.440100	0.519200
C231	C23	0.592100	0.018000	0.148900
C241	C24	0.353500	0.488600	0.577300
Np111	Np11	0.899550	0.124620	0.868140
Np121	Np12	0.779400	0.412300	0.804160
Np131	Np13	0.698400	0.714400	0.838330
Np141	Np14	0.511190	0.303220	0.872100
Np151	Np15	0.598280	0.021290	0.801940
Np161	Np16	0.195160	0.218670	0.835440
Np171	Np17	0.301410	0.909270	0.842360
Np181	Np18	0.009050	0.823770	0.832370
Np191	Np19	0.392810	0.605600	0.834970
Np201	Np20	0.084940	0.524800	0.838700
O451	O45	0.563100	0.676600	0.848000
O461	O46	0.445600	0.480400	0.863200
O471	O47	0.962200	0.947200	0.860800
O481	O48	0.952800	0.479700	0.812500
O491	O49	0.219900	0.566600	0.862100
O501	O50	0.997100	0.781300	0.959500
O511	O51	0.232900	0.081600	0.839100
O521	O52	0.975700	0.653500	0.255900
O531	O53	0.245700	0.932600	0.713000
O541	O54	0.084500	0.994500	0.419500
O551	O55	0.834700	0.754800	0.835500
O561	O56	0.832400	0.455900	0.922400
O571	O57	0.813700	0.486800	0.233600
O581	O58	0.063700	0.834200	0.455200
O591	O59	0.137400	0.637600	0.221300
O601	O60	0.649100	0.886800	0.802400
O611	O61	0.646100	0.350800	0.870400
O621	O62	0.104400	0.930300	0.764200
O631	O63	0.851300	0.000600	0.449100
O641	O64	0.766800	0.072600	0.856600
O651	O65	0.031400	0.175000	0.880600
O661	O66	0.000100	0.627400	0.912600
O671	O67	0.965400	0.419200	0.227200
O681	O68	0.421800	0.960400	0.812800
O691	O69	0.726300	0.543600	0.795200
O701	O70	0.153900	0.354900	0.825000
O711	O71	0.080100	0.165900	0.742600
O721	O72	0.921400	0.156600	0.440200
O731	O73	0.145100	0.768300	0.614300
O741	O74	0.761300	0.612500	0.931200
C251	C25	0.890200	0.475400	0.202400
O751	O75	0.179700	0.691100	0.059000
O761	O76	0.187100	0.856200	0.881100
O771	O77	0.260000	0.858300	0.558100
C261	C26	0.017600	0.062300	0.653000
O781	O78	0.902900	0.249600	0.639900
O791	O79	0.059600	0.705300	0.795600
O801	O80	0.689200	0.449400	0.036000
O811	O81	0.784400	0.359700	0.113800
O821	O82	0.099800	0.812500	0.115500
C271	C27	0.069600	0.924200	0.462800
O831	O83	0.344800	0.736900	0.809100
C281	C28	0.005200	0.110100	0.722100
C291	C29	0.108700	0.938600	0.588300
C301	C30	0.014600	0.656400	0.087200
C311	C31	0.963800	0.094300	0.596200
C321	C32	0.180800	0.850200	0.585200
C331	C33	0.971900	0.050100	0.536000
O841	O84	0.375200	0.263400	0.871800
C341	C34	0.990000	0.684000	0.960500
O851	O85	0.924500	0.093000	0.749800
O861	O86	0.808200	0.176500	0.556300
C351	C35	0.767700	0.433100	0.074400
C361	C36	0.037200	0.635900	0.213700
C371	C37	0.103700	0.728400	0.088400
C381	C38	0.151500	0.943700	0.711700
C391	C39	0.885900	0.182000	0.597500
C401	C40	0.961000	0.633400	0.023400
C411	C41	0.985800	0.606600	0.143300
O871	O87	0.549200	0.155400	0.804100
C421	C42	0.908700	0.534400	0.138900
C431	C43	0.910200	0.074100	0.471400
C441	C44	0.820200	0.543800	0.952800
C451	C45	0.056300	0.972300	0.531400
O881	O88	0.835300	0.280200	0.813200
C461	C46	0.875600	0.559900	0.019200
C471	C47	0.092100	0.982000	0.648900
C481	C48	0.853500	0.511400	0.077300
