data_KASRAZ_clean_PM
_symmetry_space_group_name_H-M	'P1'
_cell_length_a	11.413700
_cell_length_b	16.592000
_cell_length_c	26.041000
_cell_angle_alpha	90.000000
_cell_angle_beta	95.290000
_cell_angle_gamma	90.000000
_symmetry_Int_Tables_number 1

loop_
_symmetry_equiv_pos_as_xyz
'x,y,z'

loop_
_atom_site_label
_atom_site_type_symbol
_atom_site_fract_x
_atom_site_fract_y
_atom_site_fract_z
Cd11	Cd1	0.885910	0.058870	0.960780
Cd21	Cd2	0.831830	0.266120	0.963070
Cd31	Cd3	0.114090	0.558870	0.539220
Cd41	Cd4	0.168170	0.766120	0.536930
Cd51	Cd5	0.114090	0.941130	0.039220
Cd61	Cd6	0.168170	0.733880	0.036930
Cd71	Cd7	0.885910	0.441130	0.460780
Cd81	Cd8	0.831830	0.233880	0.463070
H11	H1	0.250400	0.088300	0.778600
H21	H2	0.143200	0.078100	0.849900
H31	H3	0.048400	0.311600	0.832600
H41	H4	0.155700	0.320900	0.761200
H51	H5	0.318000	0.125100	0.621300
H61	H6	0.410300	0.120300	0.545300
H71	H7	0.683000	0.247300	0.614500
H81	H8	0.593000	0.246800	0.690500
H91	H9	0.444900	0.270100	0.798800
H101	H10	0.580900	0.240700	0.868800
H111	H11	0.645700	0.026000	0.803800
H121	H12	0.512700	0.058600	0.733800
H131	H13	0.064000	0.173000	0.668100
H141	H14	0.953200	0.233800	0.599500
H151	H15	0.207200	0.401300	0.590400
H161	H16	0.321200	0.339000	0.658300
H171	H17	0.749600	0.588300	0.721400
H181	H18	0.856800	0.578100	0.650100
H191	H19	0.951600	0.811600	0.667400
H201	H20	0.844300	0.820900	0.738800
H211	H21	0.682000	0.625100	0.878700
H221	H22	0.589700	0.620300	0.954700
H231	H23	0.317000	0.747300	0.885500
H241	H24	0.407000	0.746800	0.809500
H251	H25	0.555100	0.770100	0.701200
H261	H26	0.419100	0.740700	0.631200
H271	H27	0.354300	0.526000	0.696200
H281	H28	0.487300	0.558600	0.766200
H291	H29	0.936000	0.673000	0.831900
H301	H30	0.046800	0.733800	0.900500
H311	H31	0.792800	0.901300	0.909600
H321	H32	0.678800	0.839000	0.841700
H331	H33	0.749600	0.911700	0.221400
H341	H34	0.856800	0.921900	0.150100
H351	H35	0.951600	0.688400	0.167400
H361	H36	0.844300	0.679100	0.238800
H371	H37	0.682000	0.874900	0.378700
H381	H38	0.589700	0.879700	0.454700
H391	H39	0.317000	0.752700	0.385500
H401	H40	0.407000	0.753200	0.309500
H411	H41	0.555100	0.729900	0.201200
H421	H42	0.419100	0.759300	0.131200
H431	H43	0.354300	0.974000	0.196200
H441	H44	0.487300	0.941400	0.266200
H451	H45	0.936000	0.827000	0.331900
H461	H46	0.046800	0.766200	0.400500
H471	H47	0.792800	0.598700	0.409600
H481	H48	0.678800	0.661000	0.341700
H491	H49	0.250400	0.411700	0.278600
H501	H50	0.143200	0.421900	0.349900
H511	H51	0.048400	0.188400	0.332600
H521	H52	0.155700	0.179100	0.261200
H531	H53	0.318000	0.374900	0.121300
H541	H54	0.410300	0.379700	0.045300
H551	H55	0.683000	0.252700	0.114500
H561	H56	0.593000	0.253200	0.190500
H571	H57	0.444900	0.229900	0.298800
H581	H58	0.580900	0.259300	0.368800
H591	H59	0.645700	0.474000	0.303800
H601	H60	0.512700	0.441400	0.233800
H611	H61	0.064000	0.327000	0.168100
H621	H62	0.953200	0.266200	0.099500
H631	H63	0.207200	0.098700	0.090400
H641	H64	0.321200	0.161000	0.158300
C11	C1	0.387500	0.189700	0.712400
C21	C2	0.274900	0.212100	0.714500
C31	C3	0.211700	0.205500	0.761900
C41	C4	0.208600	0.133900	0.789400
C51	C5	0.145900	0.127900	0.832100
C61	C6	0.086800	0.194200	0.849100
C71	C7	0.089900	0.265900	0.821900
C81	C8	0.153000	0.271100	0.779100
C91	C9	0.445000	0.188000	0.663300
C101	C10	0.392800	0.149900	0.620000
C111	C11	0.447500	0.147100	0.574700
C121	C12	0.556400	0.183300	0.572000
C131	C13	0.609000	0.221500	0.615700
C141	C14	0.554400	0.222200	0.660600
C151	C15	0.466700	0.167400	0.759100
C161	C16	0.486800	0.220600	0.799500
C171	C17	0.567600	0.203000	0.841400
C181	C18	0.628100	0.131600	0.843400
C191	C19	0.606100	0.076400	0.802800
C201	C20	0.526300	0.095900	0.761400
C211	C21	0.204000	0.249500	0.669600
C221	C22	0.093700	0.219200	0.652100
C231	C23	0.027500	0.255700	0.611700
C241	C24	0.068300	0.324100	0.588700
C251	C25	0.178300	0.354700	0.606200
C261	C26	0.246200	0.317700	0.646600
C271	C27	0.996300	0.365500	0.546100
C281	C28	0.716100	0.111300	0.887000
C291	C29	0.016200	0.186700	0.894700
C301	C30	0.618600	0.179600	0.523600
C311	C31	0.612500	0.689700	0.787600
C321	C32	0.725100	0.712100	0.785500
C331	C33	0.788300	0.705500	0.738100
C341	C34	0.791400	0.633900	0.710600
C351	C35	0.854100	0.627900	0.667900
C361	C36	0.913200	0.694200	0.650900
C371	C37	0.910100	0.765900	0.678100
C381	C38	0.847000	0.771100	0.720900
C391	C39	0.555000	0.688000	0.836700
C401	C40	0.607200	0.649900	0.880000
C411	C41	0.552500	0.647100	0.925300
C421	C42	0.443600	0.683300	0.928000
C431	C43	0.391000	0.721500	0.884300
C441	C44	0.445600	0.722200	0.839400
C451	C45	0.533300	0.667400	0.740900
C461	C46	0.513200	0.720600	0.700500
C471	C47	0.432400	0.703000	0.658600
C481	C48	0.371900	0.631600	0.656600
C491	C49	0.393900	0.576400	0.697200
C501	C50	0.473700	0.595900	0.738600
C511	C51	0.796000	0.749500	0.830400
C521	C52	0.906300	0.719200	0.847900
C531	C53	0.972500	0.755700	0.888300
C541	C54	0.931700	0.824100	0.911300
C551	C55	0.821700	0.854700	0.893800
C561	C56	0.753800	0.817700	0.853400
C571	C57	0.003700	0.865500	0.953900
C581	C58	0.283900	0.611300	0.613000
C591	C59	0.983800	0.686700	0.605300
C601	C60	0.381400	0.679600	0.976400
C611	C61	0.612500	0.810300	0.287600
C621	C62	0.725100	0.787900	0.285500
C631	C63	0.788300	0.794500	0.238100
C641	C64	0.791400	0.866100	0.210600
C651	C65	0.854100	0.872100	0.167900
C661	C66	0.913200	0.805800	0.150900
C671	C67	0.910100	0.734100	0.178100
C681	C68	0.847000	0.728900	0.220900
C691	C69	0.555000	0.812000	0.336700
C701	C70	0.607200	0.850100	0.380000
C711	C71	0.552500	0.852900	0.425300
C721	C72	0.443600	0.816700	0.428000
C731	C73	0.391000	0.778500	0.384300
C741	C74	0.445600	0.777800	0.339400
C751	C75	0.533300	0.832600	0.240900
C761	C76	0.513200	0.779400	0.200500
C771	C77	0.432400	0.797000	0.158600
C781	C78	0.371900	0.868400	0.156600
C791	C79	0.393900	0.923600	0.197200
C801	C80	0.473700	0.904100	0.238600
C811	C81	0.796000	0.750500	0.330400
C821	C82	0.906300	0.780800	0.347900
C831	C83	0.972500	0.744300	0.388300
C841	C84	0.931700	0.675900	0.411300
C851	C85	0.821700	0.645300	0.393800
C861	C86	0.753800	0.682300	0.353400
C871	C87	0.003700	0.634500	0.453900
C881	C88	0.283900	0.888700	0.113000
C891	C89	0.983800	0.813300	0.105300
C901	C90	0.381400	0.820400	0.476400
C911	C91	0.387500	0.310300	0.212400
C921	C92	0.274900	0.287900	0.214500
C931	C93	0.211700	0.294500	0.261900
C941	C94	0.208600	0.366100	0.289400
C951	C95	0.145900	0.372100	0.332100
C961	C96	0.086800	0.305800	0.349100
C971	C97	0.089900	0.234100	0.321900
C981	C98	0.153000	0.228900	0.279100
C991	C99	0.445000	0.312000	0.163300
C1001	C100	0.392800	0.350100	0.120000
C1011	C101	0.447500	0.352900	0.074700
C1021	C102	0.556400	0.316700	0.072000
C1031	C103	0.609000	0.278500	0.115700
C1041	C104	0.554400	0.277800	0.160600
C1051	C105	0.466700	0.332600	0.259100
C1061	C106	0.486800	0.279400	0.299500
C1071	C107	0.567600	0.297000	0.341400
C1081	C108	0.628100	0.368400	0.343400
C1091	C109	0.606100	0.423600	0.302800
C1101	C110	0.526300	0.404100	0.261400
C1111	C111	0.204000	0.250500	0.169600
C1121	C112	0.093700	0.280800	0.152100
C1131	C113	0.027500	0.244300	0.111700
C1141	C114	0.068300	0.175900	0.088700
C1151	C115	0.178300	0.145300	0.106200
C1161	C116	0.246200	0.182300	0.146600
C1171	C117	0.996300	0.134500	0.046100
C1181	C118	0.716100	0.388700	0.387000
C1191	C119	0.016200	0.313300	0.394700
C1201	C120	0.618600	0.320400	0.023600
O11	O1	0.727900	0.157900	0.925420
O21	O2	0.775800	0.048100	0.884010
O31	O3	0.021600	0.121900	0.918780
O41	O4	0.955400	0.248500	0.904580
O51	O5	0.710700	0.219200	0.523380
O61	O6	0.574000	0.137200	0.487500
O71	O7	0.019800	0.436500	0.534980
O81	O8	0.911800	0.329500	0.522290
O91	O9	0.272100	0.657900	0.574580
O101	O10	0.224200	0.548100	0.615990
O111	O11	0.978400	0.621900	0.581220
O121	O12	0.044600	0.748500	0.595420
O131	O13	0.289300	0.719200	0.976620
O141	O14	0.426000	0.637200	0.012500
O151	O15	0.980200	0.936500	0.965020
O161	O16	0.088200	0.829500	0.977710
O171	O17	0.272100	0.842100	0.074580
O181	O18	0.224200	0.951900	0.115990
O191	O19	0.978400	0.878100	0.081220
O201	O20	0.044600	0.751500	0.095420
O211	O21	0.289300	0.780800	0.476620
O221	O22	0.426000	0.862800	0.512500
O231	O23	0.980200	0.563500	0.465020
O241	O24	0.088200	0.670500	0.477710
O251	O25	0.727900	0.342100	0.425420
O261	O26	0.775800	0.451900	0.384010
O271	O27	0.021600	0.378100	0.418780
O281	O28	0.955400	0.251500	0.404580
O291	O29	0.710700	0.280800	0.023380
O301	O30	0.574000	0.362800	0.987500
O311	O31	0.019800	0.063500	0.034980
O321	O32	0.911800	0.170500	0.022290
