data_KATDAM_clean_PM
_symmetry_space_group_name_H-M	'P1'
_cell_length_a	11.202900
_cell_length_b	21.074700
_cell_length_c	21.074700
_cell_angle_alpha	120.000000
_cell_angle_beta	90.000000
_cell_angle_gamma	90.000000
_symmetry_Int_Tables_number 1

loop_
_symmetry_equiv_pos_as_xyz
'x,y,z'

loop_
_atom_site_label
_atom_site_type_symbol
_atom_site_fract_x
_atom_site_fract_y
_atom_site_fract_z
Cd11	Cd1	0.939190	0.429000	0.976370
Cd21	Cd2	0.605860	0.547370	0.571000
Cd31	Cd3	0.272520	0.023630	0.452630
Cd41	Cd4	0.439190	0.571000	0.023630
Cd51	Cd5	0.105860	0.452630	0.429000
Cd61	Cd6	0.772520	0.976370	0.547370
H11	H1	0.841000	0.844400	0.087900
H21	H2	0.028100	0.792700	0.063700
H31	H3	0.052900	0.674600	0.037500
H41	H4	0.621400	0.781900	0.984000
H51	H5	0.426800	0.820600	0.996900
H61	H6	0.421200	0.836500	0.193800
H71	H7	0.605700	0.794500	0.175100
H81	H8	0.670500	0.392300	0.900000
H91	H9	0.614500	0.299900	0.776200
H101	H10	0.961800	0.297500	0.793800
H111	H11	0.749900	0.183200	0.670700
H121	H12	0.883200	0.205200	0.669500
H131	H13	0.689900	0.158800	0.553500
H141	H14	0.650400	0.197500	0.470600
H151	H15	0.789200	0.393700	0.610600
H161	H16	0.830400	0.356000	0.691900
H171	H17	0.643800	0.291500	0.438700
H181	H18	0.664600	0.372900	0.500600
H191	H19	0.848200	0.219000	0.365700
H201	H20	0.027600	0.266500	0.340500
H211	H21	0.853700	0.432400	0.495000
H221	H22	0.507670	0.243500	0.155600
H231	H23	0.694770	0.271000	0.207300
H241	H24	0.719570	0.362900	0.325400
H251	H25	0.288070	0.202100	0.218100
H261	H26	0.093470	0.176300	0.179400
H271	H27	0.087870	0.357300	0.163500
H281	H28	0.272370	0.380600	0.205500
H291	H29	0.337170	0.507700	0.607700
H301	H30	0.281170	0.476300	0.700100
H311	H31	0.628470	0.496300	0.702500
H321	H32	0.416570	0.487500	0.816800
H331	H33	0.549870	0.464300	0.794800
H341	H34	0.356570	0.394700	0.841200
H351	H35	0.317070	0.273100	0.802500
H361	H36	0.455870	0.216900	0.606300
H371	H37	0.497070	0.335900	0.644000
H381	H38	0.310470	0.147200	0.708500
H391	H39	0.331270	0.127700	0.627100
H401	H40	0.514870	0.146700	0.781000
H411	H41	0.694270	0.074000	0.733500
H421	H42	0.520370	0.062600	0.567600
H431	H43	0.174330	0.912100	0.756500
H441	H44	0.361430	0.936300	0.729000
H451	H45	0.386230	0.962500	0.637100
H461	H46	0.954730	0.016000	0.797900
H471	H47	0.760130	0.003100	0.823700
H481	H48	0.754530	0.806200	0.642700
H491	H49	0.939030	0.824900	0.619400
H501	H50	0.003830	0.100000	0.492300
H511	H51	0.947830	0.223800	0.523700
H521	H52	0.295130	0.206200	0.503700
H531	H53	0.083230	0.329300	0.512500
H541	H54	0.216530	0.330500	0.535700
H551	H55	0.023230	0.446500	0.605300
H561	H56	0.983730	0.529400	0.726900
H571	H57	0.122530	0.389400	0.783100
H581	H58	0.163730	0.308100	0.664100
H591	H59	0.977130	0.561300	0.852800
H601	H60	0.997930	0.499400	0.872300
H611	H61	0.181530	0.634300	0.853300
H621	H62	0.360930	0.659500	0.926000
H631	H63	0.187030	0.505000	0.937400
H641	H64	0.341000	0.155600	0.912100
H651	H65	0.528100	0.207300	0.936300
H661	H66	0.552900	0.325400	0.962500
H671	H67	0.121400	0.218100	0.016000
H681	H68	0.926800	0.179400	0.003100
H691	H69	0.921200	0.163500	0.806200
H701	H70	0.105700	0.205500	0.824900
H711	H71	0.170500	0.607700	0.100000
H721	H72	0.114500	0.700100	0.223800
H731	H73	0.461800	0.702500	0.206200
H741	H74	0.249900	0.816800	0.329300
H751	H75	0.383200	0.794800	0.330500
H761	H76	0.189900	0.841200	0.446500
H771	H77	0.150400	0.802500	0.529400
H781	H78	0.289200	0.606300	0.389400
H791	H79	0.330400	0.644000	0.308100
H801	H80	0.143800	0.708500	0.561300
H811	H81	0.164600	0.627100	0.499400
H821	H82	0.348200	0.781000	0.634300
H831	H83	0.527600	0.733500	0.659500
H841	H84	0.353700	0.567600	0.505000
H851	H85	0.007670	0.756500	0.844400
H861	H86	0.194770	0.729000	0.792700
H871	H87	0.219570	0.637100	0.674600
H881	H88	0.788070	0.797900	0.781900
H891	H89	0.593470	0.823700	0.820600
H901	H90	0.587870	0.642700	0.836500
H911	H91	0.772370	0.619400	0.794500
H921	H92	0.837170	0.492300	0.392300
H931	H93	0.781170	0.523700	0.299900
H941	H94	0.128470	0.503700	0.297500
H951	H95	0.916570	0.512500	0.183200
H961	H96	0.049870	0.535700	0.205200
H971	H97	0.856570	0.605300	0.158800
H981	H98	0.817070	0.726900	0.197500
H991	H99	0.955870	0.783100	0.393700
H1001	H100	0.997070	0.664100	0.356000
H1011	H101	0.810470	0.852800	0.291500
H1021	H102	0.831270	0.872300	0.372900
H1031	H103	0.014870	0.853300	0.219000
H1041	H104	0.194270	0.926000	0.266500
H1051	H105	0.020370	0.937400	0.432400
H1061	H106	0.674330	0.087900	0.243500
H1071	H107	0.861430	0.063700	0.271000
H1081	H108	0.886230	0.037500	0.362900
H1091	H109	0.454730	0.984000	0.202100
H1101	H110	0.260130	0.996900	0.176300
H1111	H111	0.254530	0.193800	0.357300
H1121	H112	0.439030	0.175100	0.380600
H1131	H113	0.503830	0.900000	0.507700
H1141	H114	0.447830	0.776200	0.476300
H1151	H115	0.795130	0.793800	0.496300
H1161	H116	0.583230	0.670700	0.487500
H1171	H117	0.716530	0.669500	0.464300
H1181	H118	0.523230	0.553500	0.394700
H1191	H119	0.483730	0.470600	0.273100
H1201	H120	0.622530	0.610600	0.216900
H1211	H121	0.663730	0.691900	0.335900
H1221	H122	0.477130	0.438700	0.147200
H1231	H123	0.497930	0.500600	0.127700
H1241	H124	0.681530	0.365700	0.146700
H1251	H125	0.860930	0.340500	0.074000
H1261	H126	0.687030	0.495000	0.062600
C11	C1	0.895000	0.571100	0.013200
C21	C2	0.652900	0.636600	0.038500
C31	C3	0.878900	0.650000	0.034900
C41	C4	0.763400	0.679600	0.046500
C51	C5	0.752400	0.753300	0.066300
C61	C6	0.850200	0.795200	0.073900
C71	C7	0.961900	0.764800	0.060800
C81	C8	0.976300	0.693900	0.043600
C91	C9	0.579600	0.792200	0.026300
C101	C10	0.461700	0.815500	0.034200
C111	C11	0.393200	0.831600	0.096400
C121	C12	0.458100	0.824200	0.149500
C131	C13	0.569300	0.800500	0.138800
C141	C14	0.723100	0.361900	0.863100
C151	C15	0.691600	0.311100	0.794900
C161	C16	0.882100	0.310500	0.805300
C171	C17	0.802100	0.223800	0.680500
C181	C18	0.769100	0.252400	0.631300
C191	C19	0.711700	0.205800	0.564600
C201	C20	0.687200	0.229300	0.514900
C211	C21	0.716900	0.299300	0.530500
C221	C22	0.770400	0.346000	0.598600
C231	C23	0.795300	0.323500	0.647300
C241	C24	0.699300	0.324200	0.476100
C251	C25	0.871400	0.267900	0.388700
C261	C26	0.970400	0.294300	0.375400
C271	C27	0.875700	0.385200	0.459800
C281	C28	0.561670	0.442100	0.428900
C291	C29	0.319570	0.401900	0.363400
C301	C30	0.545570	0.384900	0.350000
C311	C31	0.430070	0.366900	0.320400
C321	C32	0.419070	0.313000	0.246700
C331	C33	0.516870	0.278700	0.204800
C341	C34	0.628570	0.296000	0.235200
C351	C35	0.642970	0.349700	0.306100
C361	C36	0.246270	0.234100	0.207800
C371	C37	0.128370	0.218700	0.184500
C381	C38	0.059870	0.264800	0.168400
C391	C39	0.124770	0.325300	0.175800
C401	C40	0.235970	0.338300	0.199500
C411	C41	0.389770	0.501200	0.638100
C421	C42	0.358270	0.483800	0.688900
C431	C43	0.548770	0.494800	0.689500
C441	C44	0.468770	0.456700	0.776200
C451	C45	0.435770	0.378900	0.747600
C461	C46	0.378370	0.358800	0.794200
C471	C47	0.353870	0.285600	0.770700
C481	C48	0.383570	0.231200	0.700700
C491	C49	0.437070	0.252600	0.654000
C501	C50	0.461970	0.323800	0.676500
C511	C51	0.365970	0.151900	0.675800
C521	C52	0.538070	0.120800	0.732100
C531	C53	0.637070	0.081100	0.705700
C541	C54	0.542370	0.074600	0.614800
C551	C55	0.228330	0.986800	0.557900
C561	C56	0.986230	0.961500	0.598100
C571	C57	0.212230	0.965100	0.615100
C581	C58	0.096730	0.953500	0.633100
C591	C59	0.085730	0.933700	0.687000
C601	C60	0.183530	0.926100	0.721300
C611	C61	0.295230	0.939200	0.704000
C621	C62	0.309630	0.956400	0.650300
C631	C63	0.912930	0.973700	0.765900
C641	C64	0.795030	0.965800	0.781300
C651	C65	0.726530	0.903600	0.735200
C661	C66	0.791430	0.850500	0.674700
C671	C67	0.902630	0.861200	0.661700
C681	C68	0.056430	0.136900	0.498800
C691	C69	0.024930	0.205100	0.516200
C701	C70	0.215430	0.194700	0.505200
C711	C71	0.135430	0.319500	0.543300
C721	C72	0.102430	0.368700	0.621100
C731	C73	0.045030	0.435400	0.641200
C741	C74	0.020530	0.485100	0.714400
C751	C75	0.050230	0.469500	0.768800
C761	C76	0.103730	0.401400	0.747400
C771	C77	0.128630	0.352700	0.676200
C781	C78	0.032630	0.523900	0.848100
C791	C79	0.204730	0.611300	0.879200
C801	C80	0.303730	0.624600	0.918900
C811	C81	0.209030	0.540200	0.925400
C821	C82	0.395000	0.428900	0.986800
C831	C83	0.152900	0.363400	0.961500
C841	C84	0.378900	0.350000	0.965100
C851	C85	0.263400	0.320400	0.953500
C861	C86	0.252400	0.246700	0.933700
C871	C87	0.350200	0.204800	0.926100
C881	C88	0.461900	0.235200	0.939200
C891	C89	0.476300	0.306100	0.956400
C901	C90	0.079600	0.207800	0.973700
C911	C91	0.961700	0.184500	0.965800
C921	C92	0.893200	0.168400	0.903600
C931	C93	0.958100	0.175800	0.850500
C941	C94	0.069300	0.199500	0.861200
C951	C95	0.223100	0.638100	0.136900
C961	C96	0.191600	0.688900	0.205100
C971	C97	0.382100	0.689500	0.194700
C981	C98	0.302100	0.776200	0.319500
C991	C99	0.269100	0.747600	0.368700
C1001	C100	0.211700	0.794200	0.435400
C1011	C101	0.187200	0.770700	0.485100
C1021	C102	0.216900	0.700700	0.469500
C1031	C103	0.270400	0.654000	0.401400
C1041	C104	0.295300	0.676500	0.352700
C1051	C105	0.199300	0.675800	0.523900
C1061	C106	0.371400	0.732100	0.611300
C1071	C107	0.470400	0.705700	0.624600
C1081	C108	0.375700	0.614800	0.540200
C1091	C109	0.061670	0.557900	0.571100
C1101	C110	0.819570	0.598100	0.636600
C1111	C111	0.045570	0.615100	0.650000
C1121	C112	0.930070	0.633100	0.679600
C1131	C113	0.919070	0.687000	0.753300
C1141	C114	0.016870	0.721300	0.795200
C1151	C115	0.128570	0.704000	0.764800
C1161	C116	0.142970	0.650300	0.693900
C1171	C117	0.746270	0.765900	0.792200
C1181	C118	0.628370	0.781300	0.815500
C1191	C119	0.559870	0.735200	0.831600
C1201	C120	0.624770	0.674700	0.824200
C1211	C121	0.735970	0.661700	0.800500
C1221	C122	0.889770	0.498800	0.361900
C1231	C123	0.858270	0.516200	0.311100
C1241	C124	0.048770	0.505200	0.310500
C1251	C125	0.968770	0.543300	0.223800
C1261	C126	0.935770	0.621100	0.252400
C1271	C127	0.878370	0.641200	0.205800
C1281	C128	0.853870	0.714400	0.229300
C1291	C129	0.883570	0.768800	0.299300
C1301	C130	0.937070	0.747400	0.346000
C1311	C131	0.961970	0.676200	0.323500
C1321	C132	0.865970	0.848100	0.324200
C1331	C133	0.038070	0.879200	0.267900
C1341	C134	0.137070	0.918900	0.294300
C1351	C135	0.042370	0.925400	0.385200
C1361	C136	0.728330	0.013200	0.442100
C1371	C137	0.486230	0.038500	0.401900
C1381	C138	0.712230	0.034900	0.384900
C1391	C139	0.596730	0.046500	0.366900
C1401	C140	0.585730	0.066300	0.313000
C1411	C141	0.683530	0.073900	0.278700
C1421	C142	0.795230	0.060800	0.296000
C1431	C143	0.809630	0.043600	0.349700
C1441	C144	0.412930	0.026300	0.234100
C1451	C145	0.295030	0.034200	0.218700
C1461	C146	0.226530	0.096400	0.264800
C1471	C147	0.291430	0.149500	0.325300
C1481	C148	0.402630	0.138800	0.338300
C1491	C149	0.556430	0.863100	0.501200
C1501	C150	0.524930	0.794900	0.483800
C1511	C151	0.715430	0.805300	0.494800
C1521	C152	0.635430	0.680500	0.456700
C1531	C153	0.602430	0.631300	0.378900
C1541	C154	0.545030	0.564600	0.358800
C1551	C155	0.520530	0.514900	0.285600
C1561	C156	0.550230	0.530500	0.231200
C1571	C157	0.603730	0.598600	0.252600
C1581	C158	0.628630	0.647300	0.323800
C1591	C159	0.532630	0.476100	0.151900
C1601	C160	0.704730	0.388700	0.120800
C1611	C161	0.803730	0.375400	0.081100
C1621	C162	0.709030	0.459800	0.074600
N11	N1	0.846000	0.362000	0.870000
N21	N2	0.794200	0.279100	0.758400
N31	N3	0.811100	0.325700	0.441800
N41	N4	0.975100	0.368800	0.421200
N51	N5	0.633700	0.784300	0.078100
N61	N6	0.512670	0.508000	0.638000
N71	N7	0.460870	0.479300	0.720900
N81	N8	0.477770	0.116100	0.674300
N91	N9	0.641770	0.052400	0.631200
N101	N10	0.300370	0.293800	0.215700
N111	N11	0.179330	0.130000	0.492000
N121	N12	0.127530	0.241600	0.520700
N131	N13	0.144430	0.558200	0.883900
N141	N14	0.308430	0.578800	0.947600
N151	N15	0.967030	0.921900	0.706200
N161	N16	0.346000	0.638000	0.130000
N171	N17	0.294200	0.720900	0.241600
N181	N18	0.311100	0.674300	0.558200
N191	N19	0.475100	0.631200	0.578800
N201	N20	0.133700	0.215700	0.921900
N211	N21	0.012670	0.492000	0.362000
N221	N22	0.960870	0.520700	0.279100
N231	N23	0.977770	0.883900	0.325700
N241	N24	0.141770	0.947600	0.368800
N251	N25	0.800370	0.706200	0.784300
N261	N26	0.679330	0.870000	0.508000
N271	N27	0.627530	0.758400	0.479300
N281	N28	0.644430	0.441800	0.116100
N291	N29	0.808430	0.421200	0.052400
N301	N30	0.467030	0.078100	0.293800
O11	O1	0.994300	0.549200	0.023000
O21	O2	0.810400	0.527800	0.983100
O31	O3	0.624600	0.625900	0.089800
O41	O4	0.590500	0.616700	0.982300
O51	O5	0.285600	0.850700	0.101200
O61	O6	0.660970	0.473800	0.450800
O71	O7	0.477070	0.455300	0.472200
O81	O8	0.291270	0.463900	0.374100
O91	O9	0.257170	0.365600	0.383300
O101	O10	0.952270	0.250500	0.149300
O111	O11	0.327630	0.977000	0.526200
O121	O12	0.143730	0.016900	0.544700
O131	O13	0.957930	0.910200	0.536100
O141	O14	0.923830	0.017700	0.634400
O151	O15	0.618930	0.898800	0.749500
O161	O16	0.494300	0.450800	0.977000
O171	O17	0.310400	0.472200	0.016900
O181	O18	0.124600	0.374100	0.910200
O191	O19	0.090500	0.383300	0.017700
O201	O20	0.785600	0.149300	0.898800
O211	O21	0.160970	0.526200	0.549200
O221	O22	0.977070	0.544700	0.527800
O231	O23	0.791270	0.536100	0.625900
O241	O24	0.757170	0.634400	0.616700
O251	O25	0.452270	0.749500	0.850700
O261	O26	0.827630	0.023000	0.473800
O271	O27	0.643730	0.983100	0.455300
O281	O28	0.457930	0.089800	0.463900
O291	O29	0.423830	0.982300	0.365600
O301	O30	0.118930	0.101200	0.250500
