data_KAVJEX01_clean_PM
_symmetry_space_group_name_H-M	'P1'
_cell_length_a	23.214300
_cell_length_b	23.214300
_cell_length_c	23.214300
_cell_angle_alpha	109.471000
_cell_angle_beta	109.471000
_cell_angle_gamma	109.471000
_symmetry_Int_Tables_number 1

loop_
_symmetry_equiv_pos_as_xyz
'x,y,z'

loop_
_atom_site_label
_atom_site_type_symbol
_atom_site_fract_x
_atom_site_fract_y
_atom_site_fract_z
Nd11	Nd1	0.500000	0.000000	0.000000
Nd21	Nd2	0.500000	0.500000	0.500000
Nd31	Nd3	0.000000	0.500000	0.000000
Nd41	Nd4	0.000000	0.000000	0.500000
Nd51	Nd5	0.331670	0.000000	0.000000
Nd61	Nd6	0.500000	0.331670	0.500000
Nd71	Nd7	0.000000	0.500000	0.831670
Nd81	Nd8	0.168330	0.168330	0.668330
Nd91	Nd9	0.668330	0.000000	0.000000
Nd101	Nd10	0.500000	0.668330	0.500000
Nd111	Nd11	0.000000	0.500000	0.168330
Nd121	Nd12	0.831670	0.831670	0.331670
H11	H1	0.361000	0.766200	0.988200
H21	H2	0.142100	0.705600	0.816500
H31	H3	0.241500	0.810100	0.858000
H41	H4	0.278000	0.372800	0.511800
H51	H5	0.389100	0.325600	0.683500
H61	H6	0.452100	0.383500	0.642000
H71	H7	0.222000	0.733800	0.094800
H81	H8	0.110900	0.794400	0.936500
H91	H9	0.047900	0.689900	0.931400
H101	H10	0.139000	0.127200	0.405200
H111	H11	0.357900	0.174400	0.563500
H121	H12	0.258500	0.116500	0.568600
H131	H13	0.594800	0.222000	0.233800
H141	H14	0.436500	0.110900	0.294400
H151	H15	0.431400	0.047900	0.189900
H161	H16	0.905200	0.139000	0.627200
H171	H17	0.063500	0.357900	0.674400
H181	H18	0.068600	0.258500	0.616500
H191	H19	0.488200	0.361000	0.266200
H201	H20	0.316500	0.142100	0.205600
H211	H21	0.358000	0.241500	0.310100
H221	H22	0.011800	0.278000	0.872800
H231	H23	0.183500	0.389100	0.825600
H241	H24	0.142000	0.452100	0.883500
H251	H25	0.372800	0.011800	0.778000
H261	H26	0.325600	0.183500	0.889100
H271	H27	0.383500	0.142000	0.952100
H281	H28	0.766200	0.488200	0.861000
H291	H29	0.705600	0.316500	0.642100
H301	H30	0.810100	0.358000	0.741500
H311	H31	0.127200	0.905200	0.639000
H321	H32	0.174400	0.063500	0.857900
H331	H33	0.116500	0.068600	0.758500
H341	H34	0.733800	0.594800	0.722000
H351	H35	0.794400	0.436500	0.610900
H361	H36	0.689900	0.431400	0.547900
H371	H37	0.639000	0.233800	0.011800
H381	H38	0.857900	0.294400	0.183500
H391	H39	0.758500	0.189900	0.142000
H401	H40	0.722000	0.627200	0.488200
H411	H41	0.610900	0.674400	0.316500
H421	H42	0.547900	0.616500	0.358000
H431	H43	0.778000	0.266200	0.905200
H441	H44	0.889100	0.205600	0.063500
H451	H45	0.952100	0.310100	0.068600
H461	H46	0.861000	0.872800	0.594800
H471	H47	0.642100	0.825600	0.436500
H481	H48	0.741500	0.883500	0.431400
H491	H49	0.405200	0.778000	0.766200
H501	H50	0.563500	0.889100	0.705600
H511	H51	0.568600	0.952100	0.810100
H521	H52	0.094800	0.861000	0.372800
H531	H53	0.936500	0.642100	0.325600
H541	H54	0.931400	0.741500	0.383500
H551	H55	0.511800	0.639000	0.733800
H561	H56	0.683500	0.857900	0.794400
H571	H57	0.642000	0.758500	0.689900
H581	H58	0.988200	0.722000	0.127200
H591	H59	0.816500	0.610900	0.174400
H601	H60	0.858000	0.547900	0.116500
H611	H61	0.627200	0.988200	0.222000
H621	H62	0.674400	0.816500	0.110900
H631	H63	0.616500	0.858000	0.047900
H641	H64	0.233800	0.511800	0.139000
H651	H65	0.294400	0.683500	0.357900
H661	H66	0.189900	0.642000	0.258500
H671	H67	0.872800	0.094800	0.361000
H681	H68	0.825600	0.936500	0.142100
H691	H69	0.883500	0.931400	0.241500
H701	H70	0.266200	0.405200	0.278000
H711	H71	0.205600	0.563500	0.389100
H721	H72	0.310100	0.568600	0.452100
C11	C1	0.373330	0.868020	0.956690
C21	C2	0.310380	0.799250	0.928650
C31	C3	0.126720	0.611210	0.859390
C41	C4	0.191230	0.674490	0.880140
C51	C5	0.256170	0.693260	0.931650
C61	C6	0.316070	0.754820	0.954590
C71	C7	0.186390	0.718390	0.852480
C81	C8	0.245400	0.780220	0.876880
C91	C9	0.411330	0.416640	0.543310
C101	C10	0.370600	0.381730	0.571350
C111	C11	0.251820	0.267330	0.640610
C121	C12	0.294350	0.311090	0.619860
C131	C13	0.261610	0.324520	0.568350
C141	C14	0.300230	0.361480	0.545410
C151	C15	0.365910	0.333910	0.647520
C161	C16	0.403340	0.368520	0.623120
C171	C17	0.088670	0.631980	0.005310
C181	C18	0.129400	0.700750	0.011130
C191	C19	0.248180	0.888790	0.015510
C201	C20	0.205650	0.825510	0.016740
C211	C21	0.238390	0.806740	0.062910
C221	C22	0.199770	0.745180	0.061250
C231	C23	0.134090	0.781610	0.968000
C241	C24	0.096660	0.719780	0.965180
C251	C25	0.126670	0.083360	0.494690
C261	C26	0.189620	0.118270	0.488870
C271	C27	0.373280	0.232670	0.484490
C281	C28	0.308770	0.188910	0.483260
C291	C29	0.243830	0.175480	0.437090
C301	C30	0.183930	0.138520	0.438750
C311	C31	0.313610	0.166090	0.532000
C321	C32	0.254600	0.131480	0.534820
C331	C33	0.505310	0.088670	0.131980
C341	C34	0.511130	0.129400	0.200750
C351	C35	0.515510	0.248180	0.388790
C361	C36	0.516740	0.205650	0.325510
C371	C37	0.562910	0.238390	0.306740
C381	C38	0.561250	0.199770	0.245180
C391	C39	0.468000	0.134090	0.281610
C401	C40	0.465180	0.096660	0.219780
C411	C41	0.994690	0.126670	0.583360
C421	C42	0.988870	0.189620	0.618270
C431	C43	0.984490	0.373280	0.732670
C441	C44	0.983260	0.308770	0.688910
C451	C45	0.937090	0.243830	0.675480
C461	C46	0.938750	0.183930	0.638520
C471	C47	0.032000	0.313610	0.666090
C481	C48	0.034820	0.254600	0.631480
C491	C49	0.456690	0.373330	0.368020
C501	C50	0.428650	0.310380	0.299250
C511	C51	0.359390	0.126720	0.111210
C521	C52	0.380140	0.191230	0.174490
C531	C53	0.431650	0.256170	0.193260
C541	C54	0.454590	0.316070	0.254820
C551	C55	0.352480	0.186390	0.218390
C561	C56	0.376880	0.245400	0.280220
C571	C57	0.043310	0.411330	0.916640
C581	C58	0.071350	0.370600	0.881730
C591	C59	0.140610	0.251820	0.767330
C601	C60	0.119860	0.294350	0.811090
C611	C61	0.068350	0.261610	0.824520
C621	C62	0.045410	0.300230	0.861480
C631	C63	0.147520	0.365910	0.833910
C641	C64	0.123120	0.403340	0.868520
C651	C65	0.416640	0.043310	0.911330
C661	C66	0.381730	0.071350	0.870600
C671	C67	0.267330	0.140610	0.751820
C681	C68	0.311090	0.119860	0.794350
C691	C69	0.324520	0.068350	0.761610
C701	C70	0.361480	0.045410	0.800230
C711	C71	0.333910	0.147520	0.865910
C721	C72	0.368520	0.123120	0.903340
C731	C73	0.868020	0.456690	0.873330
C741	C74	0.799250	0.428650	0.810380
C751	C75	0.611210	0.359390	0.626720
C761	C76	0.674490	0.380140	0.691230
C771	C77	0.693260	0.431650	0.756170
C781	C78	0.754820	0.454590	0.816070
C791	C79	0.718390	0.352480	0.686390
C801	C80	0.780220	0.376880	0.745400
C811	C81	0.083360	0.994690	0.626670
C821	C82	0.118270	0.988870	0.689620
C831	C83	0.232670	0.984490	0.873280
C841	C84	0.188910	0.983260	0.808770
C851	C85	0.175480	0.937090	0.743830
C861	C86	0.138520	0.938750	0.683930
C871	C87	0.166090	0.032000	0.813610
C881	C88	0.131480	0.034820	0.754600
C891	C89	0.631980	0.505310	0.588670
C901	C90	0.700750	0.511130	0.629400
C911	C91	0.888790	0.515510	0.748180
C921	C92	0.825510	0.516740	0.705650
C931	C93	0.806740	0.562910	0.738390
C941	C94	0.745180	0.561250	0.699770
C951	C95	0.781610	0.468000	0.634090
C961	C96	0.719780	0.465180	0.596660
C971	C97	0.626670	0.131980	0.043310
C981	C98	0.689620	0.200750	0.071350
C991	C99	0.873280	0.388790	0.140610
C1001	C100	0.808770	0.325510	0.119860
C1011	C101	0.743830	0.306740	0.068350
C1021	C102	0.683930	0.245180	0.045410
C1031	C103	0.813610	0.281610	0.147520
C1041	C104	0.754600	0.219780	0.123120
C1051	C105	0.588670	0.583360	0.456690
C1061	C106	0.629400	0.618270	0.428650
C1071	C107	0.748180	0.732670	0.359390
C1081	C108	0.705650	0.688910	0.380140
C1091	C109	0.738390	0.675480	0.431650
C1101	C110	0.699770	0.638520	0.454590
C1111	C111	0.634090	0.666090	0.352480
C1121	C112	0.596660	0.631480	0.376880
C1131	C113	0.911330	0.368020	0.994690
C1141	C114	0.870600	0.299250	0.988870
C1151	C115	0.751820	0.111210	0.984490
C1161	C116	0.794350	0.174490	0.983260
C1171	C117	0.761610	0.193260	0.937090
C1181	C118	0.800230	0.254820	0.938750
C1191	C119	0.865910	0.218390	0.032000
C1201	C120	0.903340	0.280220	0.034820
C1211	C121	0.873330	0.916640	0.505310
C1221	C122	0.810380	0.881730	0.511130
C1231	C123	0.626720	0.767330	0.515510
C1241	C124	0.691230	0.811090	0.516740
C1251	C125	0.756170	0.824520	0.562910
C1261	C126	0.816070	0.861480	0.561250
C1271	C127	0.686390	0.833910	0.468000
C1281	C128	0.745400	0.868520	0.465180
C1291	C129	0.494690	0.911330	0.868020
C1301	C130	0.488870	0.870600	0.799250
C1311	C131	0.484490	0.751820	0.611210
C1321	C132	0.483260	0.794350	0.674490
C1331	C133	0.437090	0.761610	0.693260
C1341	C134	0.438750	0.800230	0.754820
C1351	C135	0.532000	0.865910	0.718390
C1361	C136	0.534820	0.903340	0.780220
C1371	C137	0.005310	0.873330	0.416640
C1381	C138	0.011130	0.810380	0.381730
C1391	C139	0.015510	0.626720	0.267330
C1401	C140	0.016740	0.691230	0.311090
C1411	C141	0.062910	0.756170	0.324520
C1421	C142	0.061250	0.816070	0.361480
C1431	C143	0.968000	0.686390	0.333910
C1441	C144	0.965180	0.745400	0.368520
C1451	C145	0.543310	0.626670	0.631980
C1461	C146	0.571350	0.689620	0.700750
C1471	C147	0.640610	0.873280	0.888790
C1481	C148	0.619860	0.808770	0.825510
C1491	C149	0.568350	0.743830	0.806740
C1501	C150	0.545410	0.683930	0.745180
C1511	C151	0.647520	0.813610	0.781610
C1521	C152	0.623120	0.754600	0.719780
C1531	C153	0.956690	0.588670	0.083360
C1541	C154	0.928650	0.629400	0.118270
C1551	C155	0.859390	0.748180	0.232670
C1561	C156	0.880140	0.705650	0.188910
C1571	C157	0.931650	0.738390	0.175480
C1581	C158	0.954590	0.699770	0.138520
C1591	C159	0.852480	0.634090	0.166090
C1601	C160	0.876880	0.596660	0.131480
C1611	C161	0.583360	0.956690	0.088670
C1621	C162	0.618270	0.928650	0.129400
C1631	C163	0.732670	0.859390	0.248180
C1641	C164	0.688910	0.880140	0.205650
C1651	C165	0.675480	0.931650	0.238390
C1661	C166	0.638520	0.954590	0.199770
C1671	C167	0.666090	0.852480	0.134090
C1681	C168	0.631480	0.876880	0.096660
C1691	C169	0.131980	0.543310	0.126670
C1701	C170	0.200750	0.571350	0.189620
C1711	C171	0.388790	0.640610	0.373280
C1721	C172	0.325510	0.619860	0.308770
C1731	C173	0.306740	0.568350	0.243830
C1741	C174	0.245180	0.545410	0.183930
C1751	C175	0.281610	0.647520	0.313610
C1761	C176	0.219780	0.623120	0.254600
C1771	C177	0.916640	0.005310	0.373330
C1781	C178	0.881730	0.011130	0.310380
C1791	C179	0.767330	0.015510	0.126720
C1801	C180	0.811090	0.016740	0.191230
C1811	C181	0.824520	0.062910	0.256170
C1821	C182	0.861480	0.061250	0.316070
C1831	C183	0.833910	0.968000	0.186390
C1841	C184	0.868520	0.965180	0.245400
C1851	C185	0.368020	0.494690	0.411330
C1861	C186	0.299250	0.488870	0.370600
C1871	C187	0.111210	0.484490	0.251820
C1881	C188	0.174490	0.483260	0.294350
C1891	C189	0.193260	0.437090	0.261610
C1901	C190	0.254820	0.438750	0.300230
C1911	C191	0.218390	0.532000	0.365910
C1921	C192	0.280220	0.534820	0.403340
N11	N1	0.270400	0.650500	0.960900
N21	N2	0.189600	0.309500	0.539100
N31	N3	0.310400	0.849500	0.119900
N41	N4	0.229600	0.190500	0.380100
N51	N5	0.619900	0.310400	0.349500
N61	N6	0.880100	0.229600	0.690500
N71	N7	0.460900	0.270400	0.150500
N81	N8	0.039100	0.189600	0.809500
N91	N9	0.309500	0.039100	0.689600
N101	N10	0.650500	0.460900	0.770400
N111	N11	0.190500	0.880100	0.729600
N121	N12	0.849500	0.619900	0.810400
N131	N13	0.729600	0.349500	0.039100
N141	N14	0.810400	0.690500	0.460900
N151	N15	0.689600	0.150500	0.880100
N161	N16	0.770400	0.809500	0.619900
N171	N17	0.380100	0.689600	0.650500
N181	N18	0.119900	0.770400	0.309500
N191	N19	0.539100	0.729600	0.849500
N201	N20	0.960900	0.810400	0.190500
N211	N21	0.690500	0.960900	0.310400
N221	N22	0.349500	0.539100	0.229600
N231	N23	0.809500	0.119900	0.270400
N241	N24	0.150500	0.380100	0.189600
O11	O1	0.434000	0.879130	0.991470
O21	O2	0.364400	0.915220	0.945680
O31	O3	0.130780	0.575140	0.889920
O41	O4	0.066270	0.593450	0.811760
O51	O5	0.387660	0.442530	0.508530
O61	O6	0.469540	0.418720	0.554320
O71	O7	0.185220	0.240860	0.610080
O81	O8	0.281690	0.254510	0.688240
O91	O9	0.112340	0.620870	0.054870
O101	O10	0.030460	0.584780	0.949180
O111	O11	0.314780	0.924860	0.055640
O121	O12	0.218310	0.906550	0.972820
O131	O13	0.066000	0.057470	0.445130
O141	O14	0.135600	0.081280	0.550820
O151	O15	0.369220	0.259140	0.444360
O161	O16	0.433730	0.245490	0.527180
O171	O17	0.554870	0.112340	0.120870
O181	O18	0.449180	0.030460	0.084780
O191	O19	0.555640	0.314780	0.424860
O201	O20	0.472820	0.218310	0.406550
O211	O21	0.945130	0.066000	0.557470
O221	O22	0.050820	0.135600	0.581280
O231	O23	0.944360	0.369220	0.759140
O241	O24	0.027180	0.433730	0.745490
O251	O25	0.491470	0.434000	0.379130
O261	O26	0.445680	0.364400	0.415220
O271	O27	0.389920	0.130780	0.075140
O281	O28	0.311760	0.066270	0.093450
O291	O29	0.008530	0.387660	0.942530
O301	O30	0.054320	0.469540	0.918720
O311	O31	0.110080	0.185220	0.740860
O321	O32	0.188240	0.281690	0.754510
O331	O33	0.442530	0.008530	0.887660
O341	O34	0.418720	0.054320	0.969540
O351	O35	0.240860	0.110080	0.685220
O361	O36	0.254510	0.188240	0.781690
O371	O37	0.879130	0.491470	0.934000
O381	O38	0.915220	0.445680	0.864400
O391	O39	0.575140	0.389920	0.630780
O401	O40	0.593450	0.311760	0.566270
O411	O41	0.057470	0.945130	0.566000
O421	O42	0.081280	0.050820	0.635600
O431	O43	0.259140	0.944360	0.869220
O441	O44	0.245490	0.027180	0.933730
O451	O45	0.620870	0.554870	0.612340
O461	O46	0.584780	0.449180	0.530460
O471	O47	0.924860	0.555640	0.814780
O481	O48	0.906550	0.472820	0.718310
O491	O49	0.566000	0.120870	0.008530
O501	O50	0.635600	0.084780	0.054320
O511	O51	0.869220	0.424860	0.110080
O521	O52	0.933730	0.406550	0.188240
O531	O53	0.612340	0.557470	0.491470
O541	O54	0.530460	0.581280	0.445680
O551	O55	0.814780	0.759140	0.389920
O561	O56	0.718310	0.745490	0.311760
O571	O57	0.887660	0.379130	0.945130
O581	O58	0.969540	0.415220	0.050820
O591	O59	0.685220	0.075140	0.944360
O601	O60	0.781690	0.093450	0.027180
O611	O61	0.934000	0.942530	0.554870
O621	O62	0.864400	0.918720	0.449180
O631	O63	0.630780	0.740860	0.555640
O641	O64	0.566270	0.754510	0.472820
O651	O65	0.445130	0.887660	0.879130
O661	O66	0.550820	0.969540	0.915220
O671	O67	0.444360	0.685220	0.575140
O681	O68	0.527180	0.781690	0.593450
O691	O69	0.054870	0.934000	0.442530
O701	O70	0.949180	0.864400	0.418720
O711	O71	0.055640	0.630780	0.240860
O721	O72	0.972820	0.566270	0.254510
O731	O73	0.508530	0.566000	0.620870
O741	O74	0.554320	0.635600	0.584780
O751	O75	0.610080	0.869220	0.924860
O761	O76	0.688240	0.933730	0.906550
O771	O77	0.991470	0.612340	0.057470
O781	O78	0.945680	0.530460	0.081280
O791	O79	0.889920	0.814780	0.259140
O801	O80	0.811760	0.718310	0.245490
O811	O81	0.557470	0.991470	0.112340
O821	O82	0.581280	0.945680	0.030460
O831	O83	0.759140	0.889920	0.314780
O841	O84	0.745490	0.811760	0.218310
O851	O85	0.120870	0.508530	0.066000
O861	O86	0.084780	0.554320	0.135600
O871	O87	0.424860	0.610080	0.369220
O881	O88	0.406550	0.688240	0.433730
O891	O89	0.942530	0.054870	0.434000
O901	O90	0.918720	0.949180	0.364400
O911	O91	0.740860	0.055640	0.130780
O921	O92	0.754510	0.972820	0.066270
O931	O93	0.379130	0.445130	0.387660
O941	O94	0.415220	0.550820	0.469540
O951	O95	0.075140	0.444360	0.185220
O961	O96	0.093450	0.527180	0.281690
