data_KAVLID_clean_PM
_symmetry_space_group_name_H-M	'P1'
_cell_length_a	11.284500
_cell_length_b	11.284500
_cell_length_c	19.885000
_cell_angle_alpha	85.326600
_cell_angle_beta	85.326600
_cell_angle_gamma	66.157800
_symmetry_Int_Tables_number 1

loop_
_symmetry_equiv_pos_as_xyz
'x,y,z'

loop_
_atom_site_label
_atom_site_type_symbol
_atom_site_fract_x
_atom_site_fract_y
_atom_site_fract_z
Ni11	Ni1	0.025620	0.859740	0.925300
Ni21	Ni2	0.140260	0.974380	0.574700
Ni31	Ni3	0.974380	0.140260	0.074700
Ni41	Ni4	0.859740	0.025620	0.425300
H11	H1	0.199300	0.959700	0.835500
H21	H2	0.401000	0.969200	0.831500
H31	H3	0.465900	0.762700	0.010200
H41	H4	0.260600	0.763800	0.010300
H51	H5	0.620100	0.808100	0.018400
H61	H6	0.825100	0.807300	0.017400
H71	H7	0.818800	0.907400	0.826300
H81	H8	0.611400	0.916600	0.822700
H91	H9	0.628600	0.060200	0.555100
H101	H10	0.433900	0.119900	0.620400
H111	H11	0.608500	0.179500	0.775400
H121	H12	0.802100	0.122500	0.709600
H131	H13	0.271100	0.221500	0.856900
H141	H14	0.163200	0.417600	0.908100
H151	H15	0.259500	0.605500	0.745800
H161	H16	0.374700	0.407100	0.696100
H171	H17	0.040300	0.800700	0.664500
H181	H18	0.030800	0.599000	0.668500
H191	H19	0.237300	0.534100	0.489800
H201	H20	0.236200	0.739400	0.489700
H211	H21	0.191900	0.379900	0.481600
H221	H22	0.192700	0.174900	0.482600
H231	H23	0.092600	0.181200	0.673700
H241	H24	0.083400	0.388600	0.677300
H251	H25	0.939800	0.371400	0.944900
H261	H26	0.880100	0.566100	0.879600
H271	H27	0.820500	0.391500	0.724600
H281	H28	0.877500	0.197900	0.790400
H291	H29	0.778500	0.728900	0.643100
H301	H30	0.582400	0.836800	0.591900
H311	H31	0.394500	0.740500	0.754200
H321	H32	0.592900	0.625300	0.803900
H331	H33	0.800700	0.040300	0.164500
H341	H34	0.599000	0.030800	0.168500
H351	H35	0.534100	0.237300	0.989800
H361	H36	0.739400	0.236200	0.989700
H371	H37	0.379900	0.191900	0.981600
H381	H38	0.174900	0.192700	0.982600
H391	H39	0.181200	0.092600	0.173700
H401	H40	0.388600	0.083400	0.177300
H411	H41	0.371400	0.939800	0.444900
H421	H42	0.566100	0.880100	0.379600
H431	H43	0.391500	0.820500	0.224600
H441	H44	0.197900	0.877500	0.290400
H451	H45	0.728900	0.778500	0.143100
H461	H46	0.836800	0.582400	0.091900
H471	H47	0.740500	0.394500	0.254200
H481	H48	0.625300	0.592900	0.303900
H491	H49	0.959700	0.199300	0.335500
H501	H50	0.969200	0.401000	0.331500
H511	H51	0.762700	0.465900	0.510200
H521	H52	0.763800	0.260600	0.510300
H531	H53	0.808100	0.620100	0.518400
H541	H54	0.807300	0.825100	0.517400
H551	H55	0.907400	0.818800	0.326300
H561	H56	0.916600	0.611400	0.322700
H571	H57	0.060200	0.628600	0.055100
H581	H58	0.119900	0.433900	0.120400
H591	H59	0.179500	0.608500	0.275400
H601	H60	0.122500	0.802100	0.209600
H611	H61	0.221500	0.271100	0.356900
H621	H62	0.417600	0.163200	0.408100
H631	H63	0.605500	0.259500	0.245800
H641	H64	0.407100	0.374700	0.196100
C11	C1	0.254000	0.920400	0.872000
C21	C2	0.375000	0.925400	0.868800
C31	C3	0.458100	0.865300	0.921000
C41	C4	0.412600	0.805000	0.973600
C51	C5	0.289500	0.805900	0.973300
C61	C6	0.590700	0.864900	0.920200
C71	C7	0.657800	0.831000	0.977700
C81	C8	0.781000	0.830200	0.976600
C91	C9	0.777500	0.888500	0.866800
C101	C10	0.653200	0.893200	0.864200
C111	C11	0.735500	0.082700	0.626300
C121	C12	0.625100	0.083900	0.600200
C131	C13	0.509300	0.119300	0.638800
C141	C14	0.504600	0.153400	0.703800
C151	C15	0.612800	0.154800	0.730400
C161	C16	0.727900	0.120300	0.691400
C171	C17	0.861600	0.040800	0.584600
C181	C18	0.332300	0.298100	0.771800
C191	C19	0.269600	0.299800	0.834600
C201	C20	0.205100	0.416100	0.864600
C211	C21	0.200200	0.531800	0.831900
C221	C22	0.262700	0.527300	0.768900
C231	C23	0.330300	0.409500	0.739000
C241	C24	0.129000	0.657000	0.865300
C251	C25	0.079600	0.746000	0.628000
C261	C26	0.074600	0.625000	0.631200
C271	C27	0.134700	0.541900	0.579000
C281	C28	0.195000	0.587400	0.526400
C291	C29	0.194100	0.710500	0.526700
C301	C30	0.135100	0.409300	0.579800
C311	C31	0.169000	0.342200	0.522300
C321	C32	0.169800	0.219000	0.523400
C331	C33	0.111500	0.222500	0.633200
C341	C34	0.106800	0.346800	0.635800
C351	C35	0.917300	0.264500	0.873700
C361	C36	0.916100	0.374900	0.899800
C371	C37	0.880700	0.490700	0.861200
C381	C38	0.846600	0.495400	0.796200
C391	C39	0.845200	0.387200	0.769600
C401	C40	0.879700	0.272100	0.808600
C411	C41	0.959200	0.138400	0.915400
C421	C42	0.701900	0.667700	0.728200
C431	C43	0.700200	0.730400	0.665400
C441	C44	0.583900	0.794900	0.635400
C451	C45	0.468200	0.799800	0.668100
C461	C46	0.472700	0.737300	0.731100
C471	C47	0.590500	0.669700	0.761000
C481	C48	0.343000	0.871000	0.634700
C491	C49	0.746000	0.079600	0.128000
C501	C50	0.625000	0.074600	0.131200
C511	C51	0.541900	0.134700	0.079000
C521	C52	0.587400	0.195000	0.026400
C531	C53	0.710500	0.194100	0.026700
C541	C54	0.409300	0.135100	0.079800
C551	C55	0.342200	0.169000	0.022300
C561	C56	0.219000	0.169800	0.023400
C571	C57	0.222500	0.111500	0.133200
C581	C58	0.346800	0.106800	0.135800
C591	C59	0.264500	0.917300	0.373700
C601	C60	0.374900	0.916100	0.399800
C611	C61	0.490700	0.880700	0.361200
C621	C62	0.495400	0.846600	0.296200
C631	C63	0.387200	0.845200	0.269600
C641	C64	0.272100	0.879700	0.308600
C651	C65	0.138400	0.959200	0.415400
C661	C66	0.667700	0.701900	0.228200
C671	C67	0.730400	0.700200	0.165400
C681	C68	0.794900	0.583900	0.135400
C691	C69	0.799800	0.468200	0.168100
C701	C70	0.737300	0.472700	0.231100
C711	C71	0.669700	0.590500	0.261000
C721	C72	0.871000	0.343000	0.134700
C731	C73	0.920400	0.254000	0.372000
C741	C74	0.925400	0.375000	0.368800
C751	C75	0.865300	0.458100	0.421000
C761	C76	0.805000	0.412600	0.473600
C771	C77	0.805900	0.289500	0.473300
C781	C78	0.864900	0.590700	0.420200
C791	C79	0.831000	0.657800	0.477700
C801	C80	0.830200	0.781000	0.476600
C811	C81	0.888500	0.777500	0.366800
C821	C82	0.893200	0.653200	0.364200
C831	C83	0.082700	0.735500	0.126300
C841	C84	0.083900	0.625100	0.100200
C851	C85	0.119300	0.509300	0.138800
C861	C86	0.153400	0.504600	0.203800
C871	C87	0.154800	0.612800	0.230400
C881	C88	0.120300	0.727900	0.191400
C891	C89	0.040800	0.861600	0.084600
C901	C90	0.298100	0.332300	0.271800
C911	C91	0.299800	0.269600	0.334600
C921	C92	0.416100	0.205100	0.364600
C931	C93	0.531800	0.200200	0.331900
C941	C94	0.527300	0.262700	0.268900
C951	C95	0.409500	0.330300	0.239000
C961	C96	0.657000	0.129000	0.365300
N11	N1	0.210220	0.863020	0.923800
N21	N2	0.840560	0.859360	0.922300
N31	N3	0.136980	0.789780	0.576200
N41	N4	0.140640	0.159440	0.577700
N51	N5	0.789780	0.136980	0.076200
N61	N6	0.159440	0.140640	0.077700
N71	N7	0.863020	0.210220	0.423800
N81	N8	0.859360	0.840560	0.422300
O11	O1	0.112470	0.653270	0.929680
O21	O2	0.088560	0.762560	0.831510
O31	O3	0.390900	0.178100	0.743700
O41	O4	0.865070	0.998470	0.527750
O51	O5	0.955180	0.050180	0.610520
O61	O6	0.346730	0.887530	0.570320
O71	O7	0.237440	0.911440	0.668490
O81	O8	0.821900	0.609100	0.756300
O91	O9	0.001530	0.134930	0.972250
O101	O10	0.949820	0.044820	0.889480
O111	O11	0.887530	0.346730	0.070320
O121	O12	0.911440	0.237440	0.168490
O131	O13	0.609100	0.821900	0.256300
O141	O14	0.134930	0.001530	0.472250
O151	O15	0.044820	0.949820	0.389480
O161	O16	0.653270	0.112470	0.429680
O171	O17	0.762560	0.088560	0.331510
O181	O18	0.178100	0.390900	0.243700
O191	O19	0.998470	0.865070	0.027750
O201	O20	0.050180	0.955180	0.110520
