data_KAWBOB_clean_PM
_symmetry_space_group_name_H-M	'P1'
_cell_length_a	9.556500
_cell_length_b	12.470600
_cell_length_c	22.757100
_cell_angle_alpha	90.000000
_cell_angle_beta	101.594000
_cell_angle_gamma	90.000000
_symmetry_Int_Tables_number 1

loop_
_symmetry_equiv_pos_as_xyz
'x,y,z'

loop_
_atom_site_label
_atom_site_type_symbol
_atom_site_fract_x
_atom_site_fract_y
_atom_site_fract_z
Mn11	Mn1	0.942170	0.193490	0.309210
Mn21	Mn2	0.615080	0.356490	0.282710
Mn31	Mn3	0.217390	0.330130	0.273970
Mn41	Mn4	0.442170	0.806510	0.809210
Mn51	Mn5	0.115080	0.643510	0.782710
Mn61	Mn6	0.717390	0.669870	0.773970
H11	H1	0.416200	0.194200	0.259500
H21	H2	0.443100	0.219000	0.319400
H31	H3	0.149300	0.953200	0.138300
H41	H4	0.200900	0.881300	0.197000
H51	H5	0.977600	0.038200	0.186200
H61	H6	0.033700	0.968300	0.245000
H71	H7	0.745800	0.570800	0.186100
H81	H8	0.826500	0.637600	0.243000
H91	H9	0.044100	0.549800	0.236800
H101	H10	0.961800	0.481900	0.180600
H111	H11	0.722100	0.870000	0.001800
H121	H12	0.634000	0.764200	0.011400
H131	H13	0.890500	0.769800	0.965900
H141	H14	0.821700	0.660300	0.982900
H151	H15	0.647000	0.160100	0.495300
H161	H16	0.725800	0.050900	0.483700
H171	H17	0.839600	0.255200	0.459800
H181	H18	0.886700	0.141500	0.437800
H191	H19	0.039800	0.362300	0.686000
H201	H20	0.915900	0.405800	0.633600
H211	H21	0.865200	0.310000	0.739700
H221	H22	0.745600	0.362300	0.688100
H231	H23	0.196600	0.979100	0.608700
H241	H24	0.221500	0.026300	0.675500
H251	H25	0.034000	0.861500	0.625900
H261	H26	0.008600	0.924000	0.684000
H271	H27	0.916200	0.805800	0.759500
H281	H28	0.943100	0.781000	0.819400
H291	H29	0.649300	0.046800	0.638300
H301	H30	0.700900	0.118700	0.697000
H311	H31	0.477600	0.961800	0.686200
H321	H32	0.533700	0.031700	0.745000
H331	H33	0.245800	0.429200	0.686100
H341	H34	0.326500	0.362400	0.743000
H351	H35	0.544100	0.450200	0.736800
H361	H36	0.461800	0.518100	0.680600
H371	H37	0.222100	0.130000	0.501800
H381	H38	0.134000	0.235800	0.511400
H391	H39	0.390500	0.230200	0.465900
H401	H40	0.321700	0.339700	0.482900
H411	H41	0.147000	0.839900	0.995300
H421	H42	0.225800	0.949100	0.983700
H431	H43	0.339600	0.744800	0.959800
H441	H44	0.386700	0.858500	0.937800
H451	H45	0.539800	0.637700	0.186000
H461	H46	0.415900	0.594200	0.133600
H471	H47	0.365200	0.690000	0.239700
H481	H48	0.245600	0.637700	0.188100
H491	H49	0.696600	0.020900	0.108700
H501	H50	0.721500	0.973700	0.175500
H511	H51	0.534000	0.138500	0.125900
H521	H52	0.508600	0.076000	0.184000
C11	C1	0.977020	0.762300	0.188420
C21	C2	0.791540	0.694900	0.107540
C31	C3	0.927840	0.855200	0.092640
C41	C4	0.117600	0.918500	0.172500
C51	C5	0.063400	0.004100	0.210700
C61	C6	0.168200	0.089200	0.234100
C71	C7	0.838300	0.603700	0.205000
C81	C8	0.951200	0.517200	0.218400
C91	C9	0.909240	0.434000	0.261140
C101	C10	0.730970	0.793000	0.012470
C111	C11	0.799100	0.734000	0.967900
C121	C12	0.710710	0.727200	0.905310
C131	C13	0.826700	0.229500	0.586000
C141	C14	0.037910	0.171700	0.657610
C151	C15	0.945670	0.065300	0.567770
C161	C16	0.740770	0.127900	0.493570
C171	C17	0.803900	0.183700	0.444900
C181	C18	0.702610	0.196900	0.387810
C191	C19	0.939400	0.350600	0.665300
C201	C20	0.846900	0.367200	0.708900
C211	C21	0.873600	0.475900	0.739400
C221	C22	0.148300	0.998100	0.641900
C231	C23	0.082800	0.901100	0.661900
C241	C24	0.182400	0.824500	0.701300
C251	C25	0.477020	0.237700	0.688420
C261	C26	0.291540	0.305100	0.607540
C271	C27	0.427840	0.144800	0.592640
C281	C28	0.617600	0.081500	0.672500
C291	C29	0.563400	0.995900	0.710700
C301	C30	0.668200	0.910800	0.734100
C311	C31	0.338300	0.396300	0.705000
C321	C32	0.451200	0.482800	0.718400
C331	C33	0.409240	0.566000	0.761140
C341	C34	0.230970	0.207000	0.512470
C351	C35	0.299100	0.266000	0.467900
C361	C36	0.210710	0.272800	0.405310
C371	C37	0.326700	0.770500	0.086000
C381	C38	0.537910	0.828300	0.157610
C391	C39	0.445670	0.934700	0.067770
C401	C40	0.240770	0.872100	0.993570
C411	C41	0.303900	0.816300	0.944900
C421	C42	0.202610	0.803100	0.887810
C431	C43	0.439400	0.649400	0.165300
C441	C44	0.346900	0.632800	0.208900
C451	C45	0.373600	0.524100	0.239400
C461	C46	0.648300	0.001900	0.141900
C471	C47	0.582800	0.098900	0.161900
C481	C48	0.682400	0.175500	0.201300
N11	N1	0.005530	0.840300	0.150030
N21	N2	0.876590	0.686300	0.164690
N31	N3	0.818700	0.780700	0.073800
N41	N4	0.838950	0.139400	0.552950
N51	N5	0.928790	0.244200	0.636590
N61	N6	0.040430	0.082000	0.621430
N71	N7	0.505530	0.159700	0.650030
N81	N8	0.376590	0.313700	0.664690
N91	N9	0.318700	0.219300	0.573800
N101	N10	0.338950	0.860600	0.052950
N111	N11	0.428790	0.755800	0.136590
N121	N12	0.540430	0.918000	0.121430
O11	O1	0.038250	0.757600	0.240250
O21	O2	0.697700	0.631900	0.088600
O31	O3	0.950540	0.928600	0.060440
O41	O4	0.128370	0.161400	0.267370
O51	O5	0.289780	0.086400	0.221480
O61	O6	0.799580	0.448500	0.280980
O71	O7	0.990130	0.352200	0.273230
O81	O8	0.761180	0.671500	0.868880
O91	O9	0.592330	0.777400	0.893430
O101	O10	0.731520	0.294100	0.569720
O111	O11	0.123620	0.186400	0.701320
O121	O12	0.960680	0.989200	0.535580
O131	O13	0.749410	0.236100	0.343210
O141	O14	0.574080	0.171800	0.385380
O151	O15	0.982560	0.526900	0.731860
O161	O16	0.784520	0.509000	0.769920
O171	O17	0.297970	0.862800	0.730170
O181	O18	0.139740	0.730800	0.705440
O191	O19	0.427390	0.245800	0.284390
O201	O20	0.538250	0.242400	0.740250
O211	O21	0.197700	0.368100	0.588600
O221	O22	0.450540	0.071400	0.560440
O231	O23	0.628370	0.838600	0.767370
O241	O24	0.789780	0.913600	0.721480
O251	O25	0.299580	0.551500	0.780980
O261	O26	0.490130	0.647800	0.773230
O271	O27	0.261180	0.328500	0.368880
O281	O28	0.092330	0.222600	0.393430
O291	O29	0.231520	0.705900	0.069720
O301	O30	0.623620	0.813600	0.201320
O311	O31	0.460680	0.010800	0.035580
O321	O32	0.249410	0.763900	0.843210
O331	O33	0.074080	0.828200	0.885380
O341	O34	0.482560	0.473100	0.231860
O351	O35	0.284520	0.491000	0.269920
O361	O36	0.797970	0.137200	0.230170
O371	O37	0.639740	0.269200	0.205440
O381	O38	0.927390	0.754200	0.784390
