data_KAXFUM_clean_PM
_symmetry_space_group_name_H-M	'P1'
_cell_length_a	9.526100
_cell_length_b	15.770000
_cell_length_c	4.312800
_cell_angle_alpha	90.000000
_cell_angle_beta	97.767000
_cell_angle_gamma	90.000000
_symmetry_Int_Tables_number 1

loop_
_symmetry_equiv_pos_as_xyz
'x,y,z'

loop_
_atom_site_label
_atom_site_type_symbol
_atom_site_fract_x
_atom_site_fract_y
_atom_site_fract_z
O11	O1	0.407400	0.600000	0.967100
O21	O2	0.160500	0.844700	0.548500
H11	H1	0.746000	0.544000	0.062000
N11	N1	0.472200	0.733700	0.117100
H21	H2	0.536000	0.715000	0.261000
N21	N2	0.355800	0.855600	0.908600
C11	C1	0.382800	0.678800	0.934600
C21	C2	0.274000	0.717300	0.735400
H31	H3	0.209900	0.683500	0.608900
C31	C3	0.258500	0.805800	0.720700
C41	C4	0.454700	0.817500	0.094500
H41	H4	0.518300	0.851400	0.222100
O31	O3	0.907400	0.100000	0.967100
O41	O4	0.660500	0.344700	0.548500
H51	H5	0.246000	0.044000	0.062000
N31	N3	0.972200	0.233700	0.117100
H61	H6	0.036000	0.215000	0.261000
N41	N4	0.855800	0.355600	0.908600
C51	C5	0.882800	0.178800	0.934600
C61	C6	0.774000	0.217300	0.735400
H71	H7	0.709900	0.183500	0.608900
C71	C7	0.758500	0.305800	0.720700
C81	C8	0.954700	0.317500	0.094500
H81	H8	0.018300	0.351400	0.222100
O51	O5	0.407400	0.400000	0.967100
O61	O6	0.160500	0.155300	0.548500
H91	H9	0.746000	0.456000	0.062000
N51	N5	0.472200	0.266300	0.117100
H101	H10	0.536000	0.285000	0.261000
N61	N6	0.355800	0.144400	0.908600
C91	C9	0.382800	0.321200	0.934600
C101	C10	0.274000	0.282700	0.735400
H111	H11	0.209900	0.316500	0.608900
C111	C11	0.258500	0.194200	0.720700
C121	C12	0.454700	0.182500	0.094500
H121	H12	0.518300	0.148600	0.222100
O71	O7	0.907400	0.900000	0.967100
O81	O8	0.660500	0.655300	0.548500
H131	H13	0.246000	0.956000	0.062000
N71	N7	0.972200	0.766300	0.117100
H141	H14	0.036000	0.785000	0.261000
N81	N8	0.855800	0.644400	0.908600
C131	C13	0.882800	0.821200	0.934600
C141	C14	0.774000	0.782700	0.735400
H151	H15	0.709900	0.816500	0.608900
C151	C15	0.758500	0.694200	0.720700
C161	C16	0.954700	0.682500	0.094500
H161	H16	0.018300	0.648600	0.222100
Ba11	Ba1	0.500000	0.500000	0.500000
O91	O9	0.694500	0.500000	0.070300
Ba21	Ba2	0.000000	0.000000	0.500000
O101	O10	0.194500	0.000000	0.070300
