data_KAXZUG_clean_PM
_symmetry_space_group_name_H-M	'P1'
_cell_length_a	9.639800
_cell_length_b	13.065000
_cell_length_c	21.054000
_cell_angle_alpha	102.460000
_cell_angle_beta	102.390000
_cell_angle_gamma	99.520000
_symmetry_Int_Tables_number 1

loop_
_symmetry_equiv_pos_as_xyz
'x,y,z'

loop_
_atom_site_label
_atom_site_type_symbol
_atom_site_fract_x
_atom_site_fract_y
_atom_site_fract_z
Cd11	Cd1	0.080260	0.830520	0.104200
Cd21	Cd2	0.832870	0.107450	0.544360
Cd31	Cd3	0.919740	0.169480	0.895800
Cd41	Cd4	0.167130	0.892550	0.455640
H11	H1	0.542600	0.734800	0.171200
H21	H2	0.753700	0.725900	0.244100
H31	H3	0.466700	0.952000	0.318000
H41	H4	0.766300	0.646900	0.107200
H51	H5	0.161200	0.619800	0.172000
H61	H6	0.059100	0.402500	0.178600
H71	H7	0.092300	0.484500	0.249100
H81	H8	0.998300	0.562300	0.310200
H91	H9	0.853400	0.569600	0.331600
H101	H10	0.972200	0.523700	0.373100
H111	H11	0.929000	0.205200	0.115000
H121	H12	0.768100	0.205200	0.080300
H131	H13	0.890100	0.310300	0.099100
H141	H14	0.553100	0.204600	0.318600
H151	H15	0.507500	0.126100	0.246200
H161	H16	0.638900	0.115000	0.300900
H171	H17	0.606400	0.359400	0.359600
H181	H18	0.732600	0.462400	0.380500
H191	H19	0.637300	0.248800	0.447200
H201	H20	0.055700	0.319100	0.512700
H211	H21	0.642100	0.096300	0.109900
H221	H22	0.582100	0.063400	0.167900
H231	H23	0.806100	0.971500	0.073900
H241	H24	0.973500	0.922400	0.245600
H251	H25	0.914100	0.582200	0.985300
H261	H26	0.845000	0.858700	0.967100
H271	H27	0.547800	0.694400	0.855300
H281	H28	0.650200	0.800400	0.854500
H291	H29	0.511200	0.432300	0.781000
H301	H30	0.510700	0.539700	0.831400
H311	H31	0.387500	0.494000	0.764000
H321	H32	0.776900	0.889400	0.764300
H331	H33	0.833800	0.857300	0.831100
H341	H34	0.924000	0.851400	0.777200
H351	H35	0.764600	0.493900	0.582100
H361	H36	0.593900	0.465200	0.559500
H371	H37	0.680100	0.575700	0.555900
H381	H38	0.445300	0.401400	0.604200
H391	H39	0.429900	0.382200	0.673700
H401	H40	0.523300	0.228500	0.551800
H411	H41	0.844500	0.235800	0.698900
H421	H42	0.882700	0.681700	0.620200
H431	H43	0.950400	0.769700	0.688500
H441	H44	0.980300	0.919000	0.620500
H451	H45	0.569500	0.911700	0.558600
H461	H46	0.457400	0.265200	0.828800
H471	H47	0.246300	0.274100	0.755900
H481	H48	0.533300	0.048000	0.682000
H491	H49	0.233700	0.353100	0.892800
H501	H50	0.838800	0.380200	0.828000
H511	H51	0.940900	0.597500	0.821400
H521	H52	0.907700	0.515500	0.750900
H531	H53	0.001700	0.437700	0.689800
H541	H54	0.146600	0.430400	0.668400
H551	H55	0.027800	0.476300	0.626900
H561	H56	0.071000	0.794800	0.885000
H571	H57	0.231900	0.794800	0.919700
H581	H58	0.109900	0.689700	0.900900
H591	H59	0.446900	0.795400	0.681400
H601	H60	0.492500	0.873900	0.753800
H611	H61	0.361100	0.885000	0.699100
H621	H62	0.393600	0.640600	0.640400
H631	H63	0.267400	0.537600	0.619500
H641	H64	0.362700	0.751200	0.552800
H651	H65	0.944300	0.680900	0.487300
H661	H66	0.357900	0.903700	0.890100
H671	H67	0.417900	0.936600	0.832100
H681	H68	0.193900	0.028500	0.926100
H691	H69	0.026500	0.077600	0.754400
H701	H70	0.085900	0.417800	0.014700
H711	H71	0.155000	0.141300	0.032900
H721	H72	0.452200	0.305600	0.144700
H731	H73	0.349800	0.199600	0.145500
H741	H74	0.488800	0.567700	0.219000
H751	H75	0.489300	0.460300	0.168600
H761	H76	0.612500	0.506000	0.236000
H771	H77	0.223100	0.110600	0.235700
H781	H78	0.166200	0.142700	0.168900
H791	H79	0.076000	0.148600	0.222800
H801	H80	0.235400	0.506100	0.417900
H811	H81	0.406100	0.534800	0.440500
H821	H82	0.319900	0.424300	0.444100
H831	H83	0.554700	0.598600	0.395800
H841	H84	0.570100	0.617800	0.326300
H851	H85	0.476700	0.771500	0.448200
H861	H86	0.155500	0.764200	0.301100
H871	H87	0.117300	0.318300	0.379800
H881	H88	0.049600	0.230300	0.311500
H891	H89	0.019700	0.081000	0.379500
H901	H90	0.430500	0.088300	0.441400
C11	C1	0.338500	0.840400	0.191700
C21	C2	0.481600	0.842400	0.237600
C31	C3	0.569200	0.776200	0.215600
C41	C4	0.695900	0.771200	0.259100
C51	C5	0.737400	0.833600	0.325360
C61	C6	0.654400	0.905800	0.347140
C71	C7	0.525200	0.907100	0.303250
C81	C8	0.867700	0.819600	0.373400
C91	C9	0.707800	0.982000	0.416150
C101	C10	0.845900	0.622500	0.127000
C111	C11	0.060300	0.609300	0.162100
C121	C12	0.017100	0.449100	0.207800
C131	C13	0.894400	0.380700	0.224400
C141	C14	0.856300	0.416500	0.284200
C151	C15	0.752700	0.346800	0.302400
C161	C16	0.691300	0.241800	0.261400
C171	C17	0.728100	0.208800	0.200600
C181	C18	0.826500	0.279600	0.180900
C191	C19	0.926400	0.528200	0.328800
C201	C20	0.856100	0.247100	0.112600
C211	C21	0.588200	0.164800	0.283800
C221	C22	0.710500	0.384500	0.367100
C231	C23	0.735700	0.278000	0.453900
C241	C24	0.962000	0.317500	0.488700
C251	C25	0.669100	0.094900	0.156800
C261	C26	0.829600	0.973200	0.119300
C271	C27	0.919000	0.948000	0.212900
C281	C28	0.877000	0.634700	0.968000
C291	C29	0.841600	0.785400	0.959400
C301	C30	0.643000	0.724200	0.850600
C311	C31	0.656000	0.670600	0.781860
C321	C32	0.579000	0.564500	0.750000
C331	C33	0.586900	0.516700	0.684600
C341	C34	0.674200	0.572800	0.652300
C351	C35	0.755800	0.676700	0.686300
C361	C36	0.745700	0.726400	0.750100
C371	C37	0.489000	0.502000	0.784800
C381	C38	0.827600	0.841700	0.783800
C391	C39	0.678600	0.522300	0.580900
C401	C40	0.499400	0.403100	0.649100
C411	C41	0.590900	0.246800	0.593500
C421	C42	0.763300	0.252100	0.673800
C431	C43	0.860300	0.734400	0.654400
C441	C44	0.879300	0.899400	0.610600
C451	C45	0.655600	0.893500	0.577100
C461	C46	0.661500	0.159600	0.808300
C471	C47	0.518400	0.157600	0.762400
C481	C48	0.430800	0.223800	0.784400
C491	C49	0.304100	0.228800	0.740900
C501	C50	0.262600	0.166400	0.674640
C511	C51	0.345600	0.094200	0.652860
C521	C52	0.474800	0.092900	0.696750
C531	C53	0.132300	0.180400	0.626600
C541	C54	0.292200	0.018000	0.583850
C551	C55	0.154100	0.377500	0.873000
C561	C56	0.939700	0.390700	0.837900
C571	C57	0.982900	0.550900	0.792200
C581	C58	0.105600	0.619300	0.775600
C591	C59	0.143700	0.583500	0.715800
C601	C60	0.247300	0.653200	0.697600
C611	C61	0.308700	0.758200	0.738600
C621	C62	0.271900	0.791200	0.799400
C631	C63	0.173500	0.720400	0.819100
C641	C64	0.073600	0.471800	0.671200
C651	C65	0.143900	0.752900	0.887400
C661	C66	0.411800	0.835200	0.716200
C671	C67	0.289500	0.615500	0.632900
C681	C68	0.264300	0.722000	0.546100
C691	C69	0.038000	0.682500	0.511300
C701	C70	0.330900	0.905100	0.843200
C711	C71	0.170400	0.026800	0.880700
C721	C72	0.081000	0.052000	0.787100
C731	C73	0.123000	0.365300	0.032000
C741	C74	0.158400	0.214600	0.040600
C751	C75	0.357000	0.275800	0.149400
C761	C76	0.344000	0.329400	0.218140
C771	C77	0.421000	0.435500	0.250000
C781	C78	0.413100	0.483300	0.315400
C791	C79	0.325800	0.427200	0.347700
C801	C80	0.244200	0.323300	0.313700
C811	C81	0.254300	0.273600	0.249900
C821	C82	0.511000	0.498000	0.215200
C831	C83	0.172400	0.158300	0.216200
C841	C84	0.321400	0.477700	0.419100
C851	C85	0.500600	0.596900	0.350900
C861	C86	0.409100	0.753200	0.406500
C871	C87	0.236700	0.747900	0.326200
C881	C88	0.139700	0.265600	0.345600
C891	C89	0.120700	0.100600	0.389400
C901	C90	0.344400	0.106500	0.422900
N11	N1	0.984000	0.670200	0.133350
N21	N2	0.972800	0.531800	0.174570
N31	N3	0.833600	0.537100	0.151400
N41	N4	0.787600	0.345000	0.421440
N51	N5	0.935700	0.372900	0.444000
N61	N6	0.841900	0.258200	0.497010
N71	N7	0.775700	0.028300	0.165660
N81	N8	0.832500	0.013900	0.226800
N91	N9	0.922100	0.921000	0.147910
N101	N10	0.921100	0.740800	0.999970
N111	N11	0.755900	0.710600	0.905900
N121	N12	0.777600	0.612000	0.910400
N131	N13	0.593700	0.326500	0.644210
N141	N14	0.705100	0.330700	0.697960
N151	N15	0.695300	0.196000	0.608740
N161	N16	0.803400	0.814500	0.623580
N171	N17	0.658500	0.808400	0.601300
N181	N18	0.787800	0.951400	0.581350
N191	N19	0.016000	0.329800	0.866650
N201	N20	0.027200	0.468200	0.825430
N211	N21	0.166400	0.462900	0.848600
N221	N22	0.212400	0.655000	0.578560
N231	N23	0.064300	0.627100	0.556000
N241	N24	0.158100	0.741800	0.502990
N251	N25	0.224300	0.971700	0.834340
N261	N26	0.167500	0.986100	0.773200
N271	N27	0.077900	0.079000	0.852090
N281	N28	0.078900	0.259200	0.000030
N291	N29	0.244100	0.289400	0.094100
N301	N30	0.222400	0.388000	0.089600
N311	N31	0.406300	0.673500	0.355790
N321	N32	0.294900	0.669300	0.302040
N331	N33	0.304700	0.804000	0.391260
N341	N34	0.196600	0.185500	0.376420
N351	N35	0.341500	0.191600	0.398700
N361	N36	0.212200	0.048600	0.418650
Cl11	Cl1	0.203250	0.966750	0.052100
Cl21	Cl2	0.796750	0.033250	0.947900
O11	O1	0.301300	0.777300	0.132500
O21	O2	0.256700	0.897200	0.212140
O31	O3	0.619600	0.011400	0.447390
O41	O4	0.844000	0.015000	0.440160
O51	O5	0.845100	0.780500	0.419900
O61	O6	0.987700	0.842800	0.360800
O71	O7	0.698700	0.222700	0.867500
O81	O8	0.743300	0.102800	0.787860
O91	O9	0.380400	0.988600	0.552610
O101	O10	0.156000	0.985000	0.559840
O111	O11	0.154900	0.219500	0.580100
O121	O12	0.012300	0.157200	0.639200
