data_KAYBUJ_clean_PM
_symmetry_space_group_name_H-M	'P1'
_cell_length_a	6.427500
_cell_length_b	10.976400
_cell_length_c	16.387000
_cell_angle_alpha	90.000000
_cell_angle_beta	90.000000
_cell_angle_gamma	99.182000
_symmetry_Int_Tables_number 1

loop_
_symmetry_equiv_pos_as_xyz
'x,y,z'

loop_
_atom_site_label
_atom_site_type_symbol
_atom_site_fract_x
_atom_site_fract_y
_atom_site_fract_z
Ca11	Ca1	0.782210	0.580600	0.957850
Ca21	Ca2	0.717790	0.919400	0.457850
Ca31	Ca3	0.217790	0.419400	0.042150
Ca41	Ca4	0.282210	0.080600	0.542150
H11	H1	0.222300	0.755600	0.762100
H21	H2	0.804100	0.863400	0.675400
H31	H3	0.927500	0.768000	0.785200
H41	H4	0.277700	0.744400	0.262100
H51	H5	0.695900	0.636600	0.175400
H61	H6	0.572500	0.732000	0.285200
H71	H7	0.777700	0.244400	0.237900
H81	H8	0.195900	0.136600	0.324600
H91	H9	0.072500	0.232000	0.214800
H101	H10	0.722300	0.255600	0.737900
H111	H11	0.304100	0.363400	0.824600
H121	H12	0.427500	0.268000	0.714800
C11	C1	0.451500	0.700000	0.829040
C21	C2	0.398000	0.884800	0.638070
C31	C3	0.367400	0.757900	0.765170
C41	C4	0.710800	0.822700	0.713620
C51	C5	0.496000	0.819300	0.705710
C61	C6	0.310100	0.635600	0.895710
C71	C7	0.782600	0.764000	0.779790
C81	C8	0.048500	0.800000	0.329040
C91	C9	0.102000	0.615200	0.138070
C101	C10	0.132600	0.742100	0.265170
C111	C11	0.789200	0.677300	0.213620
C121	C12	0.004000	0.680700	0.205710
C131	C13	0.189900	0.864400	0.395710
C141	C14	0.717400	0.736000	0.279790
C151	C15	0.548500	0.300000	0.170960
C161	C16	0.602000	0.115200	0.361930
C171	C17	0.632600	0.242100	0.234830
C181	C18	0.289200	0.177300	0.286380
C191	C19	0.504000	0.180700	0.294290
C201	C20	0.689900	0.364400	0.104290
C211	C21	0.217400	0.236000	0.220210
C221	C22	0.951500	0.200000	0.670960
C231	C23	0.898000	0.384800	0.861930
C241	C24	0.867400	0.257900	0.734830
C251	C25	0.210800	0.322700	0.786380
C261	C26	0.996000	0.319300	0.794290
C271	C27	0.810100	0.135600	0.604290
C281	C28	0.282600	0.264000	0.720210
N11	N1	0.659600	0.701300	0.837100
N21	N2	0.840400	0.798700	0.337100
N31	N3	0.340400	0.298700	0.162900
N41	N4	0.159600	0.201300	0.662900
O11	O1	0.394700	0.571670	0.946340
O21	O2	0.490500	0.899320	0.570630
O31	O3	0.230800	0.924080	0.653170
O41	O4	0.123900	0.654040	0.894960
O51	O5	0.105300	0.928330	0.446340
O61	O6	0.009500	0.600680	0.070630
O71	O7	0.269200	0.575920	0.153170
O81	O8	0.376100	0.845960	0.394960
O91	O9	0.605300	0.428330	0.053660
O101	O10	0.509500	0.100680	0.429370
O111	O11	0.769200	0.075920	0.346830
O121	O12	0.876100	0.345960	0.105040
O131	O13	0.894700	0.071670	0.553660
O141	O14	0.990500	0.399320	0.929370
O151	O15	0.730800	0.424080	0.846830
O161	O16	0.623900	0.154040	0.605040
