data_KAYBIX_clean_PM
_symmetry_space_group_name_H-M	'P1'
_cell_length_a	6.446300
_cell_length_b	10.972800
_cell_length_c	16.099600
_cell_angle_alpha	90.000000
_cell_angle_beta	99.775000
_cell_angle_gamma	90.000000
_symmetry_Int_Tables_number 1

loop_
_symmetry_equiv_pos_as_xyz
'x,y,z'

loop_
_atom_site_label
_atom_site_type_symbol
_atom_site_fract_x
_atom_site_fract_y
_atom_site_fract_z
Ca11	Ca1	0.242970	0.928480	0.952230
Ca21	Ca2	0.257030	0.428480	0.547770
Ca31	Ca3	0.757030	0.071520	0.047770
Ca41	Ca4	0.742970	0.571520	0.452230
H11	H1	0.566900	0.717600	0.765300
H21	H2	0.265400	0.772600	0.766200
H31	H3	0.719900	0.624300	0.662400
H41	H4	0.933100	0.217600	0.734700
H51	H5	0.234600	0.272600	0.733800
H61	H6	0.780100	0.124300	0.837600
H71	H7	0.433100	0.282400	0.234700
H81	H8	0.734600	0.227400	0.233800
H91	H9	0.280100	0.375700	0.337600
H101	H10	0.066900	0.782400	0.265300
H111	H11	0.765400	0.727400	0.266200
H121	H12	0.219900	0.875700	0.162400
C11	C1	0.011900	0.689700	0.702600
C21	C2	0.828600	0.803000	0.823000
C31	C3	0.709200	0.729200	0.763900
C41	C4	0.121700	0.762400	0.765000
C51	C5	0.800100	0.673000	0.702900
C61	C6	0.121400	0.624600	0.639300
C71	C7	0.730700	0.867300	0.890300
C81	C8	0.488100	0.189700	0.797400
C91	C9	0.671400	0.303000	0.677000
C101	C10	0.790800	0.229200	0.736100
C111	C11	0.378300	0.262400	0.735000
C121	C12	0.699900	0.173000	0.797100
C131	C13	0.378600	0.124600	0.860700
C141	C14	0.769300	0.367300	0.609700
C151	C15	0.988100	0.310300	0.297400
C161	C16	0.171400	0.197000	0.177000
C171	C17	0.290800	0.270800	0.236100
C181	C18	0.878300	0.237600	0.235000
C191	C19	0.199900	0.327000	0.297100
C201	C20	0.878600	0.375400	0.360700
C211	C21	0.269300	0.132700	0.109700
C221	C22	0.511900	0.810300	0.202600
C231	C23	0.328600	0.697000	0.323000
C241	C24	0.209200	0.770800	0.263900
C251	C25	0.621700	0.737600	0.265000
C261	C26	0.300100	0.827000	0.202900
C271	C27	0.621400	0.875400	0.139300
C281	C28	0.230700	0.632700	0.390300
N11	N1	0.033700	0.819100	0.824100
N21	N2	0.466300	0.319100	0.675900
N31	N3	0.966300	0.180900	0.175900
N41	N4	0.533700	0.680900	0.324100
O11	O1	0.854000	0.931000	0.942630
O21	O2	0.538600	0.852000	0.887990
O31	O3	0.308200	0.594700	0.660760
O41	O4	0.016000	0.600500	0.568630
O51	O5	0.646000	0.431000	0.557370
O61	O6	0.961400	0.352000	0.612010
O71	O7	0.191800	0.094700	0.839240
O81	O8	0.484000	0.100500	0.931370
O91	O9	0.146000	0.069000	0.057370
O101	O10	0.461400	0.148000	0.112010
O111	O11	0.691800	0.405300	0.339240
O121	O12	0.984000	0.399500	0.431370
O131	O13	0.354000	0.569000	0.442630
O141	O14	0.038600	0.648000	0.387990
O151	O15	0.808200	0.905300	0.160760
O161	O16	0.516000	0.899500	0.068630
