data_KEDJAG02_clean_PM
_symmetry_space_group_name_H-M	'P1'
_cell_length_a	8.740700
_cell_length_b	33.988600
_cell_length_c	8.677100
_cell_angle_alpha	90.000000
_cell_angle_beta	107.725000
_cell_angle_gamma	90.000000
_symmetry_Int_Tables_number 1

loop_
_symmetry_equiv_pos_as_xyz
'x,y,z'

loop_
_atom_site_label
_atom_site_type_symbol
_atom_site_fract_x
_atom_site_fract_y
_atom_site_fract_z
Cu11	Cu1	0.750560	0.203580	0.485050
Cu21	Cu2	0.739790	0.045730	0.499240
O11	O1	0.894750	0.154210	0.613920
O21	O2	0.852750	0.090160	0.628740
O31	O3	0.622000	0.159990	0.362810
O41	O4	0.613340	0.094810	0.344480
O51	O5	0.624510	0.206610	0.647670
O61	O6	0.593800	0.248850	0.831300
O71	O7	0.877090	0.246040	0.621520
O81	O8	0.863100	0.287590	0.815010
O91	O9	0.908270	0.040460	0.382430
O101	O10	0.090400	0.999000	0.346300
O111	O11	0.571270	0.041650	0.616100
O121	O12	0.380000	0.999290	0.627640
C11	C1	0.819600	0.123450	0.564700
C21	C2	0.671300	0.125950	0.409800
C31	C3	0.814600	0.258820	0.724600
C41	C4	0.664400	0.236590	0.737900
C51	C5	0.000800	0.011010	0.421700
C61	C6	0.485700	0.011860	0.570600
Cu31	Cu3	0.249440	0.703580	0.014950
Cu41	Cu4	0.260210	0.545730	0.000760
O131	O13	0.105250	0.654210	0.886080
O141	O14	0.147250	0.590160	0.871260
O151	O15	0.378000	0.659990	0.137190
O161	O16	0.386660	0.594810	0.155520
O171	O17	0.375490	0.706610	0.852330
O181	O18	0.406200	0.748850	0.668700
O191	O19	0.122910	0.746040	0.878480
O201	O20	0.136900	0.787590	0.684990
O211	O21	0.091730	0.540460	0.117570
O221	O22	0.909600	0.499000	0.153700
O231	O23	0.428730	0.541650	0.883900
O241	O24	0.620000	0.499290	0.872360
C71	C7	0.180400	0.623450	0.935300
C81	C8	0.328700	0.625950	0.090200
C91	C9	0.185400	0.758820	0.775400
C101	C10	0.335600	0.736590	0.762100
C111	C11	0.999200	0.511010	0.078300
C121	C12	0.514300	0.511860	0.929400
Cu51	Cu5	0.249440	0.796420	0.514950
Cu61	Cu6	0.260210	0.954270	0.500760
O251	O25	0.105250	0.845790	0.386080
O261	O26	0.147250	0.909840	0.371260
O271	O27	0.378000	0.840010	0.637190
O281	O28	0.386660	0.905190	0.655520
O291	O29	0.375490	0.793390	0.352330
O301	O30	0.406200	0.751150	0.168700
O311	O31	0.122910	0.753960	0.378480
O321	O32	0.136900	0.712410	0.184990
O331	O33	0.091730	0.959540	0.617570
O341	O34	0.909600	0.001000	0.653700
O351	O35	0.428730	0.958350	0.383900
O361	O36	0.620000	0.000710	0.372360
C131	C13	0.180400	0.876550	0.435300
C141	C14	0.328700	0.874050	0.590200
C151	C15	0.185400	0.741180	0.275400
C161	C16	0.335600	0.763410	0.262100
C171	C17	0.999200	0.988990	0.578300
C181	C18	0.514300	0.988140	0.429400
Cu71	Cu7	0.750560	0.296420	0.985050
Cu81	Cu8	0.739790	0.454270	0.999240
O371	O37	0.894750	0.345790	0.113920
O381	O38	0.852750	0.409840	0.128740
O391	O39	0.622000	0.340010	0.862810
O401	O40	0.613340	0.405190	0.844480
O411	O41	0.624510	0.293390	0.147670
O421	O42	0.593800	0.251150	0.331300
O431	O43	0.877090	0.253960	0.121520
O441	O44	0.863100	0.212410	0.315010
O451	O45	0.908270	0.459540	0.882430
O461	O46	0.090400	0.501000	0.846300
O471	O47	0.571270	0.458350	0.116100
O481	O48	0.380000	0.500710	0.127640
C191	C19	0.819600	0.376550	0.064700
C201	C20	0.671300	0.374050	0.909800
C211	C21	0.814600	0.241180	0.224600
C221	C22	0.664400	0.263410	0.237900
C231	C23	0.000800	0.488990	0.921700
C241	C24	0.485700	0.488140	0.070600
