data_KEDJAG12_clean_PM
_symmetry_space_group_name_H-M	'P1'
_cell_length_a	8.725900
_cell_length_b	34.044100
_cell_length_c	8.652700
_cell_angle_alpha	90.000000
_cell_angle_beta	107.669000
_cell_angle_gamma	90.000000
_symmetry_Int_Tables_number 1

loop_
_symmetry_equiv_pos_as_xyz
'x,y,z'

loop_
_atom_site_label
_atom_site_type_symbol
_atom_site_fract_x
_atom_site_fract_y
_atom_site_fract_z
Cu11	Cu1	0.749990	0.203530	0.483760
Cu21	Cu2	0.739040	0.045660	0.498840
O11	O1	0.895310	0.153950	0.612840
O21	O2	0.851090	0.090060	0.628510
O31	O3	0.621850	0.160060	0.361600
O41	O4	0.612780	0.094990	0.342070
O51	O5	0.624370	0.206270	0.645710
O61	O6	0.591170	0.248550	0.828880
O71	O7	0.876050	0.246070	0.619350
O81	O8	0.861440	0.287530	0.813380
O91	O9	0.907310	0.040590	0.383390
O101	O10	0.089550	0.999480	0.344960
O111	O11	0.570630	0.041840	0.614840
O121	O12	0.379520	0.999580	0.627730
C11	C1	0.819300	0.123360	0.563900
C21	C2	0.670600	0.125960	0.408200
C31	C3	0.813300	0.258710	0.722900
C41	C4	0.663000	0.236400	0.736100
C51	C5	0.000600	0.011160	0.421400
C61	C6	0.485400	0.011990	0.570000
Cu31	Cu3	0.250010	0.703530	0.016240
Cu41	Cu4	0.260960	0.545660	0.001160
O131	O13	0.104690	0.653950	0.887160
O141	O14	0.148910	0.590060	0.871490
O151	O15	0.378150	0.660060	0.138400
O161	O16	0.387220	0.594990	0.157930
O171	O17	0.375630	0.706270	0.854290
O181	O18	0.408830	0.748550	0.671120
O191	O19	0.123950	0.746070	0.880650
O201	O20	0.138560	0.787530	0.686620
O211	O21	0.092690	0.540590	0.116610
O221	O22	0.910450	0.499480	0.155040
O231	O23	0.429370	0.541840	0.885160
O241	O24	0.620480	0.499580	0.872270
C71	C7	0.180700	0.623360	0.936100
C81	C8	0.329400	0.625960	0.091800
C91	C9	0.186700	0.758710	0.777100
C101	C10	0.337000	0.736400	0.763900
C111	C11	0.999400	0.511160	0.078600
C121	C12	0.514600	0.511990	0.930000
Cu51	Cu5	0.250010	0.796470	0.516240
Cu61	Cu6	0.260960	0.954340	0.501160
O251	O25	0.104690	0.846050	0.387160
O261	O26	0.148910	0.909940	0.371490
O271	O27	0.378150	0.839940	0.638400
O281	O28	0.387220	0.905010	0.657930
O291	O29	0.375630	0.793730	0.354290
O301	O30	0.408830	0.751450	0.171120
O311	O31	0.123950	0.753930	0.380650
O321	O32	0.138560	0.712470	0.186620
O331	O33	0.092690	0.959410	0.616610
O341	O34	0.910450	0.000520	0.655040
O351	O35	0.429370	0.958160	0.385160
O361	O36	0.620480	0.000420	0.372270
C131	C13	0.180700	0.876640	0.436100
C141	C14	0.329400	0.874040	0.591800
C151	C15	0.186700	0.741290	0.277100
C161	C16	0.337000	0.763600	0.263900
C171	C17	0.999400	0.988840	0.578600
C181	C18	0.514600	0.988010	0.430000
Cu71	Cu7	0.749990	0.296470	0.983760
Cu81	Cu8	0.739040	0.454340	0.998840
O371	O37	0.895310	0.346050	0.112840
O381	O38	0.851090	0.409940	0.128510
O391	O39	0.621850	0.339940	0.861600
O401	O40	0.612780	0.405010	0.842070
O411	O41	0.624370	0.293730	0.145710
O421	O42	0.591170	0.251450	0.328880
O431	O43	0.876050	0.253930	0.119350
O441	O44	0.861440	0.212470	0.313380
O451	O45	0.907310	0.459410	0.883390
O461	O46	0.089550	0.500520	0.844960
O471	O47	0.570630	0.458160	0.114840
O481	O48	0.379520	0.500420	0.127730
C191	C19	0.819300	0.376640	0.063900
C201	C20	0.670600	0.374040	0.908200
C211	C21	0.813300	0.241290	0.222900
C221	C22	0.663000	0.263600	0.236100
C231	C23	0.000600	0.488840	0.921400
C241	C24	0.485400	0.488010	0.070000
