data_KEDJAG04_clean_PM
_symmetry_space_group_name_H-M	'P1'
_cell_length_a	8.681700
_cell_length_b	34.180200
_cell_length_c	8.582200
_cell_angle_alpha	90.000000
_cell_angle_beta	107.600000
_cell_angle_gamma	90.000000
_symmetry_Int_Tables_number 1

loop_
_symmetry_equiv_pos_as_xyz
'x,y,z'

loop_
_atom_site_label
_atom_site_type_symbol
_atom_site_fract_x
_atom_site_fract_y
_atom_site_fract_z
Cu11	Cu1	0.748340	0.203400	0.476830
Cu21	Cu2	0.737520	0.045540	0.498200
O11	O1	0.896410	0.153470	0.608610
O21	O2	0.847180	0.090080	0.628510
O31	O3	0.620840	0.159970	0.355170
O41	O4	0.611380	0.095040	0.334910
O51	O5	0.622960	0.205710	0.637020
O61	O6	0.584580	0.248120	0.819100
O71	O7	0.873490	0.246380	0.610660
O81	O8	0.857080	0.287570	0.805740
O91	O9	0.905830	0.041000	0.385670
O101	O10	0.088190	0.000270	0.341730
O111	O11	0.568680	0.042480	0.611590
O121	O12	0.377600	0.000270	0.627680
C11	C1	0.817700	0.123210	0.560900
C21	C2	0.669500	0.125900	0.402800
C31	C3	0.809700	0.258700	0.714800
C41	C4	0.658600	0.236080	0.727500
C51	C5	0.999800	0.011440	0.421100
C61	C6	0.484500	0.012370	0.569100
Cu31	Cu3	0.251660	0.703400	0.023170
Cu41	Cu4	0.262480	0.545540	0.001800
O131	O13	0.103590	0.653470	0.891390
O141	O14	0.152820	0.590080	0.871490
O151	O15	0.379160	0.659970	0.144830
O161	O16	0.388620	0.595040	0.165090
O171	O17	0.377040	0.705710	0.862980
O181	O18	0.415420	0.748120	0.680900
O191	O19	0.126510	0.746380	0.889340
O201	O20	0.142920	0.787570	0.694260
O211	O21	0.094170	0.541000	0.114330
O221	O22	0.911810	0.500270	0.158270
O231	O23	0.431320	0.542480	0.888410
O241	O24	0.622400	0.500270	0.872320
C71	C7	0.182300	0.623210	0.939100
C81	C8	0.330500	0.625900	0.097200
C91	C9	0.190300	0.758700	0.785200
C101	C10	0.341400	0.736080	0.772500
C111	C11	0.000200	0.511440	0.078900
C121	C12	0.515500	0.512370	0.930900
Cu51	Cu5	0.251660	0.796600	0.523170
Cu61	Cu6	0.262480	0.954460	0.501800
O251	O25	0.103590	0.846530	0.391390
O261	O26	0.152820	0.909920	0.371490
O271	O27	0.379160	0.840030	0.644830
O281	O28	0.388620	0.904960	0.665090
O291	O29	0.377040	0.794290	0.362980
O301	O30	0.415420	0.751880	0.180900
O311	O31	0.126510	0.753620	0.389340
O321	O32	0.142920	0.712430	0.194260
O331	O33	0.094170	0.959000	0.614330
O341	O34	0.911810	0.999730	0.658270
O351	O35	0.431320	0.957520	0.388410
O361	O36	0.622400	0.999730	0.372320
C131	C13	0.182300	0.876790	0.439100
C141	C14	0.330500	0.874100	0.597200
C151	C15	0.190300	0.741300	0.285200
C161	C16	0.341400	0.763920	0.272500
C171	C17	0.000200	0.988560	0.578900
C181	C18	0.515500	0.987630	0.430900
Cu71	Cu7	0.748340	0.296600	0.976830
Cu81	Cu8	0.737520	0.454460	0.998200
O371	O37	0.896410	0.346530	0.108610
O381	O38	0.847180	0.409920	0.128510
O391	O39	0.620840	0.340030	0.855170
O401	O40	0.611380	0.404960	0.834910
O411	O41	0.622960	0.294290	0.137020
O421	O42	0.584580	0.251880	0.319100
O431	O43	0.873490	0.253620	0.110660
O441	O44	0.857080	0.212430	0.305740
O451	O45	0.905830	0.459000	0.885670
O461	O46	0.088190	0.499730	0.841730
O471	O47	0.568680	0.457520	0.111590
O481	O48	0.377600	0.499730	0.127680
C191	C19	0.817700	0.376790	0.060900
C201	C20	0.669500	0.374100	0.902800
C211	C21	0.809700	0.241300	0.214800
C221	C22	0.658600	0.263920	0.227500
C231	C23	0.999800	0.488560	0.921100
C241	C24	0.484500	0.487630	0.069100
