data_KEFBII_clean_PM
_symmetry_space_group_name_H-M	'P1'
_cell_length_a	17.208900
_cell_length_b	17.208900
_cell_length_c	28.523000
_cell_angle_alpha	90.000000
_cell_angle_beta	90.000000
_cell_angle_gamma	90.000000
_symmetry_Int_Tables_number 1

loop_
_symmetry_equiv_pos_as_xyz
'x,y,z'

loop_
_atom_site_label
_atom_site_type_symbol
_atom_site_fract_x
_atom_site_fract_y
_atom_site_fract_z
Zn11	Zn1	0.836310	0.750000	0.750000
Zn21	Zn2	0.663690	0.750000	0.750000
Zn31	Zn3	0.750000	0.836310	0.250000
Zn41	Zn4	0.750000	0.663690	0.250000
Zn51	Zn5	0.163690	0.250000	0.250000
Zn61	Zn6	0.336310	0.250000	0.250000
Zn71	Zn7	0.250000	0.163690	0.750000
Zn81	Zn8	0.250000	0.336310	0.750000
Zn91	Zn9	0.046610	0.953390	0.534000
Zn101	Zn10	0.453390	0.546610	0.534000
Zn111	Zn11	0.546610	0.046610	0.034000
Zn121	Zn12	0.953390	0.453390	0.034000
Zn131	Zn13	0.453390	0.953390	0.966000
Zn141	Zn14	0.046610	0.546610	0.966000
Zn151	Zn15	0.953390	0.046610	0.466000
Zn161	Zn16	0.546610	0.453390	0.466000
H11	H1	0.637700	0.953400	0.662300
H21	H2	0.856700	0.886300	0.622200
H31	H3	0.741900	0.054600	0.546400
H41	H4	0.862300	0.546600	0.662300
H51	H5	0.643300	0.613700	0.622200
H61	H6	0.758100	0.445400	0.546400
H71	H7	0.546600	0.637700	0.162300
H81	H8	0.613700	0.856700	0.122200
H91	H9	0.445400	0.741900	0.046400
H101	H10	0.953400	0.862300	0.162300
H111	H11	0.886300	0.643300	0.122200
H121	H12	0.054600	0.758100	0.046400
H131	H13	0.862300	0.953400	0.837700
H141	H14	0.643300	0.886300	0.877800
H151	H15	0.758100	0.054600	0.953600
H161	H16	0.637700	0.546600	0.837700
H171	H17	0.856700	0.613700	0.877800
H181	H18	0.741900	0.445400	0.953600
H191	H19	0.953400	0.637700	0.337700
H201	H20	0.886300	0.856700	0.377800
H211	H21	0.054600	0.741900	0.453600
H221	H22	0.546600	0.862300	0.337700
H231	H23	0.613700	0.643300	0.377800
H241	H24	0.445400	0.758100	0.453600
H251	H25	0.362300	0.046600	0.337700
H261	H26	0.143300	0.113700	0.377800
H271	H27	0.258100	0.945400	0.453600
H281	H28	0.137700	0.453400	0.337700
H291	H29	0.356700	0.386300	0.377800
H301	H30	0.241900	0.554600	0.453600
H311	H31	0.453400	0.362300	0.837700
H321	H32	0.386300	0.143300	0.877800
H331	H33	0.554600	0.258100	0.953600
H341	H34	0.046600	0.137700	0.837700
H351	H35	0.113700	0.356700	0.877800
H361	H36	0.945400	0.241900	0.953600
H371	H37	0.137700	0.046600	0.162300
H381	H38	0.356700	0.113700	0.122200
H391	H39	0.241900	0.945400	0.046400
H401	H40	0.362300	0.453400	0.162300
H411	H41	0.143300	0.386300	0.122200
H421	H42	0.258100	0.554600	0.046400
H431	H43	0.046600	0.362300	0.662300
H441	H44	0.113700	0.143300	0.622200
H451	H45	0.945400	0.258100	0.546400
H461	H46	0.453400	0.137700	0.662300
H471	H47	0.386300	0.356700	0.622200
H481	H48	0.554600	0.241900	0.546400
C11	C1	0.678340	0.015010	0.604000
C21	C2	0.679780	0.958420	0.640930
C31	C3	0.744370	0.910750	0.646630
C41	C4	0.809970	0.917010	0.616750
C51	C5	0.807190	0.970830	0.580240
C61	C6	0.742610	0.019530	0.572900
C71	C7	0.745200	0.852800	0.685260
C81	C8	0.876800	0.976420	0.548540
C91	C9	0.616830	0.067640	0.600330
C101	C10	0.821660	0.484990	0.604000
C111	C11	0.820220	0.541580	0.640930
C121	C12	0.755630	0.589250	0.646630
C131	C13	0.690030	0.582990	0.616750
C141	C14	0.692810	0.529170	0.580240
C151	C15	0.757390	0.480470	0.572900
C161	C16	0.754800	0.647200	0.685260
C171	C17	0.623200	0.523580	0.548540
C181	C18	0.883170	0.432360	0.600330
C191	C19	0.484990	0.678340	0.104000
C201	C20	0.541580	0.679780	0.140930
C211	C21	0.589250	0.744370	0.146630
C221	C22	0.582990	0.809970	0.116750
C231	C23	0.529170	0.807190	0.080240
C241	C24	0.480470	0.742610	0.072900
C251	C25	0.647200	0.745200	0.185260
C261	C26	0.523580	0.876800	0.048540
C271	C27	0.432360	0.616830	0.100330
C281	C28	0.015010	0.821660	0.104000
C291	C29	0.958420	0.820220	0.140930
C301	C30	0.910750	0.755630	0.146630
C311	C31	0.917010	0.690030	0.116750
C321	C32	0.970830	0.692810	0.080240
C331	C33	0.019530	0.757390	0.072900
C341	C34	0.852800	0.754800	0.185260
C351	C35	0.976420	0.623200	0.048540
C361	C36	0.067640	0.883170	0.100330
C371	C37	0.821660	0.015010	0.896000
C381	C38	0.820220	0.958420	0.859070
C391	C39	0.755630	0.910750	0.853370
C401	C40	0.690030	0.917010	0.883250
C411	C41	0.692810	0.970830	0.919760
C421	C42	0.757390	0.019530	0.927100
C431	C43	0.754800	0.852800	0.814740
C441	C44	0.623200	0.976420	0.951460
C451	C45	0.883170	0.067640	0.899670
C461	C46	0.678340	0.484990	0.896000
C471	C47	0.679780	0.541580	0.859070
C481	C48	0.744370	0.589250	0.853370
C491	C49	0.809970	0.582990	0.883250
C501	C50	0.807190	0.529170	0.919760
C511	C51	0.742610	0.480470	0.927100
C521	C52	0.745200	0.647200	0.814740
C531	C53	0.876800	0.523580	0.951460
C541	C54	0.616830	0.432360	0.899670
C551	C55	0.015010	0.678340	0.396000
C561	C56	0.958420	0.679780	0.359070
C571	C57	0.910750	0.744370	0.353370
C581	C58	0.917010	0.809970	0.383250
C591	C59	0.970830	0.807190	0.419760
C601	C60	0.019530	0.742610	0.427100
C611	C61	0.852800	0.745200	0.314740
C621	C62	0.976420	0.876800	0.451460
C631	C63	0.067640	0.616830	0.399670
C641	C64	0.484990	0.821660	0.396000
C651	C65	0.541580	0.820220	0.359070
C661	C66	0.589250	0.755630	0.353370
C671	C67	0.582990	0.690030	0.383250
C681	C68	0.529170	0.692810	0.419760
C691	C69	0.480470	0.757390	0.427100
C701	C70	0.647200	0.754800	0.314740
C711	C71	0.523580	0.623200	0.451460
C721	C72	0.432360	0.883170	0.399670
C731	C73	0.321660	0.984990	0.396000
C741	C74	0.320220	0.041580	0.359070
C751	C75	0.255630	0.089250	0.353370
C761	C76	0.190030	0.082990	0.383250
C771	C77	0.192810	0.029170	0.419760
C781	C78	0.257390	0.980470	0.427100
C791	C79	0.254800	0.147200	0.314740
C801	C80	0.123200	0.023580	0.451460
C811	C81	0.383170	0.932360	0.399670
C821	C82	0.178340	0.515010	0.396000
C831	C83	0.179780	0.458420	0.359070
C841	C84	0.244370	0.410750	0.353370
C851	C85	0.309970	0.417010	0.383250
C861	C86	0.307190	0.470830	0.419760
C871	C87	0.242610	0.519530	0.427100
C881	C88	0.245200	0.352800	0.314740
C891	C89	0.376800	0.476420	0.451460
C901	C90	0.116830	0.567640	0.399670
C911	C91	0.515010	0.321660	0.896000
C921	C92	0.458420	0.320220	0.859070
C931	C93	0.410750	0.255630	0.853370
C941	C94	0.417010	0.190030	0.883250
C951	C95	0.470830	0.192810	0.919760
C961	C96	0.519530	0.257390	0.927100
C971	C97	0.352800	0.254800	0.814740
C981	C98	0.476420	0.123200	0.951460
C991	C99	0.567640	0.383170	0.899670
C1001	C100	0.984990	0.178340	0.896000
C1011	C101	0.041580	0.179780	0.859070
C1021	C102	0.089250	0.244370	0.853370
C1031	C103	0.082990	0.309970	0.883250
C1041	C104	0.029170	0.307190	0.919760
C1051	C105	0.980470	0.242610	0.927100
C1061	C106	0.147200	0.245200	0.814740
C1071	C107	0.023580	0.376800	0.951460
C1081	C108	0.932360	0.116830	0.899670
C1091	C109	0.178340	0.984990	0.104000
C1101	C110	0.179780	0.041580	0.140930
C1111	C111	0.244370	0.089250	0.146630
C1121	C112	0.309970	0.082990	0.116750
C1131	C113	0.307190	0.029170	0.080240
C1141	C114	0.242610	0.980470	0.072900
C1151	C115	0.245200	0.147200	0.185260
C1161	C116	0.376800	0.023580	0.048540
C1171	C117	0.116830	0.932360	0.100330
C1181	C118	0.321660	0.515010	0.104000
C1191	C119	0.320220	0.458420	0.140930
C1201	C120	0.255630	0.410750	0.146630
C1211	C121	0.190030	0.417010	0.116750
C1221	C122	0.192810	0.470830	0.080240
C1231	C123	0.257390	0.519530	0.072900
C1241	C124	0.254800	0.352800	0.185260
C1251	C125	0.123200	0.476420	0.048540
C1261	C126	0.383170	0.567640	0.100330
C1271	C127	0.984990	0.321660	0.604000
C1281	C128	0.041580	0.320220	0.640930
C1291	C129	0.089250	0.255630	0.646630
C1301	C130	0.082990	0.190030	0.616750
C1311	C131	0.029170	0.192810	0.580240
C1321	C132	0.980470	0.257390	0.572900
C1331	C133	0.147200	0.254800	0.685260
C1341	C134	0.023580	0.123200	0.548540
C1351	C135	0.932360	0.383170	0.600330
C1361	C136	0.515010	0.178340	0.604000
C1371	C137	0.458420	0.179780	0.640930
C1381	C138	0.410750	0.244370	0.646630
C1391	C139	0.417010	0.309970	0.616750
C1401	C140	0.470830	0.307190	0.580240
C1411	C141	0.519530	0.242610	0.572900
C1421	C142	0.352800	0.245200	0.685260
C1431	C143	0.476420	0.376800	0.548540
C1441	C144	0.567640	0.116830	0.600330
O11	O1	0.809160	0.819890	0.694500
O21	O2	0.682140	0.841460	0.707260
O31	O3	0.938840	0.945140	0.561730
O41	O4	0.867680	0.016230	0.511650
O51	O5	0.690840	0.680110	0.694500
O61	O6	0.817860	0.658540	0.707260
O71	O7	0.561160	0.554860	0.561730
O81	O8	0.632320	0.483770	0.511650
O91	O9	0.680110	0.809160	0.194500
O101	O10	0.658540	0.682140	0.207260
O111	O11	0.554860	0.938840	0.061730
O121	O12	0.483770	0.867680	0.011650
O131	O13	0.819890	0.690840	0.194500
O141	O14	0.841460	0.817860	0.207260
O151	O15	0.945140	0.561160	0.061730
O161	O16	0.016230	0.632320	0.011650
O171	O17	0.690840	0.819890	0.805500
O181	O18	0.817860	0.841460	0.792740
O191	O19	0.561160	0.945140	0.938270
O201	O20	0.632320	0.016230	0.988350
O211	O21	0.809160	0.680110	0.805500
O221	O22	0.682140	0.658540	0.792740
O231	O23	0.938840	0.554860	0.938270
O241	O24	0.867680	0.483770	0.988350
O251	O25	0.819890	0.809160	0.305500
O261	O26	0.841460	0.682140	0.292740
O271	O27	0.945140	0.938840	0.438270
O281	O28	0.016230	0.867680	0.488350
O291	O29	0.680110	0.690840	0.305500
O301	O30	0.658540	0.817860	0.292740
O311	O31	0.554860	0.561160	0.438270
O321	O32	0.483770	0.632320	0.488350
O331	O33	0.190840	0.180110	0.305500
O341	O34	0.317860	0.158540	0.292740
O351	O35	0.061160	0.054860	0.438270
O361	O36	0.132320	0.983770	0.488350
O371	O37	0.309160	0.319890	0.305500
O381	O38	0.182140	0.341460	0.292740
O391	O39	0.438840	0.445140	0.438270
O401	O40	0.367680	0.516230	0.488350
O411	O41	0.319890	0.190840	0.805500
O421	O42	0.341460	0.317860	0.792740
O431	O43	0.445140	0.061160	0.938270
O441	O44	0.516230	0.132320	0.988350
O451	O45	0.180110	0.309160	0.805500
O461	O46	0.158540	0.182140	0.792740
O471	O47	0.054860	0.438840	0.938270
O481	O48	0.983770	0.367680	0.988350
O491	O49	0.309160	0.180110	0.194500
O501	O50	0.182140	0.158540	0.207260
O511	O51	0.438840	0.054860	0.061730
O521	O52	0.367680	0.983770	0.011650
O531	O53	0.190840	0.319890	0.194500
O541	O54	0.317860	0.341460	0.207260
O551	O55	0.061160	0.445140	0.061730
O561	O56	0.132320	0.516230	0.011650
O571	O57	0.180110	0.190840	0.694500
O581	O58	0.158540	0.317860	0.707260
O591	O59	0.054860	0.061160	0.561730
O601	O60	0.983770	0.132320	0.511650
O611	O61	0.319890	0.309160	0.694500
O621	O62	0.341460	0.182140	0.707260
O631	O63	0.445140	0.438840	0.561730
O641	O64	0.516230	0.367680	0.511650
