data_KEFBOO_clean_PM
_symmetry_space_group_name_H-M	'P1'
_cell_length_a	15.330100
_cell_length_b	15.330100
_cell_length_c	15.330100
_cell_angle_alpha	102.038000
_cell_angle_beta	102.038000
_cell_angle_gamma	102.038000
_symmetry_Int_Tables_number 1

loop_
_symmetry_equiv_pos_as_xyz
'x,y,z'

loop_
_atom_site_label
_atom_site_type_symbol
_atom_site_fract_x
_atom_site_fract_y
_atom_site_fract_z
Zn11	Zn1	0.022980	0.022980	0.416530
Zn21	Zn2	0.416530	0.022980	0.022980
Zn31	Zn3	0.022980	0.416530	0.022980
Zn41	Zn4	0.977020	0.977020	0.583470
Zn51	Zn5	0.977020	0.583470	0.977020
Zn61	Zn6	0.583470	0.977020	0.977020
H11	H1	0.303700	0.014200	0.493800
H21	H2	0.493800	0.303700	0.014200
H31	H3	0.014200	0.493800	0.303700
H41	H4	0.985800	0.696300	0.506200
H51	H5	0.696300	0.506200	0.985800
H61	H6	0.506200	0.985800	0.696300
H71	H7	0.696300	0.985800	0.506200
H81	H8	0.506200	0.696300	0.985800
H91	H9	0.985800	0.506200	0.696300
H101	H10	0.014200	0.303700	0.493800
H111	H11	0.303700	0.493800	0.014200
H121	H12	0.493800	0.014200	0.303700
H131	H13	0.259250	0.000000	0.740750
H141	H14	0.740750	0.259250	0.000000
H151	H15	0.000000	0.740750	0.259250
H161	H16	0.740750	0.000000	0.259250
H171	H17	0.259250	0.740750	0.000000
H181	H18	0.000000	0.259250	0.740750
C11	C1	0.266860	0.006390	0.612370
C21	C2	0.323980	0.008060	0.553190
C31	C3	0.169140	0.012670	0.578200
C41	C4	0.612370	0.266860	0.006390
C51	C5	0.553190	0.323980	0.008060
C61	C6	0.578200	0.169140	0.012670
C71	C7	0.006390	0.612370	0.266860
C81	C8	0.008060	0.553190	0.323980
C91	C9	0.012670	0.578200	0.169140
C101	C10	0.993610	0.733140	0.387630
C111	C11	0.991940	0.676020	0.446810
C121	C12	0.987330	0.830860	0.421800
C131	C13	0.733140	0.387630	0.993610
C141	C14	0.676020	0.446810	0.991940
C151	C15	0.830860	0.421800	0.987330
C161	C16	0.387630	0.993610	0.733140
C171	C17	0.446810	0.991940	0.676020
C181	C18	0.421800	0.987330	0.830860
C191	C19	0.733140	0.993610	0.387630
C201	C20	0.676020	0.991940	0.446810
C211	C21	0.830860	0.987330	0.421800
C221	C22	0.387630	0.733140	0.993610
C231	C23	0.446810	0.676020	0.991940
C241	C24	0.421800	0.830860	0.987330
C251	C25	0.993610	0.387630	0.733140
C261	C26	0.991940	0.446810	0.676020
C271	C27	0.987330	0.421800	0.830860
C281	C28	0.006390	0.266860	0.612370
C291	C29	0.008060	0.323980	0.553190
C301	C30	0.012670	0.169140	0.578200
C311	C31	0.266860	0.612370	0.006390
C321	C32	0.323980	0.553190	0.008060
C331	C33	0.169140	0.578200	0.012670
C341	C34	0.612370	0.006390	0.266860
C351	C35	0.553190	0.008060	0.323980
C361	C36	0.578200	0.012670	0.169140
C371	C37	0.413570	0.000000	0.586430
C381	C38	0.298290	0.000000	0.701710
C391	C39	0.475980	0.000000	0.524030
C401	C40	0.586430	0.413570	0.000000
C411	C41	0.701710	0.298290	0.000000
C421	C42	0.524030	0.475970	0.000000
C431	C43	0.000000	0.586430	0.413570
C441	C44	0.000000	0.701710	0.298290
C451	C45	0.000000	0.524020	0.475970
C461	C46	0.586430	0.000000	0.413570
C471	C47	0.701710	0.000000	0.298290
C481	C48	0.524020	0.000000	0.475970
C491	C49	0.413570	0.586430	0.000000
C501	C50	0.298290	0.701710	0.000000
C511	C51	0.475970	0.524020	0.000000
C521	C52	0.000000	0.413570	0.586430
C531	C53	0.000000	0.298290	0.701710
C541	C54	0.000000	0.475980	0.524030
O11	O1	0.146510	0.026030	0.499720
O21	O2	0.116970	0.997540	0.628370
O31	O3	0.499720	0.146510	0.026030
O41	O4	0.628370	0.116970	0.997540
O51	O5	0.026030	0.499720	0.146510
O61	O6	0.997540	0.628370	0.116970
O71	O7	0.973970	0.853490	0.500280
O81	O8	0.002460	0.883030	0.371630
O91	O9	0.853490	0.500280	0.973970
O101	O10	0.883030	0.371630	0.002460
O111	O11	0.500280	0.973970	0.853490
O121	O12	0.371630	0.002460	0.883030
O131	O13	0.853490	0.973970	0.500280
O141	O14	0.883030	0.002460	0.371630
O151	O15	0.500280	0.853490	0.973970
O161	O16	0.371630	0.883030	0.002460
O171	O17	0.973970	0.500280	0.853490
O181	O18	0.002460	0.371630	0.883030
O191	O19	0.026030	0.146510	0.499720
O201	O20	0.997540	0.116970	0.628370
O211	O21	0.146510	0.499720	0.026030
O221	O22	0.116970	0.628370	0.997540
O231	O23	0.499720	0.026030	0.146510
O241	O24	0.628370	0.997540	0.116970
