data_KEFBEE_clean_PM
_symmetry_space_group_name_H-M	'P1'
_cell_length_a	15.412800
_cell_length_b	15.412800
_cell_length_c	15.412800
_cell_angle_alpha	76.341200
_cell_angle_beta	76.341200
_cell_angle_gamma	76.341200
_symmetry_Int_Tables_number 1

loop_
_symmetry_equiv_pos_as_xyz
'x,y,z'

loop_
_atom_site_label
_atom_site_type_symbol
_atom_site_fract_x
_atom_site_fract_y
_atom_site_fract_z
Zn11	Zn1	0.088210	0.513260	0.513260
Zn21	Zn2	0.513260	0.088210	0.513260
Zn31	Zn3	0.513260	0.513260	0.088210
Zn41	Zn4	0.486740	0.911790	0.486740
Zn51	Zn5	0.911790	0.486740	0.486740
Zn61	Zn6	0.486740	0.486740	0.911790
H11	H1	0.986800	0.196900	0.506400
H21	H2	0.506400	0.986800	0.196900
H31	H3	0.196900	0.506400	0.986800
H41	H4	0.803100	0.013200	0.493600
H51	H5	0.013200	0.493600	0.803100
H61	H6	0.493600	0.803100	0.013200
H71	H7	0.013200	0.803100	0.493600
H81	H8	0.493600	0.013200	0.803100
H91	H9	0.803100	0.493600	0.013200
H101	H10	0.196900	0.986800	0.506400
H111	H11	0.986800	0.506400	0.196900
H121	H12	0.506400	0.196900	0.986800
H131	H13	0.232500	0.232500	0.523000
H141	H14	0.523000	0.232500	0.232500
H151	H15	0.232500	0.523000	0.232500
H161	H16	0.767500	0.767500	0.477000
H171	H17	0.767500	0.477000	0.767500
H181	H18	0.477000	0.767500	0.767500
C11	C1	0.065500	0.329240	0.514270
C21	C2	0.103830	0.230050	0.515340
C31	C3	0.047620	0.173420	0.509620
C41	C4	0.514270	0.065500	0.329240
C51	C5	0.515340	0.103830	0.230050
C61	C6	0.509620	0.047620	0.173420
C71	C7	0.329240	0.514270	0.065500
C81	C8	0.230050	0.515340	0.103830
C91	C9	0.173420	0.509620	0.047620
C101	C10	0.670760	0.934500	0.485730
C111	C11	0.769950	0.896170	0.484660
C121	C12	0.826580	0.952380	0.490380
C131	C13	0.934500	0.485730	0.670760
C141	C14	0.896170	0.484660	0.769950
C151	C15	0.952380	0.490380	0.826580
C161	C16	0.485730	0.670760	0.934500
C171	C17	0.484660	0.769950	0.896170
C181	C18	0.490380	0.826580	0.952380
C191	C19	0.934500	0.670760	0.485730
C201	C20	0.896170	0.769950	0.484660
C211	C21	0.952380	0.826580	0.490380
C221	C22	0.485730	0.934500	0.670760
C231	C23	0.484660	0.896170	0.769950
C241	C24	0.490380	0.952380	0.826580
C251	C25	0.670760	0.485730	0.934500
C261	C26	0.769950	0.484660	0.896170
C271	C27	0.826580	0.490380	0.952380
C281	C28	0.329240	0.065500	0.514270
C291	C29	0.230050	0.103830	0.515340
C301	C30	0.173420	0.047620	0.509620
C311	C31	0.065500	0.514270	0.329240
C321	C32	0.103830	0.515340	0.230050
C331	C33	0.047620	0.509620	0.173420
C341	C34	0.514270	0.329240	0.065500
C351	C35	0.515340	0.230050	0.103830
C361	C36	0.509620	0.173420	0.047620
C371	C37	0.082420	0.082420	0.508670
C381	C38	0.023170	0.023170	0.502370
C391	C39	0.195010	0.195010	0.518660
C401	C40	0.508670	0.082420	0.082420
C411	C41	0.502370	0.023170	0.023170
C421	C42	0.518660	0.195010	0.195010
C431	C43	0.082420	0.508670	0.082420
C441	C44	0.023170	0.502370	0.023170
C451	C45	0.195010	0.518660	0.195010
C461	C46	0.917580	0.917580	0.491330
C471	C47	0.976830	0.976830	0.497630
C481	C48	0.804990	0.804990	0.481340
C491	C49	0.917580	0.491330	0.917580
C501	C50	0.976830	0.497630	0.976830
C511	C51	0.804990	0.481340	0.804990
C521	C52	0.491330	0.917580	0.917580
C531	C53	0.497630	0.976830	0.976830
C541	C54	0.481340	0.804990	0.804990
O11	O1	0.985790	0.357330	0.505590
O21	O2	0.119250	0.375790	0.521490
O31	O3	0.505590	0.985790	0.357330
O41	O4	0.521490	0.119250	0.375790
O51	O5	0.357330	0.505590	0.985790
O61	O6	0.375790	0.521490	0.119250
O71	O7	0.642670	0.014210	0.494410
O81	O8	0.624210	0.880750	0.478510
O91	O9	0.014210	0.494410	0.642670
O101	O10	0.880750	0.478510	0.624210
O111	O11	0.494410	0.642670	0.014210
O121	O12	0.478510	0.624210	0.880750
O131	O13	0.014210	0.642670	0.494410
O141	O14	0.880750	0.624210	0.478510
O151	O15	0.494410	0.014210	0.642670
O161	O16	0.478510	0.880750	0.624210
O171	O17	0.642670	0.494410	0.014210
O181	O18	0.624210	0.478510	0.880750
O191	O19	0.357330	0.985790	0.505590
O201	O20	0.375790	0.119250	0.521490
O211	O21	0.985790	0.505590	0.357330
O221	O22	0.119250	0.521490	0.375790
O231	O23	0.505590	0.357330	0.985790
O241	O24	0.521490	0.375790	0.119250
