data_KEFFEI01_clean_PM
_symmetry_space_group_name_H-M	'P1'
_cell_length_a	6.683700
_cell_length_b	18.468400
_cell_length_c	8.475900
_cell_angle_alpha	90.000000
_cell_angle_beta	90.000000
_cell_angle_gamma	90.000000
_symmetry_Int_Tables_number 1

loop_
_symmetry_equiv_pos_as_xyz
'x,y,z'

loop_
_atom_site_label
_atom_site_type_symbol
_atom_site_fract_x
_atom_site_fract_y
_atom_site_fract_z
O11	O1	0.512100	0.950020	0.069300
O21	O2	0.836300	0.905850	0.271600
O31	O3	0.820200	0.742630	0.847100
O41	O4	0.675100	0.816860	0.017800
C11	C1	0.735600	0.757200	0.974900
H11	H1	0.716400	0.718900	0.044500
O51	O5	0.012100	0.450020	0.069300
O61	O6	0.336300	0.405850	0.271600
O71	O7	0.320200	0.242630	0.847100
O81	O8	0.175100	0.316860	0.017800
C21	C2	0.235600	0.257200	0.974900
H21	H2	0.216400	0.218900	0.044500
O91	O9	0.487900	0.049980	0.569300
O101	O10	0.163700	0.094150	0.771600
O111	O11	0.179800	0.257370	0.347100
O121	O12	0.324900	0.183140	0.517800
C31	C3	0.264400	0.242800	0.474900
H31	H3	0.283600	0.281100	0.544500
O131	O13	0.987900	0.549980	0.569300
O141	O14	0.663700	0.594150	0.771600
O151	O15	0.679800	0.757370	0.347100
O161	O16	0.824900	0.683140	0.517800
C41	C4	0.764400	0.742800	0.474900
H41	H4	0.783600	0.781100	0.544500
O171	O17	0.487900	0.950020	0.430700
O181	O18	0.163700	0.905850	0.228400
O191	O19	0.179800	0.742630	0.652900
O201	O20	0.324900	0.816860	0.482200
C51	C5	0.264400	0.757200	0.525100
H51	H5	0.283600	0.718900	0.455500
O211	O21	0.987900	0.450020	0.430700
O221	O22	0.663700	0.405850	0.228400
O231	O23	0.679800	0.242630	0.652900
O241	O24	0.824900	0.316860	0.482200
C61	C6	0.764400	0.257200	0.525100
H61	H6	0.783600	0.218900	0.455500
O251	O25	0.512100	0.049980	0.930700
O261	O26	0.836300	0.094150	0.728400
O271	O27	0.820200	0.257370	0.152900
O281	O28	0.675100	0.183140	0.982200
C71	C7	0.735600	0.242800	0.025100
H71	H7	0.716400	0.281100	0.955500
O291	O29	0.012100	0.549980	0.930700
O301	O30	0.336300	0.594150	0.728400
O311	O31	0.320200	0.757370	0.152900
O321	O32	0.175100	0.683140	0.982200
C81	C8	0.235600	0.742800	0.025100
H81	H8	0.216400	0.781100	0.955500
Dy11	Dy1	0.500000	0.857360	0.250000
Dy21	Dy2	0.000000	0.357360	0.250000
Dy31	Dy3	0.500000	0.142640	0.750000
Dy41	Dy4	0.000000	0.642640	0.750000
C91	C9	0.426000	0.000000	0.000000
H91	H9	0.286800	0.000000	0.000000
C101	C10	0.926000	0.500000	0.000000
H101	H10	0.786800	0.500000	0.000000
C111	C11	0.574000	0.000000	0.500000
H111	H11	0.713200	0.000000	0.500000
C121	C12	0.074000	0.500000	0.500000
H121	H12	0.213200	0.500000	0.500000
C131	C13	0.000000	0.875300	0.250000
H131	H13	0.000000	0.824900	0.250000
C141	C14	0.500000	0.375300	0.250000
H141	H14	0.500000	0.324900	0.250000
C151	C15	0.000000	0.124700	0.750000
H151	H15	0.000000	0.175100	0.750000
C161	C16	0.500000	0.624700	0.750000
H161	H16	0.500000	0.675100	0.750000
