data_KEFWAV_clean_PM
_symmetry_space_group_name_H-M	'P1'
_cell_length_a	12.794900
_cell_length_b	8.258200
_cell_length_c	18.200600
_cell_angle_alpha	90.000000
_cell_angle_beta	107.778000
_cell_angle_gamma	90.000000
_symmetry_Int_Tables_number 1

loop_
_symmetry_equiv_pos_as_xyz
'x,y,z'

loop_
_atom_site_label
_atom_site_type_symbol
_atom_site_fract_x
_atom_site_fract_y
_atom_site_fract_z
Co11	Co1	0.258560	0.809630	0.558340
O11	O1	0.416520	0.755400	0.564800
O21	O2	0.442770	0.499300	0.609030
O31	O3	0.610790	0.753800	0.535360
O41	O4	0.268890	0.661100	0.186590
O51	O5	0.118130	0.628700	0.089730
O61	O6	0.702040	0.950900	0.454670
O71	O7	0.196150	0.788400	0.440800
O81	O8	0.148880	0.705200	0.288560
O91	O9	0.871510	0.858800	0.519620
O101	O10	0.015280	0.828400	0.423250
C11	C1	0.473000	0.627800	0.584280
C21	C2	0.586300	0.632200	0.579050
C31	C3	0.675900	0.543700	0.611700
H11	H1	0.680100	0.453900	0.643300
C41	C4	0.762700	0.611100	0.589720
H21	H2	0.835100	0.575200	0.604400
C51	C5	0.721200	0.737600	0.543310
C61	C6	0.167100	0.645700	0.161980
C71	C7	0.098100	0.663200	0.213120
C81	C8	0.988000	0.662400	0.198490
H31	H3	0.935700	0.636800	0.151900
C91	C9	0.967900	0.708100	0.267660
H41	H4	0.899600	0.719400	0.275300
C101	C10	0.066700	0.732500	0.320720
C111	C11	0.095700	0.787700	0.401730
C121	C12	0.769100	0.858100	0.502700
Co21	Co2	0.741440	0.309630	0.941660
O111	O11	0.583480	0.255400	0.935200
O121	O12	0.557230	0.999300	0.890970
O131	O13	0.389210	0.253800	0.964640
O141	O14	0.731110	0.161100	0.313410
O151	O15	0.881870	0.128700	0.410270
O161	O16	0.297960	0.450900	0.045330
O171	O17	0.803850	0.288400	0.059200
O181	O18	0.851120	0.205200	0.211440
O191	O19	0.128490	0.358800	0.980380
O201	O20	0.984720	0.328400	0.076750
C131	C13	0.527000	0.127800	0.915720
C141	C14	0.413700	0.132200	0.920950
C151	C15	0.324100	0.043700	0.888300
H51	H5	0.319900	0.953900	0.856700
C161	C16	0.237300	0.111100	0.910280
H61	H6	0.164900	0.075200	0.895600
C171	C17	0.278800	0.237600	0.956690
C181	C18	0.832900	0.145700	0.338020
C191	C19	0.901900	0.163200	0.286880
C201	C20	0.012000	0.162400	0.301510
H71	H7	0.064300	0.136800	0.348100
C211	C21	0.032100	0.208100	0.232340
H81	H8	0.100400	0.219400	0.224700
C221	C22	0.933300	0.232500	0.179280
C231	C23	0.904300	0.287700	0.098270
C241	C24	0.230900	0.358100	0.997300
Co31	Co3	0.741440	0.190370	0.441660
O211	O21	0.583480	0.244600	0.435200
O221	O22	0.557230	0.500700	0.390970
O231	O23	0.389210	0.246200	0.464640
O241	O24	0.731110	0.338900	0.813410
O251	O25	0.881870	0.371300	0.910270
O261	O26	0.297960	0.049100	0.545330
O271	O27	0.803850	0.211600	0.559200
O281	O28	0.851120	0.294800	0.711440
O291	O29	0.128490	0.141200	0.480380
O301	O30	0.984720	0.171600	0.576750
C251	C25	0.527000	0.372200	0.415720
C261	C26	0.413700	0.367800	0.420950
C271	C27	0.324100	0.456300	0.388300
H91	H9	0.319900	0.546100	0.356700
C281	C28	0.237300	0.388900	0.410280
H101	H10	0.164900	0.424800	0.395600
C291	C29	0.278800	0.262400	0.456690
C301	C30	0.832900	0.354300	0.838020
C311	C31	0.901900	0.336800	0.786880
C321	C32	0.012000	0.337600	0.801510
H111	H11	0.064300	0.363200	0.848100
C331	C33	0.032100	0.291900	0.732340
H121	H12	0.100400	0.280600	0.724700
C341	C34	0.933300	0.267500	0.679280
C351	C35	0.904300	0.212300	0.598270
C361	C36	0.230900	0.141900	0.497300
Co41	Co4	0.258560	0.690370	0.058340
O311	O31	0.416520	0.744600	0.064800
O321	O32	0.442770	0.000700	0.109030
O331	O33	0.610790	0.746200	0.035360
O341	O34	0.268890	0.838900	0.686590
O351	O35	0.118130	0.871300	0.589730
O361	O36	0.702040	0.549100	0.954670
O371	O37	0.196150	0.711600	0.940800
O381	O38	0.148880	0.794800	0.788560
O391	O39	0.871510	0.641200	0.019620
O401	O40	0.015280	0.671600	0.923250
C371	C37	0.473000	0.872200	0.084280
C381	C38	0.586300	0.867800	0.079050
C391	C39	0.675900	0.956300	0.111700
H131	H13	0.680100	0.046100	0.143300
C401	C40	0.762700	0.888900	0.089720
H141	H14	0.835100	0.924800	0.104400
C411	C41	0.721200	0.762400	0.043310
C421	C42	0.167100	0.854300	0.661980
C431	C43	0.098100	0.836800	0.713120
C441	C44	0.988000	0.837600	0.698490
H151	H15	0.935700	0.863200	0.651900
C451	C45	0.967900	0.791900	0.767660
H161	H16	0.899600	0.780600	0.775300
C461	C46	0.066700	0.767500	0.820720
C471	C47	0.095700	0.712300	0.901730
C481	C48	0.769100	0.641900	0.002700
Co51	Co5	0.000000	0.000000	0.500000
Co61	Co6	0.000000	0.500000	0.000000
