data_KEFWEZ_charged_PM
_symmetry_space_group_name_H-M	'P1'
_cell_length_a	9.291500
_cell_length_b	15.073400
_cell_length_c	17.817900
_cell_angle_alpha	90.000000
_cell_angle_beta	97.323000
_cell_angle_gamma	90.000000
_symmetry_Int_Tables_number 1

loop_
_symmetry_equiv_pos_as_xyz
'x,y,z'

loop_
_atom_site_label
_atom_site_type_symbol
_atom_site_fract_x
_atom_site_fract_y
_atom_site_fract_z
Co11	Co1	0.422870	0.112560	0.336360
Co21	Co2	0.577130	0.612560	0.163640
Co31	Co3	0.577130	0.887440	0.663640
Co41	Co4	0.422870	0.387440	0.836360
Co51	Co5	0.500000	0.000000	0.500000
Co61	Co6	0.500000	0.500000	0.000000
H11	H1	0.046000	0.859700	0.454300
H21	H2	0.771800	0.880200	0.433500
H31	H3	0.635800	0.506600	0.448100
H41	H4	0.610000	0.602500	0.562100
H51	H5	0.954000	0.359700	0.045700
H61	H6	0.228200	0.380200	0.066500
H71	H7	0.364200	0.006600	0.051900
H81	H8	0.390000	0.102500	0.937900
H91	H9	0.954000	0.140300	0.545700
H101	H10	0.228200	0.119800	0.566500
H111	H11	0.364200	0.493400	0.551900
H121	H12	0.390000	0.397500	0.437900
H131	H13	0.046000	0.640300	0.954300
H141	H14	0.771800	0.619800	0.933500
H151	H15	0.635800	0.993400	0.948100
H161	H16	0.610000	0.897500	0.062100
C11	C1	0.053000	0.981600	0.404000
C21	C2	0.995500	0.908300	0.432100
C31	C3	0.841400	0.920100	0.421100
C41	C4	0.817200	0.000600	0.389200
C51	C5	0.685100	0.052100	0.365600
C61	C6	0.205700	0.009600	0.401500
C71	C7	0.586900	0.705500	0.487500
C81	C8	0.613600	0.622800	0.389600
C91	C9	0.622300	0.567700	0.448600
C101	C10	0.606900	0.621600	0.512300
C111	C11	0.563100	0.790100	0.527500
C121	C12	0.615200	0.609000	0.307500
C131	C13	0.947000	0.481600	0.096000
C141	C14	0.004500	0.408300	0.067900
C151	C15	0.158600	0.420100	0.078900
C161	C16	0.182800	0.500600	0.110800
C171	C17	0.314900	0.552100	0.134400
C181	C18	0.794300	0.509600	0.098500
C191	C19	0.413100	0.205500	0.012500
C201	C20	0.386400	0.122800	0.110400
C211	C21	0.377700	0.067700	0.051400
C221	C22	0.393100	0.121600	0.987700
C231	C23	0.436900	0.290100	0.972500
C241	C24	0.384800	0.109000	0.192500
C251	C25	0.947000	0.018400	0.596000
C261	C26	0.004500	0.091700	0.567900
C271	C27	0.158600	0.079900	0.578900
C281	C28	0.182800	0.999400	0.610800
C291	C29	0.314900	0.947900	0.634400
C301	C30	0.794300	0.990400	0.598500
C311	C31	0.413100	0.294500	0.512500
C321	C32	0.386400	0.377200	0.610400
C331	C33	0.377700	0.432300	0.551400
C341	C34	0.393100	0.378400	0.487700
C351	C35	0.436900	0.209900	0.472500
C361	C36	0.384800	0.391000	0.692500
C371	C37	0.053000	0.518400	0.904000
C381	C38	0.995500	0.591700	0.932100
C391	C39	0.841400	0.579900	0.921100
C401	C40	0.817200	0.499400	0.889200
C411	C41	0.685100	0.447900	0.865600
C421	C42	0.205700	0.490400	0.901500
C431	C43	0.586900	0.794500	0.987500
C441	C44	0.613600	0.877200	0.889600
C451	C45	0.622300	0.932300	0.948600
C461	C46	0.606900	0.878400	0.012300
C471	C47	0.563100	0.709900	0.027500
C481	C48	0.615200	0.891000	0.807500
O11	O1	0.947100	0.039500	0.376300
O21	O2	0.682700	0.119400	0.327900
O31	O3	0.565200	0.019000	0.386300
O41	O4	0.228100	0.071700	0.359700
O51	O5	0.297900	0.966300	0.445600
O61	O6	0.590200	0.708700	0.411500
O71	O7	0.554200	0.860300	0.491300
O81	O8	0.557800	0.780900	0.597700
O91	O9	0.604800	0.675900	0.264600
O101	O10	0.621800	0.533100	0.282000
O111	O11	0.052900	0.539500	0.123700
O121	O12	0.317300	0.619400	0.172100
O131	O13	0.434800	0.519000	0.113700
O141	O14	0.771900	0.571700	0.140300
O151	O15	0.702100	0.466300	0.054400
O161	O16	0.409800	0.208700	0.088500
O171	O17	0.445800	0.360300	0.008700
O181	O18	0.442200	0.280900	0.902300
O191	O19	0.395200	0.175900	0.235400
O201	O20	0.378200	0.033100	0.218000
O211	O21	0.052900	0.960500	0.623700
O221	O22	0.317300	0.880600	0.672100
O231	O23	0.434800	0.981000	0.613700
O241	O24	0.771900	0.928300	0.640300
O251	O25	0.702100	0.033700	0.554400
O261	O26	0.409800	0.291300	0.588500
O271	O27	0.445800	0.139700	0.508700
O281	O28	0.442200	0.219100	0.402300
O291	O29	0.395200	0.324100	0.735400
O301	O30	0.378200	0.466900	0.718000
O311	O31	0.947100	0.460500	0.876300
O321	O32	0.682700	0.380600	0.827900
O331	O33	0.565200	0.481000	0.886300
O341	O34	0.228100	0.428300	0.859700
O351	O35	0.297900	0.533700	0.945600
O361	O36	0.590200	0.791300	0.911500
O371	O37	0.554200	0.639700	0.991300
O381	O38	0.557800	0.719100	0.097700
O391	O39	0.604800	0.824100	0.764600
O401	O40	0.621800	0.966900	0.782000
H171	H17	0.461400	0.720000	0.722600
H181	H18	0.404000	0.636200	0.692900
H191	H19	0.629800	0.616400	0.794700
H201	H20	0.596200	0.570600	0.715400
H211	H21	0.661100	0.666700	0.721500
H221	H22	0.424600	0.647500	0.840800
H231	H23	0.310800	0.710700	0.795700
H241	H24	0.298200	0.607800	0.784100
C491	C49	0.596900	0.626000	0.742000
C501	C50	0.364400	0.656600	0.793500
N11	N1	0.453600	0.662100	0.733800
H251	H25	0.538600	0.220000	0.777400
H261	H26	0.596000	0.136200	0.807100
H271	H27	0.370200	0.116400	0.705300
H281	H28	0.403800	0.070600	0.784600
H291	H29	0.338900	0.166700	0.778500
H301	H30	0.575400	0.147500	0.659200
H311	H31	0.689200	0.210700	0.704300
H321	H32	0.701800	0.107800	0.715900
C511	C51	0.403100	0.126000	0.758000
C521	C52	0.635600	0.156600	0.706500
N21	N2	0.546400	0.162100	0.766200
H331	H33	0.538600	0.280000	0.277400
H341	H34	0.596000	0.363800	0.307100
H351	H35	0.370200	0.383600	0.205300
H361	H36	0.403800	0.429400	0.284600
H371	H37	0.338900	0.333300	0.278500
H381	H38	0.575400	0.352500	0.159200
H391	H39	0.689200	0.289300	0.204300
H401	H40	0.701800	0.392200	0.215900
C531	C53	0.403100	0.374000	0.258000
C541	C54	0.635600	0.343400	0.206500
N31	N3	0.546400	0.337900	0.266200
H411	H41	0.461400	0.780000	0.222600
H421	H42	0.404000	0.863800	0.192900
H431	H43	0.629800	0.883600	0.294700
H441	H44	0.596200	0.929400	0.215400
H451	H45	0.661100	0.833300	0.221500
H461	H46	0.424600	0.852500	0.340800
H471	H47	0.310800	0.789300	0.295700
H481	H48	0.298200	0.892200	0.284100
C551	C55	0.596900	0.874000	0.242000
C561	C56	0.364400	0.843400	0.293500
N41	N4	0.453600	0.837900	0.233800
