data_KEGZOL02_clean_PM
_symmetry_space_group_name_H-M	'P1'
_cell_length_a	11.601200
_cell_length_b	11.601200
_cell_length_c	11.601200
_cell_angle_alpha	90.000000
_cell_angle_beta	90.000000
_cell_angle_gamma	90.000000
_symmetry_Int_Tables_number 1

loop_
_symmetry_equiv_pos_as_xyz
'x,y,z'

loop_
_atom_site_label
_atom_site_type_symbol
_atom_site_fract_x
_atom_site_fract_y
_atom_site_fract_z
N11	N1	0.149700	0.643100	0.321400
C11	C1	0.086900	0.595000	0.378800
N21	N2	0.350300	0.356900	0.821400
C21	C2	0.413100	0.405000	0.878800
N31	N3	0.850300	0.143100	0.178600
C31	C3	0.913100	0.095000	0.121200
N41	N4	0.649700	0.856900	0.678600
C41	C4	0.586900	0.905000	0.621200
N51	N5	0.321400	0.149700	0.643100
C51	C5	0.378800	0.086900	0.595000
N61	N6	0.821400	0.350300	0.356900
C61	C6	0.878800	0.413100	0.405000
N71	N7	0.178600	0.850300	0.143100
C71	C7	0.121200	0.913100	0.095000
N81	N8	0.678600	0.649700	0.856900
C81	C8	0.621200	0.586900	0.905000
N91	N9	0.643100	0.321400	0.149700
C91	C9	0.595000	0.378800	0.086900
N101	N10	0.356900	0.821400	0.350300
C101	C10	0.405000	0.878800	0.413100
N111	N11	0.143100	0.178600	0.850300
C111	C11	0.095000	0.121200	0.913100
N121	N12	0.856900	0.678600	0.649700
C121	C12	0.905000	0.621200	0.586900
C131	C13	0.416200	0.583800	0.083800
Cu11	Cu1	0.513100	0.486900	0.986900
Zn11	Zn1	0.261130	0.738870	0.238870
N131	N13	0.358700	0.641300	0.141300
C141	C14	0.083800	0.416200	0.583800
Cu21	Cu2	0.986900	0.513100	0.486900
Zn21	Zn2	0.238870	0.261130	0.738870
N141	N14	0.141300	0.358700	0.641300
C151	C15	0.583800	0.083800	0.416200
Cu31	Cu3	0.486900	0.986900	0.513100
Zn31	Zn3	0.738870	0.238870	0.261130
N151	N15	0.641300	0.141300	0.358700
C161	C16	0.916200	0.916200	0.916200
Cu41	Cu4	0.013100	0.013100	0.013100
Zn41	Zn4	0.761130	0.761130	0.761130
N161	N16	0.858700	0.858700	0.858700
