data_KEHGOV_manual_PM
_symmetry_space_group_name_H-M	'P1'
_cell_length_a	8.780900
_cell_length_b	28.233300
_cell_length_c	11.383300
_cell_angle_alpha	90.000000
_cell_angle_beta	90.000000
_cell_angle_gamma	90.000000
_symmetry_Int_Tables_number 1

loop_
_symmetry_equiv_pos_as_xyz
'x,y,z'

loop_
_atom_site_label
_atom_site_type_symbol
_atom_site_fract_x
_atom_site_fract_y
_atom_site_fract_z
Cd11	Cd1	0.683360	0.383280	0.500280
Cd21	Cd2	0.316560	0.616730	0.499580
Cd31	Cd3	0.183450	0.116750	0.999370
Cd41	Cd4	0.816640	0.883280	0.999370
Cd51	Cd5	0.500040	0.500000	0.499950
Cd61	Cd6	0.000390	0.000040	0.999330
H11	H1	0.518610	0.344380	0.253900
H21	H2	0.290210	0.475130	0.257940
H31	H3	0.833930	0.439740	0.184310
H41	H4	0.181220	0.325450	0.192240
H51	H5	0.352730	0.314080	0.111930
H61	H6	0.149940	0.455680	0.107610
H71	H7	0.067470	0.408660	0.191200
H81	H8	0.932260	0.342460	0.079520
H91	H9	0.482130	0.655590	0.253920
H101	H10	0.711780	0.525050	0.258780
H111	H11	0.166400	0.560240	0.183470
H121	H12	0.819740	0.674640	0.191890
H131	H13	0.647820	0.685940	0.112050
H141	H14	0.850500	0.544350	0.107350
H151	H15	0.933450	0.591370	0.190670
H161	H16	0.068010	0.657550	0.078560
H171	H17	0.018750	0.155500	0.245780
H181	H18	0.789630	0.024870	0.241170
H191	H19	0.333710	0.060140	0.315710
H201	H20	0.681010	0.174480	0.307140
H211	H21	0.852640	0.185880	0.387270
H221	H22	0.649910	0.044280	0.392120
H231	H23	0.567260	0.091230	0.308470
H241	H24	0.432260	0.157530	0.420080
H251	H25	0.980970	0.844570	0.245880
H261	H26	0.210730	0.975090	0.240950
H271	H27	0.666230	0.939880	0.315720
H281	H28	0.318890	0.825580	0.306970
H291	H29	0.147300	0.814140	0.387120
H301	H30	0.349960	0.955750	0.392210
H311	H31	0.432630	0.908820	0.308450
H321	H32	0.567700	0.842500	0.419920
H331	H33	0.481310	0.655590	0.746080
H341	H34	0.709720	0.524840	0.742000
H351	H35	0.166120	0.560270	0.815680
H361	H36	0.818670	0.674480	0.807570
H371	H37	0.647190	0.685880	0.887900
H381	H38	0.850030	0.544290	0.892400
H391	H39	0.932470	0.591290	0.808740
H401	H40	0.067710	0.657520	0.920320
H411	H41	0.517870	0.344430	0.746050
H421	H42	0.288290	0.474980	0.741190
H431	H43	0.833530	0.439760	0.816520
H441	H44	0.180280	0.325420	0.807910
H451	H45	0.352150	0.314090	0.887790
H461	H46	0.149520	0.455680	0.892670
H471	H47	0.066570	0.408680	0.809270
H481	H48	0.931920	0.342480	0.921290
H491	H49	0.982430	0.844220	0.753850
H501	H50	0.210930	0.974960	0.757780
H511	H51	0.666000	0.939640	0.683500
H521	H52	0.319340	0.825270	0.691290
H531	H53	0.147530	0.814010	0.611250
H541	H54	0.350350	0.955580	0.607100
H551	H55	0.433100	0.908500	0.690360
H561	H56	0.567850	0.842410	0.578160
H571	H57	0.017430	0.155770	0.753860
H581	H58	0.789480	0.024940	0.757610
H591	H59	0.333880	0.060360	0.683500
H601	H60	0.680690	0.174660	0.691460
H611	H61	0.852450	0.185950	0.611400
H621	H62	0.649590	0.044390	0.607090
H631	H63	0.566890	0.091460	0.690410
H641	H64	0.432100	0.157570	0.578320
H651	H65	0.326370	0.232150	0.999770
H661	H66	0.863700	0.269050	0.999990
H671	H67	0.484130	0.381830	0.999540
H681	H68	0.400790	0.439910	0.999650
H691	H69	0.673500	0.767850	0.999350
H701	H70	0.136180	0.730960	0.999670
H711	H71	0.515840	0.618150	0.000450
H721	H72	0.599190	0.560090	0.000410
H731	H73	0.826570	0.267850	0.499520
H741	H74	0.363870	0.230970	0.499760
H751	H75	0.984180	0.118160	0.499680
H761	H76	0.900850	0.060090	0.499780
H771	H77	0.173450	0.732130	0.499010
H781	H78	0.636120	0.769040	0.499200
H791	H79	0.015750	0.881820	0.499690
H801	H80	0.099070	0.939900	0.499870
C11	C1	0.480780	0.379780	0.275430
C21	C2	0.364490	0.445790	0.277730
C31	C3	0.804490	0.444960	0.093250
C41	C4	0.245510	0.335000	0.111440
C51	C5	0.282790	0.389480	0.112080
C61	C6	0.130010	0.416960	0.109470
C71	C7	0.520470	0.620280	0.275780
C81	C8	0.637380	0.554380	0.278510
C91	C9	0.195660	0.555030	0.092360
C101	C10	0.755070	0.665040	0.111310
C111	C11	0.717900	0.610570	0.112230
C121	C12	0.870530	0.583070	0.109130
C131	C13	0.980710	0.120130	0.224080
C141	C14	0.864080	0.054190	0.221490
C151	C15	0.304400	0.054990	0.406820
C161	C16	0.745410	0.164960	0.387910
C171	C17	0.782670	0.110480	0.387340
C181	C18	0.629920	0.082990	0.390170
C191	C19	0.019190	0.879910	0.224110
C201	C20	0.136160	0.945790	0.221340
C211	C21	0.695540	0.945020	0.406830
C221	C22	0.254530	0.835060	0.387780
C231	C23	0.217260	0.889530	0.387330
C241	C24	0.369990	0.917040	0.390180
C251	C25	0.519140	0.620190	0.724540
C261	C26	0.635420	0.554180	0.722220
C271	C27	0.195530	0.555050	0.906750
C281	C28	0.754410	0.664960	0.888410
C291	C29	0.717150	0.610490	0.887870
C301	C30	0.869940	0.583010	0.890490
C311	C31	0.479540	0.379740	0.724180
C321	C32	0.362670	0.445650	0.721450
C331	C33	0.804290	0.444970	0.907630
C341	C34	0.244900	0.334990	0.888530
C351	C35	0.282110	0.389460	0.887720
C361	C36	0.129470	0.416960	0.890830
C371	C37	0.020460	0.879600	0.775460
C381	C38	0.136840	0.945590	0.777740
C391	C39	0.695410	0.944910	0.592440
C401	C40	0.254800	0.834910	0.610680
C411	C41	0.217640	0.889370	0.611680
C421	C42	0.370310	0.916860	0.608790
C431	C43	0.979630	0.120370	0.775380
C441	C44	0.863560	0.054320	0.777550
C451	C45	0.304500	0.055090	0.592430
C461	C46	0.745190	0.165050	0.610810
C471	C47	0.782350	0.110580	0.611690
C481	C48	0.629660	0.083110	0.608820
C491	C49	0.203220	0.230870	0.999960
C501	C50	0.970070	0.249820	0.000020
C511	C51	0.150470	0.321240	0.000110
C521	C52	0.034320	0.404420	0.000270
C531	C53	0.001210	0.351130	0.000320
C541	C54	0.374310	0.401550	0.999720
C551	C55	0.796650	0.769140	0.999520
C561	C56	0.029800	0.750190	0.999630
C571	C57	0.849460	0.678760	0.999680
C581	C58	0.965660	0.595580	0.999660
C591	C59	0.998740	0.648880	0.999520
C601	C60	0.625660	0.598440	0.000270
C611	C61	0.703420	0.269140	0.499450
C621	C62	0.470250	0.250200	0.499610
C631	C63	0.650590	0.178760	0.499300
C641	C64	0.534370	0.095590	0.499420
C651	C65	0.501300	0.148890	0.499260
C661	C66	0.874370	0.098440	0.499630
C671	C67	0.296600	0.730850	0.499220
C681	C68	0.529750	0.749810	0.499230
C691	C69	0.349380	0.821230	0.499110
C701	C70	0.465570	0.904400	0.499380
C711	C71	0.498660	0.851110	0.499110
C721	C72	0.125560	0.901540	0.499660
N11	N1	0.534250	0.405020	0.367000
N21	N2	0.461990	0.446280	0.368780
N31	N3	0.371420	0.404100	0.217560
N41	N4	0.676430	0.466920	0.058620
N51	N5	0.467090	0.595060	0.367370
N61	N6	0.539670	0.553860	0.369430
N71	N7	0.630050	0.596010	0.218110
N81	N8	0.323640	0.533070	0.057600
N91	N9	0.034120	0.094930	0.132450
N101	N10	0.961720	0.053700	0.130510
N111	N11	0.871170	0.095840	0.281800
N121	N12	0.176430	0.033030	0.441650
N131	N13	0.965970	0.905090	0.132370
N141	N14	0.038590	0.946280	0.130320
N151	N15	0.128780	0.904180	0.281800
N161	N16	0.823520	0.966970	0.441680
N171	N17	0.465710	0.594970	0.632920
N181	N18	0.537970	0.553710	0.631140
N191	N19	0.628460	0.595860	0.782420
N201	N20	0.323570	0.533080	0.941390
N211	N21	0.532880	0.404950	0.632550
N221	N22	0.460350	0.446150	0.630500
N231	N23	0.370000	0.404030	0.781870
N241	N24	0.676320	0.466930	0.942420
N251	N25	0.967070	0.904850	0.867010
N261	N26	0.039430	0.946090	0.868830
N271	N27	0.129700	0.903920	0.717530
N281	N28	0.823430	0.966890	0.557890
N291	N29	0.033230	0.095110	0.866840
N301	N30	0.961110	0.053830	0.868570
N311	N31	0.870430	0.096020	0.717450
N321	N32	0.176490	0.033100	0.557860
N331	N33	0.120590	0.190160	0.999910
N341	N34	0.975440	0.202280	0.999900
N351	N35	0.111090	0.269570	0.000100
N361	N36	0.889100	0.431070	0.000390
N371	N37	0.879280	0.809850	0.999660
N381	N38	0.024430	0.797720	0.999690
N391	N39	0.888800	0.730430	0.999550
N401	N40	0.110890	0.568940	0.999590
N411	N41	0.620800	0.309850	0.499710
N421	N42	0.475650	0.297730	0.499870
N431	N43	0.611250	0.230440	0.499300
N441	N44	0.389140	0.068950	0.499540
N451	N45	0.379250	0.690140	0.499670
N461	N46	0.524390	0.702270	0.499620
N471	N47	0.388740	0.769560	0.499000
N481	N48	0.610780	0.931050	0.499530
Cl21	Cl2	0.889040	0.371310	0.365990
Cl31	Cl3	0.245010	0.532500	0.499010
Cl41	Cl4	0.112560	0.629120	0.364080
Cl61	Cl6	0.388190	0.128760	0.134420
Cl81	Cl8	0.612040	0.871340	0.134580
Cl101	Cl10	0.111130	0.628780	0.634050
Cl111	Cl11	0.755130	0.467490	0.500970
Cl121	Cl12	0.887160	0.370790	0.635970
Cl131	Cl13	0.745360	0.967540	0.998290
Cl141	Cl14	0.611850	0.870910	0.864520
Cl151	Cl15	0.255380	0.032560	0.998540
Cl161	Cl16	0.388080	0.129280	0.864410
