data_KEHGEL_clean_PM
_symmetry_space_group_name_H-M	'P1'
_cell_length_a	11.930800
_cell_length_b	18.923900
_cell_length_c	22.418900
_cell_angle_alpha	90.000000
_cell_angle_beta	90.000000
_cell_angle_gamma	90.000000
_symmetry_Int_Tables_number 1

loop_
_symmetry_equiv_pos_as_xyz
'x,y,z'

loop_
_atom_site_label
_atom_site_type_symbol
_atom_site_fract_x
_atom_site_fract_y
_atom_site_fract_z
Ag11	Ag1	0.279780	0.197570	0.698250
N11	N1	0.393400	0.291400	0.678400
N21	N2	0.369400	0.360100	0.683400
N31	N3	0.542900	0.350700	0.653780
N41	N4	0.014800	0.174600	0.668100
N51	N5	0.091700	0.226700	0.683000
N61	N6	0.937400	0.279100	0.656300
N71	N7	0.908800	0.633500	0.687100
N81	N8	0.822400	0.626400	0.724300
N91	N9	0.832500	0.530500	0.670670
N101	N10	0.789500	0.373000	0.388700
N111	N11	0.818000	0.443300	0.392600
N121	N12	0.788700	0.402500	0.482740
C11	C1	0.497500	0.286500	0.662400
H11	H1	0.535800	0.244100	0.657400
C21	C2	0.459400	0.393100	0.668900
H21	H2	0.465300	0.442100	0.669100
C31	C3	0.925300	0.208500	0.652300
H31	H3	0.859900	0.186500	0.639500
C41	C4	0.043800	0.286400	0.674400
H41	H4	0.078800	0.329800	0.680100
C51	C5	0.913700	0.576000	0.656400
H51	H5	0.967800	0.567200	0.627500
C61	C6	0.777300	0.565800	0.713400
H61	H6	0.714100	0.548700	0.732900
C71	C7	0.773100	0.350400	0.443000
H71	H7	0.753200	0.304300	0.452800
C81	C8	0.817900	0.459200	0.449500
H81	H8	0.835500	0.503500	0.464900
C91	C9	0.657200	0.369800	0.634600
C101	C10	0.739000	0.312800	0.656400
H91	H9	0.735500	0.308900	0.699500
H101	H10	0.719300	0.267400	0.639300
C111	C11	0.856400	0.333900	0.637100
C121	C12	0.888500	0.405700	0.665400
H111	H11	0.886400	0.402100	0.708500
H121	H12	0.964000	0.418700	0.653600
C131	C13	0.806600	0.460900	0.644500
C141	C14	0.687000	0.441200	0.663000
H131	H13	0.634900	0.477200	0.649700
H141	H14	0.682100	0.437800	0.706100
C151	C15	0.662300	0.375800	0.566400
H151	H15	0.642700	0.330900	0.548300
H161	H16	0.609600	0.411200	0.552600
C161	C16	0.781700	0.396700	0.548700
C171	C17	0.862900	0.339600	0.568300
H171	H17	0.938500	0.351700	0.556100
H181	H18	0.843000	0.294800	0.550200
C181	C18	0.812200	0.467500	0.576400
H191	H19	0.760300	0.503600	0.562900
H201	H20	0.887200	0.481200	0.564300
Ag21	Ag2	0.779780	0.302430	0.301750
N131	N13	0.893400	0.208600	0.321600
N141	N14	0.869400	0.139900	0.316600
N151	N15	0.042900	0.149300	0.346220
N161	N16	0.514800	0.325400	0.331900
N171	N17	0.591700	0.273300	0.317000
N181	N18	0.437400	0.220900	0.343700
N191	N19	0.408800	0.866500	0.312900
N201	N20	0.322400	0.873600	0.275700
N211	N21	0.332500	0.969500	0.329330
N221	N22	0.289500	0.127000	0.611300
N231	N23	0.318000	0.056700	0.607400
N241	N24	0.288700	0.097500	0.517260
C191	C19	0.997500	0.213500	0.337600
H211	H21	0.035800	0.255900	0.342600
C201	C20	0.959400	0.106900	0.331100
H221	H22	0.965300	0.057900	0.330900
C211	C21	0.425300	0.291500	0.347700
H231	H23	0.359900	0.313500	0.360500
C221	C22	0.543800	0.213600	0.325600
H241	H24	0.578800	0.170200	0.319900
C231	C23	0.413700	0.924000	0.343600
H251	H25	0.467800	0.932800	0.372500
C241	C24	0.277300	0.934200	0.286600
H261	H26	0.214100	0.951300	0.267100
C251	C25	0.273100	0.149600	0.557000
H271	H27	0.253200	0.195700	0.547200
C261	C26	0.317900	0.040800	0.550500
H281	H28	0.335500	0.996500	0.535100
C271	C27	0.157200	0.130200	0.365400
C281	C28	0.239000	0.187200	0.343600
H291	H29	0.235500	0.191100	0.300500
H301	H30	0.219300	0.232600	0.360700
C291	C29	0.356400	0.166100	0.362900
C301	C30	0.388500	0.094300	0.334600
H311	H31	0.386400	0.097900	0.291500
H321	H32	0.464000	0.081300	0.346400
C311	C31	0.306600	0.039100	0.355500
C321	C32	0.187000	0.058800	0.337000
H331	H33	0.134900	0.022800	0.350300
H341	H34	0.182100	0.062200	0.293900
C331	C33	0.162300	0.124200	0.433600
H351	H35	0.142700	0.169100	0.451700
H361	H36	0.109600	0.088800	0.447400
C341	C34	0.281700	0.103300	0.451300
C351	C35	0.362900	0.160400	0.431700
H371	H37	0.438500	0.148300	0.443900
H381	H38	0.343000	0.205200	0.449800
C361	C36	0.312200	0.032500	0.423600
H391	H39	0.260300	0.996400	0.437100
H401	H40	0.387200	0.018800	0.435700
Ag31	Ag3	0.779780	0.697570	0.801750
N251	N25	0.893400	0.791400	0.821600
N261	N26	0.869400	0.860100	0.816600
N271	N27	0.042900	0.850700	0.846220
N281	N28	0.514800	0.674600	0.831900
N291	N29	0.591700	0.726700	0.817000
N301	N30	0.437400	0.779100	0.843700
N311	N31	0.408800	0.133500	0.812900
N321	N32	0.322400	0.126400	0.775700
N331	N33	0.332500	0.030500	0.829330
N341	N34	0.289500	0.873000	0.111300
N351	N35	0.318000	0.943300	0.107400
N361	N36	0.288700	0.902500	0.017260
C371	C37	0.997500	0.786500	0.837600
H411	H41	0.035800	0.744100	0.842600
C381	C38	0.959400	0.893100	0.831100
H421	H42	0.965300	0.942100	0.830900
C391	C39	0.425300	0.708500	0.847700
H431	H43	0.359900	0.686500	0.860500
C401	C40	0.543800	0.786400	0.825600
H441	H44	0.578800	0.829800	0.819900
C411	C41	0.413700	0.076000	0.843600
H451	H45	0.467800	0.067200	0.872500
C421	C42	0.277300	0.065800	0.786600
H461	H46	0.214100	0.048700	0.767100
C431	C43	0.273100	0.850400	0.057000
H471	H47	0.253200	0.804300	0.047200
C441	C44	0.317900	0.959200	0.050500
H481	H48	0.335500	0.003500	0.035100
C451	C45	0.157200	0.869800	0.865400
C461	C46	0.239000	0.812800	0.843600
H491	H49	0.235500	0.808900	0.800500
H501	H50	0.219300	0.767400	0.860700
C471	C47	0.356400	0.833900	0.862900
C481	C48	0.388500	0.905700	0.834600
H511	H51	0.386400	0.902100	0.791500
H521	H52	0.464000	0.918700	0.846400
C491	C49	0.306600	0.960900	0.855500
C501	C50	0.187000	0.941200	0.837000
H531	H53	0.134900	0.977200	0.850300
H541	H54	0.182100	0.937800	0.793900
C511	C51	0.162300	0.875800	0.933600
H551	H55	0.142700	0.830900	0.951700
H561	H56	0.109600	0.911200	0.947400
C521	C52	0.281700	0.896700	0.951300
C531	C53	0.362900	0.839600	0.931700
H571	H57	0.438500	0.851700	0.943900
H581	H58	0.343000	0.794800	0.949800
C541	C54	0.312200	0.967500	0.923600
H591	H59	0.260300	0.003600	0.937100
H601	H60	0.387200	0.981200	0.935700
Ag41	Ag4	0.279780	0.802430	0.198250
N371	N37	0.393400	0.708600	0.178400
N381	N38	0.369400	0.639900	0.183400
N391	N39	0.542900	0.649300	0.153780
N401	N40	0.014800	0.825400	0.168100
N411	N41	0.091700	0.773300	0.183000
N421	N42	0.937400	0.720900	0.156300
N431	N43	0.908800	0.366500	0.187100
N441	N44	0.822400	0.373600	0.224300
N451	N45	0.832500	0.469500	0.170670
N461	N46	0.789500	0.627000	0.888700
N471	N47	0.818000	0.556700	0.892600
N481	N48	0.788700	0.597500	0.982740
C551	C55	0.497500	0.713500	0.162400
H611	H61	0.535800	0.755900	0.157400
C561	C56	0.459400	0.606900	0.168900
H621	H62	0.465300	0.557900	0.169100
C571	C57	0.925300	0.791500	0.152300
H631	H63	0.859900	0.813500	0.139500
C581	C58	0.043800	0.713600	0.174400
H641	H64	0.078800	0.670200	0.180100
C591	C59	0.913700	0.424000	0.156400
H651	H65	0.967800	0.432800	0.127500
C601	C60	0.777300	0.434200	0.213400
H661	H66	0.714100	0.451300	0.232900
C611	C61	0.773100	0.649600	0.943000
H671	H67	0.753200	0.695700	0.952800
C621	C62	0.817900	0.540800	0.949500
H681	H68	0.835500	0.496500	0.964900
C631	C63	0.657200	0.630200	0.134600
C641	C64	0.739000	0.687200	0.156400
H691	H69	0.735500	0.691100	0.199500
H701	H70	0.719300	0.732600	0.139300
C651	C65	0.856400	0.666100	0.137100
C661	C66	0.888500	0.594300	0.165400
H711	H71	0.886400	0.597900	0.208500
H721	H72	0.964000	0.581300	0.153600
C671	C67	0.806600	0.539100	0.144500
C681	C68	0.687000	0.558800	0.163000
H731	H73	0.634900	0.522800	0.149700
H741	H74	0.682100	0.562200	0.206100
C691	C69	0.662300	0.624200	0.066400
H751	H75	0.642700	0.669100	0.048300
H761	H76	0.609600	0.588800	0.052600
C701	C70	0.781700	0.603300	0.048700
C711	C71	0.862900	0.660400	0.068300
H771	H77	0.938500	0.648300	0.056100
H781	H78	0.843000	0.705200	0.050200
C721	C72	0.812200	0.532500	0.076400
H791	H79	0.760300	0.496400	0.062900
H801	H80	0.887200	0.518800	0.064300
Ag51	Ag5	0.220220	0.302430	0.198250
N491	N49	0.106600	0.208600	0.178400
N501	N50	0.130600	0.139900	0.183400
N511	N51	0.957100	0.149300	0.153780
N521	N52	0.485200	0.325400	0.168100
N531	N53	0.408300	0.273300	0.183000
N541	N54	0.562600	0.220900	0.156300
N551	N55	0.591200	0.866500	0.187100
N561	N56	0.677600	0.873600	0.224300
N571	N57	0.667500	0.969500	0.170670
N581	N58	0.710500	0.127000	0.888700
N591	N59	0.682000	0.056700	0.892600
N601	N60	0.711300	0.097500	0.982740
C731	C73	0.002500	0.213500	0.162400
H811	H81	0.964200	0.255900	0.157400
C741	C74	0.040600	0.106900	0.168900
H821	H82	0.034700	0.057900	0.169100
C751	C75	0.574700	0.291500	0.152300
H831	H83	0.640100	0.313500	0.139500
C761	C76	0.456200	0.213600	0.174400
H841	H84	0.421200	0.170200	0.180100
C771	C77	0.586300	0.924000	0.156400
H851	H85	0.532200	0.932800	0.127500
C781	C78	0.722700	0.934200	0.213400
H861	H86	0.785900	0.951300	0.232900
C791	C79	0.726900	0.149600	0.943000
H871	H87	0.746800	0.195700	0.952800
C801	C80	0.682100	0.040800	0.949500
H881	H88	0.664500	0.996500	0.964900
C811	C81	0.842800	0.130200	0.134600
C821	C82	0.761000	0.187200	0.156400
H891	H89	0.764500	0.191100	0.199500
H901	H90	0.780700	0.232600	0.139300
C831	C83	0.643600	0.166100	0.137100
C841	C84	0.611500	0.094300	0.165400
H911	H91	0.613600	0.097900	0.208500
H921	H92	0.536000	0.081300	0.153600
C851	C85	0.693400	0.039100	0.144500
C861	C86	0.813000	0.058800	0.163000
H931	H93	0.865100	0.022800	0.149700
H941	H94	0.817900	0.062200	0.206100
C871	C87	0.837700	0.124200	0.066400
H951	H95	0.857300	0.169100	0.048300
H961	H96	0.890400	0.088800	0.052600
C881	C88	0.718300	0.103300	0.048700
C891	C89	0.637100	0.160400	0.068300
H971	H97	0.561500	0.148300	0.056100
H981	H98	0.657000	0.205200	0.050200
C901	C90	0.687800	0.032500	0.076400
H991	H99	0.739700	0.996400	0.062900
H1001	H100	0.612800	0.018800	0.064300
Ag61	Ag6	0.720220	0.197570	0.801750
N611	N61	0.606600	0.291400	0.821600
N621	N62	0.630600	0.360100	0.816600
N631	N63	0.457100	0.350700	0.846220
N641	N64	0.985200	0.174600	0.831900
N651	N65	0.908300	0.226700	0.817000
N661	N66	0.062600	0.279100	0.843700
N671	N67	0.091200	0.633500	0.812900
N681	N68	0.177600	0.626400	0.775700
N691	N69	0.167500	0.530500	0.829330
N701	N70	0.210500	0.373000	0.111300
N711	N71	0.182000	0.443300	0.107400
N721	N72	0.211300	0.402500	0.017260
C911	C91	0.502500	0.286500	0.837600
H1011	H101	0.464200	0.244100	0.842600
C921	C92	0.540600	0.393100	0.831100
H1021	H102	0.534700	0.442100	0.830900
C931	C93	0.074700	0.208500	0.847700
H1031	H103	0.140100	0.186500	0.860500
C941	C94	0.956200	0.286400	0.825600
H1041	H104	0.921200	0.329800	0.819900
C951	C95	0.086300	0.576000	0.843600
H1051	H105	0.032200	0.567200	0.872500
C961	C96	0.222700	0.565800	0.786600
H1061	H106	0.285900	0.548700	0.767100
C971	C97	0.226900	0.350400	0.057000
H1071	H107	0.246800	0.304300	0.047200
C981	C98	0.182100	0.459200	0.050500
H1081	H108	0.164500	0.503500	0.035100
C991	C99	0.342800	0.369800	0.865400
C1001	C100	0.261000	0.312800	0.843600
H1091	H109	0.264500	0.308900	0.800500
H1101	H110	0.280700	0.267400	0.860700
C1011	C101	0.143600	0.333900	0.862900
C1021	C102	0.111500	0.405700	0.834600
H1111	H111	0.113600	0.402100	0.791500
H1121	H112	0.036000	0.418700	0.846400
C1031	C103	0.193400	0.460900	0.855500
C1041	C104	0.313000	0.441200	0.837000
H1131	H113	0.365100	0.477200	0.850300
H1141	H114	0.317900	0.437800	0.793900
C1051	C105	0.337700	0.375800	0.933600
H1151	H115	0.357300	0.330900	0.951700
H1161	H116	0.390400	0.411200	0.947400
C1061	C106	0.218300	0.396700	0.951300
C1071	C107	0.137100	0.339600	0.931700
H1171	H117	0.061500	0.351700	0.943900
H1181	H118	0.157000	0.294800	0.949800
C1081	C108	0.187800	0.467500	0.923600
H1191	H119	0.239700	0.503600	0.937100
H1201	H120	0.112800	0.481200	0.935700
Ag71	Ag7	0.720220	0.802430	0.301750
N731	N73	0.606600	0.708600	0.321600
N741	N74	0.630600	0.639900	0.316600
N751	N75	0.457100	0.649300	0.346220
N761	N76	0.985200	0.825400	0.331900
N771	N77	0.908300	0.773300	0.317000
N781	N78	0.062600	0.720900	0.343700
N791	N79	0.091200	0.366500	0.312900
N801	N80	0.177600	0.373600	0.275700
N811	N81	0.167500	0.469500	0.329330
N821	N82	0.210500	0.627000	0.611300
N831	N83	0.182000	0.556700	0.607400
N841	N84	0.211300	0.597500	0.517260
C1091	C109	0.502500	0.713500	0.337600
H1211	H121	0.464200	0.755900	0.342600
C1101	C110	0.540600	0.606900	0.331100
H1221	H122	0.534700	0.557900	0.330900
C1111	C111	0.074700	0.791500	0.347700
H1231	H123	0.140100	0.813500	0.360500
C1121	C112	0.956200	0.713600	0.325600
H1241	H124	0.921200	0.670200	0.319900
C1131	C113	0.086300	0.424000	0.343600
H1251	H125	0.032200	0.432800	0.372500
C1141	C114	0.222700	0.434200	0.286600
H1261	H126	0.285900	0.451300	0.267100
C1151	C115	0.226900	0.649600	0.557000
H1271	H127	0.246800	0.695700	0.547200
C1161	C116	0.182100	0.540800	0.550500
H1281	H128	0.164500	0.496500	0.535100
C1171	C117	0.342800	0.630200	0.365400
C1181	C118	0.261000	0.687200	0.343600
H1291	H129	0.264500	0.691100	0.300500
H1301	H130	0.280700	0.732600	0.360700
C1191	C119	0.143600	0.666100	0.362900
C1201	C120	0.111500	0.594300	0.334600
H1311	H131	0.113600	0.597900	0.291500
H1321	H132	0.036000	0.581300	0.346400
C1211	C121	0.193400	0.539100	0.355500
C1221	C122	0.313000	0.558800	0.337000
H1331	H133	0.365100	0.522800	0.350300
H1341	H134	0.317900	0.562200	0.293900
C1231	C123	0.337700	0.624200	0.433600
H1351	H135	0.357300	0.669100	0.451700
H1361	H136	0.390400	0.588800	0.447400
C1241	C124	0.218300	0.603300	0.451300
C1251	C125	0.137100	0.660400	0.431700
H1371	H137	0.061500	0.648300	0.443900
H1381	H138	0.157000	0.705200	0.449800
C1261	C126	0.187800	0.532500	0.423600
H1391	H139	0.239700	0.496400	0.437100
H1401	H140	0.112800	0.518800	0.435700
Ag81	Ag8	0.220220	0.697570	0.698250
N851	N85	0.106600	0.791400	0.678400
N861	N86	0.130600	0.860100	0.683400
N871	N87	0.957100	0.850700	0.653780
N881	N88	0.485200	0.674600	0.668100
N891	N89	0.408300	0.726700	0.683000
N901	N90	0.562600	0.779100	0.656300
N911	N91	0.591200	0.133500	0.687100
N921	N92	0.677600	0.126400	0.724300
N931	N93	0.667500	0.030500	0.670670
N941	N94	0.710500	0.873000	0.388700
N951	N95	0.682000	0.943300	0.392600
N961	N96	0.711300	0.902500	0.482740
C1271	C127	0.002500	0.786500	0.662400
H1411	H141	0.964200	0.744100	0.657400
C1281	C128	0.040600	0.893100	0.668900
H1421	H142	0.034700	0.942100	0.669100
C1291	C129	0.574700	0.708500	0.652300
H1431	H143	0.640100	0.686500	0.639500
C1301	C130	0.456200	0.786400	0.674400
H1441	H144	0.421200	0.829800	0.680100
C1311	C131	0.586300	0.076000	0.656400
H1451	H145	0.532200	0.067200	0.627500
C1321	C132	0.722700	0.065800	0.713400
H1461	H146	0.785900	0.048700	0.732900
C1331	C133	0.726900	0.850400	0.443000
H1471	H147	0.746800	0.804300	0.452800
C1341	C134	0.682100	0.959200	0.449500
H1481	H148	0.664500	0.003500	0.464900
C1351	C135	0.842800	0.869800	0.634600
C1361	C136	0.761000	0.812800	0.656400
H1491	H149	0.764500	0.808900	0.699500
H1501	H150	0.780700	0.767400	0.639300
C1371	C137	0.643600	0.833900	0.637100
C1381	C138	0.611500	0.905700	0.665400
H1511	H151	0.613600	0.902100	0.708500
H1521	H152	0.536000	0.918700	0.653600
C1391	C139	0.693400	0.960900	0.644500
C1401	C140	0.813000	0.941200	0.663000
H1531	H153	0.865100	0.977200	0.649700
H1541	H154	0.817900	0.937800	0.706100
C1411	C141	0.837700	0.875800	0.566400
H1551	H155	0.857300	0.830900	0.548300
H1561	H156	0.890400	0.911200	0.552600
C1421	C142	0.718300	0.896700	0.548700
C1431	C143	0.637100	0.839600	0.568300
H1571	H157	0.561500	0.851700	0.556100
H1581	H158	0.657000	0.794800	0.550200
C1441	C144	0.687800	0.967500	0.576400
H1591	H159	0.739700	0.003600	0.562900
H1601	H160	0.612800	0.981200	0.564300
