data_KEHGIP_clean_PM
_symmetry_space_group_name_H-M	'P1'
_cell_length_a	17.162300
_cell_length_b	13.156000
_cell_length_c	12.863100
_cell_angle_alpha	90.000000
_cell_angle_beta	90.000000
_cell_angle_gamma	90.000000
_symmetry_Int_Tables_number 1

loop_
_symmetry_equiv_pos_as_xyz
'x,y,z'

loop_
_atom_site_label
_atom_site_type_symbol
_atom_site_fract_x
_atom_site_fract_y
_atom_site_fract_z
N11	N1	0.075200	0.597500	0.831000
N21	N2	0.051300	0.541500	0.912900
N31	N3	0.084500	0.438500	0.787000
C11	C1	0.093200	0.534400	0.756300
H11	H1	0.110000	0.554100	0.689800
C21	C2	0.057200	0.445800	0.885000
H21	H2	0.044200	0.390100	0.927500
C31	C3	0.098900	0.345000	0.723500
C41	C4	0.041400	0.345800	0.631000
H31	H3	0.987600	0.345800	0.656400
H41	H4	0.049300	0.406900	0.588700
H51	H5	0.149100	0.310400	0.481700
C51	C5	0.183500	0.346200	0.683700
H61	H6	0.192600	0.406900	0.641200
H71	H7	0.219800	0.347500	0.742500
N41	N4	0.424800	0.402500	0.331000
N51	N5	0.448700	0.458500	0.412900
N61	N6	0.415500	0.561500	0.287000
C61	C6	0.406800	0.465600	0.256300
H81	H8	0.390000	0.445900	0.189800
C71	C7	0.442800	0.554200	0.385000
H91	H9	0.455800	0.609900	0.427500
C81	C8	0.401100	0.655000	0.223500
C91	C9	0.458600	0.654200	0.131000
H101	H10	0.512400	0.654200	0.156400
H111	H11	0.450700	0.593100	0.088700
H121	H12	0.350900	0.689600	0.981700
C101	C10	0.316500	0.653800	0.183700
H131	H13	0.307400	0.593100	0.141200
H141	H14	0.280200	0.652500	0.242500
N71	N7	0.924800	0.097500	0.169000
N81	N8	0.948700	0.041500	0.087100
N91	N9	0.915500	0.938500	0.213000
C111	C11	0.906800	0.034400	0.243700
H151	H15	0.890000	0.054100	0.310200
C121	C12	0.942800	0.945800	0.115000
H161	H16	0.955800	0.890100	0.072500
C131	C13	0.901100	0.845000	0.276500
C141	C14	0.958600	0.845800	0.369000
H171	H17	0.012400	0.845800	0.343600
H181	H18	0.950700	0.906900	0.411300
H191	H19	0.850900	0.810400	0.518300
C151	C15	0.816500	0.846200	0.316300
H201	H20	0.807400	0.906900	0.358800
H211	H21	0.780200	0.847500	0.257500
N101	N10	0.575200	0.902500	0.669000
N111	N11	0.551300	0.958500	0.587100
N121	N12	0.584500	0.061500	0.713000
C161	C16	0.593200	0.965600	0.743700
H221	H22	0.610000	0.945900	0.810200
C171	C17	0.557200	0.054200	0.615000
H231	H23	0.544200	0.109900	0.572500
C181	C18	0.598900	0.155000	0.776500
C191	C19	0.541400	0.154200	0.869000
H241	H24	0.487600	0.154200	0.843600
H251	H25	0.549300	0.093100	0.911300
H261	H26	0.649100	0.189600	0.018300
C201	C20	0.683500	0.153800	0.816300
H271	H27	0.692600	0.093100	0.858800
H281	H28	0.719800	0.152500	0.757500
N131	N13	0.924800	0.402500	0.169000
N141	N14	0.948700	0.458500	0.087100
N151	N15	0.915500	0.561500	0.213000
C211	C21	0.906800	0.465600	0.243700
H291	H29	0.890000	0.445900	0.310200
C221	C22	0.942800	0.554200	0.115000
H301	H30	0.955800	0.609900	0.072500
C231	C23	0.901100	0.655000	0.276500
C241	C24	0.958600	0.654200	0.369000
H311	H31	0.012400	0.654200	0.343600
H321	H32	0.950700	0.593100	0.411300
H331	H33	0.850900	0.689600	0.518300
C251	C25	0.816500	0.653800	0.316300
H341	H34	0.807400	0.593100	0.358800
H351	H35	0.780200	0.652500	0.257500
N161	N16	0.575200	0.597500	0.669000
N171	N17	0.551300	0.541500	0.587100
N181	N18	0.584500	0.438500	0.713000
C261	C26	0.593200	0.534400	0.743700
H361	H36	0.610000	0.554100	0.810200
C271	C27	0.557200	0.445800	0.615000
H371	H37	0.544200	0.390100	0.572500
C281	C28	0.598900	0.345000	0.776500
C291	C29	0.541400	0.345800	0.869000
H381	H38	0.487600	0.345800	0.843600
H391	H39	0.549300	0.406900	0.911300
H401	H40	0.649100	0.310400	0.018300
C301	C30	0.683500	0.346200	0.816300
H411	H41	0.692600	0.406900	0.858800
H421	H42	0.719800	0.347500	0.757500
N191	N19	0.075200	0.902500	0.831000
N201	N20	0.051300	0.958500	0.912900
N211	N21	0.084500	0.061500	0.787000
C311	C31	0.093200	0.965600	0.756300
H431	H43	0.110000	0.945900	0.689800
C321	C32	0.057200	0.054200	0.885000
H441	H44	0.044200	0.109900	0.927500
C331	C33	0.098900	0.155000	0.723500
C341	C34	0.041400	0.154200	0.631000
H451	H45	0.987600	0.154200	0.656400
H461	H46	0.049300	0.093100	0.588700
H471	H47	0.149100	0.189600	0.481700
C351	C35	0.183500	0.153800	0.683700
H481	H48	0.192600	0.093100	0.641200
H491	H49	0.219800	0.152500	0.742500
N221	N22	0.424800	0.097500	0.331000
N231	N23	0.448700	0.041500	0.412900
N241	N24	0.415500	0.938500	0.287000
C361	C36	0.406800	0.034400	0.256300
H501	H50	0.390000	0.054100	0.189800
C371	C37	0.442800	0.945800	0.385000
H511	H51	0.455800	0.890100	0.427500
C381	C38	0.401100	0.845000	0.223500
C391	C39	0.458600	0.845800	0.131000
H521	H52	0.512400	0.845800	0.156400
H531	H53	0.450700	0.906900	0.088700
H541	H54	0.350900	0.810400	0.981700
C401	C40	0.316500	0.846200	0.183700
H551	H55	0.307400	0.906900	0.141200
H561	H56	0.280200	0.847500	0.242500
Cu11	Cu1	0.066160	0.750000	0.836150
Cu21	Cu2	0.433840	0.250000	0.336150
Cu31	Cu3	0.933840	0.250000	0.163850
Cu41	Cu4	0.566160	0.750000	0.663850
N251	N25	0.956200	0.250000	0.316200
N261	N26	0.894100	0.250000	0.383500
N271	N27	0.002400	0.250000	0.474600
N281	N28	0.377400	0.250000	0.471900
N291	N29	0.406100	0.250000	0.572200
N301	N30	0.277500	0.250000	0.577400
C411	C41	0.021600	0.250000	0.371800
H571	H57	0.072500	0.250000	0.344700
C421	C42	0.923200	0.250000	0.474300
H581	H58	0.892900	0.250000	0.535200
C431	C43	0.301400	0.250000	0.477500
H591	H59	0.267900	0.250000	0.419700
C441	C44	0.343900	0.250000	0.632800
H601	H60	0.345800	0.250000	0.705800
C451	C45	0.057000	0.250000	0.565800
C461	C46	0.140200	0.250000	0.524600
C471	C47	0.196800	0.250000	0.618200
C481	C48	0.085800	0.250000	0.789800
H611	H61	0.122000	0.250000	0.848700
H621	H62	0.032500	0.250000	0.817300
N311	N31	0.543800	0.750000	0.816200
N321	N32	0.605900	0.750000	0.883500
N331	N33	0.497600	0.750000	0.974600
N341	N34	0.122600	0.750000	0.971900
N351	N35	0.093900	0.750000	0.072200
N361	N36	0.222500	0.750000	0.077400
C491	C49	0.478400	0.750000	0.871800
H631	H63	0.427500	0.750000	0.844700
C501	C50	0.576800	0.750000	0.974300
H641	H64	0.607100	0.750000	0.035200
C511	C51	0.198600	0.750000	0.977500
H651	H65	0.232100	0.750000	0.919700
C521	C52	0.156100	0.750000	0.132800
H661	H66	0.154200	0.750000	0.205800
C531	C53	0.443000	0.750000	0.065800
C541	C54	0.359800	0.750000	0.024600
C551	C55	0.303200	0.750000	0.118200
C561	C56	0.414200	0.750000	0.289800
H671	H67	0.378000	0.750000	0.348700
H681	H68	0.467500	0.750000	0.317300
N371	N37	0.043800	0.750000	0.683800
N381	N38	0.105900	0.750000	0.616500
N391	N39	0.997600	0.750000	0.525400
N401	N40	0.622600	0.750000	0.528100
N411	N41	0.593900	0.750000	0.427800
N421	N42	0.722500	0.750000	0.422600
C571	C57	0.978400	0.750000	0.628200
H691	H69	0.927500	0.750000	0.655300
C581	C58	0.076800	0.750000	0.525700
H701	H70	0.107100	0.750000	0.464800
C591	C59	0.698600	0.750000	0.522500
H711	H71	0.732100	0.750000	0.580300
C601	C60	0.656100	0.750000	0.367200
H721	H72	0.654200	0.750000	0.294200
C611	C61	0.943000	0.750000	0.434200
C621	C62	0.859800	0.750000	0.475400
C631	C63	0.803200	0.750000	0.381800
C641	C64	0.914200	0.750000	0.210200
H731	H73	0.878000	0.750000	0.151300
H741	H74	0.967500	0.750000	0.182700
N431	N43	0.456200	0.250000	0.183800
N441	N44	0.394100	0.250000	0.116500
N451	N45	0.502400	0.250000	0.025400
N461	N46	0.877400	0.250000	0.028100
N471	N47	0.906100	0.250000	0.927800
N481	N48	0.777500	0.250000	0.922600
C651	C65	0.521600	0.250000	0.128200
H751	H75	0.572500	0.250000	0.155300
C661	C66	0.423200	0.250000	0.025700
H761	H76	0.392900	0.250000	0.964800
C671	C67	0.801400	0.250000	0.022500
H771	H77	0.767900	0.250000	0.080300
C681	C68	0.843900	0.250000	0.867200
H781	H78	0.845800	0.250000	0.794200
C691	C69	0.557000	0.250000	0.934200
C701	C70	0.640200	0.250000	0.975400
C711	C71	0.696800	0.250000	0.881800
C721	C72	0.585800	0.250000	0.710200
H791	H79	0.622000	0.250000	0.651300
H801	H80	0.532500	0.250000	0.682700
