data_KEJBIL_clean_PM
_symmetry_space_group_name_H-M	'P1'
_cell_length_a	8.317600
_cell_length_b	9.153900
_cell_length_c	12.630200
_cell_angle_alpha	90.000000
_cell_angle_beta	90.000000
_cell_angle_gamma	90.000000
_symmetry_Int_Tables_number 1

loop_
_symmetry_equiv_pos_as_xyz
'x,y,z'

loop_
_atom_site_label
_atom_site_type_symbol
_atom_site_fract_x
_atom_site_fract_y
_atom_site_fract_z
V11	V1	0.968670	0.210280	0.002230
V21	V2	0.733540	0.554640	0.894310
P11	P1	0.255810	0.065510	0.866390
O11	O1	0.934200	0.381900	0.914600
O21	O2	0.264500	0.941900	0.948500
O31	O3	0.097700	0.154000	0.877300
O41	O4	0.399900	0.168900	0.881100
O51	O5	0.258600	0.996800	0.756400
O61	O6	0.098200	0.115900	0.081800
V31	V3	0.531330	0.789720	0.502230
V41	V4	0.766460	0.445360	0.394310
P21	P2	0.244190	0.934490	0.366390
O71	O7	0.565800	0.618100	0.414600
O81	O8	0.235500	0.058100	0.448500
O91	O9	0.402300	0.846000	0.377300
O101	O10	0.100100	0.831100	0.381100
O111	O11	0.241400	0.003200	0.256400
O121	O12	0.401800	0.884100	0.581800
V51	V5	0.031330	0.710280	0.497770
V61	V6	0.266460	0.054640	0.605690
P31	P3	0.744190	0.565510	0.633610
O131	O13	0.065800	0.881900	0.585400
O141	O14	0.735500	0.441900	0.551500
O151	O15	0.902300	0.654000	0.622700
O161	O16	0.600100	0.668900	0.618900
O171	O17	0.741400	0.496800	0.743600
O181	O18	0.901800	0.615900	0.418200
V71	V7	0.468670	0.289720	0.997770
V81	V8	0.233540	0.945360	0.105690
P41	P4	0.755810	0.434490	0.133610
O191	O19	0.434200	0.118100	0.085400
O201	O20	0.764500	0.558100	0.051500
O211	O21	0.597700	0.346000	0.122700
O221	O22	0.899900	0.331100	0.118900
O231	O23	0.758600	0.503200	0.243600
O241	O24	0.598200	0.384100	0.918200
