data_KEJQAR01_clean_PM
_symmetry_space_group_name_H-M	'P1'
_cell_length_a	16.770500
_cell_length_b	16.770500
_cell_length_c	16.770500
_cell_angle_alpha	90.000000
_cell_angle_beta	90.000000
_cell_angle_gamma	90.000000
_symmetry_Int_Tables_number 1

loop_
_symmetry_equiv_pos_as_xyz
'x,y,z'

loop_
_atom_site_label
_atom_site_type_symbol
_atom_site_fract_x
_atom_site_fract_y
_atom_site_fract_z
O11	O1	0.980020	0.406580	0.696340
O21	O2	0.480020	0.906580	0.196340
O31	O3	0.019980	0.593420	0.696340
O41	O4	0.519980	0.093420	0.196340
O51	O5	0.019980	0.406580	0.303660
O61	O6	0.519980	0.906580	0.803660
O71	O7	0.980020	0.593420	0.303660
O81	O8	0.480020	0.093420	0.803660
O91	O9	0.696340	0.980020	0.406580
O101	O10	0.196340	0.480020	0.906580
O111	O11	0.696340	0.019980	0.593420
O121	O12	0.196340	0.519980	0.093420
O131	O13	0.303660	0.019980	0.406580
O141	O14	0.803660	0.519980	0.906580
O151	O15	0.303660	0.980020	0.593420
O161	O16	0.803660	0.480020	0.093420
O171	O17	0.406580	0.696340	0.980020
O181	O18	0.906580	0.196340	0.480020
O191	O19	0.593420	0.696340	0.019980
O201	O20	0.093420	0.196340	0.519980
O211	O21	0.406580	0.303660	0.019980
O221	O22	0.906580	0.803660	0.519980
O231	O23	0.593420	0.303660	0.980020
O241	O24	0.093420	0.803660	0.480020
O251	O25	0.406580	0.980020	0.696340
O261	O26	0.906580	0.480020	0.196340
O271	O27	0.593420	0.019980	0.696340
O281	O28	0.093420	0.519980	0.196340
O291	O29	0.406580	0.019980	0.303660
O301	O30	0.906580	0.519980	0.803660
O311	O31	0.593420	0.980020	0.303660
O321	O32	0.093420	0.480020	0.803660
O331	O33	0.980020	0.696340	0.406580
O341	O34	0.480020	0.196340	0.906580
O351	O35	0.019980	0.696340	0.593420
O361	O36	0.519980	0.196340	0.093420
O371	O37	0.019980	0.303660	0.406580
O381	O38	0.519980	0.803660	0.906580
O391	O39	0.980020	0.303660	0.593420
O401	O40	0.480020	0.803660	0.093420
O411	O41	0.696340	0.406580	0.980020
O421	O42	0.196340	0.906580	0.480020
O431	O43	0.696340	0.593420	0.019980
O441	O44	0.196340	0.093420	0.519980
O451	O45	0.303660	0.406580	0.019980
O461	O46	0.803660	0.906580	0.519980
O471	O47	0.303660	0.593420	0.980020
O481	O48	0.803660	0.093420	0.480020
Al11	Al1	0.000000	0.500000	0.500000
Al21	Al2	0.500000	0.000000	0.000000
Al31	Al3	0.500000	0.000000	0.500000
Al41	Al4	0.000000	0.500000	0.000000
Al51	Al5	0.500000	0.500000	0.000000
Al61	Al6	0.000000	0.000000	0.500000
Al71	Al7	0.000000	0.500000	0.750000
Al81	Al8	0.000000	0.500000	0.250000
Al91	Al9	0.750000	0.000000	0.500000
Al101	Al10	0.250000	0.000000	0.500000
Al111	Al11	0.500000	0.750000	0.000000
Al121	Al12	0.500000	0.250000	0.000000
Al131	Al13	0.500000	0.000000	0.750000
Al141	Al14	0.500000	0.000000	0.250000
Al151	Al15	0.000000	0.750000	0.500000
Al161	Al16	0.000000	0.250000	0.500000
Al171	Al17	0.750000	0.500000	0.000000
Al181	Al18	0.250000	0.500000	0.000000
P11	P1	0.933270	0.376900	0.623100
O491	O49	0.848160	0.356840	0.643160
O501	O50	0.936210	0.441920	0.558080
P21	P2	0.433270	0.876900	0.123100
O511	O51	0.348160	0.856840	0.143160
O521	O52	0.436210	0.941920	0.058080
P31	P3	0.066730	0.623100	0.623100
O531	O53	0.151840	0.643160	0.643160
O541	O54	0.063790	0.558080	0.558080
P41	P4	0.566730	0.123100	0.123100
O551	O55	0.651840	0.143160	0.143160
O561	O56	0.563790	0.058080	0.058080
P51	P5	0.066730	0.376900	0.376900
O571	O57	0.151840	0.356840	0.356840
O581	O58	0.063790	0.441920	0.441920
P61	P6	0.566730	0.876900	0.876900
O591	O59	0.651840	0.856840	0.856840
O601	O60	0.563790	0.941920	0.941920
P71	P7	0.933270	0.623100	0.376900
O611	O61	0.848160	0.643160	0.356840
O621	O62	0.936210	0.558080	0.441920
P81	P8	0.433270	0.123100	0.876900
O631	O63	0.348160	0.143160	0.856840
O641	O64	0.436210	0.058080	0.941920
P91	P9	0.623100	0.933270	0.376900
O651	O65	0.643160	0.848160	0.356840
O661	O66	0.558080	0.936210	0.441920
P101	P10	0.123100	0.433270	0.876900
O671	O67	0.143160	0.348160	0.856840
O681	O68	0.058080	0.436210	0.941920
P111	P11	0.623100	0.066730	0.623100
O691	O69	0.643160	0.151840	0.643160
O701	O70	0.558080	0.063790	0.558080
P121	P12	0.123100	0.566730	0.123100
O711	O71	0.143160	0.651840	0.143160
O721	O72	0.058080	0.563790	0.058080
P131	P13	0.376900	0.066730	0.376900
O731	O73	0.356840	0.151840	0.356840
O741	O74	0.441920	0.063790	0.441920
P141	P14	0.876900	0.566730	0.876900
O751	O75	0.856840	0.651840	0.856840
O761	O76	0.941920	0.563790	0.941920
P151	P15	0.376900	0.933270	0.623100
O771	O77	0.356840	0.848160	0.643160
O781	O78	0.441920	0.936210	0.558080
P161	P16	0.876900	0.433270	0.123100
O791	O79	0.856840	0.348160	0.143160
O801	O80	0.941920	0.436210	0.058080
P171	P17	0.376900	0.623100	0.933270
O811	O81	0.356840	0.643160	0.848160
O821	O82	0.441920	0.558080	0.936210
P181	P18	0.876900	0.123100	0.433270
O831	O83	0.856840	0.143160	0.348160
O841	O84	0.941920	0.058080	0.436210
P191	P19	0.623100	0.623100	0.066730
O851	O85	0.643160	0.643160	0.151840
O861	O86	0.558080	0.558080	0.063790
P201	P20	0.123100	0.123100	0.566730
O871	O87	0.143160	0.143160	0.651840
O881	O88	0.058080	0.058080	0.563790
P211	P21	0.376900	0.376900	0.066730
O891	O89	0.356840	0.356840	0.151840
O901	O90	0.441920	0.441920	0.063790
P221	P22	0.876900	0.876900	0.566730
O911	O91	0.856840	0.856840	0.651840
O921	O92	0.941920	0.941920	0.563790
P231	P23	0.623100	0.376900	0.933270
O931	O93	0.643160	0.356840	0.848160
O941	O94	0.558080	0.441920	0.936210
P241	P24	0.123100	0.876900	0.433270
O951	O95	0.143160	0.856840	0.348160
O961	O96	0.058080	0.941920	0.436210
