data_KENJEU_clean_PM
_symmetry_space_group_name_H-M	'P1'
_cell_length_a	13.688300
_cell_length_b	24.972000
_cell_length_c	18.272700
_cell_angle_alpha	101.097000
_cell_angle_beta	90.000000
_cell_angle_gamma	90.000000
_symmetry_Int_Tables_number 1

loop_
_symmetry_equiv_pos_as_xyz
'x,y,z'

loop_
_atom_site_label
_atom_site_type_symbol
_atom_site_fract_x
_atom_site_fract_y
_atom_site_fract_z
Zn11	Zn1	0.185350	0.347690	0.628180
Zn21	Zn2	0.894650	0.961600	0.772720
Zn31	Zn3	0.787300	0.338660	0.070780
Zn41	Zn4	0.685350	0.652310	0.871820
Zn51	Zn5	0.394650	0.038400	0.727280
Zn61	Zn6	0.287300	0.661340	0.429220
Zn71	Zn7	0.814650	0.652310	0.371820
Zn81	Zn8	0.105350	0.038400	0.227280
Zn91	Zn9	0.212700	0.661340	0.929220
Zn101	Zn10	0.314650	0.347690	0.128180
Zn111	Zn11	0.605350	0.961600	0.272720
Zn121	Zn12	0.712700	0.338660	0.570780
H11	H1	0.019500	0.154400	0.613800
H21	H2	0.886700	0.024400	0.490300
H31	H3	0.887600	0.168100	0.422700
H41	H4	0.116400	0.223800	0.589800
H51	H5	0.987100	0.347700	0.530000
H61	H6	0.889300	0.267000	0.480500
H71	H7	0.868600	0.003500	0.618100
H81	H8	0.089300	0.031800	0.754600
H91	H9	0.110900	0.089000	0.663200
H101	H10	0.742900	0.008800	0.415700
H111	H11	0.726700	0.063600	0.230100
H121	H12	0.848600	0.118100	0.307500
H131	H13	0.502400	0.317100	0.354800
H141	H14	0.541500	0.452100	0.269100
H151	H15	0.405100	0.461800	0.465900
H161	H16	0.283200	0.405000	0.508800
H171	H17	0.377500	0.271900	0.569700
H181	H18	0.490500	0.291600	0.476100
H191	H19	0.637400	0.404600	0.187200
H201	H20	0.578600	0.268500	0.257600
H211	H21	0.693500	0.249100	0.155000
H221	H22	0.323800	0.537500	0.422100
H231	H23	0.493400	0.637500	0.342200
H241	H24	0.573700	0.549000	0.318200
H251	H25	0.095700	0.526000	0.701700
H261	H26	0.262000	0.549400	0.697600
H271	H27	0.257300	0.541000	0.610300
H281	H28	0.246800	0.632100	0.660300
H291	H29	0.157200	0.621900	0.709200
H301	H30	0.092900	0.654300	0.614100
H311	H31	0.991100	0.588000	0.634900
H321	H32	0.998700	0.578400	0.547800
H331	H33	0.099700	0.506800	0.544700
H341	H34	0.008300	0.497700	0.592400
H351	H35	0.208400	0.288700	0.837900
H361	H36	0.204200	0.182800	0.748600
H371	H37	0.112700	0.214500	0.786400
H381	H38	0.169600	0.208000	0.904100
H391	H39	0.165400	0.149200	0.855000
H401	H40	0.311000	0.165900	0.924400
H411	H41	0.428500	0.224400	0.887300
H421	H42	0.336400	0.255700	0.924800
H431	H43	0.373300	0.231500	0.769900
H441	H44	0.375700	0.290200	0.819600
H451	H45	0.519500	0.845600	0.886200
H461	H46	0.386700	0.975600	0.009700
H471	H47	0.387600	0.831900	0.077300
H481	H48	0.616400	0.776200	0.910200
H491	H49	0.487100	0.652300	0.970000
H501	H50	0.389300	0.733000	0.019500
H511	H51	0.368600	0.996500	0.881900
H521	H52	0.589300	0.968200	0.745400
H531	H53	0.610900	0.911000	0.836800
H541	H54	0.242900	0.991200	0.084300
H551	H55	0.226700	0.936400	0.269900
H561	H56	0.348600	0.881900	0.192500
H571	H57	0.002400	0.682900	0.145200
H581	H58	0.041500	0.547900	0.230900
H591	H59	0.905100	0.538200	0.034100
H601	H60	0.783200	0.595000	0.991200
H611	H61	0.877500	0.728100	0.930300
H621	H62	0.990500	0.708400	0.023900
H631	H63	0.137400	0.595400	0.312800
H641	H64	0.078600	0.731500	0.242400
H651	H65	0.193500	0.750900	0.345000
H661	H66	0.823800	0.462500	0.077900
H671	H67	0.993400	0.362500	0.157800
H681	H68	0.073700	0.451000	0.181800
H691	H69	0.595700	0.474000	0.798300
H701	H70	0.762000	0.450600	0.802400
H711	H71	0.757300	0.459000	0.889700
H721	H72	0.746800	0.367900	0.839700
H731	H73	0.657200	0.378100	0.790800
H741	H74	0.592900	0.345700	0.885900
H751	H75	0.491100	0.412000	0.865100
H761	H76	0.498700	0.421600	0.952200
H771	H77	0.599700	0.493200	0.955300
H781	H78	0.508300	0.502300	0.907600
H791	H79	0.708400	0.711300	0.662100
H801	H80	0.704200	0.817200	0.751400
H811	H81	0.612700	0.785500	0.713600
H821	H82	0.669600	0.792000	0.595900
H831	H83	0.665400	0.850800	0.645000
H841	H84	0.811000	0.834100	0.575600
H851	H85	0.928500	0.775600	0.612700
H861	H86	0.836400	0.744300	0.575200
H871	H87	0.873300	0.768500	0.730100
H881	H88	0.875700	0.709800	0.680400
H891	H89	0.980500	0.845600	0.386200
H901	H90	0.113300	0.975600	0.509700
H911	H91	0.112400	0.831900	0.577300
H921	H92	0.883600	0.776200	0.410200
H931	H93	0.012900	0.652300	0.470000
H941	H94	0.110700	0.733000	0.519500
H951	H95	0.131400	0.996500	0.381900
H961	H96	0.910700	0.968200	0.245400
H971	H97	0.889100	0.911000	0.336800
H981	H98	0.257100	0.991200	0.584300
H991	H99	0.273300	0.936400	0.769900
H1001	H100	0.151400	0.881900	0.692500
H1011	H101	0.497600	0.682900	0.645200
H1021	H102	0.458500	0.547900	0.730900
H1031	H103	0.594900	0.538200	0.534100
H1041	H104	0.716800	0.595000	0.491200
H1051	H105	0.622500	0.728100	0.430300
H1061	H106	0.509500	0.708400	0.523900
H1071	H107	0.362600	0.595400	0.812800
H1081	H108	0.421400	0.731500	0.742400
H1091	H109	0.306500	0.750900	0.845000
H1101	H110	0.676200	0.462500	0.577900
H1111	H111	0.506600	0.362500	0.657800
H1121	H112	0.426300	0.451000	0.681800
H1131	H113	0.904300	0.474000	0.298300
H1141	H114	0.738000	0.450600	0.302400
H1151	H115	0.742700	0.459000	0.389700
H1161	H116	0.753200	0.367900	0.339700
H1171	H117	0.842800	0.378100	0.290800
H1181	H118	0.907100	0.345700	0.385900
H1191	H119	0.008900	0.412000	0.365100
H1201	H120	0.001300	0.421600	0.452200
H1211	H121	0.900300	0.493200	0.455300
H1221	H122	0.991700	0.502300	0.407600
H1231	H123	0.791600	0.711300	0.162100
H1241	H124	0.795800	0.817200	0.251400
H1251	H125	0.887300	0.785500	0.213600
H1261	H126	0.830400	0.792000	0.095900
H1271	H127	0.834600	0.850800	0.145000
H1281	H128	0.689000	0.834100	0.075600
H1291	H129	0.571500	0.775600	0.112700
H1301	H130	0.663600	0.744300	0.075200
H1311	H131	0.626700	0.768500	0.230100
H1321	H132	0.624300	0.709800	0.180400
H1331	H133	0.480500	0.154400	0.113800
H1341	H134	0.613300	0.024400	0.990300
H1351	H135	0.612400	0.168100	0.922700
H1361	H136	0.383600	0.223800	0.089800
H1371	H137	0.512900	0.347700	0.030000
H1381	H138	0.610700	0.267000	0.980500
H1391	H139	0.631400	0.003500	0.118100
H1401	H140	0.410700	0.031800	0.254600
H1411	H141	0.389100	0.089000	0.163200
H1421	H142	0.757100	0.008800	0.915700
H1431	H143	0.773300	0.063600	0.730100
H1441	H144	0.651400	0.118100	0.807500
H1451	H145	0.997600	0.317100	0.854800
H1461	H146	0.958500	0.452100	0.769100
H1471	H147	0.094900	0.461800	0.965900
H1481	H148	0.216800	0.405000	0.008800
H1491	H149	0.122500	0.271900	0.069700
H1501	H150	0.009500	0.291600	0.976100
H1511	H151	0.862600	0.404600	0.687200
H1521	H152	0.921400	0.268500	0.757600
H1531	H153	0.806500	0.249100	0.655000
H1541	H154	0.176200	0.537500	0.922100
H1551	H155	0.006600	0.637500	0.842200
H1561	H156	0.926300	0.549000	0.818200
H1571	H157	0.404300	0.526000	0.201700
H1581	H158	0.238000	0.549400	0.197600
H1591	H159	0.242700	0.541000	0.110300
H1601	H160	0.253200	0.632100	0.160300
H1611	H161	0.342800	0.621900	0.209200
H1621	H162	0.407100	0.654300	0.114100
H1631	H163	0.508900	0.588000	0.134900
H1641	H164	0.501300	0.578400	0.047800
H1651	H165	0.400300	0.506800	0.044700
H1661	H166	0.491700	0.497700	0.092400
H1671	H167	0.291600	0.288700	0.337900
H1681	H168	0.295800	0.182800	0.248600
H1691	H169	0.387300	0.214500	0.286400
H1701	H170	0.330400	0.208000	0.404100
H1711	H171	0.334600	0.149200	0.355000
H1721	H172	0.189000	0.165900	0.424400
H1731	H173	0.071500	0.224400	0.387300
H1741	H174	0.163600	0.255700	0.424800
H1751	H175	0.126700	0.231500	0.269900
H1761	H176	0.124300	0.290200	0.319600
C11	C1	0.961000	0.169580	0.519300
C21	C2	0.984800	0.138860	0.571200
C31	C3	0.957300	0.085110	0.560300
C41	C4	0.903900	0.061110	0.498200
C51	C5	0.877100	0.093530	0.448700
C61	C6	0.905400	0.147180	0.457500
C71	C7	0.072200	0.244880	0.568900
C81	C8	0.001100	0.312360	0.535800
C91	C9	0.946400	0.268050	0.508400
C101	C10	0.926400	0.017490	0.640800
C111	C11	0.047100	0.033300	0.715100
C121	C12	0.059600	0.064800	0.665000
C131	C13	0.753000	0.029320	0.379000
C141	C14	0.745000	0.059500	0.277700
C151	C15	0.812400	0.089800	0.320200
C161	C16	0.443700	0.385550	0.417900
C171	C17	0.494000	0.354410	0.357800
C181	C18	0.530800	0.379670	0.303300
C191	C19	0.517700	0.435180	0.306600
C201	C20	0.468200	0.464760	0.367100
C211	C21	0.434200	0.440790	0.424000
C221	C22	0.320600	0.374610	0.512700
C231	C23	0.373100	0.301400	0.545700
C241	C24	0.435700	0.311950	0.494000
C251	C25	0.637900	0.368200	0.192200
C261	C26	0.604500	0.293580	0.231300
C271	C27	0.668100	0.283400	0.174900
C281	C28	0.376200	0.551510	0.399400
C291	C29	0.469300	0.605890	0.355400
C301	C30	0.514000	0.557220	0.342100
C311	C31	0.132100	0.513720	0.655300
C321	C32	0.219900	0.552200	0.655800
C331	C33	0.189200	0.609700	0.661600
C341	C34	0.120800	0.617700	0.599800
C351	C35	0.034900	0.576900	0.593000
C361	C36	0.065900	0.520100	0.591300
C371	C37	0.166000	0.455300	0.654700
C381	C38	0.177000	0.616000	0.525700
C391	C39	0.236100	0.261990	0.796800
C401	C40	0.182000	0.208500	0.792200
C411	C41	0.198200	0.184200	0.861200
C421	C42	0.305600	0.176600	0.875700
C431	C43	0.359200	0.230300	0.881100
C441	C44	0.343600	0.254900	0.812600
C451	C45	0.226600	0.284000	0.725900
C461	C46	0.354700	0.130600	0.817200
C471	C47	0.461000	0.830420	0.980700
C481	C48	0.484800	0.861140	0.928800
C491	C49	0.457300	0.914890	0.939700
C501	C50	0.403900	0.938890	0.001800
C511	C51	0.377100	0.906470	0.051300
C521	C52	0.405400	0.852820	0.042500
C531	C53	0.572200	0.755120	0.931100
C541	C54	0.501100	0.687640	0.964200
C551	C55	0.446400	0.731950	0.991600
C561	C56	0.426400	0.982510	0.859200
C571	C57	0.547100	0.966700	0.784900
C581	C58	0.559600	0.935200	0.835000
C591	C59	0.253000	0.970680	0.121000
C601	C60	0.245000	0.940500	0.222300
C611	C61	0.312400	0.910200	0.179800
C621	C62	0.943700	0.614450	0.082100
C631	C63	0.994000	0.645590	0.142200
C641	C64	0.030800	0.620330	0.196700
C651	C65	0.017700	0.564820	0.193400
C661	C66	0.968200	0.535240	0.132900
C671	C67	0.934200	0.559210	0.076000
C681	C68	0.820600	0.625390	0.987300
C691	C69	0.873100	0.698600	0.954300
C701	C70	0.935700	0.688050	0.006000
C711	C71	0.137900	0.631800	0.307800
C721	C72	0.104500	0.706420	0.268700
C731	C73	0.168100	0.716600	0.325100
C741	C74	0.876200	0.448490	0.100600
C751	C75	0.969300	0.394110	0.144600
C761	C76	0.014000	0.442780	0.157900
C771	C77	0.632100	0.486280	0.844700
C781	C78	0.719900	0.447800	0.844200
C791	C79	0.689200	0.390300	0.838400
C801	C80	0.620800	0.382300	0.900200
C811	C81	0.534900	0.423100	0.907000
C821	C82	0.565900	0.479900	0.908700
C831	C83	0.666000	0.544700	0.845300
C841	C84	0.677000	0.384000	0.974300
C851	C85	0.736100	0.738010	0.703200
C861	C86	0.682000	0.791500	0.707800
C871	C87	0.698200	0.815800	0.638800
C881	C88	0.805600	0.823400	0.624300
C891	C89	0.859200	0.769700	0.618900
C901	C90	0.843600	0.745100	0.687400
C911	C91	0.726600	0.716000	0.774100
C921	C92	0.854700	0.869400	0.682800
C931	C93	0.039000	0.830420	0.480700
C941	C94	0.015200	0.861140	0.428800
C951	C95	0.042700	0.914890	0.439700
C961	C96	0.096100	0.938890	0.501800
C971	C97	0.122900	0.906470	0.551300
C981	C98	0.094600	0.852820	0.542500
C991	C99	0.927800	0.755120	0.431100
C1001	C100	0.998900	0.687640	0.464200
C1011	C101	0.053600	0.731950	0.491600
C1021	C102	0.073600	0.982510	0.359200
C1031	C103	0.952900	0.966700	0.284900
C1041	C104	0.940400	0.935200	0.335000
C1051	C105	0.247000	0.970680	0.621000
C1061	C106	0.255000	0.940500	0.722300
C1071	C107	0.187600	0.910200	0.679800
C1081	C108	0.556300	0.614450	0.582100
C1091	C109	0.506000	0.645590	0.642200
C1101	C110	0.469200	0.620330	0.696700
C1111	C111	0.482300	0.564820	0.693400
C1121	C112	0.531800	0.535240	0.632900
C1131	C113	0.565800	0.559210	0.576000
C1141	C114	0.679400	0.625390	0.487300
C1151	C115	0.626900	0.698600	0.454300
C1161	C116	0.564300	0.688050	0.506000
C1171	C117	0.362100	0.631800	0.807800
C1181	C118	0.395500	0.706420	0.768700
C1191	C119	0.331900	0.716600	0.825100
C1201	C120	0.623800	0.448490	0.600600
C1211	C121	0.530700	0.394110	0.644600
C1221	C122	0.486000	0.442780	0.657900
C1231	C123	0.867900	0.486280	0.344700
C1241	C124	0.780100	0.447800	0.344200
C1251	C125	0.810800	0.390300	0.338400
C1261	C126	0.879200	0.382300	0.400200
C1271	C127	0.965100	0.423100	0.407000
C1281	C128	0.934100	0.479900	0.408700
C1291	C129	0.834000	0.544700	0.345300
C1301	C130	0.823000	0.384000	0.474300
C1311	C131	0.763900	0.738010	0.203200
C1321	C132	0.818000	0.791500	0.207800
C1331	C133	0.801800	0.815800	0.138800
C1341	C134	0.694400	0.823400	0.124300
C1351	C135	0.640800	0.769700	0.118900
C1361	C136	0.656400	0.745100	0.187400
C1371	C137	0.773400	0.716000	0.274100
C1381	C138	0.645300	0.869400	0.182800
C1391	C139	0.539000	0.169580	0.019300
C1401	C140	0.515200	0.138860	0.071200
C1411	C141	0.542700	0.085110	0.060300
C1421	C142	0.596100	0.061110	0.998200
C1431	C143	0.622900	0.093530	0.948700
C1441	C144	0.594600	0.147180	0.957500
C1451	C145	0.427800	0.244880	0.068900
C1461	C146	0.498900	0.312360	0.035800
C1471	C147	0.553600	0.268050	0.008400
C1481	C148	0.573600	0.017490	0.140800
C1491	C149	0.452900	0.033300	0.215100
C1501	C150	0.440400	0.064800	0.165000
C1511	C151	0.747000	0.029320	0.879000
C1521	C152	0.755000	0.059500	0.777700
C1531	C153	0.687600	0.089800	0.820200
C1541	C154	0.056300	0.385550	0.917900
C1551	C155	0.006000	0.354410	0.857800
C1561	C156	0.969200	0.379670	0.803300
C1571	C157	0.982300	0.435180	0.806600
C1581	C158	0.031800	0.464760	0.867100
C1591	C159	0.065800	0.440790	0.924000
C1601	C160	0.179400	0.374610	0.012700
C1611	C161	0.126900	0.301400	0.045700
C1621	C162	0.064300	0.311950	0.994000
C1631	C163	0.862100	0.368200	0.692200
C1641	C164	0.895500	0.293580	0.731300
C1651	C165	0.831900	0.283400	0.674900
C1661	C166	0.123800	0.551510	0.899400
C1671	C167	0.030700	0.605890	0.855400
C1681	C168	0.986000	0.557220	0.842100
C1691	C169	0.367900	0.513720	0.155300
C1701	C170	0.280100	0.552200	0.155800
C1711	C171	0.310800	0.609700	0.161600
C1721	C172	0.379200	0.617700	0.099800
C1731	C173	0.465100	0.576900	0.093000
C1741	C174	0.434100	0.520100	0.091300
C1751	C175	0.334000	0.455300	0.154700
C1761	C176	0.323000	0.616000	0.025700
C1771	C177	0.263900	0.261990	0.296800
C1781	C178	0.318000	0.208500	0.292200
C1791	C179	0.301800	0.184200	0.361200
C1801	C180	0.194400	0.176600	0.375700
C1811	C181	0.140800	0.230300	0.381100
C1821	C182	0.156400	0.254900	0.312600
C1831	C183	0.273400	0.284000	0.225900
C1841	C184	0.145300	0.130600	0.317200
N11	N1	0.080200	0.297700	0.573500
N21	N2	0.992400	0.224950	0.530300
N31	N3	0.963000	0.003120	0.700200
N41	N4	0.981800	0.054920	0.616300
N51	N5	0.706800	0.021130	0.315800
N61	N6	0.817700	0.071130	0.385300
N71	N7	0.301200	0.340620	0.558000
N81	N8	0.403300	0.358850	0.472200
N91	N9	0.690300	0.330250	0.150500
N101	N10	0.584800	0.348550	0.242900
N111	N11	0.383100	0.601890	0.391500
N121	N12	0.454600	0.521940	0.370500
N131	N13	0.580200	0.702300	0.926500
N141	N14	0.492400	0.775050	0.969700
N151	N15	0.463000	0.996880	0.799800
N161	N16	0.481800	0.945080	0.883700
N171	N17	0.206800	0.978870	0.184200
N181	N18	0.317700	0.928870	0.114700
N191	N19	0.801200	0.659380	0.942000
N201	N20	0.903300	0.641150	0.027800
N211	N21	0.190300	0.669750	0.349500
N221	N22	0.084800	0.651450	0.257100
N231	N23	0.883100	0.398110	0.108500
N241	N24	0.954600	0.478060	0.129500
N251	N25	0.919800	0.702300	0.426500
N261	N26	0.007600	0.775050	0.469700
N271	N27	0.037000	0.996880	0.299800
N281	N28	0.018200	0.945080	0.383700
N291	N29	0.293200	0.978870	0.684200
N301	N30	0.182300	0.928870	0.614700
N311	N31	0.698800	0.659380	0.442000
N321	N32	0.596700	0.641150	0.527800
N331	N33	0.309700	0.669750	0.849500
N341	N34	0.415200	0.651450	0.757100
N351	N35	0.616900	0.398110	0.608500
N361	N36	0.545400	0.478060	0.629500
N371	N37	0.419800	0.297700	0.073500
N381	N38	0.507600	0.224950	0.030300
N391	N39	0.537000	0.003120	0.200200
N401	N40	0.518200	0.054920	0.116300
N411	N41	0.793200	0.021130	0.815800
N421	N42	0.682300	0.071130	0.885300
N431	N43	0.198800	0.340620	0.058000
N441	N44	0.096700	0.358850	0.972200
N451	N45	0.809700	0.330250	0.650500
N461	N46	0.915200	0.348550	0.742900
N471	N47	0.116900	0.601890	0.891500
N481	N48	0.045400	0.521940	0.870500
O11	O1	0.122400	0.418090	0.624900
O21	O2	0.246000	0.448230	0.685900
O31	O3	0.234700	0.654600	0.527300
O41	O4	0.163200	0.580100	0.469900
O51	O5	0.195500	0.331910	0.729120
O61	O6	0.249600	0.254910	0.665100
O71	O7	0.442600	0.135750	0.798500
O81	O8	0.306300	0.089950	0.793900
O91	O9	0.622400	0.581910	0.875100
O101	O10	0.746000	0.551770	0.814100
O111	O11	0.734700	0.345400	0.972700
O121	O12	0.663200	0.419900	0.030100
O131	O13	0.695500	0.668090	0.770880
O141	O14	0.749600	0.745090	0.834900
O151	O15	0.942600	0.864250	0.701500
O161	O16	0.806300	0.910050	0.706100
O171	O17	0.877600	0.581910	0.375100
O181	O18	0.754000	0.551770	0.314100
O191	O19	0.765300	0.345400	0.472700
O201	O20	0.836800	0.419900	0.530100
O211	O21	0.804500	0.668090	0.270880
O221	O22	0.750400	0.745090	0.334900
O231	O23	0.557400	0.864250	0.201500
O241	O24	0.693700	0.910050	0.206100
O251	O25	0.377600	0.418090	0.124900
O261	O26	0.254000	0.448230	0.185900
O271	O27	0.265300	0.654600	0.027300
O281	O28	0.336800	0.580100	0.969900
O291	O29	0.304500	0.331910	0.229120
O301	O30	0.250400	0.254910	0.165100
O311	O31	0.057400	0.135750	0.298500
O321	O32	0.193700	0.089950	0.293900
