data_KESGAS_clean_PM
_symmetry_space_group_name_H-M	'P1'
_cell_length_a	8.707000
_cell_length_b	11.678000
_cell_length_c	28.005000
_cell_angle_alpha	90.000000
_cell_angle_beta	90.000000
_cell_angle_gamma	104.200000
_symmetry_Int_Tables_number 1

loop_
_symmetry_equiv_pos_as_xyz
'x,y,z'

loop_
_atom_site_label
_atom_site_type_symbol
_atom_site_fract_x
_atom_site_fract_y
_atom_site_fract_z
Mn11	Mn1	0.191940	0.365680	0.199050
Mn21	Mn2	0.308060	0.634320	0.699050
Mn31	Mn3	0.808060	0.634320	0.800950
Mn41	Mn4	0.691940	0.365680	0.300950
H11	H1	0.433400	0.496600	0.127800
H21	H2	0.632300	0.390900	0.129200
H31	H3	0.739400	0.503600	0.153200
H41	H4	0.488600	0.679500	0.018900
H51	H5	0.589600	0.666500	0.942600
H61	H6	0.986800	0.611800	0.999000
H71	H7	0.884800	0.622200	0.075000
H81	H8	0.057300	0.557000	0.144500
H91	H9	0.049900	0.750500	0.144000
H101	H10	0.344100	0.803900	0.254800
H111	H11	0.345400	0.607800	0.251600
H121	H12	0.041900	0.118500	0.148400
H131	H13	0.035200	0.923900	0.148000
H141	H14	0.347200	0.982600	0.252400
H151	H15	0.326200	0.173100	0.254600
H161	H16	0.066600	0.503400	0.627800
H171	H17	0.867700	0.609100	0.629200
H181	H18	0.760600	0.496400	0.653200
H191	H19	0.011400	0.320500	0.518900
H201	H20	0.910400	0.333500	0.442600
H211	H21	0.513200	0.388200	0.499000
H221	H22	0.615200	0.377800	0.575000
H231	H23	0.442700	0.443000	0.644500
H241	H24	0.450100	0.249500	0.644000
H251	H25	0.155900	0.196100	0.754800
H261	H26	0.154600	0.392200	0.751600
H271	H27	0.458100	0.881500	0.648400
H281	H28	0.464800	0.076100	0.648000
H291	H29	0.152800	0.017400	0.752400
H301	H30	0.173800	0.826900	0.754600
H311	H31	0.566600	0.503400	0.872200
H321	H32	0.367700	0.609100	0.870800
H331	H33	0.260600	0.496400	0.846800
H341	H34	0.511400	0.320500	0.981100
H351	H35	0.410400	0.333500	0.057400
H361	H36	0.013200	0.388200	0.001000
H371	H37	0.115200	0.377800	0.925000
H381	H38	0.942700	0.443000	0.855500
H391	H39	0.950100	0.249500	0.856000
H401	H40	0.655900	0.196100	0.745200
H411	H41	0.654600	0.392200	0.748400
H421	H42	0.958100	0.881500	0.851600
H431	H43	0.964800	0.076100	0.852000
H441	H44	0.652800	0.017400	0.747600
H451	H45	0.673800	0.826900	0.745400
H461	H46	0.933400	0.496600	0.372200
H471	H47	0.132300	0.390900	0.370800
H481	H48	0.239400	0.503600	0.346800
H491	H49	0.988600	0.679500	0.481100
H501	H50	0.089600	0.666500	0.557400
H511	H51	0.486800	0.611800	0.501000
H521	H52	0.384800	0.622200	0.425000
H531	H53	0.557300	0.557000	0.355500
H541	H54	0.549900	0.750500	0.356000
H551	H55	0.844100	0.803900	0.245200
H561	H56	0.845400	0.607800	0.248400
H571	H57	0.541900	0.118500	0.351600
H581	H58	0.535200	0.923900	0.352000
H591	H59	0.847200	0.982600	0.247600
H601	H60	0.826200	0.173100	0.245400
C11	C1	0.577900	0.406300	0.199190
C21	C2	0.631600	0.455900	0.150700
C31	C3	0.678000	0.649300	0.053800
C41	C4	0.588200	0.665000	0.014800
C51	C5	0.650400	0.658700	0.969200
C61	C6	0.798600	0.641300	0.962700
C71	C7	0.886900	0.625700	0.002800
C81	C8	0.825300	0.631100	0.048300
C91	C9	0.867700	0.639500	0.913600
C101	C10	0.116000	0.607400	0.167200
C111	C11	0.111000	0.724000	0.166800
C121	C12	0.196000	0.802600	0.200000
C131	C13	0.283900	0.755600	0.231700
C141	C14	0.283800	0.636800	0.229800
C151	C15	0.104500	0.091400	0.170500
C161	C16	0.101100	0.973500	0.169600
C171	C17	0.193100	0.928700	0.199800
C181	C18	0.280300	0.007200	0.230900
C191	C19	0.270700	0.124000	0.231000
C201	C20	0.922100	0.593700	0.699190
C211	C21	0.868400	0.544100	0.650700
C221	C22	0.822000	0.350700	0.553800
C231	C23	0.911800	0.335000	0.514800
C241	C24	0.849600	0.341300	0.469200
C251	C25	0.701400	0.358700	0.462700
C261	C26	0.613100	0.374300	0.502800
C271	C27	0.674700	0.368900	0.548300
C281	C28	0.632300	0.360500	0.413600
C291	C29	0.384000	0.392600	0.667200
C301	C30	0.389000	0.276000	0.666800
C311	C31	0.304000	0.197400	0.700000
C321	C32	0.216100	0.244400	0.731700
C331	C33	0.216200	0.363200	0.729800
C341	C34	0.395500	0.908600	0.670500
C351	C35	0.398900	0.026500	0.669600
C361	C36	0.306900	0.071300	0.699800
C371	C37	0.219700	0.992800	0.730900
C381	C38	0.229300	0.876000	0.731000
C391	C39	0.422100	0.593700	0.800810
C401	C40	0.368400	0.544100	0.849300
C411	C41	0.322000	0.350700	0.946200
C421	C42	0.411800	0.335000	0.985200
C431	C43	0.349600	0.341300	0.030800
C441	C44	0.201400	0.358700	0.037300
C451	C45	0.113100	0.374300	0.997200
C461	C46	0.174700	0.368900	0.951700
C471	C47	0.132300	0.360500	0.086400
C481	C48	0.884000	0.392600	0.832800
C491	C49	0.889000	0.276000	0.833200
C501	C50	0.804000	0.197400	0.800000
C511	C51	0.716100	0.244400	0.768300
C521	C52	0.716200	0.363200	0.770200
C531	C53	0.895500	0.908600	0.829500
C541	C54	0.898900	0.026500	0.830400
C551	C55	0.806900	0.071300	0.800200
C561	C56	0.719700	0.992800	0.769100
C571	C57	0.729300	0.876000	0.769000
C581	C58	0.077900	0.406300	0.300810
C591	C59	0.131600	0.455900	0.349300
C601	C60	0.178000	0.649300	0.446200
C611	C61	0.088200	0.665000	0.485200
C621	C62	0.150400	0.658700	0.530800
C631	C63	0.298600	0.641300	0.537300
C641	C64	0.386900	0.625700	0.497200
C651	C65	0.325300	0.631100	0.451700
C661	C66	0.367700	0.639500	0.586400
C671	C67	0.616000	0.607400	0.332800
C681	C68	0.611000	0.724000	0.333200
C691	C69	0.696000	0.802600	0.300000
C701	C70	0.783900	0.755600	0.268300
C711	C71	0.783800	0.636800	0.270200
C721	C72	0.604500	0.091400	0.329500
C731	C73	0.601100	0.973500	0.330400
C741	C74	0.693100	0.928700	0.300200
C751	C75	0.780300	0.007200	0.269100
C761	C76	0.770700	0.124000	0.269000
S11	S1	0.601100	0.659100	0.112140
S21	S2	0.898900	0.340900	0.612140
S31	S3	0.398900	0.340900	0.887860
S41	S4	0.101100	0.659100	0.387860
N11	N1	0.533600	0.527200	0.130200
N21	N2	0.199800	0.563300	0.198250
N31	N3	0.189700	0.170400	0.200430
N41	N4	0.966400	0.472800	0.630200
N51	N5	0.300200	0.436700	0.698250
N61	N6	0.310300	0.829600	0.700430
N71	N7	0.466400	0.472800	0.869800
N81	N8	0.800200	0.436700	0.801750
N91	N9	0.810300	0.829600	0.799570
N101	N10	0.033600	0.527200	0.369800
N111	N11	0.699800	0.563300	0.301750
N121	N12	0.689700	0.170400	0.299570
O11	O1	0.443300	0.406600	0.213270
O21	O2	0.678700	0.370200	0.223140
O31	O3	0.467400	0.707900	0.108100
O41	O4	0.731700	0.713000	0.141600
O51	O5	0.773500	0.630300	0.878610
O61	O6	0.012100	0.645400	0.910140
O71	O7	0.056700	0.593400	0.713270
O81	O8	0.821300	0.629800	0.723140
O91	O9	0.032600	0.292100	0.608100
O101	O10	0.768300	0.287000	0.641600
O111	O11	0.726500	0.369700	0.378610
O121	O12	0.487900	0.354600	0.410140
O131	O13	0.556700	0.593400	0.786730
O141	O14	0.321300	0.629800	0.776860
O151	O15	0.532600	0.292100	0.891900
O161	O16	0.268300	0.287000	0.858400
O171	O17	0.226500	0.369700	0.121390
O181	O18	0.987900	0.354600	0.089860
O191	O19	0.943300	0.406600	0.286730
O201	O20	0.178700	0.370200	0.276860
O211	O21	0.967400	0.707900	0.391900
O221	O22	0.231700	0.713000	0.358400
O231	O23	0.273500	0.630300	0.621390
O241	O24	0.512100	0.645400	0.589860
