data_KETHEY_clean_PM
_symmetry_space_group_name_H-M	'P1'
_cell_length_a	9.238000
_cell_length_b	9.743000
_cell_length_c	18.225000
_cell_angle_alpha	90.000000
_cell_angle_beta	90.000000
_cell_angle_gamma	104.940000
_symmetry_Int_Tables_number 1

loop_
_symmetry_equiv_pos_as_xyz
'x,y,z'

loop_
_atom_site_label
_atom_site_type_symbol
_atom_site_fract_x
_atom_site_fract_y
_atom_site_fract_z
Cd11	Cd1	0.133150	0.438120	0.933920
Cd21	Cd2	0.866850	0.061880	0.433920
Cd31	Cd3	0.866850	0.561880	0.066080
Cd41	Cd4	0.133150	0.938120	0.566080
H11	H1	0.632800	0.859500	0.666700
H21	H2	0.977500	0.202200	0.689800
H31	H3	0.749000	0.022600	0.867100
H41	H4	0.216300	0.607000	0.782800
H51	H5	0.395900	0.781500	0.725900
H61	H6	0.665700	0.776500	0.897500
H71	H7	0.475500	0.606000	0.951100
H81	H8	0.367200	0.640500	0.166700
H91	H9	0.022500	0.297800	0.189800
H101	H10	0.251000	0.477400	0.367100
H111	H11	0.783700	0.893000	0.282800
H121	H12	0.604100	0.718500	0.225900
H131	H13	0.334300	0.723500	0.397500
H141	H14	0.524500	0.894000	0.451100
H151	H15	0.367200	0.140500	0.333300
H161	H16	0.022500	0.797800	0.310200
H171	H17	0.251000	0.977400	0.132900
H181	H18	0.783700	0.393000	0.217200
H191	H19	0.604100	0.218500	0.274100
H201	H20	0.334300	0.223500	0.102500
H211	H21	0.524500	0.394000	0.048900
H221	H22	0.632800	0.359500	0.833300
H231	H23	0.977500	0.702200	0.810200
H241	H24	0.749000	0.522600	0.632900
H251	H25	0.216300	0.107000	0.717200
H261	H26	0.395900	0.281500	0.774100
H271	H27	0.665700	0.276500	0.602500
H281	H28	0.475500	0.106000	0.548900
C11	C1	0.672000	0.919500	0.772700
C21	C2	0.695300	0.926000	0.697000
C31	C3	0.810300	0.030300	0.666600
C41	C4	0.900000	0.132700	0.710500
C51	C5	0.875400	0.132700	0.785600
C61	C6	0.763400	0.024800	0.816600
C71	C7	0.307100	0.643200	0.806600
C81	C8	0.415000	0.748100	0.771800
C91	C9	0.552900	0.803400	0.806300
C101	C10	0.574200	0.745700	0.873500
C111	C11	0.459400	0.641800	0.905300
C121	C12	0.837200	0.031500	0.584400
C131	C13	0.971900	0.248700	0.834200
C141	C14	0.328000	0.580500	0.272700
C151	C15	0.304700	0.574000	0.197000
C161	C16	0.189700	0.469700	0.166600
C171	C17	0.100000	0.367300	0.210500
C181	C18	0.124600	0.367300	0.285600
C191	C19	0.236600	0.475200	0.316600
C201	C20	0.692900	0.856800	0.306600
C211	C21	0.585000	0.751900	0.271800
C221	C22	0.447100	0.696600	0.306300
C231	C23	0.425800	0.754300	0.373500
C241	C24	0.540600	0.858200	0.405300
C251	C25	0.162800	0.468500	0.084400
C261	C26	0.028100	0.251300	0.334200
C271	C27	0.328000	0.080500	0.227300
C281	C28	0.304700	0.074000	0.303000
C291	C29	0.189700	0.969700	0.333400
C301	C30	0.100000	0.867300	0.289500
C311	C31	0.124600	0.867300	0.214400
C321	C32	0.236600	0.975200	0.183400
C331	C33	0.692900	0.356800	0.193400
C341	C34	0.585000	0.251900	0.228200
C351	C35	0.447100	0.196600	0.193700
C361	C36	0.425800	0.254300	0.126500
C371	C37	0.540600	0.358200	0.094700
C381	C38	0.162800	0.968500	0.415600
C391	C39	0.028100	0.751300	0.165800
C401	C40	0.672000	0.419500	0.727300
C411	C41	0.695300	0.426000	0.803000
C421	C42	0.810300	0.530300	0.833400
C431	C43	0.900000	0.632700	0.789500
C441	C44	0.875400	0.632700	0.714400
C451	C45	0.763400	0.524800	0.683400
C461	C46	0.307100	0.143200	0.693400
C471	C47	0.415000	0.248100	0.728200
C481	C48	0.552900	0.303400	0.693700
C491	C49	0.574200	0.245700	0.626500
C501	C50	0.459400	0.141800	0.594700
C511	C51	0.837200	0.531500	0.915600
C521	C52	0.971900	0.748700	0.665800
N11	N1	0.326600	0.591200	0.872700
N21	N2	0.673400	0.908800	0.372700
N31	N3	0.673400	0.408800	0.127300
N41	N4	0.326600	0.091200	0.627300
O11	O1	0.968100	0.091500	0.561460
O21	O2	0.731600	0.976000	0.543000
O31	O3	0.077300	0.338400	0.805800
O41	O4	0.938200	0.248900	0.900700
O51	O5	0.031900	0.408500	0.061460
O61	O6	0.268400	0.524000	0.043000
O71	O7	0.922700	0.161600	0.305800
O81	O8	0.061800	0.251100	0.400700
O91	O9	0.031900	0.908500	0.438540
O101	O10	0.268400	0.024000	0.457000
O111	O11	0.922700	0.661600	0.194200
O121	O12	0.061800	0.751100	0.099300
O131	O13	0.968100	0.591500	0.938540
O141	O14	0.731600	0.476000	0.957000
O151	O15	0.077300	0.838400	0.694200
O161	O16	0.938200	0.748900	0.599300
