data_KEWZET_clean_PM
_symmetry_space_group_name_H-M	'P1'
_cell_length_a	10.913000
_cell_length_b	23.195000
_cell_length_c	10.043000
_cell_angle_alpha	90.000000
_cell_angle_beta	104.150000
_cell_angle_gamma	90.000000
_symmetry_Int_Tables_number 1

loop_
_symmetry_equiv_pos_as_xyz
'x,y,z'

loop_
_atom_site_label
_atom_site_type_symbol
_atom_site_fract_x
_atom_site_fract_y
_atom_site_fract_z
O11	O1	0.190700	0.851930	0.218120
O21	O2	0.277340	0.764100	0.225320
O31	O3	0.537760	0.721760	0.903740
O41	O4	0.656220	0.792420	0.851000
C11	C1	0.362530	0.837710	0.116610
C21	C2	0.426190	0.797730	0.055170
H11	H1	0.411900	0.758500	0.063700
C31	C3	0.511040	0.816100	0.981230
C41	C4	0.534460	0.874450	0.970800
H21	H2	0.592900	0.886600	0.923100
C51	C5	0.470800	0.915100	0.031400
C61	C6	0.384230	0.896360	0.104210
H31	H3	0.341000	0.923100	0.144500
C71	C7	0.268230	0.817430	0.193010
C81	C8	0.572730	0.772790	0.907300
C91	C9	0.491700	0.975390	0.012000
O51	O5	0.690700	0.351930	0.218120
O61	O6	0.777340	0.264100	0.225320
O71	O7	0.037760	0.221760	0.903740
O81	O8	0.156220	0.292420	0.851000
C101	C10	0.862530	0.337710	0.116610
C111	C11	0.926190	0.297730	0.055170
H41	H4	0.911900	0.258500	0.063700
C121	C12	0.011040	0.316100	0.981230
C131	C13	0.034460	0.374450	0.970800
H51	H5	0.092900	0.386600	0.923100
C141	C14	0.970800	0.415100	0.031400
C151	C15	0.884230	0.396360	0.104210
H61	H6	0.841000	0.423100	0.144500
C161	C16	0.768230	0.317430	0.193010
C171	C17	0.072730	0.272790	0.907300
C181	C18	0.991700	0.475390	0.012000
O91	O9	0.809300	0.851930	0.281880
O101	O10	0.722660	0.764100	0.274680
O111	O11	0.462240	0.721760	0.596260
O121	O12	0.343780	0.792420	0.649000
C191	C19	0.637470	0.837710	0.383390
C201	C20	0.573810	0.797730	0.444830
H71	H7	0.588100	0.758500	0.436300
C211	C21	0.488960	0.816100	0.518770
C221	C22	0.465540	0.874450	0.529200
H81	H8	0.407100	0.886600	0.576900
C231	C23	0.529200	0.915100	0.468600
C241	C24	0.615770	0.896360	0.395790
H91	H9	0.659000	0.923100	0.355500
C251	C25	0.731770	0.817430	0.306990
C261	C26	0.427270	0.772790	0.592700
C271	C27	0.508300	0.975390	0.488000
O131	O13	0.309300	0.351930	0.281880
O141	O14	0.222660	0.264100	0.274680
O151	O15	0.962240	0.221760	0.596260
O161	O16	0.843780	0.292420	0.649000
C281	C28	0.137470	0.337710	0.383390
C291	C29	0.073810	0.297730	0.444830
H101	H10	0.088100	0.258500	0.436300
C301	C30	0.988960	0.316100	0.518770
C311	C31	0.965540	0.374450	0.529200
H111	H11	0.907100	0.386600	0.576900
C321	C32	0.029200	0.415100	0.468600
C331	C33	0.115770	0.396360	0.395790
H121	H12	0.159000	0.423100	0.355500
C341	C34	0.231770	0.317430	0.306990
C351	C35	0.927270	0.272790	0.592700
C361	C36	0.008300	0.475390	0.488000
O171	O17	0.809300	0.148070	0.781880
O181	O18	0.722660	0.235900	0.774680
O191	O19	0.462240	0.278240	0.096260
O201	O20	0.343780	0.207580	0.149000
C371	C37	0.637470	0.162290	0.883390
C381	C38	0.573810	0.202270	0.944830
H131	H13	0.588100	0.241500	0.936300
C391	C39	0.488960	0.183900	0.018770
C401	C40	0.465540	0.125550	0.029200
H141	H14	0.407100	0.113400	0.076900
C411	C41	0.529200	0.084900	0.968600
C421	C42	0.615770	0.103640	0.895790
H151	H15	0.659000	0.076900	0.855500
C431	C43	0.731770	0.182570	0.806990
C441	C44	0.427270	0.227210	0.092700
C451	C45	0.508300	0.024610	0.988000
O211	O21	0.309300	0.648070	0.781880
O221	O22	0.222660	0.735900	0.774680
O231	O23	0.962240	0.778240	0.096260
O241	O24	0.843780	0.707580	0.149000
C461	C46	0.137470	0.662290	0.883390
C471	C47	0.073810	0.702270	0.944830
H161	H16	0.088100	0.741500	0.936300
C481	C48	0.988960	0.683900	0.018770
C491	C49	0.965540	0.625550	0.029200
H171	H17	0.907100	0.613400	0.076900
C501	C50	0.029200	0.584900	0.968600
C511	C51	0.115770	0.603640	0.895790
H181	H18	0.159000	0.576900	0.855500
C521	C52	0.231770	0.682570	0.806990
C531	C53	0.927270	0.727210	0.092700
C541	C54	0.008300	0.524610	0.988000
O251	O25	0.190700	0.148070	0.718120
O261	O26	0.277340	0.235900	0.725320
O271	O27	0.537760	0.278240	0.403740
O281	O28	0.656220	0.207580	0.351000
C551	C55	0.362530	0.162290	0.616610
C561	C56	0.426190	0.202270	0.555170
H191	H19	0.411900	0.241500	0.563700
C571	C57	0.511040	0.183900	0.481230
C581	C58	0.534460	0.125550	0.470800
H201	H20	0.592900	0.113400	0.423100
C591	C59	0.470800	0.084900	0.531400
C601	C60	0.384230	0.103640	0.604210
H211	H21	0.341000	0.076900	0.644500
C611	C61	0.268230	0.182570	0.693010
C621	C62	0.572730	0.227210	0.407300
C631	C63	0.491700	0.024610	0.512000
O291	O29	0.690700	0.648070	0.718120
O301	O30	0.777340	0.735900	0.725320
O311	O31	0.037760	0.778240	0.403740
O321	O32	0.156220	0.707580	0.351000
C641	C64	0.862530	0.662290	0.616610
C651	C65	0.926190	0.702270	0.555170
H221	H22	0.911900	0.741500	0.563700
C661	C66	0.011040	0.683900	0.481230
C671	C67	0.034460	0.625550	0.470800
H231	H23	0.092900	0.613400	0.423100
C681	C68	0.970800	0.584900	0.531400
C691	C69	0.884230	0.603640	0.604210
H241	H24	0.841000	0.576900	0.644500
C701	C70	0.768230	0.682570	0.693010
C711	C71	0.072730	0.727210	0.407300
C721	C72	0.991700	0.524610	0.512000
Mn11	Mn1	0.000000	0.845910	0.250000
Mn21	Mn2	0.500000	0.345910	0.250000
Mn31	Mn3	0.000000	0.154090	0.750000
Mn41	Mn4	0.500000	0.654090	0.750000
