data_KEXFIC10_clean_PM
_symmetry_space_group_name_H-M	'P1'
_cell_length_a	13.916000
_cell_length_b	26.638000
_cell_length_c	7.631000
_cell_angle_alpha	90.000000
_cell_angle_beta	90.000000
_cell_angle_gamma	90.000000
_symmetry_Int_Tables_number 1

loop_
_symmetry_equiv_pos_as_xyz
'x,y,z'

loop_
_atom_site_label
_atom_site_type_symbol
_atom_site_fract_x
_atom_site_fract_y
_atom_site_fract_z
Cd11	Cd1	0.218150	0.114770	0.133660
N11	N1	0.247400	0.172300	0.912000
N21	N2	0.234400	0.170400	0.353000
N31	N3	0.171800	0.048900	0.337000
N41	N4	0.374500	0.083000	0.129000
N51	N5	0.179600	0.058100	0.903000
N61	N6	0.052500	0.127800	0.081000
C11	C1	0.246500	0.201200	0.804000
C21	C2	0.238500	0.201200	0.458000
C31	C3	0.107600	0.030000	0.402000
C41	C4	0.423600	0.052000	0.080000
C51	C5	0.077000	0.060300	0.874000
C61	C6	0.023000	0.095800	0.939000
C71	C7	0.913700	0.097300	0.896000
Cd21	Cd2	0.281850	0.885230	0.633660
N71	N7	0.252600	0.827700	0.412000
N81	N8	0.265600	0.829600	0.853000
N91	N9	0.328200	0.951100	0.837000
N101	N10	0.125500	0.917000	0.629000
N111	N11	0.320400	0.941900	0.403000
N121	N12	0.447500	0.872200	0.581000
C81	C8	0.253500	0.798800	0.304000
C91	C9	0.261500	0.798800	0.958000
C101	C10	0.392400	0.970000	0.902000
C111	C11	0.076400	0.948000	0.580000
C121	C12	0.423000	0.939700	0.374000
C131	C13	0.477000	0.904200	0.439000
C141	C14	0.586300	0.902700	0.396000
Cd31	Cd3	0.781850	0.614770	0.866340
N131	N13	0.752600	0.672300	0.088000
N141	N14	0.765600	0.670400	0.647000
N151	N15	0.828200	0.548900	0.663000
N161	N16	0.625500	0.583000	0.871000
N171	N17	0.820400	0.558100	0.097000
N181	N18	0.947500	0.627800	0.919000
C151	C15	0.753500	0.701200	0.196000
C161	C16	0.761500	0.701200	0.542000
C171	C17	0.892400	0.530000	0.598000
C181	C18	0.576400	0.552000	0.920000
C191	C19	0.923000	0.560300	0.126000
C201	C20	0.977000	0.595800	0.061000
C211	C21	0.086300	0.597300	0.104000
Cd41	Cd4	0.718150	0.385230	0.366340
N191	N19	0.747400	0.327700	0.588000
N201	N20	0.734400	0.329600	0.147000
N211	N21	0.671800	0.451100	0.163000
N221	N22	0.874500	0.417000	0.371000
N231	N23	0.679600	0.441900	0.597000
N241	N24	0.552500	0.372200	0.419000
C221	C22	0.746500	0.298800	0.696000
C231	C23	0.738500	0.298800	0.042000
C241	C24	0.607600	0.470000	0.098000
C251	C25	0.923600	0.448000	0.420000
C261	C26	0.577000	0.439700	0.626000
C271	C27	0.523000	0.404200	0.561000
C281	C28	0.413700	0.402700	0.604000
Cd51	Cd5	0.781850	0.885230	0.866340
N251	N25	0.752600	0.827700	0.088000
N261	N26	0.765600	0.829600	0.647000
N271	N27	0.828200	0.951100	0.663000
N281	N28	0.625500	0.917000	0.871000
N291	N29	0.820400	0.941900	0.097000
N301	N30	0.947500	0.872200	0.919000
C291	C29	0.753500	0.798800	0.196000
C301	C30	0.761500	0.798800	0.542000
C311	C31	0.892400	0.970000	0.598000
C321	C32	0.576400	0.948000	0.920000
C331	C33	0.923000	0.939700	0.126000
C341	C34	0.977000	0.904200	0.061000
C351	C35	0.086300	0.902700	0.104000
Cd61	Cd6	0.718150	0.114770	0.366340
N311	N31	0.747400	0.172300	0.588000
N321	N32	0.734400	0.170400	0.147000
N331	N33	0.671800	0.048900	0.163000
N341	N34	0.874500	0.083000	0.371000
N351	N35	0.679600	0.058100	0.597000
N361	N36	0.552500	0.127800	0.419000
C361	C36	0.746500	0.201200	0.696000
C371	C37	0.738500	0.201200	0.042000
C381	C38	0.607600	0.030000	0.098000
C391	C39	0.923600	0.052000	0.420000
C401	C40	0.577000	0.060300	0.626000
C411	C41	0.523000	0.095800	0.561000
C421	C42	0.413700	0.097300	0.604000
Cd71	Cd7	0.218150	0.385230	0.133660
N371	N37	0.247400	0.327700	0.912000
N381	N38	0.234400	0.329600	0.353000
N391	N39	0.171800	0.451100	0.337000
N401	N40	0.374500	0.417000	0.129000
N411	N41	0.179600	0.441900	0.903000
N421	N42	0.052500	0.372200	0.081000
C431	C43	0.246500	0.298800	0.804000
C441	C44	0.238500	0.298800	0.458000
C451	C45	0.107600	0.470000	0.402000
C461	C46	0.423600	0.448000	0.080000
C471	C47	0.077000	0.439700	0.874000
C481	C48	0.023000	0.404200	0.939000
C491	C49	0.913700	0.402700	0.896000
Cd81	Cd8	0.281850	0.614770	0.633660
N431	N43	0.252600	0.672300	0.412000
N441	N44	0.265600	0.670400	0.853000
N451	N45	0.328200	0.548900	0.837000
N461	N46	0.125500	0.583000	0.629000
N471	N47	0.320400	0.558100	0.403000
N481	N48	0.447500	0.627800	0.581000
C501	C50	0.253500	0.701200	0.304000
C511	C51	0.261500	0.701200	0.958000
C521	C52	0.392400	0.530000	0.902000
C531	C53	0.076400	0.552000	0.580000
C541	C54	0.423000	0.560300	0.374000
C551	C55	0.477000	0.595800	0.439000
C561	C56	0.586300	0.597300	0.396000
Ni11	Ni1	0.243600	0.250000	0.629100
Ni21	Ni2	0.256400	0.750000	0.129100
Ni31	Ni3	0.756400	0.750000	0.370900
Ni41	Ni4	0.743600	0.250000	0.870900
Ni51	Ni5	0.000000	0.000000	0.500000
Ni61	Ni6	0.500000	0.000000	0.000000
Ni71	Ni7	0.000000	0.500000	0.500000
Ni81	Ni8	0.500000	0.500000	0.000000
