data_KEYMUY_clean_PM
_symmetry_space_group_name_H-M	'P1'
_cell_length_a	18.629400
_cell_length_b	9.934500
_cell_length_c	14.742400
_cell_angle_alpha	90.000000
_cell_angle_beta	90.000000
_cell_angle_gamma	90.000000
_symmetry_Int_Tables_number 1

loop_
_symmetry_equiv_pos_as_xyz
'x,y,z'

loop_
_atom_site_label
_atom_site_type_symbol
_atom_site_fract_x
_atom_site_fract_y
_atom_site_fract_z
Cd11	Cd1	0.468450	0.959310	0.103020
Na11	Na1	0.559670	0.945200	0.875700
O11	O1	0.493000	0.810000	0.994800
O21	O2	0.472900	0.686500	0.116200
O31	O3	0.457000	0.181700	0.070900
O41	O4	0.482300	0.094300	0.940100
O51	O5	0.520600	0.507700	0.735500
H11	H1	0.539100	0.582400	0.731600
O61	O6	0.575800	0.988800	0.165500
O71	O7	0.522800	0.128000	0.263200
O81	O8	0.842700	0.094200	0.109600
O91	O9	0.902400	0.067200	0.235300
O101	O10	0.736500	0.218500	0.480000
H21	H2	0.710300	0.176000	0.514400
C11	C1	0.484200	0.696800	0.033000
C21	C2	0.486600	0.573500	0.974200
C31	C3	0.479500	0.443100	0.009400
H31	H3	0.471100	0.430100	0.070900
C41	C4	0.485300	0.333200	0.951500
C51	C5	0.475100	0.192900	0.990200
C61	C6	0.499600	0.348600	0.859100
H41	H4	0.504800	0.274100	0.821400
C71	C7	0.506000	0.480000	0.824500
C81	C8	0.497300	0.590200	0.880400
H51	H5	0.498600	0.676400	0.855900
C91	C9	0.576300	0.072800	0.231500
C101	C10	0.650100	0.102900	0.269600
C111	C11	0.710600	0.086900	0.215600
H61	H6	0.705900	0.055600	0.156400
C121	C12	0.778600	0.118100	0.250300
C131	C13	0.845300	0.091000	0.194000
C141	C14	0.784400	0.165100	0.339100
H71	H7	0.829300	0.188300	0.361800
C151	C15	0.724800	0.178000	0.393700
C161	C16	0.656600	0.145700	0.358000
H81	H8	0.616000	0.153400	0.394300
Cd21	Cd2	0.531550	0.040690	0.603020
Na21	Na2	0.440330	0.054800	0.375700
O111	O11	0.507000	0.190000	0.494800
O121	O12	0.527100	0.313500	0.616200
O131	O13	0.543000	0.818300	0.570900
O141	O14	0.517700	0.905700	0.440100
O151	O15	0.479400	0.492300	0.235500
H91	H9	0.460900	0.417600	0.231600
O161	O16	0.424200	0.011200	0.665500
O171	O17	0.477200	0.872000	0.763200
O181	O18	0.157300	0.905800	0.609600
O191	O19	0.097600	0.932800	0.735300
O201	O20	0.263500	0.781500	0.980000
H101	H10	0.289700	0.824000	0.014400
C171	C17	0.515800	0.303200	0.533000
C181	C18	0.513400	0.426500	0.474200
C191	C19	0.520500	0.556900	0.509400
H111	H11	0.528900	0.569900	0.570900
C201	C20	0.514700	0.666800	0.451500
C211	C21	0.524900	0.807100	0.490200
C221	C22	0.500400	0.651400	0.359100
H121	H12	0.495200	0.725900	0.321400
C231	C23	0.494000	0.520000	0.324500
C241	C24	0.502700	0.409800	0.380400
H131	H13	0.501400	0.323600	0.355900
C251	C25	0.423700	0.927200	0.731500
C261	C26	0.349900	0.897100	0.769600
C271	C27	0.289400	0.913100	0.715600
H141	H14	0.294100	0.944400	0.656400
C281	C28	0.221400	0.881900	0.750300
C291	C29	0.154700	0.909000	0.694000
C301	C30	0.215600	0.834900	0.839100
H151	H15	0.170700	0.811700	0.861800
C311	C31	0.275200	0.822000	0.893700
C321	C32	0.343400	0.854300	0.858000
H161	H16	0.384000	0.846600	0.894300
Cd31	Cd3	0.968450	0.040690	0.103020
Na31	Na3	0.059670	0.054800	0.875700
O211	O21	0.993000	0.190000	0.994800
O221	O22	0.972900	0.313500	0.116200
O231	O23	0.957000	0.818300	0.070900
O241	O24	0.982300	0.905700	0.940100
O251	O25	0.020600	0.492300	0.735500
H171	H17	0.039100	0.417600	0.731600
O261	O26	0.075800	0.011200	0.165500
O271	O27	0.022800	0.872000	0.263200
O281	O28	0.342700	0.905800	0.109600
O291	O29	0.402400	0.932800	0.235300
O301	O30	0.236500	0.781500	0.480000
H181	H18	0.210300	0.824000	0.514400
C331	C33	0.984200	0.303200	0.033000
C341	C34	0.986600	0.426500	0.974200
C351	C35	0.979500	0.556900	0.009400
H191	H19	0.971100	0.569900	0.070900
C361	C36	0.985300	0.666800	0.951500
C371	C37	0.975100	0.807100	0.990200
C381	C38	0.999600	0.651400	0.859100
H201	H20	0.004800	0.725900	0.821400
C391	C39	0.006000	0.520000	0.824500
C401	C40	0.997300	0.409800	0.880400
H211	H21	0.998600	0.323600	0.855900
C411	C41	0.076300	0.927200	0.231500
C421	C42	0.150100	0.897100	0.269600
C431	C43	0.210600	0.913100	0.215600
H221	H22	0.205900	0.944400	0.156400
C441	C44	0.278600	0.881900	0.250300
C451	C45	0.345300	0.909000	0.194000
C461	C46	0.284400	0.834900	0.339100
H231	H23	0.329300	0.811700	0.361800
C471	C47	0.224800	0.822000	0.393700
C481	C48	0.156600	0.854300	0.358000
H241	H24	0.116000	0.846600	0.394300
Cd41	Cd4	0.031550	0.959310	0.603020
Na41	Na4	0.940330	0.945200	0.375700
O311	O31	0.007000	0.810000	0.494800
O321	O32	0.027100	0.686500	0.616200
O331	O33	0.043000	0.181700	0.570900
O341	O34	0.017700	0.094300	0.440100
O351	O35	0.979400	0.507700	0.235500
H251	H25	0.960900	0.582400	0.231600
O361	O36	0.924200	0.988800	0.665500
O371	O37	0.977200	0.128000	0.763200
O381	O38	0.657300	0.094200	0.609600
O391	O39	0.597600	0.067200	0.735300
O401	O40	0.763500	0.218500	0.980000
H261	H26	0.789700	0.176000	0.014400
C491	C49	0.015800	0.696800	0.533000
C501	C50	0.013400	0.573500	0.474200
C511	C51	0.020500	0.443100	0.509400
H271	H27	0.028900	0.430100	0.570900
C521	C52	0.014700	0.333200	0.451500
C531	C53	0.024900	0.192900	0.490200
C541	C54	0.000400	0.348600	0.359100
H281	H28	0.995200	0.274100	0.321400
C551	C55	0.994000	0.480000	0.324500
C561	C56	0.002700	0.590200	0.380400
H291	H29	0.001400	0.676400	0.355900
C571	C57	0.923700	0.072800	0.731500
C581	C58	0.849900	0.102900	0.769600
C591	C59	0.789400	0.086900	0.715600
H301	H30	0.794100	0.055600	0.656400
C601	C60	0.721400	0.118100	0.750300
C611	C61	0.654700	0.091000	0.694000
C621	C62	0.715600	0.165100	0.839100
H311	H31	0.670700	0.188300	0.861800
C631	C63	0.775200	0.178000	0.893700
C641	C64	0.843400	0.145700	0.858000
H321	H32	0.884000	0.153400	0.894300
