data_KEYROX_clean_PM
_symmetry_space_group_name_H-M	'P1'
_cell_length_a	16.995800
_cell_length_b	16.995800
_cell_length_c	16.995800
_cell_angle_alpha	90.000000
_cell_angle_beta	90.000000
_cell_angle_gamma	90.000000
_symmetry_Int_Tables_number 1

loop_
_symmetry_equiv_pos_as_xyz
'x,y,z'

loop_
_atom_site_label
_atom_site_type_symbol
_atom_site_fract_x
_atom_site_fract_y
_atom_site_fract_z
N11	N1	0.909420	0.527340	0.182040
H11	H1	0.957300	0.401000	0.106800
C11	C1	0.871200	0.597300	0.184600
H21	H2	0.881800	0.638300	0.219200
N21	N2	0.815400	0.597300	0.128800
N31	N3	0.409420	0.027340	0.682040
H31	H3	0.457300	0.901000	0.606800
C21	C2	0.371200	0.097300	0.684600
H41	H4	0.381800	0.138300	0.719200
N41	N4	0.315400	0.097300	0.628800
N51	N5	0.090580	0.472660	0.182040
H51	H5	0.042700	0.599000	0.106800
C31	C3	0.128800	0.402700	0.184600
H61	H6	0.118200	0.361700	0.219200
N61	N6	0.184600	0.402700	0.128800
N71	N7	0.590580	0.972660	0.682040
H71	H7	0.542700	0.099000	0.606800
C41	C4	0.628800	0.902700	0.684600
H81	H8	0.618200	0.861700	0.719200
N81	N8	0.684600	0.902700	0.628800
N91	N9	0.090580	0.527340	0.817960
H91	H9	0.042700	0.401000	0.893200
C51	C5	0.128800	0.597300	0.815400
H101	H10	0.118200	0.638300	0.780800
N101	N10	0.184600	0.597300	0.871200
N111	N11	0.590580	0.027340	0.317960
H111	H11	0.542700	0.901000	0.393200
C61	C6	0.628800	0.097300	0.315400
H121	H12	0.618200	0.138300	0.280800
N121	N12	0.684600	0.097300	0.371200
N131	N13	0.909420	0.472660	0.817960
H131	H13	0.957300	0.599000	0.893200
C71	C7	0.871200	0.402700	0.815400
H141	H14	0.881800	0.361700	0.780800
N141	N14	0.815400	0.402700	0.871200
N151	N15	0.409420	0.972660	0.317960
H151	H15	0.457300	0.099000	0.393200
C81	C8	0.371200	0.902700	0.315400
H161	H16	0.381800	0.861700	0.280800
N161	N16	0.315400	0.902700	0.371200
N171	N17	0.182040	0.909420	0.527340
H171	H17	0.106800	0.957300	0.401000
C91	C9	0.184600	0.871200	0.597300
H181	H18	0.219200	0.881800	0.638300
N181	N18	0.128800	0.815400	0.597300
N191	N19	0.682040	0.409420	0.027340
H191	H19	0.606800	0.457300	0.901000
C101	C10	0.684600	0.371200	0.097300
H201	H20	0.719200	0.381800	0.138300
N201	N20	0.628800	0.315400	0.097300
N211	N21	0.182040	0.090580	0.472660
H211	H21	0.106800	0.042700	0.599000
C111	C11	0.184600	0.128800	0.402700
H221	H22	0.219200	0.118200	0.361700
N221	N22	0.128800	0.184600	0.402700
N231	N23	0.682040	0.590580	0.972660
H231	H23	0.606800	0.542700	0.099000
C121	C12	0.684600	0.628800	0.902700
H241	H24	0.719200	0.618200	0.861700
N241	N24	0.628800	0.684600	0.902700
N251	N25	0.817960	0.090580	0.527340
H251	H25	0.893200	0.042700	0.401000
C131	C13	0.815400	0.128800	0.597300
H261	H26	0.780800	0.118200	0.638300
N261	N26	0.871200	0.184600	0.597300
N271	N27	0.317960	0.590580	0.027340
H271	H27	0.393200	0.542700	0.901000
C141	C14	0.315400	0.628800	0.097300
H281	H28	0.280800	0.618200	0.138300
N281	N28	0.371200	0.684600	0.097300
N291	N29	0.817960	0.909420	0.472660
H291	H29	0.893200	0.957300	0.599000
C151	C15	0.815400	0.871200	0.402700
H301	H30	0.780800	0.881800	0.361700
N301	N30	0.871200	0.815400	0.402700
N311	N31	0.317960	0.409420	0.972660
H311	H31	0.393200	0.457300	0.099000
C161	C16	0.315400	0.371200	0.902700
H321	H32	0.280800	0.381800	0.861700
N321	N32	0.371200	0.315400	0.902700
N331	N33	0.527340	0.182040	0.909420
H331	H33	0.401000	0.106800	0.957300
C171	C17	0.597300	0.184600	0.871200
H341	H34	0.638300	0.219200	0.881800
N341	N34	0.597300	0.128800	0.815400
N351	N35	0.027340	0.682040	0.409420
H351	H35	0.901000	0.606800	0.457300
C181	C18	0.097300	0.684600	0.371200
H361	H36	0.138300	0.719200	0.381800
N361	N36	0.097300	0.628800	0.315400
N371	N37	0.472660	0.182040	0.090580
H371	H37	0.599000	0.106800	0.042700
C191	C19	0.402700	0.184600	0.128800
H381	H38	0.361700	0.219200	0.118200
N381	N38	0.402700	0.128800	0.184600
N391	N39	0.972660	0.682040	0.590580
H391	H39	0.099000	0.606800	0.542700
C201	C20	0.902700	0.684600	0.628800
H401	H40	0.861700	0.719200	0.618200
N401	N40	0.902700	0.628800	0.684600
N411	N41	0.527340	0.817960	0.090580
H411	H41	0.401000	0.893200	0.042700
C211	C21	0.597300	0.815400	0.128800
H421	H42	0.638300	0.780800	0.118200
N421	N42	0.597300	0.871200	0.184600
N431	N43	0.027340	0.317960	0.590580
H431	H43	0.901000	0.393200	0.542700
C221	C22	0.097300	0.315400	0.628800
H441	H44	0.138300	0.280800	0.618200
N441	N44	0.097300	0.371200	0.684600
N451	N45	0.472660	0.817960	0.909420
H451	H45	0.599000	0.893200	0.957300
C231	C23	0.402700	0.815400	0.871200
H461	H46	0.361700	0.780800	0.881800
N461	N46	0.402700	0.871200	0.815400
N471	N47	0.972660	0.317960	0.409420
H471	H47	0.099000	0.393200	0.457300
C241	C24	0.902700	0.315400	0.371200
H481	H48	0.861700	0.280800	0.381800
N481	N48	0.902700	0.371200	0.315400
N491	N49	0.527340	0.909420	0.182040
H491	H49	0.401000	0.957300	0.106800
H501	H50	0.638300	0.881800	0.219200
N501	N50	0.027340	0.409420	0.682040
H511	H51	0.901000	0.457300	0.606800
H521	H52	0.138300	0.381800	0.719200
N511	N51	0.472660	0.090580	0.182040
H531	H53	0.599000	0.042700	0.106800
H541	H54	0.361700	0.118200	0.219200
N521	N52	0.972660	0.590580	0.682040
H551	H55	0.099000	0.542700	0.606800
H561	H56	0.861700	0.618200	0.719200
N531	N53	0.527340	0.090580	0.817960
H571	H57	0.401000	0.042700	0.893200
H581	H58	0.638300	0.118200	0.780800
N541	N54	0.027340	0.590580	0.317960
H591	H59	0.901000	0.542700	0.393200
H601	H60	0.138300	0.618200	0.280800
N551	N55	0.472660	0.909420	0.817960
H611	H61	0.599000	0.957300	0.893200
H621	H62	0.361700	0.881800	0.780800
N561	N56	0.972660	0.409420	0.317960
H631	H63	0.099000	0.457300	0.393200
H641	H64	0.861700	0.381800	0.280800
N571	N57	0.909420	0.182040	0.527340
H651	H65	0.957300	0.106800	0.401000
H661	H66	0.881800	0.219200	0.638300
N581	N58	0.409420	0.682040	0.027340
H671	H67	0.457300	0.606800	0.901000
H681	H68	0.381800	0.719200	0.138300
N591	N59	0.090580	0.182040	0.472660
H691	H69	0.042700	0.106800	0.599000
H701	H70	0.118200	0.219200	0.361700
N601	N60	0.590580	0.682040	0.972660
H711	H71	0.542700	0.606800	0.099000
H721	H72	0.618200	0.719200	0.861700
N611	N61	0.090580	0.817960	0.527340
H731	H73	0.042700	0.893200	0.401000
H741	H74	0.118200	0.780800	0.638300
N621	N62	0.590580	0.317960	0.027340
H751	H75	0.542700	0.393200	0.901000
H761	H76	0.618200	0.280800	0.138300
N631	N63	0.909420	0.817960	0.472660
H771	H77	0.957300	0.893200	0.599000
H781	H78	0.881800	0.780800	0.361700
N641	N64	0.409420	0.317960	0.972660
H791	H79	0.457300	0.393200	0.099000
H801	H80	0.381800	0.280800	0.861700
N651	N65	0.182040	0.527340	0.909420
H811	H81	0.106800	0.401000	0.957300
H821	H82	0.219200	0.638300	0.881800
N661	N66	0.682040	0.027340	0.409420
H831	H83	0.606800	0.901000	0.457300
H841	H84	0.719200	0.138300	0.381800
N671	N67	0.182040	0.472660	0.090580
H851	H85	0.106800	0.599000	0.042700
H861	H86	0.219200	0.361700	0.118200
N681	N68	0.682040	0.972660	0.590580
H871	H87	0.606800	0.099000	0.542700
H881	H88	0.719200	0.861700	0.618200
N691	N69	0.817960	0.527340	0.090580
H891	H89	0.893200	0.401000	0.042700
H901	H90	0.780800	0.638300	0.118200
N701	N70	0.317960	0.027340	0.590580
H911	H91	0.393200	0.901000	0.542700
H921	H92	0.280800	0.138300	0.618200
N711	N71	0.817960	0.472660	0.909420
H931	H93	0.893200	0.599000	0.957300
H941	H94	0.780800	0.361700	0.881800
N721	N72	0.317960	0.972660	0.409420
H951	H95	0.393200	0.099000	0.457300
H961	H96	0.280800	0.861700	0.381800
Zn11	Zn1	0.000000	0.500000	0.250000
Zn21	Zn2	0.000000	0.500000	0.750000
Zn31	Zn3	0.250000	0.000000	0.500000
Zn41	Zn4	0.750000	0.000000	0.500000
Zn51	Zn5	0.500000	0.250000	0.000000
Zn61	Zn6	0.500000	0.750000	0.000000
Zn71	Zn7	0.500000	0.000000	0.250000
Zn81	Zn8	0.500000	0.000000	0.750000
Zn91	Zn9	0.000000	0.250000	0.500000
Zn101	Zn10	0.000000	0.750000	0.500000
Zn111	Zn11	0.250000	0.500000	0.000000
Zn121	Zn12	0.750000	0.500000	0.000000
C251	C25	0.875940	0.488400	0.124060
C261	C26	0.901800	0.406900	0.098200
H971	H97	0.873400	0.367400	0.126600
C271	C27	0.375940	0.988400	0.624060
C281	C28	0.401800	0.906900	0.598200
H981	H98	0.373400	0.867400	0.626600
C291	C29	0.124060	0.511600	0.124060
C301	C30	0.098200	0.593100	0.098200
H991	H99	0.126600	0.632600	0.126600
C311	C31	0.624060	0.011600	0.624060
C321	C32	0.598200	0.093100	0.598200
H1001	H100	0.626600	0.132600	0.626600
C331	C33	0.124060	0.488400	0.875940
C341	C34	0.098200	0.406900	0.901800
H1011	H101	0.126600	0.367400	0.873400
C351	C35	0.624060	0.988400	0.375940
C361	C36	0.598200	0.906900	0.401800
H1021	H102	0.626600	0.867400	0.373400
C371	C37	0.875940	0.511600	0.875940
C381	C38	0.901800	0.593100	0.901800
H1031	H103	0.873400	0.632600	0.873400
C391	C39	0.375940	0.011600	0.375940
C401	C40	0.401800	0.093100	0.401800
H1041	H104	0.373400	0.132600	0.373400
C411	C41	0.124060	0.875940	0.488400
C421	C42	0.098200	0.901800	0.406900
H1051	H105	0.126600	0.873400	0.367400
C431	C43	0.624060	0.375940	0.988400
C441	C44	0.598200	0.401800	0.906900
H1061	H106	0.626600	0.373400	0.867400
C451	C45	0.124060	0.124060	0.511600
C461	C46	0.098200	0.098200	0.593100
H1071	H107	0.126600	0.126600	0.632600
C471	C47	0.624060	0.624060	0.011600
C481	C48	0.598200	0.598200	0.093100
H1081	H108	0.626600	0.626600	0.132600
C491	C49	0.875940	0.124060	0.488400
C501	C50	0.901800	0.098200	0.406900
H1091	H109	0.873400	0.126600	0.367400
C511	C51	0.375940	0.624060	0.988400
C521	C52	0.401800	0.598200	0.906900
H1101	H110	0.373400	0.626600	0.867400
C531	C53	0.875940	0.875940	0.511600
C541	C54	0.901800	0.901800	0.593100
H1111	H111	0.873400	0.873400	0.632600
C551	C55	0.375940	0.375940	0.011600
C561	C56	0.401800	0.401800	0.093100
H1121	H112	0.373400	0.373400	0.132600
C571	C57	0.488400	0.124060	0.875940
C581	C58	0.406900	0.098200	0.901800
H1131	H113	0.367400	0.126600	0.873400
C591	C59	0.988400	0.624060	0.375940
C601	C60	0.906900	0.598200	0.401800
H1141	H114	0.867400	0.626600	0.373400
C611	C61	0.511600	0.124060	0.124060
C621	C62	0.593100	0.098200	0.098200
H1151	H115	0.632600	0.126600	0.126600
C631	C63	0.011600	0.624060	0.624060
C641	C64	0.093100	0.598200	0.598200
H1161	H116	0.132600	0.626600	0.626600
C651	C65	0.488400	0.875940	0.124060
C661	C66	0.406900	0.901800	0.098200
H1171	H117	0.367400	0.873400	0.126600
C671	C67	0.988400	0.375940	0.624060
C681	C68	0.906900	0.401800	0.598200
H1181	H118	0.867400	0.373400	0.626600
C691	C69	0.511600	0.875940	0.875940
C701	C70	0.593100	0.901800	0.901800
H1191	H119	0.632600	0.873400	0.873400
C711	C71	0.011600	0.375940	0.375940
C721	C72	0.093100	0.401800	0.401800
H1201	H120	0.132600	0.373400	0.373400
