data_KIBXUP_charged_PM
_symmetry_space_group_name_H-M	'P1'
_cell_length_a	12.489000
_cell_length_b	14.085000
_cell_length_c	16.293000
_cell_angle_alpha	90.000000
_cell_angle_beta	90.000000
_cell_angle_gamma	112.425000
_symmetry_Int_Tables_number 1

loop_
_symmetry_equiv_pos_as_xyz
'x,y,z'

loop_
_atom_site_label
_atom_site_type_symbol
_atom_site_fract_x
_atom_site_fract_y
_atom_site_fract_z
Ag11	Ag1	0.331840	0.229470	0.963080
Ag21	Ag2	0.168160	0.770530	0.463080
Ag31	Ag3	0.668160	0.770530	0.036920
Ag41	Ag4	0.831840	0.229470	0.536920
H11	H1	0.076000	0.885900	0.950900
H21	H2	0.940700	0.805700	0.140200
H31	H3	0.027800	0.788200	0.077800
H41	H4	0.881000	0.573500	0.079700
H51	H5	0.808000	0.606000	0.144500
H61	H6	0.605400	0.501400	0.154300
H71	H7	0.441100	0.374700	0.104200
H81	H8	0.766000	0.489700	0.944300
H91	H9	0.595100	0.365300	0.898400
H101	H10	0.889500	0.019100	0.185700
H111	H11	0.863900	0.900800	0.180400
H121	H12	0.552000	0.891800	0.207200
H131	H13	0.633400	0.837000	0.236700
H141	H14	0.776200	0.914600	0.340300
H151	H15	0.852900	0.039800	0.438200
H161	H16	0.609000	0.081600	0.244500
H171	H17	0.688000	0.201200	0.347300
H181	H18	0.424000	0.114100	0.450900
H191	H19	0.559300	0.194300	0.640200
H201	H20	0.472200	0.211800	0.577800
H211	H21	0.619000	0.426500	0.579700
H221	H22	0.692000	0.394000	0.644500
H231	H23	0.894600	0.498600	0.654300
H241	H24	0.058900	0.625300	0.604200
H251	H25	0.734000	0.510300	0.444300
H261	H26	0.904900	0.634700	0.398400
H271	H27	0.610500	0.980900	0.685700
H281	H28	0.636100	0.099200	0.680400
H291	H29	0.948000	0.108200	0.707200
H301	H30	0.866600	0.163000	0.736700
H311	H31	0.723800	0.085400	0.840300
H321	H32	0.647100	0.960200	0.938200
H331	H33	0.891000	0.918400	0.744500
H341	H34	0.812000	0.798800	0.847300
H351	H35	0.924000	0.114100	0.049100
H361	H36	0.059300	0.194300	0.859800
H371	H37	0.972200	0.211800	0.922200
H381	H38	0.119000	0.426500	0.920300
H391	H39	0.192000	0.394000	0.855500
H401	H40	0.394600	0.498600	0.845700
H411	H41	0.558900	0.625300	0.895800
H421	H42	0.234000	0.510300	0.055700
H431	H43	0.404900	0.634700	0.101600
H441	H44	0.110500	0.980900	0.814300
H451	H45	0.136100	0.099200	0.819600
H461	H46	0.448000	0.108200	0.792800
H471	H47	0.366600	0.163000	0.763300
H481	H48	0.223800	0.085400	0.659700
H491	H49	0.147100	0.960200	0.561800
H501	H50	0.391000	0.918400	0.755500
H511	H51	0.312000	0.798800	0.652700
H521	H52	0.576000	0.885900	0.549100
H531	H53	0.440700	0.805700	0.359800
H541	H54	0.527800	0.788200	0.422200
H551	H55	0.381000	0.573500	0.420300
H561	H56	0.308000	0.606000	0.355500
H571	H57	0.105400	0.501400	0.345700
H581	H58	0.941100	0.374700	0.395800
H591	H59	0.266000	0.489700	0.555700
H601	H60	0.095100	0.365300	0.601600
H611	H61	0.389500	0.019100	0.314300
H621	H62	0.363900	0.900800	0.319600
H631	H63	0.052000	0.891800	0.292800
H641	H64	0.133400	0.837000	0.263300
H651	H65	0.276200	0.914600	0.159700
H661	H66	0.352900	0.039800	0.061800
H671	H67	0.109000	0.081600	0.255500
H681	H68	0.188000	0.201200	0.152700
C11	C1	0.980300	0.907700	0.043200
C21	C2	0.933800	0.977400	0.073200
C31	C3	0.045300	0.932100	0.970700
C41	C4	0.959300	0.804600	0.082500
C51	C5	0.815500	0.593700	0.086700
C61	C6	0.705800	0.509800	0.055400
C71	C7	0.606100	0.474300	0.102300
C81	C8	0.507200	0.397900	0.071600
C91	C9	0.701000	0.467700	0.978000
C101	C10	0.597600	0.391900	0.950900
C111	C11	0.860800	0.959200	0.150400
C121	C12	0.632100	0.901400	0.216600
C131	C13	0.682900	0.983000	0.280500
C141	C14	0.757100	0.972200	0.340100
C151	C15	0.802700	0.048100	0.399200
C161	C16	0.657700	0.070900	0.283400
C171	C17	0.706400	0.143100	0.345700
C181	C18	0.519700	0.092300	0.543200
C191	C19	0.566200	0.022600	0.573200
C201	C20	0.454700	0.067900	0.470700
C211	C21	0.540700	0.195400	0.582500
C221	C22	0.684500	0.406300	0.586700
C231	C23	0.794200	0.490200	0.555400
C241	C24	0.893900	0.525700	0.602300
C251	C25	0.992800	0.602100	0.571600
C261	C26	0.799000	0.532300	0.478000
C271	C27	0.902400	0.608100	0.450900
C281	C28	0.639200	0.040800	0.650400
C291	C29	0.867900	0.098600	0.716600
C301	C30	0.817100	0.017000	0.780500
C311	C31	0.742900	0.027800	0.840100
C321	C32	0.697300	0.951900	0.899200
C331	C33	0.842300	0.929100	0.783400
C341	C34	0.793600	0.856900	0.845700
C351	C35	0.019700	0.092300	0.956800
C361	C36	0.066200	0.022600	0.926800
C371	C37	0.954700	0.067900	0.029300
C381	C38	0.040700	0.195400	0.917500
C391	C39	0.184500	0.406300	0.913300
C401	C40	0.294200	0.490200	0.944600
C411	C41	0.393900	0.525700	0.897700
C421	C42	0.492800	0.602100	0.928400
C431	C43	0.299000	0.532300	0.022000
C441	C44	0.402400	0.608100	0.049100
C451	C45	0.139200	0.040800	0.849600
C461	C46	0.367900	0.098600	0.783400
C471	C47	0.317100	0.017000	0.719500
C481	C48	0.242900	0.027800	0.659900
C491	C49	0.197300	0.951900	0.600800
C501	C50	0.342300	0.929100	0.716600
C511	C51	0.293600	0.856900	0.654300
C521	C52	0.480300	0.907700	0.456800
C531	C53	0.433800	0.977400	0.426800
C541	C54	0.545300	0.932100	0.529300
C551	C55	0.459300	0.804600	0.417500
C561	C56	0.315500	0.593700	0.413300
C571	C57	0.205800	0.509800	0.444600
C581	C58	0.106100	0.474300	0.397700
C591	C59	0.007200	0.397900	0.428400
C601	C60	0.201000	0.467700	0.522000
C611	C61	0.097600	0.391900	0.549100
C621	C62	0.360800	0.959200	0.349600
C631	C63	0.132100	0.901400	0.283400
C641	C64	0.182900	0.983000	0.219500
C651	C65	0.257100	0.972200	0.159900
C661	C66	0.302700	0.048100	0.100800
C671	C67	0.157700	0.070900	0.216600
C681	C68	0.206400	0.143100	0.154300
S11	S1	0.837650	0.709830	0.027460
S21	S2	0.711490	0.934110	0.118880
S31	S3	0.662350	0.290170	0.527460
S41	S4	0.788510	0.065890	0.618880
S51	S5	0.162350	0.290170	0.972540
S61	S6	0.288510	0.065890	0.881120
S71	S7	0.337650	0.709830	0.472540
S81	S8	0.211490	0.934110	0.381120
N11	N1	0.501900	0.355600	0.997000
N21	N2	0.777900	0.132800	0.402800
N31	N3	0.998100	0.644400	0.497000
N41	N4	0.722100	0.867200	0.902800
N51	N5	0.498100	0.644400	0.003000
N61	N6	0.222100	0.867200	0.597200
N71	N7	0.001900	0.355600	0.503000
N81	N8	0.277900	0.132800	0.097200
Cl11	Cl1	0.814360	0.338950	0.800270
O11	O1	0.718000	0.260800	0.769700
O21	O2	0.835000	0.313400	0.881200
O31	O3	0.796600	0.434800	0.799400
O41	O4	0.911000	0.348600	0.750700
Cl21	Cl2	0.685640	0.661050	0.300270
O51	O5	0.782000	0.739200	0.269700
O61	O6	0.665000	0.686600	0.381200
O71	O7	0.703400	0.565200	0.299400
O81	O8	0.589000	0.651400	0.250700
Cl31	Cl3	0.185640	0.661050	0.199730
O91	O9	0.282000	0.739200	0.230300
O101	O10	0.165000	0.686600	0.118800
O111	O11	0.203400	0.565200	0.200600
O121	O12	0.089000	0.651400	0.249300
Cl41	Cl4	0.314360	0.338950	0.699730
O131	O13	0.218000	0.260800	0.730300
O141	O14	0.335000	0.313400	0.618800
O151	O15	0.296600	0.434800	0.700600
O161	O16	0.411000	0.348600	0.749300
