data_KICXAX_clean_PM
_symmetry_space_group_name_H-M	'P1'
_cell_length_a	14.840000
_cell_length_b	14.907000
_cell_length_c	22.118000
_cell_angle_alpha	88.767000
_cell_angle_beta	87.169000
_cell_angle_gamma	75.796000
_symmetry_Int_Tables_number 1

loop_
_symmetry_equiv_pos_as_xyz
'x,y,z'

loop_
_atom_site_label
_atom_site_type_symbol
_atom_site_fract_x
_atom_site_fract_y
_atom_site_fract_z
Co11	Co1	0.277300	0.752500	0.980400
Co21	Co2	0.722700	0.247500	0.019600
Co31	Co3	0.500000	0.000000	0.500000
Co41	Co4	0.000000	0.500000	0.500000
As11	As1	0.217700	0.122200	0.774200
As21	As2	0.250900	0.371400	0.775100
As31	As3	0.782300	0.877800	0.225800
As41	As4	0.749100	0.628600	0.224900
H11	H1	0.268700	0.676300	0.122700
H21	H2	0.440900	0.556100	0.994500
H31	H3	0.411100	0.491600	0.195700
H41	H4	0.328100	0.455100	0.172600
H51	H5	0.411700	0.691200	0.856400
H61	H6	0.443500	0.860000	0.978200
H71	H7	0.604500	0.883200	0.864700
H81	H8	0.581600	0.912500	0.932400
H91	H9	0.685900	0.775000	0.964100
H101	H10	0.737500	0.834800	0.922800
H111	H11	0.147500	0.956700	0.011300
H121	H12	0.232000	0.463700	0.502600
H131	H13	0.058600	0.632000	0.388000
H141	H14	0.422900	0.213100	0.277600
H151	H15	0.424200	0.311100	0.302300
H161	H16	0.268100	0.334000	0.334600
H171	H17	0.280800	0.321900	0.264200
H181	H18	0.267000	0.173500	0.342300
H191	H19	0.264700	0.172500	0.271700
H201	H20	0.734600	0.738100	0.840900
H211	H21	0.684600	0.677800	0.882900
H221	H22	0.833600	0.600700	0.872100
H231	H23	0.817800	0.635900	0.939000
H241	H24	0.973200	0.677000	0.960200
H251	H25	0.113800	0.188800	0.306100
H261	H26	0.117500	0.287800	0.281100
H271	H27	0.184500	0.655300	0.303200
H281	H28	0.280600	0.654100	0.330200
H291	H29	0.344800	0.513200	0.297000
H301	H30	0.247600	0.491900	0.287700
H311	H31	0.341100	0.930100	0.190900
H321	H32	0.279700	0.030100	0.179100
H331	H33	0.149800	0.991000	0.223300
H341	H34	0.205000	0.887200	0.230000
H351	H35	0.994200	0.822700	0.809500
H361	H36	0.190500	0.014600	0.314800
H371	H37	0.293000	0.001100	0.288400
H381	H38	0.215800	0.866100	0.339000
H391	H39	0.315200	0.845200	0.306000
H401	H40	0.301300	0.635600	0.218900
H411	H41	0.221500	0.588600	0.203800
H421	H42	0.339700	0.812200	0.110800
H431	H43	0.122300	0.276500	0.517800
H441	H44	0.034900	0.415300	0.362800
H451	H45	0.400900	0.224800	0.514300
H461	H46	0.484500	0.079400	0.359500
H471	H47	0.280400	0.016900	0.512600
H481	H48	0.454700	0.883400	0.377600
H491	H49	0.731300	0.323700	0.877300
H501	H50	0.559100	0.443900	0.005500
H511	H51	0.588900	0.508400	0.804300
H521	H52	0.671900	0.544900	0.827400
H531	H53	0.588300	0.308800	0.143600
H541	H54	0.556500	0.140000	0.021800
H551	H55	0.395500	0.116800	0.135300
H561	H56	0.418400	0.087500	0.067600
H571	H57	0.314100	0.225000	0.035900
H581	H58	0.262500	0.165200	0.077200
H591	H59	0.852500	0.043300	0.988700
H601	H60	0.768000	0.536300	0.497400
H611	H61	0.941400	0.368000	0.612000
H621	H62	0.577100	0.786900	0.722400
H631	H63	0.575800	0.688900	0.697700
H641	H64	0.731900	0.666000	0.665400
H651	H65	0.719200	0.678100	0.735800
H661	H66	0.733000	0.826500	0.657700
H671	H67	0.735300	0.827500	0.728300
H681	H68	0.265400	0.261900	0.159100
H691	H69	0.315400	0.322200	0.117100
H701	H70	0.166400	0.399300	0.127900
H711	H71	0.182200	0.364100	0.061000
H721	H72	0.026800	0.323000	0.039800
H731	H73	0.886200	0.811200	0.693900
H741	H74	0.882500	0.712200	0.718900
H751	H75	0.815500	0.344700	0.696800
H761	H76	0.719400	0.345900	0.669800
H771	H77	0.655200	0.486800	0.703000
H781	H78	0.752400	0.508100	0.712300
H791	H79	0.658900	0.069900	0.809100
H801	H80	0.720300	0.969900	0.820900
H811	H81	0.850200	0.009000	0.776700
H821	H82	0.795000	0.112800	0.770000
H831	H83	0.005800	0.177300	0.190500
H841	H84	0.809500	0.985400	0.685200
H851	H85	0.707000	0.998900	0.711600
H861	H86	0.784200	0.133900	0.661000
H871	H87	0.684800	0.154800	0.694000
H881	H88	0.698700	0.364400	0.781100
H891	H89	0.778500	0.411400	0.796200
H901	H90	0.660300	0.187800	0.889200
H911	H91	0.877700	0.723500	0.482200
H921	H92	0.965100	0.584700	0.637200
H931	H93	0.599100	0.775200	0.485700
H941	H94	0.515500	0.920600	0.640500
H951	H95	0.719600	0.983100	0.487400
H961	H96	0.545300	0.116600	0.622400
W11	W1	0.203060	0.922240	0.858820
W21	W2	0.495430	0.276980	0.774570
W31	W3	0.120310	0.402880	0.912450
W41	W4	0.091130	0.158200	0.912950
W51	W5	0.460400	0.034500	0.771060
W61	W6	0.162350	0.608430	0.729270
W71	W7	0.395820	0.525100	0.731240
W81	W8	0.267040	0.564900	0.862050
W91	W9	0.349060	0.080180	0.906640
W101	W10	0.378260	0.324330	0.907970
W111	W11	0.074990	0.972690	0.735340
W121	W12	0.141850	0.408740	0.635710
W131	W13	0.007370	0.459670	0.782680
W141	W14	0.099820	0.169370	0.637080
W151	W15	0.307850	0.889890	0.720580
W161	W16	0.373830	0.336520	0.631940
W171	W17	0.332200	0.097840	0.630160
W181	W18	0.973880	0.217090	0.786470
W191	W19	0.796940	0.077760	0.141180
W201	W20	0.504570	0.723020	0.225430
W211	W21	0.879690	0.597120	0.087550
W221	W22	0.908870	0.841800	0.087050
W231	W23	0.539600	0.965500	0.228940
W241	W24	0.837650	0.391570	0.270730
W251	W25	0.604180	0.474900	0.268760
W261	W26	0.732960	0.435100	0.137950
W271	W27	0.650940	0.919820	0.093360
W281	W28	0.621740	0.675670	0.092030
W291	W29	0.925010	0.027310	0.264660
W301	W30	0.858150	0.591260	0.364290
W311	W31	0.992630	0.540330	0.217320
W321	W32	0.900180	0.830630	0.362920
W331	W33	0.692150	0.110110	0.279420
W341	W34	0.626170	0.663480	0.368060
W351	W35	0.667800	0.902160	0.369840
W361	W36	0.026120	0.782910	0.213530
C11	C1	0.312000	0.635000	0.099000
C21	C2	0.406000	0.568000	0.031000
C31	C3	0.351000	0.510000	0.178000
C41	C4	0.435000	0.731000	0.879000
C51	C5	0.455000	0.821000	0.945000
C61	C6	0.598000	0.860000	0.906000
C71	C7	0.692000	0.798000	0.923000
C81	C8	0.188000	0.940000	0.043000
C91	C9	0.210000	0.502000	0.469900
C101	C10	0.112000	0.597000	0.405200
C111	C11	0.396000	0.259000	0.308000
C121	C12	0.294000	0.290000	0.303000
C131	C13	0.246000	0.211000	0.307000
C141	C14	0.730000	0.715000	0.882000
C151	C15	0.820000	0.656000	0.897000
C161	C16	0.964000	0.704000	0.922000
C171	C17	0.141000	0.241000	0.312000
C181	C18	0.237000	0.617000	0.323000
C191	C19	0.282000	0.540000	0.285000
C201	C20	0.279000	0.965000	0.181000
C211	C21	0.210000	0.951000	0.231000
C221	C22	0.976000	0.782000	0.837000
C231	C23	0.242000	0.972000	0.294000
C241	C24	0.269000	0.891000	0.328300
C251	C25	0.283000	0.577000	0.219000
C261	C26	0.294000	0.861000	0.096000
C271	C27	0.113000	0.291000	0.477100
C281	C28	0.063000	0.369000	0.389500
C291	C29	0.411000	0.209000	0.473600
C301	C30	0.458000	0.127000	0.386100
C311	C31	0.303000	0.986000	0.476600
C321	C32	0.401000	0.911000	0.400300
C331	C33	0.688000	0.365000	0.901000
C341	C34	0.594000	0.432000	0.969000
C351	C35	0.649000	0.490000	0.822000
C361	C36	0.565000	0.269000	0.121000
C371	C37	0.545000	0.179000	0.055000
C381	C38	0.402000	0.140000	0.094000
C391	C39	0.308000	0.202000	0.077000
C401	C40	0.812000	0.060000	0.957000
C411	C41	0.790000	0.498000	0.530100
C421	C42	0.888000	0.403000	0.594800
C431	C43	0.604000	0.741000	0.692000
C441	C44	0.706000	0.710000	0.697000
C451	C45	0.754000	0.789000	0.693000
C461	C46	0.270000	0.285000	0.118000
C471	C47	0.180000	0.344000	0.103000
C481	C48	0.036000	0.296000	0.078000
C491	C49	0.859000	0.759000	0.688000
C501	C50	0.763000	0.383000	0.677000
C511	C51	0.718000	0.460000	0.715000
C521	C52	0.721000	0.035000	0.819000
C531	C53	0.790000	0.049000	0.769000
C541	C54	0.024000	0.218000	0.163000
C551	C55	0.758000	0.028000	0.706000
C561	C56	0.731000	0.109000	0.671700
C571	C57	0.717000	0.423000	0.781000
C581	C58	0.706000	0.139000	0.904000
C591	C59	0.887000	0.709000	0.522900
C601	C60	0.937000	0.631000	0.610500
C611	C61	0.589000	0.791000	0.526400
C621	C62	0.542000	0.873000	0.613900
C631	C63	0.697000	0.014000	0.523400
C641	C64	0.599000	0.089000	0.599700
N11	N1	0.265200	0.527000	0.421300
N21	N2	0.205000	0.586000	0.381300
N31	N3	0.115000	0.545000	0.460000
N41	N4	0.331000	0.650000	0.039000
N51	N5	0.256000	0.862000	0.044000
N61	N6	0.061000	0.376000	0.453600
N71	N7	0.148000	0.231100	0.427700
N81	N8	0.117000	0.280000	0.373500
N91	N9	0.399000	0.768000	0.934000
N101	N10	0.458000	0.121000	0.450300
N111	N11	0.383000	0.269600	0.423800
N121	N12	0.412000	0.219000	0.369700
N131	N13	0.398000	0.953000	0.457700
N141	N14	0.247300	0.965000	0.430900
N151	N15	0.308000	0.919000	0.383700
N161	N16	0.359000	0.557000	0.117000
N171	N17	0.420000	0.514000	0.076000
N181	N18	0.526000	0.816000	0.908000
N191	N19	0.513000	0.765000	0.864000
N201	N20	0.257000	0.937000	0.124000
N211	N21	0.895000	0.703000	0.887000
N221	N22	0.912000	0.741000	0.834000
N231	N23	0.014000	0.749000	0.894000
N241	N24	0.183000	0.993000	0.093000
N251	N25	0.734800	0.473000	0.578700
N261	N26	0.795000	0.414000	0.618700
N271	N27	0.885000	0.455000	0.540000
N281	N28	0.669000	0.350000	0.961000
N291	N29	0.744000	0.138000	0.956000
N301	N30	0.939000	0.624000	0.546400
N311	N31	0.852000	0.768900	0.572300
N321	N32	0.883000	0.720000	0.626500
N331	N33	0.601000	0.232000	0.066000
N341	N34	0.542000	0.879000	0.549700
N351	N35	0.617000	0.730400	0.576200
N361	N36	0.588000	0.781000	0.630300
N371	N37	0.602000	0.047000	0.542300
N381	N38	0.752700	0.035000	0.569100
N391	N39	0.692000	0.081000	0.616300
N401	N40	0.641000	0.443000	0.883000
N411	N41	0.580000	0.486000	0.924000
N421	N42	0.474000	0.184000	0.092000
N431	N43	0.487000	0.235000	0.136000
N441	N44	0.743000	0.063000	0.876000
N451	N45	0.105000	0.297000	0.113000
N461	N46	0.088000	0.259000	0.166000
N471	N47	0.986000	0.251000	0.106000
N481	N48	0.817000	0.007000	0.907000
O11	O1	0.073000	0.457000	0.577400
O21	O2	0.246000	0.341000	0.922000
O31	O3	0.184000	0.885000	0.702800
O41	O4	0.292000	0.622000	0.713600
O51	O5	0.205000	0.187000	0.910400
O61	O6	0.276000	0.643000	0.917200
O71	O7	0.024000	0.220000	0.706300
O81	O8	0.095000	0.053000	0.669300
O91	O9	0.250000	0.344000	0.704100
O101	O10	0.282000	0.847000	0.804200
O111	O11	0.133000	0.289000	0.623300
O121	O12	0.259000	0.390000	0.593200
O131	O13	0.055000	0.424000	0.702200
O141	O14	0.341000	0.305000	0.810200
O151	O15	0.463000	0.413000	0.764200
O161	O16	0.147000	0.372000	0.810500
O171	O17	0.446000	0.279000	0.692100
O181	O18	0.313000	0.123000	0.807800
O191	O19	0.070000	0.557000	0.769900
O201	O20	0.419000	0.082000	0.694600
O211	O21	0.489000	0.156000	0.781400
O221	O22	0.978000	0.192000	0.871700
O231	O23	0.160000	0.524000	0.668600
O241	O24	0.222000	0.154000	0.701200
O251	O25	0.374000	0.450000	0.661300
O261	O26	0.174000	0.509000	0.892400
O271	O27	0.402000	0.935000	0.757300
O281	O28	0.352000	0.453000	0.888200
O291	O29	0.385000	0.190000	0.909600
O301	O30	0.085000	0.292000	0.918500
O311	O31	0.452000	0.019000	0.857000
O321	O32	0.374000	0.578000	0.807100
O331	O33	0.117000	0.037000	0.889900
O341	O34	0.314000	0.979000	0.658700
O351	O35	0.013000	0.465000	0.869600
O361	O36	0.493000	0.294000	0.859500
O371	O37	0.189000	0.645000	0.807300
O381	O38	0.214000	0.120000	0.591700
O391	O39	0.010000	0.083000	0.768400
O401	O40	0.097000	0.910000	0.811600
O411	O41	0.340000	0.220000	0.617400
O421	O42	0.126000	0.190000	0.813700
O431	O43	0.306000	0.962000	0.871300
O441	O44	0.979000	0.338000	0.796100
O451	O45	0.264000	0.480000	0.776100
O461	O46	0.193000	0.845000	0.914500
O471	O47	0.202000	0.015000	0.773200
O481	O48	0.406000	0.052000	0.571800
O491	O49	0.927000	0.543000	0.422600
O501	O50	0.754000	0.659000	0.078000
O511	O51	0.816000	0.115000	0.297200
O521	O52	0.708000	0.378000	0.286400
O531	O53	0.795000	0.813000	0.089600
O541	O54	0.724000	0.357000	0.082800
O551	O55	0.976000	0.780000	0.293700
O561	O56	0.905000	0.947000	0.330700
O571	O57	0.750000	0.656000	0.295900
O581	O58	0.718000	0.153000	0.195800
O591	O59	0.867000	0.711000	0.376700
O601	O60	0.741000	0.610000	0.406800
O611	O61	0.945000	0.576000	0.297800
O621	O62	0.659000	0.695000	0.189800
O631	O63	0.537000	0.587000	0.235800
O641	O64	0.853000	0.628000	0.189500
O651	O65	0.554000	0.721000	0.307900
O661	O66	0.687000	0.877000	0.192200
O671	O67	0.930000	0.443000	0.230100
O681	O68	0.581000	0.918000	0.305400
O691	O69	0.511000	0.844000	0.218600
O701	O70	0.022000	0.808000	0.128300
O711	O71	0.840000	0.476000	0.331400
O721	O72	0.778000	0.846000	0.298800
O731	O73	0.626000	0.550000	0.338700
O741	O74	0.826000	0.491000	0.107600
O751	O75	0.598000	0.065000	0.242700
O761	O76	0.648000	0.547000	0.111800
O771	O77	0.615000	0.810000	0.090400
O781	O78	0.915000	0.708000	0.081500
O791	O79	0.548000	0.981000	0.143000
O801	O80	0.626000	0.422000	0.192900
O811	O81	0.883000	0.963000	0.110100
O821	O82	0.686000	0.021000	0.341300
O831	O83	0.987000	0.535000	0.130400
O841	O84	0.507000	0.706000	0.140500
O851	O85	0.811000	0.355000	0.192700
O861	O86	0.786000	0.880000	0.408300
O871	O87	0.990000	0.917000	0.231600
O881	O88	0.903000	0.090000	0.188400
O891	O89	0.660000	0.780000	0.382600
O901	O90	0.874000	0.810000	0.186300
O911	O91	0.694000	0.038000	0.128700
O921	O92	0.021000	0.662000	0.203900
O931	O93	0.736000	0.520000	0.223900
O941	O94	0.807000	0.155000	0.085500
O951	O95	0.798000	0.985000	0.226800
O961	O96	0.594000	0.948000	0.428200
