data_KICXEB_clean_PM
_symmetry_space_group_name_H-M	'P1'
_cell_length_a	14.868000
_cell_length_b	14.943000
_cell_length_c	22.117000
_cell_angle_alpha	88.543000
_cell_angle_beta	86.822000
_cell_angle_gamma	75.615000
_symmetry_Int_Tables_number 1

loop_
_symmetry_equiv_pos_as_xyz
'x,y,z'

loop_
_atom_site_label
_atom_site_type_symbol
_atom_site_fract_x
_atom_site_fract_y
_atom_site_fract_z
Co11	Co1	0.222300	0.748800	0.520300
Co21	Co2	0.777700	0.251200	0.479700
Co31	Co3	0.500000	0.000000	0.000000
Co41	Co4	0.000000	0.500000	0.000000
P11	P1	0.281700	0.380200	0.725800
P21	P2	0.248200	0.123800	0.725500
P31	P3	0.718300	0.619800	0.274200
P41	P4	0.751800	0.876200	0.274500
H11	H1	0.217900	0.491400	0.213000
H21	H2	0.319000	0.490400	0.188800
H31	H3	0.434900	0.871400	0.111100
H41	H4	0.918200	0.588700	0.567600
H51	H5	0.894900	0.614100	0.635800
H61	H6	0.272900	0.026600	0.998400
H71	H7	0.632800	0.780100	0.010100
H81	H8	0.172400	0.045800	0.326300
H91	H9	0.086800	0.011500	0.306900
H101	H10	0.761700	0.660200	0.584600
H111	H11	0.809000	0.715900	0.537300
H121	H12	0.806200	0.797800	0.646300
H131	H13	0.668400	0.895600	0.629200
H141	H14	0.681700	0.862700	0.561900
H151	H15	0.221600	0.846100	0.168400
H161	H16	0.316800	0.846400	0.195700
H171	H17	0.251400	0.011300	0.212300
H181	H18	0.154600	0.992000	0.200200
H191	H19	0.271300	0.911200	0.294500
H201	H20	0.187400	0.872200	0.278400
H211	H21	0.632000	0.743200	0.696400
H221	H22	0.426300	0.743100	0.594300
H231	H23	0.226700	0.481400	0.991700
H241	H24	0.286600	0.616700	0.269000
H251	H25	0.347100	0.515800	0.277800
H261	H26	0.177200	0.651600	0.190700
H271	H27	0.275300	0.638100	0.157400
H281	H28	0.158900	0.571800	0.308500
H291	H29	0.221100	0.472000	0.318700
H301	H30	0.354100	0.539600	0.489300
H311	H31	0.929900	0.804700	0.802000
H321	H32	0.925300	0.707700	0.778200
H331	H33	0.779500	0.823100	0.764300
H341	H34	0.766300	0.834000	0.835000
H351	H35	0.760700	0.675000	0.769800
H361	H36	0.769900	0.669900	0.840200
H371	H37	0.609900	0.693300	0.811900
H381	H38	0.614300	0.791300	0.786100
H391	H39	0.157400	0.683000	0.391300
H401	H40	0.069800	0.942700	0.508100
H411	H41	0.231600	0.823800	0.377800
H421	H42	0.897700	0.724300	0.004200
H431	H43	0.053300	0.640100	0.518700
H441	H44	0.084000	0.811900	0.639300
H451	H45	0.978500	0.579500	0.859500
H461	H46	0.535500	0.911800	0.867800
H471	H47	0.050400	0.602400	0.124700
H481	H48	0.782100	0.508600	0.787000
H491	H49	0.681000	0.509600	0.811200
H501	H50	0.565100	0.128600	0.888900
H511	H51	0.081800	0.411300	0.432400
H521	H52	0.105100	0.385900	0.364200
H531	H53	0.727100	0.973400	0.001600
H541	H54	0.367200	0.219900	0.989900
H551	H55	0.827600	0.954200	0.673700
H561	H56	0.913200	0.988500	0.693100
H571	H57	0.238300	0.339800	0.415400
H581	H58	0.191000	0.284100	0.462700
H591	H59	0.193800	0.202200	0.353700
H601	H60	0.331600	0.104400	0.370800
H611	H61	0.318300	0.137300	0.438100
H621	H62	0.778400	0.153900	0.831600
H631	H63	0.683200	0.153600	0.804300
H641	H64	0.748600	0.988700	0.787700
H651	H65	0.845400	0.008000	0.799800
H661	H66	0.728700	0.088800	0.705500
H671	H67	0.812600	0.127800	0.721600
H681	H68	0.368000	0.256800	0.303600
H691	H69	0.573700	0.256900	0.405700
H701	H70	0.773300	0.518600	0.008300
H711	H71	0.713400	0.383300	0.731000
H721	H72	0.652900	0.484200	0.722200
H731	H73	0.822800	0.348400	0.809300
H741	H74	0.724700	0.361900	0.842600
H751	H75	0.841100	0.428200	0.691500
H761	H76	0.778900	0.528000	0.681300
H771	H77	0.645900	0.460400	0.510700
H781	H78	0.070100	0.195300	0.198000
H791	H79	0.074700	0.292300	0.221800
H801	H80	0.220500	0.176900	0.235700
H811	H81	0.233700	0.166000	0.165000
H821	H82	0.239300	0.325000	0.230200
H831	H83	0.230100	0.330100	0.159800
H841	H84	0.390100	0.306700	0.188100
H851	H85	0.385700	0.208700	0.213900
H861	H86	0.842600	0.317000	0.608700
H871	H87	0.930200	0.057300	0.491900
H881	H88	0.768400	0.176200	0.622200
H891	H89	0.102300	0.275700	0.995800
H901	H90	0.946700	0.359900	0.481300
H911	H91	0.916000	0.188100	0.360700
H921	H92	0.021500	0.420500	0.140500
H931	H93	0.464500	0.088200	0.132200
H941	H94	0.949600	0.397600	0.875300
W11	W1	0.405490	0.340270	0.586810
W21	W2	0.338600	0.889450	0.770410
W31	W3	0.126940	0.161830	0.868510
W41	W4	0.399810	0.327130	0.861210
W51	W5	0.358410	0.088170	0.862810
W61	W6	0.039580	0.463370	0.730720
W71	W7	0.424040	0.524380	0.763980
W81	W8	0.190350	0.608310	0.779490
W91	W9	0.104330	0.973610	0.770810
W101	W10	0.231050	0.934830	0.638450
W111	W11	0.295920	0.575580	0.640620
W121	W12	0.150030	0.419320	0.594710
W131	W13	0.005820	0.220900	0.727480
W141	W14	0.523360	0.281750	0.712620
W151	W15	0.168150	0.400220	0.869580
W161	W16	0.376810	0.095890	0.588320
W171	W17	0.491410	0.038840	0.716740
W181	W18	0.121460	0.175410	0.593330
W191	W19	0.594510	0.659730	0.413190
W201	W20	0.661400	0.110550	0.229590
W211	W21	0.873060	0.838170	0.131490
W221	W22	0.600190	0.672870	0.138790
W231	W23	0.641590	0.911830	0.137190
W241	W24	0.960420	0.536630	0.269280
W251	W25	0.575960	0.475620	0.236020
W261	W26	0.809650	0.391690	0.220510
W271	W27	0.895670	0.026390	0.229190
W281	W28	0.768950	0.065170	0.361550
W291	W29	0.704080	0.424420	0.359380
W301	W30	0.849970	0.580680	0.405290
W311	W31	0.994180	0.779100	0.272520
W321	W32	0.476640	0.718250	0.287380
W331	W33	0.831850	0.599780	0.130420
W341	W34	0.623190	0.904110	0.411680
W351	W35	0.508590	0.961160	0.283260
W361	W36	0.878540	0.824590	0.406670
C11	C1	0.263000	0.528000	0.208400
C21	C2	0.382000	0.907000	0.093600
C31	C3	0.901000	0.640000	0.595000
C41	C4	0.294000	0.992000	0.033000
C51	C5	0.617000	0.792000	0.970000
C61	C6	0.149000	0.992000	0.322300
C71	C7	0.806000	0.698000	0.579700
C81	C8	0.771000	0.783000	0.616300
C91	C9	0.681000	0.842000	0.604000
C101	C10	0.264000	0.884000	0.175000
C111	C11	0.216000	0.965000	0.214200
C121	C12	0.209000	0.928000	0.279300
C131	C13	0.593000	0.750000	0.664400
C141	C14	0.481000	0.752000	0.607600
C151	C15	0.202000	0.513000	0.026800
C161	C16	0.285000	0.552000	0.269300
C171	C17	0.226000	0.608000	0.168600
C181	C18	0.221000	0.537000	0.317500
C191	C19	0.312000	0.558000	0.458900
C201	C20	0.900000	0.754000	0.808500
C211	C21	0.792000	0.791000	0.803000
C221	C22	0.746000	0.710000	0.807000
C231	C23	0.638000	0.744000	0.816200
C241	C24	0.205000	0.637000	0.405900
C251	C25	0.101000	0.931000	0.470000
C261	C26	0.189000	0.866000	0.401700
C271	C27	0.917000	0.708000	0.964000
C281	C28	0.044000	0.678000	0.552500
C291	C29	0.061000	0.769000	0.618400
C301	C30	0.956000	0.628000	0.885900
C311	C31	0.565000	0.866000	0.894200
C321	C32	0.103000	0.583000	0.098900
C331	C33	0.737000	0.472000	0.791600
C341	C34	0.618000	0.093000	0.906400
C351	C35	0.099000	0.360000	0.405000
C361	C36	0.706000	0.008000	0.967000
C371	C37	0.383000	0.208000	0.030000
C381	C38	0.851000	0.008000	0.677700
C391	C39	0.194000	0.302000	0.420300
C401	C40	0.229000	0.217000	0.383700
C411	C41	0.319000	0.158000	0.396000
C421	C42	0.736000	0.116000	0.825000
C431	C43	0.784000	0.035000	0.785800
C441	C44	0.791000	0.072000	0.720700
C451	C45	0.407000	0.250000	0.335600
C461	C46	0.519000	0.248000	0.392400
C471	C47	0.798000	0.487000	0.973200
C481	C48	0.715000	0.448000	0.730700
C491	C49	0.774000	0.392000	0.831400
C501	C50	0.779000	0.463000	0.682500
C511	C51	0.688000	0.442000	0.541100
C521	C52	0.100000	0.246000	0.191500
C531	C53	0.208000	0.209000	0.197000
C541	C54	0.254000	0.290000	0.193000
C551	C55	0.362000	0.256000	0.183800
C561	C56	0.795000	0.363000	0.594100
C571	C57	0.899000	0.069000	0.530000
C581	C58	0.811000	0.134000	0.598300
C591	C59	0.083000	0.292000	0.036000
C601	C60	0.956000	0.322000	0.447500
C611	C61	0.939000	0.231000	0.381600
C621	C62	0.044000	0.372000	0.114100
C631	C63	0.435000	0.134000	0.105800
C641	C64	0.897000	0.417000	0.901100
N11	N1	0.143000	0.946000	0.383300
N21	N2	0.100000	0.732000	0.566100
N31	N3	0.959000	0.622000	0.945000
N41	N4	0.242000	0.640000	0.459100
N51	N5	0.385000	0.956000	0.042800
N61	N6	0.562000	0.872000	0.954500
N71	N7	0.297000	0.916000	0.116000
N81	N8	0.984000	0.738000	0.638400
N91	N9	0.081000	0.988000	0.425900
N101	N10	0.236000	0.973000	0.077800
N111	N11	0.601000	0.794000	0.614400
N121	N12	0.648000	0.735000	0.930400
N131	N13	0.534000	0.799000	0.577700
N141	N14	0.909000	0.767000	0.916200
N151	N15	0.187000	0.580000	0.110100
N161	N16	0.243000	0.564000	0.377200
N171	N17	0.311000	0.509000	0.409200
N181	N18	0.917000	0.714000	0.869300
N191	N19	0.250000	0.532000	0.073100
N201	N20	0.520000	0.719000	0.661800
N211	N21	0.616000	0.783000	0.877800
N221	N22	0.972000	0.685000	0.594200
N231	N23	0.105000	0.551000	0.041800
N241	N24	0.167000	0.853000	0.460500
N251	N25	0.857000	0.054000	0.616700
N261	N26	0.900000	0.268000	0.433900
N271	N27	0.041000	0.378000	0.055000
N281	N28	0.758000	0.360000	0.540900
N291	N29	0.615000	0.044000	0.957200
N301	N30	0.438000	0.128000	0.045500
N311	N31	0.703000	0.084000	0.884000
N321	N32	0.016000	0.262000	0.361600
N331	N33	0.919000	0.012000	0.574100
N341	N34	0.764000	0.027000	0.922200
N351	N35	0.399000	0.206000	0.385600
N361	N36	0.352000	0.265000	0.069600
N371	N37	0.466000	0.201000	0.422300
N381	N38	0.091000	0.233000	0.083800
N391	N39	0.813000	0.420000	0.889900
N401	N40	0.757000	0.436000	0.622800
N411	N41	0.689000	0.491000	0.590800
N421	N42	0.083000	0.286000	0.130700
N431	N43	0.750000	0.468000	0.926900
N441	N44	0.480000	0.281000	0.338200
N451	N45	0.384000	0.217000	0.122200
N461	N46	0.028000	0.315000	0.405800
N471	N47	0.895000	0.449000	0.958200
N481	N48	0.833000	0.147000	0.539500
O11	O1	0.276600	0.355600	0.577400
O21	O2	0.293600	0.482100	0.726900
O31	O3	0.236500	0.020000	0.726000
O41	O4	0.162300	0.277700	0.878800
O51	O5	0.115700	0.307600	0.594600
O61	O6	0.341200	0.122300	0.691300
O71	O7	0.217600	0.649100	0.697300
O81	O8	0.127700	0.922000	0.692700
O91	O9	0.490700	0.415900	0.728100
O101	O10	0.015100	0.342500	0.718900
O111	O11	0.095900	0.560500	0.743200
O121	O12	0.283700	0.379200	0.906200
O131	O13	0.314600	0.608700	0.798800
O141	O14	0.341700	0.971500	0.832900
O151	O15	0.450400	0.073700	0.795700
O161	O16	0.248600	0.148800	0.790700
O171	O17	0.514800	0.159500	0.702500
O181	O18	0.186700	0.520500	0.839900
O191	O19	0.409500	0.209200	0.586000
O201	O20	0.365900	0.209200	0.871200
O211	O21	0.519600	0.306400	0.628200
O221	O22	0.249400	0.160000	0.576700
O231	O23	0.485300	0.033500	0.631000
O241	O24	0.146500	0.048800	0.611600
O251	O25	0.203100	0.527400	0.616900
O261	O26	0.212800	0.882900	0.793200
O271	O27	0.383800	0.463300	0.606900
O281	O28	0.407900	0.443700	0.831400
O291	O29	0.432100	0.942000	0.729500
O301	O30	0.324200	0.990300	0.608400
O311	O31	0.123300	0.048600	0.839000
O321	O32	0.242300	0.105200	0.905700
O331	O33	0.164600	0.185100	0.696000
O341	O34	0.277600	0.349700	0.792200
O351	O35	0.190200	0.382500	0.695800
O361	O36	0.045600	0.479700	0.644200
O371	O37	0.080000	0.415400	0.807600
O381	O38	0.478700	0.276700	0.793500
O391	O39	0.035300	0.087000	0.739800
O401	O40	0.400900	0.581900	0.688200
O411	O41	0.051100	0.221000	0.808600
O421	O42	0.009000	0.201600	0.643200
O431	O43	0.365100	0.317700	0.691100
O441	O44	0.425600	0.042400	0.922500
O451	O45	0.095600	0.443100	0.930000
O461	O46	0.223100	0.857700	0.583600
O471	O47	0.312300	0.854000	0.690900
O481	O48	0.723400	0.644400	0.422600
O491	O49	0.706400	0.517900	0.273100
O501	O50	0.763500	0.980000	0.274000
O511	O51	0.837700	0.722300	0.121200
O521	O52	0.884300	0.692400	0.405400
O531	O53	0.658800	0.877700	0.308700
O541	O54	0.782400	0.350900	0.302700
O551	O55	0.872300	0.078000	0.307300
O561	O56	0.509300	0.584100	0.271900
O571	O57	0.984900	0.657500	0.281100
O581	O58	0.904100	0.439500	0.256800
O591	O59	0.716300	0.620800	0.093800
O601	O60	0.685400	0.391300	0.201200
O611	O61	0.658300	0.028500	0.167100
O621	O62	0.549600	0.926300	0.204300
O631	O63	0.751400	0.851200	0.209300
O641	O64	0.485200	0.840500	0.297500
O651	O65	0.813300	0.479500	0.160100
O661	O66	0.590500	0.790800	0.414000
O671	O67	0.634100	0.790800	0.128800
O681	O68	0.480400	0.693600	0.371800
O691	O69	0.750600	0.840000	0.423300
O701	O70	0.514700	0.966500	0.369000
O711	O71	0.853500	0.951200	0.388400
O721	O72	0.796900	0.472600	0.383100
O731	O73	0.787200	0.117100	0.206800
O741	O74	0.616200	0.536700	0.393100
O751	O75	0.592100	0.556300	0.168600
O761	O76	0.567900	0.058000	0.270500
O771	O77	0.675800	0.009700	0.391600
O781	O78	0.876700	0.951400	0.161000
O791	O79	0.757700	0.894800	0.094300
O801	O80	0.835400	0.814900	0.304000
O811	O81	0.722400	0.650300	0.207800
O821	O82	0.809800	0.617500	0.304200
O831	O83	0.954400	0.520300	0.355800
O841	O84	0.920000	0.584600	0.192400
O851	O85	0.521300	0.723300	0.206500
O861	O86	0.964700	0.913000	0.260200
O871	O87	0.599100	0.418100	0.311800
O881	O88	0.948900	0.779000	0.191400
O891	O89	0.991000	0.798400	0.356800
O901	O90	0.634900	0.682300	0.308900
O911	O91	0.574400	0.957600	0.077500
O921	O92	0.904400	0.556900	0.070000
O931	O93	0.776900	0.142300	0.416400
O941	O94	0.687700	0.146000	0.309100
