data_KIFXOO_clean_PM
_symmetry_space_group_name_H-M	'P1'
_cell_length_a	11.275000
_cell_length_b	13.288000
_cell_length_c	18.774000
_cell_angle_alpha	92.211000
_cell_angle_beta	100.988000
_cell_angle_gamma	104.960000
_symmetry_Int_Tables_number 1

loop_
_symmetry_equiv_pos_as_xyz
'x,y,z'

loop_
_atom_site_label
_atom_site_type_symbol
_atom_site_fract_x
_atom_site_fract_y
_atom_site_fract_z
Ni11	Ni1	0.049280	0.609470	0.928270
Ni21	Ni2	0.950720	0.390530	0.071730
Ni31	Ni3	0.500000	0.500000	0.500000
Ni41	Ni4	0.500000	0.000000	0.000000
H11	H1	0.847400	0.264300	0.425100
H21	H2	0.635300	0.064000	0.337500
H31	H3	0.446200	0.941500	0.292700
H41	H4	0.298800	0.052600	0.446600
H51	H5	0.488100	0.173200	0.491300
H61	H6	0.218700	0.958500	0.210500
H71	H7	0.152800	0.840700	0.106600
H81	H8	0.102600	0.602800	0.231200
H91	H9	0.179300	0.719500	0.334900
H101	H10	0.893100	0.699500	0.016200
H111	H11	0.691300	0.689800	0.020900
H121	H12	0.583500	0.508400	0.834000
H131	H13	0.790200	0.522200	0.835400
H141	H14	0.136700	0.939600	0.824600
H151	H15	0.105100	0.041300	0.728300
H161	H16	0.902400	0.784100	0.600600
H171	H17	0.933500	0.682700	0.695500
H181	H18	0.211000	0.030400	0.600600
H191	H19	0.327000	0.187400	0.569300
H201	H20	0.023900	0.295500	0.540500
H211	H21	0.908700	0.139700	0.572100
H221	H22	0.684800	0.662900	0.616300
H231	H23	0.694100	0.768400	0.717700
H241	H24	0.331000	0.625000	0.706800
H251	H25	0.332000	0.530400	0.603100
H261	H26	0.692800	0.804400	0.838900
H271	H27	0.684200	0.905300	0.939000
H281	H28	0.331500	0.881500	0.863700
H291	H29	0.329500	0.776900	0.763200
H301	H30	0.390300	0.492500	0.840600
H311	H31	0.513200	0.689500	0.019900
H321	H32	0.192600	0.500600	0.843300
H331	H33	0.311400	0.692200	0.017900
H341	H34	0.152600	0.735700	0.574900
H351	H35	0.364700	0.936000	0.662500
H361	H36	0.553800	0.058500	0.707300
H371	H37	0.701200	0.947400	0.553400
H381	H38	0.511900	0.826800	0.508700
H391	H39	0.781300	0.041500	0.789500
H401	H40	0.847200	0.159300	0.893400
H411	H41	0.897400	0.397200	0.768800
H421	H42	0.820700	0.280500	0.665100
H431	H43	0.106900	0.300500	0.983800
H441	H44	0.308700	0.310200	0.979100
H451	H45	0.416500	0.491600	0.166000
H461	H46	0.209800	0.477800	0.164600
H471	H47	0.863300	0.060400	0.175400
H481	H48	0.894900	0.958700	0.271700
H491	H49	0.097600	0.215900	0.399400
H501	H50	0.066500	0.317300	0.304500
H511	H51	0.789000	0.969600	0.399400
H521	H52	0.673000	0.812600	0.430700
H531	H53	0.976100	0.704500	0.459500
H541	H54	0.091300	0.860300	0.427900
H551	H55	0.315200	0.337100	0.383700
H561	H56	0.305900	0.231600	0.282300
H571	H57	0.669000	0.375000	0.293200
H581	H58	0.668000	0.469600	0.396900
H591	H59	0.307200	0.195600	0.161100
H601	H60	0.315800	0.094700	0.061000
H611	H61	0.668500	0.118500	0.136300
H621	H62	0.670500	0.223100	0.236800
H631	H63	0.609700	0.507500	0.159400
H641	H64	0.486800	0.310500	0.980100
H651	H65	0.807400	0.499400	0.156700
H661	H66	0.688600	0.307800	0.982100
C11	C1	0.697340	0.215700	0.446700
C21	C2	0.580470	0.131580	0.418380
C31	C3	0.567390	0.061710	0.359420
C41	C4	0.454690	0.988520	0.332570
C51	C5	0.354300	0.985640	0.365380
C61	C6	0.366680	0.054880	0.424650
C71	C7	0.479380	0.126950	0.451050
C81	C8	0.207090	0.848800	0.281290
C91	C9	0.197900	0.886810	0.214520
C101	C10	0.156640	0.815930	0.152460
C111	C11	0.121690	0.710400	0.157990
C121	C12	0.128280	0.674270	0.226820
C131	C13	0.172780	0.743740	0.288850
C141	C14	0.075380	0.633640	0.091990
C151	C15	0.829840	0.659380	0.979010
C161	C16	0.708280	0.654220	0.982030
C171	C17	0.610580	0.597010	0.928230
C181	C18	0.644800	0.547600	0.872400
C191	C19	0.769970	0.556350	0.873660
C201	C20	0.054830	0.734660	0.831130
C211	C21	0.038060	0.801740	0.770740
C221	C22	0.089010	0.907870	0.779500
C231	C23	0.070470	0.969190	0.721810
C241	C24	0.000710	0.921850	0.655630
C251	C25	0.949620	0.815410	0.645820
C261	C26	0.967880	0.754840	0.702520
C271	C27	0.048540	0.070450	0.586950
C281	C28	0.173180	0.083360	0.587630
C291	C29	0.241960	0.177300	0.568530
C301	C30	0.186290	0.256160	0.548370
C311	C31	0.061700	0.241890	0.551410
C321	C32	0.992720	0.148940	0.570470
C331	C33	0.257310	0.354190	0.521230
C341	C34	0.611860	0.657070	0.633890
C351	C35	0.619040	0.720120	0.695680
C361	C36	0.512290	0.710180	0.724350
C371	C37	0.404220	0.636020	0.688730
C381	C38	0.406050	0.578800	0.626550
C391	C39	0.511670	0.777820	0.789110
C401	C40	0.617510	0.818340	0.842850
C411	C41	0.612080	0.879910	0.902870
C421	C42	0.405310	0.865440	0.858870
C431	C43	0.403390	0.802490	0.797990
C441	C44	0.478400	0.593660	0.928920
C451	C45	0.377360	0.535260	0.877110
C461	C46	0.449430	0.650880	0.982400
C471	C47	0.258340	0.540120	0.879380
C481	C48	0.327240	0.651790	0.981130
C491	C49	0.302660	0.784300	0.553300
C501	C50	0.419530	0.868420	0.581620
C511	C51	0.432610	0.938290	0.640580
C521	C52	0.545310	0.011480	0.667430
C531	C53	0.645700	0.014360	0.634620
C541	C54	0.633320	0.945120	0.575350
C551	C55	0.520620	0.873050	0.548950
C561	C56	0.792910	0.151200	0.718710
C571	C57	0.802100	0.113190	0.785480
C581	C58	0.843360	0.184070	0.847540
C591	C59	0.878310	0.289600	0.842010
C601	C60	0.871720	0.325730	0.773180
C611	C61	0.827220	0.256260	0.711150
C621	C62	0.924620	0.366360	0.908010
C631	C63	0.170160	0.340620	0.020990
C641	C64	0.291720	0.345780	0.017970
C651	C65	0.389420	0.402990	0.071770
C661	C66	0.355200	0.452400	0.127600
C671	C67	0.230030	0.443650	0.126340
C681	C68	0.945170	0.265340	0.168870
C691	C69	0.961940	0.198260	0.229260
C701	C70	0.910990	0.092130	0.220500
C711	C71	0.929530	0.030810	0.278190
C721	C72	0.999290	0.078150	0.344370
C731	C73	0.050380	0.184590	0.354180
C741	C74	0.032120	0.245160	0.297480
C751	C75	0.951460	0.929550	0.413050
C761	C76	0.826820	0.916640	0.412370
C771	C77	0.758040	0.822700	0.431470
C781	C78	0.813710	0.743840	0.451630
C791	C79	0.938300	0.758110	0.448590
C801	C80	0.007280	0.851060	0.429530
C811	C81	0.742690	0.645810	0.478770
C821	C82	0.388140	0.342930	0.366110
C831	C83	0.380960	0.279880	0.304320
C841	C84	0.487710	0.289820	0.275650
C851	C85	0.595780	0.363980	0.311270
C861	C86	0.593950	0.421200	0.373450
C871	C87	0.488330	0.222180	0.210890
C881	C88	0.382490	0.181660	0.157150
C891	C89	0.387920	0.120090	0.097130
C901	C90	0.594690	0.134560	0.141130
C911	C91	0.596610	0.197510	0.202010
C921	C92	0.521600	0.406340	0.071080
C931	C93	0.622640	0.464740	0.122890
C941	C94	0.550570	0.349120	0.017600
C951	C95	0.741660	0.459880	0.120620
C961	C96	0.672760	0.348210	0.018870
N11	N1	0.506820	0.588300	0.597870
N21	N2	0.507160	0.904090	0.910820
N31	N3	0.862650	0.610650	0.926310
N41	N4	0.230970	0.597950	0.930100
N51	N5	0.493180	0.411700	0.402130
N61	N6	0.492840	0.095910	0.089180
N71	N7	0.137350	0.389350	0.073690
N81	N8	0.769030	0.402050	0.069900
O11	O1	0.780210	0.224530	0.404120
O21	O2	0.715520	0.273220	0.500920
O31	O3	0.239660	0.915960	0.344770
O41	O4	0.102780	0.664260	0.033660
O51	O5	0.009450	0.545640	0.100210
O61	O6	0.022920	0.636020	0.817260
O71	O7	0.097000	0.773490	0.895690
O81	O8	0.970000	0.975030	0.596600
O91	O9	0.194480	0.410090	0.489060
O101	O10	0.374480	0.372540	0.530110
O111	O11	0.219790	0.775470	0.595880
O121	O12	0.284480	0.726780	0.499080
O131	O13	0.760340	0.084040	0.655230
O141	O14	0.897220	0.335740	0.966340
O151	O15	0.990550	0.454360	0.899790
O161	O16	0.977080	0.363980	0.182740
O171	O17	0.903000	0.226510	0.104310
O181	O18	0.030000	0.024970	0.403400
O191	O19	0.805520	0.589910	0.510940
O201	O20	0.625520	0.627460	0.469890
