data_KILJEV_clean_PM
_symmetry_space_group_name_H-M	'P1'
_cell_length_a	7.456400
_cell_length_b	9.184500
_cell_length_c	11.582000
_cell_angle_alpha	100.842000
_cell_angle_beta	104.303000
_cell_angle_gamma	94.774000
_symmetry_Int_Tables_number 1

loop_
_symmetry_equiv_pos_as_xyz
'x,y,z'

loop_
_atom_site_label
_atom_site_type_symbol
_atom_site_fract_x
_atom_site_fract_y
_atom_site_fract_z
Cu11	Cu1	0.160720	0.121010	0.012080
Cu21	Cu2	0.361830	0.919600	0.775910
Cu31	Cu3	0.839280	0.878990	0.987920
Cu41	Cu4	0.638170	0.080400	0.224090
P11	P1	0.352300	0.837220	0.024080
P21	P2	0.033700	0.082590	0.240170
P31	P3	0.647700	0.162780	0.975920
P41	P4	0.966300	0.917410	0.759830
H11	H1	0.159200	0.415000	0.174100
H21	H2	0.225800	0.664300	0.178900
H31	H3	0.316500	0.556700	0.848700
H41	H4	0.249300	0.307800	0.850500
H51	H5	0.199900	0.766000	0.523300
H61	H6	0.074500	0.817100	0.336200
H71	H7	0.285000	0.248000	0.475100
H81	H8	0.407500	0.186300	0.660300
H91	H9	0.840800	0.585000	0.825900
H101	H10	0.774200	0.335700	0.821100
H111	H11	0.683500	0.443300	0.151300
H121	H12	0.750700	0.692200	0.149500
H131	H13	0.800100	0.234000	0.476700
H141	H14	0.925500	0.182900	0.663800
H151	H15	0.715000	0.752000	0.524900
H161	H16	0.592500	0.813700	0.339700
C11	C1	0.192100	0.443700	0.108400
C21	C2	0.232500	0.593700	0.111600
C31	C3	0.283100	0.640800	0.015600
C41	C4	0.286500	0.530200	0.915900
C51	C5	0.245100	0.380500	0.917200
C61	C6	0.214600	0.864400	0.514000
C71	C7	0.138300	0.894700	0.401100
C81	C8	0.156300	0.040400	0.383900
C91	C9	0.263100	0.149800	0.483300
C101	C10	0.336900	0.112000	0.594900
C111	C11	0.807900	0.556300	0.891600
C121	C12	0.767500	0.406300	0.888400
C131	C13	0.716900	0.359200	0.984400
C141	C14	0.713500	0.469800	0.084100
C151	C15	0.754900	0.619500	0.082800
C161	C16	0.785400	0.135600	0.486000
C171	C17	0.861700	0.105300	0.598900
C181	C18	0.843700	0.959600	0.616100
C191	C19	0.736900	0.850200	0.516700
C201	C20	0.663100	0.888000	0.405100
N11	N1	0.199000	0.337300	0.012400
N21	N2	0.309300	0.971400	0.611100
N31	N3	0.801000	0.662700	0.987600
N41	N4	0.690700	0.028600	0.388900
O11	O1	0.182200	0.153300	0.189700
O21	O2	0.174200	0.907400	0.005600
O31	O3	0.927200	0.931800	0.166700
O41	O4	0.483800	0.890400	0.151500
O51	O5	0.450200	0.845000	0.924500
O61	O6	0.899200	0.192000	0.270500
O71	O7	0.817800	0.846700	0.810300
O81	O8	0.825800	0.092600	0.994400
O91	O9	0.072800	0.068200	0.833300
O101	O10	0.516200	0.109600	0.848500
O111	O11	0.549800	0.155000	0.075500
O121	O12	0.100800	0.808000	0.729500
