data_KINFEU_clean_PM
_symmetry_space_group_name_H-M	'P1'
_cell_length_a	10.863900
_cell_length_b	18.667000
_cell_length_c	19.840000
_cell_angle_alpha	98.035000
_cell_angle_beta	96.535000
_cell_angle_gamma	106.185000
_symmetry_Int_Tables_number 1

loop_
_symmetry_equiv_pos_as_xyz
'x,y,z'

loop_
_atom_site_label
_atom_site_type_symbol
_atom_site_fract_x
_atom_site_fract_y
_atom_site_fract_z
Tm11	Tm1	0.176630	0.891980	0.794850
Tm21	Tm2	0.172540	0.599160	0.797750
Tm31	Tm3	0.236340	0.389730	0.728450
Tm41	Tm4	0.249130	0.101520	0.725910
Tm51	Tm5	0.823370	0.108020	0.205150
Tm61	Tm6	0.827460	0.400840	0.202250
Tm71	Tm7	0.763660	0.610270	0.271550
Tm81	Tm8	0.750870	0.898480	0.274090
H11	H1	0.556200	0.904400	0.793000
H21	H2	0.763900	0.898700	0.804300
H31	H3	0.868600	0.091200	0.728200
H41	H4	0.665000	0.098300	0.724500
H51	H5	0.053100	0.779800	0.571100
H61	H6	0.972200	0.727300	0.456400
H71	H7	0.040100	0.936500	0.411800
H81	H8	0.117200	0.986100	0.523000
H91	H9	0.433300	0.727700	0.968400
H101	H10	0.562200	0.785300	0.073500
H111	H11	0.620000	0.983900	0.010900
H121	H12	0.478600	0.926800	0.909800
H131	H13	0.836200	0.569400	0.702600
H141	H14	0.617100	0.514900	0.698700
H151	H15	0.584200	0.708700	0.795900
H161	H16	0.801800	0.763600	0.802200
H171	H17	0.839800	0.273600	0.783700
H181	H18	0.621400	0.223700	0.789500
H191	H19	0.577000	0.429800	0.799000
H201	H20	0.799600	0.481700	0.803700
H211	H21	0.432200	0.403500	0.905800
H221	H22	0.424400	0.604000	0.003400
H231	H23	0.092600	0.407800	0.520700
H241	H24	0.996600	0.590200	0.591900
H251	H25	0.443800	0.095600	0.207000
H261	H26	0.236100	0.101300	0.195700
H271	H27	0.131400	0.908800	0.271800
H281	H28	0.335000	0.901700	0.275500
H291	H29	0.946900	0.220200	0.428900
H301	H30	0.027800	0.272700	0.543600
H311	H31	0.959900	0.063500	0.588200
H321	H32	0.882800	0.013900	0.477000
H331	H33	0.566700	0.272300	0.031600
H341	H34	0.437800	0.214700	0.926500
H351	H35	0.380000	0.016100	0.989100
H361	H36	0.521400	0.073200	0.090200
H371	H37	0.163800	0.430600	0.297400
H381	H38	0.382900	0.485100	0.301300
H391	H39	0.415800	0.291300	0.204100
H401	H40	0.198200	0.236400	0.197800
H411	H41	0.160200	0.726400	0.216300
H421	H42	0.378600	0.776300	0.210500
H431	H43	0.423000	0.570200	0.201000
H441	H44	0.200400	0.518300	0.196300
H451	H45	0.567800	0.596500	0.094200
H461	H46	0.575600	0.396000	0.996600
H471	H47	0.907400	0.592200	0.479300
H481	H48	0.003400	0.409800	0.408100
C11	C1	0.448500	0.003400	0.750900
C21	C2	0.587800	0.000100	0.756200
C31	C3	0.620400	0.942400	0.780400
C41	C4	0.743700	0.938500	0.786800
C51	C5	0.840800	0.994900	0.766800
C61	C6	0.976300	0.990300	0.770600
C71	C7	0.806200	0.053500	0.742400
C81	C8	0.684900	0.057000	0.738900
C91	C9	0.136100	0.921800	0.634700
C101	C10	0.091000	0.888800	0.559500
C111	C11	0.048000	0.811100	0.538900
C121	C12	0.997500	0.779600	0.470800
C131	C13	0.984900	0.827100	0.424100
C141	C14	0.913700	0.793800	0.350600
C151	C15	0.038000	0.904800	0.444200
C161	C16	0.085800	0.933600	0.509700
C171	C17	0.338200	0.784000	0.865400
C181	C18	0.435800	0.821000	0.929000
C191	C19	0.467900	0.780300	0.977800
C201	C20	0.549200	0.814000	0.040200
C211	C21	0.609000	0.889300	0.051200
C221	C22	0.689400	0.929600	0.116200
C231	C23	0.580800	0.931700	0.002500
C241	C24	0.495500	0.897500	0.942000
C251	C25	0.985700	0.709000	0.758400
C261	C26	0.843000	0.672300	0.753000
C271	C27	0.786500	0.597600	0.722000
C281	C28	0.655600	0.565200	0.720000
C291	C29	0.579800	0.605600	0.749100
C301	C30	0.433900	0.562900	0.744000
C311	C31	0.635100	0.680400	0.778200
C321	C32	0.764500	0.713100	0.781100
C331	C33	0.980700	0.416400	0.783000
C341	C34	0.843200	0.384900	0.793500
C351	C35	0.787700	0.305400	0.788000
C361	C36	0.656000	0.275100	0.788900
C371	C37	0.576900	0.320800	0.789000
C381	C38	0.431900	0.287400	0.777800
C391	C39	0.629900	0.398300	0.796000
C401	C40	0.764200	0.429400	0.798500
C411	C41	0.315600	0.509000	0.885500
C421	C42	0.410100	0.504800	0.945600
C431	C43	0.459100	0.442400	0.944000
C441	C44	0.454000	0.561700	0.001800
C451	C45	0.110100	0.496300	0.638700
C461	C46	0.053700	0.498300	0.565700
C471	C47	0.055200	0.445600	0.512500
C481	C48	0.998600	0.553800	0.555300
C491	C49	0.551500	0.996600	0.249100
C501	C50	0.412200	0.999900	0.243800
C511	C51	0.379600	0.057600	0.219600
C521	C52	0.256300	0.061500	0.213200
C531	C53	0.159200	0.005100	0.233200
C541	C54	0.023700	0.009700	0.229400
C551	C55	0.193800	0.946500	0.257600
C561	C56	0.315100	0.943000	0.261100
C571	C57	0.863900	0.078200	0.365300
C581	C58	0.909000	0.111200	0.440500
C591	C59	0.952000	0.188900	0.461100
C601	C60	0.002500	0.220400	0.529200
C611	C61	0.015100	0.172900	0.575900
C621	C62	0.086300	0.206200	0.649400
C631	C63	0.962000	0.095200	0.555800
C641	C64	0.914200	0.066400	0.490300
C651	C65	0.661800	0.216000	0.134600
C661	C66	0.564200	0.179000	0.071000
C671	C67	0.532100	0.219700	0.022200
C681	C68	0.450800	0.186000	0.959800
C691	C69	0.391000	0.110700	0.948800
C701	C70	0.310600	0.070400	0.883800
C711	C71	0.419200	0.068300	0.997500
C721	C72	0.504500	0.102500	0.058000
C731	C73	0.014300	0.291000	0.241600
C741	C74	0.157000	0.327700	0.247000
C751	C75	0.213500	0.402400	0.278000
C761	C76	0.344400	0.434800	0.280000
C771	C77	0.420200	0.394400	0.250900
C781	C78	0.566100	0.437100	0.256000
C791	C79	0.364900	0.319600	0.221800
C801	C80	0.235500	0.286900	0.218900
C811	C81	0.019300	0.583600	0.217000
C821	C82	0.156800	0.615100	0.206500
C831	C83	0.212300	0.694600	0.212000
C841	C84	0.344000	0.724900	0.211100
C851	C85	0.423100	0.679200	0.211000
C861	C86	0.568100	0.712600	0.222200
C871	C87	0.370100	0.601700	0.204000
C881	C88	0.235800	0.570600	0.201500
C891	C89	0.684400	0.491000	0.114500
C901	C90	0.589900	0.495200	0.054400
C911	C91	0.540900	0.557600	0.056000
C921	C92	0.546000	0.438300	0.998200
C931	C93	0.889900	0.503700	0.361300
C941	C94	0.946300	0.501700	0.434300
C951	C95	0.944800	0.554400	0.487500
C961	C96	0.001400	0.446200	0.444700
O11	O1	0.368100	0.947500	0.760600
O21	O2	0.430000	0.062500	0.737800
O31	O3	0.000800	0.934600	0.791100
O41	O4	0.058400	0.043000	0.753800
O51	O5	0.128500	0.878700	0.678400
O61	O6	0.183200	0.992800	0.650900
O71	O7	0.891300	0.724400	0.333000
O81	O8	0.883500	0.838100	0.314700
O91	O9	0.306400	0.824900	0.828300
O101	O10	0.296900	0.713000	0.853400
O111	O11	0.713900	0.889700	0.159000
O121	O12	0.734000	0.999500	0.127500
O131	O13	0.022800	0.778900	0.764900
O141	O14	0.057200	0.667100	0.752700
O151	O15	0.398300	0.494600	0.724100
O161	O16	0.370300	0.603900	0.768600
O171	O17	0.026200	0.484800	0.791000
O181	O18	0.041700	0.370100	0.768500
O191	O19	0.388800	0.219500	0.768600
O201	O20	0.363700	0.330800	0.779600
O211	O21	0.270800	0.563700	0.891000
O221	O22	0.285800	0.456900	0.836700
O231	O23	0.127400	0.554600	0.683100
O241	O24	0.130900	0.435500	0.648100
O251	O25	0.631900	0.052500	0.239400
O261	O26	0.570000	0.937500	0.262200
O271	O27	0.999200	0.065400	0.208900
O281	O28	0.941600	0.957000	0.246200
O291	O29	0.871500	0.121300	0.321600
O301	O30	0.816800	0.007200	0.349100
O311	O31	0.108700	0.275600	0.667000
O321	O32	0.116500	0.161900	0.685300
O331	O33	0.693600	0.175100	0.171700
O341	O34	0.703100	0.287000	0.146600
O351	O35	0.286100	0.110300	0.841000
O361	O36	0.266000	0.000500	0.872500
O371	O37	0.977200	0.221100	0.235100
O381	O38	0.942800	0.332900	0.247300
O391	O39	0.601700	0.505400	0.275900
O401	O40	0.629700	0.396100	0.231400
O411	O41	0.973800	0.515200	0.209000
O421	O42	0.958300	0.629900	0.231500
O431	O43	0.611200	0.780500	0.231400
O441	O44	0.636300	0.669200	0.220400
O451	O45	0.729200	0.436300	0.109000
O461	O46	0.714200	0.543100	0.163300
O471	O47	0.872600	0.445400	0.316900
O481	O48	0.869100	0.564500	0.351900
