data_KIPJIE_clean_PM
_symmetry_space_group_name_H-M	'P1'
_cell_length_a	7.352400
_cell_length_b	23.175000
_cell_length_c	29.164200
_cell_angle_alpha	90.000000
_cell_angle_beta	90.000000
_cell_angle_gamma	90.772000
_symmetry_Int_Tables_number 1

loop_
_symmetry_equiv_pos_as_xyz
'x,y,z'

loop_
_atom_site_label
_atom_site_type_symbol
_atom_site_fract_x
_atom_site_fract_y
_atom_site_fract_z
Ce11	Ce1	0.790290	0.666910	0.298500
Ce21	Ce2	0.293370	0.739030	0.263660
Ce31	Ce3	0.209710	0.833090	0.798500
Ce41	Ce4	0.706630	0.760970	0.763660
Ce51	Ce5	0.209710	0.333090	0.701500
Ce61	Ce6	0.706630	0.260970	0.736340
Ce71	Ce7	0.790290	0.166910	0.201500
Ce81	Ce8	0.293370	0.239030	0.236340
H11	H1	0.914800	0.619900	0.579600
H21	H2	0.899200	0.342900	0.292200
H31	H3	0.590300	0.737400	0.451100
H41	H4	0.974800	0.766400	0.433000
H51	H5	0.119000	0.797200	0.499400
H61	H6	0.222100	0.708400	0.552900
H71	H7	0.236200	0.849200	0.666200
H81	H8	0.420800	0.858800	0.602400
H91	H9	0.972500	0.534300	0.177100
H101	H10	0.596000	0.553700	0.171100
H111	H11	0.445900	0.500800	0.115800
H121	H12	0.123900	0.417100	0.179500
H131	H13	0.575700	0.360400	0.114400
H141	H14	0.754600	0.430500	0.078900
H151	H15	0.085200	0.880100	0.079600
H161	H16	0.100800	0.157100	0.792200
H171	H17	0.409700	0.762600	0.951100
H181	H18	0.025200	0.733600	0.933000
H191	H19	0.881000	0.702800	0.999400
H201	H20	0.777900	0.791600	0.052900
H211	H21	0.763800	0.650800	0.166200
H221	H22	0.579200	0.641200	0.102400
H231	H23	0.027500	0.965700	0.677100
H241	H24	0.404000	0.946300	0.671100
H251	H25	0.554100	0.999200	0.615800
H261	H26	0.876100	0.082900	0.679500
H271	H27	0.424300	0.139600	0.614400
H281	H28	0.245400	0.069500	0.578900
H291	H29	0.085200	0.380100	0.420400
H301	H30	0.100800	0.657100	0.707800
H311	H31	0.409700	0.262600	0.548900
H321	H32	0.025200	0.233600	0.567000
H331	H33	0.881000	0.202800	0.500600
H341	H34	0.777900	0.291600	0.447100
H351	H35	0.763800	0.150800	0.333800
H361	H36	0.579200	0.141200	0.397600
H371	H37	0.027500	0.465700	0.822900
H381	H38	0.404000	0.446300	0.828900
H391	H39	0.554100	0.499200	0.884200
H401	H40	0.876100	0.582900	0.820500
H411	H41	0.424300	0.639600	0.885600
H421	H42	0.245400	0.569500	0.921100
H431	H43	0.914800	0.119900	0.920400
H441	H44	0.899200	0.842900	0.207800
H451	H45	0.590300	0.237400	0.048900
H461	H46	0.974800	0.266400	0.067000
H471	H47	0.119000	0.297200	0.000600
H481	H48	0.222100	0.208400	0.947100
H491	H49	0.236200	0.349200	0.833800
H501	H50	0.420800	0.358800	0.897600
H511	H51	0.972500	0.034300	0.322900
H521	H52	0.596000	0.053700	0.328900
H531	H53	0.445900	0.000800	0.384200
H541	H54	0.123900	0.917100	0.320500
H551	H55	0.575700	0.860400	0.385600
H561	H56	0.754600	0.930500	0.421100
C11	C1	0.464500	0.789000	0.528300
C21	C2	0.371600	0.768400	0.483300
C31	C3	0.466200	0.743200	0.447600
C41	C4	0.383900	0.726200	0.407200
C51	C5	0.193900	0.733000	0.402080
C61	C6	0.098700	0.760100	0.436600
C71	C7	0.185000	0.778400	0.476800
C81	C8	0.497500	0.702100	0.369500
C91	C9	0.088000	0.707800	0.362600
C101	C10	0.338600	0.785800	0.570300
C111	C11	0.225300	0.736600	0.575600
C121	C12	0.118100	0.730100	0.614800
C131	C13	0.120600	0.772400	0.649000
C141	C14	0.233900	0.820800	0.643700
C151	C15	0.343500	0.826900	0.605100
C161	C16	0.007700	0.676100	0.617800
C171	C17	0.997600	0.772000	0.690200
C181	C18	0.534500	0.851500	0.519400
C191	C19	0.628900	0.750300	0.540200
C201	C20	0.076900	0.479000	0.103800
C211	C21	0.191500	0.512800	0.138930
C221	C22	0.097800	0.539700	0.174900
C231	C23	0.185300	0.573800	0.207000
C241	C24	0.376300	0.579000	0.206000
C251	C25	0.469800	0.551000	0.171900
C261	C26	0.379200	0.518800	0.138700
C271	C27	0.074500	0.603500	0.242400
C281	C28	0.484800	0.612000	0.241800
C291	C29	0.955200	0.433000	0.127100
C301	C30	0.010900	0.407300	0.167200
C311	C31	0.900600	0.367000	0.189800
C321	C32	0.732700	0.350400	0.170500
C331	C33	0.682600	0.373100	0.128400
C341	C34	0.791000	0.414800	0.106700
C351	C35	0.962400	0.347000	0.236200
C361	C36	0.605000	0.308000	0.191800
C371	C37	0.196000	0.446700	0.068500
C381	C38	0.959400	0.524500	0.077600
C391	C39	0.535500	0.711000	0.028300
C401	C40	0.628400	0.731600	0.983300
C411	C41	0.533800	0.756800	0.947600
C421	C42	0.616100	0.773800	0.907200
C431	C43	0.806100	0.767000	0.902080
C441	C44	0.901300	0.739900	0.936600
C451	C45	0.815000	0.721600	0.976800
C461	C46	0.502500	0.797900	0.869500
C471	C47	0.912000	0.792200	0.862600
C481	C48	0.661400	0.714200	0.070300
C491	C49	0.774700	0.763400	0.075600
C501	C50	0.881900	0.769900	0.114800
C511	C51	0.879400	0.727600	0.149000
C521	C52	0.766100	0.679200	0.143700
C531	C53	0.656500	0.673100	0.105100
C541	C54	0.992300	0.823900	0.117800
C551	C55	0.002400	0.728000	0.190200
C561	C56	0.465500	0.648500	0.019400
C571	C57	0.371100	0.749700	0.040200
C581	C58	0.923100	0.021000	0.603800
C591	C59	0.808500	0.987200	0.638930
C601	C60	0.902200	0.960300	0.674900
C611	C61	0.814700	0.926200	0.707000
C621	C62	0.623700	0.921000	0.706000
C631	C63	0.530200	0.949000	0.671900
C641	C64	0.620800	0.981200	0.638700
C651	C65	0.925500	0.896500	0.742400
C661	C66	0.515200	0.888000	0.741800
C671	C67	0.044800	0.067000	0.627100
C681	C68	0.989100	0.092700	0.667200
C691	C69	0.099400	0.133000	0.689800
C701	C70	0.267300	0.149600	0.670500
C711	C71	0.317400	0.126900	0.628400
C721	C72	0.209000	0.085200	0.606700
C731	C73	0.037600	0.153000	0.736200
C741	C74	0.395000	0.192000	0.691800
C751	C75	0.804000	0.053300	0.568500
C761	C76	0.040600	0.975500	0.577600
C771	C77	0.535500	0.211000	0.471700
C781	C78	0.628400	0.231600	0.516700
C791	C79	0.533800	0.256800	0.552400
C801	C80	0.616100	0.273800	0.592800
C811	C81	0.806100	0.267000	0.597920
C821	C82	0.901300	0.239900	0.563400
C831	C83	0.815000	0.221600	0.523200
C841	C84	0.502500	0.297900	0.630500
C851	C85	0.912000	0.292200	0.637400
C861	C86	0.661400	0.214200	0.429700
C871	C87	0.774700	0.263400	0.424400
C881	C88	0.881900	0.269900	0.385200
C891	C89	0.879400	0.227600	0.351000
C901	C90	0.766100	0.179200	0.356300
C911	C91	0.656500	0.173100	0.394900
C921	C92	0.992300	0.323900	0.382200
C931	C93	0.002400	0.228000	0.309800
C941	C94	0.465500	0.148500	0.480600
C951	C95	0.371100	0.249700	0.459800
C961	C96	0.923100	0.521000	0.896200
C971	C97	0.808500	0.487200	0.861070
C981	C98	0.902200	0.460300	0.825100
C991	C99	0.814700	0.426200	0.793000
C1001	C100	0.623700	0.421000	0.794000
C1011	C101	0.530200	0.449000	0.828100
C1021	C102	0.620800	0.481200	0.861300
C1031	C103	0.925500	0.396500	0.757600
C1041	C104	0.515200	0.388000	0.758200
C1051	C105	0.044800	0.567000	0.872900
C1061	C106	0.989100	0.592700	0.832800
C1071	C107	0.099400	0.633000	0.810200
C1081	C108	0.267300	0.649600	0.829500
C1091	C109	0.317400	0.626900	0.871600
C1101	C110	0.209000	0.585200	0.893300
C1111	C111	0.037600	0.653000	0.763800
C1121	C112	0.395000	0.692000	0.808200
C1131	C113	0.804000	0.553300	0.931500
C1141	C114	0.040600	0.475500	0.922400
C1151	C115	0.464500	0.289000	0.971700
C1161	C116	0.371600	0.268400	0.016700
C1171	C117	0.466200	0.243200	0.052400
C1181	C118	0.383900	0.226200	0.092800
C1191	C119	0.193900	0.233000	0.097920
C1201	C120	0.098700	0.260100	0.063400
C1211	C121	0.185000	0.278400	0.023200
C1221	C122	0.497500	0.202100	0.130500
C1231	C123	0.088000	0.207800	0.137400
C1241	C124	0.338600	0.285800	0.929700
C1251	C125	0.225300	0.236600	0.924400
C1261	C126	0.118100	0.230100	0.885200
C1271	C127	0.120600	0.272400	0.851000
C1281	C128	0.233900	0.320800	0.856300
C1291	C129	0.343500	0.326900	0.894900
C1301	C130	0.007700	0.176100	0.882200
C1311	C131	0.997600	0.272000	0.809800
C1321	C132	0.534500	0.351500	0.980600
C1331	C133	0.628900	0.250300	0.959800
C1341	C134	0.076900	0.979000	0.396200
C1351	C135	0.191500	0.012800	0.361070
C1361	C136	0.097800	0.039700	0.325100
C1371	C137	0.185300	0.073800	0.293000
C1381	C138	0.376300	0.079000	0.294000
C1391	C139	0.469800	0.051000	0.328100
C1401	C140	0.379200	0.018800	0.361300
C1411	C141	0.074500	0.103500	0.257600
C1421	C142	0.484800	0.112000	0.258200
C1431	C143	0.955200	0.933000	0.372900
C1441	C144	0.010900	0.907300	0.332800
C1451	C145	0.900600	0.867000	0.310200
C1461	C146	0.732700	0.850400	0.329500
C1471	C147	0.682600	0.873100	0.371600
C1481	C148	0.791000	0.914800	0.393300
C1491	C149	0.962400	0.847000	0.263800
C1501	C150	0.605000	0.808000	0.308200
C1511	C151	0.196000	0.946700	0.431500
C1521	C152	0.959400	0.024500	0.422400
O11	O1	0.666700	0.700200	0.375470
O21	O2	0.422300	0.686290	0.332390
O31	O3	0.060500	0.738820	0.326410
O41	O4	0.018200	0.659160	0.366890
O51	O5	0.981400	0.650900	0.655240
O61	O6	0.945200	0.657100	0.579940
O71	O7	0.067800	0.780300	0.729450
O81	O8	0.830600	0.766100	0.684000
O91	O9	0.150500	0.638110	0.270320
O101	O10	0.903400	0.594500	0.242320
O111	O11	0.513100	0.665960	0.235590
O121	O12	0.553700	0.585500	0.274050
O131	O13	0.116700	0.330800	0.242300
O141	O14	0.842800	0.352600	0.269240
O151	O15	0.665900	0.264180	0.212100
O161	O16	0.438100	0.316600	0.188250
O171	O17	0.333300	0.799800	0.875470
O181	O18	0.577700	0.813710	0.832390
O191	O19	0.939500	0.761180	0.826410
O201	O20	0.981800	0.840840	0.866890
O211	O21	0.018600	0.849100	0.155240
O221	O22	0.054800	0.842900	0.079940
O231	O23	0.932200	0.719700	0.229450
O241	O24	0.169400	0.733900	0.184000
O251	O25	0.849500	0.861890	0.770320
O261	O26	0.096600	0.905500	0.742320
O271	O27	0.486900	0.834040	0.735590
O281	O28	0.446300	0.914500	0.774050
O291	O29	0.883300	0.169200	0.742300
O301	O30	0.157200	0.147400	0.769240
O311	O31	0.334100	0.235820	0.712100
O321	O32	0.561900	0.183400	0.688250
O331	O33	0.333300	0.299800	0.624530
O341	O34	0.577700	0.313710	0.667610
O351	O35	0.939500	0.261180	0.673590
O361	O36	0.981800	0.340840	0.633110
O371	O37	0.018600	0.349100	0.344760
O381	O38	0.054800	0.342900	0.420060
O391	O39	0.932200	0.219700	0.270550
O401	O40	0.169400	0.233900	0.316000
O411	O41	0.849500	0.361890	0.729680
O421	O42	0.096600	0.405500	0.757680
O431	O43	0.486900	0.334040	0.764410
O441	O44	0.446300	0.414500	0.725950
O451	O45	0.883300	0.669200	0.757700
O461	O46	0.157200	0.647400	0.730760
O471	O47	0.334100	0.735820	0.787900
O481	O48	0.561900	0.683400	0.811750
O491	O49	0.666700	0.200200	0.124530
O501	O50	0.422300	0.186290	0.167610
O511	O51	0.060500	0.238820	0.173590
O521	O52	0.018200	0.159160	0.133110
O531	O53	0.981400	0.150900	0.844760
O541	O54	0.945200	0.157100	0.920060
O551	O55	0.067800	0.280300	0.770550
O561	O56	0.830600	0.266100	0.816000
O571	O57	0.150500	0.138110	0.229680
O581	O58	0.903400	0.094500	0.257680
O591	O59	0.513100	0.165960	0.264410
O601	O60	0.553700	0.085500	0.225950
O611	O61	0.116700	0.830800	0.257700
O621	O62	0.842800	0.852600	0.230760
O631	O63	0.665900	0.764180	0.287900
O641	O64	0.438100	0.816600	0.311750
F11	F1	0.398500	0.887590	0.518480
F21	F2	0.651100	0.869200	0.551640
F31	F3	0.621600	0.854800	0.479400
F41	F4	0.774100	0.758900	0.512940
F51	F5	0.581900	0.694300	0.537030
F61	F6	0.685600	0.760000	0.582990
F71	F7	0.299900	0.483260	0.043870
F81	F8	0.306700	0.411090	0.090080
F91	F9	0.096100	0.415470	0.039540
F101	F10	0.057500	0.570440	0.065760
F111	F11	0.885600	0.503640	0.038990
F121	F12	0.822000	0.542290	0.103300
F131	F13	0.601500	0.612410	0.018480
F141	F14	0.348900	0.630800	0.051640
F151	F15	0.378400	0.645200	0.979400
F161	F16	0.225900	0.741100	0.012940
F171	F17	0.418100	0.805700	0.037030
F181	F18	0.314400	0.740000	0.082990
F191	F19	0.700100	0.016740	0.543870
F201	F20	0.693300	0.088910	0.590080
F211	F21	0.903900	0.084530	0.539540
F221	F22	0.942500	0.929560	0.565760
F231	F23	0.114400	0.996360	0.538990
F241	F24	0.178000	0.957710	0.603300
F251	F25	0.601500	0.112410	0.481520
F261	F26	0.348900	0.130800	0.448360
F271	F27	0.378400	0.145200	0.520600
F281	F28	0.225900	0.241100	0.487060
F291	F29	0.418100	0.305700	0.462970
F301	F30	0.314400	0.240000	0.417010
F311	F31	0.700100	0.516740	0.956130
F321	F32	0.693300	0.588910	0.909920
F331	F33	0.903900	0.584530	0.960460
F341	F34	0.942500	0.429560	0.934240
F351	F35	0.114400	0.496360	0.961010
F361	F36	0.178000	0.457710	0.896700
F371	F37	0.398500	0.387590	0.981520
F381	F38	0.651100	0.369200	0.948360
F391	F39	0.621600	0.354800	0.020600
F401	F40	0.774100	0.258900	0.987060
F411	F41	0.581900	0.194300	0.962970
F421	F42	0.685600	0.260000	0.917010
F431	F43	0.299900	0.983260	0.456130
F441	F44	0.306700	0.911090	0.409920
F451	F45	0.096100	0.915470	0.460460
F461	F46	0.057500	0.070440	0.434240
F471	F47	0.885600	0.003640	0.461010
F481	F48	0.822000	0.042290	0.396700
