data_KIPJOK_clean_PM
_symmetry_space_group_name_H-M	'P1'
_cell_length_a	7.365400
_cell_length_b	23.480800
_cell_length_c	29.028400
_cell_angle_alpha	90.000000
_cell_angle_beta	90.000000
_cell_angle_gamma	90.969000
_symmetry_Int_Tables_number 1

loop_
_symmetry_equiv_pos_as_xyz
'x,y,z'

loop_
_atom_site_label
_atom_site_type_symbol
_atom_site_fract_x
_atom_site_fract_y
_atom_site_fract_z
Nd11	Nd1	0.789540	0.672080	0.297290
Nd21	Nd2	0.286310	0.742950	0.262180
Nd31	Nd3	0.210460	0.827920	0.797290
Nd41	Nd4	0.713690	0.757050	0.762180
Nd51	Nd5	0.210460	0.327920	0.702710
Nd61	Nd6	0.713690	0.257050	0.737820
Nd71	Nd7	0.789540	0.172080	0.202710
Nd81	Nd8	0.286310	0.242950	0.237820
H11	H1	0.928900	0.620200	0.576600
H21	H2	0.896800	0.343600	0.294600
H31	H3	0.588800	0.741400	0.448300
H41	H4	0.977400	0.775900	0.431700
H51	H5	0.129100	0.805000	0.498000
H61	H6	0.231500	0.712700	0.550200
H71	H7	0.241000	0.847700	0.666000
H81	H8	0.417900	0.861000	0.600700
H91	H9	0.965500	0.537800	0.177800
H101	H10	0.588900	0.556400	0.172600
H111	H11	0.440800	0.503500	0.117900
H121	H12	0.117100	0.420900	0.183000
H131	H13	0.568900	0.365100	0.118600
H141	H14	0.749300	0.432600	0.081700
H151	H15	0.071100	0.879800	0.076600
H161	H16	0.103200	0.156400	0.794600
H171	H17	0.411200	0.758600	0.948300
H181	H18	0.022600	0.724100	0.931700
H191	H19	0.870900	0.695000	0.998000
H201	H20	0.768500	0.787300	0.050200
H211	H21	0.759000	0.652300	0.166000
H221	H22	0.582100	0.639000	0.100700
H231	H23	0.034500	0.962200	0.677800
H241	H24	0.411100	0.943600	0.672600
H251	H25	0.559200	0.996500	0.617900
H261	H26	0.882900	0.079100	0.683000
H271	H27	0.431100	0.134900	0.618600
H281	H28	0.250700	0.067400	0.581700
H291	H29	0.071100	0.379800	0.423400
H301	H30	0.103200	0.656400	0.705400
H311	H31	0.411200	0.258600	0.551700
H321	H32	0.022600	0.224100	0.568300
H331	H33	0.870900	0.195000	0.502000
H341	H34	0.768500	0.287300	0.449800
H351	H35	0.759000	0.152300	0.334000
H361	H36	0.582100	0.139000	0.399300
H371	H37	0.034500	0.462200	0.822200
H381	H38	0.411100	0.443600	0.827400
H391	H39	0.559200	0.496500	0.882100
H401	H40	0.882900	0.579100	0.817000
H411	H41	0.431100	0.634900	0.881400
H421	H42	0.250700	0.567400	0.918300
H431	H43	0.928900	0.120200	0.923400
H441	H44	0.896800	0.843600	0.205400
H451	H45	0.588800	0.241400	0.051700
H461	H46	0.977400	0.275900	0.068300
H471	H47	0.129100	0.305000	0.002000
H481	H48	0.231500	0.212700	0.949800
H491	H49	0.241000	0.347700	0.834000
H501	H50	0.417900	0.361000	0.899300
H511	H51	0.965500	0.037800	0.322200
H521	H52	0.588900	0.056400	0.327400
H531	H53	0.440800	0.003500	0.382100
H541	H54	0.117100	0.920900	0.317000
H551	H55	0.568900	0.865100	0.381400
H561	H56	0.749300	0.932600	0.418300
C11	C1	0.468300	0.793300	0.526200
C21	C2	0.374700	0.772900	0.481300
C31	C3	0.465000	0.747700	0.445300
C41	C4	0.379600	0.731300	0.404900
C51	C5	0.191300	0.739700	0.400200
C61	C6	0.100100	0.768200	0.435100
C71	C7	0.191000	0.785300	0.475300
C81	C8	0.485800	0.705300	0.367400
C91	C9	0.081600	0.714800	0.361300
C101	C10	0.345700	0.788200	0.568500
C111	C11	0.234300	0.739800	0.573600
C121	C12	0.126900	0.730900	0.612700
C131	C13	0.128500	0.772300	0.647200
C141	C14	0.238500	0.820500	0.642700
C151	C15	0.345600	0.828300	0.603400
C161	C16	0.017900	0.677500	0.614300
C171	C17	0.008100	0.770000	0.688800
C181	C18	0.532700	0.855900	0.518000
C191	C19	0.635200	0.756700	0.537800
C201	C20	0.070200	0.480700	0.106200
C211	C21	0.185900	0.515300	0.141800
C221	C22	0.090900	0.542700	0.176100
C231	C23	0.179500	0.577700	0.208300
C241	C24	0.370600	0.583100	0.207900
C251	C25	0.462800	0.553900	0.173500
C261	C26	0.374500	0.521500	0.140800
C271	C27	0.066600	0.608600	0.242300
C281	C28	0.477700	0.618600	0.241700
C291	C29	0.948800	0.435300	0.130100
C301	C30	0.005300	0.410400	0.170400
C311	C31	0.897700	0.369800	0.192700
C321	C32	0.729100	0.353500	0.173400
C331	C33	0.677900	0.376800	0.132000
C341	C34	0.785500	0.417400	0.109800
C351	C35	0.958300	0.349000	0.238600
C361	C36	0.603100	0.310100	0.194500
C371	C37	0.189100	0.449200	0.071300
C381	C38	0.956200	0.524700	0.079400
C391	C39	0.531700	0.706700	0.026200
C401	C40	0.625300	0.727100	0.981300
C411	C41	0.535000	0.752300	0.945300
C421	C42	0.620400	0.768700	0.904900
C431	C43	0.808700	0.760300	0.900200
C441	C44	0.899900	0.731800	0.935100
C451	C45	0.809000	0.714700	0.975300
C461	C46	0.514200	0.794700	0.867400
C471	C47	0.918400	0.785200	0.861300
C481	C48	0.654300	0.711800	0.068500
C491	C49	0.765700	0.760200	0.073600
C501	C50	0.873100	0.769100	0.112700
C511	C51	0.871500	0.727700	0.147200
C521	C52	0.761500	0.679500	0.142700
C531	C53	0.654400	0.671700	0.103400
C541	C54	0.982100	0.822500	0.114300
C551	C55	0.991900	0.730000	0.188800
C561	C56	0.467300	0.644100	0.018000
C571	C57	0.364800	0.743300	0.037800
C581	C58	0.929800	0.019300	0.606200
C591	C59	0.814100	0.984700	0.641800
C601	C60	0.909100	0.957300	0.676100
C611	C61	0.820500	0.922300	0.708300
C621	C62	0.629400	0.916900	0.707900
C631	C63	0.537200	0.946100	0.673500
C641	C64	0.625500	0.978500	0.640800
C651	C65	0.933400	0.891400	0.742300
C661	C66	0.522300	0.881400	0.741700
C671	C67	0.051200	0.064700	0.630100
C681	C68	0.994700	0.089600	0.670400
C691	C69	0.102300	0.130200	0.692700
C701	C70	0.270900	0.146500	0.673400
C711	C71	0.322100	0.123200	0.632000
C721	C72	0.214500	0.082600	0.609800
C731	C73	0.041700	0.151000	0.738600
C741	C74	0.396900	0.189900	0.694500
C751	C75	0.810900	0.050800	0.571300
C761	C76	0.043800	0.975300	0.579400
C771	C77	0.531700	0.206700	0.473800
C781	C78	0.625300	0.227100	0.518700
C791	C79	0.535000	0.252300	0.554700
C801	C80	0.620400	0.268700	0.595100
C811	C81	0.808700	0.260300	0.599800
C821	C82	0.899900	0.231800	0.564900
C831	C83	0.809000	0.214700	0.524700
C841	C84	0.514200	0.294700	0.632600
C851	C85	0.918400	0.285200	0.638700
C861	C86	0.654300	0.211800	0.431500
C871	C87	0.765700	0.260200	0.426400
C881	C88	0.873100	0.269100	0.387300
C891	C89	0.871500	0.227700	0.352800
C901	C90	0.761500	0.179500	0.357300
C911	C91	0.654400	0.171700	0.396600
C921	C92	0.982100	0.322500	0.385700
C931	C93	0.991900	0.230000	0.311200
C941	C94	0.467300	0.144100	0.482000
C951	C95	0.364800	0.243300	0.462200
C961	C96	0.929800	0.519300	0.893800
C971	C97	0.814100	0.484700	0.858200
C981	C98	0.909100	0.457300	0.823900
C991	C99	0.820500	0.422300	0.791700
C1001	C100	0.629400	0.416900	0.792100
C1011	C101	0.537200	0.446100	0.826500
C1021	C102	0.625500	0.478500	0.859200
C1031	C103	0.933400	0.391400	0.757700
C1041	C104	0.522300	0.381400	0.758300
C1051	C105	0.051200	0.564700	0.869900
C1061	C106	0.994700	0.589600	0.829600
C1071	C107	0.102300	0.630200	0.807300
C1081	C108	0.270900	0.646500	0.826600
C1091	C109	0.322100	0.623200	0.868000
C1101	C110	0.214500	0.582600	0.890200
C1111	C111	0.041700	0.651000	0.761400
C1121	C112	0.396900	0.689900	0.805500
C1131	C113	0.810900	0.550800	0.928700
C1141	C114	0.043800	0.475300	0.920600
C1151	C115	0.468300	0.293300	0.973800
C1161	C116	0.374700	0.272900	0.018700
C1171	C117	0.465000	0.247700	0.054700
C1181	C118	0.379600	0.231300	0.095100
C1191	C119	0.191300	0.239700	0.099800
C1201	C120	0.100100	0.268200	0.064900
C1211	C121	0.191000	0.285300	0.024700
C1221	C122	0.485800	0.205300	0.132600
C1231	C123	0.081600	0.214800	0.138700
C1241	C124	0.345700	0.288200	0.931500
C1251	C125	0.234300	0.239800	0.926400
C1261	C126	0.126900	0.230900	0.887300
C1271	C127	0.128500	0.272300	0.852800
C1281	C128	0.238500	0.320500	0.857300
C1291	C129	0.345600	0.328300	0.896600
C1301	C130	0.017900	0.177500	0.885700
C1311	C131	0.008100	0.270000	0.811200
C1321	C132	0.532700	0.355900	0.982000
C1331	C133	0.635200	0.256700	0.962200
C1341	C134	0.070200	0.980700	0.393800
C1351	C135	0.185900	0.015300	0.358200
C1361	C136	0.090900	0.042700	0.323900
C1371	C137	0.179500	0.077700	0.291700
C1381	C138	0.370600	0.083100	0.292100
C1391	C139	0.462800	0.053900	0.326500
C1401	C140	0.374500	0.021500	0.359200
C1411	C141	0.066600	0.108600	0.257700
C1421	C142	0.477700	0.118600	0.258300
C1431	C143	0.948800	0.935300	0.369900
C1441	C144	0.005300	0.910400	0.329600
C1451	C145	0.897700	0.869800	0.307300
C1461	C146	0.729100	0.853500	0.326600
C1471	C147	0.677900	0.876800	0.368000
C1481	C148	0.785500	0.917400	0.390200
C1491	C149	0.958300	0.849000	0.261400
C1501	C150	0.603100	0.810100	0.305500
C1511	C151	0.189100	0.949200	0.428700
C1521	C152	0.956200	0.024700	0.420600
O11	O1	0.651100	0.698800	0.373100
O21	O2	0.406400	0.692300	0.330170
O31	O3	0.056200	0.744800	0.324330
O41	O4	0.006800	0.668200	0.366500
O51	O5	0.993600	0.651100	0.652300
O61	O6	0.959300	0.657400	0.577000
O71	O7	0.079300	0.777400	0.728190
O81	O8	0.840300	0.763900	0.684400
O91	O9	0.139300	0.644100	0.269870
O101	O10	0.895100	0.600700	0.241600
O111	O11	0.504000	0.671600	0.234880
O121	O12	0.552600	0.593100	0.274700
O131	O13	0.113900	0.332700	0.245010
O141	O14	0.840400	0.353300	0.271690
O151	O15	0.664600	0.265600	0.212400
O161	O16	0.436600	0.319400	0.193100
O171	O17	0.348900	0.801200	0.873100
O181	O18	0.593600	0.807700	0.830170
O191	O19	0.943800	0.755200	0.824330
O201	O20	0.993200	0.831800	0.866500
O211	O21	0.006400	0.848900	0.152300
O221	O22	0.040700	0.842600	0.077000
O231	O23	0.920700	0.722600	0.228190
O241	O24	0.159700	0.736100	0.184400
O251	O25	0.860700	0.855900	0.769870
O261	O26	0.104900	0.899300	0.741600
O271	O27	0.496000	0.828400	0.734880
O281	O28	0.447400	0.906900	0.774700
O291	O29	0.886100	0.167300	0.745010
O301	O30	0.159600	0.146700	0.771690
O311	O31	0.335400	0.234400	0.712400
O321	O32	0.563400	0.180600	0.693100
O331	O33	0.348900	0.301200	0.626900
O341	O34	0.593600	0.307700	0.669830
O351	O35	0.943800	0.255200	0.675670
O361	O36	0.993200	0.331800	0.633500
O371	O37	0.006400	0.348900	0.347700
O381	O38	0.040700	0.342600	0.423000
O391	O39	0.920700	0.222600	0.271810
O401	O40	0.159700	0.236100	0.315600
O411	O41	0.860700	0.355900	0.730130
O421	O42	0.104900	0.399300	0.758400
O431	O43	0.496000	0.328400	0.765120
O441	O44	0.447400	0.406900	0.725300
O451	O45	0.886100	0.667300	0.754990
O461	O46	0.159600	0.646700	0.728310
O471	O47	0.335400	0.734400	0.787600
O481	O48	0.563400	0.680600	0.806900
O491	O49	0.651100	0.198800	0.126900
O501	O50	0.406400	0.192300	0.169830
O511	O51	0.056200	0.244800	0.175670
O521	O52	0.006800	0.168200	0.133500
O531	O53	0.993600	0.151100	0.847700
O541	O54	0.959300	0.157400	0.923000
O551	O55	0.079300	0.277400	0.771810
O561	O56	0.840300	0.263900	0.815600
O571	O57	0.139300	0.144100	0.230130
O581	O58	0.895100	0.100700	0.258400
O591	O59	0.504000	0.171600	0.265120
O601	O60	0.552600	0.093100	0.225300
O611	O61	0.113900	0.832700	0.254990
O621	O62	0.840400	0.853300	0.228310
O631	O63	0.664600	0.765600	0.287600
O641	O64	0.436600	0.819400	0.306900
F11	F1	0.395000	0.890900	0.517320
F21	F2	0.650600	0.873800	0.549570
F31	F3	0.620900	0.860600	0.477530
F41	F4	0.778200	0.765300	0.508790
F51	F5	0.591900	0.700700	0.534270
F61	F6	0.696700	0.765800	0.579880
F71	F7	0.292400	0.484600	0.045930
F81	F8	0.302200	0.413900	0.092700
F91	F9	0.091900	0.417300	0.042210
F101	F10	0.052100	0.571200	0.068390
F111	F11	0.884700	0.504700	0.040020
F121	F12	0.815400	0.542200	0.104780
F131	F13	0.605000	0.609100	0.017320
F141	F14	0.349400	0.626200	0.049570
F151	F15	0.379100	0.639400	0.977530
F161	F16	0.221800	0.734700	0.008790
F171	F17	0.408100	0.799300	0.034270
F181	F18	0.303300	0.734200	0.079880
F191	F19	0.707600	0.015400	0.545930
F201	F20	0.697800	0.086100	0.592700
F211	F21	0.908100	0.082700	0.542210
F221	F22	0.947900	0.928800	0.568390
F231	F23	0.115300	0.995300	0.540020
F241	F24	0.184600	0.957800	0.604780
F251	F25	0.605000	0.109100	0.482680
F261	F26	0.349400	0.126200	0.450430
F271	F27	0.379100	0.139400	0.522470
F281	F28	0.221800	0.234700	0.491210
F291	F29	0.408100	0.299300	0.465730
F301	F30	0.303300	0.234200	0.420120
F311	F31	0.707600	0.515400	0.954070
F321	F32	0.697800	0.586100	0.907300
F331	F33	0.908100	0.582700	0.957790
F341	F34	0.947900	0.428800	0.931610
F351	F35	0.115300	0.495300	0.959980
F361	F36	0.184600	0.457800	0.895220
F371	F37	0.395000	0.390900	0.982680
F381	F38	0.650600	0.373800	0.950430
F391	F39	0.620900	0.360600	0.022470
F401	F40	0.778200	0.265300	0.991210
F411	F41	0.591900	0.200700	0.965730
F421	F42	0.696700	0.265800	0.920120
F431	F43	0.292400	0.984600	0.454070
F441	F44	0.302200	0.913900	0.407300
F451	F45	0.091900	0.917300	0.457790
F461	F46	0.052100	0.071200	0.431610
F471	F47	0.884700	0.004700	0.459980
F481	F48	0.815400	0.042200	0.395220
