data_KIPKEB_clean_PM
_symmetry_space_group_name_H-M	'P1'
_cell_length_a	8.095400
_cell_length_b	21.259000
_cell_length_c	22.814900
_cell_angle_alpha	82.520000
_cell_angle_beta	82.394000
_cell_angle_gamma	79.972000
_symmetry_Int_Tables_number 1

loop_
_symmetry_equiv_pos_as_xyz
'x,y,z'

loop_
_atom_site_label
_atom_site_type_symbol
_atom_site_fract_x
_atom_site_fract_y
_atom_site_fract_z
Y11	Y1	0.802070	0.424600	0.284000
Y21	Y2	0.386430	0.471180	0.433090
Y31	Y3	0.464330	0.249090	0.095610
Y41	Y4	0.239570	0.093400	0.036350
Y51	Y5	0.197930	0.575400	0.716000
Y61	Y6	0.613570	0.528820	0.566910
Y71	Y7	0.535670	0.750910	0.904390
Y81	Y8	0.760430	0.906600	0.963650
H11	H1	0.559200	0.645900	0.253400
H21	H2	0.533400	0.714500	0.437900
H31	H3	0.443100	0.785800	0.360600
H41	H4	0.402600	0.769400	0.125500
H51	H5	0.968400	0.747900	0.151300
H61	H6	0.767700	0.746300	0.233000
H71	H7	0.338800	0.282300	0.430700
H81	H8	0.336600	0.186400	0.260300
H91	H9	0.236900	0.137300	0.351500
H101	H10	0.979800	0.270600	0.415900
H111	H11	0.981900	0.310900	0.609700
H121	H12	0.137500	0.217200	0.577400
H131	H13	0.649200	0.089700	0.216800
H141	H14	0.844400	0.885600	0.163700
H151	H15	0.898800	0.912100	0.253200
H161	H16	0.032600	0.072900	0.214900
H171	H17	0.774100	0.245600	0.314100
H181	H18	0.718600	0.144000	0.350500
H191	H19	0.440800	0.354100	0.746600
H201	H20	0.466600	0.285500	0.562100
H211	H21	0.556900	0.214200	0.639400
H221	H22	0.597400	0.230600	0.874500
H231	H23	0.031600	0.252100	0.848700
H241	H24	0.232300	0.253700	0.767000
H251	H25	0.661200	0.717700	0.569300
H261	H26	0.663400	0.813600	0.739700
H271	H27	0.763100	0.862700	0.648500
H281	H28	0.020200	0.729400	0.584100
H291	H29	0.018100	0.689100	0.390300
H301	H30	0.862500	0.782800	0.422600
H311	H31	0.350800	0.910300	0.783200
H321	H32	0.155600	0.114400	0.836300
H331	H33	0.101200	0.087900	0.746800
H341	H34	0.967400	0.927100	0.785100
H351	H35	0.225900	0.754400	0.685900
H361	H36	0.281400	0.856000	0.649500
C11	C1	0.433800	0.768890	0.243980
C21	C2	0.491200	0.723840	0.297960
C31	C3	0.549100	0.659310	0.291050
C41	C4	0.592400	0.614380	0.338770
C51	C5	0.584400	0.635580	0.394960
C61	C6	0.533400	0.700100	0.401170
C71	C7	0.483200	0.743180	0.354560
C81	C8	0.654000	0.546080	0.326380
C91	C9	0.620000	0.591300	0.449750
C101	C10	0.563000	0.760970	0.188030
C111	C11	0.515600	0.766780	0.130790
C121	C12	0.637300	0.768590	0.081420
C131	C13	0.806300	0.764400	0.088520
C141	C14	0.854500	0.754000	0.145980
C151	C15	0.734000	0.752750	0.195000
C161	C16	0.583000	0.772260	0.020790
C171	C17	0.941400	0.773490	0.037030
C181	C18	0.257600	0.755570	0.234780
C191	C19	0.415700	0.841340	0.253990
C201	C20	0.198600	0.179630	0.463510
C211	C21	0.272400	0.205410	0.401020
C221	C22	0.336300	0.263370	0.396360
C231	C23	0.395300	0.292780	0.342060
C241	C24	0.390500	0.264960	0.289470
C251	C25	0.334500	0.206350	0.294420
C261	C26	0.274900	0.176480	0.349330
C271	C27	0.466800	0.353920	0.341090
C281	C28	0.424600	0.301840	0.229140
C291	C29	0.083400	0.235760	0.491740
C301	C30	0.982700	0.279240	0.454650
C311	C31	0.887300	0.334640	0.474020
C321	C32	0.893300	0.348200	0.532100
C331	C33	0.984000	0.303290	0.570360
C341	C34	0.078300	0.247050	0.551030
C351	C35	0.781700	0.378410	0.430790
C361	C36	0.819500	0.412710	0.549910
C371	C37	0.349600	0.150490	0.498780
C381	C38	0.091600	0.126640	0.462940
C391	C39	0.825900	0.028350	0.300550
C401	C40	0.785400	0.004740	0.243720
C411	C41	0.690600	0.048770	0.205760
C421	C42	0.655500	0.033400	0.151320
C431	C43	0.716600	0.971380	0.135360
C441	C44	0.805900	0.927040	0.173960
C451	C45	0.839500	0.942960	0.227680
C461	C46	0.567900	0.085250	0.110530
C471	C47	0.716700	0.954100	0.073540
C481	C48	0.864400	0.097140	0.284990
C491	C49	0.978300	0.107780	0.234450
C501	C50	0.013000	0.168350	0.212580
C511	C51	0.928500	0.221950	0.241010
C521	C52	0.823600	0.210980	0.293320
C531	C53	0.790100	0.149820	0.315530
C541	C54	0.145200	0.173110	0.159820
C551	C55	0.930100	0.289940	0.213000
C561	C56	0.671000	0.022640	0.347030
C571	C57	0.982100	0.986760	0.326430
C581	C58	0.566200	0.231110	0.756020
C591	C59	0.508800	0.276160	0.702040
C601	C60	0.450900	0.340690	0.708950
C611	C61	0.407600	0.385620	0.661230
C621	C62	0.415600	0.364420	0.605040
C631	C63	0.466600	0.299900	0.598830
C641	C64	0.516800	0.256820	0.645440
C651	C65	0.346000	0.453920	0.673620
C661	C66	0.380000	0.408700	0.550250
C671	C67	0.437000	0.239030	0.811970
C681	C68	0.484400	0.233220	0.869210
C691	C69	0.362700	0.231410	0.918580
C701	C70	0.193700	0.235600	0.911480
C711	C71	0.145500	0.246000	0.854020
C721	C72	0.266000	0.247250	0.805000
C731	C73	0.417000	0.227740	0.979210
C741	C74	0.058600	0.226510	0.962970
C751	C75	0.742400	0.244430	0.765220
C761	C76	0.584300	0.158660	0.746010
C771	C77	0.801400	0.820370	0.536490
C781	C78	0.727600	0.794590	0.598980
C791	C79	0.663700	0.736630	0.603640
C801	C80	0.604700	0.707220	0.657940
C811	C81	0.609500	0.735040	0.710530
C821	C82	0.665500	0.793650	0.705580
C831	C83	0.725100	0.823520	0.650670
C841	C84	0.533200	0.646080	0.658910
C851	C85	0.575400	0.698160	0.770860
C861	C86	0.916600	0.764240	0.508260
C871	C87	0.017300	0.720760	0.545350
C881	C88	0.112700	0.665360	0.525980
C891	C89	0.106700	0.651800	0.467900
C901	C90	0.016000	0.696710	0.429640
C911	C91	0.921700	0.752950	0.448970
C921	C92	0.218300	0.621590	0.569210
C931	C93	0.180500	0.587290	0.450090
C941	C94	0.650400	0.849510	0.501220
C951	C95	0.908400	0.873360	0.537060
C961	C96	0.174100	0.971650	0.699450
C971	C97	0.214600	0.995260	0.756280
C981	C98	0.309400	0.951230	0.794240
C991	C99	0.344500	0.966600	0.848680
C1001	C100	0.283400	0.028620	0.864640
C1011	C101	0.194100	0.072960	0.826040
C1021	C102	0.160500	0.057040	0.772320
C1031	C103	0.432100	0.914750	0.889470
C1041	C104	0.283300	0.045900	0.926460
C1051	C105	0.135600	0.902860	0.715010
C1061	C106	0.021700	0.892220	0.765550
C1071	C107	0.987000	0.831650	0.787420
C1081	C108	0.071500	0.778050	0.758990
C1091	C109	0.176400	0.789020	0.706680
C1101	C110	0.209900	0.850180	0.684470
C1111	C111	0.854800	0.826890	0.840180
C1121	C112	0.069900	0.710060	0.787000
C1131	C113	0.329000	0.977360	0.652970
C1141	C114	0.017900	0.013240	0.673570
O11	O1	0.794800	0.534920	0.295270
O21	O2	0.569300	0.501210	0.343280
O31	O3	0.564100	0.538090	0.458040
O41	O4	0.692700	0.608690	0.488660
O51	O5	0.649300	0.806960	0.977410
O61	O6	0.478100	0.737910	0.011800
O71	O7	0.943700	0.830990	0.013640
O81	O8	0.046500	0.726850	0.022340
O91	O9	0.611700	0.355610	0.313800
O101	O10	0.379100	0.397080	0.369300
O111	O11	0.497800	0.270810	0.187040
O121	O12	0.371600	0.361140	0.224230
O131	O13	0.857200	0.393050	0.379190
O141	O14	0.630100	0.396270	0.447020
O151	O15	0.749500	0.420580	0.602130
O161	O16	0.826100	0.460540	0.510040
O171	O17	0.559800	0.142080	0.120650
O181	O18	0.509400	0.067720	0.066690
O191	O19	0.612500	0.921230	0.061250
O201	O20	0.834400	0.969650	0.035390
O211	O21	0.236100	0.214980	0.156280
O221	O22	0.159700	0.131190	0.124290
O231	O23	0.931400	0.332550	0.246450
O241	O24	0.920700	0.300790	0.157550
O251	O25	0.205200	0.465080	0.704730
O261	O26	0.430700	0.498790	0.656720
O271	O27	0.435900	0.461910	0.541960
O281	O28	0.307300	0.391310	0.511340
O291	O29	0.350700	0.193040	0.022590
O301	O30	0.521900	0.262090	0.988200
O311	O31	0.056300	0.169010	0.986360
O321	O32	0.953500	0.273150	0.977660
O331	O33	0.388300	0.644390	0.686200
O341	O34	0.620900	0.602920	0.630700
O351	O35	0.502200	0.729190	0.812960
O361	O36	0.628400	0.638860	0.775770
O371	O37	0.142800	0.606950	0.620810
O381	O38	0.369900	0.603730	0.552980
O391	O39	0.250500	0.579420	0.397870
O401	O40	0.173900	0.539460	0.489960
O411	O41	0.440200	0.857920	0.879350
O421	O42	0.490600	0.932280	0.933310
O431	O43	0.387500	0.078770	0.938750
O441	O44	0.165600	0.030350	0.964610
O451	O45	0.763900	0.785020	0.843720
O461	O46	0.840300	0.868810	0.875710
O471	O47	0.068600	0.667450	0.753550
O481	O48	0.079300	0.699210	0.842450
F11	F1	0.157100	0.751660	0.286390
F21	F2	0.174600	0.801690	0.198220
F31	F3	0.268800	0.700450	0.211710
F41	F4	0.286200	0.857670	0.295360
F51	F5	0.554600	0.853360	0.272750
F61	F6	0.388800	0.879980	0.204520
F71	F7	0.432500	0.196340	0.510060
F81	F8	0.462000	0.109640	0.468020
F91	F9	0.305000	0.118630	0.551040
F101	F10	0.010500	0.112490	0.516560
F111	F11	0.182800	0.072030	0.445910
F121	F12	0.973100	0.145780	0.425730
F131	F13	0.624700	0.964650	0.351600
F141	F14	0.537000	0.065510	0.331180
F151	F15	0.696500	0.032770	0.401440
F161	F16	0.955600	0.927630	0.349570
F171	F17	0.112900	0.979730	0.284020
F181	F18	0.030500	0.014320	0.368900
F191	F19	0.842900	0.248340	0.713610
F201	F20	0.825400	0.198310	0.801780
F211	F21	0.731200	0.299550	0.788290
F221	F22	0.713800	0.142330	0.704640
F231	F23	0.445400	0.146640	0.727250
F241	F24	0.611200	0.120020	0.795480
F251	F25	0.567500	0.803660	0.489940
F261	F26	0.538000	0.890360	0.531980
F271	F27	0.695000	0.881370	0.448960
F281	F28	0.989500	0.887510	0.483440
F291	F29	0.817200	0.927970	0.554090
F301	F30	0.026900	0.854220	0.574270
F311	F31	0.375300	0.035350	0.648400
F321	F32	0.463000	0.934490	0.668820
F331	F33	0.303500	0.967230	0.598560
F341	F34	0.044400	0.072370	0.650430
F351	F35	0.887100	0.020270	0.715980
F361	F36	0.969500	0.985680	0.631100
