data_KIPZEQ_clean_PM
_symmetry_space_group_name_H-M	'P1'
_cell_length_a	10.975000
_cell_length_b	12.139000
_cell_length_c	13.728000
_cell_angle_alpha	67.250000
_cell_angle_beta	80.940000
_cell_angle_gamma	70.260000
_symmetry_Int_Tables_number 1

loop_
_symmetry_equiv_pos_as_xyz
'x,y,z'

loop_
_atom_site_label
_atom_site_type_symbol
_atom_site_fract_x
_atom_site_fract_y
_atom_site_fract_z
Co11	Co1	0.043000	0.405820	0.815000
Co21	Co2	0.132020	0.671450	0.812490
Co31	Co3	0.957000	0.594180	0.185000
Co41	Co4	0.867980	0.328550	0.187510
Co51	Co5	0.000000	0.500000	0.000000
H11	H1	0.207500	0.464600	0.857400
H21	H2	0.865500	0.716800	0.515300
H31	H3	0.947000	0.900200	0.520200
H41	H4	0.789600	0.827200	0.350100
H51	H5	0.728600	0.968000	0.180600
H61	H6	0.767500	0.153000	0.114100
H71	H7	0.915300	0.085600	0.378200
H81	H8	0.604200	0.428600	0.922600
H91	H9	0.733700	0.560200	0.755900
H101	H10	0.631300	0.594300	0.583300
H111	H11	0.443700	0.645700	0.499800
H121	H12	0.247800	0.677300	0.586700
H131	H13	0.420100	0.580000	0.846900
H141	H14	0.151500	0.077000	0.192700
H151	H15	0.135800	0.002500	0.033100
H161	H16	0.237500	0.856900	0.299500
H171	H17	0.215400	0.669600	0.416600
H181	H18	0.099900	0.570600	0.374600
H191	H19	0.053200	0.824400	0.090100
H201	H20	0.792500	0.535400	0.142600
H211	H21	0.134500	0.283200	0.484700
H221	H22	0.053000	0.099800	0.479800
H231	H23	0.210400	0.172800	0.649900
H241	H24	0.271400	0.032000	0.819400
H251	H25	0.232500	0.847000	0.885900
H261	H26	0.084700	0.914400	0.621800
H271	H27	0.395800	0.571400	0.077400
H281	H28	0.266300	0.439800	0.244100
H291	H29	0.368700	0.405700	0.416700
H301	H30	0.556300	0.354300	0.500200
H311	H31	0.752200	0.322700	0.413300
H321	H32	0.579900	0.420000	0.153100
H331	H33	0.848500	0.923000	0.807300
H341	H34	0.864200	0.997500	0.966900
H351	H35	0.762500	0.143100	0.700500
H361	H36	0.784600	0.330400	0.583400
H371	H37	0.900100	0.429400	0.625400
H381	H38	0.946800	0.175600	0.909900
C11	C1	0.971100	0.672400	0.646500
C21	C2	0.908900	0.751700	0.542700
C31	C3	0.910500	0.864400	0.488100
C41	C4	0.862600	0.943300	0.382400
C51	C5	0.804200	0.904800	0.323300
C61	C6	0.769400	0.989100	0.222300
C71	C7	0.792700	0.100500	0.182500
C81	C8	0.880000	0.059600	0.336700
C91	C9	0.782100	0.431500	0.955600
C101	C10	0.671400	0.462100	0.890500
C111	C11	0.662500	0.534100	0.789600
C121	C12	0.547700	0.575900	0.726800
C131	C13	0.552700	0.600400	0.621000
C141	C14	0.440200	0.634000	0.571100
C151	C15	0.322600	0.650700	0.623900
C161	C16	0.424500	0.594000	0.775000
C171	C17	0.097600	0.222200	0.048300
C181	C18	0.131600	0.090800	0.124700
C191	C19	0.135600	0.992100	0.103800
C201	C20	0.139800	0.868500	0.181600
C211	C21	0.192400	0.816000	0.280600
C221	C22	0.178500	0.704800	0.350700
C231	C23	0.111100	0.644800	0.324900
C241	C24	0.080400	0.796600	0.158800
C251	C25	0.028900	0.327600	0.353500
C261	C26	0.091100	0.248300	0.457300
C271	C27	0.089500	0.135600	0.511900
C281	C28	0.137400	0.056700	0.617600
C291	C29	0.195800	0.095200	0.676700
C301	C30	0.230600	0.010900	0.777700
C311	C31	0.207300	0.899500	0.817500
C321	C32	0.120000	0.940400	0.663300
C331	C33	0.217900	0.568500	0.044400
C341	C34	0.328600	0.537900	0.109500
C351	C35	0.337500	0.465900	0.210400
C361	C36	0.452300	0.424100	0.273200
C371	C37	0.447300	0.399600	0.379000
C381	C38	0.559800	0.366000	0.428900
C391	C39	0.677400	0.349300	0.376100
C401	C40	0.575500	0.406000	0.225000
C411	C41	0.902400	0.777800	0.951700
C421	C42	0.868400	0.909200	0.875300
C431	C43	0.864400	0.007900	0.896200
C441	C44	0.860200	0.131500	0.818400
C451	C45	0.807600	0.184000	0.719400
C461	C46	0.821500	0.295200	0.649300
C471	C47	0.888900	0.355200	0.675100
C481	C48	0.919600	0.203400	0.841200
N11	N1	0.850400	0.140000	0.236600
N21	N2	0.312200	0.629400	0.729000
N31	N3	0.059400	0.691200	0.227600
N41	N4	0.149600	0.860000	0.763400
N51	N5	0.687800	0.370600	0.271000
N61	N6	0.940600	0.308800	0.772400
O11	O1	0.027400	0.723600	0.682800
O21	O2	0.965200	0.564500	0.689100
O31	O3	0.773200	0.364600	0.051600
O41	O4	0.874500	0.474000	0.912400
O51	O5	0.111400	0.238400	0.950800
O61	O6	0.055300	0.305600	0.088500
O71	O7	0.128200	0.489700	0.875500
O81	O8	0.972600	0.276400	0.317200
O91	O9	0.034800	0.435500	0.310900
O101	O10	0.226800	0.635400	0.948400
O111	O11	0.125500	0.526000	0.087600
O121	O12	0.888600	0.761600	0.049200
O131	O13	0.944700	0.694400	0.911500
O141	O14	0.871800	0.510300	0.124500
