data_KITCAT_clean_PM
_symmetry_space_group_name_H-M	'P1'
_cell_length_a	9.289900
_cell_length_b	9.289900
_cell_length_c	49.248000
_cell_angle_alpha	90.000000
_cell_angle_beta	90.000000
_cell_angle_gamma	120.000000
_symmetry_Int_Tables_number 1

loop_
_symmetry_equiv_pos_as_xyz
'x,y,z'

loop_
_atom_site_label
_atom_site_type_symbol
_atom_site_fract_x
_atom_site_fract_y
_atom_site_fract_z
N11	N1	0.792900	0.710200	0.034770
C11	C1	0.808400	0.640700	0.051310
N21	N2	0.459570	0.043530	0.368100
C21	C2	0.475070	0.974030	0.384640
N31	N3	0.126230	0.376870	0.701440
C31	C3	0.141730	0.307370	0.717980
N41	N4	0.289800	0.082700	0.034770
C41	C4	0.359300	0.167700	0.051310
N51	N5	0.956470	0.416030	0.368100
C51	C5	0.025970	0.501030	0.384640
N61	N6	0.623130	0.749370	0.701440
C61	C6	0.692630	0.834370	0.717980
N71	N7	0.917300	0.207100	0.034770
C71	C7	0.832300	0.191600	0.051310
N81	N8	0.583970	0.540430	0.368100
C81	C8	0.498970	0.524930	0.384640
N91	N9	0.250630	0.873770	0.701440
C91	C9	0.165630	0.858270	0.717980
N101	N10	0.710200	0.792900	0.465230
C101	C10	0.640700	0.808400	0.448690
N111	N11	0.376870	0.126230	0.798560
C111	C11	0.307370	0.141730	0.782020
N121	N12	0.043530	0.459570	0.131900
C121	C12	0.974030	0.475070	0.115360
N131	N13	0.082700	0.289800	0.465230
C131	C13	0.167700	0.359300	0.448690
N141	N14	0.749370	0.623130	0.798560
C141	C14	0.834370	0.692630	0.782020
N151	N15	0.416030	0.956470	0.131900
C151	C15	0.501030	0.025970	0.115360
N161	N16	0.207100	0.917300	0.465230
C161	C16	0.191600	0.832300	0.448690
N171	N17	0.873770	0.250630	0.798560
C171	C17	0.858270	0.165630	0.782020
N181	N18	0.540430	0.583970	0.131900
C181	C18	0.524930	0.498970	0.115360
N191	N19	0.207100	0.289800	0.965230
C191	C19	0.191600	0.359300	0.948690
N201	N20	0.873770	0.623130	0.298560
C201	C20	0.858270	0.692630	0.282020
N211	N21	0.540430	0.956470	0.631900
C211	C21	0.524930	0.025970	0.615360
N221	N22	0.710200	0.917300	0.965230
C221	C22	0.640700	0.832300	0.948690
N231	N23	0.376870	0.250630	0.298560
C231	C23	0.307370	0.165630	0.282020
N241	N24	0.043530	0.583970	0.631900
C241	C24	0.974030	0.498970	0.615360
N251	N25	0.082700	0.792900	0.965230
C251	C25	0.167700	0.808400	0.948690
N261	N26	0.749370	0.126230	0.298560
C261	C26	0.834370	0.141730	0.282020
N271	N27	0.416030	0.459570	0.631900
C271	C27	0.501030	0.475070	0.615360
N281	N28	0.289800	0.207100	0.534770
C281	C28	0.359300	0.191600	0.551310
N291	N29	0.956470	0.540430	0.868100
C291	C29	0.025970	0.524930	0.884640
N301	N30	0.623130	0.873770	0.201440
C301	C30	0.692630	0.858270	0.217980
N311	N31	0.917300	0.710200	0.534770
C311	C31	0.832300	0.640700	0.551310
N321	N32	0.583970	0.043530	0.868100
C321	C32	0.498970	0.974030	0.884640
N331	N33	0.250630	0.376870	0.201440
C331	C33	0.165630	0.307370	0.217980
N341	N34	0.792900	0.082700	0.534770
C341	C34	0.808400	0.167700	0.551310
N351	N35	0.459570	0.416030	0.868100
C351	C35	0.475070	0.501030	0.884640
N361	N36	0.126230	0.749370	0.201440
C361	C36	0.141730	0.834370	0.217980
Ag11	Ag1	0.865590	0.532260	0.083330
Ag21	Ag2	0.198930	0.198930	0.750000
Ag31	Ag3	0.467740	0.333330	0.083330
Ag41	Ag4	0.666670	0.134410	0.083330
Ag51	Ag5	0.333330	0.467740	0.416670
Ag61	Ag6	0.532260	0.865590	0.416670
Ag71	Ag7	0.000000	0.801070	0.750000
Ag81	Ag8	0.134410	0.666670	0.416670
Ag91	Ag9	0.801070	0.000000	0.750000
Ag101	Ag10	0.134410	0.467740	0.916670
Ag111	Ag11	0.801070	0.801070	0.250000
Ag121	Ag12	0.532260	0.666670	0.916670
Ag131	Ag13	0.198930	0.000000	0.250000
Ag141	Ag14	0.865590	0.333330	0.583330
Ag151	Ag15	0.333330	0.865590	0.916670
Ag161	Ag16	0.000000	0.198930	0.250000
Ag171	Ag17	0.467740	0.134410	0.583330
Ag181	Ag18	0.666670	0.532260	0.583330
K11	K1	0.000000	0.000000	0.000000
K21	K2	0.666670	0.333330	0.333330
K31	K3	0.333330	0.666670	0.666670
K41	K4	0.000000	0.000000	0.500000
K51	K5	0.666670	0.333330	0.833330
K61	K6	0.333330	0.666670	0.166670
