data_KIVFEC_clean_PM
_symmetry_space_group_name_H-M	'P1'
_cell_length_a	10.786000
_cell_length_b	16.726000
_cell_length_c	17.385000
_cell_angle_alpha	114.670000
_cell_angle_beta	93.290000
_cell_angle_gamma	99.580000
_symmetry_Int_Tables_number 1

loop_
_symmetry_equiv_pos_as_xyz
'x,y,z'

loop_
_atom_site_label
_atom_site_type_symbol
_atom_site_fract_x
_atom_site_fract_y
_atom_site_fract_z
O11	O1	0.819600	0.991200	0.049400
O21	O2	0.462900	0.239900	0.037900
O31	O3	0.304100	0.179900	0.088200
C11	C1	0.415300	0.190300	0.071000
C21	C2	0.492500	0.134800	0.090200
O41	O4	0.926300	0.920500	0.886200
Pr11	Pr1	0.083630	0.140590	0.011750
Pr21	Pr2	0.372490	0.343090	0.994300
Pr31	Pr3	0.437300	0.866770	0.405930
C31	C3	0.260600	0.971600	0.642800
O51	O5	0.995500	0.250500	0.965200
O61	O6	0.613700	0.138500	0.066300
O71	O7	0.842800	0.358500	0.946400
O81	O8	0.855300	0.122500	0.039500
O91	O9	0.226300	0.164600	0.913700
O101	O10	0.600300	0.374300	0.972600
O111	O11	0.157000	0.325200	0.928500
O121	O12	0.937900	0.048400	0.873400
O131	O13	0.762500	0.962900	0.730600
O141	O14	0.375700	0.210700	0.851900
O151	O15	0.225800	0.331400	0.091200
O161	O16	0.385300	0.001600	0.545900
O171	O17	0.298700	0.483200	0.237800
O181	O18	0.627800	0.497700	0.949400
O191	O19	0.080000	0.274700	0.150000
C41	C4	0.194400	0.421900	0.232100
C51	C5	0.663700	0.430500	0.951900
O201	O20	0.307300	0.057400	0.704200
C61	C6	0.247700	0.064500	0.773500
C71	C7	0.790400	0.061500	0.053900
C81	C8	0.962400	0.363300	0.922600
C91	C9	0.664100	0.074000	0.080600
C101	C10	0.044300	0.307600	0.941100
O211	O21	0.630500	0.021400	0.636800
O221	O22	0.272600	0.864800	0.505900
C111	C11	0.166000	0.337400	0.153600
C121	C12	0.791700	0.421100	0.929500
O231	O23	0.555200	0.880100	0.536100
C131	C13	0.167700	0.986500	0.756800
H11	H1	0.117400	0.974700	0.794100
C141	C14	0.285700	0.152600	0.851600
O241	O24	0.391400	0.711500	0.384000
C151	C15	0.984700	0.424500	0.890900
H21	H2	0.058300	0.439800	0.870300
C161	C16	0.897000	0.966000	0.848800
C171	C17	0.874900	0.460900	0.895000
H31	H3	0.862300	0.504500	0.877000
C181	C18	0.619900	0.937800	0.604900
C191	C19	0.468400	0.071200	0.118900
H41	H4	0.394600	0.055700	0.139100
C201	C20	0.691100	0.901600	0.655200
C211	C21	0.814400	0.913900	0.766300
C221	C22	0.174500	0.926400	0.672700
H51	H5	0.129200	0.867400	0.643200
C231	C23	0.309100	0.944600	0.560300
C241	C24	0.778100	0.825800	0.713800
H61	H6	0.801200	0.779000	0.722900
C251	C25	0.579500	0.031500	0.112300
H71	H7	0.590200	0.985400	0.127100
C261	C26	0.201600	0.547400	0.347800
H81	H8	0.180300	0.588800	0.397900
O251	O25	0.499100	0.622000	0.289200
C271	C27	0.301500	0.560600	0.310300
C281	C28	0.698500	0.817100	0.642200
H91	H9	0.659000	0.763800	0.595400
C291	C29	0.133300	0.457800	0.296900
H101	H10	0.058800	0.429900	0.307600
C301	C30	0.407900	0.636300	0.328100
K11	K1	0.733800	0.258440	0.020040
O261	O26	0.180400	0.008800	0.950600
O271	O27	0.537100	0.760100	0.962100
O281	O28	0.695900	0.820100	0.911800
C311	C31	0.584700	0.809700	0.929000
C321	C32	0.507500	0.865200	0.909800
O291	O29	0.073700	0.079500	0.113800
Pr41	Pr4	0.916370	0.859410	0.988250
Pr51	Pr5	0.627510	0.656910	0.005700
Pr61	Pr6	0.562700	0.133230	0.594070
C331	C33	0.739400	0.028400	0.357200
O301	O30	0.004500	0.749500	0.034800
O311	O31	0.386300	0.861500	0.933700
O321	O32	0.157200	0.641500	0.053600
O331	O33	0.144700	0.877500	0.960500
O341	O34	0.773700	0.835400	0.086300
O351	O35	0.399700	0.625700	0.027400
O361	O36	0.843000	0.674800	0.071500
O371	O37	0.062100	0.951600	0.126600
O381	O38	0.237500	0.037100	0.269400
O391	O39	0.624300	0.789300	0.148100
O401	O40	0.774200	0.668600	0.908800
O411	O41	0.614700	0.998400	0.454100
O421	O42	0.701300	0.516800	0.762200
O431	O43	0.372200	0.502300	0.050600
O441	O44	0.920000	0.725300	0.850000
C341	C34	0.805600	0.578100	0.767900
C351	C35	0.336300	0.569500	0.048100
O451	O45	0.692700	0.942600	0.295800
C361	C36	0.752300	0.935500	0.226500
C371	C37	0.209600	0.938500	0.946100
C381	C38	0.037600	0.636700	0.077400
C391	C39	0.335900	0.926000	0.919400
C401	C40	0.955700	0.692400	0.058900
O461	O46	0.369500	0.978600	0.363200
O471	O47	0.727400	0.135200	0.494100
C411	C41	0.834000	0.662600	0.846400
C421	C42	0.208300	0.578900	0.070500
O481	O48	0.444800	0.119900	0.463900
C431	C43	0.832300	0.013500	0.243200
H111	H11	0.882600	0.025300	0.205900
C441	C44	0.714300	0.847400	0.148400
O491	O49	0.608600	0.288500	0.616000
C451	C45	0.015300	0.575500	0.109100
H121	H12	0.941700	0.560200	0.129700
C461	C46	0.103000	0.034000	0.151200
C471	C47	0.125100	0.539100	0.105000
H131	H13	0.137700	0.495500	0.123000
C481	C48	0.380100	0.062200	0.395100
C491	C49	0.531600	0.928800	0.881100
H141	H14	0.605400	0.944300	0.860900
C501	C50	0.308900	0.098400	0.344800
C511	C51	0.185600	0.086100	0.233700
C521	C52	0.825500	0.073600	0.327300
H151	H15	0.870800	0.132600	0.356800
C531	C53	0.690900	0.055400	0.439700
C541	C54	0.221900	0.174200	0.286200
H161	H16	0.198800	0.221000	0.277100
C551	C55	0.420500	0.968500	0.887700
H171	H17	0.409800	0.014600	0.872900
C561	C56	0.798400	0.452600	0.652200
H181	H18	0.819700	0.411200	0.602100
O501	O50	0.500900	0.378000	0.710800
C571	C57	0.698500	0.439400	0.689700
C581	C58	0.301500	0.182900	0.357800
H191	H19	0.341000	0.236200	0.404600
C591	C59	0.866700	0.542200	0.703100
H201	H20	0.941200	0.570100	0.692400
C601	C60	0.592100	0.363700	0.671900
K21	K2	0.266200	0.741560	0.979960
