data_KIVVOC_clean_PM
_symmetry_space_group_name_H-M	'P1'
_cell_length_a	7.790000
_cell_length_b	21.487000
_cell_length_c	20.666000
_cell_angle_alpha	90.000000
_cell_angle_beta	90.000000
_cell_angle_gamma	90.000000
_symmetry_Int_Tables_number 1

loop_
_symmetry_equiv_pos_as_xyz
'x,y,z'

loop_
_atom_site_label
_atom_site_type_symbol
_atom_site_fract_x
_atom_site_fract_y
_atom_site_fract_z
Cd11	Cd1	0.204000	0.497360	0.836230
Cd21	Cd2	0.204000	0.002640	0.336230
Cd31	Cd3	0.796000	0.997360	0.836230
Cd41	Cd4	0.322990	0.456060	0.372880
Cd51	Cd5	0.796000	0.502640	0.336230
Cd61	Cd6	0.322990	0.043940	0.872880
Cd71	Cd7	0.677010	0.543940	0.872880
Cd81	Cd8	0.677010	0.956060	0.372880
H11	H1	0.737300	0.777400	0.687600
H21	H2	0.416900	0.875600	0.193400
H31	H3	0.069700	0.295000	0.676300
H41	H4	0.590000	0.134600	0.509500
H51	H5	0.944300	0.313900	0.962400
H61	H6	0.410000	0.634600	0.509500
H71	H7	0.584900	0.383700	0.504500
H81	H8	0.082400	0.185300	0.979900
H91	H9	0.415100	0.616300	0.004500
H101	H10	0.330100	0.863100	0.569900
H111	H11	0.465900	0.910900	0.716100
H121	H12	0.477100	0.338200	0.142000
H131	H13	0.183000	0.335600	0.191600
H141	H14	0.438100	0.110400	0.466500
H151	H15	0.038400	0.377300	0.221700
H161	H16	0.917600	0.814700	0.479900
H171	H17	0.191300	0.159000	0.213200
H181	H18	0.055700	0.686100	0.462400
H191	H19	0.069700	0.205000	0.176300
H201	H20	0.989500	0.318500	0.180800
H211	H21	0.808700	0.841000	0.713200
H221	H22	0.221100	0.898400	0.517700
H231	H23	0.112300	0.798900	0.470000
H241	H24	0.010500	0.681500	0.680800
H251	H25	0.449300	0.867700	0.655300
H261	H26	0.038400	0.122700	0.721700
H271	H27	0.584900	0.116300	0.004500
H281	H28	0.863000	0.798600	0.977300
H291	H29	0.930300	0.705000	0.176300
H301	H30	0.534100	0.410900	0.716100
H311	H31	0.262700	0.277400	0.687600
H321	H32	0.534100	0.089100	0.216100
H331	H33	0.090200	0.357000	0.935400
H341	H34	0.401200	0.154700	0.525200
H351	H35	0.401200	0.345300	0.025200
H361	H36	0.082400	0.314700	0.479900
H371	H37	0.284600	0.896900	0.686600
H381	H38	0.817000	0.664400	0.691600
H391	H39	0.416900	0.624400	0.693400
H401	H40	0.669900	0.363100	0.569900
H411	H41	0.090200	0.143000	0.435400
H421	H42	0.909800	0.857000	0.935400
H431	H43	0.715400	0.103100	0.186600
H441	H44	0.778900	0.101600	0.017700
H451	H45	0.598800	0.654700	0.525200
H461	H46	0.808700	0.659000	0.213200
H471	H47	0.055700	0.813900	0.962400
H481	H48	0.550700	0.132300	0.155300
H491	H49	0.583100	0.375600	0.193400
H501	H50	0.037900	0.861900	0.444000
H511	H51	0.415100	0.883700	0.504500
H521	H52	0.550700	0.367700	0.655300
H531	H53	0.438100	0.389600	0.966500
H541	H54	0.962100	0.138100	0.944000
H551	H55	0.037900	0.638100	0.944000
H561	H56	0.989500	0.181500	0.680800
H571	H57	0.284600	0.603100	0.186600
H581	H58	0.465900	0.589100	0.216100
H591	H59	0.262700	0.222600	0.187600
H601	H60	0.598800	0.845300	0.025200
H611	H61	0.817000	0.835600	0.191600
H621	H62	0.449300	0.632300	0.155300
H631	H63	0.522900	0.838200	0.142000
H641	H64	0.137000	0.298600	0.977300
H651	H65	0.666100	0.141600	0.626600
H661	H66	0.930300	0.795000	0.676300
H671	H67	0.477100	0.161800	0.642000
H681	H68	0.863000	0.701400	0.477300
H691	H69	0.778900	0.398400	0.517700
H701	H70	0.887700	0.298900	0.470000
H711	H71	0.917600	0.685300	0.979900
H721	H72	0.583100	0.124400	0.693400
H731	H73	0.887700	0.201100	0.970000
H741	H74	0.944300	0.186100	0.462400
H751	H75	0.112300	0.701100	0.970000
H761	H76	0.137000	0.201400	0.477300
H771	H77	0.333900	0.858400	0.126600
H781	H78	0.961600	0.622700	0.721700
H791	H79	0.715400	0.396900	0.686600
H801	H80	0.561900	0.610400	0.466500
H811	H81	0.522900	0.661800	0.642000
H821	H82	0.561900	0.889600	0.966500
H831	H83	0.669900	0.136900	0.069900
H841	H84	0.183000	0.164400	0.691600
H851	H85	0.191300	0.341000	0.713200
H861	H86	0.737300	0.722600	0.187600
H871	H87	0.666100	0.358400	0.126600
H881	H88	0.962100	0.361900	0.444000
H891	H89	0.010500	0.818500	0.180800
H901	H90	0.961600	0.877300	0.221700
H911	H91	0.909800	0.643000	0.435400
H921	H92	0.330100	0.636900	0.069900
H931	H93	0.590000	0.365400	0.009500
H941	H94	0.221100	0.601600	0.017700
H951	H95	0.410000	0.865400	0.009500
H961	H96	0.333900	0.641600	0.626600
C11	C1	0.931600	0.775890	0.885090
C21	C2	0.495600	0.431020	0.119330
C31	C3	0.068400	0.224110	0.385090
C41	C4	0.579500	0.040090	0.132870
C51	C5	0.438400	0.870180	0.147980
C61	C6	0.940900	0.814890	0.945510
C71	C7	0.495600	0.068980	0.619330
C81	C8	0.475600	0.483010	0.158370
C91	C9	0.028200	0.212090	0.887600
C101	C10	0.579500	0.459910	0.632870
C111	C11	0.382300	0.955790	0.567060
C121	C12	0.438400	0.629820	0.647980
C131	C13	0.671500	0.993710	0.959870
C141	C14	0.028100	0.322220	0.330290
C151	C15	0.328500	0.006290	0.459870
C161	C16	0.971800	0.787910	0.387600
C171	C17	0.961500	0.111720	0.831970
C181	C18	0.162200	0.370450	0.824850
C191	C19	0.038500	0.888280	0.331970
C201	C20	0.931600	0.724110	0.385090
C211	C21	0.028100	0.177780	0.830290
C221	C22	0.929200	0.835460	0.210850
C231	C23	0.835500	0.797950	0.705790
C241	C24	0.452600	0.065710	0.553420
C251	C25	0.393900	0.009450	0.528270
C261	C26	0.971800	0.712090	0.887600
C271	C27	0.112600	0.198220	0.325520
C281	C28	0.472200	0.121410	0.509680
C291	C29	0.068400	0.275890	0.885090
C301	C30	0.013700	0.818640	0.451120
C311	C31	0.667300	0.105290	0.037080
C321	C32	0.882800	0.767460	0.768840
C331	C33	0.164500	0.202050	0.205790
C341	C34	0.332700	0.894710	0.537080
C351	C35	0.452600	0.434290	0.053420
C361	C36	0.420500	0.540090	0.132870
C371	C37	0.525400	0.480250	0.228940
C381	C38	0.475600	0.016990	0.658370
C391	C39	0.837800	0.629550	0.324850
C401	C40	0.547400	0.934290	0.053420
C411	C41	0.420500	0.959910	0.632870
C421	C42	0.328500	0.493710	0.959870
C431	C43	0.596500	0.096290	0.176740
C441	C44	0.162200	0.129550	0.324850
C451	C45	0.940900	0.685110	0.445510
C461	C46	0.882800	0.732540	0.268840
C471	C47	0.606100	0.990550	0.028270
C481	C48	0.059100	0.185110	0.445510
C491	C49	0.403500	0.903710	0.676740
C501	C50	0.887400	0.698220	0.325520
C511	C51	0.835500	0.702050	0.205790
C521	C52	0.070800	0.335460	0.210850
C531	C53	0.382300	0.544210	0.067060
C541	C54	0.926600	0.703520	0.770850
C551	C55	0.547400	0.565710	0.553420
C561	C56	0.606100	0.509450	0.528270
C571	C57	0.332700	0.605290	0.037080
C581	C58	0.117200	0.267460	0.768840
C591	C59	0.073400	0.203520	0.770850
C601	C60	0.971900	0.677780	0.830290
C611	C61	0.070800	0.164540	0.710850
C621	C62	0.986300	0.318640	0.451120
C631	C63	0.671500	0.506290	0.459870
C641	C64	0.596500	0.403710	0.676740
C651	C65	0.561600	0.129820	0.647980
C661	C66	0.403500	0.596290	0.176740
C671	C67	0.393900	0.490550	0.028270
C681	C68	0.561600	0.370180	0.147980
C691	C69	0.617700	0.455790	0.567060
C701	C70	0.073400	0.296480	0.270850
C711	C71	0.504400	0.568980	0.619330
C721	C72	0.837800	0.870450	0.824850
C731	C73	0.524400	0.516990	0.658370
C741	C74	0.524400	0.983010	0.158370
C751	C75	0.986300	0.181360	0.951120
C761	C76	0.164500	0.297950	0.705790
C771	C77	0.929200	0.664540	0.710850
C781	C78	0.527800	0.878590	0.009680
C791	C79	0.472200	0.378590	0.009680
C801	C80	0.887400	0.801780	0.825520
C811	C81	0.525400	0.019750	0.728940
C821	C82	0.013700	0.681360	0.951120
C831	C83	0.059100	0.314890	0.945510
C841	C84	0.667300	0.394710	0.537080
C851	C85	0.038500	0.611720	0.831970
C861	C86	0.617700	0.044210	0.067060
C871	C87	0.504400	0.931020	0.119330
C881	C88	0.117200	0.232540	0.268840
C891	C89	0.926600	0.796480	0.270850
C901	C90	0.961500	0.388280	0.331970
C911	C91	0.112600	0.301780	0.825520
C921	C92	0.474600	0.980250	0.228940
C931	C93	0.971900	0.822220	0.330290
C941	C94	0.028200	0.287910	0.387600
C951	C95	0.474600	0.519750	0.728940
C961	C96	0.527800	0.621410	0.509680
O11	O1	0.956700	0.589830	0.316610
O21	O2	0.572600	0.006330	0.913300
O31	O3	0.314800	0.114920	0.333740
O41	O4	0.314800	0.385080	0.833740
O51	O5	0.956700	0.910170	0.816610
O61	O6	0.057000	0.064900	0.835360
O71	O7	0.825400	0.981880	0.950300
O81	O8	0.043300	0.410170	0.816610
O91	O9	0.803200	0.104810	0.829400
O101	O10	0.673900	0.001540	0.740630
O111	O11	0.196800	0.895190	0.329400
O121	O12	0.580000	0.540110	0.768440
O131	O13	0.427400	0.993670	0.413300
O141	O14	0.196800	0.604810	0.829400
O151	O15	0.326100	0.501540	0.740630
O161	O16	0.420000	0.040110	0.768440
O171	O17	0.803200	0.395190	0.329400
O181	O18	0.174600	0.018120	0.450300
O191	O19	0.057000	0.435100	0.335360
O201	O20	0.673900	0.498460	0.240630
O211	O21	0.685200	0.885080	0.833740
O221	O22	0.943000	0.564900	0.835360
O231	O23	0.572600	0.493670	0.413300
O241	O24	0.685200	0.614920	0.333740
O251	O25	0.174600	0.481880	0.950300
O261	O26	0.825400	0.518120	0.450300
O271	O27	0.943000	0.935100	0.335360
O281	O28	0.043300	0.089830	0.316610
O291	O29	0.420000	0.459890	0.268440
O301	O30	0.580000	0.959890	0.268440
O311	O31	0.427400	0.506330	0.913300
O321	O32	0.326100	0.998460	0.240630
