data_KIXXOG01_clean_PM
_symmetry_space_group_name_H-M	'P1'
_cell_length_a	6.687000
_cell_length_b	14.389000
_cell_length_c	14.874000
_cell_angle_alpha	90.000000
_cell_angle_beta	90.000000
_cell_angle_gamma	90.000000
_symmetry_Int_Tables_number 1

loop_
_symmetry_equiv_pos_as_xyz
'x,y,z'

loop_
_atom_site_label
_atom_site_type_symbol
_atom_site_fract_x
_atom_site_fract_y
_atom_site_fract_z
Ca11	Ca1	0.136580	0.803850	0.458050
O11	O1	0.991800	0.656700	0.525400
O21	O2	0.282000	0.704200	0.578400
O31	O3	0.994000	0.391400	0.924400
O41	O4	0.218100	0.299800	0.858700
C11	C1	0.136100	0.648700	0.579300
C21	C2	0.109300	0.370100	0.861300
C31	C3	0.135300	0.572900	0.648200
C41	C4	0.137800	0.597900	0.735600
H11	H1	0.151600	0.660100	0.751400
C51	C5	0.119400	0.529400	0.803000
H21	H2	0.106800	0.548100	0.862600
C61	C6	0.119400	0.437200	0.783800
C71	C7	0.126800	0.409100	0.692900
C81	C8	0.126700	0.477400	0.623200
C91	C9	0.126000	0.449500	0.533900
H31	H3	0.128300	0.494000	0.488600
C101	C10	0.122000	0.357500	0.511700
H41	H4	0.115400	0.339700	0.451600
C111	C11	0.127800	0.290300	0.579300
H51	H5	0.129600	0.227800	0.563500
C121	C12	0.130800	0.313800	0.666800
H61	H6	0.135400	0.267600	0.710500
Ca21	Ca2	0.363420	0.196150	0.958050
O51	O5	0.508200	0.343300	0.025400
O61	O6	0.218000	0.295800	0.078400
O71	O7	0.506000	0.608600	0.424400
O81	O8	0.281900	0.700200	0.358700
C131	C13	0.363900	0.351300	0.079300
C141	C14	0.390700	0.629900	0.361300
C151	C15	0.364700	0.427100	0.148200
C161	C16	0.362200	0.402100	0.235600
H71	H7	0.348400	0.339900	0.251400
C171	C17	0.380600	0.470600	0.303000
H81	H8	0.393200	0.451900	0.362600
C181	C18	0.380600	0.562800	0.283800
C191	C19	0.373200	0.590900	0.192900
C201	C20	0.373300	0.522600	0.123200
C211	C21	0.374000	0.550500	0.033900
H91	H9	0.371700	0.506000	0.988600
C221	C22	0.378000	0.642500	0.011700
H101	H10	0.384600	0.660300	0.951600
C231	C23	0.372200	0.709700	0.079300
H111	H11	0.370400	0.772200	0.063500
C241	C24	0.369200	0.686200	0.166800
H121	H12	0.364600	0.732400	0.210500
Ca31	Ca3	0.863420	0.303850	0.041950
O91	O9	0.008200	0.156700	0.974600
O101	O10	0.718000	0.204200	0.921600
O111	O11	0.006000	0.891400	0.575600
O121	O12	0.781900	0.799800	0.641300
C251	C25	0.863900	0.148700	0.920700
C261	C26	0.890700	0.870100	0.638700
C271	C27	0.864700	0.072900	0.851800
C281	C28	0.862200	0.097900	0.764400
H131	H13	0.848400	0.160100	0.748600
C291	C29	0.880600	0.029400	0.697000
H141	H14	0.893200	0.048100	0.637400
C301	C30	0.880600	0.937200	0.716200
C311	C31	0.873200	0.909100	0.807100
C321	C32	0.873300	0.977400	0.876800
C331	C33	0.874000	0.949500	0.966100
H151	H15	0.871700	0.994000	0.011400
C341	C34	0.878000	0.857500	0.988300
H161	H16	0.884600	0.839700	0.048400
C351	C35	0.872200	0.790300	0.920700
H171	H17	0.870400	0.727800	0.936500
C361	C36	0.869200	0.813800	0.833200
H181	H18	0.864600	0.767600	0.789500
Ca41	Ca4	0.636580	0.696150	0.541950
O131	O13	0.491800	0.843300	0.474600
O141	O14	0.782000	0.795800	0.421600
O151	O15	0.494000	0.108600	0.075600
O161	O16	0.718100	0.200200	0.141300
C371	C37	0.636100	0.851300	0.420700
C381	C38	0.609300	0.129900	0.138700
C391	C39	0.635300	0.927100	0.351800
C401	C40	0.637800	0.902100	0.264400
H191	H19	0.651600	0.839900	0.248600
C411	C41	0.619400	0.970600	0.197000
H201	H20	0.606800	0.951900	0.137400
C421	C42	0.619400	0.062800	0.216200
C431	C43	0.626800	0.090900	0.307100
C441	C44	0.626700	0.022600	0.376800
C451	C45	0.626000	0.050500	0.466100
H211	H21	0.628300	0.006000	0.511400
C461	C46	0.622000	0.142500	0.488300
H221	H22	0.615400	0.160300	0.548400
C471	C47	0.627800	0.209700	0.420700
H231	H23	0.629600	0.272200	0.436500
C481	C48	0.630800	0.186200	0.333200
H241	H24	0.635400	0.232400	0.289500
