data_KIYBIF_clean_PM
_symmetry_space_group_name_H-M	'P1'
_cell_length_a	11.842000
_cell_length_b	11.759000
_cell_length_c	27.432000
_cell_angle_alpha	90.000000
_cell_angle_beta	102.480000
_cell_angle_gamma	90.000000
_symmetry_Int_Tables_number 1

loop_
_symmetry_equiv_pos_as_xyz
'x,y,z'

loop_
_atom_site_label
_atom_site_type_symbol
_atom_site_fract_x
_atom_site_fract_y
_atom_site_fract_z
Co11	Co1	0.694980	0.364980	0.981660
O11	O1	0.867000	0.381900	0.975170
O21	O2	0.659000	0.389900	0.902960
O31	O3	0.467100	0.383600	0.880920
O41	O4	0.204900	0.679800	0.592100
O51	O5	0.292500	0.689100	0.527050
O61	O6	0.860200	0.512600	0.877110
O71	O7	0.929800	0.622600	0.943100
O81	O8	0.891700	0.914500	0.542670
O91	O9	0.997400	0.808900	0.603980
O101	O10	0.288100	0.460600	0.610850
O111	O11	0.810500	0.740100	0.637100
N11	N1	0.792800	0.309700	0.817510
N21	N2	0.721000	0.166300	0.560290
C11	C1	0.562700	0.406000	0.871640
C21	C2	0.570100	0.454200	0.822620
H11	H1	0.635000	0.496400	0.820100
C31	C3	0.487100	0.439200	0.782250
H21	H2	0.422100	0.399100	0.786400
C41	C4	0.487200	0.479600	0.731450
C51	C5	0.395100	0.449800	0.692730
H31	H3	0.338400	0.400700	0.699100
C61	C6	0.386500	0.491600	0.645080
C71	C7	0.472100	0.562000	0.634240
H41	H4	0.467900	0.588500	0.602000
C81	C8	0.564100	0.591600	0.672820
H51	H5	0.621700	0.639100	0.666100
C91	C9	0.571900	0.552300	0.720730
H61	H6	0.633800	0.574200	0.746000
C101	C10	0.273700	0.509400	0.562090
H71	H7	0.207700	0.473900	0.540300
H81	H8	0.341600	0.492200	0.549000
C111	C11	0.255700	0.636700	0.560760
C121	C12	0.891600	0.605900	0.896820
C131	C13	0.885900	0.703900	0.861670
H91	H9	0.896800	0.777500	0.874200
C141	C14	0.865800	0.687000	0.813180
H101	H10	0.851800	0.611700	0.803400
C151	C15	0.861700	0.768100	0.771810
C161	C16	0.841800	0.724900	0.723620
H111	H11	0.833800	0.646700	0.718900
C171	C17	0.833400	0.795000	0.682360
C181	C18	0.847600	0.910900	0.689030
H121	H12	0.842200	0.958900	0.661700
C191	C19	0.870000	0.954500	0.736890
H131	H13	0.880800	0.032500	0.741400
C201	C20	0.876800	0.885400	0.778610
H141	H14	0.891100	0.916700	0.810500
C211	C21	0.792800	0.806600	0.592670
H151	H15	0.745700	0.872000	0.596600
H161	H16	0.750000	0.761600	0.565200
C221	C22	0.905300	0.848400	0.579210
C231	C23	0.711400	0.236900	0.795410
H171	H17	0.666500	0.201400	0.814900
C241	C24	0.690000	0.211200	0.745030
H181	H18	0.631300	0.160600	0.731500
C251	C25	0.755900	0.260600	0.714720
C261	C26	0.838700	0.338200	0.737600
H191	H19	0.884000	0.375800	0.718900
C271	C27	0.854000	0.360000	0.787890
H201	H20	0.910200	0.412600	0.802100
C281	C28	0.741500	0.229700	0.661150
C291	C29	0.660700	0.153100	0.637500
H211	H21	0.610300	0.119700	0.655000
C301	C30	0.653000	0.125100	0.588260
H221	H22	0.596000	0.073600	0.573700
C311	C31	0.800500	0.238800	0.583070
H231	H23	0.850400	0.269900	0.564800
C321	C32	0.813700	0.270800	0.632120
H241	H24	0.872400	0.321200	0.646000
Co21	Co2	0.830990	0.351310	0.896980
Co31	Co3	0.305020	0.864980	0.518340
O121	O12	0.133000	0.881900	0.524830
O131	O13	0.341000	0.889900	0.597040
O141	O14	0.532900	0.883600	0.619080
O151	O15	0.795100	0.179800	0.907900
O161	O16	0.707500	0.189100	0.972950
O171	O17	0.139800	0.012600	0.622890
O181	O18	0.070200	0.122600	0.556900
O191	O19	0.108300	0.414500	0.957330
O201	O20	0.002600	0.308900	0.896020
O211	O21	0.711900	0.960600	0.889150
O221	O22	0.189500	0.240100	0.862900
N31	N3	0.207200	0.809700	0.682490
N41	N4	0.279000	0.666300	0.939710
C331	C33	0.437300	0.906000	0.628360
C341	C34	0.429900	0.954200	0.677380
H251	H25	0.365000	0.996400	0.679900
C351	C35	0.512900	0.939200	0.717750
H261	H26	0.577900	0.899100	0.713600
C361	C36	0.512800	0.979600	0.768550
C371	C37	0.604900	0.949800	0.807270
H271	H27	0.661600	0.900700	0.800900
C381	C38	0.613500	0.991600	0.854920
C391	C39	0.527900	0.062000	0.865760
H281	H28	0.532100	0.088500	0.898000
C401	C40	0.435900	0.091600	0.827180
H291	H29	0.378300	0.139100	0.833900
C411	C41	0.428100	0.052300	0.779270
H301	H30	0.366200	0.074200	0.754000
C421	C42	0.726300	0.009400	0.937910
H311	H31	0.792300	0.973900	0.959700
H321	H32	0.658400	0.992200	0.951000
C431	C43	0.744300	0.136700	0.939240
C441	C44	0.108400	0.105900	0.603180
C451	C45	0.114100	0.203900	0.638330
H331	H33	0.103200	0.277500	0.625800
C461	C46	0.134200	0.187000	0.686820
H341	H34	0.148200	0.111700	0.696600
C471	C47	0.138300	0.268100	0.728190
C481	C48	0.158200	0.224900	0.776380
H351	H35	0.166200	0.146700	0.781100
C491	C49	0.166600	0.295000	0.817640
C501	C50	0.152400	0.410900	0.810970
H361	H36	0.157800	0.458900	0.838300
C511	C51	0.130000	0.454500	0.763110
H371	H37	0.119200	0.532500	0.758600
C521	C52	0.123200	0.385400	0.721390
H381	H38	0.108900	0.416700	0.689500
C531	C53	0.207200	0.306600	0.907330
H391	H39	0.254300	0.372000	0.903400
H401	H40	0.250000	0.261600	0.934800
C541	C54	0.094700	0.348400	0.920790
C551	C55	0.288600	0.736900	0.704590
H411	H41	0.333500	0.701400	0.685100
C561	C56	0.310000	0.711200	0.754970
H421	H42	0.368700	0.660600	0.768500
C571	C57	0.244100	0.760600	0.785280
C581	C58	0.161300	0.838200	0.762400
H431	H43	0.116000	0.875800	0.781100
C591	C59	0.146000	0.860000	0.712110
H441	H44	0.089800	0.912600	0.697900
C601	C60	0.258500	0.729700	0.838850
C611	C61	0.339300	0.653100	0.862500
H451	H45	0.389700	0.619700	0.845000
C621	C62	0.347000	0.625100	0.911740
H461	H46	0.404000	0.573600	0.926300
C631	C63	0.199500	0.738800	0.916930
H471	H47	0.149600	0.769900	0.935200
C641	C64	0.186300	0.770800	0.867880
H481	H48	0.127600	0.821200	0.854000
Co41	Co4	0.169010	0.851310	0.603020
Co51	Co5	0.305020	0.635020	0.018340
O231	O23	0.133000	0.618100	0.024830
O241	O24	0.341000	0.610100	0.097040
O251	O25	0.532900	0.616400	0.119080
O261	O26	0.795100	0.320200	0.407900
O271	O27	0.707500	0.310900	0.472950
O281	O28	0.139800	0.487400	0.122890
O291	O29	0.070200	0.377400	0.056900
O301	O30	0.108300	0.085500	0.457330
O311	O31	0.002600	0.191100	0.396020
O321	O32	0.711900	0.539400	0.389150
O331	O33	0.189500	0.259900	0.362900
N51	N5	0.207200	0.690300	0.182490
N61	N6	0.279000	0.833700	0.439710
C651	C65	0.437300	0.594000	0.128360
C661	C66	0.429900	0.545800	0.177380
H491	H49	0.365000	0.503600	0.179900
C671	C67	0.512900	0.560800	0.217750
H501	H50	0.577900	0.600900	0.213600
C681	C68	0.512800	0.520400	0.268550
C691	C69	0.604900	0.550200	0.307270
H511	H51	0.661600	0.599300	0.300900
C701	C70	0.613500	0.508400	0.354920
C711	C71	0.527900	0.438000	0.365760
H521	H52	0.532100	0.411500	0.398000
C721	C72	0.435900	0.408400	0.327180
H531	H53	0.378300	0.360900	0.333900
C731	C73	0.428100	0.447700	0.279270
H541	H54	0.366200	0.425800	0.254000
C741	C74	0.726300	0.490600	0.437910
H551	H55	0.792300	0.526100	0.459700
H561	H56	0.658400	0.507800	0.451000
C751	C75	0.744300	0.363300	0.439240
C761	C76	0.108400	0.394100	0.103180
C771	C77	0.114100	0.296100	0.138330
H571	H57	0.103200	0.222500	0.125800
C781	C78	0.134200	0.313000	0.186820
H581	H58	0.148200	0.388300	0.196600
C791	C79	0.138300	0.231900	0.228190
C801	C80	0.158200	0.275100	0.276380
H591	H59	0.166200	0.353300	0.281100
C811	C81	0.166600	0.205000	0.317640
C821	C82	0.152400	0.089100	0.310970
H601	H60	0.157800	0.041100	0.338300
C831	C83	0.130000	0.045500	0.263110
H611	H61	0.119200	0.967500	0.258600
C841	C84	0.123200	0.114600	0.221390
H621	H62	0.108900	0.083300	0.189500
C851	C85	0.207200	0.193400	0.407330
H631	H63	0.254300	0.128000	0.403400
H641	H64	0.250000	0.238400	0.434800
C861	C86	0.094700	0.151600	0.420790
C871	C87	0.288600	0.763100	0.204590
H651	H65	0.333500	0.798600	0.185100
C881	C88	0.310000	0.788800	0.254970
H661	H66	0.368700	0.839400	0.268500
C891	C89	0.244100	0.739400	0.285280
C901	C90	0.161300	0.661800	0.262400
H671	H67	0.116000	0.624200	0.281100
C911	C91	0.146000	0.640000	0.212110
H681	H68	0.089800	0.587400	0.197900
C921	C92	0.258500	0.770300	0.338850
C931	C93	0.339300	0.846900	0.362500
H691	H69	0.389700	0.880300	0.345000
C941	C94	0.347000	0.874900	0.411740
H701	H70	0.404000	0.926400	0.426300
C951	C95	0.199500	0.761200	0.416930
H711	H71	0.149600	0.730100	0.435200
C961	C96	0.186300	0.729200	0.367880
H721	H72	0.127600	0.678800	0.354000
Co61	Co6	0.169010	0.648690	0.103020
Co71	Co7	0.694980	0.135020	0.481660
O341	O34	0.867000	0.118100	0.475170
O351	O35	0.659000	0.110100	0.402960
O361	O36	0.467100	0.116400	0.380920
O371	O37	0.204900	0.820200	0.092100
O381	O38	0.292500	0.810900	0.027050
O391	O39	0.860200	0.987400	0.377110
O401	O40	0.929800	0.877400	0.443100
O411	O41	0.891700	0.585500	0.042670
O421	O42	0.997400	0.691100	0.103980
O431	O43	0.288100	0.039400	0.110850
O441	O44	0.810500	0.759900	0.137100
N71	N7	0.792800	0.190300	0.317510
N81	N8	0.721000	0.333700	0.060290
C971	C97	0.562700	0.094000	0.371640
C981	C98	0.570100	0.045800	0.322620
H731	H73	0.635000	0.003600	0.320100
C991	C99	0.487100	0.060800	0.282250
H741	H74	0.422100	0.100900	0.286400
C1001	C100	0.487200	0.020400	0.231450
C1011	C101	0.395100	0.050200	0.192730
H751	H75	0.338400	0.099300	0.199100
C1021	C102	0.386500	0.008400	0.145080
C1031	C103	0.472100	0.938000	0.134240
H761	H76	0.467900	0.911500	0.102000
C1041	C104	0.564100	0.908400	0.172820
H771	H77	0.621700	0.860900	0.166100
C1051	C105	0.571900	0.947700	0.220730
H781	H78	0.633800	0.925800	0.246000
C1061	C106	0.273700	0.990600	0.062090
H791	H79	0.207700	0.026100	0.040300
H801	H80	0.341600	0.007800	0.049000
C1071	C107	0.255700	0.863300	0.060760
C1081	C108	0.891600	0.894100	0.396820
C1091	C109	0.885900	0.796100	0.361670
H811	H81	0.896800	0.722500	0.374200
C1101	C110	0.865800	0.813000	0.313180
H821	H82	0.851800	0.888300	0.303400
C1111	C111	0.861700	0.731900	0.271810
C1121	C112	0.841800	0.775100	0.223620
H831	H83	0.833800	0.853300	0.218900
C1131	C113	0.833400	0.705000	0.182360
C1141	C114	0.847600	0.589100	0.189030
H841	H84	0.842200	0.541100	0.161700
C1151	C115	0.870000	0.545500	0.236890
H851	H85	0.880800	0.467500	0.241400
C1161	C116	0.876800	0.614600	0.278610
H861	H86	0.891100	0.583300	0.310500
C1171	C117	0.792800	0.693400	0.092670
H871	H87	0.745700	0.628000	0.096600
H881	H88	0.750000	0.738400	0.065200
C1181	C118	0.905300	0.651600	0.079210
C1191	C119	0.711400	0.263100	0.295410
H891	H89	0.666500	0.298600	0.314900
C1201	C120	0.690000	0.288800	0.245030
H901	H90	0.631300	0.339400	0.231500
C1211	C121	0.755900	0.239400	0.214720
C1221	C122	0.838700	0.161800	0.237600
H911	H91	0.884000	0.124200	0.218900
C1231	C123	0.854000	0.140000	0.287890
H921	H92	0.910200	0.087400	0.302100
C1241	C124	0.741500	0.270300	0.161150
C1251	C125	0.660700	0.346900	0.137500
H931	H93	0.610300	0.380300	0.155000
C1261	C126	0.653000	0.374900	0.088260
H941	H94	0.596000	0.426400	0.073700
C1271	C127	0.800500	0.261200	0.083070
H951	H95	0.850400	0.230100	0.064800
C1281	C128	0.813700	0.229200	0.132120
H961	H96	0.872400	0.178800	0.146000
Co81	Co8	0.830990	0.148690	0.396980
Co91	Co9	0.000000	0.500000	0.000000
Co101	Co10	0.000000	0.000000	0.500000
