data_KIYMIP_clean_PM
_symmetry_space_group_name_H-M	'P1'
_cell_length_a	8.198400
_cell_length_b	24.094000
_cell_length_c	11.307000
_cell_angle_alpha	90.000000
_cell_angle_beta	90.000000
_cell_angle_gamma	90.000000
_symmetry_Int_Tables_number 1

loop_
_symmetry_equiv_pos_as_xyz
'x,y,z'

loop_
_atom_site_label
_atom_site_type_symbol
_atom_site_fract_x
_atom_site_fract_y
_atom_site_fract_z
Ni11	Ni1	0.909340	0.815000	0.470600
Ni21	Ni2	0.090660	0.185000	0.470600
Ni31	Ni3	0.409340	0.685000	0.529400
Ni41	Ni4	0.590660	0.315000	0.529400
H11	H1	0.400300	0.818800	0.742900
H21	H2	0.376400	0.894900	0.864600
H31	H3	0.657000	0.982100	0.640000
H41	H4	0.712300	0.770000	0.262200
H51	H5	0.707800	0.768400	0.061000
H61	H6	0.090700	0.871400	0.061100
H71	H7	0.084600	0.869800	0.263200
H81	H8	0.820900	0.739000	0.881800
H91	H9	0.831800	0.737900	0.679400
H101	H10	0.009500	0.887900	0.673400
H111	H11	0.001300	0.893100	0.874600
H121	H12	0.599700	0.181200	0.742900
H131	H13	0.623600	0.105100	0.864600
H141	H14	0.343000	0.017900	0.640000
H151	H15	0.287700	0.230000	0.262200
H161	H16	0.292200	0.231600	0.061000
H171	H17	0.909300	0.128600	0.061100
H181	H18	0.915400	0.130200	0.263200
H191	H19	0.179100	0.261000	0.881800
H201	H20	0.168200	0.262100	0.679400
H211	H21	0.990500	0.112100	0.673400
H221	H22	0.998700	0.106900	0.874600
H231	H23	0.900300	0.681200	0.257100
H241	H24	0.876400	0.605100	0.135400
H251	H25	0.157000	0.517900	0.360000
H261	H26	0.212300	0.730000	0.737800
H271	H27	0.207800	0.731600	0.939000
H281	H28	0.590700	0.628600	0.938900
H291	H29	0.584600	0.630200	0.736800
H301	H30	0.320900	0.761000	0.118200
H311	H31	0.331800	0.762100	0.320600
H321	H32	0.509500	0.612100	0.326600
H331	H33	0.501300	0.606900	0.125400
H341	H34	0.099700	0.318800	0.257100
H351	H35	0.123600	0.394900	0.135400
H361	H36	0.843000	0.482100	0.360000
H371	H37	0.787700	0.270000	0.737800
H381	H38	0.792200	0.268400	0.939000
H391	H39	0.409300	0.371400	0.938900
H401	H40	0.415400	0.369800	0.736800
H411	H41	0.679100	0.239000	0.118200
H421	H42	0.668200	0.237900	0.320600
H431	H43	0.490500	0.387900	0.326600
H441	H44	0.498700	0.393100	0.125400
C11	C1	0.618700	0.903000	0.587200
C21	C2	0.540000	0.853840	0.617200
C31	C3	0.451200	0.851780	0.721700
C41	C4	0.436200	0.897290	0.794900
C51	C5	0.512200	0.947240	0.763200
C61	C6	0.604200	0.949320	0.660400
C71	C7	0.710300	0.911000	0.471200
C81	C8	0.547900	0.802540	0.540600
C91	C9	0.655800	0.000100	0.919300
C101	C10	0.790300	0.790420	0.221100
C111	C11	0.787000	0.789030	0.100100
C121	C12	0.902700	0.818710	0.035600
C131	C13	0.013200	0.849900	0.099900
C141	C14	0.008200	0.848900	0.221800
C151	C15	0.907400	0.816910	0.904100
C161	C16	0.858500	0.770110	0.841400
C171	C17	0.865400	0.769650	0.719200
C181	C18	0.969600	0.857800	0.715900
C191	C19	0.965200	0.861040	0.837000
C201	C20	0.381300	0.097000	0.587200
C211	C21	0.460000	0.146160	0.617200
C221	C22	0.548800	0.148220	0.721700
C231	C23	0.563800	0.102710	0.794900
C241	C24	0.487800	0.052760	0.763200
C251	C25	0.395800	0.050680	0.660400
C261	C26	0.289700	0.089000	0.471200
C271	C27	0.452100	0.197460	0.540600
C281	C28	0.344200	0.999900	0.919300
C291	C29	0.209700	0.209580	0.221100
C301	C30	0.213000	0.210970	0.100100
C311	C31	0.097300	0.181290	0.035600
C321	C32	0.986800	0.150100	0.099900
C331	C33	0.991800	0.151100	0.221800
C341	C34	0.092600	0.183090	0.904100
C351	C35	0.141500	0.229890	0.841400
C361	C36	0.134600	0.230350	0.719200
C371	C37	0.030400	0.142200	0.715900
C381	C38	0.034800	0.138960	0.837000
C391	C39	0.118700	0.597000	0.412800
C401	C40	0.040000	0.646160	0.382800
C411	C41	0.951200	0.648220	0.278300
C421	C42	0.936200	0.602710	0.205100
C431	C43	0.012200	0.552760	0.236800
C441	C44	0.104200	0.550680	0.339600
C451	C45	0.210300	0.589000	0.528800
C461	C46	0.047900	0.697460	0.459400
C471	C47	0.155800	0.499900	0.080700
C481	C48	0.290300	0.709580	0.778900
C491	C49	0.287000	0.710970	0.899900
C501	C50	0.402700	0.681290	0.964400
C511	C51	0.513200	0.650100	0.900100
C521	C52	0.508200	0.651100	0.778200
C531	C53	0.407400	0.683090	0.095900
C541	C54	0.358500	0.729890	0.158600
C551	C55	0.365400	0.730350	0.280800
C561	C56	0.469600	0.642200	0.284100
C571	C57	0.465200	0.638960	0.163000
C581	C58	0.881300	0.403000	0.412800
C591	C59	0.960000	0.353840	0.382800
C601	C60	0.048800	0.351780	0.278300
C611	C61	0.063800	0.397290	0.205100
C621	C62	0.987800	0.447240	0.236800
C631	C63	0.895800	0.449320	0.339600
C641	C64	0.789700	0.411000	0.528800
C651	C65	0.952100	0.302540	0.459400
C661	C66	0.844200	0.500100	0.080700
C671	C67	0.709700	0.290420	0.778900
C681	C68	0.713000	0.289030	0.899900
C691	C69	0.597300	0.318710	0.964400
C701	C70	0.486800	0.349900	0.900100
C711	C71	0.491800	0.348900	0.778200
C721	C72	0.592600	0.316910	0.095900
C731	C73	0.641500	0.270110	0.158600
C741	C74	0.634600	0.269650	0.280800
C751	C75	0.530400	0.357800	0.284100
C761	C76	0.534800	0.361040	0.163000
C771	C77	0.500000	0.000000	0.841400
C781	C78	0.000000	0.500000	0.158600
N11	N1	0.899200	0.819380	0.283600
N21	N2	0.918300	0.812710	0.656200
N31	N3	0.100800	0.180620	0.283600
N41	N4	0.081700	0.187290	0.656200
N51	N5	0.399200	0.680620	0.716400
N61	N6	0.418300	0.687290	0.343800
N71	N7	0.600800	0.319380	0.716400
N81	N8	0.581700	0.312710	0.343800
O11	O1	0.633100	0.930720	0.388100
O21	O2	0.862100	0.899220	0.470900
O31	O3	0.664600	0.794840	0.471500
O41	O4	0.429700	0.769380	0.551800
O51	O5	0.366900	0.069280	0.388100
O61	O6	0.137900	0.100780	0.470900
O71	O7	0.335400	0.205160	0.471500
O81	O8	0.570300	0.230620	0.551800
O91	O9	0.133100	0.569280	0.611900
O101	O10	0.362100	0.600780	0.529100
O111	O11	0.164600	0.705160	0.528500
O121	O12	0.929700	0.730620	0.448200
O131	O13	0.866900	0.430720	0.611900
O141	O14	0.637900	0.399220	0.529100
O151	O15	0.835400	0.294840	0.528500
O161	O16	0.070300	0.269380	0.448200
F11	F1	0.675500	0.950360	0.971900
F21	F2	0.788500	0.010290	0.856900
F31	F3	0.649600	0.037290	0.007000
F41	F4	0.324500	0.049640	0.971900
F51	F5	0.211500	0.989710	0.856900
F61	F6	0.350400	0.962710	0.007000
F71	F7	0.175500	0.549640	0.028100
F81	F8	0.288500	0.489710	0.143100
F91	F9	0.149600	0.462710	0.993000
F101	F10	0.824500	0.450360	0.028100
F111	F11	0.711500	0.510290	0.143100
F121	F12	0.850400	0.537290	0.993000
