data_KIYMAI_clean_PM
_symmetry_space_group_name_H-M	'P1'
_cell_length_a	6.888300
_cell_length_b	14.707400
_cell_length_c	14.981000
_cell_angle_alpha	90.000000
_cell_angle_beta	90.000000
_cell_angle_gamma	90.000000
_symmetry_Int_Tables_number 1

loop_
_symmetry_equiv_pos_as_xyz
'x,y,z'

loop_
_atom_site_label
_atom_site_type_symbol
_atom_site_fract_x
_atom_site_fract_y
_atom_site_fract_z
Sr11	Sr1	0.855380	0.307680	0.546640
Sr21	Sr2	0.644620	0.692320	0.046640
Sr31	Sr3	0.144620	0.807680	0.953360
Sr41	Sr4	0.355380	0.192320	0.453360
H11	H1	0.844500	0.155700	0.251600
H21	H2	0.893100	0.047000	0.139800
H31	H3	0.876100	0.992300	0.514400
H41	H4	0.894300	0.731800	0.441200
H51	H5	0.888900	0.772000	0.293800
H61	H6	0.891100	0.842200	0.551200
H71	H7	0.655500	0.844300	0.751600
H81	H8	0.606900	0.953000	0.639800
H91	H9	0.623900	0.007700	0.014400
H101	H10	0.605700	0.268200	0.941200
H111	H11	0.611100	0.228000	0.793800
H121	H12	0.608900	0.157800	0.051200
H131	H13	0.155500	0.655700	0.248400
H141	H14	0.106900	0.547000	0.360200
H151	H15	0.123900	0.492300	0.985600
H161	H16	0.105700	0.231800	0.058800
H171	H17	0.111100	0.272000	0.206200
H181	H18	0.108900	0.342200	0.948800
H191	H19	0.344500	0.344300	0.748400
H201	H20	0.393100	0.453000	0.860200
H211	H21	0.376100	0.507700	0.485600
H221	H22	0.394300	0.768200	0.558800
H231	H23	0.388900	0.728000	0.706200
H241	H24	0.391100	0.657800	0.448800
C11	C1	0.865800	0.070180	0.354940
C21	C2	0.879100	0.977880	0.378460
C31	C3	0.861900	0.095000	0.267000
C41	C4	0.884800	0.909800	0.311500
C51	C5	0.858000	0.145920	0.423360
C61	C6	0.884300	0.028900	0.199200
C71	C7	0.893000	0.938700	0.220000
C81	C8	0.909700	0.872900	0.141800
C91	C9	0.880400	0.948900	0.469300
C101	C10	0.890700	0.792900	0.425400
C111	C11	0.888300	0.817000	0.337400
C121	C12	0.887900	0.859200	0.491400
C131	C13	0.634200	0.929820	0.854940
C141	C14	0.620900	0.022120	0.878460
C151	C15	0.638100	0.905000	0.767000
C161	C16	0.615200	0.090200	0.811500
C171	C17	0.642000	0.854080	0.923360
C181	C18	0.615700	0.971100	0.699200
C191	C19	0.607000	0.061300	0.720000
C201	C20	0.590300	0.127100	0.641800
C211	C21	0.619600	0.051100	0.969300
C221	C22	0.609300	0.207100	0.925400
C231	C23	0.611700	0.183000	0.837400
C241	C24	0.612100	0.140800	0.991400
C251	C25	0.134200	0.570180	0.145060
C261	C26	0.120900	0.477880	0.121540
C271	C27	0.138100	0.595000	0.233000
C281	C28	0.115200	0.409800	0.188500
C291	C29	0.142000	0.645920	0.076640
C301	C30	0.115700	0.528900	0.300800
C311	C31	0.107000	0.438700	0.280000
C321	C32	0.090300	0.372900	0.358200
C331	C33	0.119600	0.448900	0.030700
C341	C34	0.109300	0.292900	0.074600
C351	C35	0.111700	0.317000	0.162600
C361	C36	0.112100	0.359200	0.008600
C371	C37	0.365800	0.429820	0.645060
C381	C38	0.379100	0.522120	0.621540
C391	C39	0.361900	0.405000	0.733000
C401	C40	0.384800	0.590200	0.688500
C411	C41	0.358000	0.354080	0.576640
C421	C42	0.384300	0.471100	0.800800
C431	C43	0.393000	0.561300	0.780000
C441	C44	0.409700	0.627100	0.858200
C451	C45	0.380400	0.551100	0.530700
C461	C46	0.390700	0.707100	0.574600
C471	C47	0.388300	0.683000	0.662600
C481	C48	0.387900	0.640800	0.508600
O11	O1	0.719100	0.200350	0.419660
O21	O2	0.995100	0.152510	0.478780
O31	O3	0.816300	0.799700	0.145000
O41	O4	0.013800	0.898200	0.078900
O51	O5	0.780900	0.799650	0.919660
O61	O6	0.504900	0.847490	0.978780
O71	O7	0.683700	0.200300	0.645000
O81	O8	0.486200	0.101800	0.578900
O91	O9	0.280900	0.700350	0.080340
O101	O10	0.004900	0.652510	0.021220
O111	O11	0.183700	0.299700	0.355000
O121	O12	0.986200	0.398200	0.421100
O131	O13	0.219100	0.299650	0.580340
O141	O14	0.495100	0.347490	0.521220
O151	O15	0.316300	0.700300	0.855000
O161	O16	0.513800	0.601800	0.921100
