data_KIYQOA_clean_PM
_symmetry_space_group_name_H-M	'P1'
_cell_length_a	11.564100
_cell_length_b	12.091300
_cell_length_c	16.420200
_cell_angle_alpha	90.000000
_cell_angle_beta	106.261000
_cell_angle_gamma	90.000000
_symmetry_Int_Tables_number 1

loop_
_symmetry_equiv_pos_as_xyz
'x,y,z'

loop_
_atom_site_label
_atom_site_type_symbol
_atom_site_fract_x
_atom_site_fract_y
_atom_site_fract_z
Zn11	Zn1	0.588300	0.498500	0.806300
Zn21	Zn2	0.252300	0.235700	0.400310
Zn31	Zn3	0.752300	0.264300	0.900310
Zn41	Zn4	0.911700	0.998500	0.693700
Zn51	Zn5	0.747700	0.764300	0.599690
Zn61	Zn6	0.411700	0.501500	0.193700
Zn71	Zn7	0.247700	0.735700	0.099690
Zn81	Zn8	0.088300	0.001500	0.306300
H11	H1	0.474400	0.620300	0.937200
H21	H2	0.441900	0.093800	0.219300
H31	H3	0.549600	0.041100	0.385500
H41	H4	0.419300	0.332300	0.573600
H51	H5	0.080700	0.832300	0.926400
H61	H6	0.523900	0.056400	0.108400
H71	H7	0.974400	0.879700	0.437200
H81	H8	0.476100	0.943600	0.891600
H91	H9	0.946900	0.576000	0.777100
H101	H10	0.446900	0.924000	0.277100
H111	H11	0.023900	0.443600	0.608400
H121	H12	0.053100	0.424000	0.222900
H131	H13	0.950400	0.541100	0.114500
H141	H14	0.025600	0.120300	0.562800
H151	H15	0.580700	0.667700	0.426400
H161	H16	0.941900	0.406200	0.719300
H171	H17	0.049600	0.458900	0.885500
H181	H18	0.919300	0.167700	0.073600
H191	H19	0.058100	0.593800	0.280700
H201	H20	0.976100	0.556400	0.391600
H211	H21	0.553100	0.076000	0.722900
H221	H22	0.558100	0.906200	0.780700
H231	H23	0.450400	0.958900	0.614500
H241	H24	0.525600	0.379700	0.062800
C11	C1	0.542700	0.849200	0.814300
C21	C2	0.415200	0.804000	0.999700
C31	C3	0.994000	0.821200	0.406700
C41	C4	0.506000	0.321200	0.093300
C51	C5	0.995600	0.604800	0.827600
C61	C6	0.377000	0.079600	0.533100
C71	C7	0.494000	0.678800	0.906700
C81	C8	0.006000	0.178800	0.593300
C91	C9	0.004400	0.395200	0.172400
C101	C10	0.968300	0.714300	0.427100
C111	C11	0.507100	0.128900	0.120300
C121	C12	0.957300	0.349200	0.685700
C131	C13	0.509000	0.782300	0.338900
C141	C14	0.123000	0.579600	0.966900
C151	C15	0.305600	0.009700	0.459900
C161	C16	0.924900	0.243600	0.082700
C171	C17	0.457300	0.150800	0.185700
C181	C18	0.492900	0.871100	0.879700
C191	C19	0.552600	0.298400	0.729200
C201	C20	0.575100	0.743600	0.417300
C211	C21	0.531700	0.214300	0.072900
C221	C22	0.947400	0.798400	0.770800
C231	C23	0.069200	0.758500	0.299900
C241	C24	0.031700	0.285700	0.572900
C251	C25	0.468300	0.785700	0.927100
C261	C26	0.504400	0.104800	0.672400
C271	C27	0.495600	0.895200	0.327600
C281	C28	0.378600	0.291100	0.270500
C291	C29	0.694400	0.990300	0.540100
C301	C30	0.447400	0.701600	0.270800
C311	C31	0.945000	0.464800	0.107500
C321	C32	0.075100	0.756400	0.917300
C331	C33	0.084800	0.304000	0.500300
C341	C34	0.555000	0.964800	0.392500
C351	C35	0.491000	0.217700	0.661100
C361	C36	0.007100	0.371100	0.620300
C371	C37	0.009000	0.717700	0.838900
C381	C38	0.445000	0.035200	0.607500
C391	C39	0.992900	0.628900	0.379700
C401	C40	0.623000	0.920400	0.466900
C411	C41	0.621400	0.708900	0.729500
C421	C42	0.430800	0.258500	0.200100
C431	C43	0.805600	0.490300	0.959900
C441	C44	0.121400	0.791100	0.229500
C451	C45	0.991000	0.282300	0.161100
C461	C46	0.877000	0.420400	0.033100
C471	C47	0.878600	0.208900	0.770500
C481	C48	0.042700	0.650800	0.314300
C491	C49	0.194400	0.509700	0.040100
C501	C50	0.424900	0.256400	0.582700
C511	C51	0.569200	0.741500	0.799900
C521	C52	0.052600	0.201600	0.229200
C531	C53	0.915200	0.696000	0.499700
C541	C54	0.584800	0.196000	0.000300
C551	C55	0.055000	0.535200	0.892500
C561	C56	0.930800	0.241500	0.700100
N11	N1	0.455000	0.343200	0.154800
N21	N2	0.955000	0.156800	0.654800
N31	N3	0.131800	0.688700	0.980700
N41	N4	0.631800	0.811300	0.480700
N51	N5	0.868200	0.311300	0.019300
N61	N6	0.545000	0.656800	0.845200
N71	N7	0.045000	0.843200	0.345200
N81	N8	0.368200	0.188700	0.519300
O11	O1	0.384900	0.737600	0.201700
O21	O2	0.034700	0.101600	0.208700
O31	O3	0.602700	0.282200	0.963700
O41	O4	0.357300	0.218300	0.317300
O51	O5	0.111500	0.399700	0.484500
O61	O6	0.534700	0.398400	0.708700
O71	O7	0.310200	0.908300	0.466800
O81	O8	0.115100	0.237600	0.298300
O91	O9	0.746800	0.437400	0.894900
O101	O10	0.615100	0.262400	0.798300
O111	O11	0.364700	0.393900	0.279200
O121	O12	0.642700	0.781700	0.682700
O131	O13	0.857300	0.281700	0.817300
O141	O14	0.397300	0.717800	0.036300
O151	O15	0.135300	0.893900	0.220800
O161	O16	0.142700	0.718300	0.182700
O171	O17	0.253200	0.562600	0.105100
O181	O18	0.246800	0.062600	0.394900
O191	O19	0.388500	0.899700	0.015500
O201	O20	0.884900	0.762400	0.701700
O211	O21	0.465300	0.601600	0.291300
O221	O22	0.864700	0.106100	0.779200
O231	O23	0.897300	0.782200	0.536300
O241	O24	0.965300	0.898400	0.791300
O251	O25	0.689800	0.091700	0.533200
O261	O26	0.611500	0.100300	0.984500
O271	O27	0.189800	0.408300	0.033200
O281	O28	0.635300	0.606100	0.720800
O291	O29	0.102700	0.217800	0.463700
O301	O30	0.753200	0.937400	0.605100
O311	O31	0.888500	0.600300	0.515500
O321	O32	0.810200	0.591700	0.966800
