data_KOFPEB02_clean_PM
_symmetry_space_group_name_H-M	'P1'
_cell_length_a	13.515600
_cell_length_b	13.515600
_cell_length_c	14.872000
_cell_angle_alpha	90.000000
_cell_angle_beta	90.000000
_cell_angle_gamma	120.000000
_symmetry_Int_Tables_number 1

loop_
_symmetry_equiv_pos_as_xyz
'x,y,z'

loop_
_atom_site_label
_atom_site_type_symbol
_atom_site_fract_x
_atom_site_fract_y
_atom_site_fract_z
La11	La1	0.666670	0.333340	0.331770
La21	La2	0.333330	0.666660	0.168230
La31	La3	0.333330	0.666660	0.668230
La41	La4	0.666670	0.333340	0.831770
Cu11	Cu1	0.500000	0.000000	0.500000
Cu21	Cu2	0.500000	0.500000	0.500000
Cu31	Cu3	0.000000	0.500000	0.500000
Cu41	Cu4	0.500000	0.000000	0.000000
Cu51	Cu5	0.000000	0.500000	0.000000
Cu61	Cu6	0.500000	0.500000	0.000000
H11	H1	0.756200	0.043900	0.457200
H21	H2	0.647800	0.978100	0.576000
H31	H3	0.797600	0.143300	0.535500
H41	H4	0.724700	0.187700	0.619500
H51	H5	0.669800	0.067300	0.685200
H61	H6	0.287700	0.243800	0.457200
H71	H7	0.330300	0.352200	0.576000
H81	H8	0.345700	0.202400	0.535500
H91	H9	0.463000	0.275300	0.619500
H101	H10	0.397500	0.330200	0.685200
H111	H11	0.956100	0.712300	0.457200
H121	H12	0.021900	0.669700	0.576000
H131	H13	0.856700	0.654300	0.535500
H141	H14	0.812300	0.537000	0.619500
H151	H15	0.932700	0.602500	0.685200
H161	H16	0.712300	0.956100	0.042800
H171	H17	0.669700	0.021900	0.924000
H181	H18	0.654300	0.856700	0.964500
H191	H19	0.537000	0.812300	0.880500
H201	H20	0.602500	0.932700	0.814800
H211	H21	0.043900	0.756200	0.042800
H221	H22	0.978100	0.647800	0.924000
H231	H23	0.143300	0.797600	0.964500
H241	H24	0.187700	0.724700	0.880500
H251	H25	0.067300	0.669800	0.814800
H261	H26	0.243800	0.287700	0.042800
H271	H27	0.352200	0.330300	0.924000
H281	H28	0.202400	0.345700	0.964500
H291	H29	0.275300	0.463000	0.880500
H301	H30	0.330200	0.397500	0.814800
H311	H31	0.243800	0.956100	0.542800
H321	H32	0.352200	0.021900	0.424000
H331	H33	0.202400	0.856700	0.464500
H341	H34	0.275300	0.812300	0.380500
H351	H35	0.330200	0.932700	0.314800
H361	H36	0.712300	0.756200	0.542800
H371	H37	0.669700	0.647800	0.424000
H381	H38	0.654300	0.797600	0.464500
H391	H39	0.537000	0.724700	0.380500
H401	H40	0.602500	0.669800	0.314800
H411	H41	0.043900	0.287700	0.542800
H421	H42	0.978100	0.330300	0.424000
H431	H43	0.143300	0.345700	0.464500
H441	H44	0.187700	0.463000	0.380500
H451	H45	0.067300	0.397500	0.314800
H461	H46	0.287700	0.043900	0.957200
H471	H47	0.330300	0.978100	0.076000
H481	H48	0.345700	0.143300	0.035500
H491	H49	0.463000	0.187700	0.119500
H501	H50	0.397500	0.067300	0.185200
H511	H51	0.956100	0.243800	0.957200
H521	H52	0.021900	0.352200	0.076000
H531	H53	0.856700	0.202400	0.035500
H541	H54	0.812300	0.275300	0.119500
H551	H55	0.932700	0.330200	0.185200
H561	H56	0.756200	0.712300	0.957200
H571	H57	0.647800	0.669700	0.076000
H581	H58	0.797600	0.654300	0.035500
H591	H59	0.724700	0.537000	0.119500
H601	H60	0.669800	0.602500	0.185200
C11	C1	0.727500	0.180100	0.434100
C21	C2	0.743500	0.096400	0.491100
C31	C3	0.666500	0.112400	0.636600
C41	C4	0.559900	0.121100	0.656600
C51	C5	0.452600	0.272500	0.434100
C61	C6	0.352900	0.256500	0.491100
C71	C7	0.445900	0.333500	0.636600
C81	C8	0.561200	0.440100	0.656600
C91	C9	0.819900	0.547400	0.434100
C101	C10	0.903600	0.647100	0.491100
C111	C11	0.887600	0.554100	0.636600
C121	C12	0.878900	0.438800	0.656600
C131	C13	0.547400	0.819900	0.065900
C141	C14	0.647100	0.903600	0.008900
C151	C15	0.554100	0.887600	0.863400
C161	C16	0.438800	0.878900	0.843400
C171	C17	0.180100	0.727500	0.065900
C181	C18	0.096400	0.743500	0.008900
C191	C19	0.112400	0.666500	0.863400
C201	C20	0.121100	0.559900	0.843400
C211	C21	0.272500	0.452600	0.065900
C221	C22	0.256500	0.352900	0.008900
C231	C23	0.333500	0.445900	0.863400
C241	C24	0.440100	0.561200	0.843400
C251	C25	0.272500	0.819900	0.565900
C261	C26	0.256500	0.903600	0.508900
C271	C27	0.333500	0.887600	0.363400
C281	C28	0.440100	0.878900	0.343400
C291	C29	0.547400	0.727500	0.565900
C301	C30	0.647100	0.743500	0.508900
C311	C31	0.554100	0.666500	0.363400
C321	C32	0.438800	0.559900	0.343400
C331	C33	0.180100	0.452600	0.565900
C341	C34	0.096400	0.352900	0.508900
C351	C35	0.112400	0.445900	0.363400
C361	C36	0.121100	0.561200	0.343400
C371	C37	0.452600	0.180100	0.934100
C381	C38	0.352900	0.096400	0.991100
C391	C39	0.445900	0.112400	0.136600
C401	C40	0.561200	0.121100	0.156600
C411	C41	0.819900	0.272500	0.934100
C421	C42	0.903600	0.256500	0.991100
C431	C43	0.887600	0.333500	0.136600
C441	C44	0.878900	0.440100	0.156600
C451	C45	0.727500	0.547400	0.934100
C461	C46	0.743500	0.647100	0.991100
C471	C47	0.666500	0.554100	0.136600
C481	C48	0.559900	0.438800	0.156600
N11	N1	0.650900	0.041500	0.557000
N21	N2	0.390600	0.349100	0.557000
N31	N3	0.958500	0.609400	0.557000
N41	N4	0.609400	0.958500	0.943000
N51	N5	0.041500	0.650900	0.943000
N61	N6	0.349100	0.390600	0.943000
N71	N7	0.349100	0.958500	0.443000
N81	N8	0.609400	0.650900	0.443000
N91	N9	0.041500	0.390600	0.443000
N101	N10	0.390600	0.041500	0.057000
N111	N11	0.958500	0.349100	0.057000
N121	N12	0.650900	0.609400	0.057000
O11	O1	0.635000	0.182800	0.445000
O21	O2	0.800900	0.241100	0.377900
O31	O3	0.475400	0.072500	0.605600
O41	O4	0.563200	0.177000	0.724800
O51	O5	0.547800	0.365000	0.445000
O61	O6	0.440200	0.199100	0.377900
O71	O7	0.597100	0.524600	0.605600
O81	O8	0.613800	0.436800	0.724800
O91	O9	0.817200	0.452200	0.445000
O101	O10	0.758900	0.559800	0.377900
O111	O11	0.927500	0.402900	0.605600
O121	O12	0.823000	0.386200	0.724800
O131	O13	0.452200	0.817200	0.055000
O141	O14	0.559800	0.758900	0.122100
O151	O15	0.402900	0.927500	0.894400
O161	O16	0.386200	0.823000	0.775200
O171	O17	0.182800	0.635000	0.055000
O181	O18	0.241100	0.800900	0.122100
O191	O19	0.072500	0.475400	0.894400
O201	O20	0.177000	0.563200	0.775200
O211	O21	0.365000	0.547800	0.055000
O221	O22	0.199100	0.440200	0.122100
O231	O23	0.524600	0.597100	0.894400
O241	O24	0.436800	0.613800	0.775200
O251	O25	0.365000	0.817200	0.555000
O261	O26	0.199100	0.758900	0.622100
O271	O27	0.524600	0.927500	0.394400
O281	O28	0.436800	0.823000	0.275200
O291	O29	0.452200	0.635000	0.555000
O301	O30	0.559800	0.800900	0.622100
O311	O31	0.402900	0.475400	0.394400
O321	O32	0.386200	0.563200	0.275200
O331	O33	0.182800	0.547800	0.555000
O341	O34	0.241100	0.440200	0.622100
O351	O35	0.072500	0.597100	0.394400
O361	O36	0.177000	0.613800	0.275200
O371	O37	0.547800	0.182800	0.945000
O381	O38	0.440200	0.241100	0.877900
O391	O39	0.597100	0.072500	0.105600
O401	O40	0.613800	0.177000	0.224800
O411	O41	0.817200	0.365000	0.945000
O421	O42	0.758900	0.199100	0.877900
O431	O43	0.927500	0.524600	0.105600
O441	O44	0.823000	0.436800	0.224800
O451	O45	0.635000	0.452200	0.945000
O461	O46	0.800900	0.559800	0.877900
O471	O47	0.475400	0.402900	0.105600
O481	O48	0.563200	0.386200	0.224800
