data_KOFPEB03_clean_PM
_symmetry_space_group_name_H-M	'P1'
_cell_length_a	13.503900
_cell_length_b	13.503900
_cell_length_c	14.897000
_cell_angle_alpha	90.000000
_cell_angle_beta	90.000000
_cell_angle_gamma	120.000000
_symmetry_Int_Tables_number 1

loop_
_symmetry_equiv_pos_as_xyz
'x,y,z'

loop_
_atom_site_label
_atom_site_type_symbol
_atom_site_fract_x
_atom_site_fract_y
_atom_site_fract_z
La11	La1	0.666670	0.333340	0.330900
La21	La2	0.333330	0.666660	0.169100
La31	La3	0.333330	0.666660	0.669100
La41	La4	0.666670	0.333340	0.830900
Cu11	Cu1	0.500000	0.000000	0.500000
Cu21	Cu2	0.500000	0.500000	0.500000
Cu31	Cu3	0.000000	0.500000	0.500000
Cu41	Cu4	0.500000	0.000000	0.000000
Cu51	Cu5	0.000000	0.500000	0.000000
Cu61	Cu6	0.500000	0.500000	0.000000
H11	H1	0.799400	0.142900	0.534000
H21	H2	0.753700	0.042500	0.454500
H31	H3	0.726200	0.189000	0.620100
H41	H4	0.670300	0.067800	0.684100
H51	H5	0.647900	0.976800	0.575800
H61	H6	0.343500	0.200600	0.534000
H71	H7	0.288800	0.246300	0.454500
H81	H8	0.462800	0.273800	0.620100
H91	H9	0.397500	0.329700	0.684100
H101	H10	0.328900	0.352100	0.575800
H111	H11	0.857100	0.656500	0.534000
H121	H12	0.957500	0.711200	0.454500
H131	H13	0.811000	0.537200	0.620100
H141	H14	0.932200	0.602500	0.684100
H151	H15	0.023200	0.671100	0.575800
H161	H16	0.656500	0.857100	0.966000
H171	H17	0.711200	0.957500	0.045500
H181	H18	0.537200	0.811000	0.879900
H191	H19	0.602500	0.932200	0.815900
H201	H20	0.671100	0.023200	0.924200
H211	H21	0.142900	0.799400	0.966000
H221	H22	0.042500	0.753700	0.045500
H231	H23	0.189000	0.726200	0.879900
H241	H24	0.067800	0.670300	0.815900
H251	H25	0.976800	0.647900	0.924200
H261	H26	0.200600	0.343500	0.966000
H271	H27	0.246300	0.288800	0.045500
H281	H28	0.273800	0.462800	0.879900
H291	H29	0.329700	0.397500	0.815900
H301	H30	0.352100	0.328900	0.924200
H311	H31	0.200600	0.857100	0.466000
H321	H32	0.246300	0.957500	0.545500
H331	H33	0.273800	0.811000	0.379900
H341	H34	0.329700	0.932200	0.315900
H351	H35	0.352100	0.023200	0.424200
H361	H36	0.656500	0.799400	0.466000
H371	H37	0.711200	0.753700	0.545500
H381	H38	0.537200	0.726200	0.379900
H391	H39	0.602500	0.670300	0.315900
H401	H40	0.671100	0.647900	0.424200
H411	H41	0.142900	0.343500	0.466000
H421	H42	0.042500	0.288800	0.545500
H431	H43	0.189000	0.462800	0.379900
H441	H44	0.067800	0.397500	0.315900
H451	H45	0.976800	0.328900	0.424200
H461	H46	0.343500	0.142900	0.034000
H471	H47	0.288800	0.042500	0.954500
H481	H48	0.462800	0.189000	0.120100
H491	H49	0.397500	0.067800	0.184100
H501	H50	0.328900	0.976800	0.075800
H511	H51	0.857100	0.200600	0.034000
H521	H52	0.957500	0.246300	0.954500
H531	H53	0.811000	0.273800	0.120100
H541	H54	0.932200	0.329700	0.184100
H551	H55	0.023200	0.352100	0.075800
H561	H56	0.799400	0.656500	0.034000
H571	H57	0.753700	0.711200	0.954500
H581	H58	0.726200	0.537200	0.120100
H591	H59	0.670300	0.602500	0.184100
H601	H60	0.647900	0.671100	0.075800
C11	C1	0.727000	0.179900	0.433800
C21	C2	0.743900	0.095900	0.491000
C31	C3	0.667000	0.112900	0.636200
C41	C4	0.560800	0.121200	0.656900
C51	C5	0.452900	0.273000	0.433800
C61	C6	0.352000	0.256100	0.491000
C71	C7	0.445900	0.333000	0.636200
C81	C8	0.560400	0.439200	0.656900
C91	C9	0.820100	0.547100	0.433800
C101	C10	0.904100	0.648000	0.491000
C111	C11	0.887100	0.554100	0.636200
C121	C12	0.878800	0.439600	0.656900
C131	C13	0.547100	0.820100	0.066200
C141	C14	0.648000	0.904100	0.009000
C151	C15	0.554100	0.887100	0.863800
C161	C16	0.439600	0.878800	0.843100
C171	C17	0.179900	0.727000	0.066200
C181	C18	0.095900	0.743900	0.009000
C191	C19	0.112900	0.667000	0.863800
C201	C20	0.121200	0.560800	0.843100
C211	C21	0.273000	0.452900	0.066200
C221	C22	0.256100	0.352000	0.009000
C231	C23	0.333000	0.445900	0.863800
C241	C24	0.439200	0.560400	0.843100
C251	C25	0.273000	0.820100	0.566200
C261	C26	0.256100	0.904100	0.509000
C271	C27	0.333000	0.887100	0.363800
C281	C28	0.439200	0.878800	0.343100
C291	C29	0.547100	0.727000	0.566200
C301	C30	0.648000	0.743900	0.509000
C311	C31	0.554100	0.667000	0.363800
C321	C32	0.439600	0.560800	0.343100
C331	C33	0.179900	0.452900	0.566200
C341	C34	0.095900	0.352000	0.509000
C351	C35	0.112900	0.445900	0.363800
C361	C36	0.121200	0.560400	0.343100
C371	C37	0.452900	0.179900	0.933800
C381	C38	0.352000	0.095900	0.991000
C391	C39	0.445900	0.112900	0.136200
C401	C40	0.560400	0.121200	0.156900
C411	C41	0.820100	0.273000	0.933800
C421	C42	0.904100	0.256100	0.991000
C431	C43	0.887100	0.333000	0.136200
C441	C44	0.878800	0.439200	0.156900
C451	C45	0.727000	0.547100	0.933800
C461	C46	0.743900	0.648000	0.991000
C471	C47	0.667000	0.554100	0.136200
C481	C48	0.560800	0.439600	0.156900
N11	N1	0.650800	0.040200	0.557300
N21	N2	0.389400	0.349200	0.557300
N31	N3	0.959800	0.610600	0.557300
N41	N4	0.610600	0.959800	0.942700
N51	N5	0.040200	0.650800	0.942700
N61	N6	0.349200	0.389400	0.942700
N71	N7	0.349200	0.959800	0.442700
N81	N8	0.610600	0.650800	0.442700
N91	N9	0.040200	0.389400	0.442700
N101	N10	0.389400	0.040200	0.057300
N111	N11	0.959800	0.349200	0.057300
N121	N12	0.650800	0.610600	0.057300
O11	O1	0.635800	0.183000	0.443800
O21	O2	0.801600	0.240900	0.377600
O31	O3	0.476700	0.074000	0.605100
O41	O4	0.563100	0.176300	0.724400
O51	O5	0.547200	0.364200	0.443800
O61	O6	0.439300	0.198400	0.377600
O71	O7	0.597300	0.523300	0.605100
O81	O8	0.613200	0.436900	0.724400
O91	O9	0.817000	0.452800	0.443800
O101	O10	0.759100	0.560700	0.377600
O111	O11	0.926000	0.402700	0.605100
O121	O12	0.823700	0.386800	0.724400
O131	O13	0.452800	0.817000	0.056200
O141	O14	0.560700	0.759100	0.122400
O151	O15	0.402700	0.926000	0.894900
O161	O16	0.386800	0.823700	0.775600
O171	O17	0.183000	0.635800	0.056200
O181	O18	0.240900	0.801600	0.122400
O191	O19	0.074000	0.476700	0.894900
O201	O20	0.176300	0.563100	0.775600
O211	O21	0.364200	0.547200	0.056200
O221	O22	0.198400	0.439300	0.122400
O231	O23	0.523300	0.597300	0.894900
O241	O24	0.436900	0.613200	0.775600
O251	O25	0.364200	0.817000	0.556200
O261	O26	0.198400	0.759100	0.622400
O271	O27	0.523300	0.926000	0.394900
O281	O28	0.436900	0.823700	0.275600
O291	O29	0.452800	0.635800	0.556200
O301	O30	0.560700	0.801600	0.622400
O311	O31	0.402700	0.476700	0.394900
O321	O32	0.386800	0.563100	0.275600
O331	O33	0.183000	0.547200	0.556200
O341	O34	0.240900	0.439300	0.622400
O351	O35	0.074000	0.597300	0.394900
O361	O36	0.176300	0.613200	0.275600
O371	O37	0.547200	0.183000	0.943800
O381	O38	0.439300	0.240900	0.877600
O391	O39	0.597300	0.074000	0.105100
O401	O40	0.613200	0.176300	0.224400
O411	O41	0.817000	0.364200	0.943800
O421	O42	0.759100	0.198400	0.877600
O431	O43	0.926000	0.523300	0.105100
O441	O44	0.823700	0.436900	0.224400
O451	O45	0.635800	0.452800	0.943800
O461	O46	0.801600	0.560700	0.877600
O471	O47	0.476700	0.402700	0.105100
O481	O48	0.563100	0.386800	0.224400
