data_KOGYIP_clean_PM
_symmetry_space_group_name_H-M	'P1'
_cell_length_a	15.083000
_cell_length_b	20.531000
_cell_length_c	3.665600
_cell_angle_alpha	90.000000
_cell_angle_beta	90.000000
_cell_angle_gamma	90.000000
_symmetry_Int_Tables_number 1

loop_
_symmetry_equiv_pos_as_xyz
'x,y,z'

loop_
_atom_site_label
_atom_site_type_symbol
_atom_site_fract_x
_atom_site_fract_y
_atom_site_fract_z
N11	N1	0.669100	0.588900	0.465800
C11	C1	0.618300	0.638400	0.357400
H11	H1	0.560400	0.629500	0.285700
C21	C2	0.647100	0.701500	0.346300
H21	H2	0.609500	0.734300	0.264900
C31	C3	0.731900	0.716300	0.456000
C41	C4	0.785900	0.664000	0.567900
H31	H3	0.844500	0.671300	0.636500
C51	C5	0.751200	0.602400	0.574500
H41	H4	0.786500	0.568400	0.658700
N21	N2	0.169100	0.088900	0.465800
C61	C6	0.118300	0.138400	0.357400
H51	H5	0.060400	0.129500	0.285700
C71	C7	0.147100	0.201500	0.346300
H61	H6	0.109500	0.234300	0.264900
C81	C8	0.231900	0.216300	0.456000
C91	C9	0.285900	0.164000	0.567900
H71	H7	0.344500	0.171300	0.636500
C101	C10	0.251200	0.102400	0.574500
H81	H8	0.286500	0.068400	0.658700
N31	N3	0.330900	0.411100	0.465800
C111	C11	0.381700	0.361600	0.357400
H91	H9	0.439600	0.370500	0.285700
C121	C12	0.352900	0.298500	0.346300
H101	H10	0.390500	0.265700	0.264900
C131	C13	0.268100	0.283700	0.456000
C141	C14	0.214100	0.336000	0.567900
H111	H11	0.155500	0.328700	0.636500
C151	C15	0.248800	0.397600	0.574500
H121	H12	0.213500	0.431600	0.658700
N41	N4	0.830900	0.911100	0.465800
C161	C16	0.881700	0.861600	0.357400
H131	H13	0.939600	0.870500	0.285700
C171	C17	0.852900	0.798500	0.346300
H141	H14	0.890500	0.765700	0.264900
C181	C18	0.768100	0.783700	0.456000
C191	C19	0.714100	0.836000	0.567900
H151	H15	0.655500	0.828700	0.636500
C201	C20	0.748800	0.897600	0.574500
H161	H16	0.713500	0.931600	0.658700
N51	N5	0.330900	0.588900	0.534200
C211	C21	0.381700	0.638400	0.642600
H171	H17	0.439600	0.629500	0.714300
C221	C22	0.352900	0.701500	0.653700
H181	H18	0.390500	0.734300	0.735100
C231	C23	0.268100	0.716300	0.544000
C241	C24	0.214100	0.664000	0.432100
H191	H19	0.155500	0.671300	0.363500
C251	C25	0.248800	0.602400	0.425500
H201	H20	0.213500	0.568400	0.341300
N61	N6	0.830900	0.088900	0.534200
C261	C26	0.881700	0.138400	0.642600
H211	H21	0.939600	0.129500	0.714300
C271	C27	0.852900	0.201500	0.653700
H221	H22	0.890500	0.234300	0.735100
C281	C28	0.768100	0.216300	0.544000
C291	C29	0.714100	0.164000	0.432100
H231	H23	0.655500	0.171300	0.363500
C301	C30	0.748800	0.102400	0.425500
H241	H24	0.713500	0.068400	0.341300
N71	N7	0.669100	0.411100	0.534200
C311	C31	0.618300	0.361600	0.642600
H251	H25	0.560400	0.370500	0.714300
C321	C32	0.647100	0.298500	0.653700
H261	H26	0.609500	0.265700	0.735100
C331	C33	0.731900	0.283700	0.544000
C341	C34	0.785900	0.336000	0.432100
H271	H27	0.844500	0.328700	0.363500
C351	C35	0.751200	0.397600	0.425500
H281	H28	0.786500	0.431600	0.341300
N81	N8	0.169100	0.911100	0.534200
C361	C36	0.118300	0.861600	0.642600
H291	H29	0.060400	0.870500	0.714300
C371	C37	0.147100	0.798500	0.653700
H301	H30	0.109500	0.765700	0.735100
C381	C38	0.231900	0.783700	0.544000
C391	C39	0.285900	0.836000	0.432100
H311	H31	0.344500	0.828700	0.363500
C401	C40	0.251200	0.897600	0.425500
H321	H32	0.286500	0.931600	0.341300
Cu11	Cu1	0.621780	0.500000	0.500000
Cu21	Cu2	0.121780	0.000000	0.500000
Cu31	Cu3	0.378220	0.500000	0.500000
Cu41	Cu4	0.878220	0.000000	0.500000
Cl11	Cl1	0.500000	0.500000	0.000000
Cl21	Cl2	0.000000	0.000000	0.000000
