data_KOHLIE_clean_PM
_symmetry_space_group_name_H-M	'P1'
_cell_length_a	26.982000
_cell_length_b	21.882000
_cell_length_c	13.821900
_cell_angle_alpha	90.000000
_cell_angle_beta	90.000000
_cell_angle_gamma	90.000000
_symmetry_Int_Tables_number 1

loop_
_symmetry_equiv_pos_as_xyz
'x,y,z'

loop_
_atom_site_label
_atom_site_type_symbol
_atom_site_fract_x
_atom_site_fract_y
_atom_site_fract_z
Co11	Co1	0.117720	0.685280	0.966620
Si11	Si1	0.131600	0.445660	0.465510
O11	O1	0.107100	0.649300	0.098200
C11	C1	0.141900	0.606800	0.098200
O21	O2	0.317030	0.276980	0.659300
C21	C2	0.307400	0.277600	0.571000
C31	C3	0.266000	0.318100	0.540400
C41	C4	0.236600	0.345300	0.609300
H11	H1	0.243000	0.337700	0.674300
C51	C5	0.254800	0.331600	0.449800
H21	H2	0.272600	0.313300	0.400100
O31	O3	0.943460	0.235800	0.467300
C61	C6	0.952500	0.275200	0.405400
C71	C7	0.996500	0.316200	0.420500
C81	C8	0.026800	0.310300	0.495600
H31	H3	0.021600	0.279100	0.540200
C91	C9	0.012000	0.354300	0.349600
H41	H4	0.996100	0.353400	0.289900
C101	C10	0.138600	0.494000	0.356100
O41	O4	0.130430	0.660640	0.826300
C111	C11	0.078130	0.392700	0.448000
C121	C12	0.119400	0.496600	0.571300
C131	C13	0.187280	0.397500	0.493800
C141	C14	0.107200	0.575400	0.733500
O51	O5	0.071630	0.601500	0.883100
C151	C15	0.146500	0.581700	0.675000
H51	H5	0.170200	0.611500	0.687500
C161	C16	0.151500	0.542500	0.594100
H61	H6	0.178600	0.548500	0.553600
C171	C17	0.102000	0.614500	0.819800
C181	C18	0.198500	0.383200	0.585000
H71	H7	0.179400	0.399900	0.634300
C191	C19	0.051500	0.395000	0.364000
H81	H8	0.059500	0.423500	0.316500
C201	C20	0.066300	0.350600	0.507900
H91	H9	0.085400	0.346600	0.563600
C211	C21	0.079400	0.491500	0.633200
H101	H10	0.055700	0.461700	0.620900
C221	C22	0.073400	0.529000	0.712500
H111	H11	0.046300	0.523200	0.752900
C231	C23	0.217200	0.372300	0.426600
H121	H12	0.212300	0.382600	0.361900
O61	O6	0.329680	0.246200	0.505300
O71	O7	0.926590	0.285180	0.332600
C241	C24	0.142500	0.567200	0.190500
O81	O8	0.171800	0.598300	0.034900
C251	C25	0.104500	0.571700	0.249700
H131	H13	0.078400	0.597800	0.235300
C261	C26	0.103900	0.536400	0.335300
H141	H14	0.078400	0.542700	0.379400
C271	C27	0.176600	0.528000	0.208900
H151	H15	0.203800	0.523900	0.168100
C281	C28	0.172000	0.492600	0.289600
H161	H16	0.196600	0.463200	0.297900
Co21	Co2	0.382280	0.314720	0.966620
Si21	Si2	0.368400	0.554340	0.465510
O91	O9	0.392900	0.350700	0.098200
C291	C29	0.358100	0.393200	0.098200
O101	O10	0.182970	0.723020	0.659300
C301	C30	0.192600	0.722400	0.571000
C311	C31	0.234000	0.681900	0.540400
C321	C32	0.263400	0.654700	0.609300
H171	H17	0.257000	0.662300	0.674300
C331	C33	0.245200	0.668400	0.449800
H181	H18	0.227400	0.686700	0.400100
O111	O11	0.556540	0.764200	0.467300
C341	C34	0.547500	0.724800	0.405400
C351	C35	0.503500	0.683800	0.420500
C361	C36	0.473200	0.689700	0.495600
H191	H19	0.478400	0.720900	0.540200
C371	C37	0.488000	0.645700	0.349600
H201	H20	0.503900	0.646600	0.289900
C381	C38	0.361400	0.506000	0.356100
O121	O12	0.369570	0.339360	0.826300
C391	C39	0.421870	0.607300	0.448000
C401	C40	0.380600	0.503400	0.571300
C411	C41	0.312720	0.602500	0.493800
C421	C42	0.392800	0.424600	0.733500
O131	O13	0.428370	0.398500	0.883100
C431	C43	0.353500	0.418300	0.675000
H211	H21	0.329800	0.388500	0.687500
C441	C44	0.348500	0.457500	0.594100
H221	H22	0.321400	0.451500	0.553600
C451	C45	0.398000	0.385500	0.819800
C461	C46	0.301500	0.616800	0.585000
H231	H23	0.320600	0.600100	0.634300
C471	C47	0.448500	0.605000	0.364000
H241	H24	0.440500	0.576500	0.316500
C481	C48	0.433700	0.649400	0.507900
H251	H25	0.414600	0.653400	0.563600
C491	C49	0.420600	0.508500	0.633200
H261	H26	0.444300	0.538300	0.620900
C501	C50	0.426600	0.471000	0.712500
H271	H27	0.453700	0.476800	0.752900
C511	C51	0.282800	0.627700	0.426600
H281	H28	0.287700	0.617400	0.361900
O141	O14	0.170320	0.753800	0.505300
O151	O15	0.573410	0.714820	0.332600
C521	C52	0.357500	0.432800	0.190500
O161	O16	0.328200	0.401700	0.034900
C531	C53	0.395500	0.428300	0.249700
H291	H29	0.421600	0.402200	0.235300
C541	C54	0.396100	0.463600	0.335300
H301	H30	0.421600	0.457300	0.379400
C551	C55	0.323400	0.472000	0.208900
H311	H31	0.296200	0.476100	0.168100
C561	C56	0.328000	0.507400	0.289600
H321	H32	0.303400	0.536800	0.297900
Co31	Co3	0.382280	0.185280	0.533380
Si31	Si3	0.368400	0.945660	0.034490
O171	O17	0.392900	0.149300	0.401800
C571	C57	0.358100	0.106800	0.401800
O181	O18	0.182970	0.776980	0.840700
C581	C58	0.192600	0.777600	0.929000
C591	C59	0.234000	0.818100	0.959600
C601	C60	0.263400	0.845300	0.890700
H331	H33	0.257000	0.837700	0.825700
C611	C61	0.245200	0.831600	0.050200
H341	H34	0.227400	0.813300	0.099900
O191	O19	0.556540	0.735800	0.032700
C621	C62	0.547500	0.775200	0.094600
C631	C63	0.503500	0.816200	0.079500
C641	C64	0.473200	0.810300	0.004400
H351	H35	0.478400	0.779100	0.959800
C651	C65	0.488000	0.854300	0.150400
H361	H36	0.503900	0.853400	0.210100
C661	C66	0.361400	0.994000	0.143900
O201	O20	0.369570	0.160640	0.673700
C671	C67	0.421870	0.892700	0.052000
C681	C68	0.380600	0.996600	0.928700
C691	C69	0.312720	0.897500	0.006200
C701	C70	0.392800	0.075400	0.766500
O211	O21	0.428370	0.101500	0.616900
C711	C71	0.353500	0.081700	0.825000
H371	H37	0.329800	0.111500	0.812500
C721	C72	0.348500	0.042500	0.905900
H381	H38	0.321400	0.048500	0.946400
C731	C73	0.398000	0.114500	0.680200
C741	C74	0.301500	0.883200	0.915000
H391	H39	0.320600	0.899900	0.865700
C751	C75	0.448500	0.895000	0.136000
H401	H40	0.440500	0.923500	0.183500
C761	C76	0.433700	0.850600	0.992100
H411	H41	0.414600	0.846600	0.936400
C771	C77	0.420600	0.991500	0.866800
H421	H42	0.444300	0.961700	0.879100
C781	C78	0.426600	0.029000	0.787500
H431	H43	0.453700	0.023200	0.747100
C791	C79	0.282800	0.872300	0.073400
H441	H44	0.287700	0.882600	0.138100
O221	O22	0.170320	0.746200	0.994700
O231	O23	0.573410	0.785180	0.167400
C801	C80	0.357500	0.067200	0.309500
O241	O24	0.328200	0.098300	0.465100
C811	C81	0.395500	0.071700	0.250300
H451	H45	0.421600	0.097800	0.264700
C821	C82	0.396100	0.036400	0.164700
H461	H46	0.421600	0.042700	0.120600
C831	C83	0.323400	0.028000	0.291100
H471	H47	0.296200	0.023900	0.331900
C841	C84	0.328000	0.992600	0.210400
H481	H48	0.303400	0.963200	0.202100
Co41	Co4	0.117720	0.814720	0.533380
Si41	Si4	0.131600	0.054340	0.034490
O251	O25	0.107100	0.850700	0.401800
C851	C85	0.141900	0.893200	0.401800
O261	O26	0.317030	0.223020	0.840700
C861	C86	0.307400	0.222400	0.929000
C871	C87	0.266000	0.181900	0.959600
C881	C88	0.236600	0.154700	0.890700
H491	H49	0.243000	0.162300	0.825700
C891	C89	0.254800	0.168400	0.050200
H501	H50	0.272600	0.186700	0.099900
O271	O27	0.943460	0.264200	0.032700
C901	C90	0.952500	0.224800	0.094600
C911	C91	0.996500	0.183800	0.079500
C921	C92	0.026800	0.189700	0.004400
H511	H51	0.021600	0.220900	0.959800
C931	C93	0.012000	0.145700	0.150400
H521	H52	0.996100	0.146600	0.210100
C941	C94	0.138600	0.006000	0.143900
O281	O28	0.130430	0.839360	0.673700
C951	C95	0.078130	0.107300	0.052000
C961	C96	0.119400	0.003400	0.928700
C971	C97	0.187280	0.102500	0.006200
C981	C98	0.107200	0.924600	0.766500
O291	O29	0.071630	0.898500	0.616900
C991	C99	0.146500	0.918300	0.825000
H531	H53	0.170200	0.888500	0.812500
C1001	C100	0.151500	0.957500	0.905900
H541	H54	0.178600	0.951500	0.946400
C1011	C101	0.102000	0.885500	0.680200
C1021	C102	0.198500	0.116800	0.915000
H551	H55	0.179400	0.100100	0.865700
C1031	C103	0.051500	0.105000	0.136000
H561	H56	0.059500	0.076500	0.183500
C1041	C104	0.066300	0.149400	0.992100
H571	H57	0.085400	0.153400	0.936400
C1051	C105	0.079400	0.008500	0.866800
H581	H58	0.055700	0.038300	0.879100
C1061	C106	0.073400	0.971000	0.787500
H591	H59	0.046300	0.976800	0.747100
C1071	C107	0.217200	0.127700	0.073400
H601	H60	0.212300	0.117400	0.138100
O301	O30	0.329680	0.253800	0.994700
O311	O31	0.926590	0.214820	0.167400
C1081	C108	0.142500	0.932800	0.309500
O321	O32	0.171800	0.901700	0.465100
C1091	C109	0.104500	0.928300	0.250300
H611	H61	0.078400	0.902200	0.264700
C1101	C110	0.103900	0.963600	0.164700
H621	H62	0.078400	0.957300	0.120600
C1111	C111	0.176600	0.972000	0.291100
H631	H63	0.203800	0.976100	0.331900
C1121	C112	0.172000	0.007400	0.210400
H641	H64	0.196600	0.036800	0.202100
Co51	Co5	0.882280	0.314720	0.033380
Si51	Si5	0.868400	0.554340	0.534490
O331	O33	0.892900	0.350700	0.901800
C1131	C113	0.858100	0.393200	0.901800
O341	O34	0.682970	0.723020	0.340700
C1141	C114	0.692600	0.722400	0.429000
C1151	C115	0.734000	0.681900	0.459600
C1161	C116	0.763400	0.654700	0.390700
H651	H65	0.757000	0.662300	0.325700
C1171	C117	0.745200	0.668400	0.550200
H661	H66	0.727400	0.686700	0.599900
O351	O35	0.056540	0.764200	0.532700
C1181	C118	0.047500	0.724800	0.594600
C1191	C119	0.003500	0.683800	0.579500
C1201	C120	0.973200	0.689700	0.504400
H671	H67	0.978400	0.720900	0.459800
C1211	C121	0.988000	0.645700	0.650400
H681	H68	0.003900	0.646600	0.710100
C1221	C122	0.861400	0.506000	0.643900
O361	O36	0.869570	0.339360	0.173700
C1231	C123	0.921870	0.607300	0.552000
C1241	C124	0.880600	0.503400	0.428700
C1251	C125	0.812720	0.602500	0.506200
C1261	C126	0.892800	0.424600	0.266500
O371	O37	0.928370	0.398500	0.116900
C1271	C127	0.853500	0.418300	0.325000
H691	H69	0.829800	0.388500	0.312500
C1281	C128	0.848500	0.457500	0.405900
H701	H70	0.821400	0.451500	0.446400
C1291	C129	0.898000	0.385500	0.180200
C1301	C130	0.801500	0.616800	0.415000
H711	H71	0.820600	0.600100	0.365700
C1311	C131	0.948500	0.605000	0.636000
H721	H72	0.940500	0.576500	0.683500
C1321	C132	0.933700	0.649400	0.492100
H731	H73	0.914600	0.653400	0.436400
C1331	C133	0.920600	0.508500	0.366800
H741	H74	0.944300	0.538300	0.379100
C1341	C134	0.926600	0.471000	0.287500
H751	H75	0.953700	0.476800	0.247100
C1351	C135	0.782800	0.627700	0.573400
H761	H76	0.787700	0.617400	0.638100
O381	O38	0.670320	0.753800	0.494700
O391	O39	0.073410	0.714820	0.667400
C1361	C136	0.857500	0.432800	0.809500
O401	O40	0.828200	0.401700	0.965100
C1371	C137	0.895500	0.428300	0.750300
H771	H77	0.921600	0.402200	0.764700
C1381	C138	0.896100	0.463600	0.664700
H781	H78	0.921600	0.457300	0.620600
C1391	C139	0.823400	0.472000	0.791100
H791	H79	0.796200	0.476100	0.831900
C1401	C140	0.828000	0.507400	0.710400
H801	H80	0.803400	0.536800	0.702100
Co61	Co6	0.617720	0.685280	0.033380
Si61	Si6	0.631600	0.445660	0.534490
O411	O41	0.607100	0.649300	0.901800
C1411	C141	0.641900	0.606800	0.901800
O421	O42	0.817030	0.276980	0.340700
C1421	C142	0.807400	0.277600	0.429000
C1431	C143	0.766000	0.318100	0.459600
C1441	C144	0.736600	0.345300	0.390700
H811	H81	0.743000	0.337700	0.325700
C1451	C145	0.754800	0.331600	0.550200
H821	H82	0.772600	0.313300	0.599900
O431	O43	0.443460	0.235800	0.532700
C1461	C146	0.452500	0.275200	0.594600
C1471	C147	0.496500	0.316200	0.579500
C1481	C148	0.526800	0.310300	0.504400
H831	H83	0.521600	0.279100	0.459800
C1491	C149	0.512000	0.354300	0.650400
H841	H84	0.496100	0.353400	0.710100
C1501	C150	0.638600	0.494000	0.643900
O441	O44	0.630430	0.660640	0.173700
C1511	C151	0.578130	0.392700	0.552000
C1521	C152	0.619400	0.496600	0.428700
C1531	C153	0.687280	0.397500	0.506200
C1541	C154	0.607200	0.575400	0.266500
O451	O45	0.571630	0.601500	0.116900
C1551	C155	0.646500	0.581700	0.325000
H851	H85	0.670200	0.611500	0.312500
C1561	C156	0.651500	0.542500	0.405900
H861	H86	0.678600	0.548500	0.446400
C1571	C157	0.602000	0.614500	0.180200
C1581	C158	0.698500	0.383200	0.415000
H871	H87	0.679400	0.399900	0.365700
C1591	C159	0.551500	0.395000	0.636000
H881	H88	0.559500	0.423500	0.683500
C1601	C160	0.566300	0.350600	0.492100
H891	H89	0.585400	0.346600	0.436400
C1611	C161	0.579400	0.491500	0.366800
H901	H90	0.555700	0.461700	0.379100
C1621	C162	0.573400	0.529000	0.287500
H911	H91	0.546300	0.523200	0.247100
C1631	C163	0.717200	0.372300	0.573400
H921	H92	0.712300	0.382600	0.638100
O461	O46	0.829680	0.246200	0.494700
O471	O47	0.426590	0.285180	0.667400
C1641	C164	0.642500	0.567200	0.809500
O481	O48	0.671800	0.598300	0.965100
C1651	C165	0.604500	0.571700	0.750300
H931	H93	0.578400	0.597800	0.764700
C1661	C166	0.603900	0.536400	0.664700
H941	H94	0.578400	0.542700	0.620600
C1671	C167	0.676600	0.528000	0.791100
H951	H95	0.703800	0.523900	0.831900
C1681	C168	0.672000	0.492600	0.710400
H961	H96	0.696600	0.463200	0.702100
Co71	Co7	0.617720	0.814720	0.466620
Si71	Si7	0.631600	0.054340	0.965510
O491	O49	0.607100	0.850700	0.598200
C1691	C169	0.641900	0.893200	0.598200
O501	O50	0.817030	0.223020	0.159300
C1701	C170	0.807400	0.222400	0.071000
C1711	C171	0.766000	0.181900	0.040400
C1721	C172	0.736600	0.154700	0.109300
H971	H97	0.743000	0.162300	0.174300
C1731	C173	0.754800	0.168400	0.949800
H981	H98	0.772600	0.186700	0.900100
O511	O51	0.443460	0.264200	0.967300
C1741	C174	0.452500	0.224800	0.905400
C1751	C175	0.496500	0.183800	0.920500
C1761	C176	0.526800	0.189700	0.995600
H991	H99	0.521600	0.220900	0.040200
C1771	C177	0.512000	0.145700	0.849600
H1001	H100	0.496100	0.146600	0.789900
C1781	C178	0.638600	0.006000	0.856100
O521	O52	0.630430	0.839360	0.326300
C1791	C179	0.578130	0.107300	0.948000
C1801	C180	0.619400	0.003400	0.071300
C1811	C181	0.687280	0.102500	0.993800
C1821	C182	0.607200	0.924600	0.233500
O531	O53	0.571630	0.898500	0.383100
C1831	C183	0.646500	0.918300	0.175000
H1011	H101	0.670200	0.888500	0.187500
C1841	C184	0.651500	0.957500	0.094100
H1021	H102	0.678600	0.951500	0.053600
C1851	C185	0.602000	0.885500	0.319800
C1861	C186	0.698500	0.116800	0.085000
H1031	H103	0.679400	0.100100	0.134300
C1871	C187	0.551500	0.105000	0.864000
H1041	H104	0.559500	0.076500	0.816500
C1881	C188	0.566300	0.149400	0.007900
H1051	H105	0.585400	0.153400	0.063600
C1891	C189	0.579400	0.008500	0.133200
H1061	H106	0.555700	0.038300	0.120900
C1901	C190	0.573400	0.971000	0.212500
H1071	H107	0.546300	0.976800	0.252900
C1911	C191	0.717200	0.127700	0.926600
H1081	H108	0.712300	0.117400	0.861900
O541	O54	0.829680	0.253800	0.005300
O551	O55	0.426590	0.214820	0.832600
C1921	C192	0.642500	0.932800	0.690500
O561	O56	0.671800	0.901700	0.534900
C1931	C193	0.604500	0.928300	0.749700
H1091	H109	0.578400	0.902200	0.735300
C1941	C194	0.603900	0.963600	0.835300
H1101	H110	0.578400	0.957300	0.879400
C1951	C195	0.676600	0.972000	0.708900
H1111	H111	0.703800	0.976100	0.668100
C1961	C196	0.672000	0.007400	0.789600
H1121	H112	0.696600	0.036800	0.797900
Co81	Co8	0.882280	0.185280	0.466620
Si81	Si8	0.868400	0.945660	0.965510
O571	O57	0.892900	0.149300	0.598200
C1971	C197	0.858100	0.106800	0.598200
O581	O58	0.682970	0.776980	0.159300
C1981	C198	0.692600	0.777600	0.071000
C1991	C199	0.734000	0.818100	0.040400
C2001	C200	0.763400	0.845300	0.109300
H1131	H113	0.757000	0.837700	0.174300
C2011	C201	0.745200	0.831600	0.949800
H1141	H114	0.727400	0.813300	0.900100
O591	O59	0.056540	0.735800	0.967300
C2021	C202	0.047500	0.775200	0.905400
C2031	C203	0.003500	0.816200	0.920500
C2041	C204	0.973200	0.810300	0.995600
H1151	H115	0.978400	0.779100	0.040200
C2051	C205	0.988000	0.854300	0.849600
H1161	H116	0.003900	0.853400	0.789900
C2061	C206	0.861400	0.994000	0.856100
O601	O60	0.869570	0.160640	0.326300
C2071	C207	0.921870	0.892700	0.948000
C2081	C208	0.880600	0.996600	0.071300
C2091	C209	0.812720	0.897500	0.993800
C2101	C210	0.892800	0.075400	0.233500
O611	O61	0.928370	0.101500	0.383100
C2111	C211	0.853500	0.081700	0.175000
H1171	H117	0.829800	0.111500	0.187500
C2121	C212	0.848500	0.042500	0.094100
H1181	H118	0.821400	0.048500	0.053600
C2131	C213	0.898000	0.114500	0.319800
C2141	C214	0.801500	0.883200	0.085000
H1191	H119	0.820600	0.899900	0.134300
C2151	C215	0.948500	0.895000	0.864000
H1201	H120	0.940500	0.923500	0.816500
C2161	C216	0.933700	0.850600	0.007900
H1211	H121	0.914600	0.846600	0.063600
C2171	C217	0.920600	0.991500	0.133200
H1221	H122	0.944300	0.961700	0.120900
C2181	C218	0.926600	0.029000	0.212500
H1231	H123	0.953700	0.023200	0.252900
C2191	C219	0.782800	0.872300	0.926600
H1241	H124	0.787700	0.882600	0.861900
O621	O62	0.670320	0.746200	0.005300
O631	O63	0.073410	0.785180	0.832600
C2201	C220	0.857500	0.067200	0.690500
O641	O64	0.828200	0.098300	0.534900
C2211	C221	0.895500	0.071700	0.749700
H1251	H125	0.921600	0.097800	0.735300
C2221	C222	0.896100	0.036400	0.835300
H1261	H126	0.921600	0.042700	0.879400
C2231	C223	0.823400	0.028000	0.708900
H1271	H127	0.796200	0.023900	0.668100
C2241	C224	0.828000	0.992600	0.789600
H1281	H128	0.803400	0.963200	0.797900
Co91	Co9	0.128400	0.750000	0.750000
Co101	Co10	0.371600	0.250000	0.750000
Co111	Co11	0.871600	0.250000	0.250000
Co121	Co12	0.628400	0.750000	0.250000
