data_KOJZEP_manual_PM
_symmetry_space_group_name_H-M	'P1'
_cell_length_a	12.261800
_cell_length_b	25.732800
_cell_length_c	25.732800
_cell_angle_alpha	62.473600
_cell_angle_beta	80.860700
_cell_angle_gamma	99.139300
_symmetry_Int_Tables_number 1

loop_
_symmetry_equiv_pos_as_xyz
'x,y,z'

loop_
_atom_site_label
_atom_site_type_symbol
_atom_site_fract_x
_atom_site_fract_y
_atom_site_fract_z
Cu11	Cu1	0.595130	0.540690	0.459310
Cu21	Cu2	0.054440	0.459310	0.000000
Cu31	Cu3	0.054440	0.000000	0.540690
Cu41	Cu4	0.945560	0.000000	0.459310
Cu51	Cu5	0.945560	0.540690	0.000000
Cu61	Cu6	0.404870	0.459310	0.540690
H71	H7	0.483800	0.430850	0.704900
H81	H8	0.791920	0.559830	0.572390
H91	H9	0.188690	0.704900	0.864260
H101	H10	0.365640	0.572630	0.867310
H111	H11	0.052950	0.864250	0.430850
H121	H12	0.232950	0.867310	0.560070
H131	H13	0.811310	0.864260	0.704900
H141	H14	0.635690	0.867780	0.572390
H151	H15	0.947050	0.430850	0.864250
H161	H16	0.767050	0.560070	0.867310
H171	H17	0.516200	0.704900	0.430850
H181	H18	0.206990	0.572630	0.560070
H191	H19	0.516200	0.569150	0.295100
H201	H20	0.206990	0.439930	0.427370
H211	H21	0.811310	0.295100	0.135740
H221	H22	0.635690	0.427610	0.132220
H231	H23	0.947050	0.135750	0.569150
H241	H24	0.767050	0.132690	0.439930
H251	H25	0.188690	0.135740	0.295100
H261	H26	0.365640	0.132690	0.427370
H271	H27	0.052950	0.569150	0.135750
H281	H28	0.232950	0.439930	0.132690
H291	H29	0.483800	0.295100	0.569150
H301	H30	0.793010	0.427370	0.439930
C311	C31	0.632860	0.497070	0.633940
C321	C32	0.572860	0.461430	0.692650
C331	C33	0.615690	0.460270	0.740000
C341	C34	0.723490	0.494570	0.727950
C351	C35	0.784640	0.529790	0.668670
C361	C36	0.738740	0.530500	0.621680
C371	C37	0.583280	0.497310	0.583690
C381	C38	0.560100	0.413900	0.801600
C391	C39	0.266800	0.633940	0.868990
C401	C40	0.265510	0.692650	0.845920
C411	C41	0.355690	0.740000	0.799730
C421	C42	0.451440	0.727950	0.777480
C431	C43	0.453310	0.668670	0.801540
C441	C44	0.360420	0.621680	0.847820
C451	C45	0.166970	0.583690	0.919000
C461	C46	0.361700	0.801600	0.784500
C471	C47	0.135790	0.868990	0.497070
C481	C48	0.111430	0.845920	0.461430
C491	C49	0.155420	0.799730	0.460270
C501	C50	0.228920	0.777480	0.494570
C511	C51	0.254850	0.801540	0.529790
C521	C52	0.208240	0.847820	0.530500
C531	C53	0.085970	0.919000	0.497310
C541	C54	0.146200	0.784500	0.413900
C551	C55	0.733200	0.868990	0.633940
C561	C56	0.734490	0.845920	0.692650
C571	C57	0.644310	0.799730	0.740000
C581	C58	0.548560	0.777480	0.727950
C591	C59	0.546690	0.801540	0.668670
C601	C60	0.639580	0.847820	0.621680
C611	C61	0.833030	0.919000	0.583690
C621	C62	0.638300	0.784500	0.801600
C631	C63	0.864210	0.497070	0.868990
C641	C64	0.888570	0.461430	0.845920
C651	C65	0.844580	0.460270	0.799730
C661	C66	0.771080	0.494570	0.777480
C671	C67	0.745150	0.529790	0.801540
C681	C68	0.791760	0.530500	0.847820
C691	C69	0.914030	0.497310	0.919000
C701	C70	0.853800	0.413900	0.784500
C711	C71	0.367140	0.633940	0.497070
C721	C72	0.427140	0.692650	0.461430
C731	C73	0.384310	0.740000	0.460270
C741	C74	0.276510	0.727950	0.494570
C751	C75	0.215360	0.668670	0.529790
C761	C76	0.261260	0.621680	0.530500
C771	C77	0.416720	0.583690	0.497310
C781	C78	0.439900	0.801600	0.413900
C791	C79	0.367140	0.502930	0.366060
C801	C80	0.427140	0.538570	0.307350
C811	C81	0.384310	0.539730	0.260000
C821	C82	0.276510	0.505430	0.272050
C831	C83	0.215360	0.470210	0.331330
C841	C84	0.261260	0.469500	0.378320
C851	C85	0.416720	0.502690	0.416310
C861	C86	0.439900	0.586100	0.198400
C871	C87	0.733200	0.366060	0.131010
C881	C88	0.734490	0.307350	0.154080
C891	C89	0.644310	0.260000	0.200270
C901	C90	0.548560	0.272050	0.222520
C911	C91	0.546690	0.331330	0.198460
C921	C92	0.639580	0.378320	0.152180
C931	C93	0.833030	0.416310	0.081000
C941	C94	0.638300	0.198400	0.215500
C951	C95	0.864210	0.131010	0.502930
C961	C96	0.888570	0.154080	0.538570
C971	C97	0.844580	0.200270	0.539730
C981	C98	0.771080	0.222520	0.505430
C991	C99	0.745150	0.198460	0.470210
C1001	C100	0.791760	0.152180	0.469500
C1011	C101	0.914030	0.081000	0.502690
C1021	C102	0.853800	0.215500	0.586100
C1031	C103	0.266800	0.131010	0.366060
C1041	C104	0.265510	0.154080	0.307350
C1051	C105	0.355690	0.200270	0.260000
C1061	C106	0.451440	0.222520	0.272050
C1071	C107	0.453310	0.198460	0.331330
C1081	C108	0.360420	0.152180	0.378320
C1091	C109	0.166970	0.081000	0.416310
C1101	C110	0.361700	0.215500	0.198400
C1111	C111	0.135790	0.502930	0.131010
C1121	C112	0.111430	0.538570	0.154080
C1131	C113	0.155420	0.539730	0.200270
C1141	C114	0.228920	0.505430	0.222520
C1151	C115	0.254850	0.470210	0.198460
C1161	C116	0.208240	0.469500	0.152180
C1171	C117	0.085970	0.502690	0.081000
C1181	C118	0.146200	0.586100	0.215500
C1191	C119	0.632860	0.366060	0.502930
C1201	C120	0.572860	0.307350	0.538570
C1211	C121	0.615690	0.260000	0.539730
C1221	C122	0.723490	0.272050	0.505430
C1231	C123	0.784640	0.331330	0.470210
C1241	C124	0.738740	0.378320	0.469500
C1251	C125	0.583280	0.416310	0.502690
C1261	C126	0.560100	0.198400	0.586100
N1271	N127	0.511200	0.378600	0.853000
N1281	N128	0.364200	0.853000	0.768400
N1291	N129	0.132600	0.768400	0.378600
N1301	N130	0.635800	0.768400	0.853000
N1311	N131	0.867400	0.378600	0.768400
N1321	N132	0.488800	0.853000	0.378600
N1331	N133	0.488800	0.621400	0.147000
N1341	N134	0.635800	0.147000	0.231600
N1351	N135	0.867400	0.231600	0.621400
N1361	N136	0.364200	0.231600	0.147000
N1371	N137	0.132600	0.621400	0.231600
N1381	N138	0.511200	0.147000	0.621400
O1391	O139	0.645430	0.531640	0.530930
O1401	O140	0.485170	0.463330	0.599540
O1411	O141	0.176360	0.530930	0.937430
O1421	O142	0.084710	0.599540	0.937130
O1431	O143	0.113790	0.937430	0.531640
O1441	O144	0.021840	0.937130	0.463330
O1451	O145	0.823640	0.937430	0.530930
O1461	O146	0.915290	0.937130	0.599540
O1471	O147	0.886210	0.531640	0.937430
O1481	O148	0.978160	0.463330	0.937130
O1491	O149	0.354570	0.530930	0.531640
O1501	O150	0.514830	0.599540	0.463330
O1511	O151	0.354570	0.468360	0.469070
O1521	O152	0.514830	0.536670	0.400460
O1531	O153	0.823640	0.469070	0.062570
O1541	O154	0.915290	0.400460	0.062870
O1551	O155	0.886210	0.062570	0.468360
O1561	O156	0.978160	0.062870	0.536670
O1571	O157	0.176360	0.062570	0.469070
O1581	O158	0.084710	0.062870	0.400460
O1591	O159	0.113790	0.468360	0.062570
O1601	O160	0.021840	0.536670	0.062870
O1611	O161	0.645430	0.469070	0.468360
O1621	O162	0.485170	0.400460	0.536670
H1631	H163	0.874710	0.559400	0.656400
H1641	H164	0.531110	0.656400	0.784200
H1651	H165	0.315310	0.784200	0.559400
H1661	H166	0.468890	0.784200	0.656400
H1671	H167	0.684690	0.559400	0.784200
H1681	H168	0.125290	0.656400	0.559400
H1691	H169	0.125290	0.440600	0.343600
H1701	H170	0.468890	0.343600	0.215800
H1711	H171	0.684690	0.215800	0.440600
H1721	H172	0.531110	0.215800	0.343600
H1731	H173	0.315310	0.440600	0.215800
H1741	H174	0.874710	0.343600	0.440600
