data_KOKSIO_clean_PM
_symmetry_space_group_name_H-M	'P1'
_cell_length_a	7.825600
_cell_length_b	22.331000
_cell_length_c	8.997600
_cell_angle_alpha	90.000000
_cell_angle_beta	110.040000
_cell_angle_gamma	90.000000
_symmetry_Int_Tables_number 1

loop_
_symmetry_equiv_pos_as_xyz
'x,y,z'

loop_
_atom_site_label
_atom_site_type_symbol
_atom_site_fract_x
_atom_site_fract_y
_atom_site_fract_z
Cu11	Cu1	0.447200	0.132110	0.838840
O11	O1	0.307200	0.199500	0.200400
N11	N1	0.595800	0.198800	0.969500
N21	N2	0.765800	0.293300	0.164600
N31	N3	0.310900	0.142100	0.984400
N41	N4	0.325500	0.943000	0.236100
C11	C1	0.737800	0.225500	0.951000
H11	H1	0.783900	0.212000	0.872000
C21	C2	0.820600	0.274200	0.048300
H21	H2	0.919100	0.294000	0.030400
C31	C3	0.620800	0.264700	0.183100
H31	H3	0.577100	0.277400	0.264400
C41	C4	0.535100	0.217400	0.085200
C51	C5	0.370700	0.184800	0.093200
C61	C6	0.151200	0.107800	0.980100
H41	H4	0.077400	0.098700	0.868900
H51	H5	0.075700	0.132000	0.026200
C71	C7	0.205800	0.049700	0.072100
C81	C8	0.136000	0.995500	0.005900
H61	H6	0.042500	0.993900	0.905300
C91	C9	0.204400	0.942900	0.088400
H71	H7	0.163800	0.905600	0.038100
C101	C10	0.387200	0.996400	0.300100
H81	H8	0.474700	0.997200	0.403900
C111	C11	0.331000	0.050300	0.223900
H91	H9	0.377500	0.087100	0.274800
Cu21	Cu2	0.447200	0.867890	0.338840
O21	O2	0.307200	0.800500	0.700400
N51	N5	0.595800	0.801200	0.469500
N61	N6	0.765800	0.706700	0.664600
N71	N7	0.310900	0.857900	0.484400
N81	N8	0.325500	0.057000	0.736100
C121	C12	0.737800	0.774500	0.451000
H101	H10	0.783900	0.788000	0.372000
C131	C13	0.820600	0.725800	0.548300
H111	H11	0.919100	0.706000	0.530400
C141	C14	0.620800	0.735300	0.683100
H121	H12	0.577100	0.722600	0.764400
C151	C15	0.535100	0.782600	0.585200
C161	C16	0.370700	0.815200	0.593200
C171	C17	0.151200	0.892200	0.480100
H131	H13	0.077400	0.901300	0.368900
H141	H14	0.075700	0.868000	0.526200
C181	C18	0.205800	0.950300	0.572100
C191	C19	0.136000	0.004500	0.505900
H151	H15	0.042500	0.006100	0.405300
C201	C20	0.204400	0.057100	0.588400
H161	H16	0.163800	0.094400	0.538100
C211	C21	0.387200	0.003600	0.800100
H171	H17	0.474700	0.002800	0.903900
C221	C22	0.331000	0.949700	0.723900
H181	H18	0.377500	0.912900	0.774800
Cu31	Cu3	0.947200	0.632110	0.838840
O31	O3	0.807200	0.699500	0.200400
N91	N9	0.095800	0.698800	0.969500
N101	N10	0.265800	0.793300	0.164600
N111	N11	0.810900	0.642100	0.984400
N121	N12	0.825500	0.443000	0.236100
C231	C23	0.237800	0.725500	0.951000
H191	H19	0.283900	0.712000	0.872000
C241	C24	0.320600	0.774200	0.048300
H201	H20	0.419100	0.794000	0.030400
C251	C25	0.120800	0.764700	0.183100
H211	H21	0.077100	0.777400	0.264400
C261	C26	0.035100	0.717400	0.085200
C271	C27	0.870700	0.684800	0.093200
C281	C28	0.651200	0.607800	0.980100
H221	H22	0.577400	0.598700	0.868900
H231	H23	0.575700	0.632000	0.026200
C291	C29	0.705800	0.549700	0.072100
C301	C30	0.636000	0.495500	0.005900
H241	H24	0.542500	0.493900	0.905300
C311	C31	0.704400	0.442900	0.088400
H251	H25	0.663800	0.405600	0.038100
C321	C32	0.887200	0.496400	0.300100
H261	H26	0.974700	0.497200	0.403900
C331	C33	0.831000	0.550300	0.223900
H271	H27	0.877500	0.587100	0.274800
Cu41	Cu4	0.947200	0.367890	0.338840
O41	O4	0.807200	0.300500	0.700400
N131	N13	0.095800	0.301200	0.469500
N141	N14	0.265800	0.206700	0.664600
N151	N15	0.810900	0.357900	0.484400
N161	N16	0.825500	0.557000	0.736100
C341	C34	0.237800	0.274500	0.451000
H281	H28	0.283900	0.288000	0.372000
C351	C35	0.320600	0.225800	0.548300
H291	H29	0.419100	0.206000	0.530400
C361	C36	0.120800	0.235300	0.683100
H301	H30	0.077100	0.222600	0.764400
C371	C37	0.035100	0.282600	0.585200
C381	C38	0.870700	0.315200	0.593200
C391	C39	0.651200	0.392200	0.480100
H311	H31	0.577400	0.401300	0.368900
H321	H32	0.575700	0.368000	0.526200
C401	C40	0.705800	0.450300	0.572100
C411	C41	0.636000	0.504500	0.505900
H331	H33	0.542500	0.506100	0.405300
C421	C42	0.704400	0.557100	0.588400
H341	H34	0.663800	0.594400	0.538100
C431	C43	0.887200	0.503600	0.800100
H351	H35	0.974700	0.502800	0.903900
C441	C44	0.831000	0.449700	0.723900
H361	H36	0.877500	0.412900	0.774800
