data_KOMVIT_clean_PM
_symmetry_space_group_name_H-M	'P1'
_cell_length_a	10.120000
_cell_length_b	21.934000
_cell_length_c	15.818000
_cell_angle_alpha	90.000000
_cell_angle_beta	105.430000
_cell_angle_gamma	90.000000
_symmetry_Int_Tables_number 1

loop_
_symmetry_equiv_pos_as_xyz
'x,y,z'

loop_
_atom_site_label
_atom_site_type_symbol
_atom_site_fract_x
_atom_site_fract_y
_atom_site_fract_z
C11	C1	0.822300	0.245300	0.381200
C21	C2	0.936200	0.284200	0.417600
C31	C3	0.069000	0.257700	0.431800
H11	H1	0.145900	0.281000	0.457800
C41	C4	0.086100	0.199100	0.408100
H21	H2	0.174300	0.183500	0.417800
C51	C5	0.975200	0.162300	0.370100
C61	C6	0.841300	0.186500	0.357300
H31	H3	0.765600	0.162300	0.332400
C71	C7	0.681400	0.273700	0.370400
H41	H4	0.670900	0.283700	0.428000
H51	H5	0.676800	0.311500	0.337900
C81	C8	0.435400	0.267200	0.317500
H61	H6	0.438300	0.306600	0.290100
H71	H7	0.423500	0.274100	0.375600
C91	C9	0.315600	0.230700	0.263600
H81	H8	0.299800	0.195900	0.297400
H91	H9	0.337700	0.215500	0.211400
N11	N1	0.566300	0.234500	0.324900
O11	O1	0.921100	0.341000	0.436700
O21	O2	0.101600	0.089700	0.288100
O31	O3	0.056900	0.054000	0.421100
O41	O4	0.871000	0.062900	0.289900
S11	S1	0.002350	0.087530	0.340220
K11	K1	0.838620	0.967620	0.403700
H101	H10	0.561000	0.198200	0.342000
H111	H11	0.811000	0.082000	0.526000
C101	C10	0.322300	0.745300	0.881200
C111	C11	0.436200	0.784200	0.917600
C121	C12	0.569000	0.757700	0.931800
H121	H12	0.645900	0.781000	0.957800
C131	C13	0.586100	0.699100	0.908100
H131	H13	0.674300	0.683500	0.917800
C141	C14	0.475200	0.662300	0.870100
C151	C15	0.341300	0.686500	0.857300
H141	H14	0.265600	0.662300	0.832400
C161	C16	0.181400	0.773700	0.870400
H151	H15	0.170900	0.783700	0.928000
H161	H16	0.176800	0.811500	0.837900
C171	C17	0.935400	0.767200	0.817500
H171	H17	0.938300	0.806600	0.790100
H181	H18	0.923500	0.774100	0.875600
C181	C18	0.815600	0.730700	0.763600
H191	H19	0.799800	0.695900	0.797400
H201	H20	0.837700	0.715500	0.711400
N21	N2	0.066300	0.734500	0.824900
O51	O5	0.421100	0.841000	0.936700
O61	O6	0.601600	0.589700	0.788100
O71	O7	0.556900	0.554000	0.921100
O81	O8	0.371000	0.562900	0.789900
S21	S2	0.502350	0.587530	0.840220
K21	K2	0.338620	0.467620	0.903700
H211	H21	0.061000	0.698200	0.842000
H221	H22	0.311000	0.582000	0.026000
C191	C19	0.677700	0.245300	0.618800
C201	C20	0.563800	0.284200	0.582400
C211	C21	0.431000	0.257700	0.568200
H231	H23	0.354100	0.281000	0.542200
C221	C22	0.413900	0.199100	0.591900
H241	H24	0.325700	0.183500	0.582200
C231	C23	0.524800	0.162300	0.629900
C241	C24	0.658700	0.186500	0.642700
H251	H25	0.734400	0.162300	0.667600
C251	C25	0.818600	0.273700	0.629600
H261	H26	0.829100	0.283700	0.572000
H271	H27	0.823200	0.311500	0.662100
C261	C26	0.064600	0.267200	0.682500
H281	H28	0.061700	0.306600	0.709900
H291	H29	0.076500	0.274100	0.624400
C271	C27	0.184400	0.230700	0.736400
H301	H30	0.200200	0.195900	0.702600
H311	H31	0.162300	0.215500	0.788600
N31	N3	0.933700	0.234500	0.675100
O91	O9	0.578900	0.341000	0.563300
O101	O10	0.398400	0.089700	0.711900
O111	O11	0.443100	0.054000	0.578900
O121	O12	0.629000	0.062900	0.710100
S31	S3	0.497650	0.087530	0.659780
K31	K3	0.661380	0.967620	0.596300
H321	H32	0.939000	0.198200	0.658000
H331	H33	0.689000	0.082000	0.474000
C281	C28	0.177700	0.745300	0.118800
C291	C29	0.063800	0.784200	0.082400
C301	C30	0.931000	0.757700	0.068200
H341	H34	0.854100	0.781000	0.042200
C311	C31	0.913900	0.699100	0.091900
H351	H35	0.825700	0.683500	0.082200
C321	C32	0.024800	0.662300	0.129900
C331	C33	0.158700	0.686500	0.142700
H361	H36	0.234400	0.662300	0.167600
C341	C34	0.318600	0.773700	0.129600
H371	H37	0.329100	0.783700	0.072000
H381	H38	0.323200	0.811500	0.162100
C351	C35	0.564600	0.767200	0.182500
H391	H39	0.561700	0.806600	0.209900
H401	H40	0.576500	0.774100	0.124400
C361	C36	0.684400	0.730700	0.236400
H411	H41	0.700200	0.695900	0.202600
H421	H42	0.662300	0.715500	0.288600
N41	N4	0.433700	0.734500	0.175100
O131	O13	0.078900	0.841000	0.063300
O141	O14	0.898400	0.589700	0.211900
O151	O15	0.943100	0.554000	0.078900
O161	O16	0.129000	0.562900	0.210100
S41	S4	0.997650	0.587530	0.159780
K41	K4	0.161380	0.467620	0.096300
H431	H43	0.439000	0.698200	0.158000
H441	H44	0.189000	0.582000	0.974000
C371	C37	0.177700	0.754700	0.618800
C381	C38	0.063800	0.715800	0.582400
C391	C39	0.931000	0.742300	0.568200
H451	H45	0.854100	0.719000	0.542200
C401	C40	0.913900	0.800900	0.591900
H461	H46	0.825700	0.816500	0.582200
C411	C41	0.024800	0.837700	0.629900
C421	C42	0.158700	0.813500	0.642700
H471	H47	0.234400	0.837700	0.667600
C431	C43	0.318600	0.726300	0.629600
H481	H48	0.329100	0.716300	0.572000
H491	H49	0.323200	0.688500	0.662100
C441	C44	0.564600	0.732800	0.682500
H501	H50	0.561700	0.693400	0.709900
H511	H51	0.576500	0.725900	0.624400
C451	C45	0.684400	0.769300	0.736400
H521	H52	0.700200	0.804100	0.702600
H531	H53	0.662300	0.784500	0.788600
N51	N5	0.433700	0.765500	0.675100
O171	O17	0.078900	0.659000	0.563300
O181	O18	0.898400	0.910300	0.711900
O191	O19	0.943100	0.946000	0.578900
O201	O20	0.129000	0.937100	0.710100
S51	S5	0.997650	0.912470	0.659780
K51	K5	0.161380	0.032380	0.596300
H541	H54	0.439000	0.801800	0.658000
H551	H55	0.189000	0.918000	0.474000
C461	C46	0.677700	0.254700	0.118800
C471	C47	0.563800	0.215800	0.082400
C481	C48	0.431000	0.242300	0.068200
H561	H56	0.354100	0.219000	0.042200
C491	C49	0.413900	0.300900	0.091900
H571	H57	0.325700	0.316500	0.082200
C501	C50	0.524800	0.337700	0.129900
C511	C51	0.658700	0.313500	0.142700
H581	H58	0.734400	0.337700	0.167600
C521	C52	0.818600	0.226300	0.129600
H591	H59	0.829100	0.216300	0.072000
H601	H60	0.823200	0.188500	0.162100
C531	C53	0.064600	0.232800	0.182500
H611	H61	0.061700	0.193400	0.209900
H621	H62	0.076500	0.225900	0.124400
C541	C54	0.184400	0.269300	0.236400
H631	H63	0.200200	0.304100	0.202600
H641	H64	0.162300	0.284500	0.288600
N61	N6	0.933700	0.265500	0.175100
O211	O21	0.578900	0.159000	0.063300
O221	O22	0.398400	0.410300	0.211900
O231	O23	0.443100	0.446000	0.078900
O241	O24	0.629000	0.437100	0.210100
S61	S6	0.497650	0.412470	0.159780
K61	K6	0.661380	0.532380	0.096300
H651	H65	0.939000	0.301800	0.158000
H661	H66	0.689000	0.418000	0.974000
C551	C55	0.322300	0.754700	0.381200
C561	C56	0.436200	0.715800	0.417600
C571	C57	0.569000	0.742300	0.431800
H671	H67	0.645900	0.719000	0.457800
C581	C58	0.586100	0.800900	0.408100
H681	H68	0.674300	0.816500	0.417800
C591	C59	0.475200	0.837700	0.370100
C601	C60	0.341300	0.813500	0.357300
H691	H69	0.265600	0.837700	0.332400
C611	C61	0.181400	0.726300	0.370400
H701	H70	0.170900	0.716300	0.428000
H711	H71	0.176800	0.688500	0.337900
C621	C62	0.935400	0.732800	0.317500
H721	H72	0.938300	0.693400	0.290100
H731	H73	0.923500	0.725900	0.375600
C631	C63	0.815600	0.769300	0.263600
H741	H74	0.799800	0.804100	0.297400
H751	H75	0.837700	0.784500	0.211400
N71	N7	0.066300	0.765500	0.324900
O251	O25	0.421100	0.659000	0.436700
O261	O26	0.601600	0.910300	0.288100
O271	O27	0.556900	0.946000	0.421100
O281	O28	0.371000	0.937100	0.289900
S71	S7	0.502350	0.912470	0.340220
K71	K7	0.338620	0.032380	0.403700
H761	H76	0.061000	0.801800	0.342000
H771	H77	0.311000	0.918000	0.526000
C641	C64	0.822300	0.254700	0.881200
C651	C65	0.936200	0.215800	0.917600
C661	C66	0.069000	0.242300	0.931800
H781	H78	0.145900	0.219000	0.957800
C671	C67	0.086100	0.300900	0.908100
H791	H79	0.174300	0.316500	0.917800
C681	C68	0.975200	0.337700	0.870100
C691	C69	0.841300	0.313500	0.857300
H801	H80	0.765600	0.337700	0.832400
C701	C70	0.681400	0.226300	0.870400
H811	H81	0.670900	0.216300	0.928000
H821	H82	0.676800	0.188500	0.837900
C711	C71	0.435400	0.232800	0.817500
H831	H83	0.438300	0.193400	0.790100
H841	H84	0.423500	0.225900	0.875600
C721	C72	0.315600	0.269300	0.763600
H851	H85	0.299800	0.304100	0.797400
H861	H86	0.337700	0.284500	0.711400
N81	N8	0.566300	0.265500	0.824900
O291	O29	0.921100	0.159000	0.936700
O301	O30	0.101600	0.410300	0.788100
O311	O31	0.056900	0.446000	0.921100
O321	O32	0.871000	0.437100	0.789900
S81	S8	0.002350	0.412470	0.840220
K81	K8	0.838620	0.532380	0.903700
H871	H87	0.561000	0.301800	0.842000
H881	H88	0.811000	0.418000	0.026000
O331	O33	0.750000	0.057400	0.500000
O341	O34	0.250000	0.557400	0.000000
O351	O35	0.250000	0.942600	0.500000
O361	O36	0.750000	0.442600	0.000000
