data_KONCIA_clean_PM
_symmetry_space_group_name_H-M	'P1'
_cell_length_a	9.163100
_cell_length_b	9.163100
_cell_length_c	14.821300
_cell_angle_alpha	100.019000
_cell_angle_beta	100.020000
_cell_angle_gamma	115.923000
_symmetry_Int_Tables_number 1

loop_
_symmetry_equiv_pos_as_xyz
'x,y,z'

loop_
_atom_site_label
_atom_site_type_symbol
_atom_site_fract_x
_atom_site_fract_y
_atom_site_fract_z
Pr11	Pr1	0.240540	0.490540	0.981080
Pr21	Pr2	0.009460	0.259460	0.518920
Pr31	Pr3	0.759460	0.509460	0.018920
Pr41	Pr4	0.990540	0.740540	0.481080
H11	H1	0.658500	0.061900	0.969600
H21	H2	0.636700	0.021700	0.859800
H31	H3	0.811100	0.907700	0.969600
H41	H4	0.723100	0.838100	0.859800
H51	H5	0.438100	0.841500	0.530400
H61	H6	0.478300	0.863300	0.640200
H71	H7	0.592300	0.688900	0.530400
H81	H8	0.661900	0.776900	0.640200
H91	H9	0.341500	0.938100	0.030400
H101	H10	0.363300	0.978300	0.140200
H111	H11	0.188900	0.092300	0.030400
H121	H12	0.276900	0.161900	0.140200
H131	H13	0.561900	0.158500	0.469600
H141	H14	0.521700	0.136700	0.359800
H151	H15	0.407700	0.311100	0.469600
H161	H16	0.338100	0.223100	0.359800
C11	C1	0.876370	0.193170	0.937540
C21	C2	0.709800	0.038600	0.921000
C31	C3	0.561170	0.744370	0.937540
C41	C4	0.711200	0.882400	0.921000
C51	C5	0.306830	0.623630	0.562460
C61	C6	0.461400	0.790200	0.579000
C71	C7	0.755630	0.938830	0.562460
C81	C8	0.617600	0.788800	0.579000
C91	C9	0.123630	0.806830	0.062460
C101	C10	0.290200	0.961400	0.079000
C111	C11	0.438830	0.255630	0.062460
C121	C12	0.288800	0.117600	0.079000
C131	C13	0.693170	0.376370	0.437540
C141	C14	0.538600	0.209800	0.421000
C151	C15	0.244370	0.061170	0.437540
C161	C16	0.382400	0.211200	0.421000
C171	C17	0.175100	0.324900	0.750000
C181	C18	0.074900	0.425100	0.750000
C191	C19	0.824900	0.675100	0.250000
C201	C20	0.925100	0.574900	0.250000
O11	O1	0.001310	0.182190	0.920300
O21	O2	0.262020	0.339660	0.829480
O31	O3	0.885130	0.334390	0.967120
O41	O4	0.418990	0.738110	0.920300
O51	O5	0.067460	0.489820	0.829480
O61	O6	0.581990	0.632730	0.967120
O71	O7	0.317810	0.498690	0.579700
O81	O8	0.160340	0.237980	0.670520
O91	O9	0.165610	0.614870	0.532880
O101	O10	0.761890	0.081010	0.579700
O111	O11	0.010180	0.432540	0.670520
O121	O12	0.867270	0.918010	0.532880
O131	O13	0.998690	0.817810	0.079700
O141	O14	0.737980	0.660340	0.170520
O151	O15	0.114870	0.665610	0.032880
O161	O16	0.581010	0.261890	0.079700
O171	O17	0.932540	0.510180	0.170520
O181	O18	0.418010	0.367270	0.032880
O191	O19	0.682190	0.501310	0.420300
O201	O20	0.839660	0.762020	0.329480
O211	O21	0.834390	0.385130	0.467120
O221	O22	0.238110	0.918990	0.420300
O231	O23	0.989820	0.567460	0.329480
O241	O24	0.132730	0.081990	0.467120
