data_KONFIE_clean_PM
_symmetry_space_group_name_H-M	'P1'
_cell_length_a	6.975000
_cell_length_b	12.901000
_cell_length_c	13.551000
_cell_angle_alpha	90.000000
_cell_angle_beta	100.729000
_cell_angle_gamma	90.000000
_symmetry_Int_Tables_number 1

loop_
_symmetry_equiv_pos_as_xyz
'x,y,z'

loop_
_atom_site_label
_atom_site_type_symbol
_atom_site_fract_x
_atom_site_fract_y
_atom_site_fract_z
Ce11	Ce1	0.206630	0.960120	0.041230
Ce21	Ce2	0.414720	0.037650	0.558640
S11	S1	0.741700	0.941400	0.811700
S21	S2	0.367100	0.708200	0.201000
S31	S3	0.403100	0.692600	0.947700
O11	O1	0.346000	0.004300	0.890400
O21	O2	0.360300	0.005500	0.729900
O31	O3	0.078000	0.092800	0.573000
O41	O4	0.757000	0.088700	0.535300
O51	O5	0.259600	0.028900	0.214800
O61	O6	0.329000	0.024900	0.379900
O71	O7	0.585000	0.888000	0.507500
O81	O8	0.615000	0.717200	0.509400
O91	O9	0.578000	0.972700	0.097000
O101	O10	0.887400	0.941100	0.091800
O111	O11	0.073000	0.780100	0.005200
O121	O12	0.000000	0.615400	0.008900
N11	N1	0.975000	0.952500	0.849600
N21	N2	0.731000	0.989300	0.700200
N31	N3	0.314000	0.832100	0.198800
N41	N4	0.463000	0.701700	0.315400
N51	N5	0.453000	0.806300	0.994900
N61	N6	0.625000	0.656400	0.953800
C11	C1	0.045000	0.986900	0.773900
C21	C2	0.909000	0.013700	0.689300
C31	C3	0.262000	0.002000	0.797300
C41	C4	0.928000	0.069100	0.592800
C51	C5	0.373000	0.871500	0.287300
C61	C6	0.459000	0.795500	0.357800
C71	C7	0.323000	0.980600	0.296700
C81	C8	0.557000	0.800400	0.465900
C91	C9	0.644000	0.820100	0.015600
C101	C10	0.746000	0.733100	0.992400
C111	C11	0.713000	0.920100	0.072100
C121	C12	0.959000	0.711300	0.005800
Ce31	Ce3	0.793370	0.460120	0.958770
Ce41	Ce4	0.585280	0.537650	0.441360
S41	S4	0.258300	0.441400	0.188300
S51	S5	0.632900	0.208200	0.799000
S61	S6	0.596900	0.192600	0.052300
O131	O13	0.654000	0.504300	0.109600
O141	O14	0.639700	0.505500	0.270100
O151	O15	0.922000	0.592800	0.427000
O161	O16	0.243000	0.588700	0.464700
O171	O17	0.740400	0.528900	0.785200
O181	O18	0.671000	0.524900	0.620100
O191	O19	0.415000	0.388000	0.492500
O201	O20	0.385000	0.217200	0.490600
O211	O21	0.422000	0.472700	0.903000
O221	O22	0.112600	0.441100	0.908200
O231	O23	0.927000	0.280100	0.994800
O241	O24	0.000000	0.115400	0.991100
N71	N7	0.025000	0.452500	0.150400
N81	N8	0.269000	0.489300	0.299800
N91	N9	0.686000	0.332100	0.801200
N101	N10	0.537000	0.201700	0.684600
N111	N11	0.547000	0.306300	0.005100
N121	N12	0.375000	0.156400	0.046200
C131	C13	0.955000	0.486900	0.226100
C141	C14	0.091000	0.513700	0.310700
C151	C15	0.738000	0.502000	0.202700
C161	C16	0.072000	0.569100	0.407200
C171	C17	0.627000	0.371500	0.712700
C181	C18	0.541000	0.295500	0.642200
C191	C19	0.677000	0.480600	0.703300
C201	C20	0.443000	0.300400	0.534100
C211	C21	0.356000	0.320100	0.984400
C221	C22	0.254000	0.233100	0.007600
C231	C23	0.287000	0.420100	0.927900
C241	C24	0.041000	0.211300	0.994200
