data_KORNAI_clean_PM
_symmetry_space_group_name_H-M	'P1'
_cell_length_a	12.177200
_cell_length_b	15.531400
_cell_length_c	15.826700
_cell_angle_alpha	76.019000
_cell_angle_beta	67.570000
_cell_angle_gamma	69.196000
_symmetry_Int_Tables_number 1

loop_
_symmetry_equiv_pos_as_xyz
'x,y,z'

loop_
_atom_site_label
_atom_site_type_symbol
_atom_site_fract_x
_atom_site_fract_y
_atom_site_fract_z
Co11	Co1	0.235100	0.679610	0.031050
Co21	Co2	0.045360	0.035580	0.215740
Co31	Co3	0.048970	0.633560	0.260760
Co41	Co4	0.764900	0.320390	0.968950
Co51	Co5	0.951030	0.366440	0.739240
Co61	Co6	0.954640	0.964420	0.784260
Co71	Co7	0.437550	0.663820	0.810360
Co81	Co8	0.562450	0.336180	0.189640
H11	H1	0.905800	0.166100	0.459100
H21	H2	0.233500	0.834500	0.720700
H31	H3	0.729200	0.974200	0.551900
H41	H4	0.367700	0.084700	0.913700
H51	H5	0.167300	0.200900	0.456900
H61	H6	0.832700	0.799100	0.543100
H71	H7	0.295900	0.859200	0.213400
H81	H8	0.010600	0.157800	0.687400
H91	H9	0.067400	0.558300	0.685900
H101	H10	0.967600	0.673600	0.957100
H111	H11	0.982900	0.147200	0.030400
H121	H12	0.182200	0.898000	0.060900
H131	H13	0.257800	0.431500	0.296300
H141	H14	0.817800	0.102000	0.939100
H151	H15	0.744300	0.538100	0.957300
H161	H16	0.649400	0.837200	0.857300
H171	H17	0.270800	0.025800	0.448100
H181	H18	0.350600	0.162800	0.142700
H191	H19	0.801100	0.224800	0.599400
H201	H20	0.932600	0.452600	0.456300
H211	H21	0.632300	0.915300	0.086300
H221	H22	0.742200	0.568500	0.703700
H231	H23	0.255700	0.461900	0.042700
H241	H24	0.032400	0.326400	0.042900
H251	H25	0.586000	0.233300	0.899300
H261	H26	0.094200	0.833900	0.540900
H271	H27	0.414000	0.766700	0.100700
H281	H28	0.368800	0.766000	0.258200
H291	H29	0.067400	0.547400	0.543700
H301	H30	0.921700	0.751200	0.809200
H311	H31	0.808100	0.527200	0.190300
H321	H32	0.766500	0.165500	0.279300
H331	H33	0.968900	0.342500	0.198200
H341	H34	0.078300	0.248800	0.190800
H351	H35	0.359800	0.976700	0.306400
H361	H36	0.631200	0.234000	0.741800
H371	H37	0.640200	0.023300	0.693600
H381	H38	0.989400	0.842200	0.312600
H391	H39	0.120500	0.029100	0.675900
H401	H40	0.932600	0.441700	0.314100
H411	H41	0.031100	0.657500	0.801800
H421	H42	0.165400	0.188900	0.317000
H431	H43	0.191900	0.472800	0.809700
H441	H44	0.017100	0.852800	0.969600
H451	H45	0.198900	0.775200	0.400600
H461	H46	0.834600	0.811100	0.683000
H471	H47	0.472300	0.522300	0.070000
H481	H48	0.527700	0.477700	0.930000
H491	H49	0.704100	0.140800	0.786600
H501	H50	0.879500	0.970900	0.324100
C11	C1	0.849800	0.138300	0.505600
C21	C2	0.980000	0.391700	0.343500
C31	C3	0.115100	0.969400	0.601900
C41	C4	0.238300	0.078900	0.088100
C51	C5	0.084900	0.363400	0.011600
C61	C6	0.032900	0.373500	0.871300
C71	C7	0.235100	0.478700	0.919500
C81	C8	0.474500	0.205200	0.027700
C91	C9	0.953400	0.686300	0.699100
C101	C10	0.046600	0.313700	0.300900
C111	C11	0.150200	0.861700	0.494400
C121	C12	0.020000	0.608300	0.656500
C131	C13	0.604600	0.885400	0.057600
C141	C14	0.144300	0.387100	0.056900
C151	C15	0.085600	0.834700	0.918100
C161	C16	0.827800	0.062800	0.490700
C171	C17	0.526400	0.202800	0.933800
C181	C18	0.287400	0.467500	0.241500
C191	C19	0.521600	0.255900	0.068500
C201	C20	0.782700	0.555000	0.988900
C211	C21	0.616100	0.837500	0.920800
C221	C22	0.949100	0.667800	0.434700
C231	C23	0.489300	0.154400	0.890800
C241	C24	0.896300	0.605200	0.080800
C251	C25	0.914400	0.165300	0.081900
C261	C26	0.764900	0.521300	0.080500
C271	C27	0.787800	0.172800	0.590200
C281	C28	0.143300	0.866200	0.115600
C291	C29	0.038800	0.836300	0.251500
C301	C30	0.019800	0.601000	0.571800
C311	C31	0.690500	0.054500	0.645700
C321	C32	0.179100	0.452300	0.872000
C331	C33	0.712600	0.532500	0.758500
C341	C34	0.949700	0.688000	0.795100
C351	C35	0.647500	0.167200	0.751100
C361	C36	0.291800	0.868600	0.340300
C371	C37	0.856700	0.133800	0.884400
C381	C38	0.691800	0.453800	0.126400
C391	C39	0.050900	0.332200	0.565300
C401	C40	0.882600	0.757200	0.655600
C411	C41	0.383900	0.162500	0.079200
C421	C42	0.597900	0.483300	0.880200
C431	C43	0.746900	0.023900	0.561400
C441	C44	0.118400	0.250200	0.428000
C451	C45	0.525500	0.794800	0.972300
C461	C46	0.510700	0.845600	0.109200
C471	C47	0.352500	0.832800	0.248900
C481	C48	0.201400	0.825200	0.784700
C491	C49	0.103700	0.394800	0.919200
C501	C50	0.309500	0.945500	0.354300
C511	C51	0.172200	0.937200	0.509300
C521	C52	0.881600	0.749800	0.572000
C531	C53	0.308200	0.546200	0.873600
C541	C54	0.884900	0.030600	0.398100
C551	C55	0.253100	0.976100	0.438600
C561	C56	0.050300	0.312000	0.204900
C571	C57	0.708200	0.131400	0.659700
C581	C58	0.761700	0.921100	0.911900
C591	C59	0.342700	0.118500	0.034900
C601	C60	0.980200	0.399000	0.428200
C611	C61	0.395400	0.114600	0.942400
C621	C62	0.217300	0.445000	0.011100
C631	C63	0.657300	0.881500	0.965100
C641	C64	0.212200	0.827200	0.409800
C651	C65	0.820900	0.547700	0.128000
C661	C66	0.050700	0.327000	0.470000
C671	C67	0.798600	0.174800	0.215300
C681	C68	0.961200	0.163700	0.748500
C691	C69	0.967100	0.626500	0.128700
C701	C70	0.402100	0.516700	0.119800
C711	C71	0.478400	0.744100	0.931500
C721	C72	0.473600	0.797200	0.066200
C731	C73	0.117400	0.242800	0.344400
C741	C74	0.949300	0.673000	0.530000
C751	C75	0.915100	0.636600	0.988400
C761	C76	0.855700	0.612900	0.943100
N11	N1	0.087800	0.871200	0.831300
N21	N2	0.813900	0.226700	0.076800
N31	N3	0.735600	0.233700	0.165400
N41	N4	0.922200	0.095600	0.806900
N51	N5	0.216500	0.542300	0.209400
N61	N6	0.912200	0.128800	0.168700
N71	N7	0.264400	0.766300	0.834600
N81	N8	0.783500	0.457700	0.790600
N91	N9	0.147600	0.779100	0.123800
N101	N10	0.404400	0.447700	0.189400
N111	N11	0.077800	0.904400	0.193100
N121	N12	0.595600	0.552300	0.810600
N131	N13	0.852400	0.220900	0.876200
N141	N14	0.706800	0.425500	0.871500
N151	N15	0.186100	0.773300	0.923200
N161	N16	0.293200	0.574500	0.128500
N171	N17	0.077300	0.759100	0.213900
N181	N18	0.922700	0.240900	0.786100
O11	O1	0.804000	0.922500	0.825000
O21	O2	0.190300	0.050400	0.046900
O31	O3	0.061300	0.651400	0.080600
O41	O4	0.041800	0.607100	0.389100
O51	O5	0.070200	0.384100	0.784300
O61	O6	0.651700	0.437200	0.211300
O71	O7	0.958200	0.392900	0.610900
O81	O8	0.196000	0.077500	0.175000
O91	O9	0.538400	0.146000	0.800000
O101	O10	0.590100	0.303300	0.015300
O111	O11	0.977800	0.054900	0.345800
O121	O12	0.868000	0.721100	0.405300
O131	O13	0.136600	0.361300	0.146400
O141	O14	0.670800	0.414500	0.075300
O151	O15	0.132000	0.278900	0.594700
O161	O16	0.491600	0.248700	0.155200
O171	O17	0.938700	0.348600	0.919400
O181	O18	0.022200	0.945100	0.654200
O191	O19	0.348300	0.562800	0.788700
O201	O20	0.161200	0.016300	0.623300
O211	O21	0.409900	0.696700	0.984700
O221	O22	0.508400	0.751300	0.844800
O231	O23	0.809700	0.949600	0.953100
O241	O24	0.929800	0.615900	0.215700
O251	O25	0.863400	0.638700	0.853600
O261	O26	0.329200	0.585500	0.924700
O271	O27	0.838800	0.983700	0.376700
O281	O28	0.461600	0.854000	0.200000
