data_KOSJIN_clean_PM
_symmetry_space_group_name_H-M	'P1'
_cell_length_a	6.789800
_cell_length_b	15.096300
_cell_length_c	15.096300
_cell_angle_alpha	62.206600
_cell_angle_beta	81.377500
_cell_angle_gamma	98.622500
_symmetry_Int_Tables_number 1

loop_
_symmetry_equiv_pos_as_xyz
'x,y,z'

loop_
_atom_site_label
_atom_site_type_symbol
_atom_site_fract_x
_atom_site_fract_y
_atom_site_fract_z
Co11	Co1	0.400300	0.583300	0.717400
Co21	Co2	0.817000	0.699300	0.583300
Co31	Co3	0.117700	0.717400	0.699300
Co41	Co4	0.400300	0.282600	0.416700
Co51	Co5	0.117700	0.300700	0.282600
Co61	Co6	0.817000	0.416700	0.300700
H11	H1	0.244700	0.000000	0.483900
H21	H2	0.534700	0.423100	0.000000
H31	H3	0.728600	0.483900	0.516100
H41	H4	0.244700	0.516100	0.000000
H51	H5	0.534700	0.000000	0.576900
H61	H6	0.111600	0.576900	0.423100
C11	C1	0.729700	0.415000	0.093900
C21	C2	0.944400	0.908100	0.560300
C31	C3	0.314700	0.585000	0.508900
C41	C4	0.504700	0.468400	0.439700
C51	C5	0.202600	0.644300	0.541500
C61	C6	0.581700	0.503550	0.496450
C71	C7	0.944400	0.439700	0.091900
C81	C8	0.729700	0.906100	0.585000
C91	C9	0.036300	0.091900	0.468400
C101	C10	0.078150	0.000000	0.503550
C111	C11	0.823600	0.093900	0.491100
C121	C12	0.504700	0.560300	0.531600
C131	C13	0.680750	0.000000	0.558750
C141	C14	0.744100	0.541500	0.814200
C151	C15	0.823600	0.508900	0.906100
C161	C16	0.680750	0.441250	0.000000
C171	C17	0.558300	0.814200	0.644300
C181	C18	0.202600	0.458500	0.355700
C191	C19	0.036300	0.531600	0.908100
C201	C20	0.558300	0.355700	0.185800
C211	C21	0.314700	0.491100	0.415000
C221	C22	0.239500	0.558750	0.441250
C231	C23	0.744100	0.185800	0.458500
C241	C24	0.078150	0.496450	0.000000
O11	O1	0.598000	0.341300	0.274600
O21	O2	0.579700	0.584900	0.596700
O31	O3	0.176400	0.181600	0.403300
O41	O4	0.556800	0.176200	0.499000
O51	O5	0.256700	0.658700	0.615900
O61	O6	0.055800	0.675200	0.501000
O71	O7	0.380600	0.324800	0.176200
O81	O8	0.055800	0.499000	0.324800
O91	O9	0.872600	0.274600	0.384100
O101	O10	0.380600	0.823800	0.675200
O111	O11	0.176400	0.596700	0.818400
O121	O12	0.598000	0.725400	0.658700
O131	O13	0.256700	0.384100	0.341300
O141	O14	0.994800	0.415100	0.181600
O151	O15	0.994800	0.818400	0.584900
O161	O16	0.579700	0.403300	0.415100
O171	O17	0.556800	0.501000	0.823800
O181	O18	0.872600	0.615900	0.725400
