data_KOSJEJ_clean_PM
_symmetry_space_group_name_H-M	'P1'
_cell_length_a	6.788000
_cell_length_b	15.096100
_cell_length_c	15.096100
_cell_angle_alpha	62.205500
_cell_angle_beta	81.379700
_cell_angle_gamma	98.620300
_symmetry_Int_Tables_number 1

loop_
_symmetry_equiv_pos_as_xyz
'x,y,z'

loop_
_atom_site_label
_atom_site_type_symbol
_atom_site_fract_x
_atom_site_fract_y
_atom_site_fract_z
Co11	Co1	0.101900	0.716500	0.700800
Co21	Co2	0.101900	0.299200	0.283500
Co31	Co3	0.802700	0.417300	0.299200
Co41	Co4	0.385400	0.582700	0.716500
Co51	Co5	0.802700	0.700800	0.582700
Co61	Co6	0.385400	0.283500	0.417300
H11	H1	0.534050	0.000000	0.572850
H21	H2	0.229150	0.511450	0.000000
H31	H3	0.717700	0.488550	0.511450
H41	H4	0.534050	0.427150	0.000000
H51	H5	0.229150	0.000000	0.488550
H61	H6	0.106900	0.572850	0.427150
C11	C1	0.732900	0.905000	0.585400
C21	C2	0.236400	0.558750	0.441250
C31	C3	0.564500	0.815100	0.641900
C41	C4	0.318300	0.490400	0.414600
C51	C5	0.827900	0.095000	0.490400
C61	C6	0.564500	0.358100	0.184900
C71	C7	0.037900	0.093700	0.468100
C81	C8	0.827900	0.509600	0.905000
C91	C9	0.677650	0.000000	0.558750
C101	C10	0.080100	0.000000	0.500400
C111	C11	0.080100	0.499600	0.000000
C121	C12	0.749400	0.543000	0.815100
C131	C13	0.944200	0.906300	0.561800
C141	C14	0.732900	0.414600	0.095000
C151	C15	0.506000	0.468100	0.438200
C161	C16	0.677650	0.441250	0.000000
C171	C17	0.037900	0.531900	0.906300
C181	C18	0.318300	0.585400	0.509600
C191	C19	0.206400	0.457000	0.358100
C201	C20	0.944200	0.438200	0.093700
C211	C21	0.206400	0.641900	0.543000
C221	C22	0.580500	0.500400	0.499600
C231	C23	0.506000	0.561800	0.531900
C241	C24	0.749400	0.184900	0.457000
O11	O1	0.601800	0.338600	0.276100
O21	O2	0.001700	0.417300	0.182300
O31	O3	0.263200	0.385300	0.338600
O41	O4	0.377700	0.325900	0.179100
O51	O5	0.584400	0.400400	0.417300
O61	O6	0.601800	0.723900	0.661400
O71	O7	0.263200	0.661400	0.614700
O81	O8	0.877900	0.276100	0.385300
O91	O9	0.051800	0.495000	0.325900
O101	O10	0.001700	0.817700	0.582700
O111	O11	0.556800	0.179100	0.495000
O121	O12	0.877900	0.614700	0.723900
O131	O13	0.184000	0.599600	0.817700
O141	O14	0.051800	0.674100	0.505000
O151	O15	0.584400	0.582700	0.599600
O161	O16	0.184000	0.182300	0.400400
O171	O17	0.377700	0.820900	0.674100
O181	O18	0.556800	0.505000	0.820900
