data_KOVJAI01_clean_PM
_symmetry_space_group_name_H-M	'P1'
_cell_length_a	17.402500
_cell_length_b	9.988700
_cell_length_c	25.594600
_cell_angle_alpha	90.000000
_cell_angle_beta	98.568000
_cell_angle_gamma	90.000000
_symmetry_Int_Tables_number 1

loop_
_symmetry_equiv_pos_as_xyz
'x,y,z'

loop_
_atom_site_label
_atom_site_type_symbol
_atom_site_fract_x
_atom_site_fract_y
_atom_site_fract_z
U11	U1	0.533310	0.438260	0.860600
Cl11	Cl1	0.664110	0.379080	0.819750
O11	O1	0.493950	0.285400	0.792530
O21	O2	0.506140	0.590000	0.793400
O31	O3	0.566900	0.216500	0.899770
O41	O4	0.625370	0.473500	0.942300
O51	O5	0.623030	0.630800	0.882130
O61	O6	0.479180	0.327500	0.933910
C11	C1	0.647700	0.586600	0.927800
C21	C2	0.518600	0.223400	0.931650
C31	C3	0.731100	0.787500	0.947850
H11	H1	0.718300	0.813400	0.912700
C41	C4	0.701700	0.669500	0.965250
C51	C5	0.508500	0.107900	0.967600
C61	C6	0.552600	0.991000	0.964050
H21	H2	0.587800	0.985600	0.940100
C71	C7	0.517200	0.868100	0.797260
H31	H3	0.528900	0.821600	0.828900
C81	C8	0.517000	0.007500	0.797100
H41	H4	0.528300	0.054300	0.828700
C91	C9	0.457200	0.115700	0.003190
H51	H5	0.428600	0.193700	0.005300
C101	C10	0.720700	0.633800	0.017490
H61	H6	0.700700	0.555100	0.029500
U21	U2	0.033310	0.938260	0.860600
Cl21	Cl2	0.164110	0.879080	0.819750
O71	O7	0.993950	0.785400	0.792530
O81	O8	0.006140	0.090000	0.793400
O91	O9	0.066900	0.716500	0.899770
O101	O10	0.125370	0.973500	0.942300
O111	O11	0.123030	0.130800	0.882130
O121	O12	0.979180	0.827500	0.933910
C111	C11	0.147700	0.086600	0.927800
C121	C12	0.018600	0.723400	0.931650
C131	C13	0.231100	0.287500	0.947850
H71	H7	0.218300	0.313400	0.912700
C141	C14	0.201700	0.169500	0.965250
C151	C15	0.008500	0.607900	0.967600
C161	C16	0.052600	0.491000	0.964050
H81	H8	0.087800	0.485600	0.940100
C171	C17	0.017200	0.368100	0.797260
H91	H9	0.028900	0.321600	0.828900
C181	C18	0.017000	0.507500	0.797100
H101	H10	0.028300	0.554300	0.828700
C191	C19	0.957200	0.615700	0.003190
H111	H11	0.928600	0.693700	0.005300
C201	C20	0.220700	0.133800	0.017490
H121	H12	0.200700	0.055100	0.029500
U31	U3	0.466690	0.438260	0.639400
Cl31	Cl3	0.335890	0.379080	0.680250
O131	O13	0.506050	0.285400	0.707470
O141	O14	0.493860	0.590000	0.706600
O151	O15	0.433100	0.216500	0.600230
O161	O16	0.374630	0.473500	0.557700
O171	O17	0.376970	0.630800	0.617870
O181	O18	0.520820	0.327500	0.566090
C211	C21	0.352300	0.586600	0.572200
C221	C22	0.481400	0.223400	0.568350
C231	C23	0.268900	0.787500	0.552150
H131	H13	0.281700	0.813400	0.587300
C241	C24	0.298300	0.669500	0.534750
C251	C25	0.491500	0.107900	0.532400
C261	C26	0.447400	0.991000	0.535950
H141	H14	0.412200	0.985600	0.559900
C271	C27	0.482800	0.868100	0.702740
H151	H15	0.471100	0.821600	0.671100
C281	C28	0.483000	0.007500	0.702900
H161	H16	0.471700	0.054300	0.671300
C291	C29	0.542800	0.115700	0.496810
H171	H17	0.571400	0.193700	0.494700
C301	C30	0.279300	0.633800	0.482510
H181	H18	0.299300	0.555100	0.470500
U41	U4	0.966690	0.938260	0.639400
Cl41	Cl4	0.835890	0.879080	0.680250
O191	O19	0.006050	0.785400	0.707470
O201	O20	0.993860	0.090000	0.706600
O211	O21	0.933100	0.716500	0.600230
O221	O22	0.874630	0.973500	0.557700
O231	O23	0.876970	0.130800	0.617870
O241	O24	0.020820	0.827500	0.566090
C311	C31	0.852300	0.086600	0.572200
C321	C32	0.981400	0.723400	0.568350
C331	C33	0.768900	0.287500	0.552150
H191	H19	0.781700	0.313400	0.587300
C341	C34	0.798300	0.169500	0.534750
C351	C35	0.991500	0.607900	0.532400
C361	C36	0.947400	0.491000	0.535950
H201	H20	0.912200	0.485600	0.559900
C371	C37	0.982800	0.368100	0.702740
H211	H21	0.971100	0.321600	0.671100
C381	C38	0.983000	0.507500	0.702900
H221	H22	0.971700	0.554300	0.671300
C391	C39	0.042800	0.615700	0.496810
H231	H23	0.071400	0.693700	0.494700
C401	C40	0.779300	0.133800	0.482510
H241	H24	0.799300	0.055100	0.470500
U51	U5	0.466690	0.561740	0.139400
Cl51	Cl5	0.335890	0.620920	0.180250
O251	O25	0.506050	0.714600	0.207470
O261	O26	0.493860	0.410000	0.206600
O271	O27	0.433100	0.783500	0.100230
O281	O28	0.374630	0.526500	0.057700
O291	O29	0.376970	0.369200	0.117870
O301	O30	0.520820	0.672500	0.066090
C411	C41	0.352300	0.413400	0.072200
C421	C42	0.481400	0.776600	0.068350
C431	C43	0.268900	0.212500	0.052150
H251	H25	0.281700	0.186600	0.087300
C441	C44	0.298300	0.330500	0.034750
C451	C45	0.491500	0.892100	0.032400
C461	C46	0.447400	0.009000	0.035950
H261	H26	0.412200	0.014400	0.059900
C471	C47	0.482800	0.131900	0.202740
H271	H27	0.471100	0.178400	0.171100
C481	C48	0.483000	0.992500	0.202900
H281	H28	0.471700	0.945700	0.171300
C491	C49	0.542800	0.884300	0.996810
H291	H29	0.571400	0.806300	0.994700
C501	C50	0.279300	0.366200	0.982510
H301	H30	0.299300	0.444900	0.970500
U61	U6	0.966690	0.061740	0.139400
Cl61	Cl6	0.835890	0.120920	0.180250
O311	O31	0.006050	0.214600	0.207470
O321	O32	0.993860	0.910000	0.206600
O331	O33	0.933100	0.283500	0.100230
O341	O34	0.874630	0.026500	0.057700
O351	O35	0.876970	0.869200	0.117870
O361	O36	0.020820	0.172500	0.066090
C511	C51	0.852300	0.913400	0.072200
C521	C52	0.981400	0.276600	0.068350
C531	C53	0.768900	0.712500	0.052150
H311	H31	0.781700	0.686600	0.087300
C541	C54	0.798300	0.830500	0.034750
C551	C55	0.991500	0.392100	0.032400
C561	C56	0.947400	0.509000	0.035950
H321	H32	0.912200	0.514400	0.059900
C571	C57	0.982800	0.631900	0.202740
H331	H33	0.971100	0.678400	0.171100
C581	C58	0.983000	0.492500	0.202900
H341	H34	0.971700	0.445700	0.171300
C591	C59	0.042800	0.384300	0.996810
H351	H35	0.071400	0.306300	0.994700
C601	C60	0.779300	0.866200	0.982510
H361	H36	0.799300	0.944900	0.970500
U71	U7	0.533310	0.561740	0.360600
Cl71	Cl7	0.664110	0.620920	0.319750
O371	O37	0.493950	0.714600	0.292530
O381	O38	0.506140	0.410000	0.293400
O391	O39	0.566900	0.783500	0.399770
O401	O40	0.625370	0.526500	0.442300
O411	O41	0.623030	0.369200	0.382130
O421	O42	0.479180	0.672500	0.433910
C611	C61	0.647700	0.413400	0.427800
C621	C62	0.518600	0.776600	0.431650
C631	C63	0.731100	0.212500	0.447850
H371	H37	0.718300	0.186600	0.412700
C641	C64	0.701700	0.330500	0.465250
C651	C65	0.508500	0.892100	0.467600
C661	C66	0.552600	0.009000	0.464050
H381	H38	0.587800	0.014400	0.440100
C671	C67	0.517200	0.131900	0.297260
H391	H39	0.528900	0.178400	0.328900
C681	C68	0.517000	0.992500	0.297100
H401	H40	0.528300	0.945700	0.328700
C691	C69	0.457200	0.884300	0.503190
H411	H41	0.428600	0.806300	0.505300
C701	C70	0.720700	0.366200	0.517490
H421	H42	0.700700	0.444900	0.529500
U81	U8	0.033310	0.061740	0.360600
Cl81	Cl8	0.164110	0.120920	0.319750
O431	O43	0.993950	0.214600	0.292530
O441	O44	0.006140	0.910000	0.293400
O451	O45	0.066900	0.283500	0.399770
O461	O46	0.125370	0.026500	0.442300
O471	O47	0.123030	0.869200	0.382130
O481	O48	0.979180	0.172500	0.433910
C711	C71	0.147700	0.913400	0.427800
C721	C72	0.018600	0.276600	0.431650
C731	C73	0.231100	0.712500	0.447850
H431	H43	0.218300	0.686600	0.412700
C741	C74	0.201700	0.830500	0.465250
C751	C75	0.008500	0.392100	0.467600
C761	C76	0.052600	0.509000	0.464050
H441	H44	0.087800	0.514400	0.440100
C771	C77	0.017200	0.631900	0.297260
H451	H45	0.028900	0.678400	0.328900
C781	C78	0.017000	0.492500	0.297100
H461	H46	0.028300	0.445700	0.328700
C791	C79	0.957200	0.384300	0.503190
H471	H47	0.928600	0.306300	0.505300
C801	C80	0.220700	0.866200	0.517490
H481	H48	0.200700	0.944900	0.529500
C811	C81	0.500000	0.649100	0.750000
C821	C82	0.500000	0.227000	0.750000
C831	C83	0.500000	0.799000	0.750000
C841	C84	0.500000	0.076200	0.750000
C851	C85	0.000000	0.149100	0.750000
C861	C86	0.000000	0.727000	0.750000
C871	C87	0.000000	0.299000	0.750000
C881	C88	0.000000	0.576200	0.750000
C891	C89	0.500000	0.350900	0.250000
C901	C90	0.500000	0.773000	0.250000
C911	C91	0.500000	0.201000	0.250000
C921	C92	0.500000	0.923800	0.250000
C931	C93	0.000000	0.850900	0.250000
C941	C94	0.000000	0.273000	0.250000
C951	C95	0.000000	0.701000	0.250000
C961	C96	0.000000	0.423800	0.250000
