data_KOZNIY_clean_PM
_symmetry_space_group_name_H-M	'P1'
_cell_length_a	15.217000
_cell_length_b	9.850900
_cell_length_c	18.274100
_cell_angle_alpha	90.000000
_cell_angle_beta	102.036000
_cell_angle_gamma	90.000000
_symmetry_Int_Tables_number 1

loop_
_symmetry_equiv_pos_as_xyz
'x,y,z'

loop_
_atom_site_label
_atom_site_type_symbol
_atom_site_fract_x
_atom_site_fract_y
_atom_site_fract_z
Zn11	Zn1	0.213600	0.444490	0.035340
O11	O1	0.099740	0.341200	0.027960
O21	O2	0.073800	0.874700	0.578720
O31	O3	0.218540	0.928000	0.620050
O41	O4	0.209810	0.550400	0.944030
O51	O5	0.304100	0.309600	0.088890
O61	O6	0.160600	0.233100	0.943500
O71	O7	0.059780	0.567400	0.915260
O81	O8	0.386020	0.441500	0.033640
C11	C1	0.105800	0.237200	0.984500
C21	C2	0.048000	0.117200	0.991300
C31	C3	0.009100	0.102800	0.052500
H11	H1	0.015200	0.173000	0.088800
C41	C4	0.961400	0.986700	0.061400
H21	H2	0.934800	0.977700	0.103800
C51	C5	0.145700	0.872000	0.626600
C61	C6	0.145700	0.795700	0.698100
C71	C7	0.135900	0.585100	0.902000
C81	C8	0.140300	0.656500	0.830400
C91	C9	0.062000	0.685100	0.778900
H31	H3	0.006000	0.657900	0.789300
C101	C10	0.063700	0.752200	0.713100
H41	H4	0.009300	0.769000	0.678000
C111	C11	0.221600	0.697600	0.814400
H51	H5	0.276200	0.677300	0.848400
C121	C12	0.223500	0.767600	0.749200
H61	H6	0.279500	0.796900	0.739600
C131	C13	0.377500	0.344400	0.074700
H71	H7	0.429500	0.293900	0.096500
Zn21	Zn2	0.786400	0.944490	0.464660
O91	O9	0.900260	0.841200	0.472040
O101	O10	0.926200	0.374700	0.921280
O111	O11	0.781460	0.428000	0.879950
O121	O12	0.790190	0.050400	0.555970
O131	O13	0.695900	0.809600	0.411110
O141	O14	0.839400	0.733100	0.556500
O151	O15	0.940220	0.067400	0.584740
O161	O16	0.613980	0.941500	0.466360
C141	C14	0.894200	0.737200	0.515500
C151	C15	0.952000	0.617200	0.508700
C161	C16	0.990900	0.602800	0.447500
H81	H8	0.984800	0.673000	0.411200
C171	C17	0.038600	0.486700	0.438600
H91	H9	0.065200	0.477700	0.396200
C181	C18	0.854300	0.372000	0.873400
C191	C19	0.854300	0.295700	0.801900
C201	C20	0.864100	0.085100	0.598000
C211	C21	0.859700	0.156500	0.669600
C221	C22	0.938000	0.185100	0.721100
H101	H10	0.994000	0.157900	0.710700
C231	C23	0.936300	0.252200	0.786900
H111	H11	0.990700	0.269000	0.822000
C241	C24	0.778400	0.197600	0.685600
H121	H12	0.723800	0.177300	0.651600
C251	C25	0.776500	0.267600	0.750800
H131	H13	0.720500	0.296900	0.760400
C261	C26	0.622500	0.844400	0.425300
H141	H14	0.570500	0.793900	0.403500
Zn31	Zn3	0.786400	0.555510	0.964660
O171	O17	0.900260	0.658800	0.972040
O181	O18	0.926200	0.125300	0.421280
O191	O19	0.781460	0.072000	0.379950
O201	O20	0.790190	0.449600	0.055970
O211	O21	0.695900	0.690400	0.911110
O221	O22	0.839400	0.766900	0.056500
O231	O23	0.940220	0.432600	0.084740
O241	O24	0.613980	0.558500	0.966360
C271	C27	0.894200	0.762800	0.015500
C281	C28	0.952000	0.882800	0.008700
C291	C29	0.990900	0.897200	0.947500
H151	H15	0.984800	0.827000	0.911200
C301	C30	0.038600	0.013300	0.938600
H161	H16	0.065200	0.022300	0.896200
C311	C31	0.854300	0.128000	0.373400
C321	C32	0.854300	0.204300	0.301900
C331	C33	0.864100	0.414900	0.098000
C341	C34	0.859700	0.343500	0.169600
C351	C35	0.938000	0.314900	0.221100
H171	H17	0.994000	0.342100	0.210700
C361	C36	0.936300	0.247800	0.286900
H181	H18	0.990700	0.231000	0.322000
C371	C37	0.778400	0.302400	0.185600
H191	H19	0.723800	0.322700	0.151600
C381	C38	0.776500	0.232400	0.250800
H201	H20	0.720500	0.203100	0.260400
C391	C39	0.622500	0.655600	0.925300
H211	H21	0.570500	0.706100	0.903500
Zn41	Zn4	0.213600	0.055510	0.535340
O251	O25	0.099740	0.158800	0.527960
O261	O26	0.073800	0.625300	0.078720
O271	O27	0.218540	0.572000	0.120050
O281	O28	0.209810	0.949600	0.444030
O291	O29	0.304100	0.190400	0.588890
O301	O30	0.160600	0.266900	0.443500
O311	O31	0.059780	0.932600	0.415260
O321	O32	0.386020	0.058500	0.533640
C401	C40	0.105800	0.262800	0.484500
C411	C41	0.048000	0.382800	0.491300
C421	C42	0.009100	0.397200	0.552500
H221	H22	0.015200	0.327000	0.588800
C431	C43	0.961400	0.513300	0.561400
H231	H23	0.934800	0.522300	0.603800
C441	C44	0.145700	0.628000	0.126600
C451	C45	0.145700	0.704300	0.198100
C461	C46	0.135900	0.914900	0.402000
C471	C47	0.140300	0.843500	0.330400
C481	C48	0.062000	0.814900	0.278900
H241	H24	0.006000	0.842100	0.289300
C491	C49	0.063700	0.747800	0.213100
H251	H25	0.009300	0.731000	0.178000
C501	C50	0.221600	0.802400	0.314400
H261	H26	0.276200	0.822700	0.348400
C511	C51	0.223500	0.732400	0.249200
H271	H27	0.279500	0.703100	0.239600
C521	C52	0.377500	0.155600	0.574700
H281	H28	0.429500	0.206100	0.596500
Zn51	Zn5	0.000000	0.500000	0.000000
Zn61	Zn6	0.000000	0.000000	0.500000
Zn71	Zn7	0.500000	0.500000	0.000000
Zn81	Zn8	0.500000	0.000000	0.500000
