data_KOZQEX_clean_PM
_symmetry_space_group_name_H-M	'P1'
_cell_length_a	27.860000
_cell_length_b	27.860000
_cell_length_c	27.860000
_cell_angle_alpha	90.000000
_cell_angle_beta	90.000000
_cell_angle_gamma	90.000000
_symmetry_Int_Tables_number 1

loop_
_symmetry_equiv_pos_as_xyz
'x,y,z'

loop_
_atom_site_label
_atom_site_type_symbol
_atom_site_fract_x
_atom_site_fract_y
_atom_site_fract_z
Cu11	Cu1	0.000000	0.452440	0.000000
Cu21	Cu2	0.500000	0.500000	0.844640
Cu31	Cu3	0.844640	0.500000	0.500000
Cu41	Cu4	0.750210	0.500000	0.500000
Cu51	Cu5	0.155360	0.500000	0.500000
Cu61	Cu6	0.452440	0.000000	0.000000
Cu71	Cu7	0.500000	0.750210	0.500000
Cu81	Cu8	0.249790	0.500000	0.500000
Cu91	Cu9	0.500000	0.249790	0.500000
Cu101	Cu10	0.000000	0.000000	0.547560
Cu111	Cu11	0.500000	0.155360	0.500000
Cu121	Cu12	0.500000	0.500000	0.750210
Cu131	Cu13	0.500000	0.844640	0.500000
Cu141	Cu14	0.500000	0.500000	0.155360
Cu151	Cu15	0.000000	0.000000	0.452440
Cu161	Cu16	0.547560	0.000000	0.000000
Cu171	Cu17	0.000000	0.547560	0.000000
Cu181	Cu18	0.500000	0.500000	0.249790
H11	H1	0.500000	0.734100	0.128200
H21	H2	0.107300	0.431000	0.892700
H31	H3	0.500000	0.265900	0.128200
H41	H4	0.725900	0.653200	0.500000
H51	H5	0.734100	0.500000	0.128200
H61	H6	0.167800	0.832200	0.432300
H71	H7	0.107300	0.892700	0.569000
H81	H8	0.167800	0.832200	0.567700
H91	H9	0.348600	0.500000	0.870100
H101	H10	0.431000	0.107300	0.107300
H111	H11	0.500000	0.871800	0.734100
H121	H12	0.500000	0.651400	0.129900
H131	H13	0.265900	0.500000	0.871800
H141	H14	0.892700	0.892700	0.431000
H151	H15	0.734100	0.871800	0.500000
H161	H16	0.129900	0.500000	0.348600
H171	H17	0.274100	0.500000	0.653200
H181	H18	0.832200	0.167800	0.567700
H191	H19	0.870100	0.348600	0.500000
H201	H20	0.500000	0.128200	0.265900
H211	H21	0.832200	0.567700	0.167800
H221	H22	0.346800	0.500000	0.725900
H231	H23	0.274100	0.500000	0.346800
H241	H24	0.346800	0.274100	0.500000
H251	H25	0.653200	0.274100	0.500000
H261	H26	0.129900	0.651400	0.500000
H271	H27	0.651400	0.870100	0.500000
H281	H28	0.500000	0.265900	0.871800
H291	H29	0.431000	0.892700	0.107300
H301	H30	0.346800	0.500000	0.274100
H311	H31	0.431000	0.892700	0.892700
H321	H32	0.500000	0.725900	0.346800
H331	H33	0.500000	0.274100	0.346800
H341	H34	0.832200	0.167800	0.432300
H351	H35	0.128200	0.734100	0.500000
H361	H36	0.348600	0.870100	0.500000
H371	H37	0.567700	0.832200	0.167800
H381	H38	0.832200	0.832200	0.567700
H391	H39	0.871800	0.265900	0.500000
H401	H40	0.567700	0.832200	0.832200
H411	H41	0.500000	0.871800	0.265900
H421	H42	0.346800	0.725900	0.500000
H431	H43	0.500000	0.725900	0.653200
H441	H44	0.167800	0.432300	0.832200
H451	H45	0.892700	0.107300	0.569000
H461	H46	0.432300	0.167800	0.167800
H471	H47	0.832200	0.832200	0.432300
H481	H48	0.500000	0.653200	0.725900
H491	H49	0.569000	0.892700	0.107300
H501	H50	0.129900	0.348600	0.500000
H511	H51	0.107300	0.107300	0.569000
H521	H52	0.167800	0.432300	0.167800
H531	H53	0.892700	0.107300	0.431000
H541	H54	0.274100	0.346800	0.500000
H551	H55	0.871800	0.500000	0.734100
H561	H56	0.725900	0.500000	0.653200
H571	H57	0.107300	0.107300	0.431000
H581	H58	0.653200	0.500000	0.725900
H591	H59	0.500000	0.651400	0.870100
H601	H60	0.651400	0.500000	0.870100
H611	H61	0.653200	0.725900	0.500000
H621	H62	0.569000	0.107300	0.892700
H631	H63	0.500000	0.870100	0.651400
H641	H64	0.832200	0.432300	0.832200
H651	H65	0.892700	0.431000	0.892700
H661	H66	0.892700	0.569000	0.107300
H671	H67	0.892700	0.569000	0.892700
H681	H68	0.870100	0.500000	0.348600
H691	H69	0.871800	0.734100	0.500000
H701	H70	0.651400	0.129900	0.500000
H711	H71	0.348600	0.129900	0.500000
H721	H72	0.432300	0.832200	0.167800
H731	H73	0.892700	0.431000	0.107300
H741	H74	0.651400	0.500000	0.129900
H751	H75	0.128200	0.500000	0.734100
H761	H76	0.500000	0.274100	0.653200
H771	H77	0.500000	0.653200	0.274100
H781	H78	0.265900	0.871800	0.500000
H791	H79	0.832200	0.567700	0.832200
H801	H80	0.734100	0.500000	0.871800
H811	H81	0.274100	0.653200	0.500000
H821	H82	0.107300	0.569000	0.892700
H831	H83	0.870100	0.651400	0.500000
H841	H84	0.832200	0.432300	0.167800
H851	H85	0.500000	0.129900	0.348600
H861	H86	0.500000	0.348600	0.129900
H871	H87	0.107300	0.569000	0.107300
H881	H88	0.567700	0.167800	0.167800
H891	H89	0.725900	0.500000	0.346800
H901	H90	0.653200	0.500000	0.274100
H911	H91	0.500000	0.128200	0.734100
H921	H92	0.265900	0.128200	0.500000
H931	H93	0.128200	0.265900	0.500000
H941	H94	0.107300	0.892700	0.431000
H951	H95	0.129900	0.500000	0.651400
H961	H96	0.500000	0.734100	0.871800
H971	H97	0.432300	0.832200	0.832200
H981	H98	0.167800	0.167800	0.432300
H991	H99	0.128200	0.500000	0.265900
H1001	H100	0.500000	0.346800	0.725900
H1011	H101	0.871800	0.500000	0.265900
H1021	H102	0.167800	0.167800	0.567700
H1031	H103	0.500000	0.870100	0.348600
H1041	H104	0.432300	0.167800	0.832200
H1051	H105	0.569000	0.892700	0.892700
H1061	H106	0.725900	0.346800	0.500000
H1071	H107	0.500000	0.348600	0.870100
H1081	H108	0.870100	0.500000	0.651400
H1091	H109	0.500000	0.129900	0.651400
H1101	H110	0.500000	0.346800	0.274100
H1111	H111	0.431000	0.107300	0.892700
H1121	H112	0.348600	0.500000	0.129900
H1131	H113	0.569000	0.107300	0.107300
H1141	H114	0.734100	0.128200	0.500000
H1151	H115	0.892700	0.892700	0.569000
H1161	H116	0.167800	0.567700	0.832200
H1171	H117	0.107300	0.431000	0.107300
H1181	H118	0.167800	0.567700	0.167800
H1191	H119	0.265900	0.500000	0.128200
H1201	H120	0.567700	0.167800	0.832200
C11	C1	0.755230	0.500000	0.280920
C21	C2	0.500000	0.256830	0.800040
C31	C3	0.500000	0.717890	0.842580
C41	C4	0.101480	0.898520	0.500000
C51	C5	0.155910	0.538800	0.155910
C61	C6	0.500000	0.409310	0.797350
C71	C7	0.280920	0.244770	0.500000
C81	C8	0.800040	0.256830	0.500000
C91	C9	0.101480	0.101480	0.500000
C101	C10	0.500000	0.898520	0.898520
C111	C11	0.500000	0.668580	0.158530
C121	C12	0.842580	0.500000	0.282110
C131	C13	0.881340	0.460300	0.118660
C141	C14	0.500000	0.800040	0.256830
C151	C15	0.500000	0.331420	0.841470
C161	C16	0.500000	0.743170	0.800040
C171	C17	0.409310	0.500000	0.202650
C181	C18	0.282110	0.500000	0.842580
C191	C19	0.202590	0.500000	0.356000
C201	C20	0.538800	0.155910	0.155910
C211	C21	0.500000	0.842580	0.282110
C221	C22	0.500000	0.719080	0.755230
C231	C23	0.719080	0.244770	0.500000
C241	C24	0.461200	0.155910	0.155910
C251	C25	0.460300	0.118660	0.118660
C261	C26	0.155910	0.538800	0.844090
C271	C27	0.356000	0.797410	0.500000
C281	C28	0.500000	0.717890	0.157420
C291	C29	0.881340	0.881340	0.539700
C301	C30	0.280920	0.500000	0.755230
C311	C31	0.118660	0.118660	0.539700
C321	C32	0.841470	0.668580	0.500000
C331	C33	0.841470	0.500000	0.331420
C341	C34	0.202650	0.500000	0.409310
C351	C35	0.157420	0.717890	0.500000
C361	C36	0.717890	0.842580	0.500000
C371	C37	0.841470	0.500000	0.668580
C381	C38	0.800040	0.743170	0.500000
C391	C39	0.202590	0.644000	0.500000
C401	C40	0.844090	0.461200	0.155910
C411	C41	0.842580	0.282110	0.500000
C421	C42	0.500000	0.330460	0.244960
C431	C43	0.755230	0.719080	0.500000
C441	C44	0.244960	0.669540	0.500000
C451	C45	0.256830	0.500000	0.800040
C461	C46	0.743170	0.500000	0.800040
C471	C47	0.797410	0.500000	0.644000
C481	C48	0.356000	0.500000	0.202590
C491	C49	0.500000	0.244960	0.669540
C501	C50	0.500000	0.356000	0.797410
C511	C51	0.461200	0.155910	0.844090
C521	C52	0.500000	0.172240	0.827760
C531	C53	0.199960	0.743170	0.500000
C541	C54	0.118660	0.881340	0.539700
C551	C55	0.118660	0.118660	0.460300
C561	C56	0.844090	0.538800	0.155910
C571	C57	0.282110	0.842580	0.500000
C581	C58	0.844090	0.155910	0.461200
C591	C59	0.842580	0.500000	0.717890
C601	C60	0.409310	0.500000	0.797350
C611	C61	0.881340	0.118660	0.460300
C621	C62	0.668580	0.158530	0.500000
C631	C63	0.500000	0.063760	0.936240
C641	C64	0.500000	0.936240	0.936240
C651	C65	0.244770	0.500000	0.719080
C661	C66	0.500000	0.841470	0.331420
C671	C67	0.844090	0.844090	0.538800
C681	C68	0.844090	0.461200	0.844090
C691	C69	0.155910	0.461200	0.155910
C701	C70	0.256830	0.800040	0.500000
C711	C71	0.500000	0.202650	0.409310
C721	C72	0.500000	0.797410	0.644000
C731	C73	0.881340	0.539700	0.881340
C741	C74	0.330460	0.755040	0.500000
C751	C75	0.717890	0.500000	0.842580
C761	C76	0.590690	0.202650	0.500000
C771	C77	0.500000	0.158530	0.331420
C781	C78	0.500000	0.331420	0.158530
C791	C79	0.172240	0.500000	0.172240
C801	C80	0.881340	0.118660	0.539700
C811	C81	0.717890	0.500000	0.157420
C821	C82	0.331420	0.158530	0.500000
C831	C83	0.719080	0.500000	0.244770
C841	C84	0.844090	0.538800	0.844090
C851	C85	0.898520	0.101480	0.500000
C861	C86	0.157420	0.500000	0.717890
C871	C87	0.800040	0.500000	0.743170
C881	C88	0.500000	0.158530	0.668580
C891	C89	0.500000	0.644000	0.202590
C901	C90	0.590690	0.500000	0.797350
C911	C91	0.202650	0.409310	0.500000
C921	C92	0.172240	0.500000	0.827760
C931	C93	0.331420	0.841470	0.500000
C941	C94	0.500000	0.244770	0.280920
C951	C95	0.539700	0.118660	0.118660
C961	C96	0.282110	0.157420	0.500000
C971	C97	0.158530	0.668580	0.500000
C981	C98	0.755230	0.500000	0.719080
C991	C99	0.356000	0.500000	0.797410
C1001	C100	0.155910	0.844090	0.538800
C1011	C101	0.844090	0.844090	0.461200
C1021	C102	0.202590	0.500000	0.644000
C1031	C103	0.842580	0.717890	0.500000
C1041	C104	0.199960	0.500000	0.743170
C1051	C105	0.936240	0.936240	0.500000
C1061	C106	0.460300	0.881340	0.881340
C1071	C107	0.500000	0.244770	0.719080
C1081	C108	0.669540	0.244960	0.500000
C1091	C109	0.500000	0.755230	0.280920
C1101	C110	0.669540	0.500000	0.244960
C1111	C111	0.743170	0.500000	0.199960
C1121	C112	0.409310	0.202650	0.500000
C1131	C113	0.199960	0.500000	0.256830
C1141	C114	0.500000	0.668580	0.841470
C1151	C115	0.172240	0.827760	0.500000
C1161	C116	0.590690	0.500000	0.202650
C1171	C117	0.500000	0.797350	0.409310
C1181	C118	0.500000	0.827760	0.172240
C1191	C119	0.331420	0.500000	0.158530
C1201	C120	0.717890	0.157420	0.500000
C1211	C121	0.500000	0.280920	0.244770
C1221	C122	0.460300	0.118660	0.881340
C1231	C123	0.157420	0.500000	0.282110
C1241	C124	0.539700	0.881340	0.118660
C1251	C125	0.063760	0.936240	0.500000
C1261	C126	0.118660	0.460300	0.881340
C1271	C127	0.539700	0.118660	0.881340
C1281	C128	0.500000	0.669540	0.755040
C1291	C129	0.500000	0.330460	0.755040
C1301	C130	0.500000	0.282110	0.842580
C1311	C131	0.118660	0.881340	0.460300
C1321	C132	0.330460	0.244960	0.500000
C1331	C133	0.500000	0.669540	0.244960
C1341	C134	0.461200	0.844090	0.844090
C1351	C135	0.460300	0.881340	0.118660
C1361	C136	0.500000	0.755040	0.330460
C1371	C137	0.743170	0.800040	0.500000
C1381	C138	0.330460	0.500000	0.244960
C1391	C139	0.202650	0.500000	0.590690
C1401	C140	0.500000	0.157420	0.717890
C1411	C141	0.797350	0.409310	0.500000
C1421	C142	0.755230	0.280920	0.500000
C1431	C143	0.827760	0.500000	0.172240
C1441	C144	0.644000	0.500000	0.202590
C1451	C145	0.118660	0.539700	0.881340
C1461	C146	0.158530	0.331420	0.500000
C1471	C147	0.244960	0.330460	0.500000
C1481	C148	0.500000	0.202650	0.590690
C1491	C149	0.280920	0.500000	0.244770
C1501	C150	0.202590	0.356000	0.500000
C1511	C151	0.500000	0.199960	0.256830
C1521	C152	0.881340	0.881340	0.460300
C1531	C153	0.797410	0.356000	0.500000
C1541	C154	0.101480	0.500000	0.898520
C1551	C155	0.500000	0.755230	0.719080
C1561	C156	0.668580	0.500000	0.841470
C1571	C157	0.500000	0.172240	0.172240
C1581	C158	0.155910	0.461200	0.844090
C1591	C159	0.500000	0.063760	0.063760
C1601	C160	0.898520	0.500000	0.898520
C1611	C161	0.244770	0.500000	0.280920
C1621	C162	0.936240	0.500000	0.063760
C1631	C163	0.755040	0.669540	0.500000
C1641	C164	0.244770	0.280920	0.500000
C1651	C165	0.590690	0.797350	0.500000
C1661	C166	0.158530	0.500000	0.331420
C1671	C167	0.155910	0.155910	0.461200
C1681	C168	0.669540	0.755040	0.500000
C1691	C169	0.936240	0.063760	0.500000
C1701	C170	0.797410	0.500000	0.356000
C1711	C171	0.539700	0.881340	0.881340
C1721	C172	0.500000	0.157420	0.282110
C1731	C173	0.101480	0.500000	0.101480
C1741	C174	0.500000	0.644000	0.797410
C1751	C175	0.669540	0.500000	0.755040
C1761	C176	0.538800	0.844090	0.155910
C1771	C177	0.500000	0.590690	0.202650
C1781	C178	0.202650	0.590690	0.500000
C1791	C179	0.500000	0.202590	0.356000
C1801	C180	0.063760	0.500000	0.063760
C1811	C181	0.500000	0.101480	0.101480
C1821	C182	0.500000	0.936240	0.063760
C1831	C183	0.827760	0.500000	0.827760
C1841	C184	0.500000	0.256830	0.199960
C1851	C185	0.500000	0.202590	0.644000
C1861	C186	0.644000	0.797410	0.500000
C1871	C187	0.063760	0.063760	0.500000
C1881	C188	0.118660	0.539700	0.118660
C1891	C189	0.668580	0.500000	0.158530
C1901	C190	0.330460	0.500000	0.755040
C1911	C191	0.244960	0.500000	0.330460
C1921	C192	0.500000	0.800040	0.743170
C1931	C193	0.755040	0.500000	0.669540
C1941	C194	0.797410	0.644000	0.500000
C1951	C195	0.500000	0.244960	0.330460
C1961	C196	0.881340	0.460300	0.881340
C1971	C197	0.500000	0.842580	0.717890
C1981	C198	0.755040	0.500000	0.330460
C1991	C199	0.256830	0.199960	0.500000
C2001	C200	0.827760	0.827760	0.500000
C2011	C201	0.500000	0.199960	0.743170
C2021	C202	0.797350	0.500000	0.590690
C2031	C203	0.668580	0.841470	0.500000
C2041	C204	0.063760	0.500000	0.936240
C2051	C205	0.936240	0.500000	0.936240
C2061	C206	0.538800	0.155910	0.844090
C2071	C207	0.500000	0.755040	0.669540
C2081	C208	0.500000	0.409310	0.202650
C2091	C209	0.500000	0.743170	0.199960
C2101	C210	0.118660	0.460300	0.118660
C2111	C211	0.797350	0.500000	0.409310
C2121	C212	0.500000	0.841470	0.668580
C2131	C213	0.356000	0.202590	0.500000
C2141	C214	0.800040	0.500000	0.256830
C2151	C215	0.500000	0.797410	0.356000
C2161	C216	0.500000	0.280920	0.755230
C2171	C217	0.827760	0.172240	0.500000
C2181	C218	0.797350	0.590690	0.500000
C2191	C219	0.157420	0.282110	0.500000
C2201	C220	0.881340	0.539700	0.118660
C2211	C221	0.155910	0.844090	0.461200
C2221	C222	0.500000	0.719080	0.244770
C2231	C223	0.538800	0.844090	0.844090
C2241	C224	0.898520	0.898520	0.500000
C2251	C225	0.743170	0.199960	0.500000
C2261	C226	0.331420	0.500000	0.841470
C2271	C227	0.500000	0.827760	0.827760
C2281	C228	0.844090	0.155910	0.538800
C2291	C229	0.461200	0.844090	0.155910
C2301	C230	0.755040	0.330460	0.500000
C2311	C231	0.898520	0.500000	0.101480
C2321	C232	0.158530	0.500000	0.668580
C2331	C233	0.500000	0.797350	0.590690
C2341	C234	0.244770	0.719080	0.500000
C2351	C235	0.644000	0.202590	0.500000
C2361	C236	0.500000	0.101480	0.898520
C2371	C237	0.500000	0.282110	0.157420
C2381	C238	0.409310	0.797350	0.500000
C2391	C239	0.719080	0.755230	0.500000
C2401	C240	0.841470	0.331420	0.500000
C2411	C241	0.280920	0.755230	0.500000
C2421	C242	0.282110	0.500000	0.157420
C2431	C243	0.199960	0.256830	0.500000
C2441	C244	0.500000	0.898520	0.101480
C2451	C245	0.155910	0.155910	0.538800
C2461	C246	0.500000	0.590690	0.797350
C2471	C247	0.644000	0.500000	0.797410
C2481	C248	0.172240	0.172240	0.500000
C2491	C249	0.244960	0.500000	0.669540
C2501	C250	0.719080	0.500000	0.755230
C2511	C251	0.256830	0.500000	0.199960
C2521	C252	0.500000	0.356000	0.202590
N11	N1	0.500000	0.208240	0.208240
N21	N2	0.208240	0.791760	0.500000
N31	N3	0.208240	0.500000	0.208240
N41	N4	0.791760	0.500000	0.791760
N51	N5	0.500000	0.791760	0.208240
N61	N6	0.791760	0.208240	0.500000
N71	N7	0.208240	0.500000	0.791760
N81	N8	0.500000	0.791760	0.791760
N91	N9	0.208240	0.208240	0.500000
N101	N10	0.791760	0.791760	0.500000
N111	N11	0.500000	0.208240	0.791760
N121	N12	0.791760	0.500000	0.208240
O11	O1	0.500000	0.242680	0.430020
O21	O2	0.242680	0.500000	0.430020
O31	O3	0.837270	0.430280	0.500000
O41	O4	0.500000	0.569980	0.757320
O51	O5	0.569980	0.500000	0.757320
O61	O6	0.950030	0.950030	0.460120
O71	O7	0.049970	0.460120	0.049970
O81	O8	0.500000	0.242680	0.569980
O91	O9	0.242680	0.500000	0.569980
O101	O10	0.569980	0.500000	0.242680
O111	O11	0.757320	0.569980	0.500000
O121	O12	0.500000	0.162730	0.569720
O131	O13	0.569720	0.837270	0.500000
O141	O14	0.242680	0.569980	0.500000
O151	O15	0.500000	0.430020	0.242680
O161	O16	0.837270	0.569720	0.500000
O171	O17	0.950030	0.049970	0.460120
O181	O18	0.049970	0.539880	0.049970
O191	O19	0.500000	0.430280	0.837270
O201	O20	0.430020	0.500000	0.757320
O211	O21	0.950030	0.049970	0.539880
O221	O22	0.162730	0.500000	0.430280
O231	O23	0.569980	0.242680	0.500000
O241	O24	0.950030	0.460120	0.950030
O251	O25	0.049970	0.460120	0.950030
O261	O26	0.430280	0.162730	0.500000
O271	O27	0.539880	0.950030	0.049970
O281	O28	0.500000	0.569720	0.162730
O291	O29	0.950030	0.460120	0.049970
O301	O30	0.539880	0.950030	0.950030
O311	O31	0.049970	0.049970	0.460120
O321	O32	0.500000	0.757320	0.430020
O331	O33	0.460120	0.049970	0.950030
O341	O34	0.049970	0.950030	0.460120
O351	O35	0.500000	0.569980	0.242680
O361	O36	0.500000	0.430020	0.757320
O371	O37	0.162730	0.569720	0.500000
O381	O38	0.500000	0.757320	0.569980
O391	O39	0.430280	0.500000	0.162730
O401	O40	0.950030	0.950030	0.539880
O411	O41	0.049970	0.950030	0.539880
O421	O42	0.837270	0.500000	0.569720
O431	O43	0.757320	0.500000	0.430020
O441	O44	0.430020	0.500000	0.242680
O451	O45	0.569720	0.500000	0.837270
O461	O46	0.430280	0.837270	0.500000
O471	O47	0.500000	0.837270	0.430280
O481	O48	0.162730	0.430280	0.500000
O491	O49	0.757320	0.500000	0.569980
O501	O50	0.460120	0.049970	0.049970
O511	O51	0.569720	0.500000	0.162730
O521	O52	0.500000	0.162730	0.430280
O531	O53	0.500000	0.569720	0.837270
O541	O54	0.242680	0.430020	0.500000
O551	O55	0.049970	0.049970	0.539880
O561	O56	0.430020	0.242680	0.500000
O571	O57	0.430020	0.757320	0.500000
O581	O58	0.500000	0.837270	0.569720
O591	O59	0.837270	0.500000	0.430280
O601	O60	0.539880	0.049970	0.049970
O611	O61	0.500000	0.430280	0.162730
O621	O62	0.460120	0.950030	0.950030
O631	O63	0.950030	0.539880	0.049970
O641	O64	0.460120	0.950030	0.049970
O651	O65	0.430280	0.500000	0.837270
O661	O66	0.569980	0.757320	0.500000
O671	O67	0.569720	0.162730	0.500000
O681	O68	0.950030	0.539880	0.950030
O691	O69	0.539880	0.049970	0.950030
O701	O70	0.049970	0.539880	0.950030
O711	O71	0.757320	0.430020	0.500000
O721	O72	0.162730	0.500000	0.569720
