data_KUDLUR_clean_PM
_symmetry_space_group_name_H-M	'P1'
_cell_length_a	13.350300
_cell_length_b	13.350300
_cell_length_c	14.385300
_cell_angle_alpha	90.000000
_cell_angle_beta	90.000000
_cell_angle_gamma	120.000000
_symmetry_Int_Tables_number 1

loop_
_symmetry_equiv_pos_as_xyz
'x,y,z'

loop_
_atom_site_label
_atom_site_type_symbol
_atom_site_fract_x
_atom_site_fract_y
_atom_site_fract_z
Dy11	Dy1	0.333330	0.666660	0.832500
Dy21	Dy2	0.666670	0.333340	0.667500
Dy31	Dy3	0.666670	0.333340	0.167500
Dy41	Dy4	0.333330	0.666660	0.332500
Cu11	Cu1	0.000000	0.500000	0.000000
Cu21	Cu2	0.500000	0.000000	0.000000
Cu31	Cu3	0.500000	0.500000	0.000000
Cu41	Cu4	0.500000	0.500000	0.500000
Cu51	Cu5	0.500000	0.000000	0.500000
Cu61	Cu6	0.000000	0.500000	0.500000
H11	H1	0.976200	0.649800	0.078400
H21	H2	0.138000	0.820200	0.021900
H31	H3	0.039800	0.747000	0.950000
H41	H4	0.085800	0.687600	0.194400
H51	H5	0.194000	0.734300	0.129000
H61	H6	0.673600	0.023800	0.078400
H71	H7	0.682200	0.862000	0.021900
H81	H8	0.707200	0.960200	0.950000
H91	H9	0.601800	0.914200	0.194400
H101	H10	0.540300	0.806000	0.129000
H111	H11	0.350200	0.326400	0.078400
H121	H12	0.179800	0.317800	0.021900
H131	H13	0.253000	0.292800	0.950000
H141	H14	0.312400	0.398200	0.194400
H151	H15	0.265700	0.459700	0.129000
H161	H16	0.326400	0.350200	0.421600
H171	H17	0.317800	0.179800	0.478100
H181	H18	0.292800	0.253000	0.550000
H191	H19	0.398200	0.312400	0.305600
H201	H20	0.459700	0.265700	0.371000
H211	H21	0.649800	0.976200	0.421600
H221	H22	0.820200	0.138000	0.478100
H231	H23	0.747000	0.039800	0.550000
H241	H24	0.687600	0.085800	0.305600
H251	H25	0.734300	0.194000	0.371000
H261	H26	0.023800	0.673600	0.421600
H271	H27	0.862000	0.682200	0.478100
H281	H28	0.960200	0.707200	0.550000
H291	H29	0.914200	0.601800	0.305600
H301	H30	0.806000	0.540300	0.371000
H311	H31	0.023800	0.350200	0.921600
H321	H32	0.862000	0.179800	0.978100
H331	H33	0.960200	0.253000	0.050000
H341	H34	0.914200	0.312400	0.805600
H351	H35	0.806000	0.265700	0.871000
H361	H36	0.326400	0.976200	0.921600
H371	H37	0.317800	0.138000	0.978100
H381	H38	0.292800	0.039800	0.050000
H391	H39	0.398200	0.085800	0.805600
H401	H40	0.459700	0.194000	0.871000
H411	H41	0.649800	0.673600	0.921600
H421	H42	0.820200	0.682200	0.978100
H431	H43	0.747000	0.707200	0.050000
H441	H44	0.687600	0.601800	0.805600
H451	H45	0.734300	0.540300	0.871000
H461	H46	0.673600	0.649800	0.578400
H471	H47	0.682200	0.820200	0.521900
H481	H48	0.707200	0.747000	0.450000
H491	H49	0.601800	0.687600	0.694400
H501	H50	0.540300	0.734300	0.629000
H511	H51	0.350200	0.023800	0.578400
H521	H52	0.179800	0.862000	0.521900
H531	H53	0.253000	0.960200	0.450000
H541	H54	0.312400	0.914200	0.694400
H551	H55	0.265700	0.806000	0.629000
H561	H56	0.976200	0.326400	0.578400
H571	H57	0.138000	0.317800	0.521900
H581	H58	0.039800	0.292800	0.450000
H591	H59	0.085800	0.398200	0.694400
H601	H60	0.194000	0.459700	0.629000
C11	C1	0.185000	0.731700	0.930100
C21	C2	0.098200	0.746500	0.989800
C31	C3	0.126300	0.562900	0.160900
C41	C4	0.117200	0.669300	0.140500
C51	C5	0.546700	0.815000	0.930100
C61	C6	0.648300	0.901800	0.989800
C71	C7	0.436600	0.873700	0.160900
C81	C8	0.552100	0.882800	0.140500
C91	C9	0.268300	0.453300	0.930100
C101	C10	0.253500	0.351700	0.989800
C111	C11	0.437100	0.563400	0.160900
C121	C12	0.330700	0.447900	0.140500
C131	C13	0.453300	0.268300	0.569900
C141	C14	0.351700	0.253500	0.510200
C151	C15	0.563400	0.437100	0.339100
C161	C16	0.447900	0.330700	0.359500
C171	C17	0.731700	0.185000	0.569900
C181	C18	0.746500	0.098200	0.510200
C191	C19	0.562900	0.126300	0.339100
C201	C20	0.669300	0.117200	0.359500
C211	C21	0.815000	0.546700	0.569900
C221	C22	0.901800	0.648300	0.510200
C231	C23	0.873700	0.436600	0.339100
C241	C24	0.882800	0.552100	0.359500
C251	C25	0.815000	0.268300	0.069900
C261	C26	0.901800	0.253500	0.010200
C271	C27	0.873700	0.437100	0.839100
C281	C28	0.882800	0.330700	0.859500
C291	C29	0.453300	0.185000	0.069900
C301	C30	0.351700	0.098200	0.010200
C311	C31	0.563400	0.126300	0.839100
C321	C32	0.447900	0.117200	0.859500
C331	C33	0.731700	0.546700	0.069900
C341	C34	0.746500	0.648300	0.010200
C351	C35	0.562900	0.436600	0.839100
C361	C36	0.669300	0.552100	0.859500
C371	C37	0.546700	0.731700	0.430100
C381	C38	0.648300	0.746500	0.489800
C391	C39	0.436600	0.562900	0.660900
C401	C40	0.552100	0.669300	0.640500
C411	C41	0.268300	0.815000	0.430100
C421	C42	0.253500	0.901800	0.489800
C431	C43	0.437100	0.873700	0.660900
C441	C44	0.330700	0.882800	0.640500
C451	C45	0.185000	0.453300	0.430100
C461	C46	0.098200	0.351700	0.489800
C471	C47	0.126300	0.563400	0.660900
C481	C48	0.117200	0.447900	0.640500
N11	N1	0.042200	0.652600	0.058200
N21	N2	0.610400	0.957800	0.058200
N31	N3	0.347400	0.389600	0.058200
N41	N4	0.389600	0.347400	0.441800
N51	N5	0.652600	0.042200	0.441800
N61	N6	0.957800	0.610400	0.441800
N71	N7	0.957800	0.347400	0.941800
N81	N8	0.389600	0.042200	0.941800
N91	N9	0.652600	0.610400	0.941800
N101	N10	0.610400	0.652600	0.558200
N111	N11	0.347400	0.957800	0.558200
N121	N12	0.042200	0.389600	0.558200
O11	O1	0.188800	0.639900	0.940500
O21	O2	0.245700	0.806500	0.872000
O31	O3	0.184500	0.565400	0.229500
O41	O4	0.075100	0.476800	0.108200
O51	O5	0.451100	0.811200	0.940500
O61	O6	0.560800	0.754300	0.872000
O71	O7	0.380900	0.815500	0.229500
O81	O8	0.401700	0.924900	0.108200
O91	O9	0.360100	0.548900	0.940500
O101	O10	0.193500	0.439200	0.872000
O111	O11	0.434600	0.619100	0.229500
O121	O12	0.523200	0.598300	0.108200
O131	O13	0.548900	0.360100	0.559500
O141	O14	0.439200	0.193500	0.628000
O151	O15	0.619100	0.434600	0.270500
O161	O16	0.598300	0.523200	0.391800
O171	O17	0.639900	0.188800	0.559500
O181	O18	0.806500	0.245700	0.628000
O191	O19	0.565400	0.184500	0.270500
O201	O20	0.476800	0.075100	0.391800
O211	O21	0.811200	0.451100	0.559500
O221	O22	0.754300	0.560800	0.628000
O231	O23	0.815500	0.380900	0.270500
O241	O24	0.924900	0.401700	0.391800
O251	O25	0.811200	0.360100	0.059500
O261	O26	0.754300	0.193500	0.128000
O271	O27	0.815500	0.434600	0.770500
O281	O28	0.924900	0.523200	0.891800
O291	O29	0.548900	0.188800	0.059500
O301	O30	0.439200	0.245700	0.128000
O311	O31	0.619100	0.184500	0.770500
O321	O32	0.598300	0.075100	0.891800
O331	O33	0.639900	0.451100	0.059500
O341	O34	0.806500	0.560800	0.128000
O351	O35	0.565400	0.380900	0.770500
O361	O36	0.476800	0.401700	0.891800
O371	O37	0.451100	0.639900	0.440500
O381	O38	0.560800	0.806500	0.372000
O391	O39	0.380900	0.565400	0.729500
O401	O40	0.401700	0.476800	0.608200
O411	O41	0.360100	0.811200	0.440500
O421	O42	0.193500	0.754300	0.372000
O431	O43	0.434600	0.815500	0.729500
O441	O44	0.523200	0.924900	0.608200
O451	O45	0.188800	0.548900	0.440500
O461	O46	0.245700	0.439200	0.372000
O471	O47	0.184500	0.619100	0.729500
O481	O48	0.075100	0.598300	0.608200
