data_KUDWAJ_clean_PM
_symmetry_space_group_name_H-M	'P1'
_cell_length_a	22.877000
_cell_length_b	23.111000
_cell_length_c	18.364000
_cell_angle_alpha	90.000000
_cell_angle_beta	105.399000
_cell_angle_gamma	90.000000
_symmetry_Int_Tables_number 1

loop_
_symmetry_equiv_pos_as_xyz
'x,y,z'

loop_
_atom_site_label
_atom_site_type_symbol
_atom_site_fract_x
_atom_site_fract_y
_atom_site_fract_z
Cu11	Cu1	0.649070	0.221690	0.557910
Cu21	Cu2	0.720610	0.304010	0.460790
N11	N1	0.809090	0.370140	0.814230
N21	N2	0.906870	0.377450	0.892860
N31	N3	0.845100	0.459330	0.865920
N41	N4	0.596070	0.227440	0.627960
N51	N5	0.642090	0.314740	0.385000
O11	O1	0.750890	0.449950	0.788870
O21	O2	0.941740	0.465110	0.941940
O31	O3	0.872130	0.292550	0.836890
O41	O4	0.718070	0.255690	0.636100
O51	O5	0.686190	0.333690	0.568050
O61	O6	0.075620	0.301100	0.980470
O71	O7	0.114340	0.339850	0.892590
O81	O8	0.819340	0.634570	0.903060
O91	O9	0.744690	0.615970	0.954460
O101	O10	0.800940	0.275940	0.515260
H11	H1	0.818700	0.298700	0.560800
C11	C1	0.798900	0.427500	0.821200
C21	C2	0.901160	0.435710	0.903100
C31	C3	0.863190	0.343480	0.847100
C41	C4	0.761470	0.336430	0.761000
H21	H2	0.721900	0.348900	0.764600
H31	H3	0.766000	0.295700	0.774000
C51	C5	0.766140	0.345070	0.680800
H41	H4	0.760200	0.385700	0.667600
H51	H5	0.806500	0.334300	0.678200
C61	C6	0.720170	0.309760	0.624900
C71	C7	0.965740	0.350170	0.931000
H61	H6	0.959100	0.310000	0.941900
H71	H7	0.983200	0.369700	0.978500
C81	C8	0.009390	0.353300	0.882100
H81	H8	0.013200	0.393300	0.868000
H91	H9	0.992800	0.331500	0.836100
C91	C9	0.071760	0.329930	0.920800
C101	C10	0.836810	0.522150	0.871700
H101	H10	0.815700	0.537300	0.822500
H111	H11	0.876200	0.540700	0.887300
C111	C11	0.800930	0.536620	0.928000
H121	H12	0.823700	0.524700	0.978100
H131	H13	0.763000	0.515400	0.915000
C121	C12	0.787930	0.601020	0.928000
C131	C13	0.586900	0.274800	0.663300
H141	H14	0.606900	0.308500	0.656300
C141	C14	0.548900	0.276500	0.710300
H151	H15	0.543000	0.311400	0.732600
C151	C15	0.520100	0.228900	0.724700
C161	C16	0.527800	0.179700	0.687000
H161	H16	0.507400	0.146000	0.693000
C171	C17	0.566000	0.179800	0.640000
H171	H17	0.571100	0.145700	0.615600
C181	C18	0.591960	0.329500	0.403900
H181	H18	0.594900	0.339400	0.453900
C191	C19	0.535670	0.330900	0.352600
H191	H19	0.501600	0.340400	0.368600
C201	C20	0.529840	0.318340	0.277500
C211	C21	0.581890	0.303600	0.259100
H201	H20	0.580400	0.294800	0.209200
C221	C22	0.636130	0.301600	0.312800
H211	H21	0.670500	0.290500	0.298300
Cu31	Cu3	0.149070	0.721690	0.557910
Cu41	Cu4	0.220610	0.804010	0.460790
N61	N6	0.309090	0.870140	0.814230
N71	N7	0.406870	0.877450	0.892860
N81	N8	0.345100	0.959330	0.865920
N91	N9	0.096070	0.727440	0.627960
N101	N10	0.142090	0.814740	0.385000
O111	O11	0.250890	0.949950	0.788870
O121	O12	0.441740	0.965110	0.941940
O131	O13	0.372130	0.792550	0.836890
O141	O14	0.218070	0.755690	0.636100
O151	O15	0.186190	0.833690	0.568050
O161	O16	0.575620	0.801100	0.980470
O171	O17	0.614340	0.839850	0.892590
O181	O18	0.319340	0.134570	0.903060
O191	O19	0.244690	0.115970	0.954460
O201	O20	0.300940	0.775940	0.515260
H221	H22	0.318700	0.798700	0.560800
C231	C23	0.298900	0.927500	0.821200
C241	C24	0.401160	0.935710	0.903100
C251	C25	0.363190	0.843480	0.847100
C261	C26	0.261470	0.836430	0.761000
H231	H23	0.221900	0.848900	0.764600
H241	H24	0.266000	0.795700	0.774000
C271	C27	0.266140	0.845070	0.680800
H251	H25	0.260200	0.885700	0.667600
H261	H26	0.306500	0.834300	0.678200
C281	C28	0.220170	0.809760	0.624900
C291	C29	0.465740	0.850170	0.931000
H271	H27	0.459100	0.810000	0.941900
H281	H28	0.483200	0.869700	0.978500
C301	C30	0.509390	0.853300	0.882100
H291	H29	0.513200	0.893300	0.868000
H301	H30	0.492800	0.831500	0.836100
C311	C31	0.571760	0.829930	0.920800
C321	C32	0.336810	0.022150	0.871700
H311	H31	0.315700	0.037300	0.822500
H321	H32	0.376200	0.040700	0.887300
C331	C33	0.300930	0.036620	0.928000
H331	H33	0.323700	0.024700	0.978100
H341	H34	0.263000	0.015400	0.915000
C341	C34	0.287930	0.101020	0.928000
C351	C35	0.086900	0.774800	0.663300
H351	H35	0.106900	0.808500	0.656300
C361	C36	0.048900	0.776500	0.710300
H361	H36	0.043000	0.811400	0.732600
C371	C37	0.020100	0.728900	0.724700
C381	C38	0.027800	0.679700	0.687000
H371	H37	0.007400	0.646000	0.693000
C391	C39	0.066000	0.679800	0.640000
H381	H38	0.071100	0.645700	0.615600
C401	C40	0.091960	0.829500	0.403900
H391	H39	0.094900	0.839400	0.453900
C411	C41	0.035670	0.830900	0.352600
H401	H40	0.001600	0.840400	0.368600
C421	C42	0.029840	0.818340	0.277500
C431	C43	0.081890	0.803600	0.259100
H411	H41	0.080400	0.794800	0.209200
C441	C44	0.136130	0.801600	0.312800
H421	H42	0.170500	0.790500	0.298300
Cu51	Cu5	0.350930	0.221690	0.942090
Cu61	Cu6	0.279390	0.304010	0.039210
N111	N11	0.190910	0.370140	0.685770
N121	N12	0.093130	0.377450	0.607140
N131	N13	0.154900	0.459330	0.634080
N141	N14	0.403930	0.227440	0.872040
N151	N15	0.357910	0.314740	0.115000
O211	O21	0.249110	0.449950	0.711130
O221	O22	0.058260	0.465110	0.558060
O231	O23	0.127870	0.292550	0.663110
O241	O24	0.281930	0.255690	0.863900
O251	O25	0.313810	0.333690	0.931950
O261	O26	0.924380	0.301100	0.519530
O271	O27	0.885660	0.339850	0.607410
O281	O28	0.180660	0.634570	0.596940
O291	O29	0.255310	0.615970	0.545540
O301	O30	0.199060	0.275940	0.984740
H431	H43	0.181300	0.298700	0.939200
C451	C45	0.201100	0.427500	0.678800
C461	C46	0.098840	0.435710	0.596900
C471	C47	0.136810	0.343480	0.652900
C481	C48	0.238530	0.336430	0.739000
H441	H44	0.278100	0.348900	0.735400
H451	H45	0.234000	0.295700	0.726000
C491	C49	0.233860	0.345070	0.819200
H461	H46	0.239800	0.385700	0.832400
H471	H47	0.193500	0.334300	0.821800
C501	C50	0.279830	0.309760	0.875100
C511	C51	0.034260	0.350170	0.569000
H481	H48	0.040900	0.310000	0.558100
H491	H49	0.016800	0.369700	0.521500
C521	C52	0.990610	0.353300	0.617900
H501	H50	0.986800	0.393300	0.632000
H511	H51	0.007200	0.331500	0.663900
C531	C53	0.928240	0.329930	0.579200
C541	C54	0.163190	0.522150	0.628300
H521	H52	0.184300	0.537300	0.677500
H531	H53	0.123800	0.540700	0.612700
C551	C55	0.199070	0.536620	0.572000
H541	H54	0.176300	0.524700	0.521900
H551	H55	0.237000	0.515400	0.585000
C561	C56	0.212070	0.601020	0.572000
C571	C57	0.413100	0.274800	0.836700
H561	H56	0.393100	0.308500	0.843700
C581	C58	0.451100	0.276500	0.789700
H571	H57	0.457000	0.311400	0.767400
C591	C59	0.479900	0.228900	0.775300
C601	C60	0.472200	0.179700	0.813000
H581	H58	0.492600	0.146000	0.807000
C611	C61	0.434000	0.179800	0.860000
H591	H59	0.428900	0.145700	0.884400
C621	C62	0.408040	0.329500	0.096100
H601	H60	0.405100	0.339400	0.046100
C631	C63	0.464330	0.330900	0.147400
H611	H61	0.498400	0.340400	0.131400
C641	C64	0.470160	0.318340	0.222500
C651	C65	0.418110	0.303600	0.240900
H621	H62	0.419600	0.294800	0.290800
C661	C66	0.363870	0.301600	0.187200
H631	H63	0.329500	0.290500	0.201700
Cu71	Cu7	0.850930	0.721690	0.942090
Cu81	Cu8	0.779390	0.804010	0.039210
N161	N16	0.690910	0.870140	0.685770
N171	N17	0.593130	0.877450	0.607140
N181	N18	0.654900	0.959330	0.634080
N191	N19	0.903930	0.727440	0.872040
N201	N20	0.857910	0.814740	0.115000
O311	O31	0.749110	0.949950	0.711130
O321	O32	0.558260	0.965110	0.558060
O331	O33	0.627870	0.792550	0.663110
O341	O34	0.781930	0.755690	0.863900
O351	O35	0.813810	0.833690	0.931950
O361	O36	0.424380	0.801100	0.519530
O371	O37	0.385660	0.839850	0.607410
O381	O38	0.680660	0.134570	0.596940
O391	O39	0.755310	0.115970	0.545540
O401	O40	0.699060	0.775940	0.984740
H641	H64	0.681300	0.798700	0.939200
C671	C67	0.701100	0.927500	0.678800
C681	C68	0.598840	0.935710	0.596900
C691	C69	0.636810	0.843480	0.652900
C701	C70	0.738530	0.836430	0.739000
H651	H65	0.778100	0.848900	0.735400
H661	H66	0.734000	0.795700	0.726000
C711	C71	0.733860	0.845070	0.819200
H671	H67	0.739800	0.885700	0.832400
H681	H68	0.693500	0.834300	0.821800
C721	C72	0.779830	0.809760	0.875100
C731	C73	0.534260	0.850170	0.569000
H691	H69	0.540900	0.810000	0.558100
H701	H70	0.516800	0.869700	0.521500
C741	C74	0.490610	0.853300	0.617900
H711	H71	0.486800	0.893300	0.632000
H721	H72	0.507200	0.831500	0.663900
C751	C75	0.428240	0.829930	0.579200
C761	C76	0.663190	0.022150	0.628300
H731	H73	0.684300	0.037300	0.677500
H741	H74	0.623800	0.040700	0.612700
C771	C77	0.699070	0.036620	0.572000
H751	H75	0.676300	0.024700	0.521900
H761	H76	0.737000	0.015400	0.585000
C781	C78	0.712070	0.101020	0.572000
C791	C79	0.913100	0.774800	0.836700
H771	H77	0.893100	0.808500	0.843700
C801	C80	0.951100	0.776500	0.789700
H781	H78	0.957000	0.811400	0.767400
C811	C81	0.979900	0.728900	0.775300
C821	C82	0.972200	0.679700	0.813000
H791	H79	0.992600	0.646000	0.807000
C831	C83	0.934000	0.679800	0.860000
H801	H80	0.928900	0.645700	0.884400
C841	C84	0.908040	0.829500	0.096100
H811	H81	0.905100	0.839400	0.046100
C851	C85	0.964330	0.830900	0.147400
H821	H82	0.998400	0.840400	0.131400
C861	C86	0.970160	0.818340	0.222500
C871	C87	0.918110	0.803600	0.240900
H831	H83	0.919600	0.794800	0.290800
C881	C88	0.863870	0.801600	0.187200
H841	H84	0.829500	0.790500	0.201700
Cu91	Cu9	0.350930	0.778320	0.442090
Cu101	Cu10	0.279390	0.695990	0.539210
N211	N21	0.190910	0.629860	0.185770
N221	N22	0.093130	0.622550	0.107140
N231	N23	0.154900	0.540670	0.134080
N241	N24	0.403930	0.772560	0.372040
N251	N25	0.357910	0.685260	0.615000
O411	O41	0.249110	0.550050	0.211130
O421	O42	0.058260	0.534890	0.058060
O431	O43	0.127870	0.707450	0.163110
O441	O44	0.281930	0.744310	0.363900
O451	O45	0.313810	0.666310	0.431950
O461	O46	0.924380	0.698900	0.019530
O471	O47	0.885660	0.660150	0.107410
O481	O48	0.180660	0.365430	0.096940
O491	O49	0.255310	0.384030	0.045540
O501	O50	0.199060	0.724060	0.484740
H851	H85	0.181300	0.701300	0.439200
C891	C89	0.201100	0.572500	0.178800
C901	C90	0.098840	0.564290	0.096900
C911	C91	0.136810	0.656520	0.152900
C921	C92	0.238530	0.663570	0.239000
H861	H86	0.278100	0.651100	0.235400
H871	H87	0.234000	0.704300	0.226000
C931	C93	0.233860	0.654930	0.319200
H881	H88	0.239800	0.614300	0.332400
H891	H89	0.193500	0.665700	0.321800
C941	C94	0.279830	0.690240	0.375100
C951	C95	0.034260	0.649830	0.069000
H901	H90	0.040900	0.690000	0.058100
H911	H91	0.016800	0.630300	0.021500
C961	C96	0.990610	0.646700	0.117900
H921	H92	0.986800	0.606700	0.132000
H931	H93	0.007200	0.668500	0.163900
C971	C97	0.928240	0.670070	0.079200
C981	C98	0.163190	0.477850	0.128300
H941	H94	0.184300	0.462700	0.177500
H951	H95	0.123800	0.459300	0.112700
C991	C99	0.199070	0.463380	0.072000
H961	H96	0.176300	0.475300	0.021900
H971	H97	0.237000	0.484600	0.085000
C1001	C100	0.212070	0.398980	0.072000
C1011	C101	0.413100	0.725200	0.336700
H981	H98	0.393100	0.691500	0.343700
C1021	C102	0.451100	0.723500	0.289700
H991	H99	0.457000	0.688600	0.267400
C1031	C103	0.479900	0.771100	0.275300
C1041	C104	0.472200	0.820300	0.313000
H1001	H100	0.492600	0.854000	0.307000
C1051	C105	0.434000	0.820200	0.360000
H1011	H101	0.428900	0.854300	0.384400
C1061	C106	0.408040	0.670500	0.596100
H1021	H102	0.405100	0.660600	0.546100
C1071	C107	0.464330	0.669100	0.647400
H1031	H103	0.498400	0.659600	0.631400
C1081	C108	0.470160	0.681660	0.722500
C1091	C109	0.418110	0.696400	0.740900
H1041	H104	0.419600	0.705200	0.790800
C1101	C110	0.363870	0.698400	0.687200
H1051	H105	0.329500	0.709500	0.701700
Cu111	Cu11	0.850930	0.278310	0.442090
Cu121	Cu12	0.779390	0.195990	0.539210
N261	N26	0.690910	0.129860	0.185770
N271	N27	0.593130	0.122550	0.107140
N281	N28	0.654900	0.040670	0.134080
N291	N29	0.903930	0.272560	0.372040
N301	N30	0.857910	0.185260	0.615000
O511	O51	0.749110	0.050050	0.211130
O521	O52	0.558260	0.034890	0.058060
O531	O53	0.627870	0.207450	0.163110
O541	O54	0.781930	0.244310	0.363900
O551	O55	0.813810	0.166310	0.431950
O561	O56	0.424380	0.198900	0.019530
O571	O57	0.385660	0.160150	0.107410
O581	O58	0.680660	0.865430	0.096940
O591	O59	0.755310	0.884030	0.045540
O601	O60	0.699060	0.224060	0.484740
H1061	H106	0.681300	0.201300	0.439200
C1111	C111	0.701100	0.072500	0.178800
C1121	C112	0.598840	0.064290	0.096900
C1131	C113	0.636810	0.156520	0.152900
C1141	C114	0.738530	0.163570	0.239000
H1071	H107	0.778100	0.151100	0.235400
H1081	H108	0.734000	0.204300	0.226000
C1151	C115	0.733860	0.154930	0.319200
H1091	H109	0.739800	0.114300	0.332400
H1101	H110	0.693500	0.165700	0.321800
C1161	C116	0.779830	0.190240	0.375100
C1171	C117	0.534260	0.149830	0.069000
H1111	H111	0.540900	0.190000	0.058100
H1121	H112	0.516800	0.130300	0.021500
C1181	C118	0.490610	0.146700	0.117900
H1131	H113	0.486800	0.106700	0.132000
H1141	H114	0.507200	0.168500	0.163900
C1191	C119	0.428240	0.170070	0.079200
C1201	C120	0.663190	0.977850	0.128300
H1151	H115	0.684300	0.962700	0.177500
H1161	H116	0.623800	0.959300	0.112700
C1211	C121	0.699070	0.963380	0.072000
H1171	H117	0.676300	0.975300	0.021900
H1181	H118	0.737000	0.984600	0.085000
C1221	C122	0.712070	0.898980	0.072000
C1231	C123	0.913100	0.225200	0.336700
H1191	H119	0.893100	0.191500	0.343700
C1241	C124	0.951100	0.223500	0.289700
H1201	H120	0.957000	0.188600	0.267400
C1251	C125	0.979900	0.271100	0.275300
C1261	C126	0.972200	0.320300	0.313000
H1211	H121	0.992600	0.354000	0.307000
C1271	C127	0.934000	0.320200	0.360000
H1221	H122	0.928900	0.354300	0.384400
C1281	C128	0.908040	0.170500	0.596100
H1231	H123	0.905100	0.160600	0.546100
C1291	C129	0.964330	0.169100	0.647400
H1241	H124	0.998400	0.159600	0.631400
C1301	C130	0.970160	0.181660	0.722500
C1311	C131	0.918110	0.196400	0.740900
H1251	H125	0.919600	0.205200	0.790800
C1321	C132	0.863870	0.198400	0.687200
H1261	H126	0.829500	0.209500	0.701700
Cu131	Cu13	0.649070	0.778320	0.057910
Cu141	Cu14	0.720610	0.695990	0.960790
N311	N31	0.809090	0.629860	0.314230
N321	N32	0.906870	0.622550	0.392860
N331	N33	0.845100	0.540670	0.365920
N341	N34	0.596070	0.772560	0.127960
N351	N35	0.642090	0.685260	0.885000
O611	O61	0.750890	0.550050	0.288870
O621	O62	0.941740	0.534890	0.441940
O631	O63	0.872130	0.707450	0.336890
O641	O64	0.718070	0.744310	0.136100
O651	O65	0.686190	0.666310	0.068050
O661	O66	0.075620	0.698900	0.480470
O671	O67	0.114340	0.660150	0.392590
O681	O68	0.819340	0.365430	0.403060
O691	O69	0.744690	0.384030	0.454460
O701	O70	0.800940	0.724060	0.015260
H1271	H127	0.818700	0.701300	0.060800
C1331	C133	0.798900	0.572500	0.321200
C1341	C134	0.901160	0.564290	0.403100
C1351	C135	0.863190	0.656520	0.347100
C1361	C136	0.761470	0.663570	0.261000
H1281	H128	0.721900	0.651100	0.264600
H1291	H129	0.766000	0.704300	0.274000
C1371	C137	0.766140	0.654930	0.180800
H1301	H130	0.760200	0.614300	0.167600
H1311	H131	0.806500	0.665700	0.178200
C1381	C138	0.720170	0.690240	0.124900
C1391	C139	0.965740	0.649830	0.431000
H1321	H132	0.959100	0.690000	0.441900
H1331	H133	0.983200	0.630300	0.478500
C1401	C140	0.009390	0.646700	0.382100
H1341	H134	0.013200	0.606700	0.368000
H1351	H135	0.992800	0.668500	0.336100
C1411	C141	0.071760	0.670070	0.420800
C1421	C142	0.836810	0.477850	0.371700
H1361	H136	0.815700	0.462700	0.322500
H1371	H137	0.876200	0.459300	0.387300
C1431	C143	0.800930	0.463380	0.428000
H1381	H138	0.823700	0.475300	0.478100
H1391	H139	0.763000	0.484600	0.415000
C1441	C144	0.787930	0.398980	0.428000
C1451	C145	0.586900	0.725200	0.163300
H1401	H140	0.606900	0.691500	0.156300
C1461	C146	0.548900	0.723500	0.210300
H1411	H141	0.543000	0.688600	0.232600
C1471	C147	0.520100	0.771100	0.224700
C1481	C148	0.527800	0.820300	0.187000
H1421	H142	0.507400	0.854000	0.193000
C1491	C149	0.566000	0.820200	0.140000
H1431	H143	0.571100	0.854300	0.115600
C1501	C150	0.591960	0.670500	0.903900
H1441	H144	0.594900	0.660600	0.953900
C1511	C151	0.535670	0.669100	0.852600
H1451	H145	0.501600	0.659600	0.868600
C1521	C152	0.529840	0.681660	0.777500
C1531	C153	0.581890	0.696400	0.759100
H1461	H146	0.580400	0.705200	0.709200
C1541	C154	0.636130	0.698400	0.812800
H1471	H147	0.670500	0.709500	0.798300
Cu151	Cu15	0.149070	0.278310	0.057910
Cu161	Cu16	0.220610	0.195990	0.960790
N361	N36	0.309090	0.129860	0.314230
N371	N37	0.406870	0.122550	0.392860
N381	N38	0.345100	0.040670	0.365920
N391	N39	0.096070	0.272560	0.127960
N401	N40	0.142090	0.185260	0.885000
O711	O71	0.250890	0.050050	0.288870
O721	O72	0.441740	0.034890	0.441940
O731	O73	0.372130	0.207450	0.336890
O741	O74	0.218070	0.244310	0.136100
O751	O75	0.186190	0.166310	0.068050
O761	O76	0.575620	0.198900	0.480470
O771	O77	0.614340	0.160150	0.392590
O781	O78	0.319340	0.865430	0.403060
O791	O79	0.244690	0.884030	0.454460
O801	O80	0.300940	0.224060	0.015260
H1481	H148	0.318700	0.201300	0.060800
C1551	C155	0.298900	0.072500	0.321200
C1561	C156	0.401160	0.064290	0.403100
C1571	C157	0.363190	0.156520	0.347100
C1581	C158	0.261470	0.163570	0.261000
H1491	H149	0.221900	0.151100	0.264600
H1501	H150	0.266000	0.204300	0.274000
C1591	C159	0.266140	0.154930	0.180800
H1511	H151	0.260200	0.114300	0.167600
H1521	H152	0.306500	0.165700	0.178200
C1601	C160	0.220170	0.190240	0.124900
C1611	C161	0.465740	0.149830	0.431000
H1531	H153	0.459100	0.190000	0.441900
H1541	H154	0.483200	0.130300	0.478500
C1621	C162	0.509390	0.146700	0.382100
H1551	H155	0.513200	0.106700	0.368000
H1561	H156	0.492800	0.168500	0.336100
C1631	C163	0.571760	0.170070	0.420800
C1641	C164	0.336810	0.977850	0.371700
H1571	H157	0.315700	0.962700	0.322500
H1581	H158	0.376200	0.959300	0.387300
C1651	C165	0.300930	0.963380	0.428000
H1591	H159	0.323700	0.975300	0.478100
H1601	H160	0.263000	0.984600	0.415000
C1661	C166	0.287930	0.898980	0.428000
C1671	C167	0.086900	0.225200	0.163300
H1611	H161	0.106900	0.191500	0.156300
C1681	C168	0.048900	0.223500	0.210300
H1621	H162	0.043000	0.188600	0.232600
C1691	C169	0.020100	0.271100	0.224700
C1701	C170	0.027800	0.320300	0.187000
H1631	H163	0.007400	0.354000	0.193000
C1711	C171	0.066000	0.320200	0.140000
H1641	H164	0.071100	0.354300	0.115600
C1721	C172	0.091960	0.170500	0.903900
H1651	H165	0.094900	0.160600	0.953900
C1731	C173	0.035670	0.169100	0.852600
H1661	H166	0.001600	0.159600	0.868600
C1741	C174	0.029840	0.181660	0.777500
C1751	C175	0.081890	0.196400	0.759100
H1671	H167	0.080400	0.205200	0.709200
C1761	C176	0.136130	0.198400	0.812800
H1681	H168	0.170500	0.209500	0.798300
