data_KUFBEU_clean_PM
_symmetry_space_group_name_H-M	'P1'
_cell_length_a	10.415000
_cell_length_b	10.226000
_cell_length_c	8.719800
_cell_angle_alpha	90.000000
_cell_angle_beta	109.450000
_cell_angle_gamma	90.000000
_symmetry_Int_Tables_number 1

loop_
_symmetry_equiv_pos_as_xyz
'x,y,z'

loop_
_atom_site_label
_atom_site_type_symbol
_atom_site_fract_x
_atom_site_fract_y
_atom_site_fract_z
O11	O1	0.702100	0.081700	0.274400
O21	O2	0.575500	0.097800	0.493300
C11	C1	0.771000	0.129900	0.410200
C21	C2	0.695300	0.143000	0.535700
O31	O3	0.892200	0.166000	0.454500
O41	O4	0.754500	0.194000	0.669800
O51	O5	0.111700	0.367300	0.564600
O61	O6	0.879500	0.461400	0.592100
C31	C3	0.067900	0.472900	0.492300
O71	O7	0.297900	0.081700	0.225600
O81	O8	0.424500	0.097800	0.006700
C41	C4	0.229000	0.129900	0.089800
C51	C5	0.304700	0.143000	0.964300
O91	O9	0.107800	0.166000	0.045500
O101	O10	0.245500	0.194000	0.830200
O111	O11	0.888300	0.367300	0.935400
O121	O12	0.120500	0.461400	0.907900
C61	C6	0.932100	0.472900	0.007700
O131	O13	0.297900	0.918300	0.725600
O141	O14	0.424500	0.902200	0.506700
C71	C7	0.229000	0.870100	0.589800
C81	C8	0.304700	0.857000	0.464300
O151	O15	0.107800	0.834000	0.545500
O161	O16	0.245500	0.806000	0.330200
O171	O17	0.888300	0.632700	0.435400
O181	O18	0.120500	0.538600	0.407900
C91	C9	0.932100	0.527100	0.507700
O191	O19	0.702100	0.918300	0.774400
O201	O20	0.575500	0.902200	0.993300
C101	C10	0.771000	0.870100	0.910200
C111	C11	0.695300	0.857000	0.035700
O211	O21	0.892200	0.834000	0.954500
O221	O22	0.754500	0.806000	0.169800
O231	O23	0.111700	0.632700	0.064600
O241	O24	0.879500	0.538600	0.092100
C121	C12	0.067900	0.527100	0.992300
La11	La1	0.500000	0.931960	0.250000
La21	La2	0.500000	0.068040	0.750000
La31	La3	0.000000	0.263790	0.750000
La41	La4	0.000000	0.736210	0.250000
