data_KUFVAK_clean_PM
_symmetry_space_group_name_H-M	'P1'
_cell_length_a	14.460000
_cell_length_b	13.063000
_cell_length_c	22.054000
_cell_angle_alpha	90.000000
_cell_angle_beta	125.160000
_cell_angle_gamma	90.000000
_symmetry_Int_Tables_number 1

loop_
_symmetry_equiv_pos_as_xyz
'x,y,z'

loop_
_atom_site_label
_atom_site_type_symbol
_atom_site_fract_x
_atom_site_fract_y
_atom_site_fract_z
Mn11	Mn1	0.227330	0.557720	0.727070
Mn21	Mn2	0.295070	0.729150	0.868790
O11	O1	0.236800	0.589100	0.885450
O21	O2	0.155200	0.502100	0.779300
O31	O3	0.853300	0.259400	0.741440
O41	O4	0.902900	0.160000	0.837600
O51	O5	0.203000	0.056900	0.149760
O61	O6	0.356900	0.081800	0.261080
O71	O7	0.644100	0.343500	0.281800
O81	O8	0.628700	0.362100	0.177280
C11	C1	0.183400	0.514100	0.844300
C21	C2	0.151300	0.429000	0.874800
C31	C3	0.224100	0.402400	0.949000
H11	H1	0.288300	0.441800	0.980300
C41	C4	0.202700	0.317500	0.977900
C51	C5	0.101700	0.264500	0.929900
H21	H2	0.084800	0.208200	0.947700
C61	C6	0.025600	0.293700	0.856000
C71	C7	0.918200	0.233400	0.807400
C81	C8	0.051900	0.373900	0.827900
H31	H3	0.003600	0.391100	0.778000
C91	C9	0.284300	0.283800	0.055400
C101	C10	0.396200	0.318400	0.097200
H41	H4	0.420300	0.361200	0.075200
C111	C11	0.472200	0.290100	0.170800
C121	C12	0.588400	0.332500	0.213200
C131	C13	0.438500	0.224800	0.204200
H51	H5	0.488400	0.207900	0.254100
C141	C14	0.329200	0.184300	0.162300
C151	C15	0.295100	0.103800	0.193900
C161	C16	0.253800	0.215600	0.089600
H61	H6	0.180300	0.190200	0.062600
Mn31	Mn3	0.772670	0.057720	0.772930
Mn41	Mn4	0.704930	0.229150	0.631210
O91	O9	0.763200	0.089100	0.614550
O101	O10	0.844800	0.002100	0.720700
O111	O11	0.146700	0.759400	0.758560
O121	O12	0.097100	0.660000	0.662400
O131	O13	0.797000	0.556900	0.350240
O141	O14	0.643100	0.581800	0.238920
O151	O15	0.355900	0.843500	0.218200
O161	O16	0.371300	0.862100	0.322720
C171	C17	0.816600	0.014100	0.655700
C181	C18	0.848700	0.929000	0.625200
C191	C19	0.775900	0.902400	0.551000
H71	H7	0.711700	0.941800	0.519700
C201	C20	0.797300	0.817500	0.522100
C211	C21	0.898300	0.764500	0.570100
H81	H8	0.915200	0.708200	0.552300
C221	C22	0.974400	0.793700	0.644000
C231	C23	0.081800	0.733400	0.692600
C241	C24	0.948100	0.873900	0.672100
H91	H9	0.996400	0.891100	0.722000
C251	C25	0.715700	0.783800	0.444600
C261	C26	0.603800	0.818400	0.402800
H101	H10	0.579700	0.861200	0.424800
C271	C27	0.527800	0.790100	0.329200
C281	C28	0.411600	0.832500	0.286800
C291	C29	0.561500	0.724800	0.295800
H111	H11	0.511600	0.707900	0.245900
C301	C30	0.670800	0.684300	0.337700
C311	C31	0.704900	0.603800	0.306100
C321	C32	0.746200	0.715600	0.410400
H121	H12	0.819700	0.690200	0.437400
Mn51	Mn5	0.772670	0.442280	0.272930
Mn61	Mn6	0.704930	0.270850	0.131210
O171	O17	0.763200	0.410900	0.114550
O181	O18	0.844800	0.497900	0.220700
O191	O19	0.146700	0.740600	0.258560
O201	O20	0.097100	0.840000	0.162400
O211	O21	0.797000	0.943100	0.850240
O221	O22	0.643100	0.918200	0.738920
O231	O23	0.355900	0.656500	0.718200
O241	O24	0.371300	0.637900	0.822720
C331	C33	0.816600	0.485900	0.155700
C341	C34	0.848700	0.571000	0.125200
C351	C35	0.775900	0.597600	0.051000
H131	H13	0.711700	0.558200	0.019700
C361	C36	0.797300	0.682500	0.022100
C371	C37	0.898300	0.735500	0.070100
H141	H14	0.915200	0.791800	0.052300
C381	C38	0.974400	0.706300	0.144000
C391	C39	0.081800	0.766600	0.192600
C401	C40	0.948100	0.626100	0.172100
H151	H15	0.996400	0.608900	0.222000
C411	C41	0.715700	0.716200	0.944600
C421	C42	0.603800	0.681600	0.902800
H161	H16	0.579700	0.638800	0.924800
C431	C43	0.527800	0.709900	0.829200
C441	C44	0.411600	0.667500	0.786800
C451	C45	0.561500	0.775200	0.795800
H171	H17	0.511600	0.792100	0.745900
C461	C46	0.670800	0.815700	0.837700
C471	C47	0.704900	0.896200	0.806100
C481	C48	0.746200	0.784400	0.910400
H181	H18	0.819700	0.809800	0.937400
Mn71	Mn7	0.227330	0.942280	0.227070
Mn81	Mn8	0.295070	0.770850	0.368790
O251	O25	0.236800	0.910900	0.385450
O261	O26	0.155200	0.997900	0.279300
O271	O27	0.853300	0.240600	0.241440
O281	O28	0.902900	0.340000	0.337600
O291	O29	0.203000	0.443100	0.649760
O301	O30	0.356900	0.418200	0.761080
O311	O31	0.644100	0.156500	0.781800
O321	O32	0.628700	0.137900	0.677280
C491	C49	0.183400	0.985900	0.344300
C501	C50	0.151300	0.071000	0.374800
C511	C51	0.224100	0.097600	0.449000
H191	H19	0.288300	0.058200	0.480300
C521	C52	0.202700	0.182500	0.477900
C531	C53	0.101700	0.235500	0.429900
H201	H20	0.084800	0.291800	0.447700
C541	C54	0.025600	0.206300	0.356000
C551	C55	0.918200	0.266600	0.307400
C561	C56	0.051900	0.126100	0.327900
H211	H21	0.003600	0.108900	0.278000
C571	C57	0.284300	0.216200	0.555400
C581	C58	0.396200	0.181600	0.597200
H221	H22	0.420300	0.138800	0.575200
C591	C59	0.472200	0.209900	0.670800
C601	C60	0.588400	0.167500	0.713200
C611	C61	0.438500	0.275200	0.704200
H231	H23	0.488400	0.292100	0.754100
C621	C62	0.329200	0.315700	0.662300
C631	C63	0.295100	0.396200	0.693900
C641	C64	0.253800	0.284400	0.589600
H241	H24	0.180300	0.309800	0.562600
