data_KUFVIS_clean_PM
_symmetry_space_group_name_H-M	'P1'
_cell_length_a	13.153000
_cell_length_b	13.986000
_cell_length_c	21.683000
_cell_angle_alpha	90.000000
_cell_angle_beta	121.056000
_cell_angle_gamma	90.000000
_symmetry_Int_Tables_number 1

loop_
_symmetry_equiv_pos_as_xyz
'x,y,z'

loop_
_atom_site_label
_atom_site_type_symbol
_atom_site_fract_x
_atom_site_fract_y
_atom_site_fract_z
Mn11	Mn1	0.725260	0.545710	0.725260
Mn21	Mn2	0.776250	0.703940	0.860400
O11	O1	0.590700	0.643300	0.661400
O21	O2	0.636500	0.737100	0.755000
O31	O3	0.359600	0.002300	0.720000
O41	O4	0.268100	0.071300	0.612000
O51	O5	0.306800	0.558800	0.356300
O61	O6	0.156400	0.587000	0.248300
O71	O7	0.877600	0.867200	0.221200
O81	O8	0.871600	0.881800	0.320100
N11	N1	0.938500	0.720200	0.971300
N21	N2	0.870300	0.839800	0.858100
C11	C1	0.573200	0.713700	0.689500
C21	C2	0.470500	0.777900	0.642100
C31	C3	0.446300	0.857700	0.669800
H11	H1	0.491800	0.870700	0.718800
C41	C4	0.353800	0.918800	0.624400
C51	C5	0.324900	0.003900	0.654400
C61	C6	0.286800	0.898200	0.550700
H21	H2	0.228600	0.941200	0.519900
C71	C7	0.304700	0.816200	0.522600
C81	C8	0.400000	0.756100	0.569800
H31	H3	0.415400	0.701000	0.551900
C91	C9	0.227000	0.789400	0.444800
C101	C10	0.257800	0.717500	0.413600
H41	H4	0.329700	0.685900	0.441500
C111	C11	0.184900	0.691100	0.342000
C121	C12	0.217000	0.609400	0.312500
C131	C13	0.077200	0.739800	0.299400
H51	H5	0.029700	0.725600	0.250700
C141	C14	0.042700	0.808100	0.329800
C151	C15	0.923500	0.854900	0.286600
C161	C16	0.115900	0.833800	0.402200
H61	H6	0.090900	0.880300	0.422200
C171	C17	0.838300	0.892400	0.799900
H71	H7	0.770400	0.877300	0.756400
C181	C18	0.911100	0.974100	0.805200
H81	H8	0.890300	0.010200	0.764300
C191	C19	0.003900	0.997300	0.865800
H91	H9	0.049000	0.049900	0.868200
C201	C20	0.036300	0.944800	0.926700
C211	C21	0.136100	0.966400	0.994000
H101	H10	0.181900	0.019500	0.998500
C221	C22	0.168300	0.909800	0.054600
H111	H11	0.232800	0.927700	0.098900
C231	C23	0.103100	0.823800	0.049700
C241	C24	0.133900	0.772700	0.104300
H121	H12	0.197400	0.790800	0.149000
C251	C25	0.068100	0.683600	0.096700
H131	H13	0.090200	0.643400	0.135800
C261	C26	0.967000	0.660900	0.025600
H141	H14	0.923200	0.605500	0.018400
C271	C27	0.001600	0.801800	0.980900
C281	C28	0.967700	0.864200	0.918300
Mn31	Mn3	0.274740	0.045710	0.774740
Mn41	Mn4	0.223750	0.203940	0.639600
O91	O9	0.409300	0.143300	0.838600
O101	O10	0.363500	0.237100	0.745000
O111	O11	0.640400	0.502300	0.780000
O121	O12	0.731900	0.571300	0.888000
O131	O13	0.693200	0.058800	0.143700
O141	O14	0.843600	0.087000	0.251700
O151	O15	0.122400	0.367200	0.278800
O161	O16	0.128400	0.381800	0.179900
N31	N3	0.061500	0.220200	0.528700
N41	N4	0.129700	0.339800	0.641900
C291	C29	0.426800	0.213700	0.810500
C301	C30	0.529500	0.277900	0.857900
C311	C31	0.553700	0.357700	0.830200
H151	H15	0.508200	0.370700	0.781200
C321	C32	0.646200	0.418800	0.875600
C331	C33	0.675100	0.503900	0.845600
C341	C34	0.713200	0.398200	0.949300
H161	H16	0.771400	0.441200	0.980100
C351	C35	0.695300	0.316200	0.977400
C361	C36	0.600000	0.256100	0.930200
H171	H17	0.584600	0.201000	0.948100
C371	C37	0.773000	0.289400	0.055200
C381	C38	0.742200	0.217500	0.086400
H181	H18	0.670300	0.185900	0.058500
C391	C39	0.815100	0.191100	0.158000
C401	C40	0.783000	0.109400	0.187500
C411	C41	0.922800	0.239800	0.200600
H191	H19	0.970300	0.225600	0.249300
C421	C42	0.957300	0.308100	0.170200
C431	C43	0.076500	0.354900	0.213400
C441	C44	0.884100	0.333800	0.097800
H201	H20	0.909100	0.380300	0.077800
C451	C45	0.161700	0.392400	0.700100
H211	H21	0.229600	0.377300	0.743600
C461	C46	0.088900	0.474100	0.694800
H221	H22	0.109700	0.510200	0.735700
C471	C47	0.996100	0.497300	0.634200
H231	H23	0.951000	0.549900	0.631800
C481	C48	0.963700	0.444800	0.573300
C491	C49	0.863900	0.466400	0.506000
H241	H24	0.818100	0.519500	0.501500
C501	C50	0.831700	0.409800	0.445400
H251	H25	0.767200	0.427700	0.401100
C511	C51	0.896900	0.323800	0.450300
C521	C52	0.866100	0.272700	0.395700
H261	H26	0.802600	0.290800	0.351000
C531	C53	0.931900	0.183600	0.403300
H271	H27	0.909800	0.143400	0.364200
C541	C54	0.033000	0.160900	0.474400
H281	H28	0.076800	0.105500	0.481600
C551	C55	0.998400	0.301800	0.519100
C561	C56	0.032300	0.364200	0.581700
Mn51	Mn5	0.274740	0.454290	0.274740
Mn61	Mn6	0.223750	0.296060	0.139600
O171	O17	0.409300	0.356700	0.338600
O181	O18	0.363500	0.262900	0.245000
O191	O19	0.640400	0.997700	0.280000
O201	O20	0.731900	0.928700	0.388000
O211	O21	0.693200	0.441200	0.643700
O221	O22	0.843600	0.413000	0.751700
O231	O23	0.122400	0.132800	0.778800
O241	O24	0.128400	0.118200	0.679900
N51	N5	0.061500	0.279800	0.028700
N61	N6	0.129700	0.160200	0.141900
C571	C57	0.426800	0.286300	0.310500
C581	C58	0.529500	0.222100	0.357900
C591	C59	0.553700	0.142300	0.330200
H291	H29	0.508200	0.129300	0.281200
C601	C60	0.646200	0.081200	0.375600
C611	C61	0.675100	0.996100	0.345600
C621	C62	0.713200	0.101800	0.449300
H301	H30	0.771400	0.058800	0.480100
C631	C63	0.695300	0.183800	0.477400
C641	C64	0.600000	0.243900	0.430200
H311	H31	0.584600	0.299000	0.448100
C651	C65	0.773000	0.210600	0.555200
C661	C66	0.742200	0.282500	0.586400
H321	H32	0.670300	0.314100	0.558500
C671	C67	0.815100	0.308900	0.658000
C681	C68	0.783000	0.390600	0.687500
C691	C69	0.922800	0.260200	0.700600
H331	H33	0.970300	0.274400	0.749300
C701	C70	0.957300	0.191900	0.670200
C711	C71	0.076500	0.145100	0.713400
C721	C72	0.884100	0.166200	0.597800
H341	H34	0.909100	0.119700	0.577800
C731	C73	0.161700	0.107600	0.200100
H351	H35	0.229600	0.122700	0.243600
C741	C74	0.088900	0.025900	0.194800
H361	H36	0.109700	0.989800	0.235700
C751	C75	0.996100	0.002700	0.134200
H371	H37	0.951000	0.950100	0.131800
C761	C76	0.963700	0.055200	0.073300
C771	C77	0.863900	0.033600	0.006000
H381	H38	0.818100	0.980500	0.001500
C781	C78	0.831700	0.090200	0.945400
H391	H39	0.767200	0.072300	0.901100
C791	C79	0.896900	0.176200	0.950300
C801	C80	0.866100	0.227300	0.895700
H401	H40	0.802600	0.209200	0.851000
C811	C81	0.931900	0.316400	0.903300
H411	H41	0.909800	0.356600	0.864200
C821	C82	0.033000	0.339100	0.974400
H421	H42	0.076800	0.394500	0.981600
C831	C83	0.998400	0.198200	0.019100
C841	C84	0.032300	0.135800	0.081700
Mn71	Mn7	0.725260	0.954290	0.225260
Mn81	Mn8	0.776250	0.796060	0.360400
O251	O25	0.590700	0.856700	0.161400
O261	O26	0.636500	0.762900	0.255000
O271	O27	0.359600	0.497700	0.220000
O281	O28	0.268100	0.428700	0.112000
O291	O29	0.306800	0.941200	0.856300
O301	O30	0.156400	0.913000	0.748300
O311	O31	0.877600	0.632800	0.721200
O321	O32	0.871600	0.618200	0.820100
N71	N7	0.938500	0.779800	0.471300
N81	N8	0.870300	0.660200	0.358100
C851	C85	0.573200	0.786300	0.189500
C861	C86	0.470500	0.722100	0.142100
C871	C87	0.446300	0.642300	0.169800
H431	H43	0.491800	0.629300	0.218800
C881	C88	0.353800	0.581200	0.124400
C891	C89	0.324900	0.496100	0.154400
C901	C90	0.286800	0.601800	0.050700
H441	H44	0.228600	0.558800	0.019900
C911	C91	0.304700	0.683800	0.022600
C921	C92	0.400000	0.743900	0.069800
H451	H45	0.415400	0.799000	0.051900
C931	C93	0.227000	0.710600	0.944800
C941	C94	0.257800	0.782500	0.913600
H461	H46	0.329700	0.814100	0.941500
C951	C95	0.184900	0.808900	0.842000
C961	C96	0.217000	0.890600	0.812500
C971	C97	0.077200	0.760200	0.799400
H471	H47	0.029700	0.774400	0.750700
C981	C98	0.042700	0.691900	0.829800
C991	C99	0.923500	0.645100	0.786600
C1001	C100	0.115900	0.666200	0.902200
H481	H48	0.090900	0.619700	0.922200
C1011	C101	0.838300	0.607600	0.299900
H491	H49	0.770400	0.622700	0.256400
C1021	C102	0.911100	0.525900	0.305200
H501	H50	0.890300	0.489800	0.264300
C1031	C103	0.003900	0.502700	0.365800
H511	H51	0.049000	0.450100	0.368200
C1041	C104	0.036300	0.555200	0.426700
C1051	C105	0.136100	0.533600	0.494000
H521	H52	0.181900	0.480500	0.498500
C1061	C106	0.168300	0.590200	0.554600
H531	H53	0.232800	0.572300	0.598900
C1071	C107	0.103100	0.676200	0.549700
C1081	C108	0.133900	0.727300	0.604300
H541	H54	0.197400	0.709200	0.649000
C1091	C109	0.068100	0.816400	0.596700
H551	H55	0.090200	0.856600	0.635800
C1101	C110	0.967000	0.839100	0.525600
H561	H56	0.923200	0.894500	0.518400
C1111	C111	0.001600	0.698200	0.480900
C1121	C112	0.967700	0.635800	0.418300
