data_KUGQIN_clean_PM
_symmetry_space_group_name_H-M	'P1'
_cell_length_a	9.903300
_cell_length_b	9.903300
_cell_length_c	14.626000
_cell_angle_alpha	84.667200
_cell_angle_beta	71.123500
_cell_angle_gamma	112.639000
_symmetry_Int_Tables_number 1

loop_
_symmetry_equiv_pos_as_xyz
'x,y,z'

loop_
_atom_site_label
_atom_site_type_symbol
_atom_site_fract_x
_atom_site_fract_y
_atom_site_fract_z
La11	La1	0.727950	0.462780	0.985940
La21	La2	0.948720	0.713890	0.514060
La31	La3	0.272050	0.537220	0.014060
La41	La4	0.051280	0.286110	0.485940
H11	H1	0.986000	0.887000	0.869000
H21	H2	0.058000	0.140000	0.800000
H31	H3	0.275000	0.333000	0.800000
H41	H4	0.345000	0.012000	0.947000
H51	H5	0.256000	0.855000	0.631000
H61	H6	0.440000	0.858000	0.700000
H71	H7	0.633000	0.075000	0.700000
H81	H8	0.459000	0.292000	0.553000
H91	H9	0.014000	0.113000	0.131000
H101	H10	0.942000	0.860000	0.200000
H111	H11	0.725000	0.667000	0.200000
H121	H12	0.655000	0.988000	0.053000
H131	H13	0.744000	0.145000	0.369000
H141	H14	0.560000	0.142000	0.300000
H151	H15	0.367000	0.925000	0.300000
H161	H16	0.541000	0.708000	0.447000
C11	C1	0.326600	0.189000	0.885000
C21	C2	0.100500	0.763900	0.970600
C31	C3	0.459800	0.310700	0.899500
C41	C4	0.237400	0.224300	0.839300
C51	C5	0.285900	0.038300	0.923600
C61	C6	0.831800	0.677200	0.760600
C71	C7	0.064100	0.961700	0.874400
C81	C8	0.109900	0.110300	0.831600
C91	C9	0.152100	0.924700	0.921200
C101	C10	0.574000	0.211600	0.615000
C111	C11	0.234500	0.071100	0.529400
C121	C12	0.710200	0.359300	0.600500
C131	C13	0.563600	0.076700	0.660700
C141	C14	0.461900	0.209500	0.576400
C151	C15	0.937800	0.592400	0.739400
C161	C16	0.336100	0.938500	0.625600
C171	C17	0.441900	0.941500	0.668400
C181	C18	0.345900	0.073300	0.578800
C191	C19	0.673400	0.811000	0.115000
C201	C20	0.899500	0.236100	0.029400
C211	C21	0.540200	0.689300	0.100500
C221	C22	0.762600	0.775700	0.160700
C231	C23	0.714100	0.961700	0.076400
C241	C24	0.168200	0.322800	0.239400
C251	C25	0.935900	0.038300	0.125600
C261	C26	0.890100	0.889700	0.168400
C271	C27	0.847900	0.075300	0.078800
C281	C28	0.426000	0.788400	0.385000
C291	C29	0.765500	0.928900	0.470600
C301	C30	0.289800	0.640700	0.399500
C311	C31	0.436400	0.923300	0.339300
C321	C32	0.538100	0.790500	0.423600
C331	C33	0.062200	0.407600	0.260600
C341	C34	0.663900	0.061500	0.374400
C351	C35	0.558100	0.058500	0.331600
C361	C36	0.654100	0.926700	0.421200
O11	O1	0.760830	0.668560	0.850610
O21	O2	0.584830	0.297970	0.889200
O31	O3	0.977070	0.663930	0.969000
O41	O4	0.438660	0.421340	0.926200
O51	O5	0.185570	0.737930	0.011300
O61	O6	0.828070	0.749350	0.687780
O71	O7	0.019170	0.611440	0.649390
O81	O8	0.687170	0.474030	0.610800
O91	O9	0.132930	0.946070	0.531000
O101	O10	0.847540	0.364860	0.573800
O111	O11	0.249230	0.196870	0.488700
O121	O12	0.937130	0.515850	0.812220
O131	O13	0.239170	0.331440	0.149390
O141	O14	0.415170	0.702030	0.110800
O151	O15	0.022930	0.336070	0.031000
O161	O16	0.561340	0.578660	0.073800
O171	O17	0.814430	0.262070	0.988700
O181	O18	0.171930	0.250650	0.312220
O191	O19	0.980830	0.388560	0.350610
O201	O20	0.312830	0.525970	0.389200
O211	O21	0.867070	0.053930	0.469000
O221	O22	0.152460	0.635140	0.426200
O231	O23	0.750770	0.803130	0.511300
O241	O24	0.062870	0.484150	0.187780
