data_KUGZIW_clean_PM
_symmetry_space_group_name_H-M	'P1'
_cell_length_a	15.551000
_cell_length_b	15.551000
_cell_length_c	16.364000
_cell_angle_alpha	90.000000
_cell_angle_beta	90.000000
_cell_angle_gamma	120.000000
_symmetry_Int_Tables_number 1

loop_
_symmetry_equiv_pos_as_xyz
'x,y,z'

loop_
_atom_site_label
_atom_site_type_symbol
_atom_site_fract_x
_atom_site_fract_y
_atom_site_fract_z
Ni11	Ni1	0.480000	0.740000	0.750000
Ni21	Ni2	0.260000	0.520000	0.750000
Ni31	Ni3	0.260000	0.740000	0.750000
Ni41	Ni4	0.520000	0.260000	0.250000
Ni51	Ni5	0.740000	0.480000	0.250000
Ni61	Ni6	0.740000	0.260000	0.250000
H11	H1	0.452200	0.760400	0.980300
H21	H2	0.439800	0.013300	0.801500
H31	H3	0.478800	0.715100	0.106900
H41	H4	0.464800	0.169400	0.783700
H51	H5	0.308200	0.547800	0.980300
H61	H6	0.573500	0.560200	0.801500
H71	H7	0.236300	0.521200	0.106900
H81	H8	0.704600	0.535200	0.783700
H91	H9	0.239600	0.691800	0.980300
H101	H10	0.986700	0.426500	0.801500
H111	H11	0.284900	0.763700	0.106900
H121	H12	0.830600	0.295400	0.783700
H131	H13	0.308200	0.760400	0.519700
H141	H14	0.573500	0.013300	0.698500
H151	H15	0.236300	0.715100	0.393100
H161	H16	0.704600	0.169400	0.716300
H171	H17	0.239600	0.547800	0.519700
H181	H18	0.986700	0.560200	0.698500
H191	H19	0.284900	0.521200	0.393100
H201	H20	0.830600	0.535200	0.716300
H211	H21	0.452200	0.691800	0.519700
H221	H22	0.439800	0.426500	0.698500
H231	H23	0.478800	0.763700	0.393100
H241	H24	0.464800	0.295400	0.716300
H251	H25	0.547800	0.239600	0.019700
H261	H26	0.560200	0.986700	0.198500
H271	H27	0.521200	0.284900	0.893100
H281	H28	0.535200	0.830600	0.216300
H291	H29	0.691800	0.452200	0.019700
H301	H30	0.426500	0.439800	0.198500
H311	H31	0.763700	0.478800	0.893100
H321	H32	0.295400	0.464800	0.216300
H331	H33	0.760400	0.308200	0.019700
H341	H34	0.013300	0.573500	0.198500
H351	H35	0.715100	0.236300	0.893100
H361	H36	0.169400	0.704600	0.216300
H371	H37	0.691800	0.239600	0.480300
H381	H38	0.426500	0.986700	0.301500
H391	H39	0.763700	0.284900	0.606900
H401	H40	0.295400	0.830600	0.283700
H411	H41	0.760400	0.452200	0.480300
H421	H42	0.013300	0.439800	0.301500
H431	H43	0.715100	0.478800	0.606900
H441	H44	0.169400	0.464800	0.283700
H451	H45	0.547800	0.308200	0.480300
H461	H46	0.560200	0.573500	0.301500
H471	H47	0.521200	0.236300	0.606900
H481	H48	0.535200	0.704600	0.283700
C11	C1	0.465300	0.931600	0.934880
C21	C2	0.426900	0.858200	0.863860
C31	C3	0.480200	0.026800	0.923500
C41	C4	0.484900	0.903500	0.010500
C51	C5	0.472500	0.806500	0.024100
C61	C6	0.462400	0.058400	0.846200
C71	C7	0.489400	0.780100	0.098400
C81	C8	0.476900	0.150300	0.835700
C91	C9	0.466300	0.534700	0.934880
C101	C10	0.431300	0.573100	0.863860
C111	C11	0.546600	0.519800	0.923500
C121	C12	0.418600	0.515100	0.010500
C131	C13	0.334000	0.527500	0.024100
C141	C14	0.596000	0.537600	0.846200
C151	C15	0.290700	0.510600	0.098400
C161	C16	0.673400	0.523100	0.835700
C171	C17	0.068400	0.533700	0.934880
C181	C18	0.141800	0.568700	0.863860
C191	C19	0.973200	0.453400	0.923500
C201	C20	0.096500	0.581400	0.010500
C211	C21	0.193500	0.666000	0.024100
C221	C22	0.941600	0.404000	0.846200
C231	C23	0.219900	0.709300	0.098400
C241	C24	0.849700	0.326600	0.835700
C251	C25	0.466300	0.931600	0.565120
C261	C26	0.431300	0.858200	0.636140
C271	C27	0.546600	0.026800	0.576500
C281	C28	0.418600	0.903500	0.489500
C291	C29	0.334000	0.806500	0.475900
C301	C30	0.596000	0.058400	0.653800
C311	C31	0.290700	0.780100	0.401600
C321	C32	0.673400	0.150300	0.664300
C331	C33	0.068400	0.534700	0.565120
C341	C34	0.141800	0.573100	0.636140
C351	C35	0.973200	0.519800	0.576500
C361	C36	0.096500	0.515100	0.489500
C371	C37	0.193500	0.527500	0.475900
C381	C38	0.941600	0.537600	0.653800
C391	C39	0.219900	0.510600	0.401600
C401	C40	0.849700	0.523100	0.664300
C411	C41	0.465300	0.533700	0.565120
C421	C42	0.426900	0.568700	0.636140
C431	C43	0.480200	0.453400	0.576500
C441	C44	0.484900	0.581400	0.489500
C451	C45	0.472500	0.666000	0.475900
C461	C46	0.462400	0.404000	0.653800
C471	C47	0.489400	0.709300	0.401600
C481	C48	0.476900	0.326600	0.664300
C491	C49	0.534700	0.068400	0.065120
C501	C50	0.573100	0.141800	0.136140
C511	C51	0.519800	0.973200	0.076500
C521	C52	0.515100	0.096500	0.989500
C531	C53	0.527500	0.193500	0.975900
C541	C54	0.537600	0.941600	0.153800
C551	C55	0.510600	0.219900	0.901600
C561	C56	0.523100	0.849700	0.164300
C571	C57	0.533700	0.465300	0.065120
C581	C58	0.568700	0.426900	0.136140
C591	C59	0.453400	0.480200	0.076500
C601	C60	0.581400	0.484900	0.989500
C611	C61	0.666000	0.472500	0.975900
C621	C62	0.404000	0.462400	0.153800
C631	C63	0.709300	0.489400	0.901600
C641	C64	0.326600	0.476900	0.164300
C651	C65	0.931600	0.466300	0.065120
C661	C66	0.858200	0.431300	0.136140
C671	C67	0.026800	0.546600	0.076500
C681	C68	0.903500	0.418600	0.989500
C691	C69	0.806500	0.334000	0.975900
C701	C70	0.058400	0.596000	0.153800
C711	C71	0.780100	0.290700	0.901600
C721	C72	0.150300	0.673400	0.164300
C731	C73	0.533700	0.068400	0.434880
C741	C74	0.568700	0.141800	0.363860
C751	C75	0.453400	0.973200	0.423500
C761	C76	0.581400	0.096500	0.510500
C771	C77	0.666000	0.193500	0.524100
C781	C78	0.404000	0.941600	0.346200
C791	C79	0.709300	0.219900	0.598400
C801	C80	0.326600	0.849700	0.335700
C811	C81	0.931600	0.465300	0.434880
C821	C82	0.858200	0.426900	0.363860
C831	C83	0.026800	0.480200	0.423500
C841	C84	0.903500	0.484900	0.510500
C851	C85	0.806500	0.472500	0.524100
C861	C86	0.058400	0.462400	0.346200
C871	C87	0.780100	0.489400	0.598400
C881	C88	0.150300	0.476900	0.335700
C891	C89	0.534700	0.466300	0.434880
C901	C90	0.573100	0.431300	0.363860
C911	C91	0.519800	0.546600	0.423500
C921	C92	0.515100	0.418600	0.510500
C931	C93	0.527500	0.334000	0.524100
C941	C94	0.537600	0.596000	0.346200
C951	C95	0.510600	0.290700	0.598400
C961	C96	0.523100	0.673400	0.335700
O11	O1	0.491010	0.849590	0.825660
O21	O2	0.335510	0.816330	0.851470
O31	O3	0.358580	0.508990	0.825660
O41	O4	0.480820	0.664490	0.851470
O51	O5	0.150410	0.641420	0.825660
O61	O6	0.183670	0.519180	0.851470
O71	O7	0.358580	0.849590	0.674340
O81	O8	0.480820	0.816330	0.648530
O91	O9	0.150410	0.508990	0.674340
O101	O10	0.183670	0.664490	0.648530
O111	O11	0.491010	0.641420	0.674340
O121	O12	0.335510	0.519180	0.648530
O131	O13	0.508990	0.150410	0.174340
O141	O14	0.664490	0.183670	0.148530
O151	O15	0.641420	0.491010	0.174340
O161	O16	0.519180	0.335510	0.148530
O171	O17	0.849590	0.358580	0.174340
O181	O18	0.816330	0.480820	0.148530
O191	O19	0.641420	0.150410	0.325660
O201	O20	0.519180	0.183670	0.351470
O211	O21	0.849590	0.491010	0.325660
O221	O22	0.816330	0.335510	0.351470
O231	O23	0.508990	0.358580	0.325660
O241	O24	0.664490	0.480820	0.351470
O251	O25	0.333330	0.666660	0.750000
O261	O26	0.666670	0.333340	0.250000
