data_KUJMEJ_clean_PM
_symmetry_space_group_name_H-M	'P1'
_cell_length_a	10.416300
_cell_length_b	10.542000
_cell_length_c	17.047800
_cell_angle_alpha	90.000000
_cell_angle_beta	95.854000
_cell_angle_gamma	90.000000
_symmetry_Int_Tables_number 1

loop_
_symmetry_equiv_pos_as_xyz
'x,y,z'

loop_
_atom_site_label
_atom_site_type_symbol
_atom_site_fract_x
_atom_site_fract_y
_atom_site_fract_z
C11	C1	0.957700	0.231300	0.113700
C21	C2	0.851300	0.281300	0.158300
C31	C3	0.878000	0.346300	0.227900
H11	H1	0.963500	0.358500	0.248200
C41	C4	0.779700	0.394100	0.268700
C51	C5	0.653300	0.375500	0.237600
H21	H2	0.586900	0.408700	0.263800
C61	C6	0.623100	0.308800	0.168400
C71	C7	0.722700	0.262300	0.128600
H31	H3	0.703700	0.217900	0.081700
C81	C8	0.484000	0.282900	0.136500
C91	C9	0.810100	0.462300	0.346100
Cd11	Cd1	0.243870	0.225210	0.079650
O11	O1	0.070100	0.254000	0.142600
O21	O2	0.925300	0.175800	0.049800
O31	O3	0.397100	0.314200	0.179000
O41	O4	0.462900	0.234700	0.070500
O51	O5	0.723500	0.530000	0.368900
O61	O6	0.919800	0.442700	0.379700
C101	C10	0.042300	0.731300	0.386300
C111	C11	0.148700	0.781300	0.341700
C121	C12	0.122000	0.846300	0.272100
H41	H4	0.036500	0.858500	0.251800
C131	C13	0.220300	0.894100	0.231300
C141	C14	0.346700	0.875500	0.262400
H51	H5	0.413100	0.908700	0.236200
C151	C15	0.376900	0.808800	0.331600
C161	C16	0.277300	0.762300	0.371400
H61	H6	0.296300	0.717900	0.418300
C171	C17	0.516000	0.782900	0.363500
C181	C18	0.189900	0.962300	0.153900
Cd21	Cd2	0.756130	0.725210	0.420350
O71	O7	0.929900	0.754000	0.357400
O81	O8	0.074700	0.675800	0.450200
O91	O9	0.602900	0.814200	0.321000
O101	O10	0.537100	0.734700	0.429500
O111	O11	0.276500	0.030000	0.131100
O121	O12	0.080200	0.942700	0.120300
C191	C19	0.042300	0.768700	0.886300
C201	C20	0.148700	0.718700	0.841700
C211	C21	0.122000	0.653700	0.772100
H71	H7	0.036500	0.641500	0.751800
C221	C22	0.220300	0.605900	0.731300
C231	C23	0.346700	0.624500	0.762400
H81	H8	0.413100	0.591300	0.736200
C241	C24	0.376900	0.691200	0.831600
C251	C25	0.277300	0.737700	0.871400
H91	H9	0.296300	0.782100	0.918300
C261	C26	0.516000	0.717100	0.863500
C271	C27	0.189900	0.537700	0.653900
Cd31	Cd3	0.756130	0.774790	0.920350
O131	O13	0.929900	0.746000	0.857400
O141	O14	0.074700	0.824200	0.950200
O151	O15	0.602900	0.685800	0.821000
O161	O16	0.537100	0.765300	0.929500
O171	O17	0.276500	0.470000	0.631100
O181	O18	0.080200	0.557300	0.620300
C281	C28	0.957700	0.268700	0.613700
C291	C29	0.851300	0.218700	0.658300
C301	C30	0.878000	0.153700	0.727900
H101	H10	0.963500	0.141500	0.748200
C311	C31	0.779700	0.105900	0.768700
C321	C32	0.653300	0.124500	0.737600
H111	H11	0.586900	0.091300	0.763800
C331	C33	0.623100	0.191200	0.668400
C341	C34	0.722700	0.237700	0.628600
H121	H12	0.703700	0.282100	0.581700
C351	C35	0.484000	0.217100	0.636500
C361	C36	0.810100	0.037700	0.846100
Cd41	Cd4	0.243870	0.274790	0.579650
O191	O19	0.070100	0.246000	0.642600
O201	O20	0.925300	0.324200	0.549800
O211	O21	0.397100	0.185800	0.679000
O221	O22	0.462900	0.265300	0.570500
O231	O23	0.723500	0.970000	0.868900
O241	O24	0.919800	0.057300	0.879700
Cd51	Cd5	0.000000	0.000000	0.000000
Cd61	Cd6	0.000000	0.500000	0.500000
