data_KULLEK_clean_PM
_symmetry_space_group_name_H-M	'P1'
_cell_length_a	21.498000
_cell_length_b	36.910000
_cell_length_c	20.059000
_cell_angle_alpha	90.000000
_cell_angle_beta	106.852000
_cell_angle_gamma	90.000000
_symmetry_Int_Tables_number 1

loop_
_symmetry_equiv_pos_as_xyz
'x,y,z'

loop_
_atom_site_label
_atom_site_type_symbol
_atom_site_fract_x
_atom_site_fract_y
_atom_site_fract_z
Co11	Co1	0.357080	0.038400	0.040730
Co21	Co2	0.190380	0.038940	0.929050
Co31	Co3	0.300170	0.060090	0.860950
Co41	Co4	0.305940	0.122780	0.093940
Co51	Co5	0.221770	0.043330	0.096760
C11	C1	0.256000	0.988390	0.843400
C21	C2	0.257400	0.949770	0.821500
C31	C3	0.306500	0.937290	0.795700
H11	H1	0.340300	0.953200	0.792400
C41	C4	0.306400	0.901130	0.774300
H21	H2	0.340500	0.892400	0.757400
C51	C5	0.257100	0.878240	0.777600
C61	C6	0.208600	0.891170	0.803800
H31	H3	0.173800	0.875600	0.805200
C71	C7	0.209600	0.925620	0.827600
H41	H4	0.177400	0.933300	0.848500
C81	C8	0.254100	0.841480	0.753000
C91	C9	0.250000	0.810630	0.733200
C101	C10	0.242900	0.773220	0.715100
C111	C11	0.298100	0.752090	0.721600
H51	H5	0.340000	0.762700	0.737700
C121	C12	0.291700	0.714750	0.704100
C131	C13	0.230400	0.699640	0.682900
H61	H6	0.225900	0.674400	0.673400
C141	C14	0.181900	0.757400	0.691000
H71	H7	0.144300	0.772000	0.685300
C151	C15	0.346700	0.693190	0.704500
C161	C16	0.389300	0.673700	0.698600
C171	C17	0.437600	0.648800	0.690700
C181	C18	0.420300	0.612200	0.676700
H81	H8	0.379600	0.603300	0.679100
C191	C19	0.412800	0.112550	0.032700
C201	C20	0.472100	0.135680	0.038000
C211	C21	0.468200	0.172430	0.041500
H91	H9	0.427400	0.183800	0.036100
C221	C22	0.524600	0.193330	0.053200
H101	H10	0.521500	0.219000	0.054800
C231	C23	0.584700	0.177420	0.062300
C241	C24	0.587400	0.140930	0.057400
H111	H11	0.627800	0.129300	0.062300
C251	C25	0.530600	0.120430	0.045000
H121	H12	0.533400	0.094800	0.041500
C261	C26	0.642200	0.198870	0.077000
C271	C27	0.692300	0.215750	0.094900
C281	C28	0.753400	0.234040	0.120300
C291	C29	0.756900	0.271150	0.131400
H131	H13	0.718300	0.285300	0.118700
C301	C30	0.817000	0.287890	0.161300
C311	C31	0.874400	0.268340	0.177700
H141	H14	0.915100	0.280000	0.196900
C321	C32	0.870800	0.230140	0.164700
C331	C33	0.810600	0.213760	0.138000
H151	H15	0.808300	0.188200	0.131700
C341	C34	0.818400	0.325990	0.177000
C351	C35	0.819900	0.356080	0.199800
C361	C36	0.819100	0.389900	0.232900
C371	C37	0.929300	0.210070	0.176800
C381	C38	0.978200	0.192690	0.181600
C391	C39	0.256300	0.980150	0.027200
C401	C40	0.236800	0.941360	0.022300
C411	C41	0.283800	0.915160	0.033800
H161	H16	0.328000	0.922100	0.042400
C421	C42	0.268300	0.879600	0.033100
H171	H17	0.302100	0.862100	0.044300
C431	C43	0.204300	0.868060	0.016500
C441	C44	0.155600	0.894680	0.003300
H181	H18	0.111200	0.887900	0.992100
C451	C45	0.172800	0.930960	0.006500
H191	H19	0.139700	0.948900	0.997800
C461	C46	0.188700	0.830120	0.015000
C471	C47	0.182900	0.798350	0.014600
C481	C48	0.179800	0.759650	0.016600
C491	C49	0.236300	0.739420	0.045400
H201	H20	0.276400	0.751600	0.064900
C501	C50	0.234600	0.702060	0.045900
C511	C51	0.175900	0.683860	0.013200
H211	H21	0.174900	0.658100	0.011400
C521	C52	0.119200	0.703770	0.983200
C531	C53	0.119900	0.740730	0.984800
H221	H22	0.081000	0.754000	0.964900
C541	C54	0.828700	0.587870	0.697800
C551	C55	0.877300	0.609620	0.752800
C561	C56	0.935600	0.619460	0.742200
H231	H23	0.944000	0.612800	0.699900
C571	C57	0.980900	0.638330	0.790500
H241	H24	0.021000	0.644400	0.782200
C581	C58	0.969400	0.648800	0.851500
C591	C59	0.910500	0.640100	0.863200
H251	H25	0.901700	0.647900	0.904700
C601	C60	0.864200	0.619700	0.814000
H261	H26	0.824400	0.613000	0.822400
C611	C61	0.019400	0.668780	0.904100
C621	C62	0.060600	0.684850	0.941800
C631	C63	0.829100	0.607910	0.505300
C641	C64	0.890000	0.628520	0.540200
C651	C65	0.950200	0.611730	0.551900
H271	H27	0.952800	0.587000	0.540000
C661	C66	0.005100	0.631110	0.580300
H281	H28	0.046000	0.619300	0.589000
C671	C67	0.004000	0.667830	0.597400
C681	C68	0.944400	0.683920	0.586700
H291	H29	0.941600	0.708600	0.599200
C691	C69	0.888500	0.664100	0.557600
H301	H30	0.847500	0.675700	0.549500
C701	C70	0.062100	0.688340	0.626300
C711	C71	0.112400	0.704290	0.649700
C721	C72	0.174700	0.720970	0.675200
C731	C73	0.582700	0.608250	0.279800
C741	C74	0.516800	0.621930	0.233500
C751	C75	0.485000	0.647400	0.258500
H311	H31	0.502800	0.656200	0.304600
C761	C76	0.425300	0.661100	0.216800
H321	H32	0.402900	0.678600	0.235800
C771	C77	0.399600	0.650150	0.152100
C781	C78	0.339600	0.666510	0.109200
C791	C79	0.291200	0.681980	0.078500
C801	C80	0.802500	0.489100	0.336200
C811	C81	0.808300	0.454300	0.299600
C821	C82	0.865200	0.439700	0.302400
H331	H33	0.903400	0.451200	0.330600
C831	C83	0.872000	0.409400	0.267200
H341	H34	0.914000	0.401700	0.266500
C841	C84	0.765900	0.401500	0.237500
H351	H35	0.728900	0.386300	0.221500
C851	C85	0.757000	0.436500	0.265400
H361	H36	0.714700	0.446200	0.259000
C861	C86	0.034300	0.172100	0.183000
C871	C87	0.090400	0.185500	0.198500
H371	H37	0.096100	0.209900	0.214600
C881	C88	0.148000	0.165200	0.193100
H381	H38	0.188300	0.177500	0.200400
C891	C89	0.086000	0.120100	0.159300
H391	H39	0.080100	0.096400	0.139900
C901	C90	0.031000	0.139200	0.164900
H401	H40	0.990300	0.127100	0.154800
C911	C91	0.496400	0.662100	0.683600
H411	H41	0.507000	0.687100	0.689300
C921	C92	0.465100	0.589300	0.659000
H421	H42	0.454200	0.564700	0.648100
C931	C93	0.488100	0.608300	0.168900
H431	H43	0.508700	0.589100	0.151800
C941	C94	0.429600	0.621900	0.127300
H441	H44	0.410100	0.612100	0.082300
C951	C95	0.572200	0.576100	0.636100
C961	C96	0.524400	0.602200	0.657200
C971	C97	0.538900	0.637200	0.667600
H451	H45	0.579600	0.645600	0.664000
C981	C98	0.200600	0.112800	0.170200
C991	C99	0.144600	0.133400	0.179600
O11	O1	0.284540	0.059650	0.952800
O21	O2	0.305300	0.065990	0.100300
O31	O3	0.314200	0.988280	0.041200
O41	O4	0.422390	0.078980	0.040400
O51	O5	0.210300	0.004210	0.014000
O61	O6	0.833100	0.574300	0.497000
O71	O7	0.212800	0.997790	0.870200
O81	O8	0.844470	0.576860	0.647900
O91	O9	0.299000	0.009210	0.832000
O101	O10	0.626900	0.587820	0.648900
O111	O11	0.772700	0.583190	0.708200
O121	O12	0.608300	0.626590	0.330700
O131	O13	0.247800	0.129940	0.161900
O141	O14	0.777000	0.625680	0.488400
O151	O15	0.357590	0.127520	0.020000
O161	O16	0.852100	0.504720	0.377400
O171	O17	0.194600	0.079460	0.164900
O181	O18	0.743700	0.503390	0.323500
O191	O19	0.606000	0.580410	0.258300
O201	O20	0.551300	0.546400	0.612400
Co61	Co6	0.642920	0.538400	0.459270
Co71	Co7	0.809620	0.538940	0.570950
Co81	Co8	0.699830	0.560090	0.639050
Co91	Co9	0.694060	0.622780	0.406060
Co101	Co10	0.778230	0.543330	0.403240
C1001	C100	0.744000	0.488390	0.656600
C1011	C101	0.742600	0.449770	0.678500
C1021	C102	0.693500	0.437290	0.704300
H461	H46	0.659700	0.453200	0.707600
C1031	C103	0.693600	0.401130	0.725700
H471	H47	0.659500	0.392400	0.742600
C1041	C104	0.742900	0.378240	0.722400
C1051	C105	0.791400	0.391170	0.696200
H481	H48	0.826200	0.375600	0.694800
C1061	C106	0.790400	0.425620	0.672400
H491	H49	0.822600	0.433300	0.651500
C1071	C107	0.745900	0.341480	0.747000
C1081	C108	0.750000	0.310630	0.766800
C1091	C109	0.757100	0.273220	0.784900
C1101	C110	0.701900	0.252090	0.778400
H501	H50	0.660000	0.262700	0.762300
C1111	C111	0.708300	0.214750	0.795900
C1121	C112	0.769600	0.199640	0.817100
H511	H51	0.774100	0.174400	0.826600
C1131	C113	0.818100	0.257400	0.809000
H521	H52	0.855700	0.272000	0.814700
C1141	C114	0.653300	0.193190	0.795500
C1151	C115	0.610700	0.173700	0.801400
C1161	C116	0.562400	0.148800	0.809300
C1171	C117	0.579700	0.112200	0.823300
H531	H53	0.620400	0.103300	0.820900
C1181	C118	0.587200	0.612550	0.467300
C1191	C119	0.527900	0.635680	0.462000
C1201	C120	0.531800	0.672430	0.458500
H541	H54	0.572600	0.683800	0.463900
C1211	C121	0.475400	0.693330	0.446800
H551	H55	0.478500	0.719000	0.445200
C1221	C122	0.415300	0.677420	0.437700
C1231	C123	0.412600	0.640930	0.442600
H561	H56	0.372200	0.629300	0.437700
C1241	C124	0.469400	0.620430	0.455000
H571	H57	0.466600	0.594800	0.458500
C1251	C125	0.357800	0.698870	0.423000
C1261	C126	0.307700	0.715750	0.405100
C1271	C127	0.246600	0.734040	0.379700
C1281	C128	0.243100	0.771150	0.368600
H581	H58	0.281700	0.785300	0.381300
C1291	C129	0.183000	0.787890	0.338700
C1301	C130	0.125600	0.768340	0.322300
H591	H59	0.084900	0.780000	0.303100
C1311	C131	0.129200	0.730140	0.335300
C1321	C132	0.189400	0.713760	0.362000
H601	H60	0.191700	0.688200	0.368300
C1331	C133	0.181600	0.825990	0.323000
C1341	C134	0.180100	0.856080	0.300200
C1351	C135	0.180900	0.889900	0.267100
C1361	C136	0.070700	0.710070	0.323200
C1371	C137	0.021800	0.692690	0.318400
C1381	C138	0.743700	0.480150	0.472800
C1391	C139	0.763200	0.441360	0.477700
C1401	C140	0.716200	0.415160	0.466200
H611	H61	0.672000	0.422100	0.457600
C1411	C141	0.731700	0.379600	0.466900
H621	H62	0.697900	0.362100	0.455700
C1421	C142	0.795700	0.368060	0.483500
C1431	C143	0.844400	0.394680	0.496700
H631	H63	0.888800	0.387900	0.507900
C1441	C144	0.827200	0.430960	0.493500
H641	H64	0.860300	0.448900	0.502200
C1451	C145	0.811300	0.330120	0.485000
C1461	C146	0.817100	0.298350	0.485400
C1471	C147	0.820200	0.259650	0.483400
C1481	C148	0.763700	0.239420	0.454600
H651	H65	0.723600	0.251600	0.435100
C1491	C149	0.765400	0.202060	0.454100
C1501	C150	0.824100	0.183860	0.486800
H661	H66	0.825100	0.158100	0.488600
C1511	C151	0.880800	0.203770	0.516800
C1521	C152	0.880100	0.240730	0.515200
H671	H67	0.919000	0.254000	0.535100
C1531	C153	0.171300	0.087870	0.802200
C1541	C154	0.122700	0.109620	0.747200
C1551	C155	0.064400	0.119460	0.757800
H681	H68	0.056000	0.112800	0.800100
C1561	C156	0.019100	0.138330	0.709500
H691	H69	0.979000	0.144400	0.717800
C1571	C157	0.030600	0.148800	0.648500
C1581	C158	0.089500	0.140100	0.636800
H701	H70	0.098300	0.147900	0.595300
C1591	C159	0.135800	0.119700	0.686000
H711	H71	0.175600	0.113000	0.677600
C1601	C160	0.980600	0.168780	0.595900
C1611	C161	0.939400	0.184850	0.558200
C1621	C162	0.170900	0.107910	0.994700
C1631	C163	0.110000	0.128520	0.959800
C1641	C164	0.049800	0.111730	0.948100
H721	H72	0.047200	0.087000	0.960000
C1651	C165	0.994900	0.131110	0.919700
H731	H73	0.954000	0.119300	0.911000
C1661	C166	0.996000	0.167830	0.902600
C1671	C167	0.055600	0.183920	0.913300
H741	H74	0.058400	0.208600	0.900800
C1681	C168	0.111500	0.164100	0.942400
H751	H75	0.152500	0.175700	0.950500
C1691	C169	0.937900	0.188340	0.873700
C1701	C170	0.887600	0.204290	0.850300
C1711	C171	0.825300	0.220970	0.824800
C1721	C172	0.417300	0.108250	0.220200
C1731	C173	0.483200	0.121930	0.266500
C1741	C174	0.515000	0.147400	0.241500
H761	H76	0.497200	0.156200	0.195400
C1751	C175	0.574700	0.161100	0.283200
H771	H77	0.597100	0.178600	0.264200
C1761	C176	0.600400	0.150150	0.347900
C1771	C177	0.660400	0.166510	0.390800
C1781	C178	0.708800	0.181980	0.421500
C1791	C179	0.197500	0.989100	0.163800
C1801	C180	0.191700	0.954300	0.200400
C1811	C181	0.134800	0.939700	0.197600
H781	H78	0.096600	0.951200	0.169400
C1821	C182	0.128000	0.909400	0.232800
H791	H79	0.086000	0.901700	0.233500
C1831	C183	0.234100	0.901500	0.262500
H801	H80	0.271100	0.886300	0.278500
C1841	C184	0.243000	0.936500	0.234600
H811	H81	0.285300	0.946200	0.241000
C1851	C185	0.965700	0.672100	0.317000
C1861	C186	0.909600	0.685500	0.301500
H821	H82	0.903900	0.709900	0.285400
C1871	C187	0.852000	0.665200	0.306900
H831	H83	0.811700	0.677500	0.299600
C1881	C188	0.914000	0.620100	0.340700
H841	H84	0.919900	0.596400	0.360100
C1891	C189	0.969000	0.639200	0.335100
H851	H85	0.009700	0.627100	0.345200
C1901	C190	0.503600	0.162100	0.816400
H861	H86	0.493000	0.187100	0.810700
C1911	C191	0.534900	0.089300	0.841000
H871	H87	0.545800	0.064700	0.851900
C1921	C192	0.511900	0.108300	0.331100
H881	H88	0.491300	0.089100	0.348200
C1931	C193	0.570400	0.121900	0.372700
H891	H89	0.589900	0.112100	0.417700
C1941	C194	0.427800	0.076100	0.863900
C1951	C195	0.475600	0.102200	0.842800
C1961	C196	0.461100	0.137200	0.832400
H901	H90	0.420400	0.145600	0.836000
C1971	C197	0.799400	0.612800	0.329800
C1981	C198	0.855400	0.633400	0.320400
O211	O21	0.715460	0.559650	0.547200
O221	O22	0.694700	0.565990	0.399700
O231	O23	0.685800	0.488280	0.458800
O241	O24	0.577610	0.578980	0.459600
O251	O25	0.789700	0.504210	0.486000
O261	O26	0.166900	0.074300	0.003000
O271	O27	0.787200	0.497790	0.629800
O281	O28	0.155530	0.076860	0.852100
O291	O29	0.701000	0.509210	0.668000
O301	O30	0.373100	0.087820	0.851100
O311	O31	0.227300	0.083190	0.791800
O321	O32	0.391700	0.126590	0.169300
O331	O33	0.752200	0.629940	0.338100
O341	O34	0.223000	0.125680	0.011600
O351	O35	0.642410	0.627520	0.480000
O361	O36	0.147900	0.004720	0.122600
O371	O37	0.805400	0.579460	0.335100
O381	O38	0.256300	0.003390	0.176500
O391	O39	0.394000	0.080410	0.241700
O401	O40	0.448700	0.046400	0.887600
Co111	Co11	0.642920	0.961600	0.959270
Co121	Co12	0.809620	0.961070	0.070950
Co131	Co13	0.699830	0.939910	0.139050
Co141	Co14	0.694060	0.877220	0.906060
Co151	Co15	0.778230	0.956670	0.903240
C1991	C199	0.744000	0.011610	0.156600
C2001	C200	0.742600	0.050230	0.178500
C2011	C201	0.693500	0.062710	0.204300
H911	H91	0.659700	0.046800	0.207600
C2021	C202	0.693600	0.098870	0.225700
H921	H92	0.659500	0.107600	0.242600
C2031	C203	0.742900	0.121760	0.222400
C2041	C204	0.791400	0.108830	0.196200
H931	H93	0.826200	0.124400	0.194800
C2051	C205	0.790400	0.074380	0.172400
H941	H94	0.822600	0.066700	0.151500
C2061	C206	0.745900	0.158520	0.247000
C2071	C207	0.750000	0.189370	0.266800
C2081	C208	0.757100	0.226780	0.284900
C2091	C209	0.701900	0.247910	0.278400
H951	H95	0.660000	0.237300	0.262300
C2101	C210	0.708300	0.285250	0.295900
C2111	C211	0.769600	0.300360	0.317100
H961	H96	0.774100	0.325600	0.326600
C2121	C212	0.818100	0.242600	0.309000
H971	H97	0.855700	0.228000	0.314700
C2131	C213	0.653300	0.306810	0.295500
C2141	C214	0.610700	0.326300	0.301400
C2151	C215	0.562400	0.351200	0.309300
C2161	C216	0.579700	0.387800	0.323300
H981	H98	0.620400	0.396700	0.320900
C2171	C217	0.587200	0.887450	0.967300
C2181	C218	0.527900	0.864320	0.962000
C2191	C219	0.531800	0.827570	0.958500
H991	H99	0.572600	0.816200	0.963900
C2201	C220	0.475400	0.806670	0.946800
H1001	H100	0.478500	0.781000	0.945200
C2211	C221	0.415300	0.822580	0.937700
C2221	C222	0.412600	0.859070	0.942600
H1011	H101	0.372200	0.870700	0.937700
C2231	C223	0.469400	0.879570	0.955000
H1021	H102	0.466600	0.905200	0.958500
C2241	C224	0.357800	0.801130	0.923000
C2251	C225	0.307700	0.784250	0.905100
C2261	C226	0.246600	0.765960	0.879700
C2271	C227	0.243100	0.728850	0.868600
H1031	H103	0.281700	0.714700	0.881300
C2281	C228	0.183000	0.712110	0.838700
C2291	C229	0.125600	0.731660	0.822300
H1041	H104	0.084900	0.720000	0.803100
C2301	C230	0.129200	0.769860	0.835300
C2311	C231	0.189400	0.786240	0.862000
H1051	H105	0.191700	0.811800	0.868300
C2321	C232	0.181600	0.674010	0.823000
C2331	C233	0.180100	0.643920	0.800200
C2341	C234	0.180900	0.610100	0.767100
C2351	C235	0.070700	0.789930	0.823200
C2361	C236	0.021800	0.807310	0.818400
C2371	C237	0.743700	0.019850	0.972800
C2381	C238	0.763200	0.058640	0.977700
C2391	C239	0.716200	0.084840	0.966200
H1061	H106	0.672000	0.077900	0.957600
C2401	C240	0.731700	0.120400	0.966900
H1071	H107	0.697900	0.137900	0.955700
C2411	C241	0.795700	0.131940	0.983500
C2421	C242	0.844400	0.105320	0.996700
H1081	H108	0.888800	0.112100	0.007900
C2431	C243	0.827200	0.069040	0.993500
H1091	H109	0.860300	0.051100	0.002200
C2441	C244	0.811300	0.169880	0.985000
C2451	C245	0.817100	0.201650	0.985400
C2461	C246	0.820200	0.240350	0.983400
C2471	C247	0.763700	0.260580	0.954600
H1101	H110	0.723600	0.248400	0.935100
C2481	C248	0.765400	0.297940	0.954100
C2491	C249	0.824100	0.316140	0.986800
H1111	H111	0.825100	0.341900	0.988600
C2501	C250	0.880800	0.296230	0.016800
C2511	C251	0.880100	0.259270	0.015200
H1121	H112	0.919000	0.246000	0.035100
C2521	C252	0.171300	0.412130	0.302200
C2531	C253	0.122700	0.390380	0.247200
C2541	C254	0.064400	0.380540	0.257800
H1131	H113	0.056000	0.387200	0.300100
C2551	C255	0.019100	0.361670	0.209500
H1141	H114	0.979000	0.355600	0.217800
C2561	C256	0.030600	0.351200	0.148500
C2571	C257	0.089500	0.359900	0.136800
H1151	H115	0.098300	0.352100	0.095300
C2581	C258	0.135800	0.380300	0.186000
H1161	H116	0.175600	0.387000	0.177600
C2591	C259	0.980600	0.331220	0.095900
C2601	C260	0.939400	0.315150	0.058200
C2611	C261	0.170900	0.392090	0.494700
C2621	C262	0.110000	0.371480	0.459800
C2631	C263	0.049800	0.388270	0.448100
H1171	H117	0.047200	0.413000	0.460000
C2641	C264	0.994900	0.368890	0.419700
H1181	H118	0.954000	0.380700	0.411000
C2651	C265	0.996000	0.332170	0.402600
C2661	C266	0.055600	0.316080	0.413300
H1191	H119	0.058400	0.291400	0.400800
C2671	C267	0.111500	0.335900	0.442400
H1201	H120	0.152500	0.324300	0.450500
C2681	C268	0.937900	0.311660	0.373700
C2691	C269	0.887600	0.295710	0.350300
C2701	C270	0.825300	0.279030	0.324800
C2711	C271	0.417300	0.391750	0.720200
C2721	C272	0.483200	0.378070	0.766500
C2731	C273	0.515000	0.352600	0.741500
H1211	H121	0.497200	0.343800	0.695400
C2741	C274	0.574700	0.338900	0.783200
H1221	H122	0.597100	0.321400	0.764200
C2751	C275	0.600400	0.349850	0.847900
C2761	C276	0.660400	0.333490	0.890800
C2771	C277	0.708800	0.318020	0.921500
C2781	C278	0.197500	0.510900	0.663800
C2791	C279	0.191700	0.545700	0.700400
C2801	C280	0.134800	0.560300	0.697600
H1231	H123	0.096600	0.548800	0.669400
C2811	C281	0.128000	0.590600	0.732800
H1241	H124	0.086000	0.598300	0.733500
C2821	C282	0.234100	0.598500	0.762500
H1251	H125	0.271100	0.613700	0.778500
C2831	C283	0.243000	0.563500	0.734600
H1261	H126	0.285300	0.553800	0.741000
C2841	C284	0.965700	0.827900	0.817000
C2851	C285	0.909600	0.814500	0.801500
H1271	H127	0.903900	0.790100	0.785400
C2861	C286	0.852000	0.834800	0.806900
H1281	H128	0.811700	0.822500	0.799600
C2871	C287	0.914000	0.879900	0.840700
H1291	H129	0.919900	0.903600	0.860100
C2881	C288	0.969000	0.860800	0.835100
H1301	H130	0.009700	0.872900	0.845200
C2891	C289	0.503600	0.337900	0.316400
H1311	H131	0.493000	0.312900	0.310700
C2901	C290	0.534900	0.410700	0.341000
H1321	H132	0.545800	0.435300	0.351900
C2911	C291	0.511900	0.391700	0.831100
H1331	H133	0.491300	0.410900	0.848200
C2921	C292	0.570400	0.378100	0.872700
H1341	H134	0.589900	0.387900	0.917700
C2931	C293	0.427800	0.423900	0.363900
C2941	C294	0.475600	0.397800	0.342800
C2951	C295	0.461100	0.362800	0.332400
H1351	H135	0.420400	0.354400	0.336000
C2961	C296	0.799400	0.887200	0.829800
C2971	C297	0.855400	0.866600	0.820400
O411	O41	0.715460	0.940350	0.047200
O421	O42	0.694700	0.934010	0.899700
O431	O43	0.685800	0.011720	0.958800
O441	O44	0.577610	0.921020	0.959600
O451	O45	0.789700	0.995790	0.986000
O461	O46	0.166900	0.425700	0.503000
O471	O47	0.787200	0.002210	0.129800
O481	O48	0.155530	0.423140	0.352100
O491	O49	0.701000	0.990790	0.168000
O501	O50	0.373100	0.412180	0.351100
O511	O51	0.227300	0.416810	0.291800
O521	O52	0.391700	0.373410	0.669300
O531	O53	0.752200	0.870060	0.838100
O541	O54	0.223000	0.374320	0.511600
O551	O55	0.642410	0.872480	0.980000
O561	O56	0.147900	0.495280	0.622600
O571	O57	0.805400	0.920540	0.835100
O581	O58	0.256300	0.496610	0.676500
O591	O59	0.394000	0.419590	0.741700
O601	O60	0.448700	0.453600	0.387600
Co161	Co16	0.357080	0.461600	0.540730
Co171	Co17	0.190380	0.461070	0.429050
Co181	Co18	0.300170	0.439910	0.360950
Co191	Co19	0.305940	0.377220	0.593940
Co201	Co20	0.221770	0.456670	0.596760
C2981	C298	0.256000	0.511610	0.343400
C2991	C299	0.257400	0.550230	0.321500
C3001	C300	0.306500	0.562710	0.295700
H1361	H136	0.340300	0.546800	0.292400
C3011	C301	0.306400	0.598870	0.274300
H1371	H137	0.340500	0.607600	0.257400
C3021	C302	0.257100	0.621760	0.277600
C3031	C303	0.208600	0.608830	0.303800
H1381	H138	0.173800	0.624400	0.305200
C3041	C304	0.209600	0.574380	0.327600
H1391	H139	0.177400	0.566700	0.348500
C3051	C305	0.254100	0.658520	0.253000
C3061	C306	0.250000	0.689370	0.233200
C3071	C307	0.242900	0.726780	0.215100
C3081	C308	0.298100	0.747910	0.221600
H1401	H140	0.340000	0.737300	0.237700
C3091	C309	0.291700	0.785250	0.204100
C3101	C310	0.230400	0.800360	0.182900
H1411	H141	0.225900	0.825600	0.173400
C3111	C311	0.181900	0.742600	0.191000
H1421	H142	0.144300	0.728000	0.185300
C3121	C312	0.346700	0.806810	0.204500
C3131	C313	0.389300	0.826300	0.198600
C3141	C314	0.437600	0.851200	0.190700
C3151	C315	0.420300	0.887800	0.176700
H1431	H143	0.379600	0.896700	0.179100
C3161	C316	0.412800	0.387450	0.532700
C3171	C317	0.472100	0.364320	0.538000
C3181	C318	0.468200	0.327570	0.541500
H1441	H144	0.427400	0.316200	0.536100
C3191	C319	0.524600	0.306670	0.553200
H1451	H145	0.521500	0.281000	0.554800
C3201	C320	0.584700	0.322580	0.562300
C3211	C321	0.587400	0.359070	0.557400
H1461	H146	0.627800	0.370700	0.562300
C3221	C322	0.530600	0.379570	0.545000
H1471	H147	0.533400	0.405200	0.541500
C3231	C323	0.642200	0.301130	0.577000
C3241	C324	0.692300	0.284250	0.594900
C3251	C325	0.753400	0.265960	0.620300
C3261	C326	0.756900	0.228850	0.631400
H1481	H148	0.718300	0.214700	0.618700
C3271	C327	0.817000	0.212110	0.661300
C3281	C328	0.874400	0.231660	0.677700
H1491	H149	0.915100	0.220000	0.696900
C3291	C329	0.870800	0.269860	0.664700
C3301	C330	0.810600	0.286240	0.638000
H1501	H150	0.808300	0.311800	0.631700
C3311	C331	0.818400	0.174010	0.677000
C3321	C332	0.819900	0.143920	0.699800
C3331	C333	0.819100	0.110100	0.732900
C3341	C334	0.929300	0.289930	0.676800
C3351	C335	0.978200	0.307310	0.681600
C3361	C336	0.256300	0.519850	0.527200
C3371	C337	0.236800	0.558640	0.522300
C3381	C338	0.283800	0.584840	0.533800
H1511	H151	0.328000	0.577900	0.542400
C3391	C339	0.268300	0.620400	0.533100
H1521	H152	0.302100	0.637900	0.544300
C3401	C340	0.204300	0.631940	0.516500
C3411	C341	0.155600	0.605320	0.503300
H1531	H153	0.111200	0.612100	0.492100
C3421	C342	0.172800	0.569040	0.506500
H1541	H154	0.139700	0.551100	0.497800
C3431	C343	0.188700	0.669880	0.515000
C3441	C344	0.182900	0.701650	0.514600
C3451	C345	0.179800	0.740350	0.516600
C3461	C346	0.236300	0.760580	0.545400
H1551	H155	0.276400	0.748400	0.564900
C3471	C347	0.234600	0.797940	0.545900
C3481	C348	0.175900	0.816140	0.513200
H1561	H156	0.174900	0.841900	0.511400
C3491	C349	0.119200	0.796230	0.483200
C3501	C350	0.119900	0.759270	0.484800
H1571	H157	0.081000	0.746000	0.464900
C3511	C351	0.828700	0.912130	0.197800
C3521	C352	0.877300	0.890380	0.252800
C3531	C353	0.935600	0.880540	0.242200
H1581	H158	0.944000	0.887200	0.199900
C3541	C354	0.980900	0.861670	0.290500
H1591	H159	0.021000	0.855600	0.282200
C3551	C355	0.969400	0.851200	0.351500
C3561	C356	0.910500	0.859900	0.363200
H1601	H160	0.901700	0.852100	0.404700
C3571	C357	0.864200	0.880300	0.314000
H1611	H161	0.824400	0.887000	0.322400
C3581	C358	0.019400	0.831220	0.404100
C3591	C359	0.060600	0.815150	0.441800
C3601	C360	0.829100	0.892090	0.005300
C3611	C361	0.890000	0.871480	0.040200
C3621	C362	0.950200	0.888270	0.051900
H1621	H162	0.952800	0.913000	0.040000
C3631	C363	0.005100	0.868890	0.080300
H1631	H163	0.046000	0.880700	0.089000
C3641	C364	0.004000	0.832170	0.097400
C3651	C365	0.944400	0.816080	0.086700
H1641	H164	0.941600	0.791400	0.099200
C3661	C366	0.888500	0.835900	0.057600
H1651	H165	0.847500	0.824300	0.049500
C3671	C367	0.062100	0.811660	0.126300
C3681	C368	0.112400	0.795710	0.149700
C3691	C369	0.174700	0.779030	0.175200
C3701	C370	0.582700	0.891750	0.779800
C3711	C371	0.516800	0.878070	0.733500
C3721	C372	0.485000	0.852600	0.758500
H1661	H166	0.502800	0.843800	0.804600
C3731	C373	0.425300	0.838900	0.716800
H1671	H167	0.402900	0.821400	0.735800
C3741	C374	0.399600	0.849850	0.652100
C3751	C375	0.339600	0.833490	0.609200
C3761	C376	0.291200	0.818020	0.578500
C3771	C377	0.802500	0.010900	0.836200
C3781	C378	0.808300	0.045700	0.799600
C3791	C379	0.865200	0.060300	0.802400
H1681	H168	0.903400	0.048800	0.830600
C3801	C380	0.872000	0.090600	0.767200
H1691	H169	0.914000	0.098300	0.766500
C3811	C381	0.765900	0.098500	0.737500
H1701	H170	0.728900	0.113700	0.721500
C3821	C382	0.757000	0.063500	0.765400
H1711	H171	0.714700	0.053800	0.759000
C3831	C383	0.034300	0.327900	0.683000
C3841	C384	0.090400	0.314500	0.698500
H1721	H172	0.096100	0.290100	0.714600
C3851	C385	0.148000	0.334800	0.693100
H1731	H173	0.188300	0.322500	0.700400
C3861	C386	0.086000	0.379900	0.659300
H1741	H174	0.080100	0.403600	0.639900
C3871	C387	0.031000	0.360800	0.664900
H1751	H175	0.990300	0.372900	0.654800
C3881	C388	0.496400	0.837900	0.183600
H1761	H176	0.507000	0.812900	0.189300
C3891	C389	0.465100	0.910700	0.159000
H1771	H177	0.454200	0.935300	0.148100
C3901	C390	0.488100	0.891700	0.668900
H1781	H178	0.508700	0.910900	0.651800
C3911	C391	0.429600	0.878100	0.627300
H1791	H179	0.410100	0.887900	0.582300
C3921	C392	0.572200	0.923900	0.136100
C3931	C393	0.524400	0.897800	0.157200
C3941	C394	0.538900	0.862800	0.167600
H1801	H180	0.579600	0.854400	0.164000
C3951	C395	0.200600	0.387200	0.670200
C3961	C396	0.144600	0.366600	0.679600
O611	O61	0.284540	0.440350	0.452800
O621	O62	0.305300	0.434010	0.600300
O631	O63	0.314200	0.511720	0.541200
O641	O64	0.422390	0.421020	0.540400
O651	O65	0.210300	0.495790	0.514000
O661	O66	0.833100	0.925700	0.997000
O671	O67	0.212800	0.502210	0.370200
O681	O68	0.844470	0.923140	0.147900
O691	O69	0.299000	0.490790	0.332000
O701	O70	0.626900	0.912180	0.148900
O711	O71	0.772700	0.916810	0.208200
O721	O72	0.608300	0.873410	0.830700
O731	O73	0.247800	0.370060	0.661900
O741	O74	0.777000	0.874320	0.988400
O751	O75	0.357590	0.372480	0.520000
O761	O76	0.852100	0.995280	0.877400
O771	O77	0.194600	0.420540	0.664900
O781	O78	0.743700	0.996610	0.823500
O791	O79	0.606000	0.919590	0.758300
O801	O80	0.551300	0.953600	0.112400
