data_KULLAG_clean_PM
_symmetry_space_group_name_H-M	'P1'
_cell_length_a	25.056000
_cell_length_b	36.884000
_cell_length_c	19.669000
_cell_angle_alpha	90.000000
_cell_angle_beta	123.272000
_cell_angle_gamma	90.000000
_symmetry_Int_Tables_number 1

loop_
_symmetry_equiv_pos_as_xyz
'x,y,z'

loop_
_atom_site_label
_atom_site_type_symbol
_atom_site_fract_x
_atom_site_fract_y
_atom_site_fract_z
Co11	Co1	0.598800	0.213950	0.757030
Co21	Co2	0.501740	0.176350	0.580800
O11	O1	0.495310	0.227270	0.541520
O21	O2	0.567000	0.251600	0.663950
O31	O3	0.047580	0.651030	0.063800
O41	O4	0.083600	0.654980	0.989900
O51	O5	0.859460	0.678180	0.642530
O61	O6	0.914020	0.626250	0.684200
O71	O7	0.083100	0.657460	0.602980
O81	O8	0.150880	0.683130	0.723810
O91	O9	0.551820	0.245610	0.800580
O101	O10	0.512780	0.185540	0.687060
C11	C1	0.526460	0.253680	0.588300
C21	C2	0.513990	0.290490	0.549700
C31	C3	0.472100	0.295450	0.468100
H11	H1	0.450400	0.275100	0.434400
C41	C4	0.460800	0.329570	0.433500
H21	H2	0.431700	0.332300	0.376500
C51	C5	0.490870	0.359320	0.480200
C61	C6	0.535100	0.354440	0.564600
H31	H3	0.557600	0.374700	0.598200
C71	C7	0.545700	0.320170	0.598100
H41	H4	0.575100	0.317000	0.654900
C81	C8	0.480760	0.395660	0.447400
C91	C9	0.475210	0.426590	0.426400
C101	C10	0.472670	0.464790	0.409230
C111	C11	0.414380	0.483090	0.367000
H51	H5	0.375600	0.470200	0.346000
C121	C12	0.413530	0.520400	0.355830
C131	C13	0.470550	0.539120	0.387100
H61	H6	0.469700	0.564600	0.379700
C141	C14	0.528670	0.521200	0.428900
C151	C15	0.529380	0.483670	0.439600
H71	H7	0.568900	0.471000	0.467800
C161	C16	0.354680	0.540180	0.309200
C171	C17	0.308580	0.558570	0.269100
C181	C18	0.252900	0.580580	0.216200
C191	C19	0.207700	0.587530	0.233900
H81	H8	0.212400	0.577900	0.281700
C201	C20	0.154900	0.608930	0.180600
H91	H9	0.124500	0.614400	0.193600
C211	C21	0.146200	0.622100	0.110700
C221	C22	0.190000	0.613900	0.092700
H101	H10	0.183900	0.622500	0.043300
C231	C23	0.243000	0.593420	0.144800
H111	H11	0.273100	0.588100	0.131000
C241	C24	0.088600	0.644750	0.051500
C251	C25	0.587120	0.541180	0.461200
C261	C26	0.633960	0.559380	0.487800
C271	C27	0.690720	0.581180	0.522500
C281	C28	0.688400	0.617980	0.520800
H121	H12	0.648200	0.629900	0.493700
C291	C29	0.744200	0.638550	0.558300
H131	H13	0.741100	0.664200	0.555700
C301	C30	0.802800	0.622920	0.598600
C311	C31	0.804400	0.585610	0.597600
H141	H14	0.844400	0.573500	0.624700
C321	C32	0.749300	0.565790	0.558300
H151	H15	0.752200	0.540200	0.555800
C331	C33	0.862900	0.644250	0.644400
C341	C34	0.442780	0.321320	0.705100
H161	H16	0.403600	0.308500	0.674200
C351	C35	0.442570	0.358950	0.705200
H171	H17	0.403500	0.371900	0.674800
C361	C36	0.443270	0.507280	0.720100
H181	H18	0.404300	0.494400	0.698100
C371	C37	0.443580	0.545100	0.722300
C381	C38	0.386770	0.564870	0.700600
C391	C39	0.341500	0.581500	0.688900
C401	C40	0.290160	0.602090	0.682000
C411	C41	0.231400	0.604040	0.609600
H191	H19	0.224600	0.592000	0.562800
C421	C42	0.137620	0.662630	0.666300
C431	C43	0.191260	0.641830	0.670700
C441	C44	0.250320	0.639800	0.744300
H201	H20	0.257000	0.652100	0.790800
C451	C45	0.298890	0.619950	0.749600
H211	H21	0.338900	0.618400	0.800100
C461	C46	0.182100	0.623480	0.605000
H221	H22	0.141300	0.624000	0.555300
Co31	Co3	0.098800	0.713950	0.757030
Co41	Co4	0.001740	0.676350	0.580800
O111	O11	0.995310	0.727270	0.541520
O121	O12	0.067000	0.751600	0.663950
O131	O13	0.547580	0.151030	0.063800
O141	O14	0.583600	0.154980	0.989900
O151	O15	0.359460	0.178180	0.642530
O161	O16	0.414020	0.126250	0.684200
O171	O17	0.583100	0.157460	0.602980
O181	O18	0.650880	0.183130	0.723810
O191	O19	0.051820	0.745610	0.800580
O201	O20	0.012780	0.685540	0.687060
C471	C47	0.026460	0.753680	0.588300
C481	C48	0.013990	0.790490	0.549700
C491	C49	0.972100	0.795450	0.468100
H231	H23	0.950400	0.775100	0.434400
C501	C50	0.960800	0.829570	0.433500
H241	H24	0.931700	0.832300	0.376500
C511	C51	0.990870	0.859320	0.480200
C521	C52	0.035100	0.854440	0.564600
H251	H25	0.057600	0.874700	0.598200
C531	C53	0.045700	0.820170	0.598100
H261	H26	0.075100	0.817000	0.654900
C541	C54	0.980760	0.895660	0.447400
C551	C55	0.975210	0.926590	0.426400
C561	C56	0.972670	0.964790	0.409230
C571	C57	0.914380	0.983090	0.367000
H271	H27	0.875600	0.970200	0.346000
C581	C58	0.913530	0.020400	0.355830
C591	C59	0.970550	0.039120	0.387100
H281	H28	0.969700	0.064600	0.379700
C601	C60	0.028670	0.021200	0.428900
C611	C61	0.029380	0.983670	0.439600
H291	H29	0.068900	0.971000	0.467800
C621	C62	0.854680	0.040180	0.309200
C631	C63	0.808580	0.058570	0.269100
C641	C64	0.752900	0.080580	0.216200
C651	C65	0.707700	0.087530	0.233900
H301	H30	0.712400	0.077900	0.281700
C661	C66	0.654900	0.108930	0.180600
H311	H31	0.624500	0.114400	0.193600
C671	C67	0.646200	0.122100	0.110700
C681	C68	0.690000	0.113900	0.092700
H321	H32	0.683900	0.122500	0.043300
C691	C69	0.743000	0.093420	0.144800
H331	H33	0.773100	0.088100	0.131000
C701	C70	0.588600	0.144750	0.051500
C711	C71	0.087120	0.041180	0.461200
C721	C72	0.133960	0.059380	0.487800
C731	C73	0.190720	0.081180	0.522500
C741	C74	0.188400	0.117980	0.520800
H341	H34	0.148200	0.129900	0.493700
C751	C75	0.244200	0.138550	0.558300
H351	H35	0.241100	0.164200	0.555700
C761	C76	0.302800	0.122920	0.598600
C771	C77	0.304400	0.085610	0.597600
H361	H36	0.344400	0.073500	0.624700
C781	C78	0.249300	0.065790	0.558300
H371	H37	0.252200	0.040200	0.555800
C791	C79	0.362900	0.144250	0.644400
C801	C80	0.942780	0.821320	0.705100
H381	H38	0.903600	0.808500	0.674200
C811	C81	0.942570	0.858950	0.705200
H391	H39	0.903500	0.871900	0.674800
C821	C82	0.943270	0.007280	0.720100
H401	H40	0.904300	0.994400	0.698100
C831	C83	0.943580	0.045100	0.722300
C841	C84	0.886770	0.064870	0.700600
C851	C85	0.841500	0.081500	0.688900
C861	C86	0.790160	0.102090	0.682000
C871	C87	0.731400	0.104040	0.609600
H411	H41	0.724600	0.092000	0.562800
C881	C88	0.637620	0.162630	0.666300
C891	C89	0.691260	0.141830	0.670700
C901	C90	0.750320	0.139800	0.744300
H421	H42	0.757000	0.152100	0.790800
C911	C91	0.798890	0.119950	0.749600
H431	H43	0.838900	0.118400	0.800100
C921	C92	0.682100	0.123480	0.605000
H441	H44	0.641300	0.124000	0.555300
Co51	Co5	0.401200	0.213950	0.742970
Co61	Co6	0.498260	0.176350	0.919200
O211	O21	0.504690	0.227270	0.958480
O221	O22	0.433000	0.251600	0.836050
O231	O23	0.952420	0.651030	0.436200
O241	O24	0.916400	0.654980	0.510100
O251	O25	0.140540	0.678180	0.857470
O261	O26	0.085980	0.626250	0.815800
O271	O27	0.916900	0.657460	0.897020
O281	O28	0.849120	0.683130	0.776190
O291	O29	0.448180	0.245610	0.699420
O301	O30	0.487220	0.185540	0.812940
C931	C93	0.473540	0.253680	0.911700
C941	C94	0.486010	0.290490	0.950300
C951	C95	0.527900	0.295450	0.031900
H451	H45	0.549600	0.275100	0.065600
C961	C96	0.539200	0.329570	0.066500
H461	H46	0.568300	0.332300	0.123500
C971	C97	0.509130	0.359320	0.019800
C981	C98	0.464900	0.354440	0.935400
H471	H47	0.442400	0.374700	0.901800
C991	C99	0.454300	0.320170	0.901900
H481	H48	0.424900	0.317000	0.845100
C1001	C100	0.519240	0.395660	0.052600
C1011	C101	0.524790	0.426590	0.073600
C1021	C102	0.527330	0.464790	0.090770
C1031	C103	0.585620	0.483090	0.133000
H491	H49	0.624400	0.470200	0.154000
C1041	C104	0.586470	0.520400	0.144170
C1051	C105	0.529450	0.539120	0.112900
H501	H50	0.530300	0.564600	0.120300
C1061	C106	0.471330	0.521200	0.071100
C1071	C107	0.470620	0.483670	0.060400
H511	H51	0.431100	0.471000	0.032200
C1081	C108	0.645320	0.540180	0.190800
C1091	C109	0.691420	0.558570	0.230900
C1101	C110	0.747100	0.580580	0.283800
C1111	C111	0.792300	0.587530	0.266100
H521	H52	0.787600	0.577900	0.218300
C1121	C112	0.845100	0.608930	0.319400
H531	H53	0.875500	0.614400	0.306400
C1131	C113	0.853800	0.622100	0.389300
C1141	C114	0.810000	0.613900	0.407300
H541	H54	0.816100	0.622500	0.456700
C1151	C115	0.757000	0.593420	0.355200
H551	H55	0.726900	0.588100	0.369000
C1161	C116	0.911400	0.644750	0.448500
C1171	C117	0.412880	0.541180	0.038800
C1181	C118	0.366040	0.559380	0.012200
C1191	C119	0.309280	0.581180	0.977500
C1201	C120	0.311600	0.617980	0.979200
H561	H56	0.351800	0.629900	0.006300
C1211	C121	0.255800	0.638550	0.941700
H571	H57	0.258900	0.664200	0.944300
C1221	C122	0.197200	0.622920	0.901400
C1231	C123	0.195600	0.585610	0.902400
H581	H58	0.155600	0.573500	0.875300
C1241	C124	0.250700	0.565790	0.941700
H591	H59	0.247800	0.540200	0.944200
C1251	C125	0.137100	0.644250	0.855600
C1261	C126	0.557220	0.321320	0.794900
H601	H60	0.596400	0.308500	0.825800
C1271	C127	0.557430	0.358950	0.794800
H611	H61	0.596500	0.371900	0.825200
C1281	C128	0.556730	0.507280	0.779900
H621	H62	0.595700	0.494400	0.801900
C1291	C129	0.556420	0.545100	0.777700
C1301	C130	0.613230	0.564870	0.799400
C1311	C131	0.658500	0.581500	0.811100
C1321	C132	0.709840	0.602090	0.818000
C1331	C133	0.768600	0.604040	0.890400
H631	H63	0.775400	0.592000	0.937200
C1341	C134	0.862380	0.662630	0.833700
C1351	C135	0.808740	0.641830	0.829300
C1361	C136	0.749680	0.639800	0.755700
H641	H64	0.743000	0.652100	0.709200
C1371	C137	0.701110	0.619950	0.750400
H651	H65	0.661100	0.618400	0.699900
C1381	C138	0.817900	0.623480	0.895000
H661	H66	0.858700	0.624000	0.944700
Co71	Co7	0.901200	0.713950	0.742970
Co81	Co8	0.998260	0.676350	0.919200
O311	O31	0.004690	0.727270	0.958480
O321	O32	0.933000	0.751600	0.836050
O331	O33	0.452420	0.151030	0.436200
O341	O34	0.416400	0.154980	0.510100
O351	O35	0.640540	0.178180	0.857470
O361	O36	0.585980	0.126250	0.815800
O371	O37	0.416900	0.157460	0.897020
O381	O38	0.349120	0.183130	0.776190
O391	O39	0.948180	0.745610	0.699420
O401	O40	0.987220	0.685540	0.812940
C1391	C139	0.973540	0.753680	0.911700
C1401	C140	0.986010	0.790490	0.950300
C1411	C141	0.027900	0.795450	0.031900
H671	H67	0.049600	0.775100	0.065600
C1421	C142	0.039200	0.829570	0.066500
H681	H68	0.068300	0.832300	0.123500
C1431	C143	0.009130	0.859320	0.019800
C1441	C144	0.964900	0.854440	0.935400
H691	H69	0.942400	0.874700	0.901800
C1451	C145	0.954300	0.820170	0.901900
H701	H70	0.924900	0.817000	0.845100
C1461	C146	0.019240	0.895660	0.052600
C1471	C147	0.024790	0.926590	0.073600
C1481	C148	0.027330	0.964790	0.090770
C1491	C149	0.085620	0.983090	0.133000
H711	H71	0.124400	0.970200	0.154000
C1501	C150	0.086470	0.020400	0.144170
C1511	C151	0.029450	0.039120	0.112900
H721	H72	0.030300	0.064600	0.120300
C1521	C152	0.971330	0.021200	0.071100
C1531	C153	0.970620	0.983670	0.060400
H731	H73	0.931100	0.971000	0.032200
C1541	C154	0.145320	0.040180	0.190800
C1551	C155	0.191420	0.058570	0.230900
C1561	C156	0.247100	0.080580	0.283800
C1571	C157	0.292300	0.087530	0.266100
H741	H74	0.287600	0.077900	0.218300
C1581	C158	0.345100	0.108930	0.319400
H751	H75	0.375500	0.114400	0.306400
C1591	C159	0.353800	0.122100	0.389300
C1601	C160	0.310000	0.113900	0.407300
H761	H76	0.316100	0.122500	0.456700
C1611	C161	0.257000	0.093420	0.355200
H771	H77	0.226900	0.088100	0.369000
C1621	C162	0.411400	0.144750	0.448500
C1631	C163	0.912880	0.041180	0.038800
C1641	C164	0.866040	0.059380	0.012200
C1651	C165	0.809280	0.081180	0.977500
C1661	C166	0.811600	0.117980	0.979200
H781	H78	0.851800	0.129900	0.006300
C1671	C167	0.755800	0.138550	0.941700
H791	H79	0.758900	0.164200	0.944300
C1681	C168	0.697200	0.122920	0.901400
C1691	C169	0.695600	0.085610	0.902400
H801	H80	0.655600	0.073500	0.875300
C1701	C170	0.750700	0.065790	0.941700
H811	H81	0.747800	0.040200	0.944200
C1711	C171	0.637100	0.144250	0.855600
C1721	C172	0.057220	0.821320	0.794900
H821	H82	0.096400	0.808500	0.825800
C1731	C173	0.057430	0.858950	0.794800
H831	H83	0.096500	0.871900	0.825200
C1741	C174	0.056730	0.007280	0.779900
H841	H84	0.095700	0.994400	0.801900
C1751	C175	0.056420	0.045100	0.777700
C1761	C176	0.113230	0.064870	0.799400
C1771	C177	0.158500	0.081500	0.811100
C1781	C178	0.209840	0.102090	0.818000
C1791	C179	0.268600	0.104040	0.890400
H851	H85	0.275400	0.092000	0.937200
C1801	C180	0.362380	0.162630	0.833700
C1811	C181	0.308740	0.141830	0.829300
C1821	C182	0.249680	0.139800	0.755700
H861	H86	0.243000	0.152100	0.709200
C1831	C183	0.201110	0.119950	0.750400
H871	H87	0.161100	0.118400	0.699900
C1841	C184	0.317900	0.123480	0.895000
H881	H88	0.358700	0.124000	0.944700
Co91	Co9	0.500000	0.146260	0.750000
C1851	C185	0.500000	0.261440	0.750000
C1861	C186	0.500000	0.302210	0.750000
C1871	C187	0.500000	0.377370	0.750000
C1881	C188	0.500000	0.416990	0.750000
C1891	C189	0.500000	0.449330	0.750000
C1901	C190	0.500000	0.488420	0.750000
C1911	C191	0.500000	0.563950	0.750000
H891	H89	0.500000	0.589700	0.750000
Co101	Co10	0.000000	0.646260	0.750000
C1921	C192	0.000000	0.761440	0.750000
C1931	C193	0.000000	0.802210	0.750000
C1941	C194	0.000000	0.877370	0.750000
C1951	C195	0.000000	0.916990	0.750000
C1961	C196	0.000000	0.949330	0.750000
C1971	C197	0.000000	0.988420	0.750000
C1981	C198	0.000000	0.063950	0.750000
H901	H90	0.000000	0.089700	0.750000
Co111	Co11	0.401200	0.786050	0.242970
Co121	Co12	0.498260	0.823650	0.419200
O411	O41	0.504690	0.772730	0.458480
O421	O42	0.433000	0.748400	0.336050
O431	O43	0.952420	0.348970	0.936200
O441	O44	0.916400	0.345020	0.010100
O451	O45	0.140540	0.321820	0.357470
O461	O46	0.085980	0.373750	0.315800
O471	O47	0.916900	0.342540	0.397020
O481	O48	0.849120	0.316870	0.276190
O491	O49	0.448180	0.754390	0.199420
O501	O50	0.487220	0.814460	0.312940
C1991	C199	0.473540	0.746320	0.411700
C2001	C200	0.486010	0.709510	0.450300
C2011	C201	0.527900	0.704550	0.531900
H911	H91	0.549600	0.724900	0.565600
C2021	C202	0.539200	0.670430	0.566500
H921	H92	0.568300	0.667700	0.623500
C2031	C203	0.509130	0.640680	0.519800
C2041	C204	0.464900	0.645560	0.435400
H931	H93	0.442400	0.625300	0.401800
C2051	C205	0.454300	0.679830	0.401900
H941	H94	0.424900	0.683000	0.345100
C2061	C206	0.519240	0.604340	0.552600
C2071	C207	0.524790	0.573410	0.573600
C2081	C208	0.527330	0.535210	0.590770
C2091	C209	0.585620	0.516910	0.633000
H951	H95	0.624400	0.529800	0.654000
C2101	C210	0.586470	0.479600	0.644170
C2111	C211	0.529450	0.460880	0.612900
H961	H96	0.530300	0.435400	0.620300
C2121	C212	0.471330	0.478800	0.571100
C2131	C213	0.470620	0.516330	0.560400
H971	H97	0.431100	0.529000	0.532200
C2141	C214	0.645320	0.459820	0.690800
C2151	C215	0.691420	0.441430	0.730900
C2161	C216	0.747100	0.419420	0.783800
C2171	C217	0.792300	0.412470	0.766100
H981	H98	0.787600	0.422100	0.718300
C2181	C218	0.845100	0.391070	0.819400
H991	H99	0.875500	0.385600	0.806400
C2191	C219	0.853800	0.377900	0.889300
C2201	C220	0.810000	0.386100	0.907300
H1001	H100	0.816100	0.377500	0.956700
C2211	C221	0.757000	0.406580	0.855200
H1011	H101	0.726900	0.411900	0.869000
C2221	C222	0.911400	0.355250	0.948500
C2231	C223	0.412880	0.458820	0.538800
C2241	C224	0.366040	0.440620	0.512200
C2251	C225	0.309280	0.418820	0.477500
C2261	C226	0.311600	0.382020	0.479200
H1021	H102	0.351800	0.370100	0.506300
C2271	C227	0.255800	0.361450	0.441700
H1031	H103	0.258900	0.335800	0.444300
C2281	C228	0.197200	0.377080	0.401400
C2291	C229	0.195600	0.414390	0.402400
H1041	H104	0.155600	0.426500	0.375300
C2301	C230	0.250700	0.434210	0.441700
H1051	H105	0.247800	0.459800	0.444200
C2311	C231	0.137100	0.355750	0.355600
C2321	C232	0.557220	0.678680	0.294900
H1061	H106	0.596400	0.691500	0.325800
C2331	C233	0.557430	0.641050	0.294800
H1071	H107	0.596500	0.628100	0.325200
C2341	C234	0.556730	0.492720	0.279900
H1081	H108	0.595700	0.505600	0.301900
C2351	C235	0.556420	0.454900	0.277700
C2361	C236	0.613230	0.435130	0.299400
C2371	C237	0.658500	0.418500	0.311100
C2381	C238	0.709840	0.397910	0.318000
C2391	C239	0.768600	0.395960	0.390400
H1091	H109	0.775400	0.408000	0.437200
C2401	C240	0.862380	0.337370	0.333700
C2411	C241	0.808740	0.358170	0.329300
C2421	C242	0.749680	0.360200	0.255700
H1101	H110	0.743000	0.347900	0.209200
C2431	C243	0.701110	0.380050	0.250400
H1111	H111	0.661100	0.381600	0.199900
C2441	C244	0.817900	0.376520	0.395000
H1121	H112	0.858700	0.376000	0.444700
Co131	Co13	0.901200	0.286050	0.242970
Co141	Co14	0.998260	0.323650	0.419200
O511	O51	0.004690	0.272730	0.458480
O521	O52	0.933000	0.248400	0.336050
O531	O53	0.452420	0.848970	0.936200
O541	O54	0.416400	0.845020	0.010100
O551	O55	0.640540	0.821820	0.357470
O561	O56	0.585980	0.873750	0.315800
O571	O57	0.416900	0.842540	0.397020
O581	O58	0.349120	0.816870	0.276190
O591	O59	0.948180	0.254390	0.199420
O601	O60	0.987220	0.314460	0.312940
C2451	C245	0.973540	0.246320	0.411700
C2461	C246	0.986010	0.209510	0.450300
C2471	C247	0.027900	0.204550	0.531900
H1131	H113	0.049600	0.224900	0.565600
C2481	C248	0.039200	0.170430	0.566500
H1141	H114	0.068300	0.167700	0.623500
C2491	C249	0.009130	0.140680	0.519800
C2501	C250	0.964900	0.145560	0.435400
H1151	H115	0.942400	0.125300	0.401800
C2511	C251	0.954300	0.179830	0.401900
H1161	H116	0.924900	0.183000	0.345100
C2521	C252	0.019240	0.104340	0.552600
C2531	C253	0.024790	0.073410	0.573600
C2541	C254	0.027330	0.035210	0.590770
C2551	C255	0.085620	0.016910	0.633000
H1171	H117	0.124400	0.029800	0.654000
C2561	C256	0.086470	0.979600	0.644170
C2571	C257	0.029450	0.960880	0.612900
H1181	H118	0.030300	0.935400	0.620300
C2581	C258	0.971330	0.978800	0.571100
C2591	C259	0.970620	0.016330	0.560400
H1191	H119	0.931100	0.029000	0.532200
C2601	C260	0.145320	0.959820	0.690800
C2611	C261	0.191420	0.941430	0.730900
C2621	C262	0.247100	0.919420	0.783800
C2631	C263	0.292300	0.912470	0.766100
H1201	H120	0.287600	0.922100	0.718300
C2641	C264	0.345100	0.891070	0.819400
H1211	H121	0.375500	0.885600	0.806400
C2651	C265	0.353800	0.877900	0.889300
C2661	C266	0.310000	0.886100	0.907300
H1221	H122	0.316100	0.877500	0.956700
C2671	C267	0.257000	0.906580	0.855200
H1231	H123	0.226900	0.911900	0.869000
C2681	C268	0.411400	0.855250	0.948500
C2691	C269	0.912880	0.958820	0.538800
C2701	C270	0.866040	0.940620	0.512200
C2711	C271	0.809280	0.918820	0.477500
C2721	C272	0.811600	0.882020	0.479200
H1241	H124	0.851800	0.870100	0.506300
C2731	C273	0.755800	0.861450	0.441700
H1251	H125	0.758900	0.835800	0.444300
C2741	C274	0.697200	0.877080	0.401400
C2751	C275	0.695600	0.914390	0.402400
H1261	H126	0.655600	0.926500	0.375300
C2761	C276	0.750700	0.934210	0.441700
H1271	H127	0.747800	0.959800	0.444200
C2771	C277	0.637100	0.855750	0.355600
C2781	C278	0.057220	0.178680	0.294900
H1281	H128	0.096400	0.191500	0.325800
C2791	C279	0.057430	0.141050	0.294800
H1291	H129	0.096500	0.128100	0.325200
C2801	C280	0.056730	0.992720	0.279900
H1301	H130	0.095700	0.005600	0.301900
C2811	C281	0.056420	0.954900	0.277700
C2821	C282	0.113230	0.935130	0.299400
C2831	C283	0.158500	0.918500	0.311100
C2841	C284	0.209840	0.897910	0.318000
C2851	C285	0.268600	0.895960	0.390400
H1311	H131	0.275400	0.908000	0.437200
C2861	C286	0.362380	0.837370	0.333700
C2871	C287	0.308740	0.858170	0.329300
C2881	C288	0.249680	0.860200	0.255700
H1321	H132	0.243000	0.847900	0.209200
C2891	C289	0.201110	0.880050	0.250400
H1331	H133	0.161100	0.881600	0.199900
C2901	C290	0.317900	0.876520	0.395000
H1341	H134	0.358700	0.876000	0.444700
Co151	Co15	0.598800	0.786050	0.257030
Co161	Co16	0.501740	0.823650	0.080800
O611	O61	0.495310	0.772730	0.041520
O621	O62	0.567000	0.748400	0.163950
O631	O63	0.047580	0.348970	0.563800
O641	O64	0.083600	0.345020	0.489900
O651	O65	0.859460	0.321820	0.142530
O661	O66	0.914020	0.373750	0.184200
O671	O67	0.083100	0.342540	0.102980
O681	O68	0.150880	0.316870	0.223810
O691	O69	0.551820	0.754390	0.300580
O701	O70	0.512780	0.814460	0.187060
C2911	C291	0.526460	0.746320	0.088300
C2921	C292	0.513990	0.709510	0.049700
C2931	C293	0.472100	0.704550	0.968100
H1351	H135	0.450400	0.724900	0.934400
C2941	C294	0.460800	0.670430	0.933500
H1361	H136	0.431700	0.667700	0.876500
C2951	C295	0.490870	0.640680	0.980200
C2961	C296	0.535100	0.645560	0.064600
H1371	H137	0.557600	0.625300	0.098200
C2971	C297	0.545700	0.679830	0.098100
H1381	H138	0.575100	0.683000	0.154900
C2981	C298	0.480760	0.604340	0.947400
C2991	C299	0.475210	0.573410	0.926400
C3001	C300	0.472670	0.535210	0.909230
C3011	C301	0.414380	0.516910	0.867000
H1391	H139	0.375600	0.529800	0.846000
C3021	C302	0.413530	0.479600	0.855830
C3031	C303	0.470550	0.460880	0.887100
H1401	H140	0.469700	0.435400	0.879700
C3041	C304	0.528670	0.478800	0.928900
C3051	C305	0.529380	0.516330	0.939600
H1411	H141	0.568900	0.529000	0.967800
C3061	C306	0.354680	0.459820	0.809200
C3071	C307	0.308580	0.441430	0.769100
C3081	C308	0.252900	0.419420	0.716200
C3091	C309	0.207700	0.412470	0.733900
H1421	H142	0.212400	0.422100	0.781700
C3101	C310	0.154900	0.391070	0.680600
H1431	H143	0.124500	0.385600	0.693600
C3111	C311	0.146200	0.377900	0.610700
C3121	C312	0.190000	0.386100	0.592700
H1441	H144	0.183900	0.377500	0.543300
C3131	C313	0.243000	0.406580	0.644800
H1451	H145	0.273100	0.411900	0.631000
C3141	C314	0.088600	0.355250	0.551500
C3151	C315	0.587120	0.458820	0.961200
C3161	C316	0.633960	0.440620	0.987800
C3171	C317	0.690720	0.418820	0.022500
C3181	C318	0.688400	0.382020	0.020800
H1461	H146	0.648200	0.370100	0.993700
C3191	C319	0.744200	0.361450	0.058300
H1471	H147	0.741100	0.335800	0.055700
C3201	C320	0.802800	0.377080	0.098600
C3211	C321	0.804400	0.414390	0.097600
H1481	H148	0.844400	0.426500	0.124700
C3221	C322	0.749300	0.434210	0.058300
H1491	H149	0.752200	0.459800	0.055800
C3231	C323	0.862900	0.355750	0.144400
C3241	C324	0.442780	0.678680	0.205100
H1501	H150	0.403600	0.691500	0.174200
C3251	C325	0.442570	0.641050	0.205200
H1511	H151	0.403500	0.628100	0.174800
C3261	C326	0.443270	0.492720	0.220100
H1521	H152	0.404300	0.505600	0.198100
C3271	C327	0.443580	0.454900	0.222300
C3281	C328	0.386770	0.435130	0.200600
C3291	C329	0.341500	0.418500	0.188900
C3301	C330	0.290160	0.397910	0.182000
C3311	C331	0.231400	0.395960	0.109600
H1531	H153	0.224600	0.408000	0.062800
C3321	C332	0.137620	0.337370	0.166300
C3331	C333	0.191260	0.358170	0.170700
C3341	C334	0.250320	0.360200	0.244300
H1541	H154	0.257000	0.347900	0.290800
C3351	C335	0.298890	0.380050	0.249600
H1551	H155	0.338900	0.381600	0.300100
C3361	C336	0.182100	0.376520	0.105000
H1561	H156	0.141300	0.376000	0.055300
Co171	Co17	0.098800	0.286050	0.257030
Co181	Co18	0.001740	0.323650	0.080800
O711	O71	0.995310	0.272730	0.041520
O721	O72	0.067000	0.248400	0.163950
O731	O73	0.547580	0.848970	0.563800
O741	O74	0.583600	0.845020	0.489900
O751	O75	0.359460	0.821820	0.142530
O761	O76	0.414020	0.873750	0.184200
O771	O77	0.583100	0.842540	0.102980
O781	O78	0.650880	0.816870	0.223810
O791	O79	0.051820	0.254390	0.300580
O801	O80	0.012780	0.314460	0.187060
C3371	C337	0.026460	0.246320	0.088300
C3381	C338	0.013990	0.209510	0.049700
C3391	C339	0.972100	0.204550	0.968100
H1571	H157	0.950400	0.224900	0.934400
C3401	C340	0.960800	0.170430	0.933500
H1581	H158	0.931700	0.167700	0.876500
C3411	C341	0.990870	0.140680	0.980200
C3421	C342	0.035100	0.145560	0.064600
H1591	H159	0.057600	0.125300	0.098200
C3431	C343	0.045700	0.179830	0.098100
H1601	H160	0.075100	0.183000	0.154900
C3441	C344	0.980760	0.104340	0.947400
C3451	C345	0.975210	0.073410	0.926400
C3461	C346	0.972670	0.035210	0.909230
C3471	C347	0.914380	0.016910	0.867000
H1611	H161	0.875600	0.029800	0.846000
C3481	C348	0.913530	0.979600	0.855830
C3491	C349	0.970550	0.960880	0.887100
H1621	H162	0.969700	0.935400	0.879700
C3501	C350	0.028670	0.978800	0.928900
C3511	C351	0.029380	0.016330	0.939600
H1631	H163	0.068900	0.029000	0.967800
C3521	C352	0.854680	0.959820	0.809200
C3531	C353	0.808580	0.941430	0.769100
C3541	C354	0.752900	0.919420	0.716200
C3551	C355	0.707700	0.912470	0.733900
H1641	H164	0.712400	0.922100	0.781700
C3561	C356	0.654900	0.891070	0.680600
H1651	H165	0.624500	0.885600	0.693600
C3571	C357	0.646200	0.877900	0.610700
C3581	C358	0.690000	0.886100	0.592700
H1661	H166	0.683900	0.877500	0.543300
C3591	C359	0.743000	0.906580	0.644800
H1671	H167	0.773100	0.911900	0.631000
C3601	C360	0.588600	0.855250	0.551500
C3611	C361	0.087120	0.958820	0.961200
C3621	C362	0.133960	0.940620	0.987800
C3631	C363	0.190720	0.918820	0.022500
C3641	C364	0.188400	0.882020	0.020800
H1681	H168	0.148200	0.870100	0.993700
C3651	C365	0.244200	0.861450	0.058300
H1691	H169	0.241100	0.835800	0.055700
C3661	C366	0.302800	0.877080	0.098600
C3671	C367	0.304400	0.914390	0.097600
H1701	H170	0.344400	0.926500	0.124700
C3681	C368	0.249300	0.934210	0.058300
H1711	H171	0.252200	0.959800	0.055800
C3691	C369	0.362900	0.855750	0.144400
C3701	C370	0.942780	0.178680	0.205100
H1721	H172	0.903600	0.191500	0.174200
C3711	C371	0.942570	0.141050	0.205200
H1731	H173	0.903500	0.128100	0.174800
C3721	C372	0.943270	0.992720	0.220100
H1741	H174	0.904300	0.005600	0.198100
C3731	C373	0.943580	0.954900	0.222300
C3741	C374	0.886770	0.935130	0.200600
C3751	C375	0.841500	0.918500	0.188900
C3761	C376	0.790160	0.897910	0.182000
C3771	C377	0.731400	0.895960	0.109600
H1751	H175	0.724600	0.908000	0.062800
C3781	C378	0.637620	0.837370	0.166300
C3791	C379	0.691260	0.858170	0.170700
C3801	C380	0.750320	0.860200	0.244300
H1761	H176	0.757000	0.847900	0.290800
C3811	C381	0.798890	0.880050	0.249600
H1771	H177	0.838900	0.881600	0.300100
C3821	C382	0.682100	0.876520	0.105000
H1781	H178	0.641300	0.876000	0.055300
Co191	Co19	0.500000	0.853740	0.250000
C3831	C383	0.500000	0.738560	0.250000
C3841	C384	0.500000	0.697790	0.250000
C3851	C385	0.500000	0.622630	0.250000
C3861	C386	0.500000	0.583010	0.250000
C3871	C387	0.500000	0.550670	0.250000
C3881	C388	0.500000	0.511580	0.250000
C3891	C389	0.500000	0.436050	0.250000
H1791	H179	0.500000	0.410300	0.250000
Co201	Co20	0.000000	0.353740	0.250000
C3901	C390	0.000000	0.238560	0.250000
C3911	C391	0.000000	0.197790	0.250000
C3921	C392	0.000000	0.122630	0.250000
C3931	C393	0.000000	0.083010	0.250000
C3941	C394	0.000000	0.050670	0.250000
C3951	C395	0.000000	0.011580	0.250000
C3961	C396	0.000000	0.936050	0.250000
H1801	H180	0.000000	0.910300	0.250000
