data_KULMEK_clean_PM
_symmetry_space_group_name_H-M	'P1'
_cell_length_a	23.821200
_cell_length_b	23.821200
_cell_length_c	30.293800
_cell_angle_alpha	90.000000
_cell_angle_beta	90.000000
_cell_angle_gamma	120.000000
_symmetry_Int_Tables_number 1

loop_
_symmetry_equiv_pos_as_xyz
'x,y,z'

loop_
_atom_site_label
_atom_site_type_symbol
_atom_site_fract_x
_atom_site_fract_y
_atom_site_fract_z
O11	O1	0.322000	0.550410	0.866940
C11	C1	0.246600	0.392100	0.948300
C21	C2	0.272900	0.447100	0.921800
H11	H1	0.316200	0.466800	0.913500
O21	O2	0.988670	0.883740	0.200270
C31	C3	0.913270	0.725430	0.281630
C41	C4	0.939570	0.780430	0.255130
H21	H2	0.982870	0.800130	0.246830
O31	O3	0.655330	0.217080	0.533610
C51	C5	0.579930	0.058770	0.614970
C61	C6	0.606230	0.113770	0.588470
H31	H3	0.649530	0.133470	0.580170
O41	O4	0.449590	0.771590	0.866940
C71	C7	0.607900	0.854500	0.948300
C81	C8	0.552900	0.825800	0.921800
H41	H4	0.533200	0.849400	0.913500
O51	O5	0.116260	0.104920	0.200270
C91	C9	0.274570	0.187830	0.281630
C101	C10	0.219570	0.159130	0.255130
H51	H5	0.199870	0.182730	0.246830
O61	O6	0.782920	0.438260	0.533610
C111	C11	0.941230	0.521170	0.614970
C121	C12	0.886230	0.492470	0.588470
H61	H6	0.866530	0.516070	0.580170
O71	O7	0.228410	0.678000	0.866940
C131	C13	0.145500	0.753400	0.948300
C141	C14	0.174200	0.727100	0.921800
H71	H7	0.150600	0.683800	0.913500
O81	O8	0.895080	0.011330	0.200270
C151	C15	0.812170	0.086730	0.281630
C161	C16	0.840870	0.060430	0.255130
H81	H8	0.817270	0.017130	0.246830
O91	O9	0.561740	0.344670	0.533610
C171	C17	0.478830	0.420070	0.614970
C181	C18	0.507530	0.393770	0.588470
H91	H9	0.483930	0.350470	0.580170
O101	O10	0.449590	0.678000	0.866940
C191	C19	0.607900	0.753400	0.948300
C201	C20	0.552900	0.727100	0.921800
H101	H10	0.533200	0.683800	0.913500
O111	O11	0.116260	0.011330	0.200270
C211	C21	0.274570	0.086730	0.281630
C221	C22	0.219570	0.060430	0.255130
H111	H11	0.199870	0.017130	0.246830
O121	O12	0.782920	0.344670	0.533610
C231	C23	0.941230	0.420070	0.614970
C241	C24	0.886230	0.393770	0.588470
H121	H12	0.866530	0.350470	0.580170
O131	O13	0.228410	0.550410	0.866940
C251	C25	0.145500	0.392100	0.948300
C261	C26	0.174200	0.447100	0.921800
H131	H13	0.150600	0.466800	0.913500
O141	O14	0.895080	0.883740	0.200270
C271	C27	0.812170	0.725430	0.281630
C281	C28	0.840870	0.780430	0.255130
H141	H14	0.817270	0.800130	0.246830
O151	O15	0.561740	0.217080	0.533610
C291	C29	0.478830	0.058770	0.614970
C301	C30	0.507530	0.113770	0.588470
H151	H15	0.483930	0.133470	0.580170
O161	O16	0.322000	0.771590	0.866940
C311	C31	0.246600	0.854500	0.948300
C321	C32	0.272900	0.825800	0.921800
H161	H16	0.316200	0.849400	0.913500
O171	O17	0.988670	0.104920	0.200270
C331	C33	0.913270	0.187830	0.281630
C341	C34	0.939570	0.159130	0.255130
H171	H17	0.982870	0.182730	0.246830
O181	O18	0.655330	0.438260	0.533610
C351	C35	0.579930	0.521170	0.614970
C361	C36	0.606230	0.492470	0.588470
H181	H18	0.649530	0.516070	0.580170
Zn11	Zn1	0.000000	0.000000	0.077590
O191	O19	0.000000	0.000000	0.141640
Zn21	Zn2	0.666670	0.333330	0.410920
O201	O20	0.666670	0.333330	0.474970
Zn31	Zn3	0.333330	0.666670	0.744260
O211	O21	0.333330	0.666670	0.808310
Zn41	Zn4	0.044430	0.088870	0.161500
O221	O22	0.074400	0.148800	0.113200
O231	O23	0.043100	0.086200	0.054250
C371	C37	0.069400	0.138800	0.071700
C381	C38	0.097950	0.195900	0.045400
C391	C39	0.128750	0.257500	0.064000
H191	H19	0.131100	0.262200	0.094500
C401	C40	0.156350	0.312700	0.036900
C411	C41	0.152500	0.305000	0.989900
C421	C42	0.121450	0.242900	0.971000
C431	C43	0.094500	0.189000	0.999500
H201	H20	0.073800	0.147600	0.987500
C441	C44	0.181450	0.362900	0.961200
C451	C45	0.236150	0.472300	0.907900
C461	C46	0.266400	0.532800	0.878500
Zn51	Zn5	0.711100	0.422200	0.494830
O241	O24	0.741070	0.482130	0.446530
O251	O25	0.709770	0.419530	0.387580
C471	C47	0.736070	0.472130	0.405030
C481	C48	0.764620	0.529230	0.378730
C491	C49	0.795420	0.590830	0.397330
H211	H21	0.797770	0.595530	0.427830
C501	C50	0.823020	0.646030	0.370230
C511	C51	0.819170	0.638330	0.323230
C521	C52	0.788120	0.576230	0.304330
C531	C53	0.761170	0.522330	0.332830
H221	H22	0.740470	0.480930	0.320830
C541	C54	0.848120	0.696230	0.294530
C551	C55	0.902820	0.805630	0.241230
C561	C56	0.933070	0.866130	0.211830
Zn61	Zn6	0.377770	0.755540	0.828170
O261	O26	0.407730	0.815470	0.779870
O271	O27	0.376430	0.752870	0.720920
C571	C57	0.402730	0.805470	0.738370
C581	C58	0.431280	0.862570	0.712070
C591	C59	0.462080	0.924170	0.730670
H231	H23	0.464430	0.928870	0.761170
C601	C60	0.489680	0.979370	0.703570
C611	C61	0.485830	0.971670	0.656570
C621	C62	0.454780	0.909570	0.637670
C631	C63	0.427830	0.855670	0.666170
H241	H24	0.407130	0.814270	0.654170
C641	C64	0.514780	0.029570	0.627870
C651	C65	0.569480	0.138970	0.574570
C661	C66	0.599730	0.199470	0.545170
Zn71	Zn7	0.911130	0.955570	0.161500
O281	O28	0.851200	0.925600	0.113200
O291	O29	0.913800	0.956900	0.054250
C671	C67	0.861200	0.930600	0.071700
C681	C68	0.804100	0.902050	0.045400
C691	C69	0.742500	0.871250	0.064000
H251	H25	0.737800	0.868900	0.094500
C701	C70	0.687300	0.843650	0.036900
C711	C71	0.695000	0.847500	0.989900
C721	C72	0.757100	0.878550	0.971000
C731	C73	0.811000	0.905500	0.999500
H261	H26	0.852400	0.926200	0.987500
C741	C74	0.637100	0.818550	0.961200
C751	C75	0.527700	0.763850	0.907900
C761	C76	0.467200	0.733600	0.878500
Zn81	Zn8	0.577800	0.288900	0.494830
O301	O30	0.517870	0.258930	0.446530
O311	O31	0.580470	0.290230	0.387580
C771	C77	0.527870	0.263930	0.405030
C781	C78	0.470770	0.235380	0.378730
C791	C79	0.409170	0.204580	0.397330
H271	H27	0.404470	0.202230	0.427830
C801	C80	0.353970	0.176980	0.370230
C811	C81	0.361670	0.180830	0.323230
C821	C82	0.423770	0.211880	0.304330
C831	C83	0.477670	0.238830	0.332830
H281	H28	0.519070	0.259530	0.320830
C841	C84	0.303770	0.151880	0.294530
C851	C85	0.194370	0.097180	0.241230
C861	C86	0.133870	0.066930	0.211830
Zn91	Zn9	0.244460	0.622230	0.828170
O321	O32	0.184530	0.592270	0.779870
O331	O33	0.247130	0.623570	0.720920
C871	C87	0.194530	0.597270	0.738370
C881	C88	0.137430	0.568720	0.712070
C891	C89	0.075830	0.537920	0.730670
H291	H29	0.071130	0.535570	0.761170
C901	C90	0.020630	0.510320	0.703570
C911	C91	0.028330	0.514170	0.656570
C921	C92	0.090430	0.545220	0.637670
C931	C93	0.144330	0.572170	0.666170
H301	H30	0.185730	0.592870	0.654170
C941	C94	0.970430	0.485220	0.627870
C951	C95	0.861030	0.430520	0.574570
C961	C96	0.800530	0.400270	0.545170
Zn101	Zn10	0.044440	0.955570	0.161500
O341	O34	0.074400	0.925600	0.113200
O351	O35	0.043100	0.956900	0.054250
C971	C97	0.069400	0.930600	0.071700
C981	C98	0.097950	0.902050	0.045400
C991	C99	0.128750	0.871250	0.064000
H311	H31	0.131100	0.868900	0.094500
C1001	C100	0.156350	0.843650	0.036900
C1011	C101	0.152500	0.847500	0.989900
C1021	C102	0.121450	0.878550	0.971000
C1031	C103	0.094500	0.905500	0.999500
H321	H32	0.073800	0.926200	0.987500
C1041	C104	0.181450	0.818550	0.961200
C1051	C105	0.236150	0.763850	0.907900
C1061	C106	0.266400	0.733600	0.878500
Zn111	Zn11	0.711100	0.288900	0.494830
O361	O36	0.741070	0.258930	0.446530
O371	O37	0.709770	0.290230	0.387580
C1071	C107	0.736070	0.263930	0.405030
C1081	C108	0.764620	0.235380	0.378730
C1091	C109	0.795420	0.204580	0.397330
H331	H33	0.797770	0.202230	0.427830
C1101	C110	0.823020	0.176980	0.370230
C1111	C111	0.819170	0.180830	0.323230
C1121	C112	0.788120	0.211880	0.304330
C1131	C113	0.761170	0.238830	0.332830
H341	H34	0.740470	0.259530	0.320830
C1141	C114	0.848120	0.151880	0.294530
C1151	C115	0.902820	0.097180	0.241230
C1161	C116	0.933070	0.066930	0.211830
Zn121	Zn12	0.377770	0.622230	0.828170
O381	O38	0.407730	0.592270	0.779870
O391	O39	0.376430	0.623570	0.720920
C1171	C117	0.402730	0.597270	0.738370
C1181	C118	0.431280	0.568720	0.712070
C1191	C119	0.462080	0.537920	0.730670
H351	H35	0.464430	0.535570	0.761170
C1201	C120	0.489680	0.510320	0.703570
C1211	C121	0.485830	0.514170	0.656570
C1221	C122	0.454780	0.545220	0.637670
C1231	C123	0.427830	0.572170	0.666170
H361	H36	0.407130	0.592870	0.654170
C1241	C124	0.514780	0.485220	0.627870
C1251	C125	0.569480	0.430520	0.574570
C1261	C126	0.599730	0.400270	0.545170
O401	O40	0.550410	0.322000	0.133060
C1271	C127	0.392100	0.246600	0.051700
C1281	C128	0.447100	0.272900	0.078200
H371	H37	0.466800	0.316200	0.086500
O411	O41	0.217080	0.655330	0.466390
C1291	C129	0.058770	0.579930	0.385030
C1301	C130	0.113770	0.606230	0.411530
H381	H38	0.133470	0.649530	0.419830
O421	O42	0.883740	0.988670	0.799730
C1311	C131	0.725430	0.913270	0.718370
C1321	C132	0.780430	0.939570	0.744870
H391	H39	0.800130	0.982870	0.753170
O431	O43	0.771590	0.449590	0.133060
C1331	C133	0.854500	0.607900	0.051700
C1341	C134	0.825800	0.552900	0.078200
H401	H40	0.849400	0.533200	0.086500
O441	O44	0.438260	0.782920	0.466390
C1351	C135	0.521170	0.941230	0.385030
C1361	C136	0.492470	0.886230	0.411530
H411	H41	0.516070	0.866530	0.419830
O451	O45	0.104920	0.116260	0.799730
C1371	C137	0.187830	0.274570	0.718370
C1381	C138	0.159130	0.219570	0.744870
H421	H42	0.182730	0.199870	0.753170
O461	O46	0.678000	0.228410	0.133060
C1391	C139	0.753400	0.145500	0.051700
C1401	C140	0.727100	0.174200	0.078200
H431	H43	0.683800	0.150600	0.086500
O471	O47	0.344670	0.561740	0.466390
C1411	C141	0.420070	0.478830	0.385030
C1421	C142	0.393770	0.507530	0.411530
H441	H44	0.350470	0.483930	0.419830
O481	O48	0.011330	0.895080	0.799730
C1431	C143	0.086730	0.812170	0.718370
C1441	C144	0.060430	0.840870	0.744870
H451	H45	0.017130	0.817270	0.753170
O491	O49	0.678000	0.449590	0.133060
C1451	C145	0.753400	0.607900	0.051700
C1461	C146	0.727100	0.552900	0.078200
H461	H46	0.683800	0.533200	0.086500
O501	O50	0.344670	0.782920	0.466390
C1471	C147	0.420070	0.941230	0.385030
C1481	C148	0.393770	0.886230	0.411530
H471	H47	0.350470	0.866530	0.419830
O511	O51	0.011330	0.116260	0.799730
C1491	C149	0.086730	0.274570	0.718370
C1501	C150	0.060430	0.219570	0.744870
H481	H48	0.017130	0.199870	0.753170
O521	O52	0.550410	0.228410	0.133060
C1511	C151	0.392100	0.145500	0.051700
C1521	C152	0.447100	0.174200	0.078200
H491	H49	0.466800	0.150600	0.086500
O531	O53	0.217080	0.561740	0.466390
C1531	C153	0.058770	0.478830	0.385030
C1541	C154	0.113770	0.507530	0.411530
H501	H50	0.133470	0.483930	0.419830
O541	O54	0.883740	0.895080	0.799730
C1551	C155	0.725430	0.812170	0.718370
C1561	C156	0.780430	0.840870	0.744870
H511	H51	0.800130	0.817270	0.753170
O551	O55	0.771590	0.322000	0.133060
C1571	C157	0.854500	0.246600	0.051700
C1581	C158	0.825800	0.272900	0.078200
H521	H52	0.849400	0.316200	0.086500
O561	O56	0.438260	0.655330	0.466390
C1591	C159	0.521170	0.579930	0.385030
C1601	C160	0.492470	0.606230	0.411530
H531	H53	0.516070	0.649530	0.419830
O571	O57	0.104920	0.988670	0.799730
C1611	C161	0.187830	0.913270	0.718370
C1621	C162	0.159130	0.939570	0.744870
H541	H54	0.182730	0.982870	0.753170
Zn131	Zn13	0.000000	0.000000	0.922410
O581	O58	0.000000	0.000000	0.858360
Zn141	Zn14	0.666670	0.333330	0.255740
O591	O59	0.666670	0.333330	0.191690
Zn151	Zn15	0.333330	0.666670	0.589080
O601	O60	0.333330	0.666670	0.525030
Zn161	Zn16	0.088870	0.044430	0.838500
O611	O61	0.148800	0.074400	0.886800
O621	O62	0.086200	0.043100	0.945750
C1631	C163	0.138800	0.069400	0.928300
C1641	C164	0.195900	0.097950	0.954600
C1651	C165	0.257500	0.128750	0.936000
H551	H55	0.262200	0.131100	0.905500
C1661	C166	0.312700	0.156350	0.963100
C1671	C167	0.305000	0.152500	0.010100
C1681	C168	0.242900	0.121450	0.029000
C1691	C169	0.189000	0.094500	0.000500
H561	H56	0.147600	0.073800	0.012500
C1701	C170	0.362900	0.181450	0.038800
C1711	C171	0.472300	0.236150	0.092100
C1721	C172	0.532800	0.266400	0.121500
Zn171	Zn17	0.755540	0.377770	0.171830
O631	O63	0.815470	0.407730	0.220130
O641	O64	0.752870	0.376430	0.279080
C1731	C173	0.805470	0.402730	0.261630
C1741	C174	0.862570	0.431280	0.287930
C1751	C175	0.924170	0.462080	0.269330
H571	H57	0.928870	0.464430	0.238830
C1761	C176	0.979370	0.489680	0.296430
C1771	C177	0.971670	0.485830	0.343430
C1781	C178	0.909570	0.454780	0.362330
C1791	C179	0.855670	0.427830	0.333830
H581	H58	0.814270	0.407130	0.345830
C1801	C180	0.029570	0.514780	0.372130
C1811	C181	0.138970	0.569480	0.425430
C1821	C182	0.199470	0.599730	0.454830
Zn181	Zn18	0.422200	0.711100	0.505170
O651	O65	0.482130	0.741070	0.553470
O661	O66	0.419530	0.709770	0.612420
C1831	C183	0.472130	0.736070	0.594970
C1841	C184	0.529230	0.764620	0.621270
C1851	C185	0.590830	0.795420	0.602670
H591	H59	0.595530	0.797770	0.572170
C1861	C186	0.646030	0.823020	0.629770
C1871	C187	0.638330	0.819170	0.676770
C1881	C188	0.576230	0.788120	0.695670
C1891	C189	0.522330	0.761170	0.667170
H601	H60	0.480930	0.740470	0.679170
C1901	C190	0.696230	0.848120	0.705470
C1911	C191	0.805630	0.902820	0.758770
C1921	C192	0.866130	0.933070	0.788170
Zn191	Zn19	0.955560	0.911130	0.838500
O671	O67	0.925600	0.851200	0.886800
O681	O68	0.956900	0.913800	0.945750
C1931	C193	0.930600	0.861200	0.928300
C1941	C194	0.902050	0.804100	0.954600
C1951	C195	0.871250	0.742500	0.936000
H611	H61	0.868900	0.737800	0.905500
C1961	C196	0.843650	0.687300	0.963100
C1971	C197	0.847500	0.695000	0.010100
C1981	C198	0.878550	0.757100	0.029000
C1991	C199	0.905500	0.811000	0.000500
H621	H62	0.926200	0.852400	0.012500
C2001	C200	0.818550	0.637100	0.038800
C2011	C201	0.763850	0.527700	0.092100
C2021	C202	0.733600	0.467200	0.121500
Zn201	Zn20	0.622230	0.244460	0.171830
O691	O69	0.592270	0.184530	0.220130
O701	O70	0.623570	0.247130	0.279080
C2031	C203	0.597270	0.194530	0.261630
C2041	C204	0.568720	0.137430	0.287930
C2051	C205	0.537920	0.075830	0.269330
H631	H63	0.535570	0.071130	0.238830
C2061	C206	0.510320	0.020630	0.296430
C2071	C207	0.514170	0.028330	0.343430
C2081	C208	0.545220	0.090430	0.362330
C2091	C209	0.572170	0.144330	0.333830
H641	H64	0.592870	0.185730	0.345830
C2101	C210	0.485220	0.970430	0.372130
C2111	C211	0.430520	0.861030	0.425430
C2121	C212	0.400270	0.800530	0.454830
Zn211	Zn21	0.288900	0.577800	0.505170
O711	O71	0.258930	0.517870	0.553470
O721	O72	0.290230	0.580470	0.612420
C2131	C213	0.263930	0.527870	0.594970
C2141	C214	0.235380	0.470770	0.621270
C2151	C215	0.204580	0.409170	0.602670
H651	H65	0.202230	0.404470	0.572170
C2161	C216	0.176980	0.353970	0.629770
C2171	C217	0.180830	0.361670	0.676770
C2181	C218	0.211880	0.423770	0.695670
C2191	C219	0.238830	0.477670	0.667170
H661	H66	0.259530	0.519070	0.679170
C2201	C220	0.151880	0.303770	0.705470
C2211	C221	0.097180	0.194370	0.758770
C2221	C222	0.066930	0.133870	0.788170
Zn221	Zn22	0.955560	0.044430	0.838500
O731	O73	0.925600	0.074400	0.886800
O741	O74	0.956900	0.043100	0.945750
C2231	C223	0.930600	0.069400	0.928300
C2241	C224	0.902050	0.097950	0.954600
C2251	C225	0.871250	0.128750	0.936000
H671	H67	0.868900	0.131100	0.905500
C2261	C226	0.843650	0.156350	0.963100
C2271	C227	0.847500	0.152500	0.010100
C2281	C228	0.878550	0.121450	0.029000
C2291	C229	0.905500	0.094500	0.000500
H681	H68	0.926200	0.073800	0.012500
C2301	C230	0.818550	0.181450	0.038800
C2311	C231	0.763850	0.236150	0.092100
C2321	C232	0.733600	0.266400	0.121500
Zn231	Zn23	0.622230	0.377770	0.171830
O751	O75	0.592270	0.407730	0.220130
O761	O76	0.623570	0.376430	0.279080
C2331	C233	0.597270	0.402730	0.261630
C2341	C234	0.568720	0.431280	0.287930
C2351	C235	0.537920	0.462080	0.269330
H691	H69	0.535570	0.464430	0.238830
C2361	C236	0.510320	0.489680	0.296430
C2371	C237	0.514170	0.485830	0.343430
C2381	C238	0.545220	0.454780	0.362330
C2391	C239	0.572170	0.427830	0.333830
H701	H70	0.592870	0.407130	0.345830
C2401	C240	0.485220	0.514780	0.372130
C2411	C241	0.430520	0.569480	0.425430
C2421	C242	0.400270	0.599730	0.454830
Zn241	Zn24	0.288900	0.711100	0.505170
O771	O77	0.258930	0.741070	0.553470
O781	O78	0.290230	0.709770	0.612420
C2431	C243	0.263930	0.736070	0.594970
C2441	C244	0.235380	0.764620	0.621270
C2451	C245	0.204580	0.795420	0.602670
H711	H71	0.202230	0.797770	0.572170
C2461	C246	0.176980	0.823020	0.629770
C2471	C247	0.180830	0.819170	0.676770
C2481	C248	0.211880	0.788120	0.695670
C2491	C249	0.238830	0.761170	0.667170
H721	H72	0.259530	0.740470	0.679170
C2501	C250	0.151880	0.848120	0.705470
C2511	C251	0.097180	0.902820	0.758770
C2521	C252	0.066930	0.933070	0.788170
