data_KULMIP_clean_PM
_symmetry_space_group_name_H-M	'P1'
_cell_length_a	12.507800
_cell_length_b	9.430400
_cell_length_c	7.063700
_cell_angle_alpha	90.000000
_cell_angle_beta	106.724000
_cell_angle_gamma	90.000000
_symmetry_Int_Tables_number 1

loop_
_symmetry_equiv_pos_as_xyz
'x,y,z'

loop_
_atom_site_label
_atom_site_type_symbol
_atom_site_fract_x
_atom_site_fract_y
_atom_site_fract_z
Cd11	Cd1	0.786170	0.162210	0.621130
O11	O1	0.612400	0.241600	0.695800
C11	C1	0.578900	0.118500	0.662100
N11	N1	0.217100	0.237600	0.774400
H11	H1	0.235100	0.325800	0.787200
H21	H2	0.154000	0.210100	0.787300
O21	O2	0.635500	0.023500	0.604200
C21	C2	0.467800	0.078300	0.684700
C31	C3	0.437800	0.935500	0.679600
H31	H3	0.487600	0.867300	0.661300
C41	C4	0.394300	0.179000	0.710500
H41	H4	0.412900	0.274600	0.713600
C51	C5	0.267800	0.992200	0.727400
H51	H5	0.200000	0.962800	0.743800
C61	C6	0.291500	0.137400	0.732100
N21	N2	0.339900	0.893800	0.700100
Cd21	Cd2	0.286170	0.662210	0.621130
O31	O3	0.112400	0.741600	0.695800
C71	C7	0.078900	0.618500	0.662100
N31	N3	0.717100	0.737600	0.774400
H61	H6	0.735100	0.825800	0.787200
H71	H7	0.654000	0.710100	0.787300
O41	O4	0.135500	0.523500	0.604200
C81	C8	0.967800	0.578300	0.684700
C91	C9	0.937800	0.435500	0.679600
H81	H8	0.987600	0.367300	0.661300
C101	C10	0.894300	0.679000	0.710500
H91	H9	0.912900	0.774600	0.713600
C111	C11	0.767800	0.492200	0.727400
H101	H10	0.700000	0.462800	0.743800
C121	C12	0.791500	0.637400	0.732100
N41	N4	0.839900	0.393800	0.700100
Cd31	Cd3	0.786170	0.837790	0.121130
O51	O5	0.612400	0.758400	0.195800
C131	C13	0.578900	0.881500	0.162100
N51	N5	0.217100	0.762400	0.274400
H111	H11	0.235100	0.674200	0.287200
H121	H12	0.154000	0.789900	0.287300
O61	O6	0.635500	0.976500	0.104200
C141	C14	0.467800	0.921700	0.184700
C151	C15	0.437800	0.064500	0.179600
H131	H13	0.487600	0.132700	0.161300
C161	C16	0.394300	0.821000	0.210500
H141	H14	0.412900	0.725400	0.213600
C171	C17	0.267800	0.007800	0.227400
H151	H15	0.200000	0.037200	0.243800
C181	C18	0.291500	0.862600	0.232100
N61	N6	0.339900	0.106200	0.200100
Cd41	Cd4	0.286170	0.337790	0.121130
O71	O7	0.112400	0.258400	0.195800
C191	C19	0.078900	0.381500	0.162100
N71	N7	0.717100	0.262400	0.274400
H161	H16	0.735100	0.174200	0.287200
H171	H17	0.654000	0.289900	0.287300
O81	O8	0.135500	0.476500	0.104200
C201	C20	0.967800	0.421700	0.184700
C211	C21	0.937800	0.564500	0.179600
H181	H18	0.987600	0.632700	0.161300
C221	C22	0.894300	0.321000	0.210500
H191	H19	0.912900	0.225400	0.213600
C231	C23	0.767800	0.507800	0.227400
H201	H20	0.700000	0.537200	0.243800
C241	C24	0.791500	0.362600	0.232100
N81	N8	0.839900	0.606200	0.200100
