data_KULRIT_clean_PM
_symmetry_space_group_name_H-M	'P1'
_cell_length_a	8.577300
_cell_length_b	12.139700
_cell_length_c	16.728100
_cell_angle_alpha	90.000000
_cell_angle_beta	90.000000
_cell_angle_gamma	93.036000
_symmetry_Int_Tables_number 1

loop_
_symmetry_equiv_pos_as_xyz
'x,y,z'

loop_
_atom_site_label
_atom_site_type_symbol
_atom_site_fract_x
_atom_site_fract_y
_atom_site_fract_z
Yb11	Yb1	0.481600	0.068830	0.901970
Yb21	Yb2	0.018400	0.431170	0.401970
Yb31	Yb3	0.518400	0.931170	0.098030
Yb41	Yb4	0.981600	0.568830	0.598030
H11	H1	0.849300	0.811100	0.793200
H21	H2	0.735800	0.711900	0.818700
H31	H3	0.771000	0.755000	0.953000
H41	H4	0.938100	0.904800	0.994300
H51	H5	0.979700	0.934600	0.905300
H61	H6	0.076000	0.740000	0.986000
H71	H7	0.199100	0.693000	0.866900
H81	H8	0.144000	0.799700	0.824800
H91	H9	0.942000	0.619000	0.873000
H101	H10	0.650700	0.688900	0.293200
H111	H11	0.764200	0.788100	0.318700
H121	H12	0.729000	0.745000	0.453000
H131	H13	0.561900	0.595200	0.494300
H141	H14	0.520300	0.565400	0.405300
H151	H15	0.424000	0.760000	0.486000
H161	H16	0.300900	0.807000	0.366900
H171	H17	0.356000	0.700300	0.324800
H181	H18	0.558000	0.881000	0.373000
H191	H19	0.150700	0.188900	0.206800
H201	H20	0.264200	0.288100	0.181300
H211	H21	0.229000	0.245000	0.047000
H221	H22	0.061900	0.095200	0.005700
H231	H23	0.020300	0.065400	0.094700
H241	H24	0.924000	0.260000	0.014000
H251	H25	0.800900	0.307000	0.133100
H261	H26	0.856000	0.200300	0.175200
H271	H27	0.058000	0.381000	0.127000
H281	H28	0.349300	0.311100	0.706800
H291	H29	0.235800	0.211900	0.681300
H301	H30	0.271000	0.255000	0.547000
H311	H31	0.438100	0.404800	0.505700
H321	H32	0.479700	0.434600	0.594700
H331	H33	0.576000	0.240000	0.514000
H341	H34	0.699100	0.193000	0.633100
H351	H35	0.644000	0.299700	0.675200
H361	H36	0.442000	0.119000	0.627000
C11	C1	0.829800	0.755000	0.833700
C21	C2	0.803200	0.810600	0.913400
C31	C3	0.954900	0.874000	0.941700
C41	C4	0.095000	0.797200	0.945100
C51	C5	0.114900	0.743200	0.863800
C61	C6	0.966800	0.679600	0.835800
C71	C7	0.679500	0.894900	0.907700
C81	C8	0.240300	0.868600	0.966700
C91	C9	0.982400	0.632300	0.752100
C101	C10	0.670200	0.745000	0.333700
C111	C11	0.696800	0.689400	0.413400
C121	C12	0.545100	0.626000	0.441700
C131	C13	0.405000	0.702800	0.445100
C141	C14	0.385100	0.756800	0.363800
C151	C15	0.533200	0.820400	0.335800
C161	C16	0.820500	0.605100	0.407700
C171	C17	0.259700	0.631400	0.466700
C181	C18	0.517600	0.867700	0.252100
C191	C19	0.170200	0.245000	0.166300
C201	C20	0.196800	0.189400	0.086600
C211	C21	0.045100	0.126000	0.058300
C221	C22	0.905000	0.202800	0.054900
C231	C23	0.885100	0.256800	0.136200
C241	C24	0.033200	0.320400	0.164200
C251	C25	0.320500	0.105100	0.092300
C261	C26	0.759700	0.131400	0.033300
C271	C27	0.017600	0.367700	0.247900
C281	C28	0.329800	0.255000	0.666300
C291	C29	0.303200	0.310600	0.586600
C301	C30	0.454900	0.374000	0.558300
C311	C31	0.595000	0.297200	0.554900
C321	C32	0.614900	0.243200	0.636200
C331	C33	0.466800	0.179600	0.664200
C341	C34	0.179500	0.394900	0.592300
C351	C35	0.740300	0.368600	0.533300
C361	C36	0.482400	0.132300	0.747900
O11	O1	0.661800	0.949000	0.846300
O21	O2	0.594600	0.913000	0.969000
O31	O3	0.286300	0.939700	0.916000
O41	O4	0.303000	0.853900	0.034300
O51	O5	0.896800	0.550200	0.732100
O61	O6	0.073200	0.680500	0.702100
O71	O7	0.838200	0.551000	0.346300
O81	O8	0.905400	0.587000	0.469000
O91	O9	0.213700	0.560300	0.416000
O101	O10	0.197000	0.646100	0.534300
O111	O11	0.603200	0.949800	0.232100
O121	O12	0.426800	0.819500	0.202100
O131	O13	0.338200	0.051000	0.153700
O141	O14	0.405400	0.087000	0.031000
O151	O15	0.713700	0.060300	0.084000
O161	O16	0.697000	0.146100	0.965700
O171	O17	0.103200	0.449800	0.267900
O181	O18	0.926800	0.319500	0.297900
O191	O19	0.161800	0.449000	0.653700
O201	O20	0.094600	0.413000	0.531000
O211	O21	0.786300	0.439700	0.584000
O221	O22	0.803000	0.353900	0.465700
O231	O23	0.396800	0.050200	0.767900
O241	O24	0.573200	0.180500	0.797900
