data_KUNLEL_clean_PM
_symmetry_space_group_name_H-M	'P1'
_cell_length_a	7.833400
_cell_length_b	17.276300
_cell_length_c	9.445000
_cell_angle_alpha	90.000000
_cell_angle_beta	100.475000
_cell_angle_gamma	90.000000
_symmetry_Int_Tables_number 1

loop_
_symmetry_equiv_pos_as_xyz
'x,y,z'

loop_
_atom_site_label
_atom_site_type_symbol
_atom_site_fract_x
_atom_site_fract_y
_atom_site_fract_z
Zn11	Zn1	0.388620	0.326160	0.262300
Zn21	Zn2	0.768050	0.250550	0.489810
O11	O1	0.944400	0.329060	0.576800
O21	O2	0.587100	0.167610	0.424300
O31	O3	0.569300	0.896200	0.566200
O41	O4	0.197900	0.704540	0.853900
O51	O5	0.417000	0.811180	0.415200
C11	C1	0.427100	0.941010	0.336800
C21	C2	0.321700	0.924680	0.205200
H11	H1	0.291100	0.872700	0.179700
C31	C3	0.130200	0.664220	0.746400
O61	O6	0.383700	0.212110	0.244500
C41	C4	0.414800	0.077040	0.278600
C51	C5	0.304400	0.061560	0.148700
H21	H2	0.258800	0.102700	0.086300
C61	C6	0.051100	0.450760	0.664300
C71	C7	0.226100	0.462940	0.901700
C81	C8	0.046200	0.531270	0.651100
H31	H3	0.984200	0.554500	0.565900
C91	C9	0.142100	0.416970	0.790100
H41	H4	0.146500	0.362200	0.799200
C101	C10	0.219800	0.543270	0.887100
H51	H5	0.276700	0.574800	0.963700
C111	C11	0.310500	0.427100	0.041900
C121	C12	0.261300	0.984530	0.111000
C131	C13	0.476800	0.017290	0.371700
H61	H6	0.553300	0.028200	0.459500
C141	C14	0.131800	0.577780	0.762300
C151	C15	0.466100	0.158940	0.319000
O71	O7	0.879000	0.431290	0.431900
O81	O8	0.075900	0.030150	0.907100
H71	H7	0.010000	0.017900	0.829900
O91	O9	0.108700	0.902080	0.928700
O101	O10	0.317900	0.354550	0.052200
O111	O11	0.364800	0.470370	0.145600
C161	C16	0.950300	0.400540	0.548700
C171	C17	0.142800	0.967570	0.972800
C181	C18	0.475600	0.877850	0.446900
O121	O12	0.062900	0.693520	0.624900
Zn31	Zn3	0.611380	0.826160	0.737700
Zn41	Zn4	0.231950	0.750550	0.510190
O131	O13	0.055600	0.829060	0.423200
O141	O14	0.412900	0.667610	0.575700
O151	O15	0.430700	0.396200	0.433800
O161	O16	0.802100	0.204540	0.146100
O171	O17	0.583000	0.311180	0.584800
C191	C19	0.572900	0.441010	0.663200
C201	C20	0.678300	0.424680	0.794800
H81	H8	0.708900	0.372700	0.820300
C211	C21	0.869800	0.164220	0.253600
O181	O18	0.616300	0.712110	0.755500
C221	C22	0.585200	0.577040	0.721400
C231	C23	0.695600	0.561560	0.851300
H91	H9	0.741200	0.602700	0.913700
C241	C24	0.948900	0.950760	0.335700
C251	C25	0.773900	0.962940	0.098300
C261	C26	0.953800	0.031270	0.348900
H101	H10	0.015800	0.054500	0.434100
C271	C27	0.857900	0.916970	0.209900
H111	H11	0.853500	0.862200	0.200800
C281	C28	0.780200	0.043270	0.112900
H121	H12	0.723300	0.074800	0.036300
C291	C29	0.689500	0.927100	0.958100
C301	C30	0.738700	0.484530	0.889000
C311	C31	0.523200	0.517290	0.628300
H131	H13	0.446700	0.528200	0.540500
C321	C32	0.868200	0.077780	0.237700
C331	C33	0.533900	0.658940	0.681000
O191	O19	0.121000	0.931290	0.568100
O201	O20	0.924100	0.530150	0.092900
H141	H14	0.990000	0.517900	0.170100
O211	O21	0.891300	0.402080	0.071300
O221	O22	0.682100	0.854550	0.947800
O231	O23	0.635200	0.970370	0.854400
C341	C34	0.049700	0.900540	0.451300
C351	C35	0.857200	0.467570	0.027200
C361	C36	0.524400	0.377850	0.553100
O241	O24	0.937100	0.193520	0.375100
