data_KUNMUD_clean_PM
_symmetry_space_group_name_H-M	'P1'
_cell_length_a	15.933300
_cell_length_b	15.933300
_cell_length_c	21.131200
_cell_angle_alpha	90.000000
_cell_angle_beta	90.000000
_cell_angle_gamma	90.000000
_symmetry_Int_Tables_number 1

loop_
_symmetry_equiv_pos_as_xyz
'x,y,z'

loop_
_atom_site_label
_atom_site_type_symbol
_atom_site_fract_x
_atom_site_fract_y
_atom_site_fract_z
C11	C1	0.301900	0.430600	0.190000
H11	H1	0.340300	0.437900	0.157400
C21	C2	0.253400	0.465300	0.288800
H21	H2	0.257500	0.496600	0.325900
C31	C3	0.188100	0.410400	0.282600
H31	H3	0.149200	0.405800	0.315200
C41	C4	0.178200	0.360700	0.228300
C51	C5	0.238900	0.374900	0.181600
H41	H4	0.235800	0.345300	0.143800
C61	C6	0.112200	0.296400	0.222300
C71	C7	0.037300	0.300400	0.258000
H51	H5	0.028700	0.344900	0.285700
C81	C8	0.978400	0.240300	0.252100
H61	H6	0.929200	0.244900	0.275600
C91	C9	0.988800	0.171000	0.211700
H71	H7	0.947600	0.129900	0.208200
C101	C10	0.063300	0.166300	0.177200
C111	C11	0.122800	0.227600	0.182800
H81	H8	0.172000	0.223000	0.159400
C121	C12	0.071200	0.094100	0.133700
C131	C13	0.123100	0.996700	0.070200
C141	C14	0.184700	0.942500	0.039500
C151	C15	0.217100	0.963100	0.979300
H91	H9	0.198100	0.010200	0.957500
C161	C16	0.278200	0.911200	0.953400
H101	H10	0.301000	0.924300	0.914100
C171	C17	0.305700	0.840300	0.985200
H111	H11	0.345500	0.805700	0.966400
C181	C18	0.274600	0.820000	0.044900
C191	C19	0.213800	0.871900	0.070900
H121	H12	0.192100	0.859000	0.110600
C201	C20	0.305900	0.746400	0.081000
C211	C21	0.262300	0.717500	0.134800
H131	H13	0.210000	0.739700	0.145100
C221	C22	0.298600	0.654800	0.172700
H141	H14	0.269200	0.637100	0.208300
C231	C23	0.410100	0.642200	0.106700
H151	H15	0.459900	0.615800	0.095500
C241	C24	0.377200	0.704500	0.066800
H161	H16	0.405200	0.717300	0.029500
N11	N1	0.039600	0.992400	0.068400
N21	N2	0.007900	0.054700	0.108900
N31	N3	0.144800	0.059400	0.111000
N41	N4	0.225900	0.083100	0.129500
H171	H17	0.255700	0.037200	0.137900
H181	H18	0.250300	0.111500	0.098200
N51	N5	0.312000	0.476300	0.243700
N61	N6	0.371600	0.619600	0.160900
C251	C25	0.698100	0.569400	0.690000
H191	H19	0.659700	0.562100	0.657400
C261	C26	0.746600	0.534700	0.788800
H201	H20	0.742500	0.503400	0.825900
C271	C27	0.811900	0.589600	0.782600
H211	H21	0.850800	0.594200	0.815200
C281	C28	0.821800	0.639300	0.728300
C291	C29	0.761100	0.625100	0.681600
H221	H22	0.764200	0.654700	0.643800
C301	C30	0.887800	0.703600	0.722300
C311	C31	0.962700	0.699600	0.758000
H231	H23	0.971300	0.655100	0.785700
C321	C32	0.021600	0.759700	0.752100
H241	H24	0.070800	0.755100	0.775600
C331	C33	0.011200	0.829000	0.711700
H251	H25	0.052400	0.870100	0.708200
C341	C34	0.936700	0.833700	0.677200
C351	C35	0.877200	0.772400	0.682800
H261	H26	0.828000	0.777000	0.659400
C361	C36	0.928800	0.905900	0.633700
C371	C37	0.876900	0.003300	0.570200
C381	C38	0.815300	0.057500	0.539500
C391	C39	0.782900	0.036900	0.479300
H271	H27	0.801900	0.989800	0.457500
C401	C40	0.721800	0.088800	0.453400
H281	H28	0.699000	0.075700	0.414100
C411	C41	0.694300	0.159700	0.485200
H291	H29	0.654500	0.194300	0.466400
C421	C42	0.725400	0.180000	0.544900
C431	C43	0.786200	0.128100	0.570900
H301	H30	0.807900	0.141000	0.610600
C441	C44	0.694100	0.253600	0.581000
C451	C45	0.737700	0.282500	0.634800
H311	H31	0.790000	0.260300	0.645100
C461	C46	0.701400	0.345200	0.672700
H321	H32	0.730800	0.362900	0.708300
C471	C47	0.589900	0.357800	0.606700
H331	H33	0.540100	0.384200	0.595500
C481	C48	0.622800	0.295500	0.566800
H341	H34	0.594800	0.282700	0.529500
N71	N7	0.960400	0.007600	0.568400
N81	N8	0.992100	0.945300	0.608900
N91	N9	0.855200	0.940600	0.611000
N101	N10	0.774100	0.916900	0.629500
H351	H35	0.744300	0.962800	0.637900
H361	H36	0.749700	0.888500	0.598200
N111	N11	0.688000	0.523700	0.743700
N121	N12	0.628400	0.380400	0.660900
C491	C49	0.069400	0.801900	0.940000
H371	H37	0.062100	0.840300	0.907400
C501	C50	0.034700	0.753400	0.038800
H381	H38	0.003400	0.757500	0.075900
C511	C51	0.089600	0.688100	0.032600
H391	H39	0.094200	0.649200	0.065200
C521	C52	0.139300	0.678200	0.978300
C531	C53	0.125100	0.738900	0.931600
H401	H40	0.154700	0.735800	0.893800
C541	C54	0.203600	0.612200	0.972300
C551	C55	0.199600	0.537300	0.008000
H411	H41	0.155100	0.528700	0.035700
C561	C56	0.259700	0.478400	0.002100
H421	H42	0.255100	0.429200	0.025600
C571	C57	0.329000	0.488800	0.961700
H431	H43	0.370100	0.447600	0.958200
C581	C58	0.333700	0.563300	0.927200
C591	C59	0.272400	0.622800	0.932800
H441	H44	0.277000	0.672000	0.909400
C601	C60	0.405900	0.571200	0.883700
C611	C61	0.503300	0.623100	0.820200
C621	C62	0.557500	0.684700	0.789500
C631	C63	0.536900	0.717100	0.729300
H451	H45	0.489800	0.698100	0.707500
C641	C64	0.588800	0.778200	0.703400
H461	H46	0.575700	0.801000	0.664100
C651	C65	0.659700	0.805700	0.735200
H471	H47	0.694300	0.845500	0.716400
C661	C66	0.680000	0.774600	0.794900
C671	C67	0.628100	0.713800	0.820900
H481	H48	0.641000	0.692100	0.860600
C681	C68	0.753600	0.805900	0.831000
C691	C69	0.782500	0.762300	0.884800
H491	H49	0.760300	0.710000	0.895100
C701	C70	0.845200	0.798600	0.922700
H501	H50	0.862900	0.769200	0.958300
C711	C71	0.857800	0.910100	0.856700
H511	H51	0.884200	0.959900	0.845500
C721	C72	0.795500	0.877200	0.816800
H521	H52	0.782700	0.905200	0.779500
N131	N13	0.507600	0.539600	0.818400
N141	N14	0.445300	0.507900	0.858900
N151	N15	0.440600	0.644800	0.861000
N161	N16	0.416900	0.725900	0.879500
H531	H53	0.462800	0.755700	0.887900
H541	H54	0.388500	0.750300	0.848200
N171	N17	0.023700	0.812000	0.993700
N181	N18	0.880400	0.871600	0.910900
C731	C73	0.930600	0.198100	0.440000
H551	H55	0.937900	0.159700	0.407400
C741	C74	0.965300	0.246600	0.538800
H561	H56	0.996600	0.242500	0.575900
C751	C75	0.910400	0.311900	0.532600
H571	H57	0.905800	0.350800	0.565200
C761	C76	0.860700	0.321800	0.478300
C771	C77	0.874900	0.261100	0.431600
H581	H58	0.845300	0.264200	0.393800
C781	C78	0.796400	0.387800	0.472300
C791	C79	0.800400	0.462700	0.508000
H591	H59	0.844900	0.471300	0.535700
C801	C80	0.740300	0.521600	0.502100
H601	H60	0.744900	0.570800	0.525600
C811	C81	0.671000	0.511200	0.461700
H611	H61	0.629900	0.552400	0.458200
C821	C82	0.666300	0.436700	0.427200
C831	C83	0.727600	0.377200	0.432800
H621	H62	0.723000	0.328000	0.409400
C841	C84	0.594100	0.428800	0.383700
C851	C85	0.496700	0.376900	0.320200
C861	C86	0.442500	0.315300	0.289500
C871	C87	0.463100	0.282900	0.229300
H631	H63	0.510200	0.301900	0.207500
C881	C88	0.411200	0.221800	0.203400
H641	H64	0.424300	0.199000	0.164100
C891	C89	0.340300	0.194300	0.235200
H651	H65	0.305700	0.154500	0.216400
C901	C90	0.320000	0.225400	0.294900
C911	C91	0.371900	0.286200	0.320900
H661	H66	0.359000	0.307900	0.360600
C921	C92	0.246400	0.194100	0.331000
C931	C93	0.217500	0.237700	0.384800
H671	H67	0.239700	0.290000	0.395100
C941	C94	0.154800	0.201400	0.422700
H681	H68	0.137100	0.230800	0.458300
C951	C95	0.142200	0.089900	0.356700
H691	H69	0.115800	0.040100	0.345500
C961	C96	0.204500	0.122800	0.316800
H701	H70	0.217300	0.094800	0.279500
N191	N19	0.492400	0.460400	0.318400
N201	N20	0.554700	0.492100	0.358900
N211	N21	0.559400	0.355200	0.361000
N221	N22	0.583100	0.274100	0.379500
H711	H71	0.537200	0.244300	0.387900
H721	H72	0.611500	0.249700	0.348200
N231	N23	0.976300	0.188000	0.493700
N241	N24	0.119600	0.128400	0.410900
C971	C97	0.198100	0.930600	0.560000
H731	H73	0.159700	0.937900	0.592600
C981	C98	0.246600	0.965300	0.461200
H741	H74	0.242500	0.996600	0.424100
C991	C99	0.311900	0.910400	0.467400
H751	H75	0.350800	0.905800	0.434800
C1001	C100	0.321800	0.860700	0.521700
C1011	C101	0.261100	0.874900	0.568400
H761	H76	0.264200	0.845300	0.606200
C1021	C102	0.387800	0.796400	0.527700
C1031	C103	0.462700	0.800400	0.492000
H771	H77	0.471300	0.844900	0.464300
C1041	C104	0.521600	0.740300	0.497900
H781	H78	0.570800	0.744900	0.474400
C1051	C105	0.511200	0.671000	0.538300
H791	H79	0.552400	0.629900	0.541800
C1061	C106	0.436700	0.666300	0.572800
C1071	C107	0.377200	0.727600	0.567200
H801	H80	0.328000	0.723000	0.590600
C1081	C108	0.428800	0.594100	0.616300
C1091	C109	0.376900	0.496700	0.679800
C1101	C110	0.315300	0.442500	0.710500
C1111	C111	0.282900	0.463100	0.770700
H811	H81	0.301900	0.510200	0.792500
C1121	C112	0.221800	0.411200	0.796600
H821	H82	0.199000	0.424300	0.835900
C1131	C113	0.194300	0.340300	0.764800
H831	H83	0.154500	0.305700	0.783600
C1141	C114	0.225400	0.320000	0.705100
C1151	C115	0.286200	0.371900	0.679100
H841	H84	0.307900	0.359000	0.639400
C1161	C116	0.194100	0.246400	0.669000
C1171	C117	0.237700	0.217500	0.615200
H851	H85	0.290000	0.239700	0.604900
C1181	C118	0.201400	0.154800	0.577300
H861	H86	0.230800	0.137100	0.541700
C1191	C119	0.089900	0.142200	0.643300
H871	H87	0.040100	0.115800	0.654500
C1201	C120	0.122800	0.204500	0.683200
H881	H88	0.094800	0.217300	0.720500
N251	N25	0.460400	0.492400	0.681600
N261	N26	0.492100	0.554700	0.641100
N271	N27	0.355200	0.559400	0.639000
N281	N28	0.274100	0.583100	0.620500
H891	H89	0.244300	0.537200	0.612100
H901	H90	0.249700	0.611500	0.651800
N291	N29	0.188000	0.976300	0.506300
N301	N30	0.128400	0.119600	0.589100
C1211	C121	0.801900	0.069400	0.060000
H911	H91	0.840300	0.062100	0.092600
C1221	C122	0.753400	0.034700	0.961200
H921	H92	0.757500	0.003400	0.924100
C1231	C123	0.688100	0.089600	0.967400
H931	H93	0.649200	0.094200	0.934800
C1241	C124	0.678200	0.139300	0.021700
C1251	C125	0.738900	0.125100	0.068400
H941	H94	0.735800	0.154700	0.106200
C1261	C126	0.612200	0.203600	0.027700
C1271	C127	0.537300	0.199600	0.992000
H951	H95	0.528700	0.155100	0.964300
C1281	C128	0.478400	0.259700	0.997900
H961	H96	0.429200	0.255100	0.974400
C1291	C129	0.488800	0.329000	0.038300
H971	H97	0.447600	0.370100	0.041800
C1301	C130	0.563300	0.333700	0.072800
C1311	C131	0.622800	0.272400	0.067200
H981	H98	0.672000	0.277000	0.090600
C1321	C132	0.571200	0.405900	0.116300
C1331	C133	0.623100	0.503300	0.179800
C1341	C134	0.684700	0.557500	0.210500
C1351	C135	0.717100	0.536900	0.270700
H991	H99	0.698100	0.489800	0.292500
C1361	C136	0.778200	0.588800	0.296600
H1001	H100	0.801000	0.575700	0.335900
C1371	C137	0.805700	0.659700	0.264800
H1011	H101	0.845500	0.694300	0.283600
C1381	C138	0.774600	0.680000	0.205100
C1391	C139	0.713800	0.628100	0.179100
H1021	H102	0.692100	0.641000	0.139400
C1401	C140	0.805900	0.753600	0.169000
C1411	C141	0.762300	0.782500	0.115200
H1031	H103	0.710000	0.760300	0.104900
C1421	C142	0.798600	0.845200	0.077300
H1041	H104	0.769200	0.862900	0.041700
C1431	C143	0.910100	0.857800	0.143300
H1051	H105	0.959900	0.884200	0.154500
C1441	C144	0.877200	0.795500	0.183200
H1061	H106	0.905200	0.782700	0.220500
N311	N31	0.539600	0.507600	0.181600
N321	N32	0.507900	0.445300	0.141100
N331	N33	0.644800	0.440600	0.139000
N341	N34	0.725900	0.416900	0.120500
H1071	H107	0.755700	0.462800	0.112100
H1081	H108	0.750300	0.388500	0.151800
N351	N35	0.812000	0.023700	0.006300
N361	N36	0.871600	0.880400	0.089100
C1451	C145	0.430600	0.301900	0.810000
H1091	H109	0.437900	0.340300	0.842600
C1461	C146	0.465300	0.253400	0.711200
H1101	H110	0.496600	0.257500	0.674100
C1471	C147	0.410400	0.188100	0.717400
H1111	H111	0.405800	0.149200	0.684800
C1481	C148	0.360700	0.178200	0.771700
C1491	C149	0.374900	0.238900	0.818400
H1121	H112	0.345300	0.235800	0.856200
C1501	C150	0.296400	0.112200	0.777700
C1511	C151	0.300400	0.037300	0.742000
H1131	H113	0.344900	0.028700	0.714300
C1521	C152	0.240300	0.978400	0.747900
H1141	H114	0.244900	0.929200	0.724400
C1531	C153	0.171000	0.988800	0.788300
H1151	H115	0.129900	0.947600	0.791800
C1541	C154	0.166300	0.063300	0.822800
C1551	C155	0.227600	0.122800	0.817200
H1161	H116	0.223000	0.172000	0.840600
C1561	C156	0.094100	0.071200	0.866300
C1571	C157	0.996700	0.123100	0.929800
C1581	C158	0.942500	0.184700	0.960500
C1591	C159	0.963100	0.217100	0.020700
H1171	H117	0.010200	0.198100	0.042500
C1601	C160	0.911200	0.278200	0.046600
H1181	H118	0.924300	0.301000	0.085900
C1611	C161	0.840300	0.305700	0.014800
H1191	H119	0.805700	0.345500	0.033600
C1621	C162	0.820000	0.274600	0.955100
C1631	C163	0.871900	0.213800	0.929100
H1201	H120	0.859000	0.192100	0.889400
C1641	C164	0.746400	0.305900	0.919000
C1651	C165	0.717500	0.262300	0.865200
H1211	H121	0.739700	0.210000	0.854900
C1661	C166	0.654800	0.298600	0.827300
H1221	H122	0.637100	0.269200	0.791700
C1671	C167	0.642200	0.410100	0.893300
H1231	H123	0.615800	0.459900	0.904500
C1681	C168	0.704500	0.377200	0.933200
H1241	H124	0.717300	0.405200	0.970500
N371	N37	0.992400	0.039600	0.931600
N381	N38	0.054700	0.007900	0.891100
N391	N39	0.059400	0.144800	0.889000
N401	N40	0.083100	0.225900	0.870500
H1251	H125	0.037200	0.255700	0.862100
H1261	H126	0.111500	0.250300	0.901800
N411	N41	0.476300	0.312000	0.756300
N421	N42	0.619600	0.371600	0.839100
C1691	C169	0.569400	0.698100	0.310000
H1271	H127	0.562100	0.659700	0.342600
C1701	C170	0.534700	0.746600	0.211200
H1281	H128	0.503400	0.742500	0.174100
C1711	C171	0.589600	0.811900	0.217400
H1291	H129	0.594200	0.850800	0.184800
C1721	C172	0.639300	0.821800	0.271700
C1731	C173	0.625100	0.761100	0.318400
H1301	H130	0.654700	0.764200	0.356200
C1741	C174	0.703600	0.887800	0.277700
C1751	C175	0.699600	0.962700	0.242000
H1311	H131	0.655100	0.971300	0.214300
C1761	C176	0.759700	0.021600	0.247900
H1321	H132	0.755100	0.070800	0.224400
C1771	C177	0.829000	0.011200	0.288300
H1331	H133	0.870100	0.052400	0.291800
C1781	C178	0.833700	0.936700	0.322800
C1791	C179	0.772400	0.877200	0.317200
H1341	H134	0.777000	0.828000	0.340600
C1801	C180	0.905900	0.928800	0.366300
C1811	C181	0.003300	0.876900	0.429800
C1821	C182	0.057500	0.815300	0.460500
C1831	C183	0.036900	0.782900	0.520700
H1351	H135	0.989800	0.801900	0.542500
C1841	C184	0.088800	0.721800	0.546600
H1361	H136	0.075700	0.699000	0.585900
C1851	C185	0.159700	0.694300	0.514800
H1371	H137	0.194300	0.654500	0.533600
C1861	C186	0.180000	0.725400	0.455100
C1871	C187	0.128100	0.786200	0.429100
H1381	H138	0.141000	0.807900	0.389400
C1881	C188	0.253600	0.694100	0.419000
C1891	C189	0.282500	0.737700	0.365200
H1391	H139	0.260300	0.790000	0.354900
C1901	C190	0.345200	0.701400	0.327300
H1401	H140	0.362900	0.730800	0.291700
C1911	C191	0.357800	0.589900	0.393300
H1411	H141	0.384200	0.540100	0.404500
C1921	C192	0.295500	0.622800	0.433200
H1421	H142	0.282700	0.594800	0.470500
N431	N43	0.007600	0.960400	0.431600
N441	N44	0.945300	0.992100	0.391100
N451	N45	0.940600	0.855200	0.389000
N461	N46	0.916900	0.774100	0.370500
H1431	H143	0.962800	0.744300	0.362100
H1441	H144	0.888500	0.749700	0.401800
N471	N47	0.523700	0.688000	0.256300
N481	N48	0.380400	0.628400	0.339100
Cd11	Cd1	0.939770	0.939770	0.000000
Cd21	Cd2	0.060230	0.060230	0.500000
Cd31	Cd3	0.560230	0.439770	0.750000
Cd41	Cd4	0.439770	0.560230	0.250000
