data_KUSZED_clean_PM
_symmetry_space_group_name_H-M	'P1'
_cell_length_a	20.070000
_cell_length_b	20.070000
_cell_length_c	12.733000
_cell_angle_alpha	90.000000
_cell_angle_beta	90.000000
_cell_angle_gamma	90.000000
_symmetry_Int_Tables_number 1

loop_
_symmetry_equiv_pos_as_xyz
'x,y,z'

loop_
_atom_site_label
_atom_site_type_symbol
_atom_site_fract_x
_atom_site_fract_y
_atom_site_fract_z
Cd11	Cd1	0.103840	0.069040	0.406670
N11	N1	0.141100	0.986700	0.298000
N21	N2	0.068700	0.137300	0.281600
C11	C1	0.192100	0.094200	0.498200
C21	C2	0.046400	0.174700	0.225600
C31	C3	0.021900	0.013700	0.479800
Cd21	Cd2	0.603840	0.569040	0.906670
N31	N3	0.641100	0.486700	0.798000
N41	N4	0.568700	0.637300	0.781600
C41	C4	0.692100	0.594200	0.998200
C51	C5	0.546400	0.674700	0.725600
C61	C6	0.521900	0.513700	0.979800
Cd31	Cd3	0.396160	0.930960	0.906670
N51	N5	0.358900	0.013300	0.798000
N61	N6	0.431300	0.862700	0.781600
C71	C7	0.307900	0.905800	0.998200
C81	C8	0.453600	0.825300	0.725600
C91	C9	0.478100	0.986300	0.979800
Cd41	Cd4	0.896160	0.430960	0.406670
N71	N7	0.858900	0.513300	0.298000
N81	N8	0.931300	0.362700	0.281600
C101	C10	0.807900	0.405800	0.498200
C111	C11	0.953600	0.325300	0.225600
C121	C12	0.978100	0.486300	0.479800
Cd51	Cd5	0.680960	0.353840	0.656670
N91	N9	0.763300	0.391100	0.548000
N101	N10	0.612700	0.318700	0.531600
C131	C13	0.655800	0.442100	0.748200
C141	C14	0.575300	0.296400	0.475600
C151	C15	0.736300	0.271900	0.729800
Cd61	Cd6	0.180960	0.853840	0.156670
N111	N11	0.263300	0.891100	0.048000
N121	N12	0.112700	0.818700	0.031600
C161	C16	0.155800	0.942100	0.248200
C171	C17	0.075300	0.796400	0.975600
C181	C18	0.236300	0.771900	0.229800
Cd71	Cd7	0.819040	0.646160	0.156670
N131	N13	0.736700	0.608900	0.048000
N141	N14	0.887300	0.681300	0.031600
C191	C19	0.844200	0.557900	0.248200
C201	C20	0.924700	0.703600	0.975600
C211	C21	0.763700	0.728100	0.229800
Cd81	Cd8	0.319040	0.146160	0.656670
N151	N15	0.236700	0.108900	0.548000
N161	N16	0.387300	0.181300	0.531600
C221	C22	0.344200	0.057900	0.748200
C231	C23	0.424700	0.203600	0.475600
C241	C24	0.263700	0.228100	0.729800
Cd91	Cd9	0.896160	0.930960	0.593330
N171	N17	0.858900	0.013300	0.702000
N181	N18	0.931300	0.862700	0.718400
C251	C25	0.807900	0.905800	0.501800
C261	C26	0.953600	0.825300	0.774400
C271	C27	0.978100	0.986300	0.520200
Cd101	Cd10	0.396160	0.430960	0.093330
N191	N19	0.358900	0.513300	0.202000
N201	N20	0.431300	0.362700	0.218400
C281	C28	0.307900	0.405800	0.001800
C291	C29	0.453600	0.325300	0.274400
C301	C30	0.478100	0.486300	0.020200
Cd111	Cd11	0.603840	0.069040	0.093330
N211	N21	0.641100	0.986700	0.202000
N221	N22	0.568700	0.137300	0.218400
C311	C31	0.692100	0.094200	0.001800
C321	C32	0.546400	0.174700	0.274400
C331	C33	0.521900	0.013700	0.020200
Cd121	Cd12	0.103840	0.569040	0.593330
N231	N23	0.141100	0.486700	0.702000
N241	N24	0.068700	0.637300	0.718400
C341	C34	0.192100	0.594200	0.501800
C351	C35	0.046400	0.674700	0.774400
C361	C36	0.021900	0.513700	0.520200
Cd131	Cd13	0.319040	0.646160	0.343330
N251	N25	0.236700	0.608900	0.452000
N261	N26	0.387300	0.681300	0.468400
C371	C37	0.344200	0.557900	0.251800
C381	C38	0.424700	0.703600	0.524400
C391	C39	0.263700	0.728100	0.270200
Cd141	Cd14	0.819040	0.146160	0.843330
N271	N27	0.736700	0.108900	0.952000
N281	N28	0.887300	0.181300	0.968400
C401	C40	0.844200	0.057900	0.751800
C411	C41	0.924700	0.203600	0.024400
C421	C42	0.763700	0.228100	0.770200
Cd151	Cd15	0.180960	0.353840	0.843330
N291	N29	0.263300	0.391100	0.952000
N301	N30	0.112700	0.318700	0.968400
C431	C43	0.155800	0.442100	0.751800
C441	C44	0.075300	0.296400	0.024400
C451	C45	0.236300	0.271900	0.770200
Cd161	Cd16	0.680960	0.853840	0.343330
N311	N31	0.763300	0.891100	0.452000
N321	N32	0.612700	0.818700	0.468400
C461	C46	0.655800	0.942100	0.251800
C471	C47	0.575300	0.796400	0.524400
C481	C48	0.736300	0.771900	0.270200
Cd171	Cd17	0.000000	0.250000	0.125000
Cd181	Cd18	0.500000	0.750000	0.625000
Cd191	Cd19	0.500000	0.250000	0.375000
Cd201	Cd20	0.000000	0.750000	0.875000
