data_KUTHOY_clean_PM
_symmetry_space_group_name_H-M	'P1'
_cell_length_a	10.239400
_cell_length_b	37.786300
_cell_length_c	10.073100
_cell_angle_alpha	90.000000
_cell_angle_beta	97.144000
_cell_angle_gamma	90.000000
_symmetry_Int_Tables_number 1

loop_
_symmetry_equiv_pos_as_xyz
'x,y,z'

loop_
_atom_site_label
_atom_site_type_symbol
_atom_site_fract_x
_atom_site_fract_y
_atom_site_fract_z
Pb11	Pb1	0.751790	0.530780	0.994230
Pb21	Pb2	0.267970	0.217130	0.524250
O11	O1	0.021600	0.405390	0.901000
O21	O2	0.806400	0.479240	0.882400
O31	O3	0.024700	0.477900	0.878800
O41	O4	0.176400	0.341920	0.227200
O51	O5	0.159900	0.269200	0.450000
O61	O6	0.162500	0.268620	0.228000
O71	O7	0.469700	0.413720	0.112600
O81	O8	0.687100	0.487000	0.135600
O91	O9	0.467900	0.486050	0.129800
O101	O10	0.327900	0.336100	0.811400
O111	O11	0.407500	0.260330	0.626700
O121	O12	0.408500	0.267600	0.847300
C11	C1	0.004600	0.368640	0.895100
C21	C2	0.038300	0.351180	0.781500
C31	C3	0.018800	0.314690	0.772100
H11	H1	0.041200	0.302300	0.696000
C41	C4	0.967500	0.296370	0.871800
H21	H2	0.951200	0.271700	0.862400
C51	C5	0.939700	0.313840	0.986000
H31	H3	0.908200	0.300800	0.056000
C61	C6	0.957400	0.350310	0.999500
C71	C7	0.157800	0.378190	0.239800
C81	C8	0.034300	0.392020	0.192700
C91	C9	0.013100	0.428030	0.208300
H41	H4	0.929700	0.437900	0.176300
C101	C10	0.110000	0.449540	0.269000
H51	H5	0.093100	0.474000	0.280700
C111	C11	0.233400	0.435600	0.313500
H61	H6	0.301100	0.450800	0.353300
C121	C12	0.259300	0.399500	0.300500
C131	C13	0.489600	0.377220	0.134000
C141	C14	0.459300	0.363110	0.254000
C151	C15	0.493100	0.328160	0.283600
H71	H7	0.474600	0.318100	0.365700
C161	C16	0.552900	0.307950	0.195700
H81	H8	0.579700	0.284400	0.218600
C171	C17	0.573900	0.321970	0.073600
H91	H9	0.611600	0.307400	0.011800
C181	C18	0.541800	0.356620	0.038200
C191	C19	0.333400	0.372310	0.783700
C201	C20	0.450400	0.389890	0.826300
C211	C21	0.461700	0.425220	0.791600
H101	H10	0.541500	0.437600	0.818300
C221	C22	0.358500	0.442400	0.719300
H111	H11	0.367700	0.466400	0.694200
C231	C23	0.241800	0.424970	0.682900
H121	H12	0.170600	0.437500	0.634700
C241	C24	0.224600	0.389400	0.714600
C251	C25	0.927000	0.368210	0.126800
H131	H13	0.908900	0.349700	0.191600
H141	H14	0.845700	0.382400	0.106000
C261	C26	0.394600	0.385830	0.351500
H151	H15	0.452500	0.406300	0.377100
H161	H16	0.388400	0.371800	0.433500
C271	C27	0.564400	0.370420	0.902800
H171	H17	0.641300	0.386500	0.914600
H181	H18	0.587600	0.350200	0.847800
C281	C28	0.094600	0.371360	0.673200
H191	H19	0.105600	0.354800	0.599300
H201	H20	0.029900	0.389500	0.637600
C291	C29	0.900000	0.423870	0.868900
H211	H21	0.862200	0.417700	0.776500
H221	H22	0.837200	0.415900	0.930000
C301	C30	0.915600	0.463740	0.879800
C311	C31	0.158500	0.323840	0.348800
H231	H23	0.228500	0.331300	0.419900
H241	H24	0.072900	0.331000	0.376600
C321	C32	0.161800	0.283650	0.336200
C331	C33	0.591900	0.431930	0.139100
H251	H25	0.634500	0.425200	0.229300
H261	H26	0.650500	0.424400	0.073300
C341	C34	0.576700	0.471460	0.132600
C351	C35	0.339400	0.314930	0.695800
H271	H27	0.252200	0.313400	0.641300
H281	H28	0.400500	0.326700	0.640900
C361	C36	0.388600	0.278180	0.729400
Pb31	Pb3	0.732030	0.717130	0.975750
Pb41	Pb4	0.248210	0.030780	0.505760
O131	O13	0.978400	0.905390	0.599000
O141	O14	0.193600	0.979240	0.617600
O151	O15	0.975300	0.977900	0.621200
O161	O16	0.823600	0.841920	0.272800
O171	O17	0.840100	0.769200	0.050000
O181	O18	0.837500	0.768620	0.272000
O191	O19	0.530300	0.913720	0.387400
O201	O20	0.312900	0.987000	0.364400
O211	O21	0.532100	0.986050	0.370200
O221	O22	0.672100	0.836100	0.688600
O231	O23	0.592500	0.760330	0.873300
O241	O24	0.591500	0.767600	0.652700
C371	C37	0.995400	0.868640	0.604900
C381	C38	0.961700	0.851180	0.718500
C391	C39	0.981200	0.814690	0.727900
H291	H29	0.958800	0.802300	0.804000
C401	C40	0.032500	0.796370	0.628200
H301	H30	0.048800	0.771700	0.637600
C411	C41	0.060300	0.813840	0.514000
H311	H31	0.091800	0.800800	0.444000
C421	C42	0.042600	0.850310	0.500500
C431	C43	0.842200	0.878190	0.260200
C441	C44	0.965700	0.892020	0.307300
C451	C45	0.986900	0.928030	0.291700
H321	H32	0.070300	0.937900	0.323700
C461	C46	0.890000	0.949540	0.231000
H331	H33	0.906900	0.974000	0.219300
C471	C47	0.766600	0.935600	0.186500
H341	H34	0.698900	0.950800	0.146700
C481	C48	0.740700	0.899500	0.199500
C491	C49	0.510400	0.877220	0.366000
C501	C50	0.540700	0.863110	0.246000
C511	C51	0.506900	0.828160	0.216400
H351	H35	0.525400	0.818100	0.134300
C521	C52	0.447100	0.807950	0.304300
H361	H36	0.420300	0.784400	0.281400
C531	C53	0.426100	0.821970	0.426400
H371	H37	0.388400	0.807400	0.488200
C541	C54	0.458200	0.856620	0.461800
C551	C55	0.666600	0.872310	0.716300
C561	C56	0.549600	0.889890	0.673700
C571	C57	0.538300	0.925220	0.708400
H381	H38	0.458500	0.937600	0.681700
C581	C58	0.641500	0.942400	0.780700
H391	H39	0.632300	0.966400	0.805800
C591	C59	0.758200	0.924970	0.817100
H401	H40	0.829400	0.937500	0.865300
C601	C60	0.775400	0.889400	0.785400
C611	C61	0.073000	0.868210	0.373200
H411	H41	0.091100	0.849700	0.308400
H421	H42	0.154300	0.882400	0.394000
C621	C62	0.605400	0.885830	0.148500
H431	H43	0.547500	0.906300	0.122900
H441	H44	0.611600	0.871800	0.066500
C631	C63	0.435600	0.870420	0.597200
H451	H45	0.358700	0.886500	0.585400
H461	H46	0.412400	0.850200	0.652200
C641	C64	0.905400	0.871360	0.826800
H471	H47	0.894400	0.854800	0.900700
H481	H48	0.970100	0.889500	0.862400
C651	C65	0.100000	0.923870	0.631100
H491	H49	0.137800	0.917700	0.723500
H501	H50	0.162800	0.915900	0.570000
C661	C66	0.084400	0.963740	0.620200
C671	C67	0.841500	0.823840	0.151200
H511	H51	0.771500	0.831300	0.080100
H521	H52	0.927100	0.831000	0.123400
C681	C68	0.838200	0.783650	0.163800
C691	C69	0.408100	0.931930	0.360900
H531	H53	0.365500	0.925200	0.270700
H541	H54	0.349500	0.924400	0.426700
C701	C70	0.423300	0.971460	0.367400
C711	C71	0.660600	0.814930	0.804200
H551	H55	0.747800	0.813400	0.858700
H561	H56	0.599500	0.826700	0.859100
C721	C72	0.611400	0.778180	0.770600
O251	O25	0.978400	0.594610	0.099000
O261	O26	0.193600	0.520760	0.117600
O271	O27	0.975300	0.522100	0.121200
O281	O28	0.823600	0.658080	0.772800
O291	O29	0.840100	0.730800	0.550000
O301	O30	0.837500	0.731380	0.772000
O311	O31	0.530300	0.586280	0.887400
O321	O32	0.312900	0.513000	0.864400
O331	O33	0.532100	0.513950	0.870200
O341	O34	0.672100	0.663900	0.188600
O351	O35	0.592500	0.739670	0.373300
O361	O36	0.591500	0.732400	0.152700
C731	C73	0.995400	0.631360	0.104900
C741	C74	0.961700	0.648820	0.218500
C751	C75	0.981200	0.685310	0.227900
H571	H57	0.958800	0.697700	0.304000
C761	C76	0.032500	0.703630	0.128200
H581	H58	0.048800	0.728300	0.137600
C771	C77	0.060300	0.686160	0.014000
H591	H59	0.091800	0.699200	0.944000
C781	C78	0.042600	0.649690	0.000500
C791	C79	0.842200	0.621810	0.760200
C801	C80	0.965700	0.607980	0.807300
C811	C81	0.986900	0.571970	0.791700
H601	H60	0.070300	0.562100	0.823700
C821	C82	0.890000	0.550460	0.731000
H611	H61	0.906900	0.526000	0.719300
C831	C83	0.766600	0.564400	0.686500
H621	H62	0.698900	0.549200	0.646700
C841	C84	0.740700	0.600500	0.699500
C851	C85	0.510400	0.622780	0.866000
C861	C86	0.540700	0.636890	0.746000
C871	C87	0.506900	0.671840	0.716400
H631	H63	0.525400	0.681900	0.634300
C881	C88	0.447100	0.692050	0.804300
H641	H64	0.420300	0.715600	0.781400
C891	C89	0.426100	0.678030	0.926400
H651	H65	0.388400	0.692600	0.988200
C901	C90	0.458200	0.643380	0.961800
C911	C91	0.666600	0.627690	0.216300
C921	C92	0.549600	0.610110	0.173700
C931	C93	0.538300	0.574780	0.208400
H661	H66	0.458500	0.562400	0.181700
C941	C94	0.641500	0.557600	0.280700
H671	H67	0.632300	0.533600	0.305800
C951	C95	0.758200	0.575030	0.317100
H681	H68	0.829400	0.562500	0.365300
C961	C96	0.775400	0.610600	0.285400
C971	C97	0.073000	0.631790	0.873200
H691	H69	0.091100	0.650300	0.808400
H701	H70	0.154300	0.617600	0.894000
C981	C98	0.605400	0.614170	0.648500
H711	H71	0.547500	0.593700	0.622900
H721	H72	0.611600	0.628200	0.566500
C991	C99	0.435600	0.629580	0.097200
H731	H73	0.358700	0.613500	0.085400
H741	H74	0.412400	0.649800	0.152200
C1001	C100	0.905400	0.628640	0.326800
H751	H75	0.894400	0.645200	0.400700
H761	H76	0.970100	0.610500	0.362400
C1011	C101	0.100000	0.576130	0.131100
H771	H77	0.137800	0.582300	0.223500
H781	H78	0.162800	0.584100	0.070000
C1021	C102	0.084400	0.536260	0.120200
C1031	C103	0.841500	0.676160	0.651200
H791	H79	0.771500	0.668700	0.580100
H801	H80	0.927100	0.669000	0.623400
C1041	C104	0.838200	0.716350	0.663800
C1051	C105	0.408100	0.568070	0.860900
H811	H81	0.365500	0.574800	0.770700
H821	H82	0.349500	0.575600	0.926700
C1061	C106	0.423300	0.528540	0.867400
C1071	C107	0.660600	0.685070	0.304200
H831	H83	0.747800	0.686600	0.358700
H841	H84	0.599500	0.673300	0.359100
C1081	C108	0.611400	0.721820	0.270600
Pb51	Pb5	0.248210	0.469220	0.005770
Pb61	Pb6	0.732030	0.782870	0.475750
O371	O37	0.021600	0.094610	0.401000
O381	O38	0.806400	0.020760	0.382400
O391	O39	0.024700	0.022100	0.378800
O401	O40	0.176400	0.158080	0.727200
O411	O41	0.159900	0.230800	0.950000
O421	O42	0.162500	0.231380	0.728000
O431	O43	0.469700	0.086280	0.612600
O441	O44	0.687100	0.013000	0.635600
O451	O45	0.467900	0.013950	0.629800
O461	O46	0.327900	0.163900	0.311400
O471	O47	0.407500	0.239670	0.126700
O481	O48	0.408500	0.232400	0.347300
C1091	C109	0.004600	0.131360	0.395100
C1101	C110	0.038300	0.148820	0.281500
C1111	C111	0.018800	0.185310	0.272100
H851	H85	0.041200	0.197700	0.196000
C1121	C112	0.967500	0.203630	0.371800
H861	H86	0.951200	0.228300	0.362400
C1131	C113	0.939700	0.186160	0.486000
H871	H87	0.908200	0.199200	0.556000
C1141	C114	0.957400	0.149690	0.499500
C1151	C115	0.157800	0.121810	0.739800
C1161	C116	0.034300	0.107980	0.692700
C1171	C117	0.013100	0.071970	0.708300
H881	H88	0.929700	0.062100	0.676300
C1181	C118	0.110000	0.050460	0.769000
H891	H89	0.093100	0.026000	0.780700
C1191	C119	0.233400	0.064400	0.813500
H901	H90	0.301100	0.049200	0.853300
C1201	C120	0.259300	0.100500	0.800500
C1211	C121	0.489600	0.122780	0.634000
C1221	C122	0.459300	0.136890	0.754000
C1231	C123	0.493100	0.171840	0.783600
H911	H91	0.474600	0.181900	0.865700
C1241	C124	0.552900	0.192050	0.695700
H921	H92	0.579700	0.215600	0.718600
C1251	C125	0.573900	0.178030	0.573600
H931	H93	0.611600	0.192600	0.511800
C1261	C126	0.541800	0.143380	0.538200
C1271	C127	0.333400	0.127690	0.283700
C1281	C128	0.450400	0.110110	0.326300
C1291	C129	0.461700	0.074780	0.291600
H941	H94	0.541500	0.062400	0.318300
C1301	C130	0.358500	0.057600	0.219300
H951	H95	0.367700	0.033600	0.194200
C1311	C131	0.241800	0.075030	0.182900
H961	H96	0.170600	0.062500	0.134700
C1321	C132	0.224600	0.110600	0.214600
C1331	C133	0.927000	0.131790	0.626800
H971	H97	0.908900	0.150300	0.691600
H981	H98	0.845700	0.117600	0.606000
C1341	C134	0.394600	0.114170	0.851500
H991	H99	0.452500	0.093700	0.877100
H1001	H100	0.388400	0.128200	0.933500
C1351	C135	0.564400	0.129580	0.402800
H1011	H101	0.641300	0.113500	0.414600
H1021	H102	0.587600	0.149800	0.347800
C1361	C136	0.094600	0.128640	0.173200
H1031	H103	0.105600	0.145200	0.099300
H1041	H104	0.029900	0.110500	0.137600
C1371	C137	0.900000	0.076130	0.368900
H1051	H105	0.862200	0.082300	0.276500
H1061	H106	0.837200	0.084100	0.430000
C1381	C138	0.915600	0.036260	0.379800
C1391	C139	0.158500	0.176160	0.848800
H1071	H107	0.228500	0.168700	0.919900
H1081	H108	0.072900	0.169000	0.876600
C1401	C140	0.161800	0.216350	0.836200
C1411	C141	0.591900	0.068070	0.639100
H1091	H109	0.634500	0.074800	0.729300
H1101	H110	0.650500	0.075600	0.573300
C1421	C142	0.576700	0.028540	0.632600
C1431	C143	0.339400	0.185070	0.195800
H1111	H111	0.252200	0.186600	0.141300
H1121	H112	0.400500	0.173300	0.140900
C1441	C144	0.388600	0.221820	0.229400
Pb71	Pb7	0.267970	0.282870	0.024250
Pb81	Pb8	0.751790	0.969220	0.494240
