data_KUTRUO_clean_PM
_symmetry_space_group_name_H-M	'P1'
_cell_length_a	17.317000
_cell_length_b	25.397000
_cell_length_c	21.540000
_cell_angle_alpha	90.000000
_cell_angle_beta	94.431000
_cell_angle_gamma	90.000000
_symmetry_Int_Tables_number 1

loop_
_symmetry_equiv_pos_as_xyz
'x,y,z'

loop_
_atom_site_label
_atom_site_type_symbol
_atom_site_fract_x
_atom_site_fract_y
_atom_site_fract_z
C11	C1	0.873000	0.810300	0.565600
H11	H1	0.828200	0.792800	0.547700
C21	C2	0.931500	0.781200	0.596000
H21	H2	0.927000	0.744000	0.598600
C31	C3	0.994600	0.805600	0.621800
H31	H3	0.034800	0.785700	0.643200
C41	C4	0.000900	0.859200	0.617300
H41	H4	0.045900	0.876700	0.634800
C51	C5	0.941300	0.887200	0.587300
C61	C6	0.940500	0.945600	0.582200
C71	C7	0.865700	0.017960	0.546100
C81	C8	0.872200	0.046400	0.491300
H51	H5	0.890000	0.029600	0.455700
C91	C9	0.852400	0.099400	0.489200
H61	H6	0.857900	0.118900	0.452200
C101	C10	0.825000	0.123790	0.539500
C111	C11	0.819400	0.095700	0.594200
H71	H7	0.801800	0.112800	0.629700
C121	C12	0.839100	0.043000	0.597500
H81	H8	0.834500	0.023900	0.635000
C131	C13	0.804100	0.181000	0.535600
C141	C14	0.070000	0.086200	0.572200
H91	H9	0.049700	0.056600	0.549600
C151	C15	0.029900	0.105900	0.620400
H101	H10	0.982200	0.090500	0.629800
C161	C16	0.059900	0.147700	0.654100
H111	H11	0.033200	0.162200	0.687000
C171	C17	0.130400	0.168500	0.639300
H121	H12	0.153100	0.196800	0.663000
C181	C18	0.166900	0.148100	0.590600
C191	C19	0.241300	0.168300	0.571400
C201	C20	0.339200	0.157600	0.502600
C211	C21	0.401800	0.128900	0.524700
H131	H13	0.396200	0.099700	0.551400
C221	C22	0.476800	0.144200	0.506400
H141	H14	0.521200	0.125200	0.522400
C231	C23	0.485700	0.184900	0.466800
C241	C24	0.423000	0.212300	0.445700
H151	H15	0.428400	0.240800	0.417900
C251	C25	0.350500	0.199300	0.464100
H161	H16	0.307100	0.220000	0.449400
C261	C26	0.566100	0.199900	0.444200
C271	C27	0.741200	0.022600	0.913600
H171	H17	0.771800	0.041300	0.886300
C281	C28	0.697800	0.979900	0.891600
H181	H18	0.699000	0.969400	0.849400
C291	C29	0.653700	0.953200	0.929900
H191	H19	0.625200	0.923100	0.915400
C301	C30	0.650900	0.970600	0.990700
H201	H20	0.619300	0.952900	0.018400
C311	C31	0.694100	0.013400	0.010400
C321	C32	0.694300	0.034600	0.073700
C331	C33	0.747900	0.099900	0.143100
C341	C34	0.684200	0.127600	0.160000
H211	H21	0.638000	0.128600	0.133100
C351	C35	0.688000	0.153800	0.216400
H221	H22	0.644300	0.172900	0.228200
C361	C36	0.757000	0.152600	0.256800
C371	C37	0.815200	0.122700	0.239100
H231	H23	0.861500	0.120500	0.265700
C381	C38	0.810700	0.095000	0.184300
H241	H24	0.851800	0.072200	0.175100
C391	C39	0.761300	0.181900	0.316800
Co11	Co1	0.806040	0.909820	0.515260
N11	N1	0.877800	0.862850	0.560700
N21	N2	0.881000	0.962790	0.547300
N31	N3	0.136400	0.107540	0.556500
N41	N4	0.262900	0.145230	0.520500
N51	N5	0.740500	0.037950	0.973600
N61	N6	0.744100	0.074550	0.083700
O11	O1	0.992400	0.972570	0.608900
O21	O2	0.799300	0.202020	0.482700
O31	O3	0.794100	0.205350	0.585000
O41	O4	0.277700	0.203000	0.602100
O51	O5	0.567700	0.229600	0.400800
O61	O6	0.621700	0.182800	0.473900
O71	O7	0.653000	0.014700	0.112500
O81	O8	0.817900	0.209500	0.329800
O91	O9	0.704600	0.179500	0.348000
Zn11	Zn1	0.705330	0.217000	0.427080
C401	C40	0.373000	0.310300	0.565600
H251	H25	0.328200	0.292800	0.547700
C411	C41	0.431500	0.281200	0.596000
H261	H26	0.427000	0.244000	0.598600
C421	C42	0.494600	0.305600	0.621800
H271	H27	0.534800	0.285700	0.643200
C431	C43	0.500900	0.359200	0.617300
H281	H28	0.545900	0.376700	0.634800
C441	C44	0.441300	0.387200	0.587300
C451	C45	0.440500	0.445600	0.582200
C461	C46	0.365700	0.517960	0.546100
C471	C47	0.372200	0.546400	0.491300
H291	H29	0.390000	0.529600	0.455700
C481	C48	0.352400	0.599400	0.489200
H301	H30	0.357900	0.618900	0.452200
C491	C49	0.325000	0.623790	0.539500
C501	C50	0.319400	0.595700	0.594200
H311	H31	0.301800	0.612800	0.629700
C511	C51	0.339100	0.543000	0.597500
H321	H32	0.334500	0.523900	0.635000
C521	C52	0.304100	0.681000	0.535600
C531	C53	0.570000	0.586200	0.572200
H331	H33	0.549700	0.556600	0.549600
C541	C54	0.529900	0.605900	0.620400
H341	H34	0.482200	0.590500	0.629800
C551	C55	0.559900	0.647700	0.654100
H351	H35	0.533200	0.662200	0.687000
C561	C56	0.630400	0.668500	0.639300
H361	H36	0.653100	0.696800	0.663000
C571	C57	0.666900	0.648100	0.590600
C581	C58	0.741300	0.668300	0.571400
C591	C59	0.839200	0.657600	0.502600
C601	C60	0.901800	0.628900	0.524700
H371	H37	0.896200	0.599700	0.551400
C611	C61	0.976800	0.644200	0.506400
H381	H38	0.021200	0.625200	0.522400
C621	C62	0.985700	0.684900	0.466800
C631	C63	0.923000	0.712300	0.445700
H391	H39	0.928400	0.740800	0.417900
C641	C64	0.850500	0.699300	0.464100
H401	H40	0.807100	0.720000	0.449400
C651	C65	0.066100	0.699900	0.444200
C661	C66	0.241200	0.522600	0.913600
H411	H41	0.271800	0.541300	0.886300
C671	C67	0.197800	0.479900	0.891600
H421	H42	0.199000	0.469400	0.849400
C681	C68	0.153700	0.453200	0.929900
H431	H43	0.125200	0.423100	0.915400
C691	C69	0.150900	0.470600	0.990700
H441	H44	0.119300	0.452900	0.018400
C701	C70	0.194100	0.513400	0.010400
C711	C71	0.194300	0.534600	0.073700
C721	C72	0.247900	0.599900	0.143100
C731	C73	0.184200	0.627600	0.160000
H451	H45	0.138000	0.628600	0.133100
C741	C74	0.188000	0.653800	0.216400
H461	H46	0.144300	0.672900	0.228200
C751	C75	0.257000	0.652600	0.256800
C761	C76	0.315200	0.622700	0.239100
H471	H47	0.361500	0.620500	0.265700
C771	C77	0.310700	0.595000	0.184300
H481	H48	0.351800	0.572200	0.175100
C781	C78	0.261300	0.681900	0.316800
Co21	Co2	0.306040	0.409820	0.515260
N71	N7	0.377800	0.362850	0.560700
N81	N8	0.381000	0.462790	0.547300
N91	N9	0.636400	0.607540	0.556500
N101	N10	0.762900	0.645230	0.520500
N111	N11	0.240500	0.537950	0.973600
N121	N12	0.244100	0.574550	0.083700
O101	O10	0.492400	0.472570	0.608900
O111	O11	0.299300	0.702020	0.482700
O121	O12	0.294100	0.705350	0.585000
O131	O13	0.777700	0.703000	0.602100
O141	O14	0.067700	0.729600	0.400800
O151	O15	0.121700	0.682800	0.473900
O161	O16	0.153000	0.514700	0.112500
O171	O17	0.317900	0.709500	0.329800
O181	O18	0.204600	0.679500	0.348000
Zn21	Zn2	0.205330	0.717000	0.427080
C791	C79	0.127000	0.810300	0.934400
H491	H49	0.171800	0.792800	0.952300
C801	C80	0.068500	0.781200	0.904000
H501	H50	0.073000	0.744000	0.901400
C811	C81	0.005400	0.805600	0.878200
H511	H51	0.965200	0.785700	0.856800
C821	C82	0.999100	0.859200	0.882700
H521	H52	0.954100	0.876700	0.865200
C831	C83	0.058700	0.887200	0.912700
C841	C84	0.059500	0.945600	0.917800
C851	C85	0.134300	0.017960	0.953900
C861	C86	0.127800	0.046400	0.008700
H531	H53	0.110000	0.029600	0.044300
C871	C87	0.147600	0.099400	0.010800
H541	H54	0.142100	0.118900	0.047800
C881	C88	0.175000	0.123790	0.960500
C891	C89	0.180600	0.095700	0.905800
H551	H55	0.198200	0.112800	0.870300
C901	C90	0.160900	0.043000	0.902500
H561	H56	0.165500	0.023900	0.865000
C911	C91	0.195900	0.181000	0.964400
C921	C92	0.930000	0.086200	0.927800
H571	H57	0.950300	0.056600	0.950400
C931	C93	0.970100	0.105900	0.879600
H581	H58	0.017800	0.090500	0.870200
C941	C94	0.940100	0.147700	0.845900
H591	H59	0.966800	0.162200	0.813000
C951	C95	0.869600	0.168500	0.860700
H601	H60	0.846900	0.196800	0.837000
C961	C96	0.833100	0.148100	0.909400
C971	C97	0.758700	0.168300	0.928600
C981	C98	0.660800	0.157600	0.997400
C991	C99	0.598200	0.128900	0.975300
H611	H61	0.603800	0.099700	0.948600
C1001	C100	0.523200	0.144200	0.993600
H621	H62	0.478800	0.125200	0.977600
C1011	C101	0.514300	0.184900	0.033200
C1021	C102	0.577000	0.212300	0.054300
H631	H63	0.571600	0.240800	0.082100
C1031	C103	0.649500	0.199300	0.035900
H641	H64	0.692900	0.220000	0.050600
C1041	C104	0.433900	0.199900	0.055800
C1051	C105	0.258800	0.022600	0.586400
H651	H65	0.228200	0.041300	0.613700
C1061	C106	0.302200	0.979900	0.608400
H661	H66	0.301000	0.969400	0.650600
C1071	C107	0.346300	0.953200	0.570100
H671	H67	0.374800	0.923100	0.584600
C1081	C108	0.349100	0.970600	0.509300
H681	H68	0.380700	0.952900	0.481600
C1091	C109	0.305900	0.013400	0.489600
C1101	C110	0.305700	0.034600	0.426300
C1111	C111	0.252100	0.099900	0.356900
C1121	C112	0.315800	0.127600	0.340000
H691	H69	0.362000	0.128600	0.366900
C1131	C113	0.312000	0.153800	0.283600
H701	H70	0.355700	0.172900	0.271800
C1141	C114	0.243000	0.152600	0.243200
C1151	C115	0.184800	0.122700	0.260900
H711	H71	0.138500	0.120500	0.234300
C1161	C116	0.189300	0.095000	0.315700
H721	H72	0.148200	0.072200	0.324900
C1171	C117	0.238700	0.181900	0.183200
Co31	Co3	0.193960	0.909820	0.984740
N131	N13	0.122200	0.862850	0.939300
N141	N14	0.119000	0.962790	0.952700
N151	N15	0.863600	0.107540	0.943500
N161	N16	0.737100	0.145230	0.979500
N171	N17	0.259500	0.037950	0.526400
N181	N18	0.255900	0.074550	0.416300
O191	O19	0.007600	0.972570	0.891100
O201	O20	0.200700	0.202020	0.017300
O211	O21	0.205900	0.205350	0.915000
O221	O22	0.722300	0.203000	0.897900
O231	O23	0.432300	0.229600	0.099200
O241	O24	0.378300	0.182800	0.026100
O251	O25	0.347000	0.014700	0.387500
O261	O26	0.182100	0.209500	0.170200
O271	O27	0.295400	0.179500	0.152000
Zn31	Zn3	0.294670	0.217000	0.072920
C1181	C118	0.627000	0.310300	0.934400
H731	H73	0.671800	0.292800	0.952300
C1191	C119	0.568500	0.281200	0.904000
H741	H74	0.573000	0.244000	0.901400
C1201	C120	0.505400	0.305600	0.878200
H751	H75	0.465200	0.285700	0.856800
C1211	C121	0.499100	0.359200	0.882700
H761	H76	0.454100	0.376700	0.865200
C1221	C122	0.558700	0.387200	0.912700
C1231	C123	0.559500	0.445600	0.917800
C1241	C124	0.634300	0.517960	0.953900
C1251	C125	0.627800	0.546400	0.008700
H771	H77	0.610000	0.529600	0.044300
C1261	C126	0.647600	0.599400	0.010800
H781	H78	0.642100	0.618900	0.047800
C1271	C127	0.675000	0.623790	0.960500
C1281	C128	0.680600	0.595700	0.905800
H791	H79	0.698200	0.612800	0.870300
C1291	C129	0.660900	0.543000	0.902500
H801	H80	0.665500	0.523900	0.865000
C1301	C130	0.695900	0.681000	0.964400
C1311	C131	0.430000	0.586200	0.927800
H811	H81	0.450300	0.556600	0.950400
C1321	C132	0.470100	0.605900	0.879600
H821	H82	0.517800	0.590500	0.870200
C1331	C133	0.440100	0.647700	0.845900
H831	H83	0.466800	0.662200	0.813000
C1341	C134	0.369600	0.668500	0.860700
H841	H84	0.346900	0.696800	0.837000
C1351	C135	0.333100	0.648100	0.909400
C1361	C136	0.258700	0.668300	0.928600
C1371	C137	0.160800	0.657600	0.997400
C1381	C138	0.098200	0.628900	0.975300
H851	H85	0.103800	0.599700	0.948600
C1391	C139	0.023200	0.644200	0.993600
H861	H86	0.978800	0.625200	0.977600
C1401	C140	0.014300	0.684900	0.033200
C1411	C141	0.077000	0.712300	0.054300
H871	H87	0.071600	0.740800	0.082100
C1421	C142	0.149500	0.699300	0.035900
H881	H88	0.192900	0.720000	0.050600
C1431	C143	0.933900	0.699900	0.055800
C1441	C144	0.758800	0.522600	0.586400
H891	H89	0.728200	0.541300	0.613700
C1451	C145	0.802200	0.479900	0.608400
H901	H90	0.801000	0.469400	0.650600
C1461	C146	0.846300	0.453200	0.570100
H911	H91	0.874800	0.423100	0.584600
C1471	C147	0.849100	0.470600	0.509300
H921	H92	0.880700	0.452900	0.481600
C1481	C148	0.805900	0.513400	0.489600
C1491	C149	0.805700	0.534600	0.426300
C1501	C150	0.752100	0.599900	0.356900
C1511	C151	0.815800	0.627600	0.340000
H931	H93	0.862000	0.628600	0.366900
C1521	C152	0.812000	0.653800	0.283600
H941	H94	0.855700	0.672900	0.271800
C1531	C153	0.743000	0.652600	0.243200
C1541	C154	0.684800	0.622700	0.260900
H951	H95	0.638500	0.620500	0.234300
C1551	C155	0.689300	0.595000	0.315700
H961	H96	0.648200	0.572200	0.324900
C1561	C156	0.738700	0.681900	0.183200
Co41	Co4	0.693960	0.409820	0.984740
N191	N19	0.622200	0.362850	0.939300
N201	N20	0.619000	0.462790	0.952700
N211	N21	0.363600	0.607540	0.943500
N221	N22	0.237100	0.645230	0.979500
N231	N23	0.759500	0.537950	0.526400
N241	N24	0.755900	0.574550	0.416300
O281	O28	0.507600	0.472570	0.891100
O291	O29	0.700700	0.702020	0.017300
O301	O30	0.705900	0.705350	0.915000
O311	O31	0.222300	0.703000	0.897900
O321	O32	0.932300	0.729600	0.099200
O331	O33	0.878300	0.682800	0.026100
O341	O34	0.847000	0.514700	0.387500
O351	O35	0.682100	0.709500	0.170200
O361	O36	0.795400	0.679500	0.152000
Zn41	Zn4	0.794670	0.717000	0.072920
C1571	C157	0.127000	0.189700	0.434400
H971	H97	0.171800	0.207200	0.452300
C1581	C158	0.068500	0.218800	0.404000
H981	H98	0.073000	0.256000	0.401400
C1591	C159	0.005400	0.194400	0.378200
H991	H99	0.965200	0.214300	0.356800
C1601	C160	0.999100	0.140800	0.382700
H1001	H100	0.954100	0.123300	0.365200
C1611	C161	0.058700	0.112800	0.412700
C1621	C162	0.059500	0.054400	0.417800
C1631	C163	0.134300	0.982040	0.453900
C1641	C164	0.127800	0.953600	0.508700
H1011	H101	0.110000	0.970400	0.544300
C1651	C165	0.147600	0.900600	0.510800
H1021	H102	0.142100	0.881100	0.547800
C1661	C166	0.175000	0.876210	0.460500
C1671	C167	0.180600	0.904300	0.405800
H1031	H103	0.198200	0.887200	0.370300
C1681	C168	0.160900	0.957000	0.402500
H1041	H104	0.165500	0.976100	0.365000
C1691	C169	0.195900	0.819000	0.464400
C1701	C170	0.930000	0.913800	0.427800
H1051	H105	0.950300	0.943400	0.450400
C1711	C171	0.970100	0.894100	0.379600
H1061	H106	0.017800	0.909500	0.370200
C1721	C172	0.940100	0.852300	0.345900
H1071	H107	0.966800	0.837800	0.313000
C1731	C173	0.869600	0.831500	0.360700
H1081	H108	0.846900	0.803200	0.337000
C1741	C174	0.833100	0.851900	0.409400
C1751	C175	0.758700	0.831700	0.428600
C1761	C176	0.660800	0.842400	0.497400
C1771	C177	0.598200	0.871100	0.475300
H1091	H109	0.603800	0.900300	0.448600
C1781	C178	0.523200	0.855800	0.493600
H1101	H110	0.478800	0.874800	0.477600
C1791	C179	0.514300	0.815100	0.533200
C1801	C180	0.577000	0.787700	0.554300
H1111	H111	0.571600	0.759200	0.582100
C1811	C181	0.649500	0.800700	0.535900
H1121	H112	0.692900	0.780000	0.550600
C1821	C182	0.433900	0.800100	0.555800
C1831	C183	0.258800	0.977400	0.086400
H1131	H113	0.228200	0.958700	0.113700
C1841	C184	0.302200	0.020100	0.108400
H1141	H114	0.301000	0.030600	0.150600
C1851	C185	0.346300	0.046800	0.070100
H1151	H115	0.374800	0.076900	0.084600
C1861	C186	0.349100	0.029400	0.009300
H1161	H116	0.380700	0.047100	0.981600
C1871	C187	0.305900	0.986600	0.989600
C1881	C188	0.305700	0.965400	0.926300
C1891	C189	0.252100	0.900100	0.856900
C1901	C190	0.315800	0.872400	0.840000
H1171	H117	0.362000	0.871400	0.866900
C1911	C191	0.312000	0.846200	0.783600
H1181	H118	0.355700	0.827100	0.771800
C1921	C192	0.243000	0.847400	0.743200
C1931	C193	0.184800	0.877300	0.760900
H1191	H119	0.138500	0.879500	0.734300
C1941	C194	0.189300	0.905000	0.815700
H1201	H120	0.148200	0.927800	0.824900
C1951	C195	0.238700	0.818100	0.683200
Co51	Co5	0.193960	0.090180	0.484740
N251	N25	0.122200	0.137150	0.439300
N261	N26	0.119000	0.037210	0.452700
N271	N27	0.863600	0.892460	0.443500
N281	N28	0.737100	0.854770	0.479500
N291	N29	0.259500	0.962050	0.026400
N301	N30	0.255900	0.925450	0.916300
O371	O37	0.007600	0.027430	0.391100
O381	O38	0.200700	0.797980	0.517300
O391	O39	0.205900	0.794650	0.415000
O401	O40	0.722300	0.797000	0.397900
O411	O41	0.432300	0.770400	0.599200
O421	O42	0.378300	0.817200	0.526100
O431	O43	0.347000	0.985300	0.887500
O441	O44	0.182100	0.790500	0.670200
O451	O45	0.295400	0.820500	0.652000
Zn51	Zn5	0.294670	0.783000	0.572920
C1961	C196	0.627000	0.689700	0.434400
H1211	H121	0.671800	0.707200	0.452300
C1971	C197	0.568500	0.718800	0.404000
H1221	H122	0.573000	0.756000	0.401400
C1981	C198	0.505400	0.694400	0.378200
H1231	H123	0.465200	0.714300	0.356800
C1991	C199	0.499100	0.640800	0.382700
H1241	H124	0.454100	0.623300	0.365200
C2001	C200	0.558700	0.612800	0.412700
C2011	C201	0.559500	0.554400	0.417800
C2021	C202	0.634300	0.482040	0.453900
C2031	C203	0.627800	0.453600	0.508700
H1251	H125	0.610000	0.470400	0.544300
C2041	C204	0.647600	0.400600	0.510800
H1261	H126	0.642100	0.381100	0.547800
C2051	C205	0.675000	0.376210	0.460500
C2061	C206	0.680600	0.404300	0.405800
H1271	H127	0.698200	0.387200	0.370300
C2071	C207	0.660900	0.457000	0.402500
H1281	H128	0.665500	0.476100	0.365000
C2081	C208	0.695900	0.319000	0.464400
C2091	C209	0.430000	0.413800	0.427800
H1291	H129	0.450300	0.443400	0.450400
C2101	C210	0.470100	0.394100	0.379600
H1301	H130	0.517800	0.409500	0.370200
C2111	C211	0.440100	0.352300	0.345900
H1311	H131	0.466800	0.337800	0.313000
C2121	C212	0.369600	0.331500	0.360700
H1321	H132	0.346900	0.303200	0.337000
C2131	C213	0.333100	0.351900	0.409400
C2141	C214	0.258700	0.331700	0.428600
C2151	C215	0.160800	0.342400	0.497400
C2161	C216	0.098200	0.371100	0.475300
H1331	H133	0.103800	0.400300	0.448600
C2171	C217	0.023200	0.355800	0.493600
H1341	H134	0.978800	0.374800	0.477600
C2181	C218	0.014300	0.315100	0.533200
C2191	C219	0.077000	0.287700	0.554300
H1351	H135	0.071600	0.259200	0.582100
C2201	C220	0.149500	0.300700	0.535900
H1361	H136	0.192900	0.280000	0.550600
C2211	C221	0.933900	0.300100	0.555800
C2221	C222	0.758800	0.477400	0.086400
H1371	H137	0.728200	0.458700	0.113700
C2231	C223	0.802200	0.520100	0.108400
H1381	H138	0.801000	0.530600	0.150600
C2241	C224	0.846300	0.546800	0.070100
H1391	H139	0.874800	0.576900	0.084600
C2251	C225	0.849100	0.529400	0.009300
H1401	H140	0.880700	0.547100	0.981600
C2261	C226	0.805900	0.486600	0.989600
C2271	C227	0.805700	0.465400	0.926300
C2281	C228	0.752100	0.400100	0.856900
C2291	C229	0.815800	0.372400	0.840000
H1411	H141	0.862000	0.371400	0.866900
C2301	C230	0.812000	0.346200	0.783600
H1421	H142	0.855700	0.327100	0.771800
C2311	C231	0.743000	0.347400	0.743200
C2321	C232	0.684800	0.377300	0.760900
H1431	H143	0.638500	0.379500	0.734300
C2331	C233	0.689300	0.405000	0.815700
H1441	H144	0.648200	0.427800	0.824900
C2341	C234	0.738700	0.318100	0.683200
Co61	Co6	0.693960	0.590180	0.484740
N311	N31	0.622200	0.637150	0.439300
N321	N32	0.619000	0.537210	0.452700
N331	N33	0.363600	0.392460	0.443500
N341	N34	0.237100	0.354770	0.479500
N351	N35	0.759500	0.462050	0.026400
N361	N36	0.755900	0.425450	0.916300
O461	O46	0.507600	0.527430	0.391100
O471	O47	0.700700	0.297980	0.517300
O481	O48	0.705900	0.294650	0.415000
O491	O49	0.222300	0.297000	0.397900
O501	O50	0.932300	0.270400	0.599200
O511	O51	0.878300	0.317200	0.526100
O521	O52	0.847000	0.485300	0.887500
O531	O53	0.682100	0.290500	0.670200
O541	O54	0.795400	0.320500	0.652000
Zn61	Zn6	0.794670	0.283000	0.572920
C2351	C235	0.873000	0.189700	0.065600
H1451	H145	0.828200	0.207200	0.047700
C2361	C236	0.931500	0.218800	0.096000
H1461	H146	0.927000	0.256000	0.098600
C2371	C237	0.994600	0.194400	0.121800
H1471	H147	0.034800	0.214300	0.143200
C2381	C238	0.000900	0.140800	0.117300
H1481	H148	0.045900	0.123300	0.134800
C2391	C239	0.941300	0.112800	0.087300
C2401	C240	0.940500	0.054400	0.082200
C2411	C241	0.865700	0.982040	0.046100
C2421	C242	0.872200	0.953600	0.991300
H1491	H149	0.890000	0.970400	0.955700
C2431	C243	0.852400	0.900600	0.989200
H1501	H150	0.857900	0.881100	0.952200
C2441	C244	0.825000	0.876210	0.039500
C2451	C245	0.819400	0.904300	0.094200
H1511	H151	0.801800	0.887200	0.129700
C2461	C246	0.839100	0.957000	0.097500
H1521	H152	0.834500	0.976100	0.135000
C2471	C247	0.804100	0.819000	0.035600
C2481	C248	0.070000	0.913800	0.072200
H1531	H153	0.049700	0.943400	0.049600
C2491	C249	0.029900	0.894100	0.120400
H1541	H154	0.982200	0.909500	0.129800
C2501	C250	0.059900	0.852300	0.154100
H1551	H155	0.033200	0.837800	0.187000
C2511	C251	0.130400	0.831500	0.139300
H1561	H156	0.153100	0.803200	0.163000
C2521	C252	0.166900	0.851900	0.090600
C2531	C253	0.241300	0.831700	0.071400
C2541	C254	0.339200	0.842400	0.002600
C2551	C255	0.401800	0.871100	0.024700
H1571	H157	0.396200	0.900300	0.051400
C2561	C256	0.476800	0.855800	0.006400
H1581	H158	0.521200	0.874800	0.022400
C2571	C257	0.485700	0.815100	0.966800
C2581	C258	0.423000	0.787700	0.945700
H1591	H159	0.428400	0.759200	0.917900
C2591	C259	0.350500	0.800700	0.964100
H1601	H160	0.307100	0.780000	0.949400
C2601	C260	0.566100	0.800100	0.944200
C2611	C261	0.741200	0.977400	0.413600
H1611	H161	0.771800	0.958700	0.386300
C2621	C262	0.697800	0.020100	0.391600
H1621	H162	0.699000	0.030600	0.349400
C2631	C263	0.653700	0.046800	0.429900
H1631	H163	0.625200	0.076900	0.415400
C2641	C264	0.650900	0.029400	0.490700
H1641	H164	0.619300	0.047100	0.518400
C2651	C265	0.694100	0.986600	0.510400
C2661	C266	0.694300	0.965400	0.573700
C2671	C267	0.747900	0.900100	0.643100
C2681	C268	0.684200	0.872400	0.660000
H1651	H165	0.638000	0.871400	0.633100
C2691	C269	0.688000	0.846200	0.716400
H1661	H166	0.644300	0.827100	0.728200
C2701	C270	0.757000	0.847400	0.756800
C2711	C271	0.815200	0.877300	0.739100
H1671	H167	0.861500	0.879500	0.765700
C2721	C272	0.810700	0.905000	0.684300
H1681	H168	0.851800	0.927800	0.675100
C2731	C273	0.761300	0.818100	0.816800
Co71	Co7	0.806040	0.090180	0.015260
N371	N37	0.877800	0.137150	0.060700
N381	N38	0.881000	0.037210	0.047300
N391	N39	0.136400	0.892460	0.056500
N401	N40	0.262900	0.854770	0.020500
N411	N41	0.740500	0.962050	0.473600
N421	N42	0.744100	0.925450	0.583700
O551	O55	0.992400	0.027430	0.108900
O561	O56	0.799300	0.797980	0.982700
O571	O57	0.794100	0.794650	0.085000
O581	O58	0.277700	0.797000	0.102100
O591	O59	0.567700	0.770400	0.900800
O601	O60	0.621700	0.817200	0.973900
O611	O61	0.653000	0.985300	0.612500
O621	O62	0.817900	0.790500	0.829800
O631	O63	0.704600	0.820500	0.848000
Zn71	Zn7	0.705330	0.783000	0.927080
C2741	C274	0.373000	0.689700	0.065600
H1691	H169	0.328200	0.707200	0.047700
C2751	C275	0.431500	0.718800	0.096000
H1701	H170	0.427000	0.756000	0.098600
C2761	C276	0.494600	0.694400	0.121800
H1711	H171	0.534800	0.714300	0.143200
C2771	C277	0.500900	0.640800	0.117300
H1721	H172	0.545900	0.623300	0.134800
C2781	C278	0.441300	0.612800	0.087300
C2791	C279	0.440500	0.554400	0.082200
C2801	C280	0.365700	0.482040	0.046100
C2811	C281	0.372200	0.453600	0.991300
H1731	H173	0.390000	0.470400	0.955700
C2821	C282	0.352400	0.400600	0.989200
H1741	H174	0.357900	0.381100	0.952200
C2831	C283	0.325000	0.376210	0.039500
C2841	C284	0.319400	0.404300	0.094200
H1751	H175	0.301800	0.387200	0.129700
C2851	C285	0.339100	0.457000	0.097500
H1761	H176	0.334500	0.476100	0.135000
C2861	C286	0.304100	0.319000	0.035600
C2871	C287	0.570000	0.413800	0.072200
H1771	H177	0.549700	0.443400	0.049600
C2881	C288	0.529900	0.394100	0.120400
H1781	H178	0.482200	0.409500	0.129800
C2891	C289	0.559900	0.352300	0.154100
H1791	H179	0.533200	0.337800	0.187000
C2901	C290	0.630400	0.331500	0.139300
H1801	H180	0.653100	0.303200	0.163000
C2911	C291	0.666900	0.351900	0.090600
C2921	C292	0.741300	0.331700	0.071400
C2931	C293	0.839200	0.342400	0.002600
C2941	C294	0.901800	0.371100	0.024700
H1811	H181	0.896200	0.400300	0.051400
C2951	C295	0.976800	0.355800	0.006400
H1821	H182	0.021200	0.374800	0.022400
C2961	C296	0.985700	0.315100	0.966800
C2971	C297	0.923000	0.287700	0.945700
H1831	H183	0.928400	0.259200	0.917900
C2981	C298	0.850500	0.300700	0.964100
H1841	H184	0.807100	0.280000	0.949400
C2991	C299	0.066100	0.300100	0.944200
C3001	C300	0.241200	0.477400	0.413600
H1851	H185	0.271800	0.458700	0.386300
C3011	C301	0.197800	0.520100	0.391600
H1861	H186	0.199000	0.530600	0.349400
C3021	C302	0.153700	0.546800	0.429900
H1871	H187	0.125200	0.576900	0.415400
C3031	C303	0.150900	0.529400	0.490700
H1881	H188	0.119300	0.547100	0.518400
C3041	C304	0.194100	0.486600	0.510400
C3051	C305	0.194300	0.465400	0.573700
C3061	C306	0.247900	0.400100	0.643100
C3071	C307	0.184200	0.372400	0.660000
H1891	H189	0.138000	0.371400	0.633100
C3081	C308	0.188000	0.346200	0.716400
H1901	H190	0.144300	0.327100	0.728200
C3091	C309	0.257000	0.347400	0.756800
C3101	C310	0.315200	0.377300	0.739100
H1911	H191	0.361500	0.379500	0.765700
C3111	C311	0.310700	0.405000	0.684300
H1921	H192	0.351800	0.427800	0.675100
C3121	C312	0.261300	0.318100	0.816800
Co81	Co8	0.306040	0.590180	0.015260
N431	N43	0.377800	0.637150	0.060700
N441	N44	0.381000	0.537210	0.047300
N451	N45	0.636400	0.392460	0.056500
N461	N46	0.762900	0.354770	0.020500
N471	N47	0.240500	0.462050	0.473600
N481	N48	0.244100	0.425450	0.583700
O641	O64	0.492400	0.527430	0.108900
O651	O65	0.299300	0.297980	0.982700
O661	O66	0.294100	0.294650	0.085000
O671	O67	0.777700	0.297000	0.102100
O681	O68	0.067700	0.270400	0.900800
O691	O69	0.121700	0.317200	0.973900
O701	O70	0.153000	0.485300	0.612500
O711	O71	0.317900	0.290500	0.829800
O721	O72	0.204600	0.320500	0.848000
Zn81	Zn8	0.205330	0.283000	0.927080
