data_KUVJIW_clean_PM
_symmetry_space_group_name_H-M	'P1'
_cell_length_a	9.756100
_cell_length_b	10.285200
_cell_length_c	11.046500
_cell_angle_alpha	95.127000
_cell_angle_beta	95.109000
_cell_angle_gamma	105.974000
_symmetry_Int_Tables_number 1

loop_
_symmetry_equiv_pos_as_xyz
'x,y,z'

loop_
_atom_site_label
_atom_site_type_symbol
_atom_site_fract_x
_atom_site_fract_y
_atom_site_fract_z
U11	U1	0.332790	0.387880	0.369360
U21	U2	0.135000	0.172060	0.827350
P11	P1	0.054200	0.183400	0.145200
P21	P2	0.632700	0.541300	0.290400
O11	O1	0.033800	0.164700	0.007000
O21	O2	0.206900	0.265600	0.196400
O31	O3	0.011000	0.049100	0.200400
O41	O4	0.112800	0.273500	0.436500
O51	O5	0.891800	0.188600	0.479800
O61	O6	0.694400	0.686800	0.273500
O71	O7	0.488400	0.471500	0.212100
O81	O8	0.602500	0.521400	0.422400
O91	O9	0.646700	0.406000	0.938100
H11	H1	0.652600	0.446500	0.877200
O101	O10	0.736100	0.610000	0.041700
C11	C1	0.940700	0.286400	0.191100
C21	C2	0.872200	0.341400	0.099700
H21	H2	0.885700	0.323400	0.018300
C31	C3	0.783200	0.423700	0.130100
C41	C4	0.753600	0.445900	0.250300
C51	C5	0.824800	0.385200	0.341500
H31	H3	0.807300	0.397900	0.422500
C61	C6	0.915400	0.311200	0.313800
C71	C7	0.980200	0.257000	0.418100
C81	C8	0.721400	0.486800	0.031500
U31	U3	0.667210	0.612120	0.630640
U41	U4	0.865000	0.827940	0.172650
P31	P3	0.945800	0.816600	0.854800
P41	P4	0.367300	0.458700	0.709600
O111	O11	0.966200	0.835300	0.993000
O121	O12	0.793100	0.734400	0.803600
O131	O13	0.989000	0.950900	0.799600
O141	O14	0.887200	0.726500	0.563500
O151	O15	0.108200	0.811400	0.520200
O161	O16	0.305600	0.313200	0.726500
O171	O17	0.511600	0.528500	0.787900
O181	O18	0.397500	0.478600	0.577600
O191	O19	0.353300	0.594000	0.061900
H41	H4	0.347400	0.553500	0.122800
O201	O20	0.263900	0.390000	0.958300
C91	C9	0.059300	0.713600	0.808900
C101	C10	0.127800	0.658600	0.900300
H51	H5	0.114300	0.676600	0.981700
C111	C11	0.216800	0.576300	0.869900
C121	C12	0.246400	0.554100	0.749700
C131	C13	0.175200	0.614800	0.658500
H61	H6	0.192700	0.602100	0.577500
C141	C14	0.084600	0.688800	0.686200
C151	C15	0.019800	0.743000	0.581900
C161	C16	0.278600	0.513200	0.968500
