data_KUVMUL_clean_PM
_symmetry_space_group_name_H-M	'P1'
_cell_length_a	18.695000
_cell_length_b	20.122000
_cell_length_c	21.068000
_cell_angle_alpha	111.924000
_cell_angle_beta	92.824000
_cell_angle_gamma	94.973000
_symmetry_Int_Tables_number 1

loop_
_symmetry_equiv_pos_as_xyz
'x,y,z'

loop_
_atom_site_label
_atom_site_type_symbol
_atom_site_fract_x
_atom_site_fract_y
_atom_site_fract_z
Si11	Si1	0.101900	0.633000	0.583400
C11	C1	0.018700	0.627400	0.627800
C21	C2	0.949500	0.622300	0.600700
H11	H1	0.941800	0.615300	0.553600
C31	C3	0.890400	0.626800	0.638000
H21	H2	0.843300	0.623100	0.616900
C41	C4	0.900700	0.636600	0.706600
C51	C5	0.969300	0.642200	0.735800
H31	H3	0.976800	0.650500	0.783200
C61	C6	0.027200	0.635900	0.697100
H41	H4	0.074000	0.637300	0.717600
C71	C7	0.842100	0.647600	0.748400
N11	N1	0.624000	0.714600	0.917200
C81	C8	0.674300	0.674600	0.925400
H51	H5	0.671900	0.659000	0.962700
C91	C9	0.730600	0.653800	0.882800
H61	H6	0.762600	0.622100	0.889000
C101	C10	0.738100	0.680700	0.831600
C111	C11	0.686600	0.722000	0.823400
H71	H7	0.689200	0.739600	0.787500
C121	C12	0.630600	0.739100	0.866100
H81	H8	0.596500	0.768600	0.859000
C131	C13	0.795900	0.661400	0.786800
C141	C14	0.082500	0.639400	0.497700
C151	C15	0.104200	0.702700	0.488000
H91	H9	0.126500	0.743700	0.525700
C161	C16	0.093600	0.706500	0.424200
H101	H10	0.107900	0.750400	0.418600
C171	C17	0.062600	0.647800	0.368800
C181	C18	0.040500	0.584700	0.376600
H111	H11	0.015500	0.545100	0.339300
C191	C19	0.055200	0.579700	0.439600
H121	H12	0.046300	0.534100	0.443300
C201	C20	0.055700	0.652500	0.302600
N21	N2	0.025200	0.721700	0.080400
C211	C21	0.968000	0.687600	0.094400
H131	H13	0.923100	0.680000	0.068300
C221	C22	0.974500	0.662500	0.148900
H141	H14	0.934700	0.636100	0.158400
C231	C23	0.039300	0.676900	0.187400
C241	C24	0.098100	0.710800	0.170400
H151	H15	0.143800	0.719200	0.195600
C251	C25	0.088500	0.732900	0.114700
H161	H16	0.128400	0.756100	0.101800
C261	C26	0.045300	0.661000	0.250100
C271	C27	0.159300	0.717800	0.642300
C281	C28	0.233300	0.721500	0.653000
H171	H17	0.256300	0.679500	0.631000
C291	C29	0.275300	0.784900	0.695100
H181	H18	0.325900	0.786100	0.703400
C301	C30	0.241200	0.845400	0.724300
C311	C31	0.167200	0.844200	0.713000
H191	H19	0.144500	0.886600	0.733600
C321	C32	0.127200	0.780300	0.671500
H201	H20	0.076700	0.779400	0.662700
C331	C33	0.281700	0.912200	0.766700
N31	N3	0.418600	0.168000	0.940900
C341	C34	0.348000	0.160700	0.926200
H211	H21	0.321300	0.200400	0.946200
C351	C35	0.312300	0.093300	0.880600
H221	H22	0.261500	0.087000	0.870400
C361	C36	0.352700	0.037300	0.851500
C371	C37	0.426200	0.047200	0.863200
H231	H23	0.454300	0.009300	0.841100
C381	C38	0.459500	0.115700	0.909600
H241	H24	0.510500	0.124300	0.918400
C391	C39	0.316400	0.967300	0.804300
C401	C40	0.149200	0.550500	0.567800
C411	C41	0.131100	0.500700	0.596900
H251	H25	0.094500	0.508400	0.627700
C421	C42	0.166300	0.439600	0.581100
H261	H26	0.153700	0.406400	0.602200
C431	C43	0.218300	0.425100	0.536500
C441	C44	0.238100	0.474800	0.507600
H271	H27	0.275000	0.467000	0.477000
C451	C45	0.203000	0.535900	0.524100
H281	H28	0.216900	0.569800	0.504100
C461	C46	0.252900	0.361500	0.522200
N41	N4	0.403000	0.132400	0.476200
C471	C47	0.437400	0.198800	0.500100
H291	H29	0.488300	0.205800	0.509700
C481	C48	0.398700	0.259100	0.511400
H301	H30	0.423100	0.306500	0.530600
C491	C49	0.326100	0.248400	0.494400
C501	C50	0.291300	0.179000	0.464900
H311	H31	0.241200	0.170000	0.450800
C511	C51	0.333700	0.122300	0.456800
H321	H32	0.311000	0.074200	0.436200
C521	C52	0.284700	0.309700	0.504400
Si21	Si2	0.899300	0.863100	0.415100
C531	C53	0.916800	0.859600	0.502500
C541	C54	0.922400	0.919500	0.561800
H331	H33	0.915300	0.964100	0.558200
C551	C55	0.937700	0.919600	0.626500
H341	H34	0.946700	0.963800	0.665200
C561	C56	0.939700	0.854800	0.634100
C571	C57	0.933600	0.793800	0.576100
H351	H35	0.936700	0.748700	0.580300
C581	C58	0.923200	0.795500	0.511700
H361	H36	0.920400	0.751800	0.472600
C591	C59	0.951100	0.850700	0.700400
N51	N5	0.996100	0.796300	0.928000
C601	C60	0.928800	0.796500	0.907100
H371	H37	0.890500	0.785100	0.930700
C611	C61	0.914100	0.814000	0.848500
H381	H38	0.866100	0.813200	0.831000
C621	C62	0.972000	0.832100	0.818300
C631	C63	0.041400	0.836300	0.845200
H391	H39	0.081000	0.852400	0.826100
C641	C64	0.052400	0.816000	0.902200
H401	H40	0.099800	0.816700	0.921200
C651	C65	0.959100	0.845500	0.754800
C661	C66	0.841700	0.777600	0.358900
C671	C67	0.767400	0.774000	0.349900
H411	H41	0.744500	0.816100	0.371600
C681	C68	0.725700	0.709900	0.309700
H421	H42	0.674600	0.707200	0.305500
C691	C69	0.760100	0.650500	0.276100
C701	C70	0.833300	0.652100	0.282000
H431	H43	0.856100	0.610700	0.257900
C711	C71	0.873500	0.716000	0.324400
H441	H44	0.924400	0.717600	0.329900
C721	C72	0.717500	0.586600	0.229000
N61	N6	0.537700	0.349600	0.071300
C731	C73	0.608900	0.347200	0.066400
H451	H45	0.626000	0.305500	0.034700
C741	C74	0.658900	0.407000	0.108500
H461	H46	0.709400	0.404000	0.108800
C751	C75	0.632100	0.469200	0.148600
C761	C76	0.559500	0.471100	0.153100
H471	H47	0.541000	0.513000	0.183000
C771	C77	0.512700	0.409000	0.112000
H481	H48	0.462100	0.410000	0.113700
C781	C78	0.679800	0.532600	0.193800
C791	C79	0.852800	0.944900	0.425500
C801	C80	0.882400	0.998800	0.404100
H491	H49	0.926100	0.993400	0.382500
C811	C81	0.848300	0.059500	0.414200
H501	H50	0.868000	0.094900	0.398300
C821	C82	0.786500	0.069100	0.447000
C831	C83	0.756500	0.016900	0.469000
H511	H51	0.712600	0.022300	0.490200
C841	C84	0.791900	0.957200	0.459400
H521	H52	0.773100	0.923000	0.477200
C851	C85	0.749000	0.131400	0.458700
N71	N7	0.597100	0.357500	0.491400
C861	C86	0.574400	0.291700	0.445400
H531	H53	0.531000	0.285100	0.417300
C871	C87	0.611900	0.231800	0.436700
H541	H54	0.594900	0.185700	0.402700
C881	C88	0.674200	0.241500	0.478900
C891	C89	0.696200	0.308400	0.528900
H551	H55	0.738000	0.316100	0.559300
C901	C90	0.654900	0.364900	0.533800
H561	H56	0.669100	0.410800	0.569100
C911	C91	0.714300	0.180500	0.470600
C921	C92	0.985200	0.866500	0.374400
C931	C93	0.981100	0.861200	0.305800
H571	H57	0.935400	0.851100	0.280300
C941	C94	0.041900	0.870600	0.275200
H581	H58	0.038200	0.867600	0.229100
C951	C95	0.108300	0.884300	0.311100
C961	C96	0.114100	0.887600	0.377900
H591	H59	0.160100	0.895100	0.402300
C971	C97	0.053000	0.879900	0.408200
H601	H60	0.057400	0.884100	0.454600
C981	C98	0.171800	0.898300	0.282100
N81	N8	0.412100	0.974800	0.184700
C991	C99	0.411900	0.991400	0.252100
H611	H61	0.452500	0.018500	0.282500
C1001	C100	0.350100	0.968000	0.277400
H621	H62	0.349800	0.976700	0.324900
C1011	C101	0.291000	0.933000	0.233400
C1021	C102	0.291100	0.919300	0.164400
H631	H63	0.249000	0.898100	0.133900
C1031	C103	0.356500	0.938000	0.140400
H641	H64	0.360400	0.924000	0.092500
C1041	C104	0.224700	0.912200	0.259300
Cu11	Cu1	0.464220	0.049460	0.491090
Cu21	Cu2	0.469730	0.260750	0.014150
Cu31	Cu3	0.537280	0.447020	0.497210
Cu41	Cu4	0.006400	0.760810	0.006910
C1051	C105	0.595700	0.097000	0.573800
C1061	C106	0.656800	0.154200	0.621800
H651	H65	0.650800	0.160800	0.669700
H661	H66	0.654100	0.200100	0.616200
H671	H67	0.703800	0.137400	0.609700
O11	O1	0.543000	0.116000	0.550900
O21	O2	0.606000	0.034000	0.568200
C1071	C107	0.568700	0.995400	0.399700
C1081	C108	0.610600	0.988100	0.335000
H681	H68	0.645200	0.952800	0.329100
H691	H69	0.636500	0.035000	0.341400
H701	H70	0.576400	0.972100	0.294000
O31	O3	0.520400	0.035000	0.409400
O41	O4	0.583900	0.951000	0.424300
C1091	C109	0.591200	0.587000	0.586600
C1101	C110	0.650300	0.640400	0.641800
H711	H71	0.628900	0.663100	0.685200
H721	H72	0.669600	0.677600	0.625700
H731	H73	0.689400	0.613700	0.648900
O51	O5	0.603200	0.523000	0.566600
O61	O6	0.539300	0.614000	0.571700
C1111	C111	0.431200	0.481300	0.591900
C1121	C112	0.391200	0.470800	0.651600
H741	H74	0.355100	0.504900	0.665400
H751	H75	0.426100	0.479500	0.690900
H761	H76	0.367200	0.421400	0.635800
O71	O7	0.478200	0.440500	0.571400
O81	O8	0.415200	0.532400	0.577700
Si31	Si3	0.898100	0.367000	0.416600
C1131	C113	0.981300	0.372600	0.372200
C1141	C114	0.050500	0.377700	0.399300
H771	H77	0.058200	0.384700	0.446400
C1151	C115	0.109600	0.373200	0.362000
H781	H78	0.156700	0.376900	0.383100
C1161	C116	0.099300	0.363400	0.293400
C1171	C117	0.030700	0.357800	0.264200
H791	H79	0.023200	0.349500	0.216800
C1181	C118	0.972800	0.364100	0.302900
H801	H80	0.926000	0.362700	0.282400
C1191	C119	0.157900	0.352400	0.251600
N91	N9	0.376000	0.285400	0.082800
C1201	C120	0.325700	0.325400	0.074600
H811	H81	0.328100	0.341000	0.037300
C1211	C121	0.269400	0.346200	0.117200
H821	H82	0.237400	0.377900	0.111000
C1221	C122	0.261900	0.319300	0.168400
C1231	C123	0.313400	0.278000	0.176600
H831	H83	0.310800	0.260400	0.212500
C1241	C124	0.369400	0.260900	0.133900
H841	H84	0.403500	0.231400	0.141000
C1251	C125	0.204100	0.338600	0.213200
C1261	C126	0.917500	0.360600	0.502300
C1271	C127	0.895800	0.297300	0.512000
H851	H85	0.873500	0.256300	0.474300
C1281	C128	0.906400	0.293500	0.575800
H861	H86	0.892100	0.249600	0.581400
C1291	C129	0.937400	0.352200	0.631200
C1301	C130	0.959500	0.415300	0.623400
H871	H87	0.984500	0.454900	0.660700
C1311	C131	0.944800	0.420300	0.560400
H881	H88	0.953700	0.465900	0.556700
C1321	C132	0.944300	0.347500	0.697400
N101	N10	0.974800	0.278300	0.919600
C1331	C133	0.032000	0.312400	0.905600
H891	H89	0.076900	0.320000	0.931700
C1341	C134	0.025500	0.337500	0.851100
H901	H90	0.065300	0.363900	0.841600
C1351	C135	0.960700	0.323100	0.812600
C1361	C136	0.901900	0.289200	0.829600
H911	H91	0.856200	0.280800	0.804400
C1371	C137	0.911500	0.267100	0.885300
H921	H92	0.871600	0.243900	0.898200
C1381	C138	0.954700	0.339000	0.749900
C1391	C139	0.840700	0.282200	0.357700
C1401	C140	0.766700	0.278500	0.347000
H931	H93	0.743700	0.320500	0.369000
C1411	C141	0.724700	0.215100	0.304900
H941	H94	0.674100	0.213900	0.296600
C1421	C142	0.758800	0.154600	0.275700
C1431	C143	0.832800	0.155800	0.287000
H951	H95	0.855500	0.113400	0.266400
C1441	C144	0.872800	0.219700	0.328500
H961	H96	0.923300	0.220600	0.337300
C1451	C145	0.718300	0.087800	0.233300
N111	N11	0.581400	0.832000	0.059100
C1461	C146	0.652000	0.839300	0.073800
H971	H97	0.678700	0.799600	0.053800
C1471	C147	0.687700	0.906700	0.119400
H981	H98	0.738500	0.913000	0.129600
C1481	C148	0.647300	0.962700	0.148500
C1491	C149	0.573800	0.952800	0.136800
H991	H99	0.545700	0.990700	0.158900
C1501	C150	0.540500	0.884300	0.090400
H1001	H100	0.489500	0.875700	0.081600
C1511	C151	0.683600	0.032700	0.195700
C1521	C152	0.850800	0.449500	0.432200
C1531	C153	0.868900	0.499300	0.403100
H1011	H101	0.905500	0.491600	0.372300
C1541	C154	0.833700	0.560400	0.418900
H1021	H102	0.846300	0.593600	0.397800
C1551	C155	0.781700	0.574900	0.463500
C1561	C156	0.761900	0.525200	0.492400
H1031	H103	0.725000	0.533000	0.523000
C1571	C157	0.797000	0.464100	0.475900
H1041	H104	0.783100	0.430200	0.495900
C1581	C158	0.747100	0.638500	0.477800
N121	N12	0.597000	0.867600	0.523800
C1591	C159	0.562600	0.801200	0.499900
H1051	H105	0.511700	0.794200	0.490300
C1601	C160	0.601300	0.740900	0.488600
H1061	H106	0.576900	0.693500	0.469400
C1611	C161	0.673900	0.751600	0.505600
C1621	C162	0.708700	0.821000	0.535100
H1071	H107	0.758800	0.830000	0.549200
C1631	C163	0.666300	0.877700	0.543200
H1081	H108	0.689000	0.925800	0.563800
C1641	C164	0.715300	0.690300	0.495600
Si41	Si4	0.100700	0.136900	0.584900
C1651	C165	0.083200	0.140400	0.497500
C1661	C166	0.077600	0.080500	0.438200
H1091	H109	0.084700	0.035900	0.441800
C1671	C167	0.062300	0.080400	0.373500
H1101	H110	0.053300	0.036200	0.334800
C1681	C168	0.060300	0.145200	0.365900
C1691	C169	0.066400	0.206200	0.423900
H1111	H111	0.063300	0.251300	0.419700
C1701	C170	0.076800	0.204500	0.488300
H1121	H112	0.079600	0.248200	0.527400
C1711	C171	0.048900	0.149300	0.299600
N131	N13	0.003900	0.203700	0.072000
C1721	C172	0.071200	0.203500	0.092900
H1131	H113	0.109500	0.214900	0.069300
C1731	C173	0.085900	0.186000	0.151500
H1141	H114	0.133900	0.186800	0.169000
C1741	C174	0.028000	0.167900	0.181700
C1751	C175	0.958600	0.163700	0.154800
H1151	H115	0.919000	0.147600	0.173900
C1761	C176	0.947600	0.184000	0.097800
H1161	H116	0.900200	0.183300	0.078800
C1771	C177	0.040900	0.154500	0.245200
C1781	C178	0.158300	0.222400	0.641100
C1791	C179	0.232600	0.226000	0.650100
H1171	H117	0.255500	0.183900	0.628400
C1801	C180	0.274300	0.290100	0.690300
H1181	H118	0.325400	0.292800	0.694500
C1811	C181	0.239900	0.349500	0.723900
C1821	C182	0.166700	0.347900	0.718000
H1191	H119	0.143900	0.389300	0.742100
C1831	C183	0.126500	0.284000	0.675600
H1201	H120	0.075600	0.282400	0.670100
C1841	C184	0.282500	0.413400	0.771000
N141	N14	0.462300	0.650400	0.928700
C1851	C185	0.391100	0.652800	0.933600
H1211	H121	0.374000	0.694500	0.965300
C1861	C186	0.341100	0.593000	0.891500
H1221	H122	0.290600	0.596000	0.891200
C1871	C187	0.367900	0.530800	0.851400
C1881	C188	0.440500	0.528900	0.846900
H1231	H123	0.459000	0.487000	0.817000
C1891	C189	0.487300	0.591000	0.888000
H1241	H124	0.537900	0.590000	0.886300
C1901	C190	0.320200	0.467400	0.806200
C1911	C191	0.147200	0.055100	0.574500
C1921	C192	0.117600	0.001200	0.595900
H1251	H125	0.073900	0.006600	0.617500
C1931	C193	0.151700	0.940500	0.585800
H1261	H126	0.132000	0.905100	0.601700
C1941	C194	0.213500	0.930900	0.553000
C1951	C195	0.243500	0.983100	0.531000
H1271	H127	0.287400	0.977700	0.509800
C1961	C196	0.208100	0.042800	0.540600
H1281	H128	0.226900	0.077000	0.522800
C1971	C197	0.251000	0.868600	0.541300
N151	N15	0.402900	0.642500	0.508600
C1981	C198	0.425600	0.708300	0.554600
H1291	H129	0.469000	0.714900	0.582700
C1991	C199	0.388100	0.768200	0.563300
H1301	H130	0.405100	0.814300	0.597300
C2001	C200	0.325800	0.758500	0.521100
C2011	C201	0.303800	0.691600	0.471100
H1311	H131	0.262000	0.683900	0.440700
C2021	C202	0.345100	0.635100	0.466200
H1321	H132	0.330900	0.589200	0.430900
C2031	C203	0.285700	0.819500	0.529400
C2041	C204	0.014800	0.133500	0.625600
C2051	C205	0.018900	0.138800	0.694200
H1331	H133	0.064600	0.148900	0.719700
C2061	C206	0.958100	0.129400	0.724800
H1341	H134	0.961800	0.132400	0.770900
C2071	C207	0.891700	0.115700	0.688900
C2081	C208	0.885900	0.112400	0.622100
H1351	H135	0.839900	0.104900	0.597700
C2091	C209	0.947000	0.120100	0.591800
H1361	H136	0.942600	0.115900	0.545400
C2101	C210	0.828200	0.101700	0.717900
N161	N16	0.587900	0.025200	0.815300
C2111	C211	0.588100	0.008600	0.747900
H1371	H137	0.547500	0.981500	0.717500
C2121	C212	0.649900	0.032000	0.722600
H1381	H138	0.650200	0.023300	0.675100
C2131	C213	0.709000	0.067000	0.766600
C2141	C214	0.708900	0.080700	0.835600
H1391	H139	0.751000	0.101900	0.866100
C2151	C215	0.643500	0.062000	0.859600
H1401	H140	0.639600	0.076000	0.907500
C2161	C216	0.775300	0.087800	0.740700
Cu51	Cu5	0.535780	0.950540	0.508910
Cu61	Cu6	0.530270	0.739250	0.985850
Cu71	Cu7	0.462720	0.552980	0.502790
Cu81	Cu8	0.993600	0.239190	0.993090
C2171	C217	0.404300	0.903000	0.426200
C2181	C218	0.343200	0.845800	0.378200
H1411	H141	0.349200	0.839200	0.330300
H1421	H142	0.345900	0.799900	0.383800
H1431	H143	0.296200	0.862600	0.390300
O91	O9	0.457000	0.884000	0.449100
O101	O10	0.394000	0.966000	0.431800
C2191	C219	0.431300	0.004600	0.600300
C2201	C220	0.389400	0.011900	0.665000
H1441	H144	0.354800	0.047200	0.670900
H1451	H145	0.363500	0.965000	0.658600
H1461	H146	0.423600	0.027900	0.706000
O111	O11	0.479600	0.965000	0.590600
O121	O12	0.416100	0.049000	0.575700
C2211	C221	0.408800	0.413000	0.413400
C2221	C222	0.349700	0.359600	0.358200
H1471	H147	0.371100	0.336900	0.314800
H1481	H148	0.330400	0.322400	0.374300
H1491	H149	0.310600	0.386300	0.351100
O131	O13	0.396800	0.477000	0.433400
O141	O14	0.460700	0.386000	0.428300
C2231	C223	0.568800	0.518700	0.408100
C2241	C224	0.608800	0.529200	0.348400
H1501	H150	0.644900	0.495100	0.334600
H1511	H151	0.573900	0.520500	0.309100
H1521	H152	0.632800	0.578600	0.364200
O151	O15	0.521800	0.559500	0.428600
O161	O16	0.584800	0.467600	0.422300
