data_KUYLOH_clean_PM
_symmetry_space_group_name_H-M	'P1'
_cell_length_a	6.979500
_cell_length_b	29.501000
_cell_length_c	15.832700
_cell_angle_alpha	90.000000
_cell_angle_beta	101.455000
_cell_angle_gamma	90.000000
_symmetry_Int_Tables_number 1

loop_
_symmetry_equiv_pos_as_xyz
'x,y,z'

loop_
_atom_site_label
_atom_site_type_symbol
_atom_site_fract_x
_atom_site_fract_y
_atom_site_fract_z
U11	U1	0.982600	0.463940	0.847950
O11	O1	0.801300	0.427600	0.716000
O21	O2	0.651200	0.483270	0.769100
O31	O3	0.252100	0.468330	0.966100
O41	O4	0.124100	0.471610	0.084700
O51	O5	0.172000	0.095590	0.318100
O61	O6	0.014100	0.159320	0.269300
N11	N1	0.097500	0.402010	0.590100
N21	N2	0.761500	0.396180	0.188000
N31	N3	0.697100	0.210350	0.376800
C11	C1	0.647800	0.449700	0.719200
C21	C2	0.455900	0.433800	0.669600
C31	C3	0.298000	0.462800	0.651600
H11	H1	0.312900	0.494000	0.666300
C41	C4	0.116400	0.445800	0.611400
H21	H2	0.006100	0.465300	0.599300
C51	C5	0.250900	0.373300	0.606400
H31	H3	0.232400	0.342200	0.591100
C61	C6	0.433300	0.388400	0.644900
H41	H4	0.542100	0.368400	0.654500
C71	C7	0.257900	0.461300	0.045000
C81	C8	0.436100	0.438300	0.096100
C91	C9	0.441400	0.423800	0.178900
H51	H5	0.331900	0.428400	0.205200
C101	C10	0.606900	0.402500	0.223600
H61	H6	0.610000	0.392200	0.280700
C111	C11	0.760300	0.409500	0.106100
H71	H7	0.871700	0.404300	0.081400
C121	C12	0.598100	0.430500	0.058700
H81	H8	0.596300	0.439500	0.001000
C131	C13	0.159500	0.137800	0.303100
C141	C14	0.351100	0.163500	0.329400
C151	C15	0.363200	0.209100	0.308800
H91	H9	0.252200	0.224400	0.277200
C161	C16	0.538100	0.231900	0.334700
H101	H10	0.545300	0.263300	0.322400
C171	C17	0.688400	0.166000	0.396400
H111	H11	0.801400	0.151200	0.427600
C181	C18	0.520800	0.142400	0.372100
H121	H12	0.518800	0.110800	0.384300
C191	C19	0.903500	0.355600	0.471800
C201	C20	0.927700	0.378600	0.396300
C211	C21	0.924400	0.353800	0.321200
C221	C22	0.898500	0.306700	0.319200
C231	C23	0.889300	0.283900	0.396600
C241	C24	0.884800	0.307900	0.473000
C251	C25	0.901000	0.383500	0.551300
H131	H13	0.808000	0.408900	0.536200
H141	H14	0.854100	0.364400	0.594500
C261	C26	0.955200	0.429500	0.398200
H151	H15	0.931200	0.441200	0.339200
H161	H16	0.089300	0.436800	0.427000
H171	H17	0.863100	0.443400	0.429800
C271	C27	0.949600	0.377400	0.239900
H181	H18	0.005900	0.355800	0.203700
H191	H19	0.044000	0.402600	0.255200
C281	C28	0.881800	0.280900	0.235100
H201	H20	0.846400	0.249300	0.243600
H211	H21	0.007400	0.281800	0.216400
H221	H22	0.780700	0.294900	0.191000
C291	C29	0.894400	0.233000	0.398900
H231	H23	0.959900	0.223200	0.457300
H241	H24	0.974900	0.222200	0.358000
C301	C30	0.863900	0.283000	0.552500
H251	H25	0.800600	0.302700	0.588700
H261	H26	0.993500	0.274100	0.584500
H271	H27	0.784000	0.255800	0.536700
U21	U2	0.017400	0.963940	0.652050
O71	O7	0.198700	0.927600	0.784000
O81	O8	0.348800	0.983270	0.730900
O91	O9	0.747900	0.968330	0.533900
O101	O10	0.875900	0.971610	0.415300
O111	O11	0.828000	0.595590	0.181900
O121	O12	0.985900	0.659320	0.230700
N41	N4	0.902500	0.902010	0.909900
N51	N5	0.238500	0.896180	0.312000
N61	N6	0.302900	0.710350	0.123200
C311	C31	0.352200	0.949700	0.780800
C321	C32	0.544100	0.933800	0.830400
C331	C33	0.702000	0.962800	0.848400
H281	H28	0.687100	0.994000	0.833700
C341	C34	0.883600	0.945800	0.888600
H291	H29	0.993900	0.965300	0.900700
C351	C35	0.749100	0.873300	0.893600
H301	H30	0.767600	0.842200	0.908900
C361	C36	0.566700	0.888400	0.855100
H311	H31	0.457900	0.868400	0.845500
C371	C37	0.742100	0.961300	0.455000
C381	C38	0.563900	0.938300	0.403900
C391	C39	0.558600	0.923800	0.321100
H321	H32	0.668100	0.928400	0.294800
C401	C40	0.393100	0.902500	0.276400
H331	H33	0.390000	0.892200	0.219300
C411	C41	0.239700	0.909500	0.393900
H341	H34	0.128300	0.904300	0.418600
C421	C42	0.401900	0.930500	0.441300
H351	H35	0.403700	0.939500	0.499000
C431	C43	0.840500	0.637800	0.196900
C441	C44	0.648900	0.663500	0.170600
C451	C45	0.636800	0.709100	0.191200
H361	H36	0.747800	0.724400	0.222800
C461	C46	0.461900	0.731900	0.165300
H371	H37	0.454700	0.763300	0.177600
C471	C47	0.311600	0.666000	0.103600
H381	H38	0.198600	0.651200	0.072400
C481	C48	0.479200	0.642400	0.127900
H391	H39	0.481200	0.610800	0.115700
C491	C49	0.096500	0.855600	0.028200
C501	C50	0.072300	0.878600	0.103700
C511	C51	0.075600	0.853800	0.178800
C521	C52	0.101500	0.806700	0.180800
C531	C53	0.110700	0.783900	0.103400
C541	C54	0.115200	0.807900	0.027000
C551	C55	0.099000	0.883500	0.948700
H401	H40	0.192000	0.908900	0.963800
H411	H41	0.145900	0.864400	0.905500
C561	C56	0.044800	0.929500	0.101800
H421	H42	0.068800	0.941200	0.160800
H431	H43	0.910700	0.936800	0.073000
H441	H44	0.136900	0.943400	0.070200
C571	C57	0.050400	0.877400	0.260100
H451	H45	0.994100	0.855800	0.296300
H461	H46	0.956000	0.902600	0.244800
C581	C58	0.118200	0.780900	0.264900
H471	H47	0.153600	0.749300	0.256400
H481	H48	0.992600	0.781800	0.283600
H491	H49	0.219300	0.794900	0.309000
C591	C59	0.105600	0.733000	0.101100
H501	H50	0.040100	0.723200	0.042700
H511	H51	0.025100	0.722200	0.142000
C601	C60	0.136100	0.783000	0.947500
H521	H52	0.199400	0.802700	0.911300
H531	H53	0.006500	0.774100	0.915500
H541	H54	0.216000	0.755800	0.963300
U31	U3	0.017400	0.536060	0.152050
O131	O13	0.198700	0.572400	0.284000
O141	O14	0.348800	0.516730	0.230900
O151	O15	0.747900	0.531670	0.033900
O161	O16	0.875900	0.528390	0.915300
O171	O17	0.828000	0.904410	0.681900
O181	O18	0.985900	0.840680	0.730700
N71	N7	0.902500	0.597990	0.409900
N81	N8	0.238500	0.603820	0.812000
N91	N9	0.302900	0.789650	0.623200
C611	C61	0.352200	0.550300	0.280800
C621	C62	0.544100	0.566200	0.330400
C631	C63	0.702000	0.537200	0.348400
H551	H55	0.687100	0.506000	0.333700
C641	C64	0.883600	0.554200	0.388600
H561	H56	0.993900	0.534700	0.400700
C651	C65	0.749100	0.626700	0.393600
H571	H57	0.767600	0.657800	0.408900
C661	C66	0.566700	0.611600	0.355100
H581	H58	0.457900	0.631600	0.345500
C671	C67	0.742100	0.538700	0.955000
C681	C68	0.563900	0.561700	0.903900
C691	C69	0.558600	0.576200	0.821100
H591	H59	0.668100	0.571600	0.794800
C701	C70	0.393100	0.597500	0.776400
H601	H60	0.390000	0.607800	0.719300
C711	C71	0.239700	0.590500	0.893900
H611	H61	0.128300	0.595700	0.918600
C721	C72	0.401900	0.569500	0.941300
H621	H62	0.403700	0.560500	0.999000
C731	C73	0.840500	0.862200	0.696900
C741	C74	0.648900	0.836500	0.670600
C751	C75	0.636800	0.790900	0.691200
H631	H63	0.747800	0.775600	0.722800
C761	C76	0.461900	0.768100	0.665300
H641	H64	0.454700	0.736700	0.677600
C771	C77	0.311600	0.834000	0.603600
H651	H65	0.198600	0.848800	0.572400
C781	C78	0.479200	0.857600	0.627900
H661	H66	0.481200	0.889200	0.615700
C791	C79	0.096500	0.644400	0.528200
C801	C80	0.072300	0.621400	0.603700
C811	C81	0.075600	0.646200	0.678800
C821	C82	0.101500	0.693300	0.680800
C831	C83	0.110700	0.716100	0.603400
C841	C84	0.115200	0.692100	0.527000
C851	C85	0.099000	0.616500	0.448700
H671	H67	0.192000	0.591100	0.463800
H681	H68	0.145900	0.635600	0.405500
C861	C86	0.044800	0.570500	0.601800
H691	H69	0.068800	0.558800	0.660800
H701	H70	0.910700	0.563200	0.573000
H711	H71	0.136900	0.556600	0.570200
C871	C87	0.050400	0.622600	0.760100
H721	H72	0.994100	0.644200	0.796300
H731	H73	0.956000	0.597400	0.744800
C881	C88	0.118200	0.719100	0.764900
H741	H74	0.153600	0.750700	0.756400
H751	H75	0.992600	0.718200	0.783600
H761	H76	0.219300	0.705100	0.809000
C891	C89	0.105600	0.767000	0.601100
H771	H77	0.040100	0.776800	0.542700
H781	H78	0.025100	0.777800	0.642000
C901	C90	0.136100	0.717000	0.447500
H791	H79	0.199400	0.697300	0.411300
H801	H80	0.006500	0.725900	0.415500
H811	H81	0.216000	0.744200	0.463300
U41	U4	0.982600	0.036060	0.347950
O191	O19	0.801300	0.072400	0.216000
O201	O20	0.651200	0.016730	0.269100
O211	O21	0.252100	0.031670	0.466100
O221	O22	0.124100	0.028390	0.584700
O231	O23	0.172000	0.404410	0.818100
O241	O24	0.014100	0.340680	0.769300
N101	N10	0.097500	0.097990	0.090100
N111	N11	0.761500	0.103820	0.688000
N121	N12	0.697100	0.289650	0.876800
C911	C91	0.647800	0.050300	0.219200
C921	C92	0.455900	0.066200	0.169600
C931	C93	0.298000	0.037200	0.151600
H821	H82	0.312900	0.006000	0.166300
C941	C94	0.116400	0.054200	0.111400
H831	H83	0.006100	0.034700	0.099300
C951	C95	0.250900	0.126700	0.106400
H841	H84	0.232400	0.157800	0.091100
C961	C96	0.433300	0.111600	0.144900
H851	H85	0.542100	0.131600	0.154500
C971	C97	0.257900	0.038700	0.545000
C981	C98	0.436100	0.061700	0.596100
C991	C99	0.441400	0.076200	0.678900
H861	H86	0.331900	0.071600	0.705200
C1001	C100	0.606900	0.097500	0.723600
H871	H87	0.610000	0.107800	0.780700
C1011	C101	0.760300	0.090500	0.606100
H881	H88	0.871700	0.095700	0.581400
C1021	C102	0.598100	0.069500	0.558700
H891	H89	0.596300	0.060500	0.501000
C1031	C103	0.159500	0.362200	0.803100
C1041	C104	0.351100	0.336500	0.829400
C1051	C105	0.363200	0.290900	0.808800
H901	H90	0.252200	0.275600	0.777200
C1061	C106	0.538100	0.268100	0.834700
H911	H91	0.545300	0.236700	0.822400
C1071	C107	0.688400	0.334000	0.896400
H921	H92	0.801400	0.348800	0.927600
C1081	C108	0.520800	0.357600	0.872100
H931	H93	0.518800	0.389200	0.884300
C1091	C109	0.903500	0.144400	0.971800
C1101	C110	0.927700	0.121400	0.896300
C1111	C111	0.924400	0.146200	0.821200
C1121	C112	0.898500	0.193300	0.819200
C1131	C113	0.889300	0.216100	0.896600
C1141	C114	0.884800	0.192100	0.973000
C1151	C115	0.901000	0.116500	0.051300
H941	H94	0.808000	0.091100	0.036200
H951	H95	0.854100	0.135600	0.094500
C1161	C116	0.955200	0.070500	0.898200
H961	H96	0.931200	0.058800	0.839200
H971	H97	0.089300	0.063200	0.927000
H981	H98	0.863100	0.056600	0.929800
C1171	C117	0.949600	0.122600	0.739900
H991	H99	0.005900	0.144200	0.703700
H1001	H100	0.044000	0.097400	0.755200
C1181	C118	0.881800	0.219100	0.735100
H1011	H101	0.846400	0.250700	0.743600
H1021	H102	0.007400	0.218200	0.716400
H1031	H103	0.780700	0.205100	0.691000
C1191	C119	0.894400	0.267000	0.898900
H1041	H104	0.959900	0.276800	0.957300
H1051	H105	0.974900	0.277800	0.858000
C1201	C120	0.863900	0.217000	0.052500
H1061	H106	0.800600	0.197300	0.088700
H1071	H107	0.993500	0.225900	0.084500
H1081	H108	0.784000	0.244200	0.036700
