data_KUZZAI_clean_PM
_symmetry_space_group_name_H-M	'P1'
_cell_length_a	15.528500
_cell_length_b	15.754200
_cell_length_c	15.869100
_cell_angle_alpha	107.604000
_cell_angle_beta	109.573000
_cell_angle_gamma	109.808000
_symmetry_Int_Tables_number 1

loop_
_symmetry_equiv_pos_as_xyz
'x,y,z'

loop_
_atom_site_label
_atom_site_type_symbol
_atom_site_fract_x
_atom_site_fract_y
_atom_site_fract_z
Zn11	Zn1	0.047690	0.305890	0.928910
Zn21	Zn2	0.406770	0.259390	0.883140
O11	O1	0.538100	0.324800	0.009300
C11	C1	0.311600	0.591800	0.302500
H11	H1	0.324100	0.641000	0.280600
O21	O2	0.924800	0.172100	0.859700
O31	O3	0.026000	0.129900	0.953300
O41	O4	0.191300	0.524300	0.094900
C21	C2	0.376100	0.617900	0.401300
H21	H2	0.431000	0.684500	0.444700
C31	C3	0.229000	0.494100	0.235900
N11	N1	0.994200	0.366400	0.837700
C41	C4	0.074600	0.795300	0.583100
H31	H3	0.011500	0.759200	0.522800
O51	O5	0.433900	0.229700	0.047800
C51	C5	0.212800	0.423700	0.272200
H41	H4	0.157100	0.357500	0.228800
C61	C6	0.862700	0.929500	0.862500
H51	H5	0.927300	0.945900	0.912100
C71	C7	0.275100	0.447900	0.368600
H61	H6	0.261300	0.398600	0.390100
N21	N2	0.457100	0.343200	0.815300
C81	C8	0.955000	0.498800	0.638400
C91	C9	0.700600	0.437800	0.213700
H71	H7	0.706600	0.467900	0.172300
C101	C10	0.133400	0.889500	0.611500
H81	H8	0.110700	0.920600	0.574400
C111	C11	0.779100	0.483500	0.310500
H91	H9	0.837700	0.545200	0.334200
N31	N3	0.936600	0.587900	0.511800
C121	C12	0.775100	0.441800	0.374600
N41	N4	0.234400	0.223100	0.982900
H101	H10	0.282500	0.206700	0.000900
H111	H11	0.185600	0.205900	0.998800
N51	N5	0.521000	0.669100	0.592200
C131	C13	0.779000	0.832500	0.814900
H121	H12	0.787500	0.784900	0.834900
O61	O6	0.092000	0.372900	0.071300
C141	C14	0.610300	0.345200	0.175900
C151	C15	0.360900	0.547100	0.436800
C161	C16	0.098700	0.743000	0.636300
C171	C17	0.486700	0.470600	0.726100
C181	C18	0.682900	0.803600	0.738400
C191	C19	0.584600	0.635600	0.730400
H131	H13	0.635700	0.659000	0.796000
N61	N6	0.205100	0.371600	0.866800
C201	C20	0.197700	0.793300	0.718500
H141	H14	0.220000	0.760200	0.753300
C211	C21	0.499000	0.538100	0.678000
N71	N7	0.285300	0.367700	0.862500
C221	C22	0.604300	0.303000	0.239700
H151	H15	0.544900	0.242100	0.216400
C231	C23	0.685100	0.349600	0.337700
H161	H16	0.679700	0.319700	0.379400
C241	C24	0.593800	0.698300	0.684700
C251	C25	0.753200	0.974200	0.759500
H171	H17	0.744000	0.021700	0.739700
C261	C26	0.966000	0.452100	0.707900
C271	C27	0.863900	0.494300	0.480600
C281	C28	0.536600	0.507900	0.829600
H181	H18	0.581800	0.577600	0.871900
C291	C29	0.672400	0.879400	0.713300
H191	H19	0.608000	0.863300	0.663600
C301	C30	0.235200	0.947500	0.701600
C311	C31	0.167200	0.462800	0.125000
C321	C32	0.869200	0.446300	0.542100
H201	H20	0.816500	0.380800	0.518800
C331	C33	0.850300	0.003600	0.835900
C341	C34	0.423700	0.365200	0.668700
H211	H21	0.390000	0.335500	0.598400
C351	C35	0.932600	0.349200	0.672200
H221	H22	0.899500	0.306200	0.603000
C361	C36	0.436700	0.574300	0.539900
C371	C37	0.519600	0.442200	0.870600
H231	H23	0.554000	0.469300	0.940700
N81	N8	0.305600	0.305300	0.901900
C381	C38	0.011900	0.508000	0.809900
H241	H24	0.034700	0.577800	0.837700
C391	C39	0.025700	0.465700	0.872500
H251	H25	0.058100	0.507300	0.942000
C401	C40	0.029200	0.595000	0.670100
H261	H26	0.086100	0.631800	0.735300
C411	C41	0.521500	0.296500	0.072000
C421	C42	0.424300	0.508100	0.580900
H271	H27	0.365800	0.443300	0.543500
C431	C43	0.941500	0.107900	0.887000
C441	C44	0.020700	0.639000	0.605700
N91	N9	0.170700	0.313600	0.909200
C451	C45	0.265200	0.897700	0.749000
H281	H28	0.332400	0.931900	0.803900
C461	C46	0.948500	0.310900	0.738900
H291	H29	0.925700	0.241200	0.713000
C471	C47	0.411100	0.305700	0.714300
H301	H30	0.368500	0.235400	0.673800
C481	C48	0.235200	0.275200	0.930200
O71	O7	0.378600	0.105300	0.817100
C491	C49	0.291400	0.051200	0.732900
O81	O8	0.260300	0.098900	0.687300
Zn31	Zn3	0.952310	0.694110	0.071090
Zn41	Zn4	0.593230	0.740610	0.116860
O91	O9	0.461900	0.675200	0.990700
C501	C50	0.688400	0.408200	0.697500
H311	H31	0.675900	0.359000	0.719400
O101	O10	0.075200	0.827900	0.140300
O111	O11	0.974000	0.870100	0.046700
O121	O12	0.808700	0.475700	0.905100
C511	C51	0.623900	0.382100	0.598700
H321	H32	0.569000	0.315500	0.555300
C521	C52	0.771000	0.505900	0.764100
N101	N10	0.005800	0.633600	0.162300
C531	C53	0.925400	0.204700	0.416900
H331	H33	0.988500	0.240800	0.477200
O131	O13	0.566100	0.770300	0.952200
C541	C54	0.787200	0.576300	0.727800
H341	H34	0.842900	0.642500	0.771200
C551	C55	0.137300	0.070500	0.137500
H351	H35	0.072700	0.054100	0.087900
C561	C56	0.724900	0.552100	0.631400
H361	H36	0.738700	0.601400	0.609900
N111	N11	0.542900	0.656800	0.184700
C571	C57	0.045000	0.501200	0.361600
C581	C58	0.299400	0.562200	0.786300
H371	H37	0.293400	0.532100	0.827700
C591	C59	0.866600	0.110500	0.388500
H381	H38	0.889300	0.079400	0.425600
C601	C60	0.220900	0.516500	0.689500
H391	H39	0.162300	0.454800	0.665800
N121	N12	0.063400	0.412100	0.488200
C611	C61	0.224900	0.558200	0.625400
N131	N13	0.765600	0.776900	0.017100
H401	H40	0.717500	0.793300	0.999100
H411	H41	0.814400	0.794100	0.001200
N141	N14	0.479000	0.330900	0.407800
C621	C62	0.221000	0.167500	0.185100
H421	H42	0.212500	0.215100	0.165100
O141	O14	0.908000	0.627100	0.928700
C631	C63	0.389700	0.654800	0.824100
C641	C64	0.639100	0.452900	0.563200
C651	C65	0.901300	0.257000	0.363700
C661	C66	0.513300	0.529400	0.273900
C671	C67	0.317100	0.196400	0.261600
C681	C68	0.415400	0.364400	0.269600
H431	H43	0.364300	0.341000	0.204000
N151	N15	0.794900	0.628400	0.133200
C691	C69	0.802300	0.206700	0.281500
H441	H44	0.780000	0.239800	0.246700
C701	C70	0.501000	0.461900	0.322000
N161	N16	0.714700	0.632300	0.137500
C711	C71	0.395700	0.697000	0.760300
H451	H45	0.455100	0.757900	0.783600
C721	C72	0.314900	0.650400	0.662300
H461	H46	0.320300	0.680300	0.620600
C731	C73	0.406200	0.301700	0.315300
C741	C74	0.246800	0.025800	0.240500
H471	H47	0.256000	0.978300	0.260300
C751	C75	0.034000	0.547900	0.292100
C761	C76	0.136100	0.505700	0.519400
C771	C77	0.463400	0.492100	0.170400
H481	H48	0.418200	0.422400	0.128100
C781	C78	0.327600	0.120600	0.286700
H491	H49	0.392000	0.136700	0.336400
C791	C79	0.764800	0.052500	0.298400
C801	C80	0.832800	0.537200	0.875000
C811	C81	0.130800	0.553700	0.457900
H501	H50	0.183500	0.619200	0.481200
C821	C82	0.149700	0.996400	0.164100
C831	C83	0.576300	0.634800	0.331300
H511	H51	0.610000	0.664500	0.401600
C841	C84	0.067400	0.650800	0.327800
H521	H52	0.100500	0.693800	0.397000
C851	C85	0.563300	0.425700	0.460100
C861	C86	0.480400	0.557800	0.129400
H531	H53	0.446000	0.530700	0.059300
N171	N17	0.694400	0.694700	0.098100
C871	C87	0.988100	0.492000	0.190100
H541	H54	0.965300	0.422200	0.162300
C881	C88	0.974300	0.534300	0.127500
H551	H55	0.941900	0.492700	0.058000
C891	C89	0.970800	0.405000	0.329900
H561	H56	0.913900	0.368200	0.264700
C901	C90	0.478500	0.703500	0.928000
C911	C91	0.575700	0.491900	0.419100
H571	H57	0.634200	0.556700	0.456500
C921	C92	0.058500	0.892100	0.113000
C931	C93	0.979300	0.361000	0.394300
N181	N18	0.829300	0.686400	0.090800
C941	C94	0.734800	0.102300	0.251000
H581	H58	0.667600	0.068100	0.196100
C951	C95	0.051500	0.689100	0.261100
H591	H59	0.074300	0.758800	0.287000
C961	C96	0.588900	0.694300	0.285700
H601	H60	0.631500	0.764600	0.326200
C971	C97	0.764800	0.724800	0.069800
O151	O15	0.621400	0.894700	0.182900
C981	C98	0.708600	0.948800	0.267100
O161	O16	0.739700	0.901100	0.312700
