data_LABNIO_clean_PM
_symmetry_space_group_name_H-M	'P1'
_cell_length_a	34.141400
_cell_length_b	14.564100
_cell_length_c	34.959700
_cell_angle_alpha	90.000000
_cell_angle_beta	108.633000
_cell_angle_gamma	90.000000
_symmetry_Int_Tables_number 1

loop_
_symmetry_equiv_pos_as_xyz
'x,y,z'

loop_
_atom_site_label
_atom_site_type_symbol
_atom_site_fract_x
_atom_site_fract_y
_atom_site_fract_z
Zn11	Zn1	0.113010	0.073830	0.054830
Zn21	Zn2	0.349600	0.112680	0.425560
Zn31	Zn3	0.337890	0.346110	0.237540
I11	I1	0.096200	0.228800	0.080150
I21	I2	0.124000	0.052690	0.987220
I31	I3	0.275860	0.146050	0.423620
I41	I4	0.403310	0.237220	0.438390
I51	I5	0.381480	0.316630	0.310100
I61	I6	0.273410	0.247530	0.207640
N11	N1	0.161900	0.017100	0.099800
C11	C1	0.179500	0.062800	0.134700
H11	H1	0.170600	0.123600	0.137500
C21	C2	0.210300	0.022900	0.166500
H21	H2	0.222600	0.056600	0.190600
C31	C3	0.222800	0.934700	0.163100
C41	C4	0.204500	0.887200	0.127300
H31	H3	0.212400	0.825900	0.124000
C51	C5	0.174300	0.931800	0.096600
H41	H4	0.161900	0.899800	0.072000
N21	N2	0.342500	0.044400	0.372100
C61	C6	0.343000	0.953400	0.370800
H51	H5	0.352300	0.920400	0.395500
C71	C7	0.330600	0.904500	0.335000
H61	H6	0.332600	0.839500	0.335000
C81	C8	0.315400	0.952700	0.299200
C91	C9	0.315200	0.047700	0.300400
H71	H7	0.305800	0.082000	0.276100
C101	C10	0.328800	0.092700	0.337400
H81	H8	0.328500	0.157900	0.338200
N31	N3	0.323500	0.483000	0.231000
C111	C11	0.341900	0.540300	0.261700
H91	H9	0.361900	0.515900	0.285000
C121	C12	0.332800	0.633100	0.260900
H101	H10	0.346500	0.671500	0.283100
C131	C13	0.303100	0.669300	0.226900
C141	C14	0.284500	0.610300	0.194600
H111	H11	0.264700	0.633000	0.170700
C151	C15	0.295300	0.519300	0.198000
H121	H12	0.282300	0.479700	0.176100
C161	C16	0.254200	0.890700	0.197500
N41	N4	0.270400	0.942600	0.230300
C171	C17	0.298700	0.899100	0.260800
N51	N5	0.310900	0.814000	0.260400
C181	C18	0.291500	0.767500	0.226600
N61	N6	0.263200	0.801600	0.194200
N71	N7	0.375300	0.013100	0.467700
C191	C19	0.354600	0.976400	0.491200
H131	H13	0.327500	0.997900	0.488000
C201	C20	0.370800	0.910300	0.519000
H141	H14	0.355600	0.887700	0.535400
C211	C21	0.410200	0.875500	0.523300
C221	C22	0.430600	0.909400	0.498600
H151	H15	0.456900	0.886100	0.499900
C231	C23	0.412100	0.978300	0.471600
H161	H16	0.426800	0.002100	0.454900
N81	N8	0.371500	0.671700	0.698200
C241	C24	0.386800	0.601100	0.683000
H171	H17	0.384200	0.540700	0.692000
C251	C25	0.406300	0.614400	0.654100
H181	H18	0.418200	0.563800	0.644600
C261	C26	0.408500	0.702300	0.639400
C271	C27	0.392900	0.773900	0.655600
H191	H19	0.395200	0.835000	0.647000
C281	C28	0.373800	0.757400	0.684500
H201	H20	0.362100	0.807200	0.694800
N91	N9	0.565900	0.510600	0.558900
C291	C29	0.558600	0.518000	0.594800
H211	H21	0.575700	0.484400	0.617300
C301	C30	0.528300	0.571100	0.600200
H221	H22	0.524200	0.574100	0.625800
C311	C31	0.503100	0.621200	0.567800
C321	C32	0.509900	0.614800	0.531200
H231	H23	0.493100	0.647600	0.508400
C331	C33	0.541700	0.559700	0.528400
H241	H24	0.546700	0.556600	0.503200
C341	C34	0.426300	0.801600	0.552400
N101	N10	0.410600	0.789100	0.582500
C351	C35	0.427100	0.718400	0.606900
N111	N11	0.455600	0.663000	0.603900
C361	C36	0.469900	0.680400	0.573300
N121	N12	0.456700	0.750500	0.546800
Zn41	Zn4	0.613010	0.573830	0.054830
Zn51	Zn5	0.849600	0.612680	0.425560
Zn61	Zn6	0.837890	0.846110	0.237540
I71	I7	0.596200	0.728800	0.080150
I81	I8	0.624000	0.552690	0.987220
I91	I9	0.775860	0.646050	0.423620
I101	I10	0.903310	0.737220	0.438390
I111	I11	0.881480	0.816630	0.310100
I121	I12	0.773410	0.747530	0.207640
N131	N13	0.661900	0.517100	0.099800
C371	C37	0.679500	0.562800	0.134700
H251	H25	0.670600	0.623600	0.137500
C381	C38	0.710300	0.522900	0.166500
H261	H26	0.722600	0.556600	0.190600
C391	C39	0.722800	0.434700	0.163100
C401	C40	0.704500	0.387200	0.127300
H271	H27	0.712400	0.325900	0.124000
C411	C41	0.674300	0.431800	0.096600
H281	H28	0.661900	0.399800	0.072000
N141	N14	0.842500	0.544400	0.372100
C421	C42	0.843000	0.453400	0.370800
H291	H29	0.852300	0.420400	0.395500
C431	C43	0.830600	0.404500	0.335000
H301	H30	0.832600	0.339500	0.335000
C441	C44	0.815400	0.452700	0.299200
C451	C45	0.815200	0.547700	0.300400
H311	H31	0.805800	0.582000	0.276100
C461	C46	0.828800	0.592700	0.337400
H321	H32	0.828500	0.657900	0.338200
N151	N15	0.823500	0.983000	0.231000
C471	C47	0.841900	0.040300	0.261700
H331	H33	0.861900	0.015900	0.285000
C481	C48	0.832800	0.133100	0.260900
H341	H34	0.846500	0.171500	0.283100
C491	C49	0.803100	0.169300	0.226900
C501	C50	0.784500	0.110300	0.194600
H351	H35	0.764700	0.133000	0.170700
C511	C51	0.795300	0.019300	0.198000
H361	H36	0.782300	0.979700	0.176100
C521	C52	0.754200	0.390700	0.197500
N161	N16	0.770400	0.442600	0.230300
C531	C53	0.798700	0.399100	0.260800
N171	N17	0.810900	0.314000	0.260400
C541	C54	0.791500	0.267500	0.226600
N181	N18	0.763200	0.301600	0.194200
N191	N19	0.875300	0.513100	0.467700
C551	C55	0.854600	0.476400	0.491200
H371	H37	0.827500	0.497900	0.488000
C561	C56	0.870800	0.410300	0.519000
H381	H38	0.855600	0.387700	0.535400
C571	C57	0.910200	0.375500	0.523300
C581	C58	0.930600	0.409400	0.498600
H391	H39	0.956900	0.386100	0.499900
C591	C59	0.912100	0.478300	0.471600
H401	H40	0.926800	0.502100	0.454900
N201	N20	0.871500	0.171700	0.698200
C601	C60	0.886800	0.101100	0.683000
H411	H41	0.884200	0.040700	0.692000
C611	C61	0.906300	0.114400	0.654100
H421	H42	0.918200	0.063800	0.644600
C621	C62	0.908500	0.202300	0.639400
C631	C63	0.892900	0.273900	0.655600
H431	H43	0.895200	0.335000	0.647000
C641	C64	0.873800	0.257400	0.684500
H441	H44	0.862100	0.307200	0.694800
N211	N21	0.065900	0.010600	0.558900
C651	C65	0.058600	0.018000	0.594800
H451	H45	0.075700	0.984400	0.617300
C661	C66	0.028300	0.071100	0.600200
H461	H46	0.024200	0.074100	0.625800
C671	C67	0.003100	0.121200	0.567800
C681	C68	0.009900	0.114800	0.531200
H471	H47	0.993100	0.147600	0.508400
C691	C69	0.041700	0.059700	0.528400
H481	H48	0.046700	0.056600	0.503200
C701	C70	0.926300	0.301600	0.552400
N221	N22	0.910600	0.289100	0.582500
C711	C71	0.927100	0.218400	0.606900
N231	N23	0.955600	0.163000	0.603900
C721	C72	0.969900	0.180400	0.573300
N241	N24	0.956700	0.250500	0.546800
Zn71	Zn7	0.113010	0.926170	0.554830
Zn81	Zn8	0.349600	0.887320	0.925560
Zn91	Zn9	0.337890	0.653890	0.737540
I131	I13	0.096200	0.771200	0.580150
I141	I14	0.124000	0.947310	0.487220
I151	I15	0.275860	0.853950	0.923620
I161	I16	0.403310	0.762780	0.938390
I171	I17	0.381480	0.683370	0.810100
I181	I18	0.273410	0.752470	0.707640
N251	N25	0.161900	0.982900	0.599800
C731	C73	0.179500	0.937200	0.634700
H491	H49	0.170600	0.876400	0.637500
C741	C74	0.210300	0.977100	0.666500
H501	H50	0.222600	0.943400	0.690600
C751	C75	0.222800	0.065300	0.663100
C761	C76	0.204500	0.112800	0.627300
H511	H51	0.212400	0.174100	0.624000
C771	C77	0.174300	0.068200	0.596600
H521	H52	0.161900	0.100200	0.572000
N261	N26	0.342500	0.955600	0.872100
C781	C78	0.343000	0.046600	0.870800
H531	H53	0.352300	0.079600	0.895500
C791	C79	0.330600	0.095500	0.835000
H541	H54	0.332600	0.160500	0.835000
C801	C80	0.315400	0.047300	0.799200
C811	C81	0.315200	0.952300	0.800400
H551	H55	0.305800	0.918000	0.776100
C821	C82	0.328800	0.907300	0.837400
H561	H56	0.328500	0.842100	0.838200
N271	N27	0.323500	0.517000	0.731000
C831	C83	0.341900	0.459700	0.761700
H571	H57	0.361900	0.484100	0.785000
C841	C84	0.332800	0.366900	0.760900
H581	H58	0.346500	0.328500	0.783100
C851	C85	0.303100	0.330700	0.726900
C861	C86	0.284500	0.389700	0.694600
H591	H59	0.264700	0.367000	0.670700
C871	C87	0.295300	0.480700	0.698000
H601	H60	0.282300	0.520300	0.676100
C881	C88	0.254200	0.109300	0.697500
N281	N28	0.270400	0.057400	0.730300
C891	C89	0.298700	0.100900	0.760800
N291	N29	0.310900	0.186000	0.760400
C901	C90	0.291500	0.232500	0.726600
N301	N30	0.263200	0.198400	0.694200
N311	N31	0.375300	0.986900	0.967700
C911	C91	0.354600	0.023600	0.991200
H611	H61	0.327500	0.002100	0.988000
C921	C92	0.370800	0.089700	0.019000
H621	H62	0.355600	0.112300	0.035400
C931	C93	0.410200	0.124500	0.023300
C941	C94	0.430600	0.090600	0.998600
H631	H63	0.456900	0.113900	0.999900
C951	C95	0.412100	0.021700	0.971600
H641	H64	0.426800	0.997900	0.954900
N321	N32	0.371500	0.328300	0.198200
C961	C96	0.386800	0.398900	0.183000
H651	H65	0.384200	0.459300	0.192000
C971	C97	0.406300	0.385600	0.154100
H661	H66	0.418200	0.436200	0.144600
C981	C98	0.408500	0.297700	0.139400
C991	C99	0.392900	0.226100	0.155600
H671	H67	0.395200	0.165000	0.147000
C1001	C100	0.373800	0.242600	0.184500
H681	H68	0.362100	0.192800	0.194800
N331	N33	0.565900	0.489400	0.058900
C1011	C101	0.558600	0.482000	0.094800
H691	H69	0.575700	0.515600	0.117300
C1021	C102	0.528300	0.428900	0.100200
H701	H70	0.524200	0.425900	0.125800
C1031	C103	0.503100	0.378800	0.067800
C1041	C104	0.509900	0.385200	0.031200
H711	H71	0.493100	0.352400	0.008400
C1051	C105	0.541700	0.440300	0.028400
H721	H72	0.546700	0.443400	0.003200
C1061	C106	0.426300	0.198400	0.052400
N341	N34	0.410600	0.210900	0.082500
C1071	C107	0.427100	0.281600	0.106900
N351	N35	0.455600	0.337000	0.103900
C1081	C108	0.469900	0.319600	0.073300
N361	N36	0.456700	0.249500	0.046800
Zn101	Zn10	0.613010	0.426170	0.554830
Zn111	Zn11	0.849600	0.387320	0.925560
Zn121	Zn12	0.837890	0.153890	0.737540
I191	I19	0.596200	0.271200	0.580150
I201	I20	0.624000	0.447310	0.487220
I211	I21	0.775860	0.353950	0.923620
I221	I22	0.903310	0.262780	0.938390
I231	I23	0.881480	0.183370	0.810100
I241	I24	0.773410	0.252470	0.707640
N371	N37	0.661900	0.482900	0.599800
C1091	C109	0.679500	0.437200	0.634700
H731	H73	0.670600	0.376400	0.637500
C1101	C110	0.710300	0.477100	0.666500
H741	H74	0.722600	0.443400	0.690600
C1111	C111	0.722800	0.565300	0.663100
C1121	C112	0.704500	0.612800	0.627300
H751	H75	0.712400	0.674100	0.624000
C1131	C113	0.674300	0.568200	0.596600
H761	H76	0.661900	0.600200	0.572000
N381	N38	0.842500	0.455600	0.872100
C1141	C114	0.843000	0.546600	0.870800
H771	H77	0.852300	0.579600	0.895500
C1151	C115	0.830600	0.595500	0.835000
H781	H78	0.832600	0.660500	0.835000
C1161	C116	0.815400	0.547300	0.799200
C1171	C117	0.815200	0.452300	0.800400
H791	H79	0.805800	0.418000	0.776100
C1181	C118	0.828800	0.407300	0.837400
H801	H80	0.828500	0.342100	0.838200
N391	N39	0.823500	0.017000	0.731000
C1191	C119	0.841900	0.959700	0.761700
H811	H81	0.861900	0.984100	0.785000
C1201	C120	0.832800	0.866900	0.760900
H821	H82	0.846500	0.828500	0.783100
C1211	C121	0.803100	0.830700	0.726900
C1221	C122	0.784500	0.889700	0.694600
H831	H83	0.764700	0.867000	0.670700
C1231	C123	0.795300	0.980700	0.698000
H841	H84	0.782300	0.020300	0.676100
C1241	C124	0.754200	0.609300	0.697500
N401	N40	0.770400	0.557400	0.730300
C1251	C125	0.798700	0.600900	0.760800
N411	N41	0.810900	0.686000	0.760400
C1261	C126	0.791500	0.732500	0.726600
N421	N42	0.763200	0.698400	0.694200
N431	N43	0.875300	0.486900	0.967700
C1271	C127	0.854600	0.523600	0.991200
H851	H85	0.827500	0.502100	0.988000
C1281	C128	0.870800	0.589700	0.019000
H861	H86	0.855600	0.612300	0.035400
C1291	C129	0.910200	0.624500	0.023300
C1301	C130	0.930600	0.590600	0.998600
H871	H87	0.956900	0.613900	0.999900
C1311	C131	0.912100	0.521700	0.971600
H881	H88	0.926800	0.497900	0.954900
N441	N44	0.871500	0.828300	0.198200
C1321	C132	0.886800	0.898900	0.183000
H891	H89	0.884200	0.959300	0.192000
C1331	C133	0.906300	0.885600	0.154100
H901	H90	0.918200	0.936200	0.144600
C1341	C134	0.908500	0.797700	0.139400
C1351	C135	0.892900	0.726100	0.155600
H911	H91	0.895200	0.665000	0.147000
C1361	C136	0.873800	0.742600	0.184500
H921	H92	0.862100	0.692800	0.194800
N451	N45	0.065900	0.989400	0.058900
C1371	C137	0.058600	0.982000	0.094800
H931	H93	0.075700	0.015600	0.117300
C1381	C138	0.028300	0.928900	0.100200
H941	H94	0.024200	0.925900	0.125800
C1391	C139	0.003100	0.878800	0.067800
C1401	C140	0.009900	0.885200	0.031200
H951	H95	0.993100	0.852400	0.008400
C1411	C141	0.041700	0.940300	0.028400
H961	H96	0.046700	0.943400	0.003200
C1421	C142	0.926300	0.698400	0.052400
N461	N46	0.910600	0.710900	0.082500
C1431	C143	0.927100	0.781600	0.106900
N471	N47	0.955600	0.837000	0.103900
C1441	C144	0.969900	0.819600	0.073300
N481	N48	0.956700	0.749500	0.046800
Zn131	Zn13	0.886990	0.073830	0.445170
Zn141	Zn14	0.650400	0.112680	0.074440
Zn151	Zn15	0.662110	0.346110	0.262460
I251	I25	0.903800	0.228800	0.419850
I261	I26	0.876000	0.052690	0.512780
I271	I27	0.724140	0.146050	0.076380
I281	I28	0.596690	0.237220	0.061610
I291	I29	0.618520	0.316630	0.189900
I301	I30	0.726590	0.247530	0.292360
N491	N49	0.838100	0.017100	0.400200
C1451	C145	0.820500	0.062800	0.365300
H971	H97	0.829400	0.123600	0.362500
C1461	C146	0.789700	0.022900	0.333500
H981	H98	0.777400	0.056600	0.309400
C1471	C147	0.777200	0.934700	0.336900
C1481	C148	0.795500	0.887200	0.372700
H991	H99	0.787600	0.825900	0.376000
C1491	C149	0.825700	0.931800	0.403400
H1001	H100	0.838100	0.899800	0.428000
N501	N50	0.657500	0.044400	0.127900
C1501	C150	0.657000	0.953400	0.129200
H1011	H101	0.647700	0.920400	0.104500
C1511	C151	0.669400	0.904500	0.165000
H1021	H102	0.667400	0.839500	0.165000
C1521	C152	0.684600	0.952700	0.200800
C1531	C153	0.684800	0.047700	0.199600
H1031	H103	0.694200	0.082000	0.223900
C1541	C154	0.671200	0.092700	0.162600
H1041	H104	0.671500	0.157900	0.161800
N511	N51	0.676500	0.483000	0.269000
C1551	C155	0.658100	0.540300	0.238300
H1051	H105	0.638100	0.515900	0.215000
C1561	C156	0.667200	0.633100	0.239100
H1061	H106	0.653500	0.671500	0.216900
C1571	C157	0.696900	0.669300	0.273100
C1581	C158	0.715500	0.610300	0.305400
H1071	H107	0.735300	0.633000	0.329300
C1591	C159	0.704700	0.519300	0.302000
H1081	H108	0.717700	0.479700	0.323900
C1601	C160	0.745800	0.890700	0.302500
N521	N52	0.729600	0.942600	0.269700
C1611	C161	0.701300	0.899100	0.239200
N531	N53	0.689100	0.814000	0.239600
C1621	C162	0.708500	0.767500	0.273400
N541	N54	0.736800	0.801600	0.305800
N551	N55	0.624700	0.013100	0.032300
C1631	C163	0.645400	0.976400	0.008800
H1091	H109	0.672500	0.997900	0.012000
C1641	C164	0.629200	0.910300	0.981000
H1101	H110	0.644400	0.887700	0.964600
C1651	C165	0.589800	0.875500	0.976700
C1661	C166	0.569400	0.909400	0.001400
H1111	H111	0.543100	0.886100	0.000100
C1671	C167	0.587900	0.978300	0.028400
H1121	H112	0.573200	0.002100	0.045100
N561	N56	0.628500	0.671700	0.801800
C1681	C168	0.613200	0.601100	0.817000
H1131	H113	0.615800	0.540700	0.808000
C1691	C169	0.593700	0.614400	0.845900
H1141	H114	0.581800	0.563800	0.855400
C1701	C170	0.591500	0.702300	0.860600
C1711	C171	0.607100	0.773900	0.844400
H1151	H115	0.604800	0.835000	0.853000
C1721	C172	0.626200	0.757400	0.815500
H1161	H116	0.637900	0.807200	0.805200
N571	N57	0.434100	0.510600	0.941100
C1731	C173	0.441400	0.518000	0.905200
H1171	H117	0.424300	0.484400	0.882700
C1741	C174	0.471700	0.571100	0.899800
H1181	H118	0.475800	0.574100	0.874200
C1751	C175	0.496900	0.621200	0.932200
C1761	C176	0.490100	0.614800	0.968800
H1191	H119	0.506900	0.647600	0.991600
C1771	C177	0.458300	0.559700	0.971600
H1201	H120	0.453300	0.556600	0.996800
C1781	C178	0.573700	0.801600	0.947600
N581	N58	0.589400	0.789100	0.917500
C1791	C179	0.572900	0.718400	0.893100
N591	N59	0.544400	0.663000	0.896100
C1801	C180	0.530100	0.680400	0.926700
N601	N60	0.543300	0.750500	0.953200
Zn161	Zn16	0.386990	0.573830	0.445170
Zn171	Zn17	0.150400	0.612680	0.074440
Zn181	Zn18	0.162110	0.846110	0.262460
I311	I31	0.403800	0.728800	0.419850
I321	I32	0.376000	0.552690	0.512780
I331	I33	0.224140	0.646050	0.076380
I341	I34	0.096690	0.737220	0.061610
I351	I35	0.118520	0.816630	0.189900
I361	I36	0.226590	0.747530	0.292360
N611	N61	0.338100	0.517100	0.400200
C1811	C181	0.320500	0.562800	0.365300
H1211	H121	0.329400	0.623600	0.362500
C1821	C182	0.289700	0.522900	0.333500
H1221	H122	0.277400	0.556600	0.309400
C1831	C183	0.277200	0.434700	0.336900
C1841	C184	0.295500	0.387200	0.372700
H1231	H123	0.287600	0.325900	0.376000
C1851	C185	0.325700	0.431800	0.403400
H1241	H124	0.338100	0.399800	0.428000
N621	N62	0.157500	0.544400	0.127900
C1861	C186	0.157000	0.453400	0.129200
H1251	H125	0.147700	0.420400	0.104500
C1871	C187	0.169400	0.404500	0.165000
H1261	H126	0.167400	0.339500	0.165000
C1881	C188	0.184600	0.452700	0.200800
C1891	C189	0.184800	0.547700	0.199600
H1271	H127	0.194200	0.582000	0.223900
C1901	C190	0.171200	0.592700	0.162600
H1281	H128	0.171500	0.657900	0.161800
N631	N63	0.176500	0.983000	0.269000
C1911	C191	0.158100	0.040300	0.238300
H1291	H129	0.138100	0.015900	0.215000
C1921	C192	0.167200	0.133100	0.239100
H1301	H130	0.153500	0.171500	0.216900
C1931	C193	0.196900	0.169300	0.273100
C1941	C194	0.215500	0.110300	0.305400
H1311	H131	0.235300	0.133000	0.329300
C1951	C195	0.204700	0.019300	0.302000
H1321	H132	0.217700	0.979700	0.323900
C1961	C196	0.245800	0.390700	0.302500
N641	N64	0.229600	0.442600	0.269700
C1971	C197	0.201300	0.399100	0.239200
N651	N65	0.189100	0.314000	0.239600
C1981	C198	0.208500	0.267500	0.273400
N661	N66	0.236800	0.301600	0.305800
N671	N67	0.124700	0.513100	0.032300
C1991	C199	0.145400	0.476400	0.008800
H1331	H133	0.172500	0.497900	0.012000
C2001	C200	0.129200	0.410300	0.981000
H1341	H134	0.144400	0.387700	0.964600
C2011	C201	0.089800	0.375500	0.976700
C2021	C202	0.069400	0.409400	0.001400
H1351	H135	0.043100	0.386100	0.000100
C2031	C203	0.087900	0.478300	0.028400
H1361	H136	0.073200	0.502100	0.045100
N681	N68	0.128500	0.171700	0.801800
C2041	C204	0.113200	0.101100	0.817000
H1371	H137	0.115800	0.040700	0.808000
C2051	C205	0.093700	0.114400	0.845900
H1381	H138	0.081800	0.063800	0.855400
C2061	C206	0.091500	0.202300	0.860600
C2071	C207	0.107100	0.273900	0.844400
H1391	H139	0.104800	0.335000	0.853000
C2081	C208	0.126200	0.257400	0.815500
H1401	H140	0.137900	0.307200	0.805200
N691	N69	0.934100	0.010600	0.941100
C2091	C209	0.941400	0.018000	0.905200
H1411	H141	0.924300	0.984400	0.882700
C2101	C210	0.971700	0.071100	0.899800
H1421	H142	0.975800	0.074100	0.874200
C2111	C211	0.996900	0.121200	0.932200
C2121	C212	0.990100	0.114800	0.968800
H1431	H143	0.006900	0.147600	0.991600
C2131	C213	0.958300	0.059700	0.971600
H1441	H144	0.953300	0.056600	0.996800
C2141	C214	0.073700	0.301600	0.947600
N701	N70	0.089400	0.289100	0.917500
C2151	C215	0.072900	0.218400	0.893100
N711	N71	0.044400	0.163000	0.896100
C2161	C216	0.030100	0.180400	0.926700
N721	N72	0.043300	0.250500	0.953200
Zn191	Zn19	0.886990	0.926170	0.945170
Zn201	Zn20	0.650400	0.887320	0.574440
Zn211	Zn21	0.662110	0.653890	0.762460
I371	I37	0.903800	0.771200	0.919850
I381	I38	0.876000	0.947310	0.012780
I391	I39	0.724140	0.853950	0.576380
I401	I40	0.596690	0.762780	0.561610
I411	I41	0.618520	0.683370	0.689900
I421	I42	0.726590	0.752470	0.792360
N731	N73	0.838100	0.982900	0.900200
C2171	C217	0.820500	0.937200	0.865300
H1451	H145	0.829400	0.876400	0.862500
C2181	C218	0.789700	0.977100	0.833500
H1461	H146	0.777400	0.943400	0.809400
C2191	C219	0.777200	0.065300	0.836900
C2201	C220	0.795500	0.112800	0.872700
H1471	H147	0.787600	0.174100	0.876000
C2211	C221	0.825700	0.068200	0.903400
H1481	H148	0.838100	0.100200	0.928000
N741	N74	0.657500	0.955600	0.627900
C2221	C222	0.657000	0.046600	0.629200
H1491	H149	0.647700	0.079600	0.604500
C2231	C223	0.669400	0.095500	0.665000
H1501	H150	0.667400	0.160500	0.665000
C2241	C224	0.684600	0.047300	0.700800
C2251	C225	0.684800	0.952300	0.699600
H1511	H151	0.694200	0.918000	0.723900
C2261	C226	0.671200	0.907300	0.662600
H1521	H152	0.671500	0.842100	0.661800
N751	N75	0.676500	0.517000	0.769000
C2271	C227	0.658100	0.459700	0.738300
H1531	H153	0.638100	0.484100	0.715000
C2281	C228	0.667200	0.366900	0.739100
H1541	H154	0.653500	0.328500	0.716900
C2291	C229	0.696900	0.330700	0.773100
C2301	C230	0.715500	0.389700	0.805400
H1551	H155	0.735300	0.367000	0.829300
C2311	C231	0.704700	0.480700	0.802000
H1561	H156	0.717700	0.520300	0.823900
C2321	C232	0.745800	0.109300	0.802500
N761	N76	0.729600	0.057400	0.769700
C2331	C233	0.701300	0.100900	0.739200
N771	N77	0.689100	0.186000	0.739600
C2341	C234	0.708500	0.232500	0.773400
N781	N78	0.736800	0.198400	0.805800
N791	N79	0.624700	0.986900	0.532300
C2351	C235	0.645400	0.023600	0.508800
H1571	H157	0.672500	0.002100	0.512000
C2361	C236	0.629200	0.089700	0.481000
H1581	H158	0.644400	0.112300	0.464600
C2371	C237	0.589800	0.124500	0.476700
C2381	C238	0.569400	0.090600	0.501400
H1591	H159	0.543100	0.113900	0.500100
C2391	C239	0.587900	0.021700	0.528400
H1601	H160	0.573200	0.997900	0.545100
N801	N80	0.628500	0.328300	0.301800
C2401	C240	0.613200	0.398900	0.317000
H1611	H161	0.615800	0.459300	0.308000
C2411	C241	0.593700	0.385600	0.345900
H1621	H162	0.581800	0.436200	0.355400
C2421	C242	0.591500	0.297700	0.360600
C2431	C243	0.607100	0.226100	0.344400
H1631	H163	0.604800	0.165000	0.353000
C2441	C244	0.626200	0.242600	0.315500
H1641	H164	0.637900	0.192800	0.305200
N811	N81	0.434100	0.489400	0.441100
C2451	C245	0.441400	0.482000	0.405200
H1651	H165	0.424300	0.515600	0.382700
C2461	C246	0.471700	0.428900	0.399800
H1661	H166	0.475800	0.425900	0.374200
C2471	C247	0.496900	0.378800	0.432200
C2481	C248	0.490100	0.385200	0.468800
H1671	H167	0.506900	0.352400	0.491600
C2491	C249	0.458300	0.440300	0.471600
H1681	H168	0.453300	0.443400	0.496800
C2501	C250	0.573700	0.198400	0.447600
N821	N82	0.589400	0.210900	0.417500
C2511	C251	0.572900	0.281600	0.393100
N831	N83	0.544400	0.337000	0.396100
C2521	C252	0.530100	0.319600	0.426700
N841	N84	0.543300	0.249500	0.453200
Zn221	Zn22	0.386990	0.426170	0.945170
Zn231	Zn23	0.150400	0.387320	0.574440
Zn241	Zn24	0.162110	0.153890	0.762460
I431	I43	0.403800	0.271200	0.919850
I441	I44	0.376000	0.447310	0.012780
I451	I45	0.224140	0.353950	0.576380
I461	I46	0.096690	0.262780	0.561610
I471	I47	0.118520	0.183370	0.689900
I481	I48	0.226590	0.252470	0.792360
N851	N85	0.338100	0.482900	0.900200
C2531	C253	0.320500	0.437200	0.865300
H1691	H169	0.329400	0.376400	0.862500
C2541	C254	0.289700	0.477100	0.833500
H1701	H170	0.277400	0.443400	0.809400
C2551	C255	0.277200	0.565300	0.836900
C2561	C256	0.295500	0.612800	0.872700
H1711	H171	0.287600	0.674100	0.876000
C2571	C257	0.325700	0.568200	0.903400
H1721	H172	0.338100	0.600200	0.928000
N861	N86	0.157500	0.455600	0.627900
C2581	C258	0.157000	0.546600	0.629200
H1731	H173	0.147700	0.579600	0.604500
C2591	C259	0.169400	0.595500	0.665000
H1741	H174	0.167400	0.660500	0.665000
C2601	C260	0.184600	0.547300	0.700800
C2611	C261	0.184800	0.452300	0.699600
H1751	H175	0.194200	0.418000	0.723900
C2621	C262	0.171200	0.407300	0.662600
H1761	H176	0.171500	0.342100	0.661800
N871	N87	0.176500	0.017000	0.769000
C2631	C263	0.158100	0.959700	0.738300
H1771	H177	0.138100	0.984100	0.715000
C2641	C264	0.167200	0.866900	0.739100
H1781	H178	0.153500	0.828500	0.716900
C2651	C265	0.196900	0.830700	0.773100
C2661	C266	0.215500	0.889700	0.805400
H1791	H179	0.235300	0.867000	0.829300
C2671	C267	0.204700	0.980700	0.802000
H1801	H180	0.217700	0.020300	0.823900
C2681	C268	0.245800	0.609300	0.802500
N881	N88	0.229600	0.557400	0.769700
C2691	C269	0.201300	0.600900	0.739200
N891	N89	0.189100	0.686000	0.739600
C2701	C270	0.208500	0.732500	0.773400
N901	N90	0.236800	0.698400	0.805800
N911	N91	0.124700	0.486900	0.532300
C2711	C271	0.145400	0.523600	0.508800
H1811	H181	0.172500	0.502100	0.512000
C2721	C272	0.129200	0.589700	0.481000
H1821	H182	0.144400	0.612300	0.464600
C2731	C273	0.089800	0.624500	0.476700
C2741	C274	0.069400	0.590600	0.501400
H1831	H183	0.043100	0.613900	0.500100
C2751	C275	0.087900	0.521700	0.528400
H1841	H184	0.073200	0.497900	0.545100
N921	N92	0.128500	0.828300	0.301800
C2761	C276	0.113200	0.898900	0.317000
H1851	H185	0.115800	0.959300	0.308000
C2771	C277	0.093700	0.885600	0.345900
H1861	H186	0.081800	0.936200	0.355400
C2781	C278	0.091500	0.797700	0.360600
C2791	C279	0.107100	0.726100	0.344400
H1871	H187	0.104800	0.665000	0.353000
C2801	C280	0.126200	0.742600	0.315500
H1881	H188	0.137900	0.692800	0.305200
N931	N93	0.934100	0.989400	0.441100
C2811	C281	0.941400	0.982000	0.405200
H1891	H189	0.924300	0.015600	0.382700
C2821	C282	0.971700	0.928900	0.399800
H1901	H190	0.975800	0.925900	0.374200
C2831	C283	0.996900	0.878800	0.432200
C2841	C284	0.990100	0.885200	0.468800
H1911	H191	0.006900	0.852400	0.491600
C2851	C285	0.958300	0.940300	0.471600
H1921	H192	0.953300	0.943400	0.496800
C2861	C286	0.073700	0.698400	0.447600
N941	N94	0.089400	0.710900	0.417500
C2871	C287	0.072900	0.781600	0.393100
N951	N95	0.044400	0.837000	0.396100
C2881	C288	0.030100	0.819600	0.426700
N961	N96	0.043300	0.749500	0.453200
