data_LACJAC_clean_PM
_symmetry_space_group_name_H-M	'P1'
_cell_length_a	9.781000
_cell_length_b	11.905000
_cell_length_c	15.220000
_cell_angle_alpha	96.500000
_cell_angle_beta	99.070000
_cell_angle_gamma	112.410000
_symmetry_Int_Tables_number 1

loop_
_symmetry_equiv_pos_as_xyz
'x,y,z'

loop_
_atom_site_label
_atom_site_type_symbol
_atom_site_fract_x
_atom_site_fract_y
_atom_site_fract_z
Zn11	Zn1	0.988730	0.570290	0.294850
Zn21	Zn2	0.890690	0.688270	0.670220
Zn31	Zn3	0.439130	0.604840	0.070460
Zn41	Zn4	0.011270	0.429710	0.705150
Zn51	Zn5	0.109310	0.311730	0.329780
Zn61	Zn6	0.560870	0.395160	0.929540
Zn71	Zn7	0.500000	0.500000	0.500000
H11	H1	0.308000	0.998700	0.823600
H21	H2	0.723100	0.039600	0.942500
H31	H3	0.656300	0.831800	0.895800
H41	H4	0.420300	0.708100	0.805500
H51	H5	0.804000	0.011400	0.665100
H61	H6	0.460500	0.113900	0.600300
H71	H7	0.291500	0.911100	0.577200
H81	H8	0.377000	0.755600	0.589500
H91	H9	0.172500	0.633100	0.146200
H101	H10	0.348000	0.403000	0.203700
H111	H11	0.071400	0.678400	0.514000
H121	H12	0.687400	0.461900	0.357400
H131	H13	0.708500	0.650400	0.235400
H141	H14	0.828500	0.430500	0.091100
H151	H15	0.692000	0.001300	0.176400
H161	H16	0.276900	0.960400	0.057500
H171	H17	0.343700	0.168200	0.104200
H181	H18	0.579700	0.291900	0.194500
H191	H19	0.196000	0.988600	0.334900
H201	H20	0.539500	0.886100	0.399700
H211	H21	0.708500	0.088900	0.422800
H221	H22	0.623000	0.244400	0.410500
H231	H23	0.827500	0.366900	0.853800
H241	H24	0.652000	0.597000	0.796300
H251	H25	0.928600	0.321600	0.486000
H261	H26	0.312600	0.538100	0.642600
H271	H27	0.291500	0.349600	0.764600
H281	H28	0.171500	0.569500	0.908900
C11	C1	0.339600	0.840700	0.806100
C21	C2	0.379000	0.965500	0.837100
C31	C3	0.522000	0.040900	0.887700
C41	C4	0.626200	0.989700	0.908700
C51	C5	0.586900	0.865800	0.879800
C61	C6	0.444900	0.791300	0.826900
C71	C7	0.187100	0.761000	0.747900
C81	C8	0.564500	0.175400	0.916600
C91	C9	0.600100	0.868500	0.628100
C101	C10	0.701100	0.991000	0.645400
C111	C11	0.651500	0.084300	0.634100
C121	C12	0.495800	0.052600	0.607800
C131	C13	0.395000	0.931200	0.593000
C141	C14	0.445800	0.837900	0.601500
C151	C15	0.657500	0.769500	0.636900
C161	C16	0.761600	0.215100	0.645900
C171	C17	0.193100	0.572100	0.171200
C181	C18	0.288100	0.447800	0.202400
C191	C19	0.968500	0.629900	0.492300
C201	C20	0.760800	0.513400	0.407800
C211	C21	0.711600	0.595900	0.187700
C221	C22	0.776400	0.476600	0.109600
C231	C23	0.660400	0.159300	0.193900
C241	C24	0.621000	0.034500	0.162900
C251	C25	0.478000	0.959100	0.112300
C261	C26	0.373800	0.010300	0.091300
C271	C27	0.413100	0.134200	0.120200
C281	C28	0.555100	0.208700	0.173100
C291	C29	0.812900	0.239000	0.252100
C301	C30	0.435500	0.824600	0.083400
C311	C31	0.399900	0.131500	0.371900
C321	C32	0.298900	0.009000	0.354600
C331	C33	0.348500	0.915700	0.365900
C341	C34	0.504200	0.947400	0.392200
C351	C35	0.605000	0.068800	0.407000
C361	C36	0.554200	0.162100	0.398500
C371	C37	0.342500	0.230500	0.363100
C381	C38	0.238400	0.784900	0.354100
C391	C39	0.806900	0.427900	0.828800
C401	C40	0.711900	0.552200	0.797600
C411	C41	0.031500	0.370100	0.507700
C421	C42	0.239200	0.486600	0.592200
C431	C43	0.288400	0.404100	0.812300
C441	C44	0.223600	0.523400	0.890400
N11	N1	0.183400	0.432100	0.249700
N21	N2	0.121200	0.513900	0.228500
N31	N3	0.299900	0.534700	0.152100
N41	N4	0.866800	0.614700	0.541800
N51	N5	0.729900	0.539100	0.485700
N61	N6	0.907500	0.567700	0.407200
N71	N7	0.816100	0.549200	0.191100
N81	N8	0.655000	0.477700	0.058200
N91	N9	0.612100	0.555700	0.108400
N101	N10	0.816600	0.567900	0.750300
N111	N11	0.878800	0.486100	0.771500
N121	N12	0.700100	0.465300	0.847900
N131	N13	0.133200	0.385300	0.458200
N141	N14	0.270100	0.460900	0.514300
N151	N15	0.092500	0.432300	0.592800
N161	N16	0.183900	0.450800	0.808900
N171	N17	0.345000	0.522300	0.941800
N181	N18	0.387900	0.444300	0.891600
O11	O1	0.153800	0.651200	0.718200
O21	O2	0.094000	0.812000	0.730400
O31	O3	0.463100	0.215900	0.894300
O41	O4	0.694100	0.245400	0.957400
O51	O5	0.570900	0.658200	0.614800
O61	O6	0.798500	0.807000	0.668700
O71	O7	0.893000	0.244900	0.695800
O81	O8	0.727600	0.290400	0.607900
O91	O9	0.846200	0.348800	0.281800
O101	O10	0.906000	0.188000	0.269600
O111	O11	0.536900	0.784100	0.105700
O121	O12	0.305900	0.754600	0.042600
O131	O13	0.429100	0.341800	0.385200
O141	O14	0.201500	0.193000	0.331300
O151	O15	0.107000	0.755100	0.304200
O161	O16	0.272400	0.709600	0.392100
