data_LACQIS_clean_PM
_symmetry_space_group_name_H-M	'P1'
_cell_length_a	18.111100
_cell_length_b	18.111100
_cell_length_c	11.250700
_cell_angle_alpha	90.000000
_cell_angle_beta	90.000000
_cell_angle_gamma	90.000000
_symmetry_Int_Tables_number 1

loop_
_symmetry_equiv_pos_as_xyz
'x,y,z'

loop_
_atom_site_label
_atom_site_type_symbol
_atom_site_fract_x
_atom_site_fract_y
_atom_site_fract_z
Zn11	Zn1	0.211450	0.423490	0.169770
C11	C1	0.285800	0.346700	0.383400
C21	C2	0.220200	0.363800	0.461000
H11	H1	0.187100	0.321700	0.459500
H21	H2	0.237600	0.369300	0.542100
C31	C3	0.176800	0.431200	0.429500
C41	C4	0.108200	0.527600	0.445800
C51	C5	0.063400	0.586800	0.497800
C61	C6	0.043900	0.587400	0.616900
H31	H3	0.057900	0.548800	0.666500
C71	C7	0.003300	0.646100	0.661400
H41	H4	0.991300	0.646400	0.741800
C81	C8	0.997800	0.700000	0.479400
H51	H5	0.981300	0.738200	0.430900
C91	C9	0.038500	0.644200	0.427900
H61	H6	0.048900	0.645200	0.347000
N11	N1	0.167700	0.459900	0.323600
N21	N2	0.124000	0.522200	0.333200
N31	N3	0.139900	0.472200	0.506600
H71	H7	0.137200	0.465000	0.582000
N41	N4	0.981300	0.702300	0.594200
O11	O1	0.289620	0.366570	0.278100
O21	O2	0.335780	0.308310	0.432400
Zn21	Zn2	0.288550	0.076510	0.169770
C101	C10	0.214200	0.153300	0.383400
C111	C11	0.279800	0.136200	0.461000
H81	H8	0.312900	0.178300	0.459500
H91	H9	0.262400	0.130700	0.542100
C121	C12	0.323200	0.068800	0.429500
C131	C13	0.391800	0.972400	0.445800
C141	C14	0.436600	0.913200	0.497800
C151	C15	0.456100	0.912600	0.616900
H101	H10	0.442100	0.951200	0.666500
C161	C16	0.496700	0.853900	0.661400
H111	H11	0.508700	0.853600	0.741800
C171	C17	0.502200	0.800000	0.479400
H121	H12	0.518700	0.761800	0.430900
C181	C18	0.461500	0.855800	0.427900
H131	H13	0.451100	0.854800	0.347000
N51	N5	0.332300	0.040100	0.323600
N61	N6	0.376000	0.977800	0.333200
N71	N7	0.360100	0.027800	0.506600
H141	H14	0.362800	0.035000	0.582000
N81	N8	0.518700	0.797700	0.594200
O31	O3	0.210380	0.133430	0.278100
O41	O4	0.164220	0.191690	0.432400
Zn31	Zn3	0.576510	0.711450	0.669770
C191	C19	0.653300	0.785800	0.883400
C201	C20	0.636200	0.720200	0.961000
H151	H15	0.678300	0.687100	0.959500
H161	H16	0.630700	0.737600	0.042100
C211	C21	0.568800	0.676800	0.929500
C221	C22	0.472400	0.608200	0.945800
C231	C23	0.413200	0.563400	0.997800
C241	C24	0.412600	0.543900	0.116900
H171	H17	0.451200	0.557900	0.166500
C251	C25	0.353900	0.503300	0.161400
H181	H18	0.353600	0.491300	0.241800
C261	C26	0.300000	0.497800	0.979400
H191	H19	0.261800	0.481300	0.930900
C271	C27	0.355800	0.538500	0.927900
H201	H20	0.354800	0.548900	0.847000
N91	N9	0.540100	0.667700	0.823600
N101	N10	0.477800	0.624000	0.833200
N111	N11	0.527800	0.639900	0.006600
H211	H21	0.535000	0.637200	0.082000
N121	N12	0.297700	0.481300	0.094200
O51	O5	0.633430	0.789620	0.778100
O61	O6	0.691690	0.835780	0.932400
Zn41	Zn4	0.923490	0.788550	0.669770
C281	C28	0.846700	0.714200	0.883400
C291	C29	0.863800	0.779800	0.961000
H221	H22	0.821700	0.812900	0.959500
H231	H23	0.869300	0.762400	0.042100
C301	C30	0.931200	0.823200	0.929500
C311	C31	0.027600	0.891800	0.945800
C321	C32	0.086800	0.936600	0.997800
C331	C33	0.087400	0.956100	0.116900
H241	H24	0.048800	0.942100	0.166500
C341	C34	0.146100	0.996700	0.161400
H251	H25	0.146400	0.008700	0.241800
C351	C35	0.200000	0.002200	0.979400
H261	H26	0.238200	0.018700	0.930900
C361	C36	0.144200	0.961500	0.927900
H271	H27	0.145200	0.951100	0.847000
N131	N13	0.959900	0.832300	0.823600
N141	N14	0.022200	0.876000	0.833200
N151	N15	0.972200	0.860100	0.006600
H281	H28	0.965000	0.862800	0.082000
N161	N16	0.202300	0.018700	0.094200
O71	O7	0.866570	0.710380	0.778100
O81	O8	0.808310	0.664220	0.932400
Zn51	Zn5	0.788550	0.576510	0.830230
C371	C37	0.714200	0.653300	0.616600
C381	C38	0.779800	0.636200	0.539000
H291	H29	0.812900	0.678300	0.540500
H301	H30	0.762400	0.630700	0.457900
C391	C39	0.823200	0.568800	0.570500
C401	C40	0.891800	0.472400	0.554200
C411	C41	0.936600	0.413200	0.502200
C421	C42	0.956100	0.412600	0.383100
H311	H31	0.942100	0.451200	0.333500
C431	C43	0.996700	0.353900	0.338600
H321	H32	0.008700	0.353600	0.258200
C441	C44	0.002200	0.300000	0.520600
H331	H33	0.018700	0.261800	0.569100
C451	C45	0.961500	0.355800	0.572100
H341	H34	0.951100	0.354800	0.653000
N171	N17	0.832300	0.540100	0.676400
N181	N18	0.876000	0.477800	0.666800
N191	N19	0.860100	0.527800	0.493400
H351	H35	0.862800	0.535000	0.418000
N201	N20	0.018700	0.297700	0.405800
O91	O9	0.710380	0.633430	0.721900
O101	O10	0.664220	0.691690	0.567600
Zn61	Zn6	0.711450	0.923490	0.830230
C461	C46	0.785800	0.846700	0.616600
C471	C47	0.720200	0.863800	0.539000
H361	H36	0.687100	0.821700	0.540500
H371	H37	0.737600	0.869300	0.457900
C481	C48	0.676800	0.931200	0.570500
C491	C49	0.608200	0.027600	0.554200
C501	C50	0.563400	0.086800	0.502200
C511	C51	0.543900	0.087400	0.383100
H381	H38	0.557900	0.048800	0.333500
C521	C52	0.503300	0.146100	0.338600
H391	H39	0.491300	0.146400	0.258200
C531	C53	0.497800	0.200000	0.520600
H401	H40	0.481300	0.238200	0.569100
C541	C54	0.538500	0.144200	0.572100
H411	H41	0.548900	0.145200	0.653000
N211	N21	0.667700	0.959900	0.676400
N221	N22	0.624000	0.022200	0.666800
N231	N23	0.639900	0.972200	0.493400
H421	H42	0.637200	0.965000	0.418000
N241	N24	0.481300	0.202300	0.405800
O111	O11	0.789620	0.866570	0.721900
O121	O12	0.835780	0.808310	0.567600
Zn71	Zn7	0.423490	0.288550	0.330230
C551	C55	0.346700	0.214200	0.116600
C561	C56	0.363800	0.279800	0.039000
H431	H43	0.321700	0.312900	0.040500
H441	H44	0.369300	0.262400	0.957900
C571	C57	0.431200	0.323200	0.070500
C581	C58	0.527600	0.391800	0.054200
C591	C59	0.586800	0.436600	0.002200
C601	C60	0.587400	0.456100	0.883100
H451	H45	0.548800	0.442100	0.833500
C611	C61	0.646100	0.496700	0.838600
H461	H46	0.646400	0.508700	0.758200
C621	C62	0.700000	0.502200	0.020600
H471	H47	0.738200	0.518700	0.069100
C631	C63	0.644200	0.461500	0.072100
H481	H48	0.645200	0.451100	0.153000
N251	N25	0.459900	0.332300	0.176400
N261	N26	0.522200	0.376000	0.166800
N271	N27	0.472200	0.360100	0.993400
H491	H49	0.465000	0.362800	0.918000
N281	N28	0.702300	0.518700	0.905800
O131	O13	0.366570	0.210380	0.221900
O141	O14	0.308310	0.164220	0.067600
Zn81	Zn8	0.076510	0.211450	0.330230
C641	C64	0.153300	0.285800	0.116600
C651	C65	0.136200	0.220200	0.039000
H501	H50	0.178300	0.187100	0.040500
H511	H51	0.130700	0.237600	0.957900
C661	C66	0.068800	0.176800	0.070500
C671	C67	0.972400	0.108200	0.054200
C681	C68	0.913200	0.063400	0.002200
C691	C69	0.912600	0.043900	0.883100
H521	H52	0.951200	0.057900	0.833500
C701	C70	0.853900	0.003300	0.838600
H531	H53	0.853600	0.991300	0.758200
C711	C71	0.800000	0.997800	0.020600
H541	H54	0.761800	0.981300	0.069100
C721	C72	0.855800	0.038500	0.072100
H551	H55	0.854800	0.048900	0.153000
N291	N29	0.040100	0.167700	0.176400
N301	N30	0.977800	0.124000	0.166800
N311	N31	0.027800	0.139900	0.993400
H561	H56	0.035000	0.137200	0.918000
N321	N32	0.797700	0.981300	0.905800
O151	O15	0.133430	0.289620	0.221900
O161	O16	0.191690	0.335780	0.067600
