data_LADHIJ_clean_PM
_symmetry_space_group_name_H-M	'P1'
_cell_length_a	14.885800
_cell_length_b	23.055000
_cell_length_c	17.783400
_cell_angle_alpha	90.000000
_cell_angle_beta	108.905000
_cell_angle_gamma	90.000000
_symmetry_Int_Tables_number 1

loop_
_symmetry_equiv_pos_as_xyz
'x,y,z'

loop_
_atom_site_label
_atom_site_type_symbol
_atom_site_fract_x
_atom_site_fract_y
_atom_site_fract_z
C11	C1	0.649800	0.081600	0.762200
H11	H1	0.625800	0.119200	0.757700
C21	C2	0.857100	0.005400	0.731900
C31	C3	0.770300	0.015100	0.754900
C41	C4	0.732400	0.070900	0.746000
H21	H2	0.763100	0.100900	0.729200
C51	C5	0.722400	0.970600	0.777900
H31	H3	0.747500	0.933300	0.783900
C61	C6	0.601400	0.036900	0.785200
Zn11	Zn1	0.554870	0.820180	0.847230
Zn21	Zn2	0.810500	0.799390	0.192520
Zn31	Zn3	0.633020	0.602350	0.688190
Zn41	Zn4	0.001450	0.962770	0.700980
O11	O1	0.415800	0.820350	0.812100
O21	O2	0.968500	0.838530	0.688200
O31	O3	0.938100	0.739710	0.789100
O41	O4	0.946800	0.702810	0.678000
O51	O5	0.534800	0.941510	0.855800
O61	O6	0.510200	0.087300	0.850300
O71	O7	0.603800	0.881420	0.793100
N11	N1	0.836000	0.887880	0.232100
N21	N2	0.708600	0.824100	0.087200
N31	N3	0.647900	0.675030	0.754500
N41	N4	0.765600	0.929240	0.225200
O81	O8	0.900800	0.957200	0.751200
N51	N5	0.622100	0.754940	0.812700
O91	O9	0.090900	0.897910	0.729600
N61	N6	0.611500	0.830820	0.963400
O101	O10	0.883200	0.043090	0.694900
N71	N7	0.717000	0.714960	0.754200
O111	O11	0.440900	0.732460	0.863300
N81	N8	0.639600	0.864490	0.084400
O121	O12	0.432600	0.036240	0.747000
N91	N9	0.902500	0.974040	0.265200
N101	N10	0.939400	0.958100	0.586200
C71	C7	0.637800	0.981000	0.792100
C81	C8	0.594300	0.700600	0.790000
H41	H4	0.542300	0.682900	0.798500
C91	C9	0.807900	0.978600	0.244400
H51	H5	0.776200	0.013500	0.243900
C101	C10	0.915800	0.917000	0.257100
H61	H6	0.975400	0.900000	0.267900
C111	C11	0.120700	0.798400	0.754100
C121	C12	0.217700	0.807500	0.774400
H71	H7	0.239900	0.843400	0.764400
C131	C13	0.698800	0.761900	0.788800
H81	H8	0.734500	0.795700	0.796000
C141	C14	0.688400	0.804700	0.014000
H91	H9	0.723400	0.776300	0.998900
C151	C15	0.053100	0.847700	0.720600
C161	C16	0.584500	0.866900	0.010900
H101	H10	0.532000	0.891200	0.993200
C171	C17	0.587000	0.931800	0.816200
C181	C18	0.150300	0.701000	0.803600
H111	H11	0.127800	0.665100	0.813200
C191	C19	0.281700	0.764400	0.809200
C201	C20	0.086700	0.744200	0.766500
C211	C21	0.247100	0.711000	0.826400
H121	H12	0.289300	0.682300	0.853200
C221	C22	0.983400	0.729200	0.742900
C231	C23	0.386500	0.772000	0.830300
C241	C24	0.509600	0.052500	0.796300
C251	C25	0.810300	0.936000	0.485800
H131	H13	0.769200	0.969100	0.473800
H141	H14	0.773100	0.901200	0.471500
H151	H15	0.854000	0.938100	0.456300
C261	C26	0.856900	0.935100	0.560500
C271	C27	0.350200	0.581600	0.737800
H161	H16	0.374200	0.619200	0.742300
C281	C28	0.142900	0.505400	0.768100
C291	C29	0.229700	0.515100	0.745100
C301	C30	0.267600	0.570900	0.754000
H171	H17	0.236900	0.600900	0.770800
C311	C31	0.277600	0.470600	0.722100
H181	H18	0.252500	0.433300	0.716100
C321	C32	0.398600	0.536900	0.714800
Zn51	Zn5	0.445130	0.320180	0.652770
Zn61	Zn6	0.189500	0.299390	0.307480
Zn71	Zn7	0.366980	0.102350	0.811810
Zn81	Zn8	0.998550	0.462770	0.799020
O131	O13	0.584200	0.320350	0.687900
O141	O14	0.031500	0.338530	0.811800
O151	O15	0.061900	0.239710	0.710900
O161	O16	0.053200	0.202810	0.822000
O171	O17	0.465200	0.441510	0.644200
O181	O18	0.489800	0.587300	0.649700
O191	O19	0.396200	0.381420	0.706900
N111	N11	0.164000	0.387880	0.267900
N121	N12	0.291400	0.324100	0.412800
N131	N13	0.352100	0.175030	0.745500
N141	N14	0.234400	0.429240	0.274800
O201	O20	0.099200	0.457200	0.748800
N151	N15	0.377900	0.254940	0.687300
O211	O21	0.909100	0.397910	0.770400
N161	N16	0.388500	0.330820	0.536600
O221	O22	0.116800	0.543090	0.805100
N171	N17	0.283000	0.214960	0.745800
O231	O23	0.559100	0.232460	0.636700
N181	N18	0.360400	0.364490	0.415600
O241	O24	0.567400	0.536240	0.753000
N191	N19	0.097500	0.474040	0.234800
N201	N20	0.060600	0.458100	0.913800
C331	C33	0.362200	0.481000	0.707900
C341	C34	0.405700	0.200600	0.710000
H191	H19	0.457700	0.182900	0.701500
C351	C35	0.192100	0.478600	0.255600
H201	H20	0.223800	0.513500	0.256100
C361	C36	0.084200	0.417000	0.242900
H211	H21	0.024600	0.400000	0.232100
C371	C37	0.879300	0.298400	0.745900
C381	C38	0.782300	0.307500	0.725600
H221	H22	0.760100	0.343400	0.735600
C391	C39	0.301200	0.261900	0.711200
H231	H23	0.265500	0.295700	0.704000
C401	C40	0.311600	0.304700	0.486000
H241	H24	0.276600	0.276300	0.501100
C411	C41	0.946900	0.347700	0.779400
C421	C42	0.415500	0.366900	0.489100
H251	H25	0.468000	0.391200	0.506800
C431	C43	0.413000	0.431800	0.683800
C441	C44	0.849700	0.201000	0.696400
H261	H26	0.872200	0.165100	0.686800
C451	C45	0.718300	0.264400	0.690800
C461	C46	0.913300	0.244200	0.733500
C471	C47	0.752900	0.211000	0.673600
H271	H27	0.710700	0.182300	0.646800
C481	C48	0.016600	0.229200	0.757100
C491	C49	0.613500	0.272000	0.669700
C501	C50	0.490400	0.552500	0.703700
C511	C51	0.189700	0.436000	0.014200
H281	H28	0.230800	0.469100	0.026200
H291	H29	0.226900	0.401200	0.028500
H301	H30	0.146000	0.438100	0.043700
C521	C52	0.143100	0.435100	0.939500
C531	C53	0.350200	0.918400	0.237800
H311	H31	0.374200	0.880800	0.242300
C541	C54	0.142900	0.994600	0.268100
C551	C55	0.229700	0.984900	0.245100
C561	C56	0.267600	0.929100	0.254000
H321	H32	0.236900	0.899100	0.270800
C571	C57	0.277600	0.029400	0.222100
H331	H33	0.252500	0.066700	0.216100
C581	C58	0.398600	0.963100	0.214800
Zn91	Zn9	0.445130	0.179820	0.152770
Zn101	Zn10	0.189500	0.200610	0.807480
Zn111	Zn11	0.366980	0.397650	0.311810
Zn121	Zn12	0.998550	0.037230	0.299020
O251	O25	0.584200	0.179650	0.187900
O261	O26	0.031500	0.161470	0.311800
O271	O27	0.061900	0.260290	0.210900
O281	O28	0.053200	0.297190	0.322000
O291	O29	0.465200	0.058490	0.144200
O301	O30	0.489800	0.912700	0.149700
O311	O31	0.396200	0.118580	0.206900
N211	N21	0.164000	0.112120	0.767900
N221	N22	0.291400	0.175900	0.912800
N231	N23	0.352100	0.324970	0.245500
N241	N24	0.234400	0.070760	0.774800
O321	O32	0.099200	0.042800	0.248800
N251	N25	0.377900	0.245060	0.187300
O331	O33	0.909100	0.102090	0.270400
N261	N26	0.388500	0.169180	0.036600
O341	O34	0.116800	0.956910	0.305100
N271	N27	0.283000	0.285040	0.245800
O351	O35	0.559100	0.267540	0.136700
N281	N28	0.360400	0.135510	0.915600
O361	O36	0.567400	0.963760	0.253000
N291	N29	0.097500	0.025960	0.734800
N301	N30	0.060600	0.041900	0.413800
C591	C59	0.362200	0.019000	0.207900
C601	C60	0.405700	0.299400	0.210000
H341	H34	0.457700	0.317100	0.201500
C611	C61	0.192100	0.021400	0.755600
H351	H35	0.223800	0.986500	0.756100
C621	C62	0.084200	0.083000	0.742900
H361	H36	0.024600	0.100000	0.732100
C631	C63	0.879300	0.201600	0.245900
C641	C64	0.782300	0.192500	0.225600
H371	H37	0.760100	0.156600	0.235600
C651	C65	0.301200	0.238100	0.211200
H381	H38	0.265500	0.204300	0.204000
C661	C66	0.311600	0.195300	0.986000
H391	H39	0.276600	0.223700	0.001100
C671	C67	0.946900	0.152300	0.279400
C681	C68	0.415500	0.133100	0.989100
H401	H40	0.468000	0.108800	0.006800
C691	C69	0.413000	0.068200	0.183800
C701	C70	0.849700	0.299000	0.196400
H411	H41	0.872200	0.334900	0.186800
C711	C71	0.718300	0.235600	0.190800
C721	C72	0.913300	0.255800	0.233500
C731	C73	0.752900	0.289000	0.173600
H421	H42	0.710700	0.317700	0.146800
C741	C74	0.016600	0.270800	0.257100
C751	C75	0.613500	0.228000	0.169700
C761	C76	0.490400	0.947500	0.203700
C771	C77	0.189700	0.064000	0.514200
H431	H43	0.230800	0.030900	0.526200
H441	H44	0.226900	0.098800	0.528500
H451	H45	0.146000	0.061900	0.543700
C781	C78	0.143100	0.064900	0.439500
C791	C79	0.649800	0.418400	0.262200
H461	H46	0.625800	0.380800	0.257700
C801	C80	0.857100	0.494600	0.231900
C811	C81	0.770300	0.484900	0.254900
C821	C82	0.732400	0.429100	0.246000
H471	H47	0.763100	0.399100	0.229200
C831	C83	0.722400	0.529400	0.277900
H481	H48	0.747500	0.566700	0.283900
C841	C84	0.601400	0.463100	0.285200
Zn131	Zn13	0.554870	0.679820	0.347230
Zn141	Zn14	0.810500	0.700610	0.692520
Zn151	Zn15	0.633020	0.897650	0.188190
Zn161	Zn16	0.001450	0.537230	0.200980
O371	O37	0.415800	0.679650	0.312100
O381	O38	0.968500	0.661470	0.188200
O391	O39	0.938100	0.760290	0.289100
O401	O40	0.946800	0.797190	0.178000
O411	O41	0.534800	0.558490	0.355800
O421	O42	0.510200	0.412700	0.350300
O431	O43	0.603800	0.618580	0.293100
N311	N31	0.836000	0.612120	0.732100
N321	N32	0.708600	0.675900	0.587200
N331	N33	0.647900	0.824970	0.254500
N341	N34	0.765600	0.570760	0.725200
O441	O44	0.900800	0.542800	0.251200
N351	N35	0.622100	0.745060	0.312700
O451	O45	0.090900	0.602090	0.229600
N361	N36	0.611500	0.669180	0.463400
O461	O46	0.883200	0.456910	0.194900
N371	N37	0.717000	0.785040	0.254200
O471	O47	0.440900	0.767540	0.363300
N381	N38	0.639600	0.635510	0.584400
O481	O48	0.432600	0.463760	0.247000
N391	N39	0.902500	0.525960	0.765200
N401	N40	0.939400	0.541900	0.086200
C851	C85	0.637800	0.519000	0.292100
C861	C86	0.594300	0.799400	0.290000
H491	H49	0.542300	0.817100	0.298500
C871	C87	0.807900	0.521400	0.744400
H501	H50	0.776200	0.486500	0.743900
C881	C88	0.915800	0.583000	0.757100
H511	H51	0.975400	0.600000	0.767900
C891	C89	0.120700	0.701600	0.254100
C901	C90	0.217700	0.692500	0.274400
H521	H52	0.239900	0.656600	0.264400
C911	C91	0.698800	0.738100	0.288800
H531	H53	0.734500	0.704300	0.296000
C921	C92	0.688400	0.695300	0.514000
H541	H54	0.723400	0.723700	0.498900
C931	C93	0.053100	0.652300	0.220600
C941	C94	0.584500	0.633100	0.510900
H551	H55	0.532000	0.608800	0.493200
C951	C95	0.587000	0.568200	0.316200
C961	C96	0.150300	0.799000	0.303600
H561	H56	0.127800	0.834900	0.313200
C971	C97	0.281700	0.735600	0.309200
C981	C98	0.086700	0.755800	0.266500
C991	C99	0.247100	0.789000	0.326400
H571	H57	0.289300	0.817700	0.353200
C1001	C100	0.983400	0.770800	0.242900
C1011	C101	0.386500	0.728000	0.330300
C1021	C102	0.509600	0.447500	0.296300
C1031	C103	0.810300	0.564000	0.985800
H581	H58	0.769200	0.530900	0.973800
H591	H59	0.773100	0.598800	0.971500
H601	H60	0.854000	0.561900	0.956300
C1041	C104	0.856900	0.564900	0.060500
