data_LADQOZ_clean_PM
_symmetry_space_group_name_H-M	'P1'
_cell_length_a	11.408700
_cell_length_b	13.658400
_cell_length_c	24.023000
_cell_angle_alpha	93.171000
_cell_angle_beta	103.627000
_cell_angle_gamma	112.671000
_symmetry_Int_Tables_number 1

loop_
_symmetry_equiv_pos_as_xyz
'x,y,z'

loop_
_atom_site_label
_atom_site_type_symbol
_atom_site_fract_x
_atom_site_fract_y
_atom_site_fract_z
Sm11	Sm1	0.646980	0.597740	0.962060
O11	O1	0.637000	0.610700	0.857600
O21	O2	0.604100	0.689600	0.035000
O31	O3	0.626800	0.741800	0.911800
O41	O4	0.433500	0.590000	0.065900
C11	C1	0.625600	0.699700	0.863100
C21	C2	0.613400	0.755600	0.811500
C31	C3	0.576700	0.842600	0.815500
C41	C4	0.630900	0.723900	0.760700
H11	H1	0.565000	0.865600	0.850100
C51	C5	0.558300	0.893100	0.769100
C61	C6	0.616500	0.775300	0.712600
H21	H2	0.653300	0.665500	0.757800
C71	C7	0.579900	0.860800	0.717500
C81	C8	0.516000	0.986300	0.763100
H31	H3	0.630900	0.753200	0.678500
C91	C9	0.559200	0.931500	0.675600
C101	C10	0.376500	0.951300	0.768600
C111	C11	0.519900	0.003100	0.702200
C121	C12	0.611000	0.084300	0.808800
C131	C13	0.563600	0.932800	0.619000
H41	H4	0.348000	0.007800	0.759900
H51	H5	0.375200	0.938500	0.807800
H61	H6	0.318600	0.886800	0.741500
C141	C14	0.492200	0.079600	0.672100
H71	H7	0.580100	0.140600	0.805500
H81	H8	0.616800	0.065400	0.847300
H91	H9	0.696100	0.108700	0.801900
C151	C15	0.532500	0.006100	0.588700
H101	H10	0.587500	0.884100	0.601200
C161	C16	0.496800	0.079500	0.615500
H111	H11	0.470900	0.129900	0.690100
H121	H12	0.535300	0.006900	0.550400
C171	C17	0.463600	0.162100	0.581900
O51	O5	0.456100	0.155000	0.528900
O61	O6	0.439600	0.230500	0.607800
Sm21	Sm2	0.375730	0.298070	0.517710
O71	O7	0.157900	0.148000	0.485100
O81	O8	0.268200	0.195100	0.421200
C181	C18	0.164100	0.136500	0.434100
C191	C19	0.052200	0.052400	0.387400
C201	C20	0.061900	0.053700	0.330100
C211	C21	0.945000	0.979300	0.400800
C221	C22	0.956100	0.977200	0.287200
H131	H13	0.135300	0.103100	0.321300
C231	C23	0.841400	0.902800	0.356600
H141	H14	0.941300	0.980600	0.439100
C241	C24	0.942700	0.960600	0.221800
C251	C25	0.847800	0.902500	0.300300
H151	H15	0.768600	0.852300	0.365300
C261	C26	0.946000	0.061500	0.195300
C271	C27	0.807500	0.866300	0.199900
C281	C28	0.051600	0.931400	0.209600
C291	C29	0.755800	0.833300	0.246200
H161	H16	0.924800	0.044700	0.153500
H171	H17	0.881700	0.082400	0.205600
H181	H18	0.031200	0.119600	0.209600
C301	C30	0.741800	0.812700	0.144200
H191	H19	0.056200	0.873100	0.229700
H201	H20	0.033500	0.910300	0.168300
H211	H21	0.133900	0.992900	0.223300
C311	C31	0.631700	0.748400	0.236000
H221	H22	0.778600	0.833700	0.113900
C321	C32	0.617900	0.725500	0.133800
C331	C33	0.564600	0.694800	0.179200
H231	H23	0.594500	0.728100	0.266400
C341	C34	0.548100	0.664800	0.073500
H241	H24	0.482500	0.637400	0.171800
O91	O9	0.772600	0.564700	0.048100
O101	O10	0.584300	0.468300	0.065400
O111	O11	0.452800	0.541900	0.423600
O121	O12	0.317300	0.418000	0.462700
C351	C35	0.341400	0.470700	0.421600
C361	C36	0.229700	0.447700	0.369000
C371	C37	0.113300	0.355800	0.358000
C381	C38	0.242600	0.521300	0.330100
C391	C39	0.008100	0.337700	0.310500
H251	H25	0.106100	0.305600	0.383100
C401	C40	0.140000	0.505800	0.283900
H261	H26	0.322200	0.581100	0.336200
C411	C41	0.020700	0.414200	0.273400
H271	H27	0.930300	0.275800	0.303300
C421	C42	0.126100	0.576200	0.238300
C431	C43	0.923800	0.420800	0.222600
C441	C44	0.227700	0.588300	0.203000
C451	C45	0.146200	0.687300	0.265600
C461	C46	0.985700	0.514100	0.201600
C471	C47	0.789000	0.352600	0.197100
H281	H28	0.219800	0.518700	0.187900
H291	H29	0.314700	0.628300	0.228300
H301	H30	0.211900	0.626100	0.171100
H311	H31	0.086200	0.680000	0.288800
H321	H32	0.234700	0.725000	0.289800
H331	H33	0.129600	0.726900	0.234700
C481	C48	0.914600	0.540900	0.154100
C491	C49	0.721500	0.382200	0.150500
H341	H34	0.747500	0.290200	0.211300
C501	C50	0.783500	0.474900	0.129500
H351	H35	0.955300	0.602700	0.139200
H361	H36	0.632600	0.339100	0.132800
C511	C51	0.707000	0.504400	0.077100
Sm31	Sm3	0.353020	0.402260	0.037940
O131	O13	0.363000	0.389300	0.142400
O141	O14	0.395900	0.310400	0.965000
O151	O15	0.373200	0.258200	0.088200
O161	O16	0.566500	0.410000	0.934100
C521	C52	0.374400	0.300300	0.136900
C531	C53	0.386600	0.244400	0.188500
C541	C54	0.423300	0.157400	0.184500
C551	C55	0.369100	0.276100	0.239300
H371	H37	0.435000	0.134400	0.149900
C561	C56	0.441700	0.106900	0.230900
C571	C57	0.383500	0.224700	0.287400
H381	H38	0.346700	0.334500	0.242200
C581	C58	0.420100	0.139200	0.282500
C591	C59	0.484000	0.013700	0.236900
H391	H39	0.369100	0.246800	0.321500
C601	C60	0.440800	0.068500	0.324400
C611	C61	0.623500	0.048700	0.231400
C621	C62	0.480100	0.996900	0.297800
C631	C63	0.389000	0.915700	0.191200
C641	C64	0.436400	0.067200	0.381000
H401	H40	0.652000	0.992200	0.240100
H411	H41	0.624800	0.061500	0.192200
H421	H42	0.681400	0.113200	0.258500
C651	C65	0.507800	0.920400	0.327900
H431	H43	0.419900	0.859400	0.194500
H441	H44	0.383200	0.934600	0.152700
H451	H45	0.303900	0.891300	0.198100
C661	C66	0.467500	0.993900	0.411300
H461	H46	0.412500	0.115900	0.398800
C671	C67	0.503200	0.920500	0.384500
H471	H47	0.529100	0.870100	0.309900
H481	H48	0.464700	0.993100	0.449600
C681	C68	0.536400	0.837900	0.418100
O171	O17	0.543900	0.845000	0.471100
O181	O18	0.560400	0.769500	0.392200
Sm41	Sm4	0.624270	0.701930	0.482290
O191	O19	0.842100	0.852000	0.514900
O201	O20	0.731800	0.804900	0.578800
C691	C69	0.835900	0.863500	0.565900
C701	C70	0.947800	0.947600	0.612600
C711	C71	0.938100	0.946300	0.669900
C721	C72	0.055000	0.020700	0.599200
C731	C73	0.043900	0.022800	0.712800
H491	H49	0.864700	0.896900	0.678700
C741	C74	0.158600	0.097200	0.643400
H501	H50	0.058700	0.019400	0.560900
C751	C75	0.057300	0.039400	0.778200
C761	C76	0.152200	0.097500	0.699700
H511	H51	0.231400	0.147700	0.634700
C771	C77	0.054000	0.938500	0.804700
C781	C78	0.192500	0.133700	0.800100
C791	C79	0.948400	0.068600	0.790400
C801	C80	0.244200	0.166700	0.753800
H521	H52	0.075200	0.955300	0.846500
H531	H53	0.118300	0.917600	0.794400
H541	H54	0.968800	0.880400	0.790400
C811	C81	0.258200	0.187300	0.855800
H551	H55	0.943800	0.126900	0.770300
H561	H56	0.966500	0.089700	0.831700
H571	H57	0.866100	0.007100	0.776700
C821	C82	0.368300	0.251600	0.764000
H581	H58	0.221400	0.166300	0.886100
C831	C83	0.382100	0.274500	0.866200
C841	C84	0.435400	0.305200	0.820800
H591	H59	0.405500	0.271900	0.733600
C851	C85	0.451900	0.335200	0.926500
H601	H60	0.517500	0.362600	0.828200
O211	O21	0.227400	0.435300	0.951900
O221	O22	0.415700	0.531700	0.934600
O231	O23	0.547200	0.458100	0.576400
O241	O24	0.682700	0.582000	0.537300
C861	C86	0.658600	0.529300	0.578400
C871	C87	0.770300	0.552300	0.631000
C881	C88	0.886700	0.644200	0.642000
C891	C89	0.757400	0.478700	0.669900
C901	C90	0.991900	0.662300	0.689500
H611	H61	0.893900	0.694400	0.616900
C911	C91	0.860000	0.494200	0.716100
H621	H62	0.677800	0.418900	0.663800
C921	C92	0.979300	0.585800	0.726600
H631	H63	0.069700	0.724200	0.696700
C931	C93	0.873900	0.423800	0.761700
C941	C94	0.076200	0.579200	0.777400
C951	C95	0.772300	0.411700	0.797000
C961	C96	0.853800	0.312700	0.734400
C971	C97	0.014300	0.485900	0.798400
C981	C98	0.211000	0.647400	0.802900
H641	H64	0.780200	0.481300	0.812100
H651	H65	0.685300	0.371700	0.771700
H661	H66	0.788100	0.373900	0.828900
H671	H67	0.913800	0.320000	0.711200
H681	H68	0.765300	0.275000	0.710200
H691	H69	0.870400	0.273100	0.765300
C991	C99	0.085400	0.459100	0.845900
C1001	C100	0.278500	0.617800	0.849500
H701	H70	0.252500	0.709800	0.788700
C1011	C101	0.216500	0.525100	0.870500
H711	H71	0.044700	0.397300	0.860800
H721	H72	0.367400	0.660900	0.867200
C1021	C102	0.293000	0.495600	0.922900
