data_LADQIT_clean_PM
_symmetry_space_group_name_H-M	'P1'
_cell_length_a	11.495700
_cell_length_b	13.680400
_cell_length_c	23.969300
_cell_angle_alpha	76.328000
_cell_angle_beta	76.214000
_cell_angle_gamma	66.917000
_symmetry_Int_Tables_number 1

loop_
_symmetry_equiv_pos_as_xyz
'x,y,z'

loop_
_atom_site_label
_atom_site_type_symbol
_atom_site_fract_x
_atom_site_fract_y
_atom_site_fract_z
Gd11	Gd1	0.640660	0.298810	0.482700
Gd21	Gd2	0.815960	0.598100	0.038270
C11	C1	0.874400	0.500600	0.923000
C21	C2	0.848700	0.473000	0.871300
C31	C3	0.929900	0.381600	0.849500
H11	H1	0.001700	0.337700	0.866500
C41	C4	0.906700	0.353500	0.802400
H21	H2	0.962200	0.290800	0.788100
C51	C5	0.800300	0.419300	0.777000
C61	C6	0.754200	0.413200	0.726300
C71	C7	0.803200	0.338300	0.688600
H31	H3	0.874600	0.276700	0.695100
C81	C8	0.743700	0.357100	0.641200
H41	H4	0.775700	0.307300	0.615700
C91	C9	0.638200	0.447900	0.630900
C101	C10	0.579700	0.470900	0.578000
C111	C11	0.586700	0.521900	0.670100
H51	H5	0.513500	0.582100	0.664400
C121	C12	0.645000	0.504700	0.717000
C131	C13	0.611100	0.575700	0.762600
C141	C14	0.478100	0.588200	0.797500
H61	H6	0.415700	0.625400	0.772100
H71	H7	0.461400	0.629000	0.827900
H81	H8	0.473200	0.518600	0.814300
C151	C15	0.618100	0.688100	0.734700
H91	H9	0.699200	0.679800	0.709800
H101	H10	0.609300	0.727200	0.764800
H111	H11	0.550100	0.727000	0.712300
C161	C16	0.716800	0.512800	0.799500
C171	C17	0.741200	0.539000	0.846100
H121	H12	0.685800	0.601100	0.861000
C181	C18	0.026200	0.661800	0.925800
C191	C19	0.015500	0.724700	0.865700
C201	C20	0.115300	0.694100	0.820100
H131	H13	0.190000	0.636300	0.827300
C211	C21	0.104800	0.748900	0.763500
H141	H14	0.172100	0.728300	0.733100
C221	C22	0.993700	0.833900	0.753000
C231	C23	0.953800	0.903800	0.699000
C241	C24	0.016400	0.903300	0.642500
H151	H15	0.097100	0.852000	0.633500
C251	C25	0.957800	0.979500	0.599600
H161	H16	0.000800	0.981300	0.561400
C261	C26	0.833100	0.055800	0.612100
C271	C27	0.767900	0.136900	0.565900
C281	C28	0.770900	0.054800	0.669000
H171	H17	0.689100	0.104400	0.678100
C291	C29	0.831400	0.979600	0.711900
C301	C30	0.779400	0.962500	0.777900
C311	C31	0.659500	0.933000	0.788500
H181	H18	0.674800	0.877900	0.766300
H191	H19	0.588900	0.995600	0.776800
H201	H20	0.639500	0.907100	0.829100
C321	C32	0.751200	0.062900	0.804200
H211	H21	0.735500	0.046000	0.845900
H221	H22	0.677100	0.119700	0.791100
H231	H23	0.823600	0.085800	0.792200
C331	C33	0.894100	0.866700	0.799000
C341	C34	0.904500	0.811200	0.855300
H241	H24	0.837500	0.832000	0.885700
C351	C35	0.619000	0.161500	0.418500
C361	C36	0.616700	0.082600	0.385000
C371	C37	0.553800	0.010100	0.411200
H251	H25	0.510400	0.013400	0.449100
C381	C38	0.554200	0.933800	0.382200
H261	H26	0.513000	0.885400	0.400400
C391	C39	0.617800	0.931600	0.325200
C401	C40	0.636600	0.861200	0.283400
C411	C41	0.595500	0.776900	0.288000
H271	H27	0.547100	0.755500	0.322300
C421	C42	0.628100	0.724600	0.240200
H281	H28	0.600900	0.667800	0.242700
C431	C43	0.700400	0.755200	0.188800
C441	C44	0.736200	0.698200	0.137000
C451	C45	0.739200	0.839800	0.185100
H291	H29	0.786100	0.861900	0.150500
C461	C46	0.709000	0.892900	0.232300
C471	C47	0.746100	0.985100	0.237300
C481	C48	0.696300	0.084900	0.192200
H301	H30	0.728500	0.066400	0.153800
H311	H31	0.724800	0.139900	0.195900
H321	H32	0.604300	0.111000	0.198600
C491	C49	0.891500	0.950400	0.233200
H331	H33	0.923300	0.884400	0.259200
H341	H34	0.910400	0.005700	0.243400
H351	H35	0.932000	0.940000	0.194000
C501	C50	0.680700	0.005000	0.298900
C511	C51	0.678900	0.079600	0.328400
H361	H36	0.719700	0.128300	0.310300
O11	O1	0.779400	0.561900	0.952800
O21	O2	0.984900	0.463400	0.934600
O31	O3	0.468900	0.542700	0.575930
O41	O4	0.643200	0.419000	0.536890
O51	O5	0.928900	0.687800	0.964500
O61	O6	0.130900	0.586400	0.933400
O71	O7	0.653300	0.195400	0.578470
O81	O8	0.826400	0.147600	0.513900
O91	O9	0.569800	0.159200	0.471750
O101	O10	0.669700	0.230700	0.393300
O111	O11	0.721600	0.610900	0.142000
O121	O12	0.784100	0.741700	0.088800
Gd31	Gd3	0.359340	0.701190	0.517300
Gd41	Gd4	0.184040	0.401900	0.961730
C521	C52	0.125600	0.499400	0.077000
C531	C53	0.151300	0.527000	0.128700
C541	C54	0.070100	0.618400	0.150500
H371	H37	0.998300	0.662300	0.133500
C551	C55	0.093300	0.646500	0.197600
H381	H38	0.037800	0.709200	0.211900
C561	C56	0.199700	0.580700	0.223000
C571	C57	0.245800	0.586800	0.273700
C581	C58	0.196800	0.661700	0.311400
H391	H39	0.125400	0.723300	0.304900
C591	C59	0.256300	0.642900	0.358800
H401	H40	0.224300	0.692700	0.384300
C601	C60	0.361800	0.552100	0.369100
C611	C61	0.420300	0.529100	0.422000
C621	C62	0.413300	0.478100	0.329900
H411	H41	0.486500	0.417900	0.335600
C631	C63	0.355000	0.495300	0.283000
C641	C64	0.388900	0.424300	0.237400
C651	C65	0.521900	0.411800	0.202500
H421	H42	0.584300	0.374600	0.227900
H431	H43	0.538600	0.371000	0.172100
H441	H44	0.526800	0.481400	0.185700
C661	C66	0.381900	0.311900	0.265300
H451	H45	0.300800	0.320200	0.290200
H461	H46	0.390700	0.272800	0.235200
H471	H47	0.449900	0.273000	0.287700
C671	C67	0.283200	0.487200	0.200500
C681	C68	0.258800	0.461000	0.153900
H481	H48	0.314200	0.398900	0.139000
C691	C69	0.973800	0.338200	0.074200
C701	C70	0.984500	0.275300	0.134300
C711	C71	0.884700	0.305900	0.179900
H491	H49	0.810000	0.363700	0.172700
C721	C72	0.895200	0.251100	0.236500
H501	H50	0.827900	0.271700	0.266900
C731	C73	0.006300	0.166100	0.247000
C741	C74	0.046200	0.096200	0.301000
C751	C75	0.983600	0.096700	0.357500
H511	H51	0.902900	0.148000	0.366500
C761	C76	0.042200	0.020500	0.400400
H521	H52	0.999200	0.018700	0.438600
C771	C77	0.166900	0.944200	0.387900
C781	C78	0.232100	0.863100	0.434100
C791	C79	0.229100	0.945200	0.331000
H531	H53	0.310900	0.895600	0.321900
C801	C80	0.168600	0.020400	0.288100
C811	C81	0.220600	0.037500	0.222100
C821	C82	0.340500	0.067000	0.211500
H541	H54	0.325200	0.122100	0.233700
H551	H55	0.411100	0.004400	0.223200
H561	H56	0.360500	0.092900	0.170900
C831	C83	0.248800	0.937100	0.195800
H571	H57	0.264500	0.954000	0.154100
H581	H58	0.322900	0.880300	0.208900
H591	H59	0.176400	0.914200	0.207800
C841	C84	0.105900	0.133300	0.201000
C851	C85	0.095500	0.188800	0.144700
H601	H60	0.162500	0.168000	0.114300
C861	C86	0.381000	0.838500	0.581500
C871	C87	0.383300	0.917400	0.615000
C881	C88	0.446200	0.989900	0.588800
H611	H61	0.489600	0.986600	0.550900
C891	C89	0.445800	0.066200	0.617800
H621	H62	0.487000	0.114600	0.599600
C901	C90	0.382200	0.068400	0.674800
C911	C91	0.363400	0.138800	0.716600
C921	C92	0.404500	0.223100	0.712000
H631	H63	0.452900	0.244500	0.677700
C931	C93	0.371900	0.275400	0.759800
H641	H64	0.399100	0.332200	0.757300
C941	C94	0.299600	0.244800	0.811200
C951	C95	0.263800	0.301800	0.863000
C961	C96	0.260800	0.160200	0.814900
H651	H65	0.213900	0.138100	0.849500
C971	C97	0.291000	0.107100	0.767700
C981	C98	0.253900	0.014900	0.762700
C991	C99	0.303700	0.915100	0.807800
H661	H66	0.271500	0.933600	0.846200
H671	H67	0.275200	0.860100	0.804100
H681	H68	0.395700	0.889000	0.801400
C1001	C100	0.108500	0.049600	0.766800
H691	H69	0.076700	0.115600	0.740800
H701	H70	0.089600	0.994300	0.756600
H711	H71	0.068000	0.060000	0.806000
C1011	C101	0.319300	0.995000	0.701100
C1021	C102	0.321100	0.920400	0.671600
H721	H72	0.280300	0.871700	0.689700
O131	O13	0.220600	0.438100	0.047200
O141	O14	0.015100	0.536600	0.065400
O151	O15	0.531100	0.457300	0.424070
O161	O16	0.356800	0.581000	0.463110
O171	O17	0.071100	0.312200	0.035500
O181	O18	0.869100	0.413600	0.066600
O191	O19	0.346700	0.804600	0.421530
O201	O20	0.173600	0.852400	0.486100
O211	O21	0.430200	0.840800	0.528250
O221	O22	0.330300	0.769300	0.606700
O231	O23	0.278400	0.389100	0.858000
O241	O24	0.215900	0.258300	0.911200
