data_LADWAR_clean_PM
_symmetry_space_group_name_H-M	'P1'
_cell_length_a	8.716700
_cell_length_b	9.752000
_cell_length_c	13.864200
_cell_angle_alpha	84.030000
_cell_angle_beta	79.446000
_cell_angle_gamma	73.029000
_symmetry_Int_Tables_number 1

loop_
_symmetry_equiv_pos_as_xyz
'x,y,z'

loop_
_atom_site_label
_atom_site_type_symbol
_atom_site_fract_x
_atom_site_fract_y
_atom_site_fract_z
C11	C1	0.007800	0.631100	0.920200
H11	H1	0.994100	0.697300	0.968800
C21	C2	0.869100	0.619900	0.888700
C31	C3	0.892100	0.527300	0.814000
H21	H2	0.801600	0.520200	0.787800
C41	C4	0.047300	0.445600	0.778000
C51	C5	0.177300	0.460800	0.817100
H31	H3	0.283500	0.402800	0.794100
C61	C6	0.075000	0.346200	0.696200
C71	C7	0.929800	0.935100	0.107700
H41	H4	0.947900	0.869600	0.058000
C81	C8	0.063400	0.942500	0.146200
C91	C9	0.033200	0.037300	0.221100
H51	H5	0.119700	0.043900	0.251600
C101	C10	0.875500	0.121900	0.250600
C111	C11	0.752100	0.107500	0.205600
H61	H6	0.645000	0.166500	0.225100
C121	C12	0.830600	0.219500	0.335000
Co11	Co1	0.361930	0.584150	0.939750
Co21	Co2	0.577200	0.978890	0.088480
Co31	Co3	0.939890	0.275480	0.522390
N11	N1	0.159100	0.554100	0.886000
N21	N2	0.776200	0.014700	0.136300
O11	O1	0.583100	0.822100	0.873470
O21	O2	0.704300	0.785000	0.032760
O31	O3	0.579300	0.602300	0.982410
O41	O4	0.963700	0.375500	0.643870
O51	O5	0.202700	0.244100	0.684210
O61	O6	0.330300	0.742000	0.190890
O71	O7	0.233600	0.736200	0.028070
O81	O8	0.368000	0.926500	0.053970
O91	O9	0.712400	0.328700	0.335330
O101	O10	0.916100	0.176000	0.403000
P11	P1	0.670100	0.718060	0.948620
P21	P2	0.264870	0.827520	0.100860
C131	C13	0.992200	0.368900	0.079800
H71	H7	0.005900	0.302700	0.031200
C141	C14	0.130900	0.380100	0.111300
C151	C15	0.107900	0.472700	0.186000
H81	H8	0.198400	0.479800	0.212200
C161	C16	0.952700	0.554400	0.222000
C171	C17	0.822700	0.539200	0.182900
H91	H9	0.716500	0.597200	0.205900
C181	C18	0.925000	0.653800	0.303800
C191	C19	0.070200	0.064900	0.892300
H101	H10	0.052100	0.130400	0.942000
C201	C20	0.936600	0.057500	0.853800
C211	C21	0.966800	0.962700	0.778900
H111	H11	0.880300	0.956100	0.748400
C221	C22	0.124500	0.878100	0.749400
C231	C23	0.247900	0.892500	0.794400
H121	H12	0.355000	0.833500	0.774900
C241	C24	0.169400	0.780500	0.665000
Co41	Co4	0.638070	0.415850	0.060250
Co51	Co5	0.422800	0.021110	0.911520
Co61	Co6	0.060110	0.724520	0.477610
N31	N3	0.840900	0.445900	0.114000
N41	N4	0.223800	0.985300	0.863700
O111	O11	0.416900	0.177900	0.126530
O121	O12	0.295700	0.215000	0.967240
O131	O13	0.420700	0.397700	0.017590
O141	O14	0.036300	0.624500	0.356130
O151	O15	0.797300	0.755900	0.315790
O161	O16	0.669700	0.258000	0.809110
O171	O17	0.766400	0.263800	0.971930
O181	O18	0.632000	0.073500	0.946030
O191	O19	0.287600	0.671300	0.664670
O201	O20	0.083900	0.824000	0.597000
P31	P3	0.329900	0.281940	0.051380
P41	P4	0.735130	0.172480	0.899140
