data_LAGNEO_clean_PM
_symmetry_space_group_name_H-M	'P1'
_cell_length_a	10.046300
_cell_length_b	10.426500
_cell_length_c	12.738500
_cell_angle_alpha	109.095000
_cell_angle_beta	95.262000
_cell_angle_gamma	118.275000
_symmetry_Int_Tables_number 1

loop_
_symmetry_equiv_pos_as_xyz
'x,y,z'

loop_
_atom_site_label
_atom_site_type_symbol
_atom_site_fract_x
_atom_site_fract_y
_atom_site_fract_z
Y11	Y1	0.526610	0.978100	0.697760
Y21	Y2	0.473390	0.021900	0.302240
H11	H1	0.931300	0.867400	0.801100
H21	H2	0.871300	0.121300	0.082600
H31	H3	0.695000	0.549100	0.908100
H41	H4	0.319700	0.240500	0.972200
H51	H5	0.941400	0.062300	0.674400
H61	H6	0.855300	0.982800	0.337600
H71	H7	0.068700	0.132600	0.198900
H81	H8	0.128700	0.878700	0.917400
H91	H9	0.305000	0.450900	0.091900
H101	H10	0.680300	0.759500	0.027800
H111	H11	0.058600	0.937700	0.325600
H121	H12	0.144700	0.017200	0.662400
C11	C1	0.880000	0.992600	0.929700
C21	C2	0.958700	0.921000	0.881500
C31	C3	0.922900	0.072000	0.048900
C41	C4	0.750800	0.984100	0.852500
C51	C5	0.509400	0.372900	0.927700
C61	C6	0.616300	0.528900	0.945000
C71	C7	0.392500	0.344800	0.983200
C81	C8	0.515300	0.233800	0.847800
C91	C9	0.877500	0.027700	0.507400
C101	C10	0.965000	0.037400	0.604400
C111	C11	0.913300	0.989900	0.402800
C121	C12	0.741200	0.051700	0.513800
C131	C13	0.120000	0.007400	0.070300
C141	C14	0.041300	0.079000	0.118500
C151	C15	0.077100	0.928000	0.951100
C161	C16	0.249200	0.015900	0.147500
C171	C17	0.490600	0.627100	0.072300
C181	C18	0.383700	0.471100	0.055000
C191	C19	0.607500	0.655200	0.016800
C201	C20	0.484700	0.766200	0.152200
C211	C21	0.122500	0.972300	0.492600
C221	C22	0.035000	0.962600	0.395600
C231	C23	0.086700	0.010100	0.597200
C241	C24	0.258800	0.948300	0.486200
O11	O1	0.696000	0.887500	0.746700
O21	O2	0.700200	0.073000	0.891200
O31	O3	0.615600	0.260200	0.791100
O41	O4	0.421400	0.095400	0.838000
O51	O5	0.712500	0.085000	0.609800
O61	O6	0.663000	0.032600	0.422100
O71	O7	0.304000	0.112500	0.253300
O81	O8	0.299800	0.927000	0.108800
O91	O9	0.384400	0.739800	0.208900
O101	O10	0.578600	0.904600	0.162000
O111	O11	0.287500	0.915000	0.390200
O121	O12	0.337000	0.967400	0.577900
