data_LAGNOY_clean_PM
_symmetry_space_group_name_H-M	'P1'
_cell_length_a	10.747100
_cell_length_b	10.747100
_cell_length_c	18.761000
_cell_angle_alpha	73.812400
_cell_angle_beta	73.812400
_cell_angle_gamma	64.502400
_symmetry_Int_Tables_number 1

loop_
_symmetry_equiv_pos_as_xyz
'x,y,z'

loop_
_atom_site_label
_atom_site_type_symbol
_atom_site_fract_x
_atom_site_fract_y
_atom_site_fract_z
Y11	Y1	0.565030	0.437190	0.395650
Y21	Y2	0.562810	0.434970	0.104350
Y31	Y3	0.434970	0.562810	0.604350
Y41	Y4	0.437190	0.565030	0.895650
H11	H1	0.201800	0.456600	0.409300
H21	H2	0.897600	0.510600	0.269900
H31	H3	0.989700	0.567700	0.609000
H41	H4	0.799800	0.616400	0.064700
H51	H5	0.017100	0.623500	0.011300
H61	H6	0.116300	0.514900	0.216100
H71	H7	0.543400	0.798200	0.090700
H81	H8	0.489400	0.102400	0.230100
H91	H9	0.432300	0.010300	0.891000
H101	H10	0.383600	0.200200	0.435300
H111	H11	0.376500	0.982900	0.488700
H121	H12	0.485100	0.883700	0.283900
H131	H13	0.798200	0.543400	0.590700
H141	H14	0.102400	0.489400	0.730100
H151	H15	0.010300	0.432300	0.391000
H161	H16	0.200200	0.383600	0.935300
H171	H17	0.982900	0.376500	0.988700
H181	H18	0.883700	0.485100	0.783900
H191	H19	0.456600	0.201800	0.909300
H201	H20	0.510600	0.897600	0.769900
H211	H21	0.567700	0.989700	0.109000
H221	H22	0.616400	0.799800	0.564700
H231	H23	0.623500	0.017100	0.511300
H241	H24	0.514900	0.116300	0.716100
C11	C1	0.689100	0.543300	0.206900
C21	C2	0.115800	0.514800	0.511200
C31	C3	0.091200	0.565800	0.107000
C41	C4	0.238400	0.554000	0.071100
C51	C5	0.827200	0.559600	0.172800
C61	C6	0.240600	0.529000	0.523300
C71	C7	0.120600	0.474200	0.445900
C81	C8	0.922300	0.531500	0.217700
C91	C9	0.994300	0.540500	0.565100
C101	C10	0.863800	0.595000	0.095300
C111	C11	0.994200	0.598400	0.063400
C121	C12	0.052900	0.534100	0.185500
C131	C13	0.456700	0.310900	0.293100
C141	C14	0.485200	0.884200	0.988800
C151	C15	0.434200	0.908800	0.393000
C161	C16	0.446000	0.761600	0.428900
C171	C17	0.440400	0.172800	0.327200
C181	C18	0.471000	0.759400	0.976700
C191	C19	0.525800	0.879400	0.054100
C201	C20	0.468500	0.077700	0.282300
C211	C21	0.459500	0.005700	0.934900
C221	C22	0.405000	0.136200	0.404700
C231	C23	0.401600	0.005800	0.436600
C241	C24	0.465900	0.947100	0.314500
C251	C25	0.310900	0.456700	0.793100
C261	C26	0.884200	0.485200	0.488800
C271	C27	0.908800	0.434200	0.893000
C281	C28	0.761600	0.446000	0.928900
C291	C29	0.172800	0.440400	0.827200
C301	C30	0.759400	0.471000	0.476700
C311	C31	0.879400	0.525800	0.554100
C321	C32	0.077700	0.468500	0.782300
C331	C33	0.005700	0.459500	0.434900
C341	C34	0.136200	0.405000	0.904700
C351	C35	0.005800	0.401600	0.936600
C361	C36	0.947100	0.465900	0.814500
C371	C37	0.543300	0.689100	0.706900
C381	C38	0.514800	0.115800	0.011200
C391	C39	0.565800	0.091200	0.607000
C401	C40	0.554000	0.238400	0.571100
C411	C41	0.559600	0.827200	0.672800
C421	C42	0.529000	0.240600	0.023300
C431	C43	0.474200	0.120600	0.945900
C441	C44	0.531500	0.922300	0.717700
C451	C45	0.540500	0.994300	0.065100
C461	C46	0.595000	0.863800	0.595300
C471	C47	0.598400	0.994200	0.563400
C481	C48	0.534100	0.052900	0.685500
O11	O1	0.660500	0.515100	0.277070
O21	O2	0.611900	0.559700	0.162980
O31	O3	0.351900	0.496700	0.476000
O41	O4	0.326600	0.508600	0.112700
O51	O5	0.228500	0.571900	0.581400
O61	O6	0.261100	0.591300	0.000680
O71	O7	0.484900	0.339500	0.222930
O81	O8	0.440300	0.388100	0.337020
O91	O9	0.503300	0.648100	0.024000
O101	O10	0.491400	0.673400	0.387300
O111	O11	0.428100	0.771500	0.918600
O121	O12	0.408700	0.738900	0.499320
O131	O13	0.339500	0.484900	0.722930
O141	O14	0.388100	0.440300	0.837020
O151	O15	0.648100	0.503300	0.524000
O161	O16	0.673400	0.491400	0.887300
O171	O17	0.771500	0.428100	0.418600
O181	O18	0.738900	0.408700	0.999320
O191	O19	0.515100	0.660500	0.777070
O201	O20	0.559700	0.611900	0.662980
O211	O21	0.496700	0.351900	0.976000
O221	O22	0.508600	0.326600	0.612700
O231	O23	0.571900	0.228500	0.081400
O241	O24	0.591300	0.261100	0.500680
