data_LAGNIS_clean_PM
_symmetry_space_group_name_H-M	'P1'
_cell_length_a	10.014900
_cell_length_b	10.187200
_cell_length_c	11.834700
_cell_angle_alpha	67.770000
_cell_angle_beta	72.895000
_cell_angle_gamma	64.328000
_symmetry_Int_Tables_number 1

loop_
_symmetry_equiv_pos_as_xyz
'x,y,z'

loop_
_atom_site_label
_atom_site_type_symbol
_atom_site_fract_x
_atom_site_fract_y
_atom_site_fract_z
Y11	Y1	0.952870	0.230540	0.802470
Y21	Y2	0.047130	0.769460	0.197530
H11	H1	0.440600	0.494100	0.704300
H21	H2	0.746100	0.408100	0.411100
H31	H3	0.321000	0.893500	0.547200
H41	H4	0.447900	0.210100	0.561300
H51	H5	0.624900	0.857200	0.169100
H61	H6	0.623900	0.107700	0.814400
H71	H7	0.559400	0.505900	0.295700
H81	H8	0.253900	0.591900	0.588900
H91	H9	0.679000	0.106500	0.452800
H101	H10	0.552100	0.789900	0.438700
H111	H11	0.375100	0.142800	0.830900
H121	H12	0.376100	0.892300	0.185600
C11	C1	0.614000	0.439100	0.570900
C21	C2	0.465200	0.496000	0.621700
C31	C3	0.646700	0.444900	0.447600
C41	C4	0.736400	0.372300	0.646600
C51	C5	0.358400	0.064300	0.564900
C61	C6	0.392800	0.936700	0.528000
C71	C7	0.468400	0.126000	0.536500
C81	C8	0.211700	0.126500	0.641200
C91	C9	0.648500	0.980400	0.990300
C101	C10	0.575100	0.914800	0.101200
C111	C11	0.573800	0.064600	0.889300
C121	C12	0.807400	0.964800	0.981100
C131	C13	0.386000	0.560900	0.429100
C141	C14	0.534800	0.504000	0.378300
C151	C15	0.353300	0.555100	0.552400
C161	C16	0.263600	0.627700	0.353400
C171	C17	0.641600	0.935700	0.435100
C181	C18	0.607200	0.063300	0.472000
C191	C19	0.531600	0.874000	0.463500
C201	C20	0.788300	0.873500	0.358800
C211	C21	0.351500	0.019600	0.009700
C221	C22	0.424900	0.085200	0.898800
C231	C23	0.426200	0.935400	0.110700
C241	C24	0.192600	0.035200	0.018900
O11	O1	0.703400	0.386200	0.753400
O21	O2	0.868700	0.303400	0.605700
O31	O3	0.135700	0.042600	0.700100
O41	O4	0.169400	0.258300	0.649400
O51	O5	0.866200	0.037900	0.881400
O61	O6	0.871100	0.882200	0.073100
O71	O7	0.296600	0.613800	0.246600
O81	O8	0.131300	0.696600	0.394300
O91	O9	0.864300	0.957400	0.299900
O101	O10	0.830600	0.741700	0.350600
O111	O11	0.133800	0.962100	0.118600
O121	O12	0.128900	0.117800	0.926900
