data_LAGNAK_clean_PM
_symmetry_space_group_name_H-M	'P1'
_cell_length_a	9.848800
_cell_length_b	10.613000
_cell_length_c	12.633600
_cell_angle_alpha	69.658000
_cell_angle_beta	73.772000
_cell_angle_gamma	62.537000
_symmetry_Int_Tables_number 1

loop_
_symmetry_equiv_pos_as_xyz
'x,y,z'

loop_
_atom_site_label
_atom_site_type_symbol
_atom_site_fract_x
_atom_site_fract_y
_atom_site_fract_z
Y11	Y1	0.048890	0.780070	0.691200
Y21	Y2	0.951110	0.219930	0.308800
H11	H1	0.244600	0.626800	0.061300
H21	H2	0.578200	0.485600	0.813700
H31	H3	0.385300	0.889700	0.670600
H41	H4	0.363500	0.134000	0.345700
H51	H5	0.656400	0.128100	0.927600
H61	H6	0.557200	0.796500	0.938500
H71	H7	0.755400	0.373200	0.938700
H81	H8	0.421800	0.514400	0.186300
H91	H9	0.614700	0.110300	0.329400
H101	H10	0.636500	0.866000	0.654300
H111	H11	0.343600	0.871900	0.072400
H121	H12	0.442800	0.203500	0.061500
C11	C1	0.391600	0.570400	0.923300
C21	C2	0.348000	0.575900	0.035600
C31	C3	0.545500	0.492400	0.888800
C41	C4	0.275400	0.645100	0.840900
C51	C5	0.350800	0.013600	0.509800
C61	C6	0.431500	0.933700	0.602400
C71	C7	0.418400	0.080400	0.407300
C81	C8	0.189900	0.025600	0.519100
C91	C9	0.630900	0.954400	0.918600
C101	C10	0.593800	0.076200	0.956600
C111	C11	0.534900	0.878100	0.962900
C121	C12	0.774400	0.901200	0.836000
C131	C13	0.608400	0.429600	0.076700
C141	C14	0.652000	0.424100	0.964400
C151	C15	0.454500	0.507600	0.111200
C161	C16	0.724600	0.354900	0.159100
C171	C17	0.649200	0.986400	0.490200
C181	C18	0.568500	0.066300	0.397600
C191	C19	0.581600	0.919600	0.592700
C201	C20	0.810100	0.974400	0.480900
C211	C21	0.369100	0.045600	0.081400
C221	C22	0.406200	0.923800	0.043400
C231	C23	0.465100	0.121900	0.037100
C241	C24	0.225600	0.098800	0.164000
O11	O1	0.136700	0.723900	0.872490
O21	O2	0.316300	0.626800	0.741370
O31	O3	0.134200	0.960100	0.611830
O41	O4	0.121900	0.101600	0.433280
O51	O5	0.818400	0.776000	0.820510
O61	O6	0.849800	0.979600	0.783680
O71	O7	0.863300	0.276100	0.127510
O81	O8	0.683700	0.373200	0.258630
O91	O9	0.865800	0.039900	0.388170
O101	O10	0.878100	0.898400	0.566720
O111	O11	0.181600	0.224000	0.179490
O121	O12	0.150200	0.020400	0.216320
