data_LAGPAM_clean_PM
_symmetry_space_group_name_H-M	'P1'
_cell_length_a	9.365900
_cell_length_b	10.566200
_cell_length_c	11.078100
_cell_angle_alpha	98.841000
_cell_angle_beta	112.937000
_cell_angle_gamma	113.844000
_symmetry_Int_Tables_number 1

loop_
_symmetry_equiv_pos_as_xyz
'x,y,z'

loop_
_atom_site_label
_atom_site_type_symbol
_atom_site_fract_x
_atom_site_fract_y
_atom_site_fract_z
Y11	Y1	0.302390	0.989500	0.023670
Y21	Y2	0.697610	0.010500	0.976330
H11	H1	0.789400	0.359900	0.992900
H21	H2	0.951000	0.599200	0.009100
H31	H3	0.494100	0.597600	0.795900
H41	H4	0.332600	0.364600	0.795900
H51	H5	0.909000	0.607100	0.631100
H61	H6	0.300800	0.611900	0.563000
H71	H7	0.210600	0.640100	0.007100
H81	H8	0.049000	0.400800	0.990900
H91	H9	0.505900	0.402400	0.204100
H101	H10	0.667400	0.635400	0.204100
H111	H11	0.091000	0.392900	0.368900
H121	H12	0.699200	0.388100	0.437000
C11	C1	0.543800	0.337400	0.894400
C21	C2	0.729500	0.408400	0.955800
C31	C3	0.825800	0.550000	0.962100
C41	C4	0.737900	0.620200	0.899200
C51	C5	0.553900	0.550600	0.837200
C61	C6	0.457100	0.410300	0.836200
C71	C7	0.442600	0.190200	0.904300
C81	C8	0.847700	0.776100	0.908300
C91	C9	0.126600	0.630000	0.618400
C101	C10	0.945900	0.563800	0.578900
C111	C11	0.179900	0.566600	0.538100
C121	C12	0.262700	0.771200	0.745700
C131	C13	0.456200	0.662600	0.105600
C141	C14	0.270500	0.591600	0.044200
C151	C15	0.174200	0.450000	0.037900
C161	C16	0.262100	0.379800	0.100800
C171	C17	0.446100	0.449400	0.162800
C181	C18	0.542900	0.589700	0.163800
C191	C19	0.557400	0.809800	0.095700
C201	C20	0.152300	0.223900	0.091700
C211	C21	0.873400	0.370000	0.381600
C221	C22	0.054100	0.436200	0.421100
C231	C23	0.820100	0.433400	0.461900
C241	C24	0.737300	0.228800	0.254300
O11	O1	0.524500	0.120700	0.943700
O21	O2	0.288500	0.145300	0.884700
O31	O3	0.005500	0.821500	0.935100
O41	O4	0.773600	0.853200	0.885400
O51	O5	0.200100	0.828400	0.804900
O61	O6	0.425300	0.819700	0.785100
O71	O7	0.475500	0.879300	0.056300
O81	O8	0.711500	0.854700	0.115300
O91	O9	0.994500	0.178500	0.064900
O101	O10	0.226400	0.146800	0.114600
O111	O11	0.799900	0.171600	0.195100
O121	O12	0.574700	0.180300	0.214900
