data_LAGRES_clean_PM
_symmetry_space_group_name_H-M	'P1'
_cell_length_a	8.577600
_cell_length_b	10.195000
_cell_length_c	10.911500
_cell_angle_alpha	66.672000
_cell_angle_beta	69.425000
_cell_angle_gamma	78.113000
_symmetry_Int_Tables_number 1

loop_
_symmetry_equiv_pos_as_xyz
'x,y,z'

loop_
_atom_site_label
_atom_site_type_symbol
_atom_site_fract_x
_atom_site_fract_y
_atom_site_fract_z
Er11	Er1	0.346670	0.566060	0.846580
Er21	Er2	0.653330	0.433940	0.153420
H11	H1	0.795000	0.371300	0.515000
H21	H2	0.935100	0.658600	0.616600
H31	H3	0.288700	0.178400	0.022100
H41	H4	0.764400	0.028000	0.995000
H51	H5	0.853300	0.876400	0.726300
H61	H6	0.285800	0.949200	0.418400
H71	H7	0.205000	0.628700	0.485000
H81	H8	0.064900	0.341400	0.383400
H91	H9	0.711300	0.821600	0.977900
H101	H10	0.235600	0.972000	0.005000
H111	H11	0.146700	0.123600	0.273700
H121	H12	0.714200	0.050800	0.581600
C11	C1	0.662200	0.540100	0.667000
C21	C2	0.837500	0.518200	0.581000
C31	C3	0.877100	0.422400	0.509100
C41	C4	0.962200	0.594500	0.569500
C51	C5	0.563900	0.255700	0.020300
C61	C6	0.530100	0.124000	0.007400
C71	C7	0.374000	0.106900	0.012600
C81	C8	0.658700	0.017100	0.996400
C91	C9	0.171700	0.780000	0.684300
C101	C10	0.082400	0.894100	0.590000
C111	C11	0.913200	0.926300	0.634800
C121	C12	0.171200	0.969300	0.451800
C131	C13	0.337800	0.459900	0.333000
C141	C14	0.162500	0.481800	0.419000
C151	C15	0.122900	0.577600	0.490900
C161	C16	0.037800	0.405500	0.430500
C171	C17	0.436100	0.744300	0.979700
C181	C18	0.469900	0.876000	0.992600
C191	C19	0.626000	0.893100	0.987400
C201	C20	0.341300	0.982900	0.003600
C211	C21	0.828300	0.220000	0.315700
C221	C22	0.917600	0.105900	0.410000
C231	C23	0.086800	0.073700	0.365200
C241	C24	0.828800	0.030700	0.548200
O11	O1	0.631600	0.619200	0.739600
O21	O2	0.547100	0.480100	0.669700
O31	O3	0.479800	0.370500	0.976300
O41	O4	0.668600	0.245100	0.079400
O51	O5	0.326900	0.750300	0.636400
O61	O6	0.090800	0.711000	0.809000
O71	O7	0.368400	0.380800	0.260400
O81	O8	0.452900	0.519900	0.330300
O91	O9	0.520200	0.629500	0.023700
O101	O10	0.331400	0.754900	0.920600
O111	O11	0.673100	0.249700	0.363600
O121	O12	0.909200	0.289000	0.191000
