data_LAGTIY_clean_PM
_symmetry_space_group_name_H-M	'P1'
_cell_length_a	14.415500
_cell_length_b	14.415500
_cell_length_c	16.972500
_cell_angle_alpha	90.000000
_cell_angle_beta	90.000000
_cell_angle_gamma	120.000000
_symmetry_Int_Tables_number 1

loop_
_symmetry_equiv_pos_as_xyz
'x,y,z'

loop_
_atom_site_label
_atom_site_type_symbol
_atom_site_fract_x
_atom_site_fract_y
_atom_site_fract_z
Yb11	Yb1	0.202540	0.505940	0.383720
O11	O1	0.126900	0.544000	0.282000
O21	O2	0.873500	0.416700	0.984800
O31	O3	0.827000	0.543300	0.973600
O41	O4	0.173100	0.716200	0.294800
S11	S1	0.999900	0.505900	0.133600
C11	C1	0.874600	0.501800	0.005800
C21	C2	0.125400	0.628500	0.261100
C31	C3	0.940000	0.559600	0.076200
C41	C4	0.059900	0.619300	0.190900
C51	C5	0.035900	0.695900	0.166800
C61	C6	0.965300	0.659600	0.100000
Yb21	Yb2	0.494060	0.696600	0.383720
O51	O5	0.456000	0.582900	0.282000
O61	O6	0.583300	0.456800	0.984800
O71	O7	0.456700	0.283700	0.973600
O81	O8	0.283800	0.456900	0.294800
S21	S2	0.494100	0.494000	0.133600
C71	C7	0.498200	0.372800	0.005800
C81	C8	0.371500	0.496900	0.261100
C91	C9	0.440400	0.380400	0.076200
C101	C10	0.380700	0.440600	0.190900
C111	C11	0.304100	0.340000	0.166800
C121	C12	0.340400	0.305700	0.100000
Yb31	Yb3	0.303400	0.797460	0.383720
O91	O9	0.417100	0.873100	0.282000
O101	O10	0.543200	0.126500	0.984800
O111	O11	0.716300	0.173000	0.973600
O121	O12	0.543100	0.826900	0.294800
S31	S3	0.506000	0.000100	0.133600
C131	C13	0.627200	0.125400	0.005800
C141	C14	0.503100	0.874600	0.261100
C151	C15	0.619600	0.060000	0.076200
C161	C16	0.559400	0.940100	0.190900
C171	C17	0.660000	0.964100	0.166800
C181	C18	0.694300	0.034700	0.100000
Yb41	Yb4	0.505940	0.202540	0.883720
O131	O13	0.544000	0.126900	0.782000
O141	O14	0.416700	0.873500	0.484800
O151	O15	0.543300	0.827000	0.473600
O161	O16	0.716200	0.173100	0.794800
S41	S4	0.505900	0.999900	0.633600
C191	C19	0.501800	0.874600	0.505800
C201	C20	0.628500	0.125400	0.761100
C211	C21	0.559600	0.940000	0.576200
C221	C22	0.619300	0.059900	0.690900
C231	C23	0.695900	0.035900	0.666800
C241	C24	0.659600	0.965300	0.600000
Yb51	Yb5	0.696600	0.494060	0.883720
O171	O17	0.582900	0.456000	0.782000
O181	O18	0.456800	0.583300	0.484800
O191	O19	0.283700	0.456700	0.473600
O201	O20	0.456900	0.283800	0.794800
S51	S5	0.494000	0.494100	0.633600
C251	C25	0.372800	0.498200	0.505800
C261	C26	0.496900	0.371500	0.761100
C271	C27	0.380400	0.440400	0.576200
C281	C28	0.440600	0.380700	0.690900
C291	C29	0.340000	0.304100	0.666800
C301	C30	0.305700	0.340400	0.600000
Yb61	Yb6	0.797460	0.303400	0.883720
O211	O21	0.873100	0.417100	0.782000
O221	O22	0.126500	0.543200	0.484800
O231	O23	0.173000	0.716300	0.473600
O241	O24	0.826900	0.543100	0.794800
S61	S6	0.000100	0.506000	0.633600
C311	C31	0.125400	0.627200	0.505800
C321	C32	0.874600	0.503100	0.761100
C331	C33	0.060000	0.619600	0.576200
C341	C34	0.940100	0.559400	0.690900
C351	C35	0.964100	0.660000	0.666800
C361	C36	0.034700	0.694300	0.600000
O251	O25	0.333330	0.666670	0.384100
O261	O26	0.666670	0.333330	0.884100
