data_LAGWEX_clean_h_PM
_symmetry_space_group_name_H-M	'P1'
_cell_length_a	12.449800
_cell_length_b	13.815700
_cell_length_c	14.579000
_cell_angle_alpha	71.093000
_cell_angle_beta	64.724000
_cell_angle_gamma	63.219900
_symmetry_Int_Tables_number 1

loop_
_symmetry_equiv_pos_as_xyz
'x,y,z'

loop_
_atom_site_label
_atom_site_type_symbol
_atom_site_fract_x
_atom_site_fract_y
_atom_site_fract_z
Cd11	Cd1	0.986140	0.046250	0.610030
Cd21	Cd2	0.642420	0.453750	0.889970
Cd31	Cd3	0.013860	0.953750	0.389970
Cd41	Cd4	0.357580	0.546250	0.110030
Cd51	Cd5	0.717350	0.250000	0.750000
Cd61	Cd6	0.282650	0.750000	0.250000
C11	C1	0.836400	0.203600	0.495000
C21	C2	0.755000	0.285900	0.431300
C31	C3	0.664500	0.327900	0.300500
C41	C4	0.991900	0.042900	0.795100
C51	C5	0.996600	0.021800	0.901200
C61	C6	0.741000	0.252600	0.358600
C71	C7	0.510500	0.517300	0.257700
C81	C8	0.601500	0.436100	0.316300
C91	C9	0.904300	0.092000	0.970400
C101	C10	0.692400	0.395000	0.446600
C111	C11	0.616600	0.470100	0.388700
C121	C12	0.092300	0.930000	0.930400
C131	C13	0.535000	0.296400	0.005000
C141	C14	0.472200	0.214100	0.068700
C151	C15	0.292900	0.172100	0.199500
C161	C16	0.829900	0.457100	0.704900
C171	C17	0.919600	0.478200	0.598800
C181	C18	0.352200	0.247400	0.141400
C191	C19	0.285500	0.982700	0.242300
C201	C20	0.353900	0.063900	0.183700
C211	C21	0.966700	0.408000	0.529600
C221	C22	0.534000	0.105000	0.053400
C231	C23	0.475400	0.029900	0.111300
C241	C24	0.952700	0.570000	0.569600
C251	C25	0.163600	0.796400	0.505000
C261	C26	0.245000	0.714100	0.568700
C271	C27	0.335500	0.672100	0.699500
C281	C28	0.008100	0.957100	0.204900
C291	C29	0.003400	0.978200	0.098800
C301	C30	0.259000	0.747400	0.641400
C311	C31	0.489500	0.482700	0.742300
C321	C32	0.398500	0.563900	0.683700
C331	C33	0.095700	0.908000	0.029600
C341	C34	0.307600	0.605000	0.553400
C351	C35	0.383400	0.529900	0.611300
C361	C36	0.907700	0.070000	0.069600
C371	C37	0.465000	0.703600	0.995000
C381	C38	0.527800	0.785900	0.931300
C391	C39	0.707100	0.827900	0.800500
C401	C40	0.170100	0.542900	0.295100
C411	C41	0.080400	0.521800	0.401200
C421	C42	0.647800	0.752600	0.858600
C431	C43	0.714500	0.017300	0.757700
C441	C44	0.646100	0.936100	0.816300
C451	C45	0.033300	0.592000	0.470400
C461	C46	0.466000	0.895000	0.946600
C471	C47	0.524600	0.970100	0.888700
C481	C48	0.047300	0.430000	0.430400
O11	O1	0.913190	0.112720	0.466300
O21	O2	0.828820	0.226860	0.574900
O31	O3	0.507900	0.485300	0.188100
O41	O4	0.908500	0.127000	0.767400
O51	O5	0.445000	0.610900	0.284900
O61	O6	0.070000	0.974200	0.737200
O71	O7	0.492210	0.387280	0.033700
O81	O8	0.630580	0.273140	0.925100
O91	O9	0.181300	0.014700	0.311900
O101	O10	0.802900	0.373000	0.732600
O111	O11	0.340800	0.889100	0.215100
O121	O12	0.781400	0.525800	0.762800
O131	O13	0.086810	0.887280	0.533700
O141	O14	0.171180	0.773140	0.425100
O151	O15	0.492100	0.514700	0.811900
O161	O16	0.091500	0.873000	0.232600
O171	O17	0.555000	0.389100	0.715100
O181	O18	0.930000	0.025800	0.262800
O191	O19	0.507790	0.612720	0.966300
O201	O20	0.369420	0.726860	0.074900
O211	O21	0.818700	0.985300	0.688100
O221	O22	0.197100	0.627000	0.267400
O231	O23	0.659200	0.110900	0.784900
O241	O24	0.218600	0.474200	0.237200
H11	H1	0.653820	0.300450	0.240070
H21	H2	0.792240	0.163250	0.346230
H31	H3	0.826080	0.167330	0.946080
H41	H4	0.703730	0.422230	0.506810
H51	H5	0.566470	0.559750	0.400120
H61	H6	0.168210	0.872540	0.873160
H71	H7	0.194340	0.199550	0.259930
H81	H8	0.301730	0.336750	0.153770
H91	H9	0.939480	0.332670	0.553920
H101	H10	0.632770	0.077770	0.993190
H111	H11	0.526340	0.940250	0.099880
H121	H12	0.913900	0.627460	0.626840
H131	H13	0.346180	0.699550	0.759930
H141	H14	0.207670	0.836780	0.653650
H151	H15	0.174170	0.832540	0.053450
H161	H16	0.296270	0.577770	0.493190
H171	H17	0.433530	0.440250	0.599880
H181	H18	0.831890	0.127360	0.126960
H191	H19	0.805660	0.800450	0.740070
H201	H20	0.698110	0.663220	0.846350
H211	H21	0.060520	0.667330	0.446080
H221	H22	0.367230	0.922230	0.006810
H231	H23	0.473510	0.059710	0.900230
H241	H24	0.086200	0.372640	0.373040
