data_LAHVAU_clean_PM
_symmetry_space_group_name_H-M	'P1'
_cell_length_a	12.200000
_cell_length_b	26.580000
_cell_length_c	18.620000
_cell_angle_alpha	90.000000
_cell_angle_beta	104.820000
_cell_angle_gamma	90.000000
_symmetry_Int_Tables_number 1

loop_
_symmetry_equiv_pos_as_xyz
'x,y,z'

loop_
_atom_site_label
_atom_site_type_symbol
_atom_site_fract_x
_atom_site_fract_y
_atom_site_fract_z
Cd11	Cd1	0.784040	0.829990	0.796380
Cd21	Cd2	0.383880	0.671290	0.778530
O11	O1	0.215300	0.622700	0.730000
O21	O2	0.924200	0.876100	0.752400
O31	O3	0.345000	0.596000	0.821600
C11	C1	0.561500	0.819200	0.664400
H11	H1	0.536800	0.804300	0.702700
O41	O4	0.306800	0.730000	0.836500
O51	O5	0.859100	0.904900	0.844400
O61	O6	0.903500	0.767000	0.841300
N11	N1	0.669100	0.834000	0.873000
N21	N2	0.432000	0.661900	0.670400
O71	O7	0.368600	0.758300	0.740800
O81	O8	0.752200	0.742100	0.760700
C21	C2	0.535200	0.838700	0.973400
C31	C3	0.013500	0.676400	0.844000
H21	H2	0.048600	0.700200	0.879000
N31	N3	0.663000	0.840300	0.684000
C41	C4	0.250900	0.593700	0.776400
C51	C5	0.288700	0.854900	0.755100
H31	H3	0.330200	0.850100	0.720100
C61	C6	0.854600	0.735000	0.802500
C71	C7	0.922600	0.909000	0.800100
C81	C8	0.487800	0.816100	0.595100
C91	C9	0.012800	0.593600	0.788900
C101	C10	0.215500	0.824900	0.853800
H41	H4	0.213700	0.800300	0.889000
C111	C11	0.105400	0.955500	0.805200
C121	C12	0.072900	0.546100	0.787100
C131	C13	0.275400	0.816300	0.803500
C141	C14	0.992100	0.955200	0.806400
C151	C15	0.538500	0.797700	0.930400
H51	H5	0.493800	0.769800	0.933300
C161	C16	0.360800	0.644400	0.608500
H61	H6	0.293300	0.630000	0.613000
C171	C17	0.670900	0.875500	0.919300
H71	H7	0.718400	0.902100	0.915200
C181	C18	0.321300	0.766100	0.794000
C191	C19	0.169800	0.908300	0.805700
C201	C20	0.158300	0.868000	0.854700
H81	H8	0.111600	0.871700	0.886800
C211	C21	0.238700	0.899200	0.761500
H91	H9	0.253200	0.925800	0.732800
C221	C22	0.533800	0.838000	0.537500
C231	C23	0.899500	0.686000	0.794800
C241	C24	0.524000	0.682000	0.656900
H101	H10	0.571900	0.696400	0.698800
C251	C25	0.066900	0.631600	0.836900
H111	H11	0.141000	0.626600	0.864900
C261	C26	0.188300	0.546000	0.786700
C271	C27	0.605700	0.797600	0.884300
H121	H12	0.607100	0.768200	0.857400
C281	C28	0.561800	0.686000	0.599200
C291	C29	0.610800	0.879800	0.968200
C301	C30	0.847400	0.648600	0.750600
H131	H13	0.772600	0.652700	0.723300
C311	C31	0.701700	0.860300	0.628900
H141	H14	0.770100	0.877700	0.640800
N41	N4	0.374000	0.798700	0.586900
C321	C32	0.644400	0.856000	0.556800
H151	H15	0.679300	0.865100	0.519800
C331	C33	0.906300	0.601800	0.744600
H161	H16	0.871400	0.577400	0.710600
C341	C34	0.379200	0.646000	0.539500
H171	H17	0.325800	0.635200	0.497300
C351	C35	0.489200	0.666100	0.537300
N51	N5	0.662800	0.706500	0.604400
N61	N6	0.611200	0.926900	0.004100
Cd31	Cd3	0.215960	0.829990	0.203620
Cd41	Cd4	0.616120	0.671290	0.221470
O91	O9	0.784700	0.622700	0.270000
O101	O10	0.075800	0.876100	0.247600
O111	O11	0.655000	0.596000	0.178400
C361	C36	0.438500	0.819200	0.335600
H181	H18	0.463200	0.804300	0.297300
O121	O12	0.693200	0.730000	0.163500
O131	O13	0.140900	0.904900	0.155600
O141	O14	0.096500	0.767000	0.158700
N71	N7	0.330900	0.834000	0.127000
N81	N8	0.568000	0.661900	0.329600
O151	O15	0.631400	0.758300	0.259200
O161	O16	0.247800	0.742100	0.239300
C371	C37	0.464800	0.838700	0.026600
C381	C38	0.986500	0.676400	0.156000
H191	H19	0.951400	0.700200	0.121000
N91	N9	0.337000	0.840300	0.316000
C391	C39	0.749100	0.593700	0.223600
C401	C40	0.711300	0.854900	0.244900
H201	H20	0.669800	0.850100	0.279900
C411	C41	0.145400	0.735000	0.197500
C421	C42	0.077400	0.909000	0.199900
C431	C43	0.512200	0.816100	0.404900
C441	C44	0.987200	0.593600	0.211100
C451	C45	0.784500	0.824900	0.146200
H211	H21	0.786300	0.800300	0.111000
C461	C46	0.894600	0.955500	0.194800
C471	C47	0.927100	0.546100	0.212900
C481	C48	0.724600	0.816300	0.196500
C491	C49	0.007900	0.955200	0.193600
C501	C50	0.461500	0.797700	0.069600
H221	H22	0.506200	0.769800	0.066700
C511	C51	0.639200	0.644400	0.391500
H231	H23	0.706700	0.630000	0.387000
C521	C52	0.329100	0.875500	0.080700
H241	H24	0.281600	0.902100	0.084800
C531	C53	0.678700	0.766100	0.206000
C541	C54	0.830200	0.908300	0.194300
C551	C55	0.841700	0.868000	0.145300
H251	H25	0.888400	0.871700	0.113200
C561	C56	0.761300	0.899200	0.238500
H261	H26	0.746800	0.925800	0.267200
C571	C57	0.466200	0.838000	0.462500
C581	C58	0.100500	0.686000	0.205200
C591	C59	0.476000	0.682000	0.343100
H271	H27	0.428100	0.696400	0.301200
C601	C60	0.933100	0.631600	0.163100
H281	H28	0.859000	0.626600	0.135100
C611	C61	0.811700	0.546000	0.213300
C621	C62	0.394300	0.797600	0.115700
H291	H29	0.392900	0.768200	0.142600
C631	C63	0.438200	0.686000	0.400800
C641	C64	0.389200	0.879800	0.031800
C651	C65	0.152600	0.648600	0.249400
H301	H30	0.227400	0.652700	0.276700
C661	C66	0.298300	0.860300	0.371100
H311	H31	0.229900	0.877700	0.359200
N101	N10	0.626000	0.798700	0.413100
C671	C67	0.355600	0.856000	0.443200
H321	H32	0.320700	0.865100	0.480200
C681	C68	0.093700	0.601800	0.255400
H331	H33	0.128600	0.577400	0.289400
C691	C69	0.620800	0.646000	0.460500
H341	H34	0.674200	0.635200	0.502700
C701	C70	0.510800	0.666100	0.462700
N111	N11	0.337200	0.706500	0.395600
N121	N12	0.388800	0.926900	0.995900
Cd51	Cd5	0.215960	0.170010	0.203620
Cd61	Cd6	0.616120	0.328710	0.221470
O171	O17	0.784700	0.377300	0.270000
O181	O18	0.075800	0.123900	0.247600
O191	O19	0.655000	0.404000	0.178400
C711	C71	0.438500	0.180800	0.335600
H351	H35	0.463200	0.195700	0.297300
O201	O20	0.693200	0.270000	0.163500
O211	O21	0.140900	0.095100	0.155600
O221	O22	0.096500	0.233000	0.158700
N131	N13	0.330900	0.166000	0.127000
N141	N14	0.568000	0.338100	0.329600
O231	O23	0.631400	0.241700	0.259200
O241	O24	0.247800	0.257900	0.239300
C721	C72	0.464800	0.161300	0.026600
C731	C73	0.986500	0.323600	0.156000
H361	H36	0.951400	0.299800	0.121000
N151	N15	0.337000	0.159700	0.316000
C741	C74	0.749100	0.406300	0.223600
C751	C75	0.711300	0.145100	0.244900
H371	H37	0.669800	0.149900	0.279900
C761	C76	0.145400	0.265000	0.197500
C771	C77	0.077400	0.091000	0.199900
C781	C78	0.512200	0.183900	0.404900
C791	C79	0.987200	0.406400	0.211100
C801	C80	0.784500	0.175100	0.146200
H381	H38	0.786300	0.199700	0.111000
C811	C81	0.894600	0.044500	0.194800
C821	C82	0.927100	0.453900	0.212900
C831	C83	0.724600	0.183700	0.196500
C841	C84	0.007900	0.044800	0.193600
C851	C85	0.461500	0.202300	0.069600
H391	H39	0.506200	0.230200	0.066700
C861	C86	0.639200	0.355600	0.391500
H401	H40	0.706700	0.370000	0.387000
C871	C87	0.329100	0.124500	0.080700
H411	H41	0.281600	0.097900	0.084800
C881	C88	0.678700	0.233900	0.206000
C891	C89	0.830200	0.091700	0.194300
C901	C90	0.841700	0.132000	0.145300
H421	H42	0.888400	0.128300	0.113200
C911	C91	0.761300	0.100800	0.238500
H431	H43	0.746800	0.074200	0.267200
C921	C92	0.466200	0.162000	0.462500
C931	C93	0.100500	0.314000	0.205200
C941	C94	0.476000	0.318000	0.343100
H441	H44	0.428100	0.303600	0.301200
C951	C95	0.933100	0.368400	0.163100
H451	H45	0.859000	0.373400	0.135100
C961	C96	0.811700	0.454000	0.213300
C971	C97	0.394300	0.202400	0.115700
H461	H46	0.392900	0.231800	0.142600
C981	C98	0.438200	0.314000	0.400800
C991	C99	0.389200	0.120200	0.031800
C1001	C100	0.152600	0.351400	0.249400
H471	H47	0.227400	0.347300	0.276700
C1011	C101	0.298300	0.139700	0.371100
H481	H48	0.229900	0.122300	0.359200
N161	N16	0.626000	0.201300	0.413100
C1021	C102	0.355600	0.144000	0.443200
H491	H49	0.320700	0.134900	0.480200
C1031	C103	0.093700	0.398200	0.255400
H501	H50	0.128600	0.422600	0.289400
C1041	C104	0.620800	0.354000	0.460500
H511	H51	0.674200	0.364800	0.502700
C1051	C105	0.510800	0.333900	0.462700
N171	N17	0.337200	0.293500	0.395600
N181	N18	0.388800	0.073100	0.995900
Cd71	Cd7	0.784040	0.170010	0.796380
Cd81	Cd8	0.383880	0.328710	0.778530
O251	O25	0.215300	0.377300	0.730000
O261	O26	0.924200	0.123900	0.752400
O271	O27	0.345000	0.404000	0.821600
C1061	C106	0.561500	0.180800	0.664400
H521	H52	0.536800	0.195700	0.702700
O281	O28	0.306800	0.270000	0.836500
O291	O29	0.859100	0.095100	0.844400
O301	O30	0.903500	0.233000	0.841300
N191	N19	0.669100	0.166000	0.873000
N201	N20	0.432000	0.338100	0.670400
O311	O31	0.368600	0.241700	0.740800
O321	O32	0.752200	0.257900	0.760700
C1071	C107	0.535200	0.161300	0.973400
C1081	C108	0.013500	0.323600	0.844000
H531	H53	0.048600	0.299800	0.879000
N211	N21	0.663000	0.159700	0.684000
C1091	C109	0.250900	0.406300	0.776400
C1101	C110	0.288700	0.145100	0.755100
H541	H54	0.330200	0.149900	0.720100
C1111	C111	0.854600	0.265000	0.802500
C1121	C112	0.922600	0.091000	0.800100
C1131	C113	0.487800	0.183900	0.595100
C1141	C114	0.012800	0.406400	0.788900
C1151	C115	0.215500	0.175100	0.853800
H551	H55	0.213700	0.199700	0.889000
C1161	C116	0.105400	0.044500	0.805200
C1171	C117	0.072900	0.453900	0.787100
C1181	C118	0.275400	0.183700	0.803500
C1191	C119	0.992100	0.044800	0.806400
C1201	C120	0.538500	0.202300	0.930400
H561	H56	0.493800	0.230200	0.933300
C1211	C121	0.360800	0.355600	0.608500
H571	H57	0.293300	0.370000	0.613000
C1221	C122	0.670900	0.124500	0.919300
H581	H58	0.718400	0.097900	0.915200
C1231	C123	0.321300	0.233900	0.794000
C1241	C124	0.169800	0.091700	0.805700
C1251	C125	0.158300	0.132000	0.854700
H591	H59	0.111600	0.128300	0.886800
C1261	C126	0.238700	0.100800	0.761500
H601	H60	0.253200	0.074200	0.732800
C1271	C127	0.533800	0.162000	0.537500
C1281	C128	0.899500	0.314000	0.794800
C1291	C129	0.524000	0.318000	0.656900
H611	H61	0.571900	0.303600	0.698800
C1301	C130	0.066900	0.368400	0.836900
H621	H62	0.141000	0.373400	0.864900
C1311	C131	0.188300	0.454000	0.786700
C1321	C132	0.605700	0.202400	0.884300
H631	H63	0.607100	0.231800	0.857400
C1331	C133	0.561800	0.314000	0.599200
C1341	C134	0.610800	0.120200	0.968200
C1351	C135	0.847400	0.351400	0.750600
H641	H64	0.772600	0.347300	0.723300
C1361	C136	0.701700	0.139700	0.628900
H651	H65	0.770100	0.122300	0.640800
N221	N22	0.374000	0.201300	0.586900
C1371	C137	0.644400	0.144000	0.556800
H661	H66	0.679300	0.134900	0.519800
C1381	C138	0.906300	0.398200	0.744600
H671	H67	0.871400	0.422600	0.710600
C1391	C139	0.379200	0.354000	0.539500
H681	H68	0.325800	0.364800	0.497300
C1401	C140	0.489200	0.333900	0.537300
N231	N23	0.662800	0.293500	0.604400
N241	N24	0.611200	0.073100	0.004100
C1411	C141	0.939100	0.000000	0.809200
H691	H69	0.864600	0.000000	0.813100
C1421	C142	0.163700	0.000000	0.808000
H701	H70	0.241200	0.000000	0.811800
C1431	C143	0.060900	0.000000	0.190800
H711	H71	0.135400	0.000000	0.186900
C1441	C144	0.836300	0.000000	0.192000
H721	H72	0.758800	0.000000	0.188200
C1451	C145	0.021100	0.500000	0.786100
H731	H73	0.944300	0.500000	0.784700
C1461	C146	0.241900	0.500000	0.784200
H741	H74	0.316600	0.500000	0.780800
C1471	C147	0.978900	0.500000	0.213900
H751	H75	0.055700	0.500000	0.215300
C1481	C148	0.758100	0.500000	0.215800
H761	H76	0.683400	0.500000	0.219200
