data_LALPIZ_clean_PM
_symmetry_space_group_name_H-M	'P1'
_cell_length_a	9.460900
_cell_length_b	11.458000
_cell_length_c	14.593000
_cell_angle_alpha	69.960000
_cell_angle_beta	85.420000
_cell_angle_gamma	86.410000
_symmetry_Int_Tables_number 1

loop_
_symmetry_equiv_pos_as_xyz
'x,y,z'

loop_
_atom_site_label
_atom_site_type_symbol
_atom_site_fract_x
_atom_site_fract_y
_atom_site_fract_z
Y11	Y1	0.796830	0.954720	0.002510
Y21	Y2	0.203170	0.045280	0.997490
H11	H1	0.866600	0.369400	0.840900
H21	H2	0.973000	0.370500	0.752800
H31	H3	0.341000	0.378000	0.898000
H41	H4	0.262000	0.476000	0.812000
H51	H5	0.878800	0.942300	0.556900
H61	H6	0.871400	0.064300	0.465500
H71	H7	0.275500	0.349200	0.391800
H81	H8	0.261000	0.286800	0.318900
H91	H9	0.855300	0.098000	0.280600
H101	H10	0.814800	0.223300	0.198000
H111	H11	0.118800	0.534500	0.432400
H121	H12	0.114600	0.411500	0.523100
H131	H13	0.669100	0.044500	0.609000
H141	H14	0.626500	0.119500	0.673000
H151	H15	0.484800	0.837200	0.808700
H161	H16	0.635800	0.831800	0.758400
H171	H17	0.029300	0.481400	0.909200
H181	H18	0.079500	0.388200	0.008800
H191	H19	0.133400	0.630600	0.159100
H201	H20	0.027000	0.629500	0.247200
H211	H21	0.659000	0.622000	0.102000
H221	H22	0.738000	0.524000	0.188000
H231	H23	0.121200	0.057700	0.443100
H241	H24	0.128600	0.935700	0.534500
H251	H25	0.724500	0.650800	0.608200
H261	H26	0.739000	0.713200	0.681100
H271	H27	0.144700	0.902000	0.719400
H281	H28	0.185200	0.776700	0.802000
H291	H29	0.881200	0.465500	0.567600
H301	H30	0.885400	0.588500	0.476900
H311	H31	0.330900	0.955500	0.391000
H321	H32	0.373500	0.880500	0.327000
H331	H33	0.515200	0.162800	0.191300
H341	H34	0.364200	0.168200	0.241600
H351	H35	0.970700	0.518600	0.090800
H361	H36	0.920500	0.611800	0.991200
C11	C1	0.925300	0.097600	0.142300
C21	C2	0.885700	0.197400	0.681200
C31	C3	0.000600	0.216200	0.873000
C41	C4	0.911100	0.318300	0.804900
C51	C5	0.927900	0.017400	0.519800
C61	C6	0.983900	0.303100	0.315400
C71	C7	0.888800	0.159100	0.219500
C81	C8	0.941900	0.092900	0.583300
C91	C9	0.996300	0.405600	0.415100
C101	C10	0.057300	0.470500	0.474500
C111	C11	0.579800	0.800500	0.819900
C121	C12	0.641400	0.847700	0.892200
C131	C13	0.402700	0.615100	0.912400
C141	C14	0.189900	0.545900	0.959900
C151	C15	0.059300	0.475200	0.972700
C161	C16	0.074700	0.902400	0.857700
C171	C17	0.114300	0.802600	0.318800
C181	C18	0.999400	0.783800	0.127000
C191	C19	0.088900	0.681700	0.195100
C201	C20	0.072100	0.982600	0.480200
C211	C21	0.016100	0.696900	0.684600
C221	C22	0.111200	0.840900	0.780500
C231	C23	0.058100	0.907100	0.416700
C241	C24	0.003700	0.594400	0.584900
C251	C25	0.942700	0.529500	0.525500
C261	C26	0.420200	0.199500	0.180100
C271	C27	0.358600	0.152300	0.107800
C281	C28	0.597300	0.384900	0.087600
C291	C29	0.810100	0.454100	0.040100
C301	C30	0.940700	0.524800	0.027300
S11	S1	0.048610	0.226050	0.235790
S21	S2	0.569070	0.634810	0.850310
S31	S3	0.775870	0.264400	0.751830
S41	S4	0.951390	0.773950	0.764210
S51	S5	0.430930	0.365190	0.149690
S61	S6	0.224130	0.735600	0.248170
N11	N1	0.309100	0.532000	0.905100
N21	N2	0.207700	0.631600	0.997800
N31	N3	0.076300	0.347800	0.361200
N41	N4	0.022000	0.204500	0.662000
N51	N5	0.344400	0.675400	0.967300
N61	N6	0.830700	0.127800	0.633500
N71	N7	0.338300	0.452100	0.850500
N81	N8	0.223100	0.325000	0.356700
N91	N9	0.058900	0.136800	0.598200
N101	N10	0.863300	0.397400	0.404100
N111	N11	0.853900	0.330600	0.339500
N121	N12	0.691000	0.092800	0.639200
N131	N13	0.690900	0.468000	0.094900
N141	N14	0.792300	0.368400	0.002200
N151	N15	0.923700	0.652200	0.638800
N161	N16	0.978000	0.795500	0.338000
N171	N17	0.655600	0.324600	0.032700
N181	N18	0.169300	0.872200	0.366500
N191	N19	0.661700	0.547900	0.149500
N201	N20	0.776900	0.675000	0.643300
N211	N21	0.941100	0.863200	0.401800
N221	N22	0.136700	0.602600	0.595900
N231	N23	0.146100	0.669400	0.660500
N241	N24	0.309000	0.907200	0.360800
O11	O1	0.828100	0.041400	0.124300
O21	O2	0.947300	0.114600	0.924900
O31	O3	0.127400	0.236500	0.878200
O41	O4	0.050300	0.108400	0.105700
O51	O5	0.687200	0.777600	0.970800
O61	O6	0.648200	0.965400	0.867200
O71	O7	0.171900	0.958600	0.875700
O81	O8	0.052700	0.885400	0.075100
O91	O9	0.872600	0.763500	0.121800
O101	O10	0.949700	0.891600	0.894300
O111	O11	0.312800	0.222400	0.029200
O121	O12	0.351800	0.034600	0.132800
