data_LAMFEK_clean_PM
_symmetry_space_group_name_H-M	'P1'
_cell_length_a	13.897000
_cell_length_b	26.890000
_cell_length_c	7.607000
_cell_angle_alpha	90.000000
_cell_angle_beta	90.000000
_cell_angle_gamma	88.880000
_symmetry_Int_Tables_number 1

loop_
_symmetry_equiv_pos_as_xyz
'x,y,z'

loop_
_atom_site_label
_atom_site_type_symbol
_atom_site_fract_x
_atom_site_fract_y
_atom_site_fract_z
Cd11	Cd1	0.287800	0.134760	0.878960
N11	N1	0.266500	0.078700	0.092700
N21	N2	0.256800	0.077000	0.656800
N31	N3	0.330900	0.198800	0.088800
N41	N4	0.131600	0.167600	0.871800
N51	N5	0.325300	0.191800	0.651600
N61	N6	0.454500	0.121900	0.830800
C11	C1	0.258600	0.048200	0.198700
C21	C2	0.255400	0.048300	0.547400
C31	C3	0.394800	0.218100	0.152300
C41	C4	0.081300	0.198500	0.826300
C51	C5	0.428000	0.189500	0.626000
C61	C6	0.484900	0.155500	0.692000
C71	C7	0.592100	0.155200	0.653000
Cd21	Cd2	0.287800	0.634760	0.378960
N71	N7	0.266500	0.578700	0.592700
N81	N8	0.256800	0.577000	0.156800
N91	N9	0.330900	0.698800	0.588800
N101	N10	0.131600	0.667600	0.371800
N111	N11	0.325300	0.691800	0.151600
N121	N12	0.454500	0.621900	0.330800
C81	C8	0.258600	0.548200	0.698700
C91	C9	0.255400	0.548300	0.047400
C101	C10	0.394800	0.718100	0.652300
C111	C11	0.081300	0.698500	0.326300
C121	C12	0.428000	0.689500	0.126000
C131	C13	0.484900	0.655500	0.192000
C141	C14	0.592100	0.655200	0.153000
Cd31	Cd3	0.212200	0.865240	0.878960
N131	N13	0.233500	0.921300	0.092700
N141	N14	0.243200	0.923000	0.656800
N151	N15	0.169100	0.801200	0.088800
N161	N16	0.368400	0.832400	0.871800
N171	N17	0.174700	0.808200	0.651600
N181	N18	0.045500	0.878100	0.830800
C151	C15	0.241400	0.951800	0.198700
C161	C16	0.244600	0.951700	0.547400
C171	C17	0.105200	0.781900	0.152300
C181	C18	0.418700	0.801500	0.826300
C191	C19	0.072000	0.810500	0.626000
C201	C20	0.015100	0.844500	0.692000
C211	C21	0.907900	0.844800	0.653000
Cd41	Cd4	0.212200	0.365240	0.378960
N191	N19	0.233500	0.421300	0.592700
N201	N20	0.243200	0.423000	0.156800
N211	N21	0.169100	0.301200	0.588800
N221	N22	0.368400	0.332400	0.371800
N231	N23	0.174700	0.308200	0.151600
N241	N24	0.045500	0.378100	0.330800
C221	C22	0.241400	0.451800	0.698700
C231	C23	0.244600	0.451700	0.047400
C241	C24	0.105200	0.281900	0.652300
C251	C25	0.418700	0.301500	0.326300
C261	C26	0.072000	0.310500	0.126000
C271	C27	0.015100	0.344500	0.192000
C281	C28	0.907900	0.344800	0.153000
Cd51	Cd5	0.712200	0.865240	0.121040
N251	N25	0.733500	0.921300	0.907300
N261	N26	0.743200	0.923000	0.343200
N271	N27	0.669100	0.801200	0.911200
N281	N28	0.868400	0.832400	0.128200
N291	N29	0.674700	0.808200	0.348400
N301	N30	0.545500	0.878100	0.169200
C291	C29	0.741400	0.951800	0.801300
C301	C30	0.744600	0.951700	0.452600
C311	C31	0.605200	0.781900	0.847700
C321	C32	0.918700	0.801500	0.173700
C331	C33	0.572000	0.810500	0.374000
C341	C34	0.515100	0.844500	0.308000
C351	C35	0.407900	0.844800	0.347000
Cd61	Cd6	0.712200	0.365240	0.621040
N311	N31	0.733500	0.421300	0.407300
N321	N32	0.743200	0.423000	0.843200
N331	N33	0.669100	0.301200	0.411200
N341	N34	0.868400	0.332400	0.628200
N351	N35	0.674700	0.308200	0.848400
N361	N36	0.545500	0.378100	0.669200
C361	C36	0.741400	0.451800	0.301300
C371	C37	0.744600	0.451700	0.952600
C381	C38	0.605200	0.281900	0.347700
C391	C39	0.918700	0.301500	0.673700
C401	C40	0.572000	0.310500	0.874000
C411	C41	0.515100	0.344500	0.808000
C421	C42	0.407900	0.344800	0.847000
Cd71	Cd7	0.787800	0.134760	0.121040
N371	N37	0.766500	0.078700	0.907300
N381	N38	0.756800	0.077000	0.343200
N391	N39	0.830900	0.198800	0.911200
N401	N40	0.631600	0.167600	0.128200
N411	N41	0.825300	0.191800	0.348400
N421	N42	0.954500	0.121900	0.169200
C431	C43	0.758600	0.048200	0.801300
C441	C44	0.755400	0.048300	0.452600
C451	C45	0.894800	0.218100	0.847700
C461	C46	0.581300	0.198500	0.173700
C471	C47	0.928000	0.189500	0.374000
C481	C48	0.984900	0.155500	0.308000
C491	C49	0.092100	0.155200	0.347000
Cd81	Cd8	0.787800	0.634760	0.621040
N431	N43	0.766500	0.578700	0.407300
N441	N44	0.756800	0.577000	0.843200
N451	N45	0.830900	0.698800	0.411200
N461	N46	0.631600	0.667600	0.628200
N471	N47	0.825300	0.691800	0.848400
N481	N48	0.954500	0.621900	0.669200
C501	C50	0.758600	0.548200	0.301300
C511	C51	0.755400	0.548300	0.952600
C521	C52	0.894800	0.718100	0.347700
C531	C53	0.581300	0.698500	0.673700
C541	C54	0.928000	0.689500	0.874000
C551	C55	0.984900	0.655500	0.808000
C561	C56	0.092100	0.655200	0.847000
Ni11	Ni1	0.250000	0.000000	0.372600
Ni21	Ni2	0.250000	0.500000	0.872600
Ni31	Ni3	0.750000	0.000000	0.627400
Ni41	Ni4	0.750000	0.500000	0.127400
Ni51	Ni5	0.500000	0.250000	0.250000
Ni61	Ni6	0.000000	0.750000	0.250000
Ni71	Ni7	0.500000	0.750000	0.750000
Ni81	Ni8	0.000000	0.250000	0.750000
