data_LAMFOU_clean_PM
_symmetry_space_group_name_H-M	'P1'
_cell_length_a	14.082000
_cell_length_b	26.943000
_cell_length_c	7.602000
_cell_angle_alpha	90.000000
_cell_angle_beta	90.000000
_cell_angle_gamma	90.430000
_symmetry_Int_Tables_number 1

loop_
_symmetry_equiv_pos_as_xyz
'x,y,z'

loop_
_atom_site_label
_atom_site_type_symbol
_atom_site_fract_x
_atom_site_fract_y
_atom_site_fract_z
Cd11	Cd1	0.279330	0.135240	0.882500
N11	N1	0.267000	0.081200	0.100000
N21	N2	0.261000	0.079500	0.656000
N31	N3	0.328000	0.198700	0.091000
N41	N4	0.624000	0.166200	0.125000
N51	N5	0.317000	0.191100	0.652000
N61	N6	0.449000	0.126800	0.837000
C11	C1	0.260000	0.049800	0.203000
C21	C2	0.257000	0.049200	0.550000
C31	C3	0.394000	0.219100	0.153000
C41	C4	0.575000	0.199200	0.171000
C51	C5	0.424000	0.192000	0.632000
C61	C6	0.477000	0.156000	0.689000
C71	C7	0.580000	0.156100	0.653000
Cd21	Cd2	0.279330	0.635240	0.382500
N71	N7	0.267000	0.581200	0.600000
N81	N8	0.261000	0.579500	0.156000
N91	N9	0.328000	0.698700	0.591000
N101	N10	0.624000	0.666200	0.625000
N111	N11	0.317000	0.691100	0.152000
N121	N12	0.449000	0.626800	0.337000
C81	C8	0.260000	0.549800	0.703000
C91	C9	0.257000	0.549200	0.050000
C101	C10	0.394000	0.719100	0.653000
C111	C11	0.575000	0.699200	0.671000
C121	C12	0.424000	0.692000	0.132000
C131	C13	0.477000	0.656000	0.189000
C141	C14	0.580000	0.656100	0.153000
Cd31	Cd3	0.220670	0.864760	0.882500
N131	N13	0.233000	0.918800	0.100000
N141	N14	0.239000	0.920500	0.656000
N151	N15	0.172000	0.801300	0.091000
N161	N16	0.876000	0.833800	0.125000
N171	N17	0.183000	0.808900	0.652000
N181	N18	0.051000	0.873200	0.837000
C151	C15	0.240000	0.950200	0.203000
C161	C16	0.243000	0.950800	0.550000
C171	C17	0.106000	0.780900	0.153000
C181	C18	0.925000	0.800800	0.171000
C191	C19	0.076000	0.808000	0.632000
C201	C20	0.023000	0.844000	0.689000
C211	C21	0.920000	0.843900	0.653000
Cd41	Cd4	0.220670	0.364760	0.382500
N191	N19	0.233000	0.418800	0.600000
N201	N20	0.239000	0.420500	0.156000
N211	N21	0.172000	0.301300	0.591000
N221	N22	0.876000	0.333800	0.625000
N231	N23	0.183000	0.308900	0.152000
N241	N24	0.051000	0.373200	0.337000
C221	C22	0.240000	0.450200	0.703000
C231	C23	0.243000	0.450800	0.050000
C241	C24	0.106000	0.280900	0.653000
C251	C25	0.925000	0.300800	0.671000
C261	C26	0.076000	0.308000	0.132000
C271	C27	0.023000	0.344000	0.189000
C281	C28	0.920000	0.343900	0.153000
Cd51	Cd5	0.720670	0.864760	0.117500
N251	N25	0.733000	0.918800	0.900000
N261	N26	0.739000	0.920500	0.344000
N271	N27	0.672000	0.801300	0.909000
N281	N28	0.376000	0.833800	0.875000
N291	N29	0.683000	0.808900	0.348000
N301	N30	0.551000	0.873200	0.163000
C291	C29	0.740000	0.950200	0.797000
C301	C30	0.743000	0.950800	0.450000
C311	C31	0.606000	0.780900	0.847000
C321	C32	0.425000	0.800800	0.829000
C331	C33	0.576000	0.808000	0.368000
C341	C34	0.523000	0.844000	0.311000
C351	C35	0.420000	0.843900	0.347000
Cd61	Cd6	0.720670	0.364760	0.617500
N311	N31	0.733000	0.418800	0.400000
N321	N32	0.739000	0.420500	0.844000
N331	N33	0.672000	0.301300	0.409000
N341	N34	0.376000	0.333800	0.375000
N351	N35	0.683000	0.308900	0.848000
N361	N36	0.551000	0.373200	0.663000
C361	C36	0.740000	0.450200	0.297000
C371	C37	0.743000	0.450800	0.950000
C381	C38	0.606000	0.280900	0.347000
C391	C39	0.425000	0.300800	0.329000
C401	C40	0.576000	0.308000	0.868000
C411	C41	0.523000	0.344000	0.811000
C421	C42	0.420000	0.343900	0.847000
Cd71	Cd7	0.779330	0.135240	0.117500
N371	N37	0.767000	0.081200	0.900000
N381	N38	0.761000	0.079500	0.344000
N391	N39	0.828000	0.198700	0.909000
N401	N40	0.124000	0.166200	0.875000
N411	N41	0.817000	0.191100	0.348000
N421	N42	0.949000	0.126800	0.163000
C431	C43	0.760000	0.049800	0.797000
C441	C44	0.757000	0.049200	0.450000
C451	C45	0.894000	0.219100	0.847000
C461	C46	0.075000	0.199200	0.829000
C471	C47	0.924000	0.192000	0.368000
C481	C48	0.977000	0.156000	0.311000
C491	C49	0.080000	0.156100	0.347000
Cd81	Cd8	0.779330	0.635240	0.617500
N431	N43	0.767000	0.581200	0.400000
N441	N44	0.761000	0.579500	0.844000
N451	N45	0.828000	0.698700	0.409000
N461	N46	0.124000	0.666200	0.375000
N471	N47	0.817000	0.691100	0.848000
N481	N48	0.949000	0.626800	0.663000
C501	C50	0.760000	0.549800	0.297000
C511	C51	0.757000	0.549200	0.950000
C521	C52	0.894000	0.719100	0.347000
C531	C53	0.075000	0.699200	0.329000
C541	C54	0.924000	0.692000	0.868000
C551	C55	0.977000	0.656000	0.811000
C561	C56	0.080000	0.656100	0.847000
Ni11	Ni1	0.250000	0.000000	0.375800
Ni21	Ni2	0.250000	0.500000	0.875800
Ni31	Ni3	0.750000	0.000000	0.624200
Ni41	Ni4	0.750000	0.500000	0.124200
Ni51	Ni5	0.500000	0.250000	0.250000
Ni61	Ni6	0.000000	0.750000	0.250000
Ni71	Ni7	0.500000	0.750000	0.750000
Ni81	Ni8	0.000000	0.250000	0.750000
