data_LAMGUB_clean_PM
_symmetry_space_group_name_H-M	'P1'
_cell_length_a	13.981000
_cell_length_b	26.685000
_cell_length_c	7.698000
_cell_angle_alpha	90.000000
_cell_angle_beta	90.000000
_cell_angle_gamma	90.000000
_symmetry_Int_Tables_number 1

loop_
_symmetry_equiv_pos_as_xyz
'x,y,z'

loop_
_atom_site_label
_atom_site_type_symbol
_atom_site_fract_x
_atom_site_fract_y
_atom_site_fract_z
Cd11	Cd1	0.217970	0.114870	0.133900
N11	N1	0.245900	0.172400	0.910000
N21	N2	0.232900	0.170300	0.352000
N31	N3	0.170400	0.048500	0.334000
N41	N4	0.125900	0.916400	0.629000
N51	N5	0.180900	0.057700	0.905000
N61	N6	0.052300	0.125800	0.083000
C11	C1	0.244500	0.201300	0.801000
C21	C2	0.238000	0.200500	0.458000
C31	C3	0.107000	0.030400	0.400000
C41	C4	0.077600	0.947500	0.577000
C51	C5	0.081000	0.060200	0.871000
C61	C6	0.023000	0.092700	0.939000
C71	C7	0.916000	0.094800	0.899000
Cd21	Cd2	0.282030	0.885130	0.633900
N71	N7	0.254100	0.827600	0.410000
N81	N8	0.267100	0.829700	0.852000
N91	N9	0.329600	0.951500	0.834000
N101	N10	0.374100	0.083600	0.129000
N111	N11	0.319100	0.942300	0.405000
N121	N12	0.447700	0.874200	0.583000
C81	C8	0.255500	0.798700	0.301000
C91	C9	0.262000	0.799500	0.958000
C101	C10	0.393000	0.969600	0.900000
C111	C11	0.422400	0.052500	0.077000
C121	C12	0.419000	0.939800	0.371000
C131	C13	0.477000	0.907300	0.439000
C141	C14	0.584000	0.905200	0.399000
Cd31	Cd3	0.782030	0.614870	0.866100
N131	N13	0.754100	0.672400	0.090000
N141	N14	0.767100	0.670300	0.648000
N151	N15	0.829600	0.548500	0.666000
N161	N16	0.874100	0.416400	0.371000
N171	N17	0.819100	0.557700	0.095000
N181	N18	0.947700	0.625800	0.917000
C151	C15	0.755500	0.701300	0.199000
C161	C16	0.762000	0.700500	0.542000
C171	C17	0.893000	0.530400	0.600000
C181	C18	0.922400	0.447500	0.423000
C191	C19	0.919000	0.560200	0.129000
C201	C20	0.977000	0.592700	0.061000
C211	C21	0.084000	0.594800	0.101000
Cd41	Cd4	0.717970	0.385130	0.366100
N191	N19	0.745900	0.327600	0.590000
N201	N20	0.732900	0.329700	0.148000
N211	N21	0.670400	0.451500	0.166000
N221	N22	0.625900	0.583600	0.871000
N231	N23	0.680900	0.442300	0.595000
N241	N24	0.552300	0.374200	0.417000
C221	C22	0.744500	0.298700	0.699000
C231	C23	0.738000	0.299500	0.042000
C241	C24	0.607000	0.469600	0.100000
C251	C25	0.577600	0.552500	0.923000
C261	C26	0.581000	0.439800	0.629000
C271	C27	0.523000	0.407300	0.561000
C281	C28	0.416000	0.405200	0.601000
Cd51	Cd5	0.782030	0.885130	0.866100
N251	N25	0.754100	0.827600	0.090000
N261	N26	0.767100	0.829700	0.648000
N271	N27	0.829600	0.951500	0.666000
N281	N28	0.874100	0.083600	0.371000
N291	N29	0.819100	0.942300	0.095000
N301	N30	0.947700	0.874200	0.917000
C291	C29	0.755500	0.798700	0.199000
C301	C30	0.762000	0.799500	0.542000
C311	C31	0.893000	0.969600	0.600000
C321	C32	0.922400	0.052500	0.423000
C331	C33	0.919000	0.939800	0.129000
C341	C34	0.977000	0.907300	0.061000
C351	C35	0.084000	0.905200	0.101000
Cd61	Cd6	0.717970	0.114870	0.366100
N311	N31	0.745900	0.172400	0.590000
N321	N32	0.732900	0.170300	0.148000
N331	N33	0.670400	0.048500	0.166000
N341	N34	0.625900	0.916400	0.871000
N351	N35	0.680900	0.057700	0.595000
N361	N36	0.552300	0.125800	0.417000
C361	C36	0.744500	0.201300	0.699000
C371	C37	0.738000	0.200500	0.042000
C381	C38	0.607000	0.030400	0.100000
C391	C39	0.577600	0.947500	0.923000
C401	C40	0.581000	0.060200	0.629000
C411	C41	0.523000	0.092700	0.561000
C421	C42	0.416000	0.094800	0.601000
Cd71	Cd7	0.217970	0.385130	0.133900
N371	N37	0.245900	0.327600	0.910000
N381	N38	0.232900	0.329700	0.352000
N391	N39	0.170400	0.451500	0.334000
N401	N40	0.125900	0.583600	0.629000
N411	N41	0.180900	0.442300	0.905000
N421	N42	0.052300	0.374200	0.083000
C431	C43	0.244500	0.298700	0.801000
C441	C44	0.238000	0.299500	0.458000
C451	C45	0.107000	0.469600	0.400000
C461	C46	0.077600	0.552500	0.577000
C471	C47	0.081000	0.439800	0.871000
C481	C48	0.023000	0.407300	0.939000
C491	C49	0.916000	0.405200	0.899000
Cd81	Cd8	0.282030	0.614870	0.633900
N431	N43	0.254100	0.672400	0.410000
N441	N44	0.267100	0.670300	0.852000
N451	N45	0.329600	0.548500	0.834000
N461	N46	0.374100	0.416400	0.129000
N471	N47	0.319100	0.557700	0.405000
N481	N48	0.447700	0.625800	0.583000
C501	C50	0.255500	0.701300	0.301000
C511	C51	0.262000	0.700500	0.958000
C521	C52	0.393000	0.530400	0.900000
C531	C53	0.422400	0.447500	0.077000
C541	C54	0.419000	0.560200	0.371000
C551	C55	0.477000	0.592700	0.439000
C561	C56	0.584000	0.594800	0.399000
Ni11	Ni1	0.242400	0.250000	0.628500
Ni21	Ni2	0.257600	0.750000	0.128500
Ni31	Ni3	0.757600	0.750000	0.371500
Ni41	Ni4	0.742400	0.250000	0.871500
Ni51	Ni5	0.000000	0.000000	0.500000
Ni61	Ni6	0.500000	0.000000	0.000000
Ni71	Ni7	0.000000	0.500000	0.500000
Ni81	Ni8	0.500000	0.500000	0.000000
