data_LANCOU_clean_PM
_symmetry_space_group_name_H-M	'P1'
_cell_length_a	6.908200
_cell_length_b	18.426000
_cell_length_c	18.583000
_cell_angle_alpha	111.980000
_cell_angle_beta	90.000000
_cell_angle_gamma	90.000000
_symmetry_Int_Tables_number 1

loop_
_symmetry_equiv_pos_as_xyz
'x,y,z'

loop_
_atom_site_label
_atom_site_type_symbol
_atom_site_fract_x
_atom_site_fract_y
_atom_site_fract_z
Sm11	Sm1	0.777220	0.626690	0.621880
Sm21	Sm2	0.749970	0.625030	0.103280
Sm31	Sm3	0.277220	0.873310	0.878120
Sm41	Sm4	0.249970	0.874970	0.396720
Sm51	Sm5	0.222780	0.373310	0.378120
Sm61	Sm6	0.250030	0.374970	0.896720
Sm71	Sm7	0.722780	0.126690	0.121880
Sm81	Sm8	0.750030	0.125030	0.603280
H11	H1	0.513900	0.626500	0.897700
H21	H2	0.729300	0.416000	0.762300
H31	H3	0.598300	0.727400	0.411200
H41	H4	0.799600	0.506200	0.330100
H51	H5	0.013900	0.873500	0.602300
H61	H6	0.229300	0.084000	0.737700
H71	H7	0.098300	0.772600	0.088800
H81	H8	0.299600	0.993800	0.169900
H91	H9	0.486100	0.373500	0.102300
H101	H10	0.270700	0.584000	0.237700
H111	H11	0.401700	0.272600	0.588800
H121	H12	0.200400	0.493800	0.669900
H131	H13	0.986100	0.126500	0.397700
H141	H14	0.770700	0.916000	0.262300
H151	H15	0.901700	0.227400	0.911200
H161	H16	0.700400	0.006200	0.830100
C11	C1	0.589500	0.616450	0.788530
C21	C2	0.567700	0.593060	0.851230
C31	C3	0.629000	0.518240	0.842260
C41	C4	0.697100	0.467540	0.770520
C51	C5	0.715400	0.496430	0.711410
C61	C6	0.536000	0.696810	0.790360
C71	C7	0.628100	0.492030	0.910410
C81	C8	0.791800	0.449140	0.631640
C91	C9	0.650600	0.680650	0.294890
C101	C10	0.641200	0.682830	0.370690
C111	C11	0.697700	0.616650	0.383860
C121	C12	0.764000	0.551440	0.322490
C131	C13	0.775800	0.555390	0.249270
C141	C14	0.585400	0.747690	0.271950
C151	C15	0.696200	0.616880	0.465330
C161	C16	0.853900	0.490400	0.177670
C171	C17	0.089500	0.883550	0.711470
C181	C18	0.067700	0.906940	0.648770
C191	C19	0.129000	0.981760	0.657740
C201	C20	0.197100	0.032460	0.729480
C211	C21	0.215400	0.003570	0.788590
C221	C22	0.036000	0.803190	0.709640
C231	C23	0.128100	0.007970	0.589590
C241	C24	0.291800	0.050860	0.868360
C251	C25	0.150600	0.819350	0.205110
C261	C26	0.141200	0.817170	0.129310
C271	C27	0.197700	0.883350	0.116140
C281	C28	0.264000	0.948560	0.177510
C291	C29	0.275800	0.944610	0.250730
C301	C30	0.085400	0.752310	0.228050
C311	C31	0.196200	0.883120	0.034670
C321	C32	0.353900	0.009600	0.322330
C331	C33	0.410500	0.383550	0.211470
C341	C34	0.432300	0.406940	0.148770
C351	C35	0.371000	0.481760	0.157740
C361	C36	0.302900	0.532460	0.229480
C371	C37	0.284600	0.503570	0.288590
C381	C38	0.464000	0.303190	0.209640
C391	C39	0.371900	0.507970	0.089590
C401	C40	0.208200	0.550860	0.368360
C411	C41	0.349400	0.319350	0.705110
C421	C42	0.358800	0.317170	0.629310
C431	C43	0.302300	0.383350	0.616140
C441	C44	0.236000	0.448560	0.677510
C451	C45	0.224200	0.444610	0.750730
C461	C46	0.414600	0.252310	0.728050
C471	C47	0.303800	0.383120	0.534670
C481	C48	0.146100	0.509600	0.822330
C491	C49	0.910500	0.116450	0.288530
C501	C50	0.932300	0.093060	0.351230
C511	C51	0.871000	0.018240	0.342260
C521	C52	0.802900	0.967540	0.270520
C531	C53	0.784600	0.996430	0.211410
C541	C54	0.964000	0.196810	0.290360
C551	C55	0.871900	0.992030	0.410410
C561	C56	0.708200	0.949140	0.131640
C571	C57	0.849400	0.180650	0.794890
C581	C58	0.858800	0.182830	0.870690
C591	C59	0.802300	0.116650	0.883860
C601	C60	0.736000	0.051440	0.822490
C611	C61	0.724200	0.055390	0.749270
C621	C62	0.914600	0.247690	0.771950
C631	C63	0.803800	0.116880	0.965330
C641	C64	0.646100	0.990400	0.677670
N11	N1	0.667800	0.570040	0.721980
N21	N2	0.717800	0.618530	0.236340
N31	N3	0.167800	0.929960	0.778020
N41	N4	0.217800	0.881470	0.263660
N51	N5	0.332200	0.429960	0.278020
N61	N6	0.282200	0.381470	0.763660
N71	N7	0.832200	0.070040	0.221980
N81	N8	0.782200	0.118530	0.736340
O11	O1	0.428100	0.739560	0.841930
O21	O2	0.608800	0.713820	0.735730
O31	O3	0.684000	0.540620	0.973290
O41	O4	0.576400	0.422630	0.897220
O51	O5	0.814800	0.378660	0.611930
O61	O6	0.828400	0.488900	0.589310
O71	O7	0.518500	0.806800	0.324170
O81	O8	0.605000	0.738250	0.202050
O91	O9	0.716800	0.553420	0.474960
O101	O10	0.682700	0.681020	0.521520
O111	O11	0.912000	0.428880	0.182120
O121	O12	0.853300	0.505420	0.116100
O131	O13	0.928100	0.760440	0.658070
O141	O14	0.108800	0.786180	0.764270
O151	O15	0.184000	0.959380	0.526710
O161	O16	0.076400	0.077370	0.602780
O171	O17	0.314800	0.121340	0.888070
O181	O18	0.328400	0.011100	0.910690
O191	O19	0.018500	0.693200	0.175830
O201	O20	0.105000	0.761750	0.297950
O211	O21	0.216800	0.946580	0.025040
O221	O22	0.182700	0.818980	0.978480
O231	O23	0.412000	0.071120	0.317880
O241	O24	0.353300	0.994580	0.383900
O251	O25	0.571900	0.260440	0.158070
O261	O26	0.391200	0.286180	0.264270
O271	O27	0.316000	0.459380	0.026710
O281	O28	0.423600	0.577370	0.102780
O291	O29	0.185200	0.621340	0.388070
O301	O30	0.171600	0.511100	0.410690
O311	O31	0.481500	0.193200	0.675830
O321	O32	0.395000	0.261750	0.797950
O331	O33	0.283200	0.446580	0.525040
O341	O34	0.317300	0.318980	0.478480
O351	O35	0.088000	0.571120	0.817880
O361	O36	0.146700	0.494580	0.883900
O371	O37	0.071900	0.239560	0.341930
O381	O38	0.891200	0.213820	0.235730
O391	O39	0.816000	0.040620	0.473290
O401	O40	0.923600	0.922630	0.397220
O411	O41	0.685200	0.878660	0.111930
O421	O42	0.671600	0.988900	0.089310
O431	O43	0.981500	0.306800	0.824170
O441	O44	0.895000	0.238250	0.702050
O451	O45	0.783200	0.053420	0.974960
O461	O46	0.817300	0.181020	0.021520
O471	O47	0.588000	0.928880	0.682120
O481	O48	0.646700	0.005420	0.616100
