data_LARPEC_clean_PM
_symmetry_space_group_name_H-M	'P1'
_cell_length_a	19.053000
_cell_length_b	18.801000
_cell_length_c	22.943400
_cell_angle_alpha	90.000000
_cell_angle_beta	90.000000
_cell_angle_gamma	90.000000
_symmetry_Int_Tables_number 1

loop_
_symmetry_equiv_pos_as_xyz
'x,y,z'

loop_
_atom_site_label
_atom_site_type_symbol
_atom_site_fract_x
_atom_site_fract_y
_atom_site_fract_z
Zn11	Zn1	0.354430	0.762800	0.216580
Zn21	Zn2	0.228370	0.737720	0.374210
Zn31	Zn3	0.228640	0.733810	0.121110
Zn41	Zn4	0.254610	0.107660	0.468960
C11	C1	0.256100	0.910200	0.269300
C21	C2	0.256700	0.966900	0.308700
H11	H1	0.258900	0.957000	0.348400
C31	C3	0.254100	0.037700	0.290700
C41	C4	0.250900	0.052600	0.231500
C51	C5	0.252100	0.996200	0.192200
H21	H2	0.251700	0.006400	0.152600
C61	C6	0.253800	0.925600	0.209500
C71	C7	0.255700	0.838100	0.297900
C81	C8	0.257600	0.093000	0.338600
C91	C9	0.239600	0.127000	0.206700
C101	C10	0.249500	0.869400	0.162800
C111	C11	0.428000	0.728500	0.038600
C121	C12	0.496100	0.713500	0.053900
H31	H3	0.506400	0.704200	0.092800
C131	C13	0.549800	0.711600	0.013600
C141	C14	0.535600	0.725300	0.955200
C151	C15	0.467900	0.739100	0.939100
H41	H4	0.457900	0.745600	0.899800
C161	C16	0.413700	0.743800	0.978900
C171	C17	0.371300	0.730000	0.083700
C181	C18	0.621900	0.695300	0.035600
C191	C19	0.594300	0.733100	0.910500
C201	C20	0.343700	0.773600	0.959700
O11	O1	0.305300	0.794300	0.292200
O21	O2	0.206200	0.826800	0.332500
O31	O3	0.256700	0.804300	0.180200
O41	O4	0.237100	0.885600	0.112700
O51	O5	0.277800	0.153800	0.324500
O61	O6	0.241000	0.073600	0.388400
O71	O7	0.281700	0.145100	0.166700
O81	O8	0.188400	0.161400	0.224600
O91	O9	0.309300	0.719600	0.068400
O101	O10	0.392600	0.741000	0.135000
O111	O11	0.645300	0.735400	0.074900
O121	O12	0.651900	0.641100	0.015300
O131	O13	0.650000	0.759000	0.930900
O141	O14	0.584700	0.716400	0.860200
O151	O15	0.325400	0.831100	0.983100
O161	O16	0.312300	0.742200	0.920700
Zn51	Zn5	0.145570	0.237200	0.716580
Zn61	Zn6	0.271630	0.262280	0.874210
Zn71	Zn7	0.271360	0.266190	0.621110
Zn81	Zn8	0.245390	0.892340	0.968960
C211	C21	0.243900	0.089800	0.769300
C221	C22	0.243300	0.033100	0.808700
H51	H5	0.241100	0.043000	0.848400
C231	C23	0.245900	0.962300	0.790700
C241	C24	0.249100	0.947400	0.731500
C251	C25	0.247900	0.003800	0.692200
H61	H6	0.248300	0.993600	0.652600
C261	C26	0.246200	0.074400	0.709500
C271	C27	0.244300	0.161900	0.797900
C281	C28	0.242400	0.907000	0.838600
C291	C29	0.260400	0.873000	0.706700
C301	C30	0.250500	0.130600	0.662800
C311	C31	0.072000	0.271500	0.538600
C321	C32	0.003900	0.286500	0.553900
H71	H7	0.993600	0.295800	0.592800
C331	C33	0.950200	0.288400	0.513600
C341	C34	0.964400	0.274700	0.455200
C351	C35	0.032100	0.260900	0.439100
H81	H8	0.042100	0.254400	0.399800
C361	C36	0.086300	0.256200	0.478900
C371	C37	0.128700	0.270000	0.583700
C381	C38	0.878100	0.304700	0.535600
C391	C39	0.905700	0.266900	0.410500
C401	C40	0.156300	0.226400	0.459700
O171	O17	0.194700	0.205700	0.792200
O181	O18	0.293800	0.173200	0.832500
O191	O19	0.243300	0.195700	0.680200
O201	O20	0.262900	0.114400	0.612700
O211	O21	0.222200	0.846200	0.824500
O221	O22	0.259000	0.926400	0.888400
O231	O23	0.218300	0.854900	0.666700
O241	O24	0.311600	0.838600	0.724600
O251	O25	0.190700	0.280400	0.568400
O261	O26	0.107400	0.259000	0.635000
O271	O27	0.854700	0.264600	0.574900
O281	O28	0.848100	0.358900	0.515300
O291	O29	0.850000	0.241000	0.430900
O301	O30	0.915300	0.283600	0.360200
O311	O31	0.174600	0.168900	0.483100
O321	O32	0.187700	0.257800	0.420700
Zn91	Zn9	0.645570	0.262800	0.283420
Zn101	Zn10	0.771630	0.237720	0.125790
Zn111	Zn11	0.771360	0.233810	0.378890
Zn121	Zn12	0.745390	0.607660	0.031040
C411	C41	0.743900	0.410200	0.230700
C421	C42	0.743300	0.466900	0.191300
H91	H9	0.741100	0.457000	0.151600
C431	C43	0.745900	0.537700	0.209300
C441	C44	0.749100	0.552600	0.268500
C451	C45	0.747900	0.496200	0.307800
H101	H10	0.748300	0.506400	0.347400
C461	C46	0.746200	0.425600	0.290500
C471	C47	0.744300	0.338100	0.202100
C481	C48	0.742400	0.593000	0.161400
C491	C49	0.760400	0.627000	0.293300
C501	C50	0.750500	0.369400	0.337200
C511	C51	0.572000	0.228500	0.461400
C521	C52	0.503900	0.213500	0.446100
H111	H11	0.493600	0.204200	0.407200
C531	C53	0.450200	0.211600	0.486400
C541	C54	0.464400	0.225300	0.544800
C551	C55	0.532100	0.239100	0.560900
H121	H12	0.542100	0.245600	0.600200
C561	C56	0.586300	0.243800	0.521100
C571	C57	0.628700	0.230000	0.416300
C581	C58	0.378100	0.195300	0.464400
C591	C59	0.405700	0.233100	0.589500
C601	C60	0.656300	0.273600	0.540300
O331	O33	0.694700	0.294300	0.207800
O341	O34	0.793800	0.326800	0.167500
O351	O35	0.743300	0.304300	0.319800
O361	O36	0.762900	0.385600	0.387300
O371	O37	0.722200	0.653800	0.175500
O381	O38	0.759000	0.573600	0.111600
O391	O39	0.718300	0.645100	0.333300
O401	O40	0.811600	0.661400	0.275400
O411	O41	0.690700	0.219600	0.431600
O421	O42	0.607400	0.241000	0.365000
O431	O43	0.354700	0.235400	0.425100
O441	O44	0.348100	0.141100	0.484700
O451	O45	0.350000	0.259000	0.569100
O461	O46	0.415300	0.216400	0.639800
O471	O47	0.674600	0.331100	0.516900
O481	O48	0.687700	0.242200	0.579300
Zn131	Zn13	0.854430	0.737200	0.783420
Zn141	Zn14	0.728370	0.762280	0.625790
Zn151	Zn15	0.728640	0.766190	0.878890
Zn161	Zn16	0.754610	0.392340	0.531040
C611	C61	0.756100	0.589800	0.730700
C621	C62	0.756700	0.533100	0.691300
H131	H13	0.758900	0.543000	0.651600
C631	C63	0.754100	0.462300	0.709300
C641	C64	0.750900	0.447400	0.768500
C651	C65	0.752100	0.503800	0.807800
H141	H14	0.751700	0.493600	0.847400
C661	C66	0.753800	0.574400	0.790500
C671	C67	0.755700	0.661900	0.702100
C681	C68	0.757600	0.407000	0.661400
C691	C69	0.739600	0.373000	0.793300
C701	C70	0.749500	0.630600	0.837200
C711	C71	0.928000	0.771500	0.961400
C721	C72	0.996100	0.786500	0.946100
H151	H15	0.006400	0.795800	0.907200
C731	C73	0.049800	0.788400	0.986400
C741	C74	0.035600	0.774700	0.044800
C751	C75	0.967900	0.760900	0.060900
H161	H16	0.957900	0.754400	0.100200
C761	C76	0.913700	0.756200	0.021100
C771	C77	0.871300	0.770000	0.916300
C781	C78	0.121900	0.804700	0.964400
C791	C79	0.094300	0.766900	0.089500
C801	C80	0.843700	0.726400	0.040300
O491	O49	0.805300	0.705700	0.707800
O501	O50	0.706200	0.673200	0.667500
O511	O51	0.756700	0.695700	0.819800
O521	O52	0.737100	0.614400	0.887300
O531	O53	0.777800	0.346200	0.675500
O541	O54	0.741000	0.426400	0.611600
O551	O55	0.781700	0.354900	0.833300
O561	O56	0.688400	0.338600	0.775400
O571	O57	0.809300	0.780400	0.931600
O581	O58	0.892600	0.759000	0.865000
O591	O59	0.145300	0.764600	0.925100
O601	O60	0.151900	0.858900	0.984700
O611	O61	0.150000	0.741000	0.069100
O621	O62	0.084700	0.783600	0.139800
O631	O63	0.825400	0.668900	0.016900
O641	O64	0.812300	0.757800	0.079300
Zn171	Zn17	0.645570	0.237200	0.783420
Zn181	Zn18	0.771630	0.262280	0.625790
Zn191	Zn19	0.771360	0.266190	0.878890
Zn201	Zn20	0.745390	0.892340	0.531040
C811	C81	0.743900	0.089800	0.730700
C821	C82	0.743300	0.033100	0.691300
H171	H17	0.741100	0.043000	0.651600
C831	C83	0.745900	0.962300	0.709300
C841	C84	0.749100	0.947400	0.768500
C851	C85	0.747900	0.003800	0.807800
H181	H18	0.748300	0.993600	0.847400
C861	C86	0.746200	0.074400	0.790500
C871	C87	0.744300	0.161900	0.702100
C881	C88	0.742400	0.907000	0.661400
C891	C89	0.760400	0.873000	0.793300
C901	C90	0.750500	0.130600	0.837200
C911	C91	0.572000	0.271500	0.961400
C921	C92	0.503900	0.286500	0.946100
H191	H19	0.493600	0.295800	0.907200
C931	C93	0.450200	0.288400	0.986400
C941	C94	0.464400	0.274700	0.044800
C951	C95	0.532100	0.260900	0.060900
H201	H20	0.542100	0.254400	0.100200
C961	C96	0.586300	0.256200	0.021100
C971	C97	0.628700	0.270000	0.916300
C981	C98	0.378100	0.304700	0.964400
C991	C99	0.405700	0.266900	0.089500
C1001	C100	0.656300	0.226400	0.040300
O651	O65	0.694700	0.205700	0.707800
O661	O66	0.793800	0.173200	0.667500
O671	O67	0.743300	0.195700	0.819800
O681	O68	0.762900	0.114400	0.887300
O691	O69	0.722200	0.846200	0.675500
O701	O70	0.759000	0.926400	0.611600
O711	O71	0.718300	0.854900	0.833300
O721	O72	0.811600	0.838600	0.775400
O731	O73	0.690700	0.280400	0.931600
O741	O74	0.607400	0.259000	0.865000
O751	O75	0.354700	0.264600	0.925100
O761	O76	0.348100	0.358900	0.984700
O771	O77	0.350000	0.241000	0.069100
O781	O78	0.415300	0.283600	0.139800
O791	O79	0.674600	0.168900	0.016900
O801	O80	0.687700	0.257800	0.079300
Zn211	Zn21	0.854430	0.762800	0.283420
Zn221	Zn22	0.728370	0.737720	0.125790
Zn231	Zn23	0.728640	0.733810	0.378890
Zn241	Zn24	0.754610	0.107660	0.031040
C1011	C101	0.756100	0.910200	0.230700
C1021	C102	0.756700	0.966900	0.191300
H211	H21	0.758900	0.957000	0.151600
C1031	C103	0.754100	0.037700	0.209300
C1041	C104	0.750900	0.052600	0.268500
C1051	C105	0.752100	0.996200	0.307800
H221	H22	0.751700	0.006400	0.347400
C1061	C106	0.753800	0.925600	0.290500
C1071	C107	0.755700	0.838100	0.202100
C1081	C108	0.757600	0.093000	0.161400
C1091	C109	0.739600	0.127000	0.293300
C1101	C110	0.749500	0.869400	0.337200
C1111	C111	0.928000	0.728500	0.461400
C1121	C112	0.996100	0.713500	0.446100
H231	H23	0.006400	0.704200	0.407200
C1131	C113	0.049800	0.711600	0.486400
C1141	C114	0.035600	0.725300	0.544800
C1151	C115	0.967900	0.739100	0.560900
H241	H24	0.957900	0.745600	0.600200
C1161	C116	0.913700	0.743800	0.521100
C1171	C117	0.871300	0.730000	0.416300
C1181	C118	0.121900	0.695300	0.464400
C1191	C119	0.094300	0.733100	0.589500
C1201	C120	0.843700	0.773600	0.540300
O811	O81	0.805300	0.794300	0.207800
O821	O82	0.706200	0.826800	0.167500
O831	O83	0.756700	0.804300	0.319800
O841	O84	0.737100	0.885600	0.387300
O851	O85	0.777800	0.153800	0.175500
O861	O86	0.741000	0.073600	0.111600
O871	O87	0.781700	0.145100	0.333300
O881	O88	0.688400	0.161400	0.275400
O891	O89	0.809300	0.719600	0.431600
O901	O90	0.892600	0.741000	0.365000
O911	O91	0.145300	0.735400	0.425100
O921	O92	0.151900	0.641100	0.484700
O931	O93	0.150000	0.759000	0.569100
O941	O94	0.084700	0.716400	0.639800
O951	O95	0.825400	0.831100	0.516900
O961	O96	0.812300	0.742200	0.579300
Zn251	Zn25	0.354430	0.737200	0.716580
Zn261	Zn26	0.228370	0.762280	0.874210
Zn271	Zn27	0.228640	0.766190	0.621110
Zn281	Zn28	0.254610	0.392340	0.968960
C1211	C121	0.256100	0.589800	0.769300
C1221	C122	0.256700	0.533100	0.808700
H251	H25	0.258900	0.543000	0.848400
C1231	C123	0.254100	0.462300	0.790700
C1241	C124	0.250900	0.447400	0.731500
C1251	C125	0.252100	0.503800	0.692200
H261	H26	0.251700	0.493600	0.652600
C1261	C126	0.253800	0.574400	0.709500
C1271	C127	0.255700	0.661900	0.797900
C1281	C128	0.257600	0.407000	0.838600
C1291	C129	0.239600	0.373000	0.706700
C1301	C130	0.249500	0.630600	0.662800
C1311	C131	0.428000	0.771500	0.538600
C1321	C132	0.496100	0.786500	0.553900
H271	H27	0.506400	0.795800	0.592800
C1331	C133	0.549800	0.788400	0.513600
C1341	C134	0.535600	0.774700	0.455200
C1351	C135	0.467900	0.760900	0.439100
H281	H28	0.457900	0.754400	0.399800
C1361	C136	0.413700	0.756200	0.478900
C1371	C137	0.371300	0.770000	0.583700
C1381	C138	0.621900	0.804700	0.535600
C1391	C139	0.594300	0.766900	0.410500
C1401	C140	0.343700	0.726400	0.459700
O971	O97	0.305300	0.705700	0.792200
O981	O98	0.206200	0.673200	0.832500
O991	O99	0.256700	0.695700	0.680200
O1001	O100	0.237100	0.614400	0.612700
O1011	O101	0.277800	0.346200	0.824500
O1021	O102	0.241000	0.426400	0.888400
O1031	O103	0.281700	0.354900	0.666700
O1041	O104	0.188400	0.338600	0.724600
O1051	O105	0.309300	0.780400	0.568400
O1061	O106	0.392600	0.759000	0.635000
O1071	O107	0.645300	0.764600	0.574900
O1081	O108	0.651900	0.858900	0.515300
O1091	O109	0.650000	0.741000	0.430900
O1101	O110	0.584700	0.783600	0.360200
O1111	O111	0.325400	0.668900	0.483100
O1121	O112	0.312300	0.757800	0.420700
Zn291	Zn29	0.145570	0.262800	0.216580
Zn301	Zn30	0.271630	0.237720	0.374210
Zn311	Zn31	0.271360	0.233810	0.121110
Zn321	Zn32	0.245390	0.607660	0.468960
C1411	C141	0.243900	0.410200	0.269300
C1421	C142	0.243300	0.466900	0.308700
H291	H29	0.241100	0.457000	0.348400
C1431	C143	0.245900	0.537700	0.290700
C1441	C144	0.249100	0.552600	0.231500
C1451	C145	0.247900	0.496200	0.192200
H301	H30	0.248300	0.506400	0.152600
C1461	C146	0.246200	0.425600	0.209500
C1471	C147	0.244300	0.338100	0.297900
C1481	C148	0.242400	0.593000	0.338600
C1491	C149	0.260400	0.627000	0.206700
C1501	C150	0.250500	0.369400	0.162800
C1511	C151	0.072000	0.228500	0.038600
C1521	C152	0.003900	0.213500	0.053900
H311	H31	0.993600	0.204200	0.092800
C1531	C153	0.950200	0.211600	0.013600
C1541	C154	0.964400	0.225300	0.955200
C1551	C155	0.032100	0.239100	0.939100
H321	H32	0.042100	0.245600	0.899800
C1561	C156	0.086300	0.243800	0.978900
C1571	C157	0.128700	0.230000	0.083700
C1581	C158	0.878100	0.195300	0.035600
C1591	C159	0.905700	0.233100	0.910500
C1601	C160	0.156300	0.273600	0.959700
O1131	O113	0.194700	0.294300	0.292200
O1141	O114	0.293800	0.326800	0.332500
O1151	O115	0.243300	0.304300	0.180200
O1161	O116	0.262900	0.385600	0.112700
O1171	O117	0.222200	0.653800	0.324500
O1181	O118	0.259000	0.573600	0.388400
O1191	O119	0.218300	0.645100	0.166700
O1201	O120	0.311600	0.661400	0.224600
O1211	O121	0.190700	0.219600	0.068400
O1221	O122	0.107400	0.241000	0.135000
O1231	O123	0.854700	0.235400	0.074900
O1241	O124	0.848100	0.141100	0.015300
O1251	O125	0.850000	0.259000	0.930900
O1261	O126	0.915300	0.216400	0.860200
O1271	O127	0.174600	0.331100	0.983100
O1281	O128	0.187700	0.242200	0.920700
