data_LARPOL_charged_PM
_symmetry_space_group_name_H-M	'P1'
_cell_length_a	14.371200
_cell_length_b	18.125800
_cell_length_c	19.907000
_cell_angle_alpha	90.991800
_cell_angle_beta	90.000000
_cell_angle_gamma	90.000000
_symmetry_Int_Tables_number 1

loop_
_symmetry_equiv_pos_as_xyz
'x,y,z'

loop_
_atom_site_label
_atom_site_type_symbol
_atom_site_fract_x
_atom_site_fract_y
_atom_site_fract_z
Fe11	Fe1	0.815230	0.701070	0.409280
Fe21	Fe2	0.052340	0.750410	0.425220
Fe31	Fe3	0.199360	0.803180	0.562400
Fe41	Fe4	0.315230	0.798930	0.090720
Fe51	Fe5	0.552340	0.749590	0.074780
Fe61	Fe6	0.699360	0.696820	0.937600
Fe71	Fe7	0.184770	0.298930	0.590720
Fe81	Fe8	0.947660	0.249590	0.574780
Fe91	Fe9	0.800640	0.196820	0.437600
Fe101	Fe10	0.684770	0.201070	0.909280
Fe111	Fe11	0.447660	0.250410	0.925220
Fe121	Fe12	0.300640	0.303180	0.062400
H11	H1	0.133500	0.534500	0.423600
H21	H2	0.813200	0.964700	0.481000
H31	H3	0.869300	0.462200	0.401000
H41	H4	0.995300	0.033200	0.623100
H51	H5	0.981800	0.816300	0.571500
H61	H6	0.439500	0.707200	0.465500
H71	H7	0.296700	0.746200	0.296900
H81	H8	0.573100	0.706200	0.288100
H91	H9	0.074800	0.320200	0.447000
H101	H10	0.633500	0.965500	0.076400
H111	H11	0.313200	0.535300	0.019000
H121	H12	0.369300	0.037800	0.099000
H131	H13	0.495300	0.466800	0.876900
H141	H14	0.481800	0.683700	0.928500
H151	H15	0.939500	0.792800	0.034500
H161	H16	0.796700	0.753800	0.203100
H171	H17	0.073100	0.793800	0.211900
H181	H18	0.574800	0.179800	0.053000
H191	H19	0.866500	0.465500	0.576400
H201	H20	0.186800	0.035300	0.519000
H211	H21	0.130700	0.537800	0.599000
H221	H22	0.004700	0.966800	0.376900
H231	H23	0.018200	0.183700	0.428500
H241	H24	0.560500	0.292800	0.534500
H251	H25	0.703300	0.253800	0.703100
H261	H26	0.426900	0.293800	0.711900
H271	H27	0.925200	0.679800	0.553000
H281	H28	0.366500	0.034500	0.923600
H291	H29	0.686800	0.464700	0.981000
H301	H30	0.630700	0.962200	0.901000
H311	H31	0.504700	0.533200	0.123100
H321	H32	0.518200	0.316300	0.071500
H331	H33	0.060500	0.207200	0.965500
H341	H34	0.203300	0.246200	0.796900
H351	H35	0.926900	0.206200	0.788100
H361	H36	0.425200	0.820200	0.947000
C11	C1	0.089300	0.495500	0.424000
C21	C2	0.996100	0.511200	0.412100
C31	C3	0.901200	0.010500	0.550100
C41	C4	0.076400	0.902500	0.654800
C51	C5	0.860900	0.954000	0.512400
C61	C6	0.932800	0.453100	0.411300
C71	C7	0.432200	0.740900	0.205200
C81	C8	0.968800	0.994400	0.596900
C91	C9	0.267800	0.737500	0.427100
C101	C10	0.890400	0.881300	0.520400
C111	C11	0.433700	0.728300	0.280000
C121	C12	0.960500	0.865600	0.566900
C131	C13	0.438200	0.711800	0.418100
C141	C14	0.354900	0.727200	0.386700
C151	C15	0.520000	0.702900	0.382100
C161	C16	0.353900	0.735400	0.318500
C171	C17	0.517400	0.711600	0.313400
C181	C18	0.963700	0.589500	0.406300
C191	C19	0.854400	0.821000	0.476800
C201	C20	0.877600	0.090500	0.535300
C211	C21	0.998900	0.922100	0.606300
C221	C22	0.608500	0.687000	0.417000
C231	C23	0.119300	0.424600	0.436500
C241	C24	0.055100	0.368900	0.437600
C251	C25	0.218800	0.410100	0.451900
C261	C26	0.961000	0.382700	0.425100
C271	C27	0.894100	0.319200	0.427900
C281	C28	0.589300	0.004500	0.076000
C291	C29	0.496100	0.988800	0.087900
C301	C30	0.401200	0.489500	0.949900
C311	C31	0.576400	0.597500	0.845200
C321	C32	0.360900	0.546000	0.987600
C331	C33	0.432800	0.046900	0.088700
C341	C34	0.932200	0.759100	0.294800
C351	C35	0.468800	0.505600	0.903100
C361	C36	0.767800	0.762500	0.072900
C371	C37	0.390400	0.618700	0.979600
C381	C38	0.933700	0.771700	0.220000
C391	C39	0.460500	0.634400	0.933100
C401	C40	0.938200	0.788200	0.081900
C411	C41	0.854900	0.772800	0.113300
C421	C42	0.020000	0.797100	0.117900
C431	C43	0.853900	0.764600	0.181500
C441	C44	0.017400	0.788400	0.186600
C451	C45	0.463700	0.910500	0.093700
C461	C46	0.354400	0.679000	0.023200
C471	C47	0.377600	0.409500	0.964700
C481	C48	0.498900	0.577900	0.893700
C491	C49	0.108500	0.813000	0.083000
C501	C50	0.619300	0.075400	0.063500
C511	C51	0.555100	0.131100	0.062400
C521	C52	0.718800	0.089900	0.048100
C531	C53	0.461000	0.117300	0.074900
C541	C54	0.394100	0.180800	0.072100
C551	C55	0.910700	0.504500	0.576000
C561	C56	0.003900	0.488800	0.587900
C571	C57	0.098800	0.989500	0.449900
C581	C58	0.923600	0.097500	0.345200
C591	C59	0.139100	0.046000	0.487600
C601	C60	0.067200	0.546900	0.588700
C611	C61	0.567800	0.259100	0.794800
C621	C62	0.031200	0.005600	0.403100
C631	C63	0.732200	0.262500	0.572900
C641	C64	0.109600	0.118700	0.479600
C651	C65	0.566300	0.271700	0.720000
C661	C66	0.039500	0.134400	0.433100
C671	C67	0.561800	0.288200	0.581900
C681	C68	0.645100	0.272800	0.613300
C691	C69	0.480000	0.297100	0.617900
C701	C70	0.646100	0.264600	0.681500
C711	C71	0.482600	0.288400	0.686600
C721	C72	0.036300	0.410500	0.593700
C731	C73	0.145600	0.179000	0.523200
C741	C74	0.122400	0.909500	0.464700
C751	C75	0.001100	0.077900	0.393700
C761	C76	0.391500	0.313000	0.583000
C771	C77	0.880700	0.575400	0.563500
C781	C78	0.944900	0.631100	0.562400
C791	C79	0.781200	0.589900	0.548100
C801	C80	0.039000	0.617300	0.574900
C811	C81	0.105900	0.680800	0.572100
C821	C82	0.410700	0.995500	0.924000
C831	C83	0.503900	0.011200	0.912100
C841	C84	0.598800	0.510500	0.050100
C851	C85	0.423600	0.402500	0.154800
C861	C86	0.639100	0.454000	0.012400
C871	C87	0.567200	0.953100	0.911300
C881	C88	0.067800	0.240900	0.705200
C891	C89	0.531200	0.494400	0.096900
C901	C90	0.232200	0.237500	0.927100
C911	C91	0.609600	0.381300	0.020400
C921	C92	0.066300	0.228300	0.780000
C931	C93	0.539500	0.365600	0.066900
C941	C94	0.061800	0.211800	0.918100
C951	C95	0.145100	0.227200	0.886700
C961	C96	0.980000	0.202900	0.882100
C971	C97	0.146100	0.235400	0.818500
C981	C98	0.982600	0.211600	0.813400
C991	C99	0.536300	0.089500	0.906300
C1001	C100	0.645600	0.321000	0.976800
C1011	C101	0.622400	0.590500	0.035300
C1021	C102	0.501100	0.422100	0.106300
C1031	C103	0.891500	0.187000	0.917000
C1041	C104	0.380700	0.924600	0.936500
C1051	C105	0.444900	0.868900	0.937600
C1061	C106	0.281200	0.910100	0.951900
C1071	C107	0.539000	0.882700	0.925100
C1081	C108	0.605900	0.819200	0.927900
O11	O1	0.682300	0.684200	0.382000
O21	O2	0.908000	0.765400	0.463800
O31	O3	0.192200	0.733300	0.397200
O41	O4	0.507000	0.732200	0.173000
O51	O5	0.774600	0.822100	0.453600
O61	O6	0.877300	0.600700	0.400800
O71	O7	0.279600	0.751900	0.488600
O81	O8	0.236700	0.346600	0.478900
O91	O9	0.354200	0.759300	0.181300
O101	O10	0.025000	0.638500	0.410200
O111	O11	0.817300	0.102000	0.491100
O121	O12	0.923800	0.138000	0.566600
O131	O13	0.124000	0.845800	0.643600
O141	O14	0.279000	0.454000	0.439700
O151	O15	0.087300	0.944700	0.704300
O161	O16	0.605400	0.677200	0.478700
O171	O17	0.912600	0.266700	0.468800
O181	O18	0.824800	0.316600	0.390600
O191	O19	0.325500	0.828800	0.613900
O201	O20	0.182300	0.815800	0.118000
O211	O21	0.408000	0.734600	0.036200
O221	O22	0.692200	0.766700	0.102800
O231	O23	0.007000	0.767800	0.327000
O241	O24	0.274600	0.677900	0.046400
O251	O25	0.377300	0.899300	0.099200
O261	O26	0.779600	0.748100	0.011400
O271	O27	0.736700	0.153400	0.021100
O281	O28	0.854200	0.740700	0.318700
O291	O29	0.525000	0.861500	0.089800
O301	O30	0.317300	0.398000	0.008900
O311	O31	0.423800	0.362000	0.933400
O321	O32	0.624000	0.654200	0.856400
O331	O33	0.779000	0.046000	0.060300
O341	O34	0.587300	0.555300	0.795700
O351	O35	0.105400	0.822800	0.021300
O361	O36	0.412600	0.233300	0.031200
O371	O37	0.324800	0.183400	0.109400
O381	O38	0.825500	0.671200	0.886100
O391	O39	0.317700	0.315800	0.618000
O401	O40	0.092000	0.234600	0.536200
O411	O41	0.807800	0.266700	0.602800
O421	O42	0.493000	0.267800	0.827000
O431	O43	0.225400	0.177900	0.546400
O441	O44	0.122700	0.399300	0.599200
O451	O45	0.720400	0.248100	0.511400
O461	O46	0.763300	0.653400	0.521100
O471	O47	0.645800	0.240700	0.818700
O481	O48	0.975000	0.361500	0.589800
O491	O49	0.182700	0.898000	0.508900
O501	O50	0.076200	0.862000	0.433400
O511	O51	0.876000	0.154200	0.356400
O521	O52	0.721000	0.546000	0.560300
O531	O53	0.912700	0.055300	0.295700
O541	O54	0.394600	0.322800	0.521300
O551	O55	0.087400	0.733300	0.531200
O561	O56	0.175200	0.683400	0.609400
O571	O57	0.674500	0.171200	0.386100
O581	O58	0.817700	0.184200	0.882000
O591	O59	0.592000	0.265400	0.963800
O601	O60	0.307800	0.233300	0.897200
O611	O61	0.993000	0.232200	0.673000
O621	O62	0.725400	0.322100	0.953600
O631	O63	0.622700	0.100700	0.900800
O641	O64	0.220400	0.251900	0.988600
O651	O65	0.263300	0.846600	0.978900
O661	O66	0.145800	0.259300	0.681300
O671	O67	0.475000	0.138500	0.910200
O681	O68	0.682700	0.602000	0.991100
O691	O69	0.576200	0.638000	0.066600
O701	O70	0.376000	0.345800	0.143600
O711	O71	0.221000	0.954000	0.939700
O721	O72	0.412700	0.444700	0.204300
O731	O73	0.894600	0.177200	0.978700
O741	O74	0.587400	0.766700	0.968800
O751	O75	0.675200	0.816600	0.890600
O761	O76	0.174500	0.328800	0.113900
H371	H37	0.707600	0.903100	0.362300
H381	H38	0.783300	0.869000	0.311600
H391	H39	0.792300	0.952800	0.337300
H401	H40	0.584000	0.867300	0.278800
H411	H41	0.595300	0.894800	0.203300
H421	H42	0.664800	0.834000	0.232000
H431	H43	0.596200	0.997100	0.319600
H441	H44	0.684000	0.045200	0.297300
H451	H45	0.606200	0.022300	0.243300
H461	H46	0.794500	0.908100	0.199400
H471	H47	0.723100	0.967300	0.170300
H481	H48	0.801000	0.992800	0.223100
C1091	C109	0.748600	0.913700	0.324300
C1101	C110	0.628800	0.878500	0.243300
C1111	C111	0.640300	0.006400	0.283200
C1121	C112	0.758600	0.952800	0.210000
N11	N1	0.692500	0.937800	0.267000
H491	H49	0.240600	0.855800	0.282900
H501	H50	0.169100	0.915900	0.312300
H511	H51	0.194200	0.914500	0.234000
H521	H52	0.399000	0.895500	0.247100
H531	H53	0.355000	0.955200	0.198000
H541	H54	0.427600	0.980500	0.254800
H551	H55	0.358200	0.897700	0.367600
H561	H56	0.387700	0.982800	0.370900
H571	H57	0.286800	0.958300	0.396100
H581	H58	0.238000	0.044600	0.240500
H591	H59	0.214600	0.047900	0.319100
H601	H60	0.315300	0.072000	0.293100
C1131	C113	0.218600	0.906800	0.279300
C1141	C114	0.376700	0.946500	0.243900
C1151	C115	0.336000	0.948500	0.363100
C1161	C116	0.263300	0.037900	0.285700
N21	N2	0.297600	0.958800	0.292600
H611	H61	0.207600	0.596900	0.137700
H621	H62	0.283300	0.631000	0.188400
H631	H63	0.292300	0.547200	0.162700
H641	H64	0.084000	0.632700	0.221200
H651	H65	0.095300	0.605200	0.296700
H661	H66	0.164800	0.666000	0.268000
H671	H67	0.096200	0.502900	0.180400
H681	H68	0.184000	0.454800	0.202700
H691	H69	0.106200	0.477700	0.256700
H701	H70	0.294500	0.591900	0.300600
H711	H71	0.223100	0.532700	0.329700
H721	H72	0.301000	0.507200	0.276900
C1171	C117	0.248600	0.586300	0.175700
C1181	C118	0.128800	0.621500	0.256700
C1191	C119	0.140300	0.493600	0.216800
C1201	C120	0.258600	0.547200	0.290000
N31	N3	0.192500	0.562200	0.233000
H731	H73	0.740600	0.644200	0.217100
H741	H74	0.669100	0.584100	0.187700
H751	H75	0.694200	0.585500	0.266000
H761	H76	0.899000	0.604500	0.252900
H771	H77	0.855000	0.544800	0.302000
H781	H78	0.927600	0.519500	0.245200
H791	H79	0.858200	0.602300	0.132400
H801	H80	0.887700	0.517200	0.129100
H811	H81	0.786800	0.541700	0.103900
H821	H82	0.738000	0.455400	0.259500
H831	H83	0.714600	0.452100	0.180900
H841	H84	0.815300	0.428000	0.206900
C1211	C121	0.718600	0.593200	0.220700
C1221	C122	0.876700	0.553500	0.256100
C1231	C123	0.836000	0.551500	0.136900
C1241	C124	0.763300	0.462100	0.214300
N41	N4	0.797600	0.541200	0.207400
H851	H85	0.292400	0.096900	0.637700
H861	H86	0.216700	0.131000	0.688400
H871	H87	0.207700	0.047200	0.662700
H881	H88	0.416000	0.132700	0.721200
H891	H89	0.404700	0.105200	0.796700
H901	H90	0.335200	0.166000	0.768000
H911	H91	0.403800	0.002900	0.680400
H921	H92	0.316000	0.954800	0.702700
H931	H93	0.393800	0.977700	0.756700
H941	H94	0.205500	0.091900	0.800600
H951	H95	0.276900	0.032700	0.829700
H961	H96	0.199000	0.007200	0.776900
C1251	C125	0.251400	0.086300	0.675700
C1261	C126	0.371200	0.121500	0.756700
C1271	C127	0.359700	0.993600	0.716800
C1281	C128	0.241400	0.047200	0.790000
N51	N5	0.307500	0.062200	0.733000
H971	H97	0.759400	0.144200	0.717100
H981	H98	0.830900	0.084100	0.687700
H991	H99	0.805800	0.085500	0.766000
H1001	H100	0.601000	0.104500	0.752900
H1011	H101	0.645000	0.044800	0.802000
H1021	H102	0.572400	0.019500	0.745200
H1031	H103	0.641800	0.102300	0.632400
H1041	H104	0.612300	0.017200	0.629100
H1051	H105	0.713200	0.041700	0.603900
H1061	H106	0.762000	0.955400	0.759500
H1071	H107	0.785400	0.952100	0.680900
H1081	H108	0.684700	0.928000	0.706900
C1291	C129	0.781400	0.093200	0.720700
C1301	C130	0.623300	0.053500	0.756100
C1311	C131	0.664000	0.051500	0.636900
C1321	C132	0.736700	0.962100	0.714300
N61	N6	0.702400	0.041200	0.707400
H1091	H109	0.792400	0.403100	0.862300
H1101	H110	0.716700	0.369000	0.811600
H1111	H111	0.707700	0.452800	0.837300
H1121	H112	0.916000	0.367300	0.778800
H1131	H113	0.904700	0.394800	0.703300
H1141	H114	0.835200	0.334000	0.732000
H1151	H115	0.903800	0.497100	0.819600
H1161	H116	0.816000	0.545200	0.797300
H1171	H117	0.893800	0.522300	0.743300
H1181	H118	0.705500	0.408100	0.699400
H1191	H119	0.776900	0.467300	0.670300
H1201	H120	0.699000	0.492800	0.723100
C1331	C133	0.751400	0.413700	0.824300
C1341	C134	0.871200	0.378500	0.743300
C1351	C135	0.859700	0.506400	0.783200
C1361	C136	0.741400	0.452800	0.710000
N71	N7	0.807500	0.437800	0.767000
H1211	H121	0.259400	0.355800	0.782900
H1221	H122	0.330900	0.415900	0.812300
H1231	H123	0.305800	0.414500	0.734000
H1241	H124	0.101000	0.395500	0.747100
H1251	H125	0.145000	0.455200	0.698000
H1261	H126	0.072400	0.480500	0.754800
H1271	H127	0.141800	0.397700	0.867600
H1281	H128	0.112300	0.482800	0.870900
H1291	H129	0.213200	0.458300	0.896100
H1301	H130	0.262000	0.544600	0.740500
H1311	H131	0.285400	0.547900	0.819100
H1321	H132	0.184700	0.572000	0.793100
C1371	C137	0.281400	0.406800	0.779300
C1381	C138	0.123300	0.446500	0.743900
C1391	C139	0.164000	0.448500	0.863100
C1401	C140	0.236700	0.537900	0.785700
N81	N8	0.202400	0.458800	0.792600
