data_LARVIM_clean_PM
_symmetry_space_group_name_H-M	'P1'
_cell_length_a	30.809900
_cell_length_b	30.809900
_cell_length_c	16.460500
_cell_angle_alpha	90.000000
_cell_angle_beta	90.000000
_cell_angle_gamma	120.000000
_symmetry_Int_Tables_number 1

loop_
_symmetry_equiv_pos_as_xyz
'x,y,z'

loop_
_atom_site_label
_atom_site_type_symbol
_atom_site_fract_x
_atom_site_fract_y
_atom_site_fract_z
Fe11	Fe1	0.797680	0.169590	0.754170
Fe21	Fe2	0.908110	0.274330	0.752490
Fe31	Fe3	0.898550	0.161020	0.746730
Fe41	Fe4	0.643250	0.262750	0.253540
Cl11	Cl1	0.720420	0.249290	0.670530
Cl21	Cl2	0.674240	0.274930	0.521040
Cl31	Cl3	0.830990	0.306740	0.338860
Cl41	Cl4	0.877500	0.279220	0.486530
Cl51	Cl5	0.800160	0.146670	0.481530
Cl61	Cl6	0.747830	0.071060	0.335520
Cl71	Cl7	0.730480	0.921850	0.523000
Cl81	Cl8	0.783770	0.996660	0.667070
Cl91	Cl9	0.715910	0.008820	0.836840
Cl101	Cl10	0.669580	0.936770	0.984550
Cl111	Cl11	0.827690	0.063320	0.168770
Cl121	Cl12	0.873610	0.135450	0.019720
Cl131	Cl13	0.813890	0.201140	0.027760
Cl141	Cl14	0.761360	0.223960	0.171250
Cl151	Cl15	0.741730	0.355070	0.982770
Cl161	Cl16	0.795000	0.331780	0.839020
O11	O1	0.863900	0.198200	0.753000
O21	O2	0.792500	0.205000	0.658600
O31	O3	0.856400	0.283000	0.675200
O41	O4	0.697100	0.266800	0.330100
O51	O5	0.751500	0.349100	0.353200
O61	O6	0.784100	0.113200	0.676600
O71	O7	0.857000	0.117500	0.650200
O81	O8	0.673700	0.949400	0.351500
O91	O9	0.748400	0.953200	0.332700
O101	O10	0.790700	0.127200	0.851700
O111	O11	0.849800	0.105500	0.824900
O121	O12	0.750900	0.945800	0.155600
O131	O13	0.691800	0.964300	0.171900
O141	O14	0.792500	0.216900	0.831000
O151	O15	0.870500	0.281400	0.853900
O161	O16	0.685400	0.266700	0.151600
O171	O17	0.756100	0.337600	0.174000
C11	C1	0.728700	0.296600	0.138300
C21	C2	0.817900	0.252800	0.642300
C31	C3	0.796000	0.265650	0.570700
C41	C4	0.750500	0.264730	0.578200
C51	C5	0.730600	0.276620	0.511800
C61	C6	0.755800	0.289400	0.438000
C71	C7	0.801200	0.290200	0.430800
C81	C8	0.821500	0.278500	0.497100
C91	C9	0.731700	0.301500	0.365400
C101	C10	0.814400	0.104200	0.635400
C111	C11	0.788750	0.067200	0.565100
C121	C12	0.781020	0.084300	0.491500
C131	C13	0.757900	0.051300	0.427700
C141	C14	0.742400	0.000800	0.436800
C151	C15	0.749900	0.983500	0.510600
C161	C16	0.773000	0.016500	0.575000
C171	C17	0.719400	0.964200	0.367600
C181	C18	0.814100	0.104800	0.865500
C191	C19	0.791900	0.067900	0.936100
C201	C20	0.746400	0.023500	0.928500
C211	C21	0.726100	0.991600	0.994800
C221	C22	0.751400	0.004100	0.068900
C231	C23	0.796900	0.048600	0.076400
C241	C24	0.817100	0.080500	0.009600
C251	C25	0.726800	0.968000	0.137100
C261	C26	0.824800	0.255500	0.868500
C271	C27	0.801500	0.267700	0.941800
C281	C28	0.794050	0.243470	0.016000
C291	C29	0.770670	0.253600	0.079400
C301	C30	0.754500	0.288100	0.068800
C311	C31	0.761900	0.312500	0.994600
C321	C32	0.785600	0.302400	0.931300
Fe51	Fe5	0.830410	0.628090	0.754170
Fe61	Fe6	0.725670	0.633780	0.752490
Fe71	Fe7	0.838980	0.737530	0.746730
Fe81	Fe8	0.737250	0.380500	0.253540
Cl171	Cl17	0.750710	0.471130	0.670530
Cl181	Cl18	0.725070	0.399310	0.521040
Cl191	Cl19	0.693260	0.524250	0.338860
Cl201	Cl20	0.720780	0.598280	0.486530
Cl211	Cl21	0.853330	0.653490	0.481530
Cl221	Cl22	0.928940	0.676770	0.335520
Cl231	Cl23	0.078150	0.808630	0.523000
Cl241	Cl24	0.003340	0.787110	0.667070
Cl251	Cl25	0.991180	0.707090	0.836840
Cl261	Cl26	0.063230	0.732810	0.984550
Cl271	Cl27	0.936680	0.764370	0.168770
Cl281	Cl28	0.864550	0.738160	0.019720
Cl291	Cl29	0.798860	0.612750	0.027760
Cl301	Cl30	0.776040	0.537400	0.171250
Cl311	Cl31	0.644930	0.386660	0.982770
Cl321	Cl32	0.668220	0.463220	0.839020
O181	O18	0.801800	0.665700	0.753000
O191	O19	0.795000	0.587500	0.658600
O201	O20	0.717000	0.573400	0.675200
O211	O21	0.733200	0.430300	0.330100
O221	O22	0.650900	0.402400	0.353200
O231	O23	0.886800	0.670900	0.676600
O241	O24	0.882500	0.739500	0.650200
O251	O25	0.050600	0.724300	0.351500
O261	O26	0.046800	0.795200	0.332700
O271	O27	0.872800	0.663500	0.851700
O281	O28	0.894500	0.744300	0.824900
O291	O29	0.054200	0.805100	0.155600
O301	O30	0.035700	0.727500	0.171900
O311	O31	0.783100	0.575600	0.831000
O321	O32	0.718600	0.589100	0.853900
O331	O33	0.733300	0.418700	0.151600
O341	O34	0.662400	0.418500	0.174000
C331	C33	0.703400	0.432100	0.138300
C341	C34	0.747200	0.565100	0.642300
C351	C35	0.734350	0.530350	0.570700
C361	C36	0.735270	0.485770	0.578200
C371	C37	0.723380	0.453980	0.511800
C381	C38	0.710600	0.466400	0.438000
C391	C39	0.709800	0.511000	0.430800
C401	C40	0.721500	0.543000	0.497100
C411	C41	0.698500	0.430200	0.365400
C421	C42	0.895800	0.710200	0.635400
C431	C43	0.932800	0.721550	0.565100
C441	C44	0.915700	0.696720	0.491500
C451	C45	0.948700	0.706600	0.427700
C461	C46	0.999200	0.741600	0.436800
C471	C47	0.016500	0.766400	0.510600
C481	C48	0.983500	0.756500	0.575000
C491	C49	0.035800	0.755200	0.367600
C501	C50	0.895200	0.709300	0.865500
C511	C51	0.932100	0.724000	0.936100
C521	C52	0.976500	0.722900	0.928500
C531	C53	0.008400	0.734500	0.994800
C541	C54	0.995900	0.747300	0.068900
C551	C55	0.951400	0.748300	0.076400
C561	C56	0.919500	0.736600	0.009600
C571	C57	0.032000	0.758800	0.137100
C581	C58	0.744500	0.569300	0.868500
C591	C59	0.732300	0.533800	0.941800
C601	C60	0.756530	0.550580	0.016000
C611	C61	0.746400	0.517070	0.079400
C621	C62	0.711900	0.466400	0.068800
C631	C63	0.687500	0.449400	0.994600
C641	C64	0.697600	0.483200	0.931300
Fe91	Fe9	0.371910	0.202320	0.754170
Fe101	Fe10	0.366220	0.091890	0.752490
Fe111	Fe11	0.262470	0.101450	0.746730
Fe121	Fe12	0.619500	0.356750	0.253540
Cl331	Cl33	0.528870	0.279580	0.670530
Cl341	Cl34	0.600690	0.325760	0.521040
Cl351	Cl35	0.475750	0.169010	0.338860
Cl361	Cl36	0.401720	0.122500	0.486530
Cl371	Cl37	0.346510	0.199840	0.481530
Cl381	Cl38	0.323230	0.252170	0.335520
Cl391	Cl39	0.191370	0.269520	0.523000
Cl401	Cl40	0.212890	0.216230	0.667070
Cl411	Cl41	0.292910	0.284090	0.836840
Cl421	Cl42	0.267190	0.330420	0.984550
Cl431	Cl43	0.235630	0.172310	0.168770
Cl441	Cl44	0.261840	0.126390	0.019720
Cl451	Cl45	0.387250	0.186110	0.027760
Cl461	Cl46	0.462600	0.238640	0.171250
Cl471	Cl47	0.613340	0.258270	0.982770
Cl481	Cl48	0.536780	0.205000	0.839020
O351	O35	0.334300	0.136100	0.753000
O361	O36	0.412500	0.207500	0.658600
O371	O37	0.426600	0.143600	0.675200
O381	O38	0.569700	0.302900	0.330100
O391	O39	0.597600	0.248500	0.353200
O401	O40	0.329100	0.215900	0.676600
O411	O41	0.260500	0.143000	0.650200
O421	O42	0.275700	0.326300	0.351500
O431	O43	0.204800	0.251600	0.332700
O441	O44	0.336500	0.209300	0.851700
O451	O45	0.255700	0.150200	0.824900
O461	O46	0.194900	0.249100	0.155600
O471	O47	0.272500	0.308200	0.171900
O481	O48	0.424400	0.207500	0.831000
O491	O49	0.410900	0.129500	0.853900
O501	O50	0.581300	0.314600	0.151600
O511	O51	0.581500	0.243900	0.174000
C651	C65	0.567900	0.271300	0.138300
C661	C66	0.434900	0.182100	0.642300
C671	C67	0.469650	0.204000	0.570700
C681	C68	0.514230	0.249500	0.578200
C691	C69	0.546020	0.269400	0.511800
C701	C70	0.533600	0.244200	0.438000
C711	C71	0.489000	0.198800	0.430800
C721	C72	0.457000	0.178500	0.497100
C731	C73	0.569800	0.268300	0.365400
C741	C74	0.289800	0.185600	0.635400
C751	C75	0.278450	0.211250	0.565100
C761	C76	0.303280	0.218980	0.491500
C771	C77	0.293400	0.242100	0.427700
C781	C78	0.258400	0.257600	0.436800
C791	C79	0.233600	0.250100	0.510600
C801	C80	0.243500	0.227000	0.575000
C811	C81	0.244800	0.280600	0.367600
C821	C82	0.290700	0.185900	0.865500
C831	C83	0.276000	0.208100	0.936100
C841	C84	0.277100	0.253600	0.928500
C851	C85	0.265500	0.273900	0.994800
C861	C86	0.252700	0.248600	0.068900
C871	C87	0.251700	0.203100	0.076400
C881	C88	0.263400	0.182900	0.009600
C891	C89	0.241200	0.273200	0.137100
C901	C90	0.430700	0.175200	0.868500
C911	C91	0.466200	0.198500	0.941800
C921	C92	0.449420	0.205950	0.016000
C931	C93	0.482930	0.229330	0.079400
C941	C94	0.533600	0.245500	0.068800
C951	C95	0.550600	0.238100	0.994600
C961	C96	0.516800	0.214400	0.931300
Fe131	Fe13	0.202320	0.830410	0.245830
Fe141	Fe14	0.091890	0.725670	0.247510
Fe151	Fe15	0.101450	0.838980	0.253270
Fe161	Fe16	0.356750	0.737250	0.746460
Cl491	Cl49	0.279580	0.750710	0.329470
Cl501	Cl50	0.325760	0.725070	0.478960
Cl511	Cl51	0.169010	0.693260	0.661140
Cl521	Cl52	0.122500	0.720780	0.513470
Cl531	Cl53	0.199840	0.853330	0.518470
Cl541	Cl54	0.252170	0.928940	0.664480
Cl551	Cl55	0.269520	0.078150	0.477000
Cl561	Cl56	0.216230	0.003340	0.332930
Cl571	Cl57	0.284090	0.991180	0.163160
Cl581	Cl58	0.330420	0.063230	0.015450
Cl591	Cl59	0.172310	0.936680	0.831230
Cl601	Cl60	0.126390	0.864550	0.980280
Cl611	Cl61	0.186110	0.798860	0.972240
Cl621	Cl62	0.238640	0.776040	0.828750
Cl631	Cl63	0.258270	0.644930	0.017230
Cl641	Cl64	0.205000	0.668220	0.160980
O521	O52	0.136100	0.801800	0.247000
O531	O53	0.207500	0.795000	0.341400
O541	O54	0.143600	0.717000	0.324800
O551	O55	0.302900	0.733200	0.669900
O561	O56	0.248500	0.650900	0.646800
O571	O57	0.215900	0.886800	0.323400
O581	O58	0.143000	0.882500	0.349800
O591	O59	0.326300	0.050600	0.648500
O601	O60	0.251600	0.046800	0.667300
O611	O61	0.209300	0.872800	0.148300
O621	O62	0.150200	0.894500	0.175100
O631	O63	0.249100	0.054200	0.844400
O641	O64	0.308200	0.035700	0.828100
O651	O65	0.207500	0.783100	0.169000
O661	O66	0.129500	0.718600	0.146100
O671	O67	0.314600	0.733300	0.848400
O681	O68	0.243900	0.662400	0.826000
C971	C97	0.271300	0.703400	0.861700
C981	C98	0.182100	0.747200	0.357700
C991	C99	0.204000	0.734350	0.429300
C1001	C100	0.249500	0.735270	0.421800
C1011	C101	0.269400	0.723380	0.488200
C1021	C102	0.244200	0.710600	0.562000
C1031	C103	0.198800	0.709800	0.569200
C1041	C104	0.178500	0.721500	0.502900
C1051	C105	0.268300	0.698500	0.634600
C1061	C106	0.185600	0.895800	0.364600
C1071	C107	0.211250	0.932800	0.434900
C1081	C108	0.218980	0.915700	0.508500
C1091	C109	0.242100	0.948700	0.572300
C1101	C110	0.257600	0.999200	0.563200
C1111	C111	0.250100	0.016500	0.489400
C1121	C112	0.227000	0.983500	0.425000
C1131	C113	0.280600	0.035800	0.632400
C1141	C114	0.185900	0.895200	0.134500
C1151	C115	0.208100	0.932100	0.063900
C1161	C116	0.253600	0.976500	0.071500
C1171	C117	0.273900	0.008400	0.005200
C1181	C118	0.248600	0.995900	0.931100
C1191	C119	0.203100	0.951400	0.923600
C1201	C120	0.182900	0.919500	0.990400
C1211	C121	0.273200	0.032000	0.862900
C1221	C122	0.175200	0.744500	0.131500
C1231	C123	0.198500	0.732300	0.058200
C1241	C124	0.205950	0.756530	0.984000
C1251	C125	0.229330	0.746400	0.920600
C1261	C126	0.245500	0.711900	0.931200
C1271	C127	0.238100	0.687500	0.005400
C1281	C128	0.214400	0.697600	0.068700
Fe171	Fe17	0.169590	0.371910	0.245830
Fe181	Fe18	0.274330	0.366220	0.247510
Fe191	Fe19	0.161020	0.262470	0.253270
Fe201	Fe20	0.262750	0.619500	0.746460
Cl651	Cl65	0.249290	0.528870	0.329470
Cl661	Cl66	0.274930	0.600690	0.478960
Cl671	Cl67	0.306740	0.475750	0.661140
Cl681	Cl68	0.279220	0.401720	0.513470
Cl691	Cl69	0.146670	0.346510	0.518470
Cl701	Cl70	0.071060	0.323230	0.664480
Cl711	Cl71	0.921850	0.191370	0.477000
Cl721	Cl72	0.996660	0.212890	0.332930
Cl731	Cl73	0.008820	0.292910	0.163160
Cl741	Cl74	0.936770	0.267190	0.015450
Cl751	Cl75	0.063320	0.235630	0.831230
Cl761	Cl76	0.135450	0.261840	0.980280
Cl771	Cl77	0.201140	0.387250	0.972240
Cl781	Cl78	0.223960	0.462600	0.828750
Cl791	Cl79	0.355070	0.613340	0.017230
Cl801	Cl80	0.331780	0.536780	0.160980
O691	O69	0.198200	0.334300	0.247000
O701	O70	0.205000	0.412500	0.341400
O711	O71	0.283000	0.426600	0.324800
O721	O72	0.266800	0.569700	0.669900
O731	O73	0.349100	0.597600	0.646800
O741	O74	0.113200	0.329100	0.323400
O751	O75	0.117500	0.260500	0.349800
O761	O76	0.949400	0.275700	0.648500
O771	O77	0.953200	0.204800	0.667300
O781	O78	0.127200	0.336500	0.148300
O791	O79	0.105500	0.255700	0.175100
O801	O80	0.945800	0.194900	0.844400
O811	O81	0.964300	0.272500	0.828100
O821	O82	0.216900	0.424400	0.169000
O831	O83	0.281400	0.410900	0.146100
O841	O84	0.266700	0.581300	0.848400
O851	O85	0.337600	0.581500	0.826000
C1291	C129	0.296600	0.567900	0.861700
C1301	C130	0.252800	0.434900	0.357700
C1311	C131	0.265650	0.469650	0.429300
C1321	C132	0.264730	0.514230	0.421800
C1331	C133	0.276620	0.546020	0.488200
C1341	C134	0.289400	0.533600	0.562000
C1351	C135	0.290200	0.489000	0.569200
C1361	C136	0.278500	0.457000	0.502900
C1371	C137	0.301500	0.569800	0.634600
C1381	C138	0.104200	0.289800	0.364600
C1391	C139	0.067200	0.278450	0.434900
C1401	C140	0.084300	0.303280	0.508500
C1411	C141	0.051300	0.293400	0.572300
C1421	C142	0.000800	0.258400	0.563200
C1431	C143	0.983500	0.233600	0.489400
C1441	C144	0.016500	0.243500	0.425000
C1451	C145	0.964200	0.244800	0.632400
C1461	C146	0.104800	0.290700	0.134500
C1471	C147	0.067900	0.276000	0.063900
C1481	C148	0.023500	0.277100	0.071500
C1491	C149	0.991600	0.265500	0.005200
C1501	C150	0.004100	0.252700	0.931100
C1511	C151	0.048600	0.251700	0.923600
C1521	C152	0.080500	0.263400	0.990400
C1531	C153	0.968000	0.241200	0.862900
C1541	C154	0.255500	0.430700	0.131500
C1551	C155	0.267700	0.466200	0.058200
C1561	C156	0.243470	0.449420	0.984000
C1571	C157	0.253600	0.482930	0.920600
C1581	C158	0.288100	0.533600	0.931200
C1591	C159	0.312500	0.550600	0.005400
C1601	C160	0.302400	0.516800	0.068700
Fe211	Fe21	0.628090	0.797680	0.245830
Fe221	Fe22	0.633780	0.908110	0.247510
Fe231	Fe23	0.737530	0.898550	0.253270
Fe241	Fe24	0.380500	0.643250	0.746460
Cl811	Cl81	0.471130	0.720420	0.329470
Cl821	Cl82	0.399310	0.674240	0.478960
Cl831	Cl83	0.524250	0.830990	0.661140
Cl841	Cl84	0.598280	0.877500	0.513470
Cl851	Cl85	0.653490	0.800160	0.518470
Cl861	Cl86	0.676770	0.747830	0.664480
Cl871	Cl87	0.808630	0.730480	0.477000
Cl881	Cl88	0.787110	0.783770	0.332930
Cl891	Cl89	0.707090	0.715910	0.163160
Cl901	Cl90	0.732810	0.669580	0.015450
Cl911	Cl91	0.764370	0.827690	0.831230
Cl921	Cl92	0.738160	0.873610	0.980280
Cl931	Cl93	0.612750	0.813890	0.972240
Cl941	Cl94	0.537400	0.761360	0.828750
Cl951	Cl95	0.386660	0.741730	0.017230
Cl961	Cl96	0.463220	0.795000	0.160980
O861	O86	0.665700	0.863900	0.247000
O871	O87	0.587500	0.792500	0.341400
O881	O88	0.573400	0.856400	0.324800
O891	O89	0.430300	0.697100	0.669900
O901	O90	0.402400	0.751500	0.646800
O911	O91	0.670900	0.784100	0.323400
O921	O92	0.739500	0.857000	0.349800
O931	O93	0.724300	0.673700	0.648500
O941	O94	0.795200	0.748400	0.667300
O951	O95	0.663500	0.790700	0.148300
O961	O96	0.744300	0.849800	0.175100
O971	O97	0.805100	0.750900	0.844400
O981	O98	0.727500	0.691800	0.828100
O991	O99	0.575600	0.792500	0.169000
O1001	O100	0.589100	0.870500	0.146100
O1011	O101	0.418700	0.685400	0.848400
O1021	O102	0.418500	0.756100	0.826000
C1611	C161	0.432100	0.728700	0.861700
C1621	C162	0.565100	0.817900	0.357700
C1631	C163	0.530350	0.796000	0.429300
C1641	C164	0.485770	0.750500	0.421800
C1651	C165	0.453980	0.730600	0.488200
C1661	C166	0.466400	0.755800	0.562000
C1671	C167	0.511000	0.801200	0.569200
C1681	C168	0.543000	0.821500	0.502900
C1691	C169	0.430200	0.731700	0.634600
C1701	C170	0.710200	0.814400	0.364600
C1711	C171	0.721550	0.788750	0.434900
C1721	C172	0.696720	0.781020	0.508500
C1731	C173	0.706600	0.757900	0.572300
C1741	C174	0.741600	0.742400	0.563200
C1751	C175	0.766400	0.749900	0.489400
C1761	C176	0.756500	0.773000	0.425000
C1771	C177	0.755200	0.719400	0.632400
C1781	C178	0.709300	0.814100	0.134500
C1791	C179	0.724000	0.791900	0.063900
C1801	C180	0.722900	0.746400	0.071500
C1811	C181	0.734500	0.726100	0.005200
C1821	C182	0.747300	0.751400	0.931100
C1831	C183	0.748300	0.796900	0.923600
C1841	C184	0.736600	0.817100	0.990400
C1851	C185	0.758800	0.726800	0.862900
C1861	C186	0.569300	0.824800	0.131500
C1871	C187	0.533800	0.801500	0.058200
C1881	C188	0.550580	0.794050	0.984000
C1891	C189	0.517070	0.770670	0.920600
C1901	C190	0.466400	0.754500	0.931200
C1911	C191	0.449400	0.761900	0.005400
C1921	C192	0.483200	0.785600	0.068700
O1031	O103	0.666670	0.333330	0.253000
O1041	O104	0.333330	0.666670	0.747000
