data_LASQON_clean_PM
_symmetry_space_group_name_H-M	'P1'
_cell_length_a	10.047000
_cell_length_b	12.658000
_cell_length_c	13.494000
_cell_angle_alpha	86.560000
_cell_angle_beta	71.430000
_cell_angle_gamma	72.160000
_symmetry_Int_Tables_number 1

loop_
_symmetry_equiv_pos_as_xyz
'x,y,z'

loop_
_atom_site_label
_atom_site_type_symbol
_atom_site_fract_x
_atom_site_fract_y
_atom_site_fract_z
Ni11	Ni1	0.383590	0.924670	0.421280
Ni21	Ni2	0.616410	0.075330	0.578720
Ni31	Ni3	0.000000	0.500000	0.000000
H11	H1	0.084800	0.123900	0.441900
H21	H2	0.486000	0.137000	0.307800
H31	H3	0.320100	0.324600	0.308500
H41	H4	0.948700	0.314500	0.561700
H51	H5	0.050300	0.412200	0.266900
H61	H6	0.664700	0.717700	0.376400
H71	H7	0.298000	0.740400	0.600100
H81	H8	0.473500	0.562800	0.616800
H91	H9	0.729100	0.459000	0.605700
H101	H10	0.828000	0.553000	0.309700
H111	H11	0.700300	0.694000	0.020100
H121	H12	0.090500	0.698200	0.844900
H131	H13	0.922000	0.883200	0.845000
H141	H14	0.557900	0.875200	0.124000
H151	H15	0.657900	0.978300	0.829300
H161	H16	0.924400	0.969000	0.394400
H171	H17	0.247600	0.726700	0.202500
H181	H18	0.824700	0.772700	0.223300
H191	H19	0.915200	0.876100	0.558100
H201	H20	0.514000	0.863000	0.692200
H211	H21	0.679900	0.675400	0.691500
H221	H22	0.051300	0.685500	0.438300
H231	H23	0.949700	0.587800	0.733100
H241	H24	0.335300	0.282300	0.623600
H251	H25	0.702000	0.259600	0.399900
H261	H26	0.526500	0.437200	0.383200
H271	H27	0.270900	0.541000	0.394300
H281	H28	0.172000	0.447000	0.690300
H291	H29	0.299700	0.306000	0.979900
H301	H30	0.909500	0.301800	0.155100
H311	H31	0.078000	0.116800	0.155000
H321	H32	0.442100	0.124800	0.876000
H331	H33	0.342100	0.021700	0.170700
H341	H34	0.075600	0.031000	0.605600
H351	H35	0.752400	0.273300	0.797500
H361	H36	0.175300	0.227300	0.776700
C11	C1	0.164500	0.149800	0.408700
C21	C2	0.383800	0.157800	0.335000
C31	C3	0.293000	0.262100	0.335200
C41	C4	0.018000	0.348000	0.409200
C51	C5	0.924000	0.362500	0.510900
C61	C6	0.984700	0.420200	0.334600
C71	C7	0.594800	0.701600	0.434400
C81	C8	0.394900	0.713400	0.556600
C91	C9	0.491300	0.614900	0.566700
C101	C10	0.757000	0.518900	0.461600
C111	C11	0.792700	0.448700	0.537300
C121	C12	0.852500	0.505100	0.360500
C131	C13	0.777400	0.717700	0.976600
C141	C14	0.989900	0.720500	0.880500
C151	C15	0.897500	0.823200	0.880800
C161	C16	0.628400	0.913000	0.971800
C171	C17	0.534200	0.925500	0.074500
C181	C18	0.594300	0.987300	0.897700
C191	C19	0.849200	0.883100	0.313800
C201	C20	0.954100	0.910500	0.345900
C211	C21	0.102600	0.850800	0.305700
C221	C22	0.147900	0.764400	0.231400
C231	C23	0.045000	0.734300	0.200100
C241	C24	0.894500	0.793400	0.242600
C251	C25	0.687100	0.944600	0.363800
C261	C26	0.211300	0.872700	0.350300
C271	C27	0.092600	0.635300	0.126100
C281	C28	0.835500	0.850200	0.591300
C291	C29	0.616200	0.842200	0.665000
C301	C30	0.707000	0.737900	0.664800
C311	C31	0.982000	0.652000	0.590800
C321	C32	0.076000	0.637500	0.489100
C331	C33	0.015300	0.579800	0.665400
C341	C34	0.405200	0.298400	0.565600
C351	C35	0.605100	0.286600	0.443400
C361	C36	0.508700	0.385100	0.433300
C371	C37	0.243000	0.481100	0.538400
C381	C38	0.207300	0.551300	0.462700
C391	C39	0.147500	0.494900	0.639500
C401	C40	0.222600	0.282300	0.023400
C411	C41	0.010100	0.279500	0.119500
C421	C42	0.102500	0.176800	0.119200
C431	C43	0.371600	0.087000	0.028200
C441	C44	0.465800	0.074500	0.925500
C451	C45	0.405700	0.012700	0.102300
C461	C46	0.150800	0.116900	0.686200
C471	C47	0.045900	0.089500	0.654100
C481	C48	0.897400	0.149200	0.694300
C491	C49	0.852100	0.235600	0.768600
C501	C50	0.955000	0.265700	0.799900
C511	C51	0.105500	0.206600	0.757400
C521	C52	0.312900	0.055400	0.636200
C531	C53	0.788700	0.127300	0.649700
C541	C54	0.907400	0.364700	0.873900
N11	N1	0.303400	0.087300	0.380700
N21	N2	0.152700	0.256500	0.382800
N31	N3	0.460100	0.767500	0.473700
N41	N4	0.621000	0.607400	0.487500
N51	N5	0.913700	0.653600	0.940400
N61	N6	0.761700	0.822500	0.943400
N71	N7	0.696600	0.912700	0.619300
N81	N8	0.847300	0.743500	0.617200
N91	N9	0.539900	0.232500	0.526300
N101	N10	0.379000	0.392600	0.512500
N111	N11	0.086300	0.346400	0.059600
N121	N12	0.238300	0.177500	0.056600
O11	O1	0.597200	0.910600	0.336100
O21	O2	0.652100	0.021600	0.428900
O31	O3	0.166800	0.910200	0.443500
O41	O4	0.345000	0.852900	0.294900
O51	O5	0.228300	0.598300	0.074800
O61	O6	0.995600	0.596000	0.120400
O71	O7	0.402800	0.089400	0.663900
O81	O8	0.347900	0.978400	0.571100
O91	O9	0.833200	0.089800	0.556500
O101	O10	0.655000	0.147100	0.705100
O111	O11	0.771700	0.401700	0.925200
O121	O12	0.004400	0.404000	0.879600
