data_LASRIJ_clean_PM
_symmetry_space_group_name_H-M	'P1'
_cell_length_a	17.918100
_cell_length_b	17.918100
_cell_length_c	17.918100
_cell_angle_alpha	90.000000
_cell_angle_beta	90.000000
_cell_angle_gamma	90.000000
_symmetry_Int_Tables_number 1

loop_
_symmetry_equiv_pos_as_xyz
'x,y,z'

loop_
_atom_site_label
_atom_site_type_symbol
_atom_site_fract_x
_atom_site_fract_y
_atom_site_fract_z
Cu11	Cu1	0.203360	0.052670	0.136140
O11	O1	0.232800	0.991700	0.220000
O21	O2	0.186600	0.933100	0.317900
O31	O3	0.106800	0.041400	0.179500
O41	O4	0.069900	0.927200	0.201100
H11	H1	0.064520	0.894140	0.232300
O51	O5	0.038700	0.978400	0.354800
O61	O6	0.030400	0.083500	0.296900
C11	C1	0.176400	0.968800	0.262400
C21	C2	0.104200	0.991100	0.235400
C31	C3	0.052100	0.014300	0.293500
Cu21	Cu2	0.296640	0.947330	0.636140
O71	O7	0.267200	0.008300	0.720000
O81	O8	0.313400	0.066900	0.817900
O91	O9	0.393200	0.958600	0.679500
O101	O10	0.430100	0.072800	0.701100
H21	H2	0.435480	0.105860	0.732300
O111	O11	0.461300	0.021600	0.854800
O121	O12	0.469600	0.916500	0.796900
C41	C4	0.323600	0.031200	0.762400
C51	C5	0.395800	0.008900	0.735400
C61	C6	0.447900	0.985700	0.793500
Cu31	Cu3	0.796640	0.552670	0.363860
O131	O13	0.767200	0.491700	0.280000
O141	O14	0.813400	0.433100	0.182100
O151	O15	0.893200	0.541400	0.320500
O161	O16	0.930100	0.427200	0.298900
H31	H3	0.935480	0.394140	0.267700
O171	O17	0.961300	0.478400	0.145200
O181	O18	0.969600	0.583500	0.203100
C71	C7	0.823600	0.468800	0.237600
C81	C8	0.895800	0.491100	0.264600
C91	C9	0.947900	0.514300	0.206500
Cu41	Cu4	0.703360	0.447330	0.863860
O191	O19	0.732800	0.508300	0.780000
O201	O20	0.686600	0.566900	0.682100
O211	O21	0.606800	0.458600	0.820500
O221	O22	0.569900	0.572800	0.798900
H41	H4	0.564520	0.605860	0.767700
O231	O23	0.538700	0.521600	0.645200
O241	O24	0.530400	0.416500	0.703100
C101	C10	0.676400	0.531200	0.737600
C111	C11	0.604200	0.508900	0.764600
C121	C12	0.552100	0.485700	0.706500
Cu51	Cu5	0.136140	0.203360	0.052670
O251	O25	0.220000	0.232800	0.991700
O261	O26	0.317900	0.186600	0.933100
O271	O27	0.179500	0.106800	0.041400
O281	O28	0.201100	0.069900	0.927200
H51	H5	0.232300	0.064520	0.894140
O291	O29	0.354800	0.038700	0.978400
O301	O30	0.296900	0.030400	0.083500
C131	C13	0.262400	0.176400	0.968800
C141	C14	0.235400	0.104200	0.991100
C151	C15	0.293500	0.052100	0.014300
Cu61	Cu6	0.636140	0.296640	0.947330
O311	O31	0.720000	0.267200	0.008300
O321	O32	0.817900	0.313400	0.066900
O331	O33	0.679500	0.393200	0.958600
O341	O34	0.701100	0.430100	0.072800
H61	H6	0.732300	0.435480	0.105860
O351	O35	0.854800	0.461300	0.021600
O361	O36	0.796900	0.469600	0.916500
C161	C16	0.762400	0.323600	0.031200
C171	C17	0.735400	0.395800	0.008900
C181	C18	0.793500	0.447900	0.985700
Cu71	Cu7	0.363860	0.796640	0.552670
O371	O37	0.280000	0.767200	0.491700
O381	O38	0.182100	0.813400	0.433100
O391	O39	0.320500	0.893200	0.541400
O401	O40	0.298900	0.930100	0.427200
H71	H7	0.267700	0.935480	0.394140
O411	O41	0.145200	0.961300	0.478400
O421	O42	0.203100	0.969600	0.583500
C191	C19	0.237600	0.823600	0.468800
C201	C20	0.264600	0.895800	0.491100
C211	C21	0.206500	0.947900	0.514300
Cu81	Cu8	0.863860	0.703360	0.447330
O431	O43	0.780000	0.732800	0.508300
O441	O44	0.682100	0.686600	0.566900
O451	O45	0.820500	0.606800	0.458600
O461	O46	0.798900	0.569900	0.572800
H81	H8	0.767700	0.564520	0.605860
O471	O47	0.645200	0.538700	0.521600
O481	O48	0.703100	0.530400	0.416500
C221	C22	0.737600	0.676400	0.531200
C231	C23	0.764600	0.604200	0.508900
C241	C24	0.706500	0.552100	0.485700
Cu91	Cu9	0.052670	0.136140	0.203360
O491	O49	0.991700	0.220000	0.232800
O501	O50	0.933100	0.317900	0.186600
O511	O51	0.041400	0.179500	0.106800
O521	O52	0.927200	0.201100	0.069900
H91	H9	0.894140	0.232300	0.064520
O531	O53	0.978400	0.354800	0.038700
O541	O54	0.083500	0.296900	0.030400
C251	C25	0.968800	0.262400	0.176400
C261	C26	0.991100	0.235400	0.104200
C271	C27	0.014300	0.293500	0.052100
Cu101	Cu10	0.947330	0.636140	0.296640
O551	O55	0.008300	0.720000	0.267200
O561	O56	0.066900	0.817900	0.313400
O571	O57	0.958600	0.679500	0.393200
O581	O58	0.072800	0.701100	0.430100
H101	H10	0.105860	0.732300	0.435480
O591	O59	0.021600	0.854800	0.461300
O601	O60	0.916500	0.796900	0.469600
C281	C28	0.031200	0.762400	0.323600
C291	C29	0.008900	0.735400	0.395800
C301	C30	0.985700	0.793500	0.447900
Cu111	Cu11	0.552670	0.363860	0.796640
O611	O61	0.491700	0.280000	0.767200
O621	O62	0.433100	0.182100	0.813400
O631	O63	0.541400	0.320500	0.893200
O641	O64	0.427200	0.298900	0.930100
H111	H11	0.394140	0.267700	0.935480
O651	O65	0.478400	0.145200	0.961300
O661	O66	0.583500	0.203100	0.969600
C311	C31	0.468800	0.237600	0.823600
C321	C32	0.491100	0.264600	0.895800
C331	C33	0.514300	0.206500	0.947900
Cu121	Cu12	0.447330	0.863860	0.703360
O671	O67	0.508300	0.780000	0.732800
O681	O68	0.566900	0.682100	0.686600
O691	O69	0.458600	0.820500	0.606800
O701	O70	0.572800	0.798900	0.569900
H121	H12	0.605860	0.767700	0.564520
O711	O71	0.521600	0.645200	0.538700
O721	O72	0.416500	0.703100	0.530400
C341	C34	0.531200	0.737600	0.676400
C351	C35	0.508900	0.764600	0.604200
C361	C36	0.485700	0.706500	0.552100
Co11	Co1	0.106510	0.893490	0.393490
Co21	Co2	0.393490	0.106510	0.893490
Co31	Co3	0.893490	0.393490	0.106510
Co41	Co4	0.606510	0.606510	0.606510
