data_LASREF_clean_PM
_symmetry_space_group_name_H-M	'P1'
_cell_length_a	17.512300
_cell_length_b	18.100400
_cell_length_c	18.108400
_cell_angle_alpha	90.000000
_cell_angle_beta	92.118000
_cell_angle_gamma	90.000000
_symmetry_Int_Tables_number 1

loop_
_symmetry_equiv_pos_as_xyz
'x,y,z'

loop_
_atom_site_label
_atom_site_type_symbol
_atom_site_fract_x
_atom_site_fract_y
_atom_site_fract_z
C11	C1	0.676700	0.879800	0.993100
C21	C2	0.483400	0.180800	0.933900
C31	C3	0.748600	0.086700	0.703300
C41	C4	0.820000	0.937000	0.499000
C51	C5	0.030700	0.645200	0.434400
C61	C6	0.745300	0.734600	0.204200
C71	C7	0.596200	0.905500	0.972100
C81	C8	0.491300	0.152800	0.852800
C91	C9	0.719500	0.006900	0.725100
C101	C10	0.900200	0.910600	0.479800
C111	C11	0.013900	0.671500	0.352300
C121	C12	0.772000	0.812800	0.227200
C131	C13	0.555900	0.934800	0.039400
C141	C14	0.517900	0.219100	0.805300
C151	C15	0.787700	0.960100	0.752600
C161	C16	0.946400	0.882900	0.551700
C171	C17	0.986100	0.610700	0.303400
C181	C18	0.703400	0.861400	0.252000
O11	O1	0.728300	0.894700	0.950300
O21	O2	0.515200	0.141800	0.984600
O31	O3	0.708200	0.140900	0.724200
O41	O4	0.766900	0.915800	0.456000
O51	O5	0.001800	0.682200	0.485500
O61	O6	0.784400	0.680700	0.228900
O71	O7	0.688400	0.840400	0.051300
O81	O8	0.442800	0.236300	0.945900
O91	O9	0.805400	0.094500	0.664500
O101	O10	0.807600	0.973400	0.556200
O111	O11	0.071600	0.588000	0.445100
O121	O12	0.687100	0.728300	0.162400
O131	O13	0.598500	0.959700	0.916400
O141	O14	0.544700	0.096100	0.851000
O151	O15	0.665100	0.013400	0.776900
O161	O16	0.898900	0.859800	0.425400
O171	O17	0.959700	0.728900	0.354300
O181	O18	0.829300	0.809800	0.280700
O191	O19	0.554700	0.845000	0.941600
H11	H1	0.553800	0.811500	0.972100
O201	O20	0.421900	0.124200	0.828300
H21	H2	0.389200	0.156500	0.829200
O211	O21	0.688600	0.974800	0.660700
H31	H3	0.721200	0.973400	0.629400
O221	O22	0.939200	0.976000	0.453300
H41	H4	0.941100	0.007400	0.485900
O231	O23	0.082300	0.703800	0.328400
H51	H5	0.115800	0.672200	0.327400
O241	O24	0.803800	0.845900	0.164400
H61	H6	0.770900	0.848800	0.131000
O251	O25	0.540600	0.892200	0.090400
O261	O26	0.475700	0.273400	0.796600
O271	O27	0.782000	0.929700	0.816300
O281	O28	0.957600	0.927700	0.602500
O291	O29	0.030500	0.554900	0.293800
O301	O30	0.649000	0.874400	0.209400
O311	O31	0.535700	0.003400	0.039700
O321	O32	0.580800	0.209900	0.773900
O331	O33	0.844500	0.948800	0.715200
O341	O34	0.964900	0.817100	0.548900
O351	O35	0.921900	0.616200	0.273500
O361	O36	0.709900	0.884500	0.319900
Cu11	Cu1	0.693720	0.958050	0.867920
Cu21	Cu2	0.561110	0.053320	0.949010
Cu31	Cu3	0.630490	0.114780	0.791960
Cu41	Cu4	0.802760	0.861890	0.370500
Cu51	Cu5	0.944580	0.766640	0.455140
Cu61	Cu6	0.868390	0.706810	0.295500
Zn11	Zn1	0.606390	0.808060	0.129730
Zn21	Zn2	0.888630	0.013520	0.634580
Br11	Br1	0.796560	0.704120	0.425200
C191	C19	0.323300	0.379800	0.006900
C201	C20	0.516600	0.680800	0.066100
C211	C21	0.251400	0.586700	0.296700
C221	C22	0.180000	0.437000	0.501000
C231	C23	0.969300	0.145200	0.565600
C241	C24	0.254700	0.234600	0.795800
C251	C25	0.403800	0.405500	0.027900
C261	C26	0.508700	0.652800	0.147200
C271	C27	0.280500	0.506900	0.274900
C281	C28	0.099800	0.410600	0.520200
C291	C29	0.986100	0.171500	0.647700
C301	C30	0.228000	0.312800	0.772800
C311	C31	0.444100	0.434800	0.960600
C321	C32	0.482100	0.719100	0.194700
C331	C33	0.212300	0.460100	0.247400
C341	C34	0.053600	0.382900	0.448300
C351	C35	0.013900	0.110700	0.696600
C361	C36	0.296600	0.361400	0.748000
O371	O37	0.271700	0.394700	0.049700
O381	O38	0.484800	0.641800	0.015400
O391	O39	0.291800	0.640900	0.275800
O401	O40	0.233100	0.415800	0.544000
O411	O41	0.998200	0.182200	0.514500
O421	O42	0.215600	0.180700	0.771100
O431	O43	0.311600	0.340400	0.948700
O441	O44	0.557200	0.736300	0.054100
O451	O45	0.194600	0.594500	0.335500
O461	O46	0.192400	0.473400	0.443800
O471	O47	0.928400	0.088000	0.554900
O481	O48	0.312900	0.228300	0.837600
O491	O49	0.401500	0.459700	0.083600
O501	O50	0.455300	0.596100	0.149000
O511	O51	0.334900	0.513400	0.223100
O521	O52	0.101100	0.359800	0.574600
O531	O53	0.040300	0.228900	0.645700
O541	O54	0.170700	0.309800	0.719300
O551	O55	0.445300	0.345000	0.058400
H71	H7	0.446200	0.311500	0.027900
O561	O56	0.578100	0.624200	0.171700
H81	H8	0.610800	0.656500	0.170800
O571	O57	0.311400	0.474800	0.339300
H91	H9	0.278800	0.473400	0.370600
O581	O58	0.060800	0.476000	0.546700
H101	H10	0.058900	0.507400	0.514100
O591	O59	0.917700	0.203800	0.671600
H111	H11	0.884200	0.172200	0.672600
O601	O60	0.196200	0.345900	0.835600
H121	H12	0.229100	0.348800	0.869000
O611	O61	0.459400	0.392200	0.909600
O621	O62	0.524300	0.773400	0.203400
O631	O63	0.218000	0.429700	0.183700
O641	O64	0.042400	0.427700	0.397500
O651	O65	0.969500	0.054900	0.706200
O661	O66	0.351000	0.374400	0.790600
O671	O67	0.464300	0.503400	0.960300
O681	O68	0.419200	0.709900	0.226100
O691	O69	0.155500	0.448800	0.284800
O701	O70	0.035100	0.317100	0.451100
O711	O71	0.078100	0.116200	0.726500
O721	O72	0.290100	0.384500	0.680100
Cu71	Cu7	0.306280	0.458050	0.132080
Cu81	Cu8	0.438890	0.553320	0.050990
Cu91	Cu9	0.369510	0.614780	0.208040
Cu101	Cu10	0.197240	0.361890	0.629500
Cu111	Cu11	0.055420	0.266640	0.544860
Cu121	Cu12	0.131610	0.206810	0.704500
Zn31	Zn3	0.393610	0.308060	0.870270
Zn41	Zn4	0.111370	0.513520	0.365420
Br21	Br2	0.203440	0.204120	0.574800
