data_LASWIN_clean_PM
_symmetry_space_group_name_H-M	'P1'
_cell_length_a	10.253700
_cell_length_b	10.932000
_cell_length_c	13.338300
_cell_angle_alpha	90.000000
_cell_angle_beta	90.000000
_cell_angle_gamma	113.149000
_symmetry_Int_Tables_number 1

loop_
_symmetry_equiv_pos_as_xyz
'x,y,z'

loop_
_atom_site_label
_atom_site_type_symbol
_atom_site_fract_x
_atom_site_fract_y
_atom_site_fract_z
Co11	Co1	0.288650	0.512230	0.163230
Co21	Co2	0.211350	0.987770	0.663230
Co31	Co3	0.711350	0.487770	0.836770
Co41	Co4	0.788650	0.012230	0.336770
H11	H1	0.155200	0.684600	0.417600
H21	H2	0.991600	0.315600	0.119300
H31	H3	0.870700	0.108700	0.056900
H41	H4	0.239000	0.083200	0.997500
H51	H5	0.350800	0.295500	0.053700
H61	H6	0.344800	0.815400	0.917600
H71	H7	0.508400	0.184400	0.619300
H81	H8	0.629300	0.391300	0.556900
H91	H9	0.261000	0.416800	0.497500
H101	H10	0.149200	0.204500	0.553700
H111	H11	0.844800	0.315400	0.582400
H121	H12	0.008400	0.684400	0.880700
H131	H13	0.129300	0.891300	0.943100
H141	H14	0.761000	0.916800	0.002500
H151	H15	0.649200	0.704500	0.946300
H161	H16	0.655200	0.184600	0.082400
H171	H17	0.491600	0.815600	0.380700
H181	H18	0.370700	0.608700	0.443100
H191	H19	0.739000	0.583200	0.502500
H201	H20	0.850800	0.795500	0.446300
C11	C1	0.117600	0.481100	0.304300
C21	C2	0.047800	0.488000	0.403230
C31	C3	0.952400	0.375700	0.453310
C41	C4	0.894500	0.241300	0.404300
C51	C5	0.092600	0.609700	0.450850
C61	C6	0.042800	0.269000	0.093400
C71	C7	0.969300	0.143600	0.056500
C81	C8	0.038600	0.068400	0.019100
C91	C9	0.185500	0.129100	0.020600
C101	C10	0.252200	0.256600	0.056200
C111	C11	0.382400	0.018900	0.804300
C121	C12	0.452200	0.012000	0.903230
C131	C13	0.547600	0.124300	0.953310
C141	C14	0.605500	0.258700	0.904300
C151	C15	0.407400	0.890300	0.950850
C161	C16	0.457200	0.231000	0.593400
C171	C17	0.530700	0.356400	0.556500
C181	C18	0.461400	0.431600	0.519100
C191	C19	0.314500	0.370900	0.520600
C201	C20	0.247800	0.243400	0.556200
C211	C21	0.882400	0.518900	0.695700
C221	C22	0.952200	0.512000	0.596770
C231	C23	0.047600	0.624300	0.546690
C241	C24	0.105500	0.758700	0.595700
C251	C25	0.907400	0.390300	0.549150
C261	C26	0.957200	0.731000	0.906600
C271	C27	0.030700	0.856400	0.943500
C281	C28	0.961400	0.931600	0.980900
C291	C29	0.814500	0.870900	0.979400
C301	C30	0.747800	0.743400	0.943800
C311	C31	0.617600	0.981100	0.195700
C321	C32	0.547800	0.988000	0.096770
C331	C33	0.452400	0.875700	0.046690
C341	C34	0.394500	0.741300	0.095700
C351	C35	0.592600	0.109700	0.049150
C361	C36	0.542800	0.769000	0.406600
C371	C37	0.469300	0.643600	0.443500
C381	C38	0.538600	0.568400	0.480900
C391	C39	0.685500	0.629100	0.479400
C401	C40	0.752200	0.756600	0.443800
N11	N1	0.184200	0.328000	0.093970
N21	N2	0.315800	0.172000	0.593970
N31	N3	0.815800	0.672000	0.906030
N41	N4	0.684200	0.828000	0.406030
O11	O1	0.209290	0.431990	0.306300
O21	O2	0.096510	0.534910	0.227460
O31	O3	0.898030	0.231630	0.310970
O41	O4	0.840950	0.139750	0.458400
O51	O5	0.290710	0.068010	0.806300
O61	O6	0.403490	0.965090	0.727460
O71	O7	0.601970	0.268370	0.810970
O81	O8	0.659050	0.360250	0.958400
O91	O9	0.790710	0.568010	0.693700
O101	O10	0.903490	0.465090	0.772540
O111	O11	0.101970	0.768370	0.689030
O121	O12	0.159050	0.860250	0.541600
O131	O13	0.709290	0.931990	0.193700
O141	O14	0.596510	0.034910	0.272540
O151	O15	0.398030	0.731630	0.189030
O161	O16	0.340950	0.639750	0.041600
