data_LASYOU_clean_PM
_symmetry_space_group_name_H-M	'P1'
_cell_length_a	13.480700
_cell_length_b	13.480700
_cell_length_c	13.480700
_cell_angle_alpha	86.553500
_cell_angle_beta	86.553500
_cell_angle_gamma	86.553500
_symmetry_Int_Tables_number 1

loop_
_symmetry_equiv_pos_as_xyz
'x,y,z'

loop_
_atom_site_label
_atom_site_type_symbol
_atom_site_fract_x
_atom_site_fract_y
_atom_site_fract_z
Cu11	Cu1	0.019750	0.591710	0.019750
Cu21	Cu2	0.019750	0.019750	0.591710
Cu31	Cu3	0.591710	0.019750	0.019750
Cu41	Cu4	0.408290	0.980250	0.980250
Cu51	Cu5	0.980250	0.980250	0.408290
Cu61	Cu6	0.980250	0.408290	0.980250
H11	H1	0.999900	0.441500	0.659800
H21	H2	0.659800	0.999900	0.441500
H31	H3	0.441500	0.659800	0.999900
H41	H4	0.558500	0.000100	0.340200
H51	H5	0.000100	0.340200	0.558500
H61	H6	0.340200	0.558500	0.000100
H71	H7	0.000100	0.558500	0.340200
H81	H8	0.340200	0.000100	0.558500
H91	H9	0.558500	0.340200	0.000100
H101	H10	0.441500	0.999900	0.659800
H111	H11	0.999900	0.659800	0.441500
H121	H12	0.659800	0.441500	0.999900
H131	H13	0.015800	0.727800	0.727800
H141	H14	0.727800	0.015800	0.727800
H151	H15	0.727800	0.727800	0.015800
H161	H16	0.272200	0.984200	0.272200
H171	H17	0.984200	0.272200	0.272200
H181	H18	0.272200	0.272200	0.984200
C11	C1	0.007340	0.548350	0.817550
C21	C2	0.002220	0.509960	0.639060
C31	C3	0.007170	0.579690	0.709550
C41	C4	0.817550	0.007340	0.548350
C51	C5	0.639060	0.002220	0.509960
C61	C6	0.709550	0.007170	0.579690
C71	C7	0.548350	0.817550	0.007340
C81	C8	0.509960	0.639060	0.002220
C91	C9	0.579690	0.709550	0.007170
C101	C10	0.451650	0.992660	0.182450
C111	C11	0.490040	0.997780	0.360940
C121	C12	0.420310	0.992830	0.290450
C131	C13	0.992660	0.182450	0.451650
C141	C14	0.997780	0.360940	0.490040
C151	C15	0.992830	0.290450	0.420310
C161	C16	0.182450	0.451650	0.992660
C171	C17	0.360940	0.490040	0.997780
C181	C18	0.290450	0.420310	0.992830
C191	C19	0.992660	0.451650	0.182450
C201	C20	0.997780	0.490040	0.360940
C211	C21	0.992830	0.420310	0.290450
C221	C22	0.182450	0.992660	0.451650
C231	C23	0.360940	0.997780	0.490040
C241	C24	0.290450	0.992830	0.420310
C251	C25	0.451650	0.182450	0.992660
C261	C26	0.490040	0.360940	0.997780
C271	C27	0.420310	0.290450	0.992830
C281	C28	0.548350	0.007340	0.817550
C291	C29	0.509960	0.002220	0.639060
C301	C30	0.579690	0.007170	0.709550
C311	C31	0.007340	0.817550	0.548350
C321	C32	0.002220	0.639060	0.509960
C331	C33	0.007170	0.709550	0.579690
C341	C34	0.817550	0.548350	0.007340
C351	C35	0.639060	0.509960	0.002220
C361	C36	0.709550	0.579690	0.007170
C371	C37	0.000560	0.538560	0.538560
C381	C38	0.010880	0.679830	0.679830
C391	C39	0.538560	0.000560	0.538560
C401	C40	0.679830	0.010880	0.679830
C411	C41	0.538560	0.538560	0.000560
C421	C42	0.679830	0.679830	0.010880
C431	C43	0.461440	0.999440	0.461440
C441	C44	0.320170	0.989120	0.320170
C451	C45	0.999440	0.461440	0.461440
C461	C46	0.989120	0.320170	0.320170
C471	C47	0.461440	0.461440	0.999440
C481	C48	0.320170	0.320170	0.989120
O11	O1	0.023020	0.614020	0.875790
O21	O2	0.990100	0.459350	0.841500
O31	O3	0.875790	0.023020	0.614020
O41	O4	0.841500	0.990100	0.459350
O51	O5	0.614020	0.875790	0.023020
O61	O6	0.459350	0.841500	0.990100
O71	O7	0.385980	0.976980	0.124210
O81	O8	0.540650	0.009900	0.158500
O91	O9	0.976980	0.124210	0.385980
O101	O10	0.009900	0.158500	0.540650
O111	O11	0.124210	0.385980	0.976980
O121	O12	0.158500	0.540650	0.009900
O131	O13	0.976980	0.385980	0.124210
O141	O14	0.009900	0.540650	0.158500
O151	O15	0.124210	0.976980	0.385980
O161	O16	0.158500	0.009900	0.540650
O171	O17	0.385980	0.124210	0.976980
O181	O18	0.540650	0.158500	0.009900
O191	O19	0.614020	0.023020	0.875790
O201	O20	0.459350	0.990100	0.841500
O211	O21	0.023020	0.875790	0.614020
O221	O22	0.990100	0.841500	0.459350
O231	O23	0.875790	0.614020	0.023020
O241	O24	0.841500	0.459350	0.990100
