data_LATPIG_clean_PM
_symmetry_space_group_name_H-M	'P1'
_cell_length_a	18.601100
_cell_length_b	18.601100
_cell_length_c	9.900000
_cell_angle_alpha	90.000000
_cell_angle_beta	90.000000
_cell_angle_gamma	120.000000
_symmetry_Int_Tables_number 1

loop_
_symmetry_equiv_pos_as_xyz
'x,y,z'

loop_
_atom_site_label
_atom_site_type_symbol
_atom_site_fract_x
_atom_site_fract_y
_atom_site_fract_z
C11	C1	0.368060	0.212080	0.327200
H11	H1	0.397400	0.211600	0.251400
N11	N1	0.356240	0.273980	0.358100
C21	C2	0.034730	0.545410	0.660530
H21	H2	0.064070	0.544930	0.584730
N21	N2	0.022910	0.607310	0.691430
C31	C3	0.701390	0.878750	0.993870
H31	H3	0.730730	0.878270	0.918070
N31	N3	0.689570	0.940650	0.024770
C41	C4	0.787920	0.155980	0.327200
H41	H4	0.788400	0.185800	0.251400
N41	N4	0.726020	0.082260	0.358100
C51	C5	0.454590	0.489310	0.660530
H51	H5	0.455070	0.519130	0.584730
N51	N5	0.392690	0.415590	0.691430
C61	C6	0.121250	0.822650	0.993870
H61	H6	0.121730	0.852470	0.918070
N61	N6	0.059350	0.748930	0.024770
C71	C7	0.844020	0.631940	0.327200
H71	H7	0.814200	0.602600	0.251400
N71	N7	0.917740	0.643760	0.358100
C81	C8	0.510690	0.965270	0.660530
H81	H8	0.480870	0.935930	0.584730
N81	N8	0.584410	0.977090	0.691430
C91	C9	0.177350	0.298610	0.993870
H91	H9	0.147530	0.269270	0.918070
N91	N9	0.251070	0.310430	0.024770
C101	C10	0.212080	0.368060	0.172800
H101	H10	0.211600	0.397400	0.248600
N101	N10	0.273980	0.356240	0.141900
C111	C11	0.878750	0.701390	0.506130
H111	H11	0.878270	0.730730	0.581930
N111	N11	0.940650	0.689570	0.475230
C121	C12	0.545410	0.034730	0.839470
H121	H12	0.544930	0.064070	0.915270
N121	N12	0.607310	0.022910	0.808570
C131	C13	0.155980	0.787920	0.172800
H131	H13	0.185800	0.788400	0.248600
N131	N13	0.082260	0.726020	0.141900
C141	C14	0.822650	0.121250	0.506130
H141	H14	0.852470	0.121730	0.581930
N141	N14	0.748930	0.059350	0.475230
C151	C15	0.489310	0.454590	0.839470
H151	H15	0.519130	0.455070	0.915270
N151	N15	0.415590	0.392690	0.808570
C161	C16	0.631940	0.844020	0.172800
H161	H16	0.602600	0.814200	0.248600
N161	N16	0.643760	0.917740	0.141900
C171	C17	0.298610	0.177350	0.506130
H171	H17	0.269270	0.147530	0.581930
N171	N17	0.310430	0.251070	0.475230
C181	C18	0.965270	0.510690	0.839470
H181	H18	0.935930	0.480870	0.915270
N181	N18	0.977090	0.584410	0.808570
C191	C19	0.631940	0.787920	0.672800
H191	H19	0.602600	0.788400	0.748600
N191	N19	0.643760	0.726020	0.641900
C201	C20	0.298610	0.121250	0.006130
H201	H20	0.269270	0.121730	0.081930
N201	N20	0.310430	0.059350	0.975230
C211	C21	0.965270	0.454590	0.339470
H211	H21	0.935930	0.455070	0.415270
N211	N21	0.977090	0.392690	0.308570
C221	C22	0.212080	0.844020	0.672800
H221	H22	0.211600	0.814200	0.748600
N221	N22	0.273980	0.917740	0.641900
C231	C23	0.878750	0.177350	0.006130
H231	H23	0.878270	0.147530	0.081930
N231	N23	0.940650	0.251070	0.975230
C241	C24	0.545410	0.510690	0.339470
H241	H24	0.544930	0.480870	0.415270
N241	N24	0.607310	0.584410	0.308570
C251	C25	0.155980	0.368060	0.672800
H251	H25	0.185800	0.397400	0.748600
N251	N25	0.082260	0.356240	0.641900
C261	C26	0.822650	0.701390	0.006130
H261	H26	0.852470	0.730730	0.081930
N261	N26	0.748930	0.689570	0.975230
C271	C27	0.489310	0.034730	0.339470
H271	H27	0.519130	0.064070	0.415270
N271	N27	0.415590	0.022910	0.308570
C281	C28	0.787920	0.631940	0.827200
H281	H28	0.788400	0.602600	0.751400
N281	N28	0.726020	0.643760	0.858100
C291	C29	0.454590	0.965270	0.160530
H291	H29	0.455070	0.935930	0.084730
N291	N29	0.392690	0.977090	0.191430
C301	C30	0.121250	0.298610	0.493870
H301	H30	0.121730	0.269270	0.418070
N301	N30	0.059350	0.310430	0.524770
C311	C31	0.844020	0.212080	0.827200
H311	H31	0.814200	0.211600	0.751400
N311	N31	0.917740	0.273980	0.858100
C321	C32	0.510690	0.545410	0.160530
H321	H32	0.480870	0.544930	0.084730
N321	N32	0.584410	0.607310	0.191430
C331	C33	0.177350	0.878750	0.493870
H331	H33	0.147530	0.878270	0.418070
N331	N33	0.251070	0.940650	0.524770
C341	C34	0.368060	0.155980	0.827200
H341	H34	0.397400	0.185800	0.751400
N341	N34	0.356240	0.082260	0.858100
C351	C35	0.034730	0.489310	0.160530
H351	H35	0.064070	0.519130	0.084730
N351	N35	0.022910	0.415590	0.191430
C361	C36	0.701390	0.822650	0.493870
H361	H36	0.730730	0.852470	0.418070
N361	N36	0.689570	0.748930	0.524770
Zn11	Zn1	0.374850	0.374850	0.250000
Zn21	Zn2	0.041520	0.708180	0.583330
Zn31	Zn3	0.708180	0.041520	0.916670
Zn41	Zn4	0.625150	0.000000	0.250000
Zn51	Zn5	0.291820	0.333330	0.583330
Zn61	Zn6	0.958480	0.666670	0.916670
Zn71	Zn7	0.000000	0.625150	0.250000
Zn81	Zn8	0.666670	0.958480	0.583330
Zn91	Zn9	0.333330	0.291820	0.916670
Zn101	Zn10	0.625150	0.625150	0.750000
Zn111	Zn11	0.291820	0.958480	0.083330
Zn121	Zn12	0.958480	0.291820	0.416670
Zn131	Zn13	0.374850	0.000000	0.750000
Zn141	Zn14	0.041520	0.333330	0.083330
Zn151	Zn15	0.708180	0.666670	0.416670
Zn161	Zn16	0.000000	0.374850	0.750000
Zn171	Zn17	0.666670	0.708180	0.083330
Zn181	Zn18	0.333330	0.041520	0.416670
F11	F1	0.333330	0.409420	0.416670
N371	N37	0.333330	0.149350	0.416670
F21	F2	0.000000	0.742750	0.750000
N381	N38	0.000000	0.482680	0.750000
F31	F3	0.590580	0.923920	0.416670
N391	N39	0.850650	0.183990	0.416670
F41	F4	0.257250	0.257250	0.750000
N401	N40	0.517320	0.517320	0.750000
F51	F5	0.076080	0.666670	0.416670
N411	N41	0.816010	0.666670	0.416670
F61	F6	0.742750	0.000000	0.750000
N421	N42	0.482680	0.000000	0.750000
F71	F7	0.409420	0.333330	0.083330
N431	N43	0.149350	0.333330	0.083330
F81	F8	0.923920	0.590580	0.083330
N441	N44	0.183990	0.850650	0.083330
F91	F9	0.666670	0.076080	0.083330
N451	N45	0.666670	0.816010	0.083330
F101	F10	0.666670	0.590580	0.583330
N461	N46	0.666670	0.850650	0.583330
F111	F11	0.409420	0.076080	0.583330
N471	N47	0.149350	0.816010	0.583330
F121	F12	0.923920	0.333330	0.583330
N481	N48	0.183990	0.333330	0.583330
F131	F13	0.590580	0.666670	0.916670
N491	N49	0.850650	0.666670	0.916670
F141	F14	0.257250	0.000000	0.250000
N501	N50	0.517320	0.000000	0.250000
F151	F15	0.076080	0.409420	0.916670
N511	N51	0.816010	0.149350	0.916670
F161	F16	0.742750	0.742750	0.250000
N521	N52	0.482680	0.482680	0.250000
F171	F17	0.333330	0.923920	0.916670
N531	N53	0.333330	0.183990	0.916670
F181	F18	0.000000	0.257250	0.250000
N541	N54	0.000000	0.517320	0.250000
