data_LATYOX_clean_PM
_symmetry_space_group_name_H-M	'P1'
_cell_length_a	18.722300
_cell_length_b	5.775800
_cell_length_c	20.828300
_cell_angle_alpha	90.000000
_cell_angle_beta	91.165000
_cell_angle_gamma	90.000000
_symmetry_Int_Tables_number 1

loop_
_symmetry_equiv_pos_as_xyz
'x,y,z'

loop_
_atom_site_label
_atom_site_type_symbol
_atom_site_fract_x
_atom_site_fract_y
_atom_site_fract_z
O11	O1	0.758100	0.952300	0.321300
O21	O2	0.641300	0.978000	0.337600
O31	O3	0.668700	0.519700	0.258900
O41	O4	0.657500	0.511700	0.152700
N11	N1	0.656600	0.282300	0.434000
N21	N2	0.553900	0.189600	0.152300
C11	C1	0.703500	0.027700	0.350100
C21	C2	0.721700	0.189700	0.405300
H11	H1	0.749900	0.105200	0.438500
H21	H2	0.751200	0.319300	0.389600
C31	C3	0.624600	0.463100	0.407500
H31	H3	0.644100	0.531600	0.370300
C41	C4	0.562800	0.555200	0.433300
H41	H4	0.540300	0.686400	0.414200
C51	C5	0.534500	0.453100	0.487100
C61	C6	0.569500	0.263000	0.512900
H51	H5	0.550600	0.188200	0.549400
C71	C7	0.629900	0.183800	0.487200
H61	H6	0.654100	0.056700	0.506700
C81	C8	0.640200	0.447800	0.207000
C91	C9	0.579900	0.272000	0.216100
H71	H7	0.597600	0.139900	0.242000
H81	H8	0.540200	0.346100	0.239300
C101	C10	0.501300	0.302000	0.121900
H91	H9	0.479800	0.432200	0.141500
C111	C11	0.478200	0.231000	0.063100
H101	H10	0.440300	0.311500	0.041700
C121	C12	0.510000	0.041500	0.033800
C131	C13	0.565700	0.931000	0.066900
H111	H11	0.590700	0.806900	0.047600
C141	C14	0.584100	0.004400	0.128000
H121	H12	0.618700	0.920900	0.152700
O51	O5	0.741900	0.952300	0.178700
O61	O6	0.858700	0.978000	0.162400
O71	O7	0.831300	0.519700	0.241100
O81	O8	0.842500	0.511700	0.347300
N31	N3	0.843400	0.282300	0.066000
N41	N4	0.946100	0.189600	0.347700
C151	C15	0.796500	0.027700	0.149900
C161	C16	0.778300	0.189700	0.094700
H131	H13	0.750100	0.105200	0.061500
H141	H14	0.748800	0.319300	0.110400
C171	C17	0.875400	0.463100	0.092500
H151	H15	0.855900	0.531600	0.129700
C181	C18	0.937200	0.555200	0.066700
H161	H16	0.959700	0.686400	0.085800
C191	C19	0.965500	0.453100	0.012900
C201	C20	0.930500	0.263000	0.987100
H171	H17	0.949400	0.188200	0.950600
C211	C21	0.870100	0.183800	0.012800
H181	H18	0.845900	0.056700	0.993300
C221	C22	0.859800	0.447800	0.293000
C231	C23	0.920100	0.272000	0.283900
H191	H19	0.902400	0.139900	0.258000
H201	H20	0.959800	0.346100	0.260700
C241	C24	0.998700	0.302000	0.378100
H211	H21	0.020200	0.432200	0.358500
C251	C25	0.021800	0.231000	0.436900
H221	H22	0.059700	0.311500	0.458300
C261	C26	0.990000	0.041500	0.466200
C271	C27	0.934300	0.931000	0.433100
H231	H23	0.909300	0.806900	0.452400
C281	C28	0.915900	0.004400	0.372000
H241	H24	0.881300	0.920900	0.347300
O91	O9	0.241900	0.047700	0.678700
O101	O10	0.358700	0.022000	0.662400
O111	O11	0.331300	0.480300	0.741100
O121	O12	0.342500	0.488300	0.847300
N51	N5	0.343400	0.717700	0.566000
N61	N6	0.446100	0.810400	0.847700
C291	C29	0.296500	0.972300	0.649900
C301	C30	0.278300	0.810300	0.594700
H251	H25	0.250100	0.894800	0.561500
H261	H26	0.248800	0.680700	0.610400
C311	C31	0.375400	0.536900	0.592500
H271	H27	0.355900	0.468400	0.629700
C321	C32	0.437200	0.444800	0.566700
H281	H28	0.459700	0.313600	0.585800
C331	C33	0.465500	0.546900	0.512900
C341	C34	0.430500	0.737000	0.487100
H291	H29	0.449400	0.811800	0.450600
C351	C35	0.370100	0.816200	0.512800
H301	H30	0.345900	0.943300	0.493300
C361	C36	0.359800	0.552200	0.793000
C371	C37	0.420100	0.728000	0.783900
H311	H31	0.402400	0.860100	0.758000
H321	H32	0.459800	0.653900	0.760700
C381	C38	0.498700	0.698000	0.878100
H331	H33	0.520200	0.567800	0.858500
C391	C39	0.521800	0.769000	0.936900
H341	H34	0.559700	0.688500	0.958300
C401	C40	0.490000	0.958500	0.966200
C411	C41	0.434300	0.069000	0.933100
H351	H35	0.409300	0.193100	0.952400
C421	C42	0.415900	0.995600	0.872000
H361	H36	0.381300	0.079100	0.847300
O131	O13	0.258100	0.047700	0.821300
O141	O14	0.141300	0.022000	0.837600
O151	O15	0.168700	0.480300	0.758900
O161	O16	0.157500	0.488300	0.652700
N71	N7	0.156600	0.717700	0.934000
N81	N8	0.053900	0.810400	0.652300
C431	C43	0.203500	0.972300	0.850100
C441	C44	0.221700	0.810300	0.905300
H371	H37	0.249900	0.894800	0.938500
H381	H38	0.251200	0.680700	0.889600
C451	C45	0.124600	0.536900	0.907500
H391	H39	0.144100	0.468400	0.870300
C461	C46	0.062800	0.444800	0.933300
H401	H40	0.040300	0.313600	0.914200
C471	C47	0.034500	0.546900	0.987100
C481	C48	0.069500	0.737000	0.012900
H411	H41	0.050600	0.811800	0.049400
C491	C49	0.129900	0.816200	0.987200
H421	H42	0.154100	0.943300	0.006700
C501	C50	0.140200	0.552200	0.707000
C511	C51	0.079900	0.728000	0.716100
H431	H43	0.097600	0.860100	0.742000
H441	H44	0.040200	0.653900	0.739300
C521	C52	0.001300	0.698000	0.621900
H451	H45	0.979800	0.567800	0.641500
C531	C53	0.978200	0.769000	0.563100
H461	H46	0.940300	0.688500	0.541700
C541	C54	0.010000	0.958500	0.533800
C551	C55	0.065700	0.069000	0.566900
H471	H47	0.090700	0.193100	0.547600
C561	C56	0.084100	0.995600	0.628000
H481	H48	0.118700	0.079100	0.652700
Zn11	Zn1	0.750000	0.732600	0.250000
Zn21	Zn2	0.250000	0.267400	0.750000
