data_LAVSUY_clean_PM
_symmetry_space_group_name_H-M	'P1'
_cell_length_a	10.290000
_cell_length_b	10.290000
_cell_length_c	14.500000
_cell_angle_alpha	90.000000
_cell_angle_beta	90.000000
_cell_angle_gamma	90.000000
_symmetry_Int_Tables_number 1

loop_
_symmetry_equiv_pos_as_xyz
'x,y,z'

loop_
_atom_site_label
_atom_site_type_symbol
_atom_site_fract_x
_atom_site_fract_y
_atom_site_fract_z
Y11	Y1	0.850850	0.149150	0.625000
Y21	Y2	0.149150	0.850850	0.125000
Y31	Y3	0.850850	0.850850	0.875000
Y41	Y4	0.149150	0.149150	0.375000
H11	H1	0.558500	0.076200	0.376800
H21	H2	0.441500	0.923800	0.876800
H31	H3	0.923800	0.558500	0.626800
H41	H4	0.076200	0.441500	0.126800
H51	H5	0.441500	0.076200	0.623200
H61	H6	0.558500	0.923800	0.123200
H71	H7	0.076200	0.558500	0.373200
H81	H8	0.923800	0.441500	0.873200
H91	H9	0.899700	0.000000	0.250000
H101	H10	0.100300	0.000000	0.750000
H111	H11	0.000000	0.899700	0.500000
H121	H12	0.000000	0.100300	0.000000
C11	C1	0.604600	0.044900	0.326300
C21	C2	0.739200	0.043200	0.327600
C31	C3	0.816200	0.088500	0.409800
C41	C4	0.395400	0.955100	0.826300
C51	C5	0.260800	0.956800	0.827600
C61	C6	0.183800	0.911500	0.909800
C71	C7	0.955100	0.604600	0.576300
C81	C8	0.956800	0.739200	0.577600
C91	C9	0.911500	0.816200	0.659800
C101	C10	0.044900	0.395400	0.076300
C111	C11	0.043200	0.260800	0.077600
C121	C12	0.088500	0.183800	0.159800
C131	C13	0.395400	0.044900	0.673700
C141	C14	0.260800	0.043200	0.672400
C151	C15	0.183800	0.088500	0.590200
C161	C16	0.604600	0.955100	0.173700
C171	C17	0.739200	0.956800	0.172400
C181	C18	0.816200	0.911500	0.090200
C191	C19	0.044900	0.604600	0.423700
C201	C20	0.043200	0.739200	0.422400
C211	C21	0.088500	0.816200	0.340200
C221	C22	0.955100	0.395400	0.923700
C231	C23	0.956800	0.260800	0.922400
C241	C24	0.911500	0.183800	0.840200
C251	C25	0.539800	0.000000	0.250000
C261	C26	0.391100	0.000000	0.250000
C271	C27	0.809300	0.000000	0.250000
C281	C28	0.460200	0.000000	0.750000
C291	C29	0.608900	0.000000	0.750000
C301	C30	0.190700	0.000000	0.750000
C311	C31	0.000000	0.539800	0.500000
C321	C32	0.000000	0.391100	0.500000
C331	C33	0.000000	0.809300	0.500000
C341	C34	0.000000	0.460200	0.000000
C351	C35	0.000000	0.608900	0.000000
C361	C36	0.000000	0.190700	0.000000
O11	O1	0.758500	0.095500	0.486400
O21	O2	0.336200	0.072500	0.307600
O31	O3	0.933500	0.112700	0.399700
O41	O4	0.241500	0.904500	0.986400
O51	O5	0.663800	0.927500	0.807600
O61	O6	0.066500	0.887300	0.899700
O71	O7	0.904500	0.758500	0.736400
O81	O8	0.927500	0.336200	0.557600
O91	O9	0.887300	0.933500	0.649700
O101	O10	0.095500	0.241500	0.236400
O111	O11	0.072500	0.663800	0.057600
O121	O12	0.112700	0.066500	0.149700
O131	O13	0.241500	0.095500	0.513600
O141	O14	0.663800	0.072500	0.692400
O151	O15	0.066500	0.112700	0.600300
O161	O16	0.758500	0.904500	0.013600
O171	O17	0.336200	0.927500	0.192400
O181	O18	0.933500	0.887300	0.100300
O191	O19	0.095500	0.758500	0.263600
O201	O20	0.072500	0.336200	0.442400
O211	O21	0.112700	0.933500	0.350300
O221	O22	0.904500	0.241500	0.763600
O231	O23	0.927500	0.663800	0.942400
O241	O24	0.887300	0.066500	0.850300
