data_LAVTEJ_clean_PM
_symmetry_space_group_name_H-M	'P1'
_cell_length_a	10.320000
_cell_length_b	10.320000
_cell_length_c	14.500000
_cell_angle_alpha	90.000000
_cell_angle_beta	90.000000
_cell_angle_gamma	90.000000
_symmetry_Int_Tables_number 1

loop_
_symmetry_equiv_pos_as_xyz
'x,y,z'

loop_
_atom_site_label
_atom_site_type_symbol
_atom_site_fract_x
_atom_site_fract_y
_atom_site_fract_z
Dy11	Dy1	0.852130	0.852130	0.875000
Dy21	Dy2	0.147870	0.147870	0.375000
Dy31	Dy3	0.147870	0.852130	0.125000
Dy41	Dy4	0.852130	0.147870	0.625000
H11	H1	0.928500	0.441100	0.871100
H21	H2	0.071500	0.558900	0.371100
H31	H3	0.558900	0.928500	0.121100
H41	H4	0.441100	0.071500	0.621100
H51	H5	0.071500	0.441100	0.128900
H61	H6	0.928500	0.558900	0.628900
H71	H7	0.441100	0.928500	0.878900
H81	H8	0.558900	0.071500	0.378900
H91	H9	0.000000	0.102900	0.000000
H101	H10	0.000000	0.897100	0.500000
H111	H11	0.897100	0.000000	0.250000
H121	H12	0.102900	0.000000	0.750000
C11	C1	0.956900	0.395800	0.922700
C21	C2	0.956400	0.260900	0.922900
C31	C3	0.913000	0.185400	0.838900
C41	C4	0.043100	0.604200	0.422700
C51	C5	0.043600	0.739100	0.422900
C61	C6	0.087000	0.814600	0.338900
C71	C7	0.604200	0.956900	0.172700
C81	C8	0.739100	0.956400	0.172900
C91	C9	0.814600	0.913000	0.088900
C101	C10	0.395800	0.043100	0.672700
C111	C11	0.260900	0.043600	0.672900
C121	C12	0.185400	0.087000	0.588900
C131	C13	0.043100	0.395800	0.077300
C141	C14	0.043600	0.260900	0.077100
C151	C15	0.087000	0.185400	0.161100
C161	C16	0.956900	0.604200	0.577300
C171	C17	0.956400	0.739100	0.577100
C181	C18	0.913000	0.814600	0.661100
C191	C19	0.395800	0.956900	0.827300
C201	C20	0.260900	0.956400	0.827100
C211	C21	0.185400	0.913000	0.911100
C221	C22	0.604200	0.043100	0.327300
C231	C23	0.739100	0.043600	0.327100
C241	C24	0.814600	0.087000	0.411100
C251	C25	0.000000	0.462700	0.000000
C261	C26	0.000000	0.610400	0.000000
C271	C27	0.000000	0.193000	0.000000
C281	C28	0.000000	0.537300	0.500000
C291	C29	0.000000	0.389600	0.500000
C301	C30	0.000000	0.807000	0.500000
C311	C31	0.537300	0.000000	0.250000
C321	C32	0.389600	0.000000	0.250000
C331	C33	0.807000	0.000000	0.250000
C341	C34	0.462700	0.000000	0.750000
C351	C35	0.610400	0.000000	0.750000
C361	C36	0.193000	0.000000	0.750000
O11	O1	0.904800	0.243600	0.764300
O21	O2	0.929100	0.663600	0.941600
O31	O3	0.890400	0.069300	0.848600
O41	O4	0.095200	0.756400	0.264300
O51	O5	0.070900	0.336400	0.441600
O61	O6	0.109600	0.930700	0.348600
O71	O7	0.756400	0.904800	0.014300
O81	O8	0.336400	0.929100	0.191600
O91	O9	0.930700	0.890400	0.098600
O101	O10	0.243600	0.095200	0.514300
O111	O11	0.663600	0.070900	0.691600
O121	O12	0.069300	0.109600	0.598600
O131	O13	0.095200	0.243600	0.235700
O141	O14	0.070900	0.663600	0.058400
O151	O15	0.109600	0.069300	0.151400
O161	O16	0.904800	0.756400	0.735700
O171	O17	0.929100	0.336400	0.558400
O181	O18	0.890400	0.930700	0.651400
O191	O19	0.243600	0.904800	0.985700
O201	O20	0.663600	0.929100	0.808400
O211	O21	0.069300	0.890400	0.901400
O221	O22	0.756400	0.095200	0.485700
O231	O23	0.336400	0.070900	0.308400
O241	O24	0.930700	0.109600	0.401400
