data_LAVZOA_clean_PM
_symmetry_space_group_name_H-M	'P1'
_cell_length_a	14.389300
_cell_length_b	14.714700
_cell_length_c	15.353400
_cell_angle_alpha	98.306000
_cell_angle_beta	93.876000
_cell_angle_gamma	96.296000
_symmetry_Int_Tables_number 1

loop_
_symmetry_equiv_pos_as_xyz
'x,y,z'

loop_
_atom_site_label
_atom_site_type_symbol
_atom_site_fract_x
_atom_site_fract_y
_atom_site_fract_z
U11	U1	0.717860	0.977810	0.624430
U21	U2	0.699910	0.971250	0.883650
U31	U3	0.926510	0.925390	0.246990
U41	U4	0.603500	0.607310	0.743850
U51	U5	0.534660	0.758600	0.295600
P11	P1	0.606800	0.411500	0.874200
P21	P2	0.837800	0.127240	0.829600
P31	P3	0.536800	0.768100	0.926400
P41	P4	0.276000	0.005300	0.877430
P51	P5	0.440100	0.159730	0.317560
P61	P6	0.727820	0.944060	0.382560
P71	P7	0.922900	0.140300	0.578300
P81	P8	0.652900	0.381000	0.618200
O11	O1	0.758300	0.065600	0.767900
O21	O2	0.838100	0.078300	0.594800
O31	O3	0.721200	0.928300	0.477300
O41	O4	0.824900	0.096100	0.919300
O51	O5	0.932700	0.122200	0.799000
O61	O6	0.598400	0.853300	0.912900
O71	O7	0.560200	0.676800	0.883300
O81	O8	0.542000	0.768700	0.030300
H11	H1	0.569100	0.818400	0.055600
O91	O9	0.830300	0.954500	0.363500
O101	O10	0.667700	0.867500	0.321500
O111	O11	0.878600	0.283300	0.371000
H21	H2	0.912700	0.332300	0.374700
O121	O12	0.251400	0.037800	0.971000
O131	O13	0.196600	0.004200	0.809200
O141	O14	0.366000	0.065300	0.856000
H31	H3	0.380600	0.108900	0.896100
O151	O15	0.653000	0.479400	0.657900
O161	O16	0.611100	0.502300	0.840800
O171	O17	0.528700	0.339100	0.836900
O181	O18	0.597900	0.425900	0.976200
H41	H4	0.616600	0.479800	0.997200
O191	O19	0.609100	0.307600	0.667000
O201	O20	0.604400	0.363800	0.523400
H51	H5	0.616500	0.409700	0.499700
O211	O21	0.985200	0.579100	0.613900
O221	O22	0.095400	0.485300	0.620800
O231	O23	0.196800	0.569800	0.851100
H61	H6	0.148100	0.534200	0.846800
O241	O24	0.094100	0.672700	0.843400
O251	O25	0.945800	0.109600	0.479600
H71	H7	0.982700	0.149900	0.464700
O261	O26	0.010100	0.141800	0.636600
O271	O27	0.043900	0.447800	0.835000
O281	O28	0.947800	0.557100	0.838200
H81	H8	0.996300	0.592700	0.841000
O291	O29	0.386100	0.074100	0.258900
O301	O30	0.434100	0.246400	0.278900
O311	O31	0.398300	0.161000	0.406500
O321	O32	0.769000	0.375800	0.359800
C11	C1	0.717500	0.368900	0.859100
C21	C2	0.728400	0.274600	0.850700
H91	H9	0.677400	0.230900	0.853900
C31	C3	0.817800	0.246900	0.837400
C41	C4	0.893800	0.311700	0.835700
H101	H10	0.952200	0.292600	0.826000
C51	C5	0.884200	0.405700	0.848300
C61	C6	0.794400	0.436200	0.859900
H111	H11	0.787200	0.498800	0.867800
C71	C7	0.969300	0.471200	0.848500
C81	C8	0.417500	0.784000	0.895800
C91	C9	0.346800	0.710500	0.880900
H121	H12	0.360400	0.650400	0.882700
C101	C10	0.256200	0.728200	0.863300
C111	C11	0.235600	0.816600	0.855800
H131	H13	0.174600	0.826800	0.839700
C121	C12	0.306300	0.889000	0.872500
C131	C13	0.397800	0.873300	0.888500
H141	H14	0.446100	0.921800	0.894400
C141	C14	0.177200	0.652800	0.855700
C151	C15	0.561900	0.146400	0.334300
C161	C16	0.591100	0.060500	0.349000
H151	H15	0.546900	0.008900	0.346700
C171	C17	0.686200	0.053400	0.367100
C181	C18	0.750600	0.130400	0.369500
H161	H16	0.814300	0.125600	0.379200
C191	C19	0.722100	0.214100	0.357800
C201	C20	0.627700	0.223900	0.341400
H171	H17	0.609000	0.281400	0.335200
C211	C21	0.793400	0.298000	0.363200
C221	C22	0.892000	0.254700	0.587800
C231	C23	0.798100	0.272200	0.593600
H181	H18	0.751100	0.222500	0.587800
C241	C24	0.774000	0.361400	0.607800
C251	C25	0.841700	0.435000	0.613100
H191	H19	0.825600	0.494900	0.620500
C261	C26	0.935900	0.419600	0.607400
C271	C27	0.960900	0.329900	0.593400
H201	H20	0.023200	0.320600	0.587900
C281	C28	0.011800	0.500100	0.617000
U61	U6	0.282140	0.022190	0.375570
U71	U7	0.300090	0.028750	0.116350
U81	U8	0.073490	0.074610	0.753010
U91	U9	0.396500	0.392690	0.256150
U101	U10	0.465340	0.241400	0.704400
P91	P9	0.393200	0.588500	0.125800
P101	P10	0.162200	0.872760	0.170400
P111	P11	0.463200	0.231900	0.073600
P121	P12	0.724000	0.994700	0.122570
P131	P13	0.559900	0.840270	0.682440
P141	P14	0.272180	0.055940	0.617440
P151	P15	0.077100	0.859700	0.421700
P161	P16	0.347100	0.619000	0.381800
O331	O33	0.241700	0.934400	0.232100
O341	O34	0.161900	0.921700	0.405200
O351	O35	0.278800	0.071700	0.522700
O361	O36	0.175100	0.903900	0.080700
O371	O37	0.067300	0.877800	0.201000
O381	O38	0.401600	0.146700	0.087100
O391	O39	0.439800	0.323200	0.116700
O401	O40	0.458000	0.231300	0.969700
H211	H21	0.430900	0.181600	0.944400
O411	O41	0.169700	0.045500	0.636500
O421	O42	0.332300	0.132500	0.678500
O431	O43	0.121400	0.716700	0.629000
H221	H22	0.087300	0.667700	0.625300
O441	O44	0.748600	0.962200	0.029000
O451	O45	0.803400	0.995800	0.190800
O461	O46	0.634000	0.934700	0.144000
H231	H23	0.619400	0.891100	0.103900
O471	O47	0.347000	0.520600	0.342100
O481	O48	0.388900	0.497700	0.159200
O491	O49	0.471300	0.660900	0.163100
O501	O50	0.402100	0.574100	0.023800
H241	H24	0.383400	0.520200	0.002800
O511	O51	0.390900	0.692400	0.333000
O521	O52	0.395600	0.636200	0.476600
H251	H25	0.383500	0.590300	0.500300
O531	O53	0.014800	0.420900	0.386100
O541	O54	0.904600	0.514700	0.379200
O551	O55	0.803200	0.430200	0.148900
H261	H26	0.851900	0.465800	0.153200
O561	O56	0.905900	0.327300	0.156600
O571	O57	0.054200	0.890400	0.520400
H271	H27	0.017300	0.850100	0.535300
O581	O58	0.989900	0.858200	0.363400
O591	O59	0.956100	0.552200	0.165000
O601	O60	0.052200	0.442900	0.161800
H281	H28	0.003700	0.407300	0.159000
O611	O61	0.613900	0.925900	0.741100
O621	O62	0.565900	0.753600	0.721100
O631	O63	0.601700	0.839000	0.593500
O641	O64	0.231000	0.624200	0.640200
C291	C29	0.282500	0.631100	0.140900
C301	C30	0.271600	0.725400	0.149300
H291	H29	0.322600	0.769100	0.146100
C311	C31	0.182200	0.753100	0.162600
C321	C32	0.106200	0.688300	0.164300
H301	H30	0.047800	0.707400	0.174000
C331	C33	0.115800	0.594300	0.151700
C341	C34	0.205600	0.563800	0.140100
H311	H31	0.212800	0.501200	0.132200
C351	C35	0.030700	0.528800	0.151500
C361	C36	0.582500	0.216000	0.104200
C371	C37	0.653200	0.289500	0.119100
H321	H32	0.639600	0.349600	0.117300
C381	C38	0.743800	0.271800	0.136700
C391	C39	0.764400	0.183400	0.144200
H331	H33	0.825400	0.173200	0.160300
C401	C40	0.693700	0.111000	0.127500
C411	C41	0.602200	0.126700	0.111500
H341	H34	0.553900	0.078200	0.105600
C421	C42	0.822800	0.347200	0.144300
C431	C43	0.438100	0.853600	0.665700
C441	C44	0.408900	0.939500	0.651000
H351	H35	0.453100	0.991100	0.653300
C451	C45	0.313800	0.946600	0.632900
C461	C46	0.249400	0.869600	0.630500
H361	H36	0.185700	0.874400	0.620800
C471	C47	0.277900	0.785900	0.642200
C481	C48	0.372300	0.776100	0.658600
H371	H37	0.391000	0.718600	0.664800
C491	C49	0.206600	0.702000	0.636800
C501	C50	0.108000	0.745300	0.412200
C511	C51	0.201900	0.727800	0.406400
H381	H38	0.248900	0.777500	0.412200
C521	C52	0.226000	0.638600	0.392200
C531	C53	0.158300	0.565000	0.386900
H391	H39	0.174400	0.505100	0.379500
C541	C54	0.064100	0.580400	0.392600
C551	C55	0.039100	0.670100	0.406600
H401	H40	0.976800	0.679400	0.412100
C561	C56	0.988200	0.499900	0.383000
