data_LAWHOJ_clean_PM
_symmetry_space_group_name_H-M	'P1'
_cell_length_a	19.676000
_cell_length_b	19.676000
_cell_length_c	19.300000
_cell_angle_alpha	90.000000
_cell_angle_beta	90.000000
_cell_angle_gamma	120.000000
_symmetry_Int_Tables_number 1

loop_
_symmetry_equiv_pos_as_xyz
'x,y,z'

loop_
_atom_site_label
_atom_site_type_symbol
_atom_site_fract_x
_atom_site_fract_y
_atom_site_fract_z
Cd11	Cd1	0.110080	0.127010	0.586470
N11	N1	0.202810	0.174580	0.676790
N21	N2	0.311600	0.266150	0.752470
O11	O1	0.100110	0.014300	0.636000
O21	O2	0.139610	0.930820	0.659980
O31	O3	0.400300	0.260780	0.880800
O41	O4	0.478750	0.227200	0.828710
S11	S1	0.247430	0.265540	0.700890
C11	C1	0.148200	0.997400	0.664800
C21	C2	0.216000	0.058900	0.706180
C31	C3	0.260100	0.036500	0.744500
H11	H1	0.247200	0.984200	0.743600
C41	C4	0.324800	0.090000	0.785800
H21	H2	0.353900	0.072100	0.809700
C51	C5	0.345200	0.166900	0.791020
C61	C6	0.300300	0.192700	0.753480
C71	C7	0.236610	0.139010	0.710280
C81	C8	0.412270	0.222520	0.836190
Cd21	Cd2	0.776750	0.460340	0.919800
N31	N3	0.869480	0.507910	0.010120
N41	N4	0.978270	0.599480	0.085800
O51	O5	0.766780	0.347630	0.969330
O61	O6	0.806280	0.264150	0.993310
O71	O7	0.066970	0.594110	0.214130
O81	O8	0.145420	0.560530	0.162040
S21	S2	0.914100	0.598870	0.034220
C91	C9	0.814870	0.330730	0.998130
C101	C10	0.882670	0.392230	0.039510
C111	C11	0.926770	0.369830	0.077830
H31	H3	0.913870	0.317530	0.076930
C121	C12	0.991470	0.423330	0.119130
H41	H4	0.020570	0.405430	0.143030
C131	C13	0.011870	0.500230	0.124350
C141	C14	0.966970	0.526030	0.086810
C151	C15	0.903280	0.472340	0.043610
C161	C16	0.078940	0.555850	0.169520
Cd31	Cd3	0.443410	0.793680	0.253140
N51	N5	0.536140	0.841250	0.343460
N61	N6	0.644930	0.932820	0.419140
O91	O9	0.433440	0.680970	0.302670
O101	O10	0.472940	0.597490	0.326650
O111	O11	0.733630	0.927450	0.547470
O121	O12	0.812080	0.893870	0.495380
S31	S3	0.580760	0.932210	0.367560
C171	C17	0.481530	0.664070	0.331470
C181	C18	0.549330	0.725570	0.372850
C191	C19	0.593430	0.703170	0.411170
H51	H5	0.580530	0.650870	0.410270
C201	C20	0.658130	0.756670	0.452470
H61	H6	0.687230	0.738770	0.476370
C211	C21	0.678530	0.833570	0.457690
C221	C22	0.633630	0.859370	0.420150
C231	C23	0.569940	0.805680	0.376950
C241	C24	0.745600	0.889190	0.502860
Cd41	Cd4	0.872990	0.983070	0.586470
N71	N7	0.825420	0.028230	0.676790
N81	N8	0.733850	0.045450	0.752470
O131	O13	0.985700	0.085810	0.636000
O141	O14	0.069180	0.208790	0.659980
O151	O15	0.739220	0.139520	0.880800
O161	O16	0.772800	0.251550	0.828710
S41	S4	0.734460	0.981890	0.700890
C251	C25	0.002600	0.150800	0.664800
C261	C26	0.941100	0.157100	0.706180
C271	C27	0.963500	0.223600	0.744500
H71	H7	0.015800	0.263000	0.743600
C281	C28	0.910000	0.234800	0.785800
H81	H8	0.927900	0.281800	0.809700
C291	C29	0.833100	0.178300	0.791020
C301	C30	0.807300	0.107600	0.753480
C311	C31	0.860990	0.097600	0.710280
C321	C32	0.777480	0.189750	0.836190
Cd51	Cd5	0.539660	0.316400	0.919800
N91	N9	0.492090	0.361560	0.010120
N101	N10	0.400520	0.378780	0.085800
O171	O17	0.652370	0.419140	0.969330
O181	O18	0.735850	0.542120	0.993310
O191	O19	0.405890	0.472850	0.214130
O201	O20	0.439470	0.584880	0.162040
S51	S5	0.401130	0.315220	0.034220
C331	C33	0.669270	0.484130	0.998130
C341	C34	0.607770	0.490430	0.039510
C351	C35	0.630170	0.556930	0.077830
H91	H9	0.682470	0.596330	0.076930
C361	C36	0.576670	0.568130	0.119130
H101	H10	0.594570	0.615130	0.143030
C371	C37	0.499770	0.511630	0.124350
C381	C38	0.473970	0.440930	0.086810
C391	C39	0.527660	0.430930	0.043610
C401	C40	0.444150	0.523080	0.169520
Cd61	Cd6	0.206320	0.649740	0.253140
N111	N11	0.158750	0.694900	0.343460
N121	N12	0.067180	0.712120	0.419140
O211	O21	0.319030	0.752480	0.302670
O221	O22	0.402510	0.875460	0.326650
O231	O23	0.072550	0.806190	0.547470
O241	O24	0.106130	0.918220	0.495380
S61	S6	0.067790	0.648560	0.367560
C411	C41	0.335930	0.817470	0.331470
C421	C42	0.274430	0.823770	0.372850
C431	C43	0.296830	0.890270	0.411170
H111	H11	0.349130	0.929670	0.410270
C441	C44	0.243330	0.901470	0.452470
H121	H12	0.261230	0.948470	0.476370
C451	C45	0.166430	0.844970	0.457690
C461	C46	0.140630	0.774270	0.420150
C471	C47	0.194320	0.764270	0.376950
C481	C48	0.110810	0.856420	0.502860
Cd71	Cd7	0.016930	0.889920	0.586470
N131	N13	0.971770	0.797190	0.676790
N141	N14	0.954550	0.688400	0.752470
O251	O25	0.914190	0.899890	0.636000
O261	O26	0.791210	0.860390	0.659980
O271	O27	0.860480	0.599700	0.880800
O281	O28	0.748450	0.521250	0.828710
S71	S7	0.018110	0.752570	0.700890
C491	C49	0.849200	0.851800	0.664800
C501	C50	0.842900	0.784000	0.706180
C511	C51	0.776400	0.739900	0.744500
H131	H13	0.737000	0.752800	0.743600
C521	C52	0.765200	0.675200	0.785800
H141	H14	0.718200	0.646100	0.809700
C531	C53	0.821700	0.654800	0.791020
C541	C54	0.892400	0.699700	0.753480
C551	C55	0.902400	0.763390	0.710280
C561	C56	0.810250	0.587730	0.836190
Cd81	Cd8	0.683600	0.223250	0.919800
N151	N15	0.638440	0.130520	0.010120
N161	N16	0.621220	0.021730	0.085800
O291	O29	0.580860	0.233220	0.969330
O301	O30	0.457880	0.193720	0.993310
O311	O31	0.527150	0.933030	0.214130
O321	O32	0.415120	0.854580	0.162040
S81	S8	0.684780	0.085900	0.034220
C571	C57	0.515870	0.185130	0.998130
C581	C58	0.509570	0.117330	0.039510
C591	C59	0.443070	0.073230	0.077830
H151	H15	0.403670	0.086130	0.076930
C601	C60	0.431870	0.008530	0.119130
H161	H16	0.384870	0.979430	0.143030
C611	C61	0.488370	0.988130	0.124350
C621	C62	0.559070	0.033030	0.086810
C631	C63	0.569070	0.096720	0.043610
C641	C64	0.476920	0.921060	0.169520
Cd91	Cd9	0.350260	0.556590	0.253140
N171	N17	0.305100	0.463860	0.343460
N181	N18	0.287880	0.355070	0.419140
O331	O33	0.247520	0.566560	0.302670
O341	O34	0.124540	0.527060	0.326650
O351	O35	0.193810	0.266370	0.547470
O361	O36	0.081780	0.187920	0.495380
S91	S9	0.351440	0.419240	0.367560
C651	C65	0.182530	0.518470	0.331470
C661	C66	0.176230	0.450670	0.372850
C671	C67	0.109730	0.406570	0.411170
H171	H17	0.070330	0.419470	0.410270
C681	C68	0.098530	0.341870	0.452470
H181	H18	0.051530	0.312770	0.476370
C691	C69	0.155030	0.321470	0.457690
C701	C70	0.225730	0.366370	0.420150
C711	C71	0.235730	0.430060	0.376950
C721	C72	0.143580	0.254400	0.502860
Cd101	Cd10	0.889920	0.872990	0.413530
N191	N19	0.797190	0.825420	0.323210
N201	N20	0.688400	0.733850	0.247530
O371	O37	0.899890	0.985700	0.364000
O381	O38	0.860390	0.069180	0.340020
O391	O39	0.599700	0.739220	0.119200
O401	O40	0.521250	0.772800	0.171290
S101	S10	0.752570	0.734460	0.299110
C731	C73	0.851800	0.002600	0.335200
C741	C74	0.784000	0.941100	0.293820
C751	C75	0.739900	0.963500	0.255500
H191	H19	0.752800	0.015800	0.256400
C761	C76	0.675200	0.910000	0.214200
H201	H20	0.646100	0.927900	0.190300
C771	C77	0.654800	0.833100	0.208980
C781	C78	0.699700	0.807300	0.246520
C791	C79	0.763390	0.860990	0.289720
C801	C80	0.587730	0.777480	0.163810
Cd111	Cd11	0.556590	0.206320	0.746860
N211	N21	0.463860	0.158750	0.656540
N221	N22	0.355070	0.067180	0.580860
O411	O41	0.566560	0.319030	0.697330
O421	O42	0.527060	0.402510	0.673350
O431	O43	0.266370	0.072550	0.452530
O441	O44	0.187920	0.106130	0.504620
S111	S11	0.419240	0.067790	0.632440
C811	C81	0.518470	0.335930	0.668530
C821	C82	0.450670	0.274430	0.627150
C831	C83	0.406570	0.296830	0.588830
H211	H21	0.419470	0.349130	0.589730
C841	C84	0.341870	0.243330	0.547530
H221	H22	0.312770	0.261230	0.523630
C851	C85	0.321470	0.166430	0.542310
C861	C86	0.366370	0.140630	0.579850
C871	C87	0.430060	0.194320	0.623050
C881	C88	0.254400	0.110810	0.497140
Cd121	Cd12	0.223250	0.539660	0.080200
N231	N23	0.130520	0.492090	0.989880
N241	N24	0.021730	0.400520	0.914200
O451	O45	0.233220	0.652370	0.030670
O461	O46	0.193720	0.735850	0.006690
O471	O47	0.933030	0.405890	0.785870
O481	O48	0.854580	0.439470	0.837960
S121	S12	0.085900	0.401130	0.965780
C891	C89	0.185130	0.669270	0.001870
C901	C90	0.117330	0.607770	0.960490
C911	C91	0.073230	0.630170	0.922170
H231	H23	0.086130	0.682470	0.923070
C921	C92	0.008530	0.576670	0.880870
H241	H24	0.979430	0.594570	0.856970
C931	C93	0.988130	0.499770	0.875650
C941	C94	0.033030	0.473970	0.913190
C951	C95	0.096720	0.527660	0.956390
C961	C96	0.921060	0.444150	0.830480
Cd131	Cd13	0.127010	0.016930	0.413530
N251	N25	0.174580	0.971770	0.323210
N261	N26	0.266150	0.954550	0.247530
O491	O49	0.014300	0.914190	0.364000
O501	O50	0.930820	0.791210	0.340020
O511	O51	0.260780	0.860480	0.119200
O521	O52	0.227200	0.748450	0.171290
S131	S13	0.265540	0.018110	0.299110
C971	C97	0.997400	0.849200	0.335200
C981	C98	0.058900	0.842900	0.293820
C991	C99	0.036500	0.776400	0.255500
H251	H25	0.984200	0.737000	0.256400
C1001	C100	0.090000	0.765200	0.214200
H261	H26	0.072100	0.718200	0.190300
C1011	C101	0.166900	0.821700	0.208980
C1021	C102	0.192700	0.892400	0.246520
C1031	C103	0.139010	0.902400	0.289720
C1041	C104	0.222520	0.810250	0.163810
Cd141	Cd14	0.793680	0.350260	0.746860
N271	N27	0.841250	0.305100	0.656540
N281	N28	0.932820	0.287880	0.580860
O531	O53	0.680970	0.247520	0.697330
O541	O54	0.597490	0.124540	0.673350
O551	O55	0.927450	0.193810	0.452530
O561	O56	0.893870	0.081780	0.504620
S141	S14	0.932210	0.351440	0.632440
C1051	C105	0.664070	0.182530	0.668530
C1061	C106	0.725570	0.176230	0.627150
C1071	C107	0.703170	0.109730	0.588830
H271	H27	0.650870	0.070330	0.589730
C1081	C108	0.756670	0.098530	0.547530
H281	H28	0.738770	0.051530	0.523630
C1091	C109	0.833570	0.155030	0.542310
C1101	C110	0.859370	0.225730	0.579850
C1111	C111	0.805680	0.235730	0.623050
C1121	C112	0.889190	0.143580	0.497140
Cd151	Cd15	0.460340	0.683600	0.080200
N291	N29	0.507910	0.638440	0.989880
N301	N30	0.599480	0.621220	0.914200
O571	O57	0.347630	0.580860	0.030670
O581	O58	0.264150	0.457880	0.006690
O591	O59	0.594110	0.527150	0.785870
O601	O60	0.560530	0.415120	0.837960
S151	S15	0.598870	0.684780	0.965780
C1131	C113	0.330730	0.515870	0.001870
C1141	C114	0.392230	0.509570	0.960490
C1151	C115	0.369830	0.443070	0.922170
H291	H29	0.317530	0.403670	0.923070
C1161	C116	0.423330	0.431870	0.880870
H301	H30	0.405430	0.384870	0.856970
C1171	C117	0.500230	0.488370	0.875650
C1181	C118	0.526030	0.559070	0.913190
C1191	C119	0.472340	0.569070	0.956390
C1201	C120	0.555850	0.476920	0.830480
Cd161	Cd16	0.983070	0.110080	0.413530
N311	N31	0.028230	0.202810	0.323210
N321	N32	0.045450	0.311600	0.247530
O611	O61	0.085810	0.100110	0.364000
O621	O62	0.208790	0.139610	0.340020
O631	O63	0.139520	0.400300	0.119200
O641	O64	0.251550	0.478750	0.171290
S161	S16	0.981890	0.247430	0.299110
C1211	C121	0.150800	0.148200	0.335200
C1221	C122	0.157100	0.216000	0.293820
C1231	C123	0.223600	0.260100	0.255500
H311	H31	0.263000	0.247200	0.256400
C1241	C124	0.234800	0.324800	0.214200
H321	H32	0.281800	0.353900	0.190300
C1251	C125	0.178300	0.345200	0.208980
C1261	C126	0.107600	0.300300	0.246520
C1271	C127	0.097600	0.236610	0.289720
C1281	C128	0.189750	0.412270	0.163810
Cd171	Cd17	0.649740	0.443410	0.746860
N331	N33	0.694900	0.536140	0.656540
N341	N34	0.712120	0.644930	0.580860
O651	O65	0.752480	0.433440	0.697330
O661	O66	0.875460	0.472940	0.673350
O671	O67	0.806190	0.733630	0.452530
O681	O68	0.918220	0.812080	0.504620
S171	S17	0.648560	0.580760	0.632440
C1291	C129	0.817470	0.481530	0.668530
C1301	C130	0.823770	0.549330	0.627150
C1311	C131	0.890270	0.593430	0.588830
H331	H33	0.929670	0.580530	0.589730
C1321	C132	0.901470	0.658130	0.547530
H341	H34	0.948470	0.687230	0.523630
C1331	C133	0.844970	0.678530	0.542310
C1341	C134	0.774270	0.633630	0.579850
C1351	C135	0.764270	0.569940	0.623050
C1361	C136	0.856420	0.745600	0.497140
Cd181	Cd18	0.316400	0.776750	0.080200
N351	N35	0.361560	0.869480	0.989880
N361	N36	0.378780	0.978270	0.914200
O691	O69	0.419140	0.766780	0.030670
O701	O70	0.542120	0.806280	0.006690
O711	O71	0.472850	0.066970	0.785870
O721	O72	0.584880	0.145420	0.837960
S181	S18	0.315220	0.914100	0.965780
C1371	C137	0.484130	0.814870	0.001870
C1381	C138	0.490430	0.882670	0.960490
C1391	C139	0.556930	0.926770	0.922170
H351	H35	0.596330	0.913870	0.923070
C1401	C140	0.568130	0.991470	0.880870
H361	H36	0.615130	0.020570	0.856970
C1411	C141	0.511630	0.011870	0.875650
C1421	C142	0.440930	0.966970	0.913190
C1431	C143	0.430930	0.903280	0.956390
C1441	C144	0.523080	0.078940	0.830480
