data_LAXGOH02_clean_PM
_symmetry_space_group_name_H-M	'P1'
_cell_length_a	8.461200
_cell_length_b	13.127200
_cell_length_c	9.485500
_cell_angle_alpha	90.000000
_cell_angle_beta	94.652000
_cell_angle_gamma	90.000000
_symmetry_Int_Tables_number 1

loop_
_symmetry_equiv_pos_as_xyz
'x,y,z'

loop_
_atom_site_label
_atom_site_type_symbol
_atom_site_fract_x
_atom_site_fract_y
_atom_site_fract_z
Gd11	Gd1	0.961080	0.268660	0.508060
O11	O1	0.158700	0.138200	0.610900
O21	O2	0.217200	0.212500	0.416200
O31	O3	0.350300	0.113900	0.157900
O41	O4	0.168000	0.010800	0.232000
O51	O5	0.463200	0.205700	0.748900
C11	C1	0.246600	0.147500	0.511300
C21	C2	0.381900	0.074300	0.502200
C31	C3	0.476000	0.049100	0.626300
C41	C4	0.460900	0.111100	0.756600
C51	C5	0.407800	0.026200	0.375800
C61	C6	0.300800	0.052200	0.243300
O61	O6	0.450500	0.067700	0.873200
Gd21	Gd2	0.538920	0.768660	0.991940
O71	O7	0.341300	0.638200	0.889100
O81	O8	0.282800	0.712500	0.083800
O91	O9	0.149700	0.613900	0.342100
O101	O10	0.332000	0.510800	0.268000
O111	O11	0.036800	0.705700	0.751100
C71	C7	0.253400	0.647500	0.988700
C81	C8	0.118100	0.574300	0.997800
C91	C9	0.024000	0.549100	0.873700
C101	C10	0.039100	0.611100	0.743400
C111	C11	0.092200	0.526200	0.124200
C121	C12	0.199200	0.552200	0.256700
O121	O12	0.049500	0.567700	0.626800
Gd31	Gd3	0.038920	0.731340	0.491940
O131	O13	0.841300	0.861800	0.389100
O141	O14	0.782800	0.787500	0.583800
O151	O15	0.649700	0.886100	0.842100
O161	O16	0.832000	0.989200	0.768000
O171	O17	0.536800	0.794300	0.251100
C131	C13	0.753400	0.852500	0.488700
C141	C14	0.618100	0.925700	0.497800
C151	C15	0.524000	0.950900	0.373700
C161	C16	0.539100	0.888900	0.243400
C171	C17	0.592200	0.973800	0.624200
C181	C18	0.699200	0.947800	0.756700
O181	O18	0.549500	0.932300	0.126800
Gd41	Gd4	0.461080	0.231340	0.008060
O191	O19	0.658700	0.361800	0.110900
O201	O20	0.717200	0.287500	0.916200
O211	O21	0.850300	0.386100	0.657900
O221	O22	0.668000	0.489200	0.732000
O231	O23	0.963200	0.294300	0.248900
C191	C19	0.746600	0.352500	0.011300
C201	C20	0.881900	0.425700	0.002200
C211	C21	0.976000	0.450900	0.126300
C221	C22	0.960900	0.388900	0.256600
C231	C23	0.907800	0.473800	0.875800
C241	C24	0.800800	0.447800	0.743300
O241	O24	0.950500	0.432300	0.373200
