data_LAXMIJ_clean_PM
_symmetry_space_group_name_H-M	'P1'
_cell_length_a	9.917900
_cell_length_b	7.425600
_cell_length_c	19.787000
_cell_angle_alpha	90.000000
_cell_angle_beta	90.000000
_cell_angle_gamma	90.000000
_symmetry_Int_Tables_number 1

loop_
_symmetry_equiv_pos_as_xyz
'x,y,z'

loop_
_atom_site_label
_atom_site_type_symbol
_atom_site_fract_x
_atom_site_fract_y
_atom_site_fract_z
N11	N1	0.122400	0.807400	0.172280
N21	N2	0.088900	0.626800	0.165360
C11	C1	0.152900	0.566700	0.111200
H11	H1	0.146300	0.449300	0.095100
N31	N3	0.228300	0.695200	0.082240
N41	N4	0.377200	0.001400	0.060500
N51	N5	0.441300	0.161000	0.066200
N61	N6	0.285600	0.154800	0.144620
C21	C2	0.206400	0.838800	0.121590
C31	C3	0.283700	0.001500	0.109620
N71	N7	0.386300	0.252500	0.116100
N81	N8	0.877600	0.192600	0.672280
N91	N9	0.911100	0.373200	0.665360
C41	C4	0.847100	0.433300	0.611200
H21	H2	0.853700	0.550700	0.595100
N101	N10	0.771700	0.304800	0.582240
N111	N11	0.622800	0.998600	0.560500
N121	N12	0.558700	0.839000	0.566200
N131	N13	0.714400	0.845200	0.644620
C51	C5	0.793600	0.161200	0.621590
C61	C6	0.716300	0.998500	0.609620
N141	N14	0.613700	0.747500	0.616100
N151	N15	0.877600	0.307400	0.327720
N161	N16	0.911100	0.126800	0.334640
C71	C7	0.847100	0.066700	0.388800
H31	H3	0.853700	0.949300	0.404900
N171	N17	0.771700	0.195200	0.417760
N181	N18	0.622800	0.501400	0.439500
N191	N19	0.558700	0.661000	0.433800
N201	N20	0.714400	0.654800	0.355380
C81	C8	0.793600	0.338800	0.378410
C91	C9	0.716300	0.501500	0.390380
N211	N21	0.613700	0.752500	0.383900
N221	N22	0.122400	0.692600	0.827720
N231	N23	0.088900	0.873200	0.834640
C101	C10	0.152900	0.933300	0.888800
H41	H4	0.146300	0.050700	0.904900
N241	N24	0.228300	0.804800	0.917760
N251	N25	0.377200	0.498600	0.939500
N261	N26	0.441300	0.339000	0.933800
N271	N27	0.285600	0.345200	0.855380
C111	C11	0.206400	0.661200	0.878410
C121	C12	0.283700	0.498500	0.890380
N281	N28	0.386300	0.247500	0.883900
N291	N29	0.877600	0.192600	0.827720
N301	N30	0.911100	0.373200	0.834640
C131	C13	0.847100	0.433300	0.888800
H51	H5	0.853700	0.550700	0.904900
N311	N31	0.771700	0.304800	0.917760
N321	N32	0.622800	0.998600	0.939500
N331	N33	0.558700	0.839000	0.933800
N341	N34	0.714400	0.845200	0.855380
C141	C14	0.793600	0.161200	0.878410
C151	C15	0.716300	0.998500	0.890380
N351	N35	0.613700	0.747500	0.883900
N361	N36	0.122400	0.807400	0.327720
N371	N37	0.088900	0.626800	0.334640
C161	C16	0.152900	0.566700	0.388800
H61	H6	0.146300	0.449300	0.404900
N381	N38	0.228300	0.695200	0.417760
N391	N39	0.377200	0.001400	0.439500
N401	N40	0.441300	0.161000	0.433800
N411	N41	0.285600	0.154800	0.355380
C171	C17	0.206400	0.838800	0.378410
C181	C18	0.283700	0.001500	0.390380
N421	N42	0.386300	0.252500	0.383900
N431	N43	0.122400	0.692600	0.672280
N441	N44	0.088900	0.873200	0.665360
C191	C19	0.152900	0.933300	0.611200
H71	H7	0.146300	0.050700	0.595100
N451	N45	0.228300	0.804800	0.582240
N461	N46	0.377200	0.498600	0.560500
N471	N47	0.441300	0.339000	0.566200
N481	N48	0.285600	0.345200	0.644620
C201	C20	0.206400	0.661200	0.621590
C211	C21	0.283700	0.498500	0.609620
N491	N49	0.386300	0.247500	0.616100
N501	N50	0.877600	0.307400	0.172280
N511	N51	0.911100	0.126800	0.165360
C221	C22	0.847100	0.066700	0.111200
H81	H8	0.853700	0.949300	0.095100
N521	N52	0.771700	0.195200	0.082240
N531	N53	0.622800	0.501400	0.060500
N541	N54	0.558700	0.661000	0.066200
N551	N55	0.714400	0.654800	0.144620
C231	C23	0.793600	0.338800	0.121590
C241	C24	0.716300	0.501500	0.109620
N561	N56	0.613700	0.752500	0.116100
Co11	Co1	0.011250	0.973770	0.250000
Co21	Co2	0.988750	0.026230	0.750000
Co31	Co3	0.988750	0.473770	0.250000
Co41	Co4	0.011250	0.526230	0.750000
Co51	Co5	0.389470	0.750000	0.000000
Co61	Co6	0.610530	0.250000	0.500000
Co71	Co7	0.610530	0.250000	0.000000
Co81	Co8	0.389470	0.750000	0.500000
