data_LAZPUZ_clean_PM
_symmetry_space_group_name_H-M	'P1'
_cell_length_a	7.952900
_cell_length_b	17.246600
_cell_length_c	23.270200
_cell_angle_alpha	90.000000
_cell_angle_beta	90.000000
_cell_angle_gamma	90.000000
_symmetry_Int_Tables_number 1

loop_
_symmetry_equiv_pos_as_xyz
'x,y,z'

loop_
_atom_site_label
_atom_site_type_symbol
_atom_site_fract_x
_atom_site_fract_y
_atom_site_fract_z
Pr11	Pr1	0.860850	0.895960	0.281620
Pr21	Pr2	0.639150	0.104040	0.781620
Pr31	Pr3	0.139150	0.395960	0.218380
Pr41	Pr4	0.360850	0.604040	0.718380
Pr51	Pr5	0.139150	0.104040	0.718380
Pr61	Pr6	0.360850	0.895960	0.218380
Pr71	Pr7	0.860850	0.604040	0.781620
Pr81	Pr8	0.639150	0.395960	0.281620
Cu11	Cu1	0.500000	0.000000	0.000000
Cu21	Cu2	0.000000	0.000000	0.500000
Cu31	Cu3	0.500000	0.500000	0.500000
Cu41	Cu4	0.000000	0.500000	0.000000
H11	H1	0.125500	0.830000	0.993300
H21	H2	0.880700	0.757800	0.990200
H31	H3	0.680800	0.773800	0.061300
H41	H4	0.294500	0.836700	0.838400
H51	H5	0.280300	0.930700	0.908400
H61	H6	0.751200	0.897200	0.949000
H71	H7	0.774500	0.799600	0.883300
H81	H8	0.374500	0.170000	0.493300
H91	H9	0.619300	0.242200	0.490200
H101	H10	0.819200	0.226200	0.561300
H111	H11	0.205500	0.163300	0.338400
H121	H12	0.219700	0.069300	0.408400
H131	H13	0.748800	0.102800	0.449000
H141	H14	0.725500	0.200400	0.383300
H151	H15	0.874500	0.330000	0.506700
H161	H16	0.119300	0.257800	0.509800
H171	H17	0.319200	0.273800	0.438700
H181	H18	0.705500	0.336700	0.661600
H191	H19	0.719700	0.430700	0.591600
H201	H20	0.248800	0.397200	0.551000
H211	H21	0.225500	0.299600	0.616700
H221	H22	0.625500	0.670000	0.006700
H231	H23	0.380700	0.742200	0.009800
H241	H24	0.180800	0.726200	0.938700
H251	H25	0.794500	0.663300	0.161600
H261	H26	0.780300	0.569300	0.091600
H271	H27	0.251200	0.602800	0.051000
H281	H28	0.274500	0.700400	0.116700
H291	H29	0.874500	0.170000	0.006700
H301	H30	0.119300	0.242200	0.009800
H311	H31	0.319200	0.226200	0.938700
H321	H32	0.705500	0.163300	0.161600
H331	H33	0.719700	0.069300	0.091600
H341	H34	0.248800	0.102800	0.051000
H351	H35	0.225500	0.200400	0.116700
H361	H36	0.625500	0.830000	0.506700
H371	H37	0.380700	0.757800	0.509800
H381	H38	0.180800	0.773800	0.438700
H391	H39	0.794500	0.836700	0.661600
H401	H40	0.780300	0.930700	0.591600
H411	H41	0.251200	0.897200	0.551000
H421	H42	0.274500	0.799600	0.616700
H431	H43	0.125500	0.670000	0.493300
H441	H44	0.880700	0.742200	0.490200
H451	H45	0.680800	0.726200	0.561300
H461	H46	0.294500	0.663300	0.338400
H471	H47	0.280300	0.569300	0.408400
H481	H48	0.751200	0.602800	0.449000
H491	H49	0.774500	0.700400	0.383300
H501	H50	0.374500	0.330000	0.993300
H511	H51	0.619300	0.257800	0.990200
H521	H52	0.819200	0.273800	0.061300
H531	H53	0.205500	0.336700	0.838400
H541	H54	0.219700	0.430700	0.908400
H551	H55	0.748800	0.397200	0.949000
H561	H56	0.725500	0.299600	0.883300
C11	C1	0.669800	0.858300	0.152240
C21	C2	0.990400	0.961700	0.152870
C31	C3	0.240900	0.928100	0.069260
C41	C4	0.803800	0.854900	0.107300
C51	C5	0.953500	0.898400	0.109410
C61	C6	0.074000	0.887300	0.066730
C71	C7	0.045300	0.835700	0.022000
C81	C8	0.898900	0.792800	0.019900
C91	C9	0.779400	0.802800	0.062600
C101	C10	0.554900	0.742500	0.809660
C111	C11	0.536300	0.806300	0.853380
C121	C12	0.388000	0.847300	0.861100
C131	C13	0.380900	0.904200	0.902900
C141	C14	0.657600	0.883900	0.927100
C151	C15	0.673000	0.825800	0.887400
C161	C16	0.830200	0.141700	0.652240
C171	C17	0.509600	0.038300	0.652870
C181	C18	0.259100	0.071900	0.569260
C191	C19	0.696200	0.145100	0.607300
C201	C20	0.546500	0.101600	0.609410
C211	C21	0.426000	0.112700	0.566730
C221	C22	0.454700	0.164300	0.522000
C231	C23	0.601100	0.207200	0.519900
C241	C24	0.720600	0.197200	0.562600
C251	C25	0.945100	0.257500	0.309660
C261	C26	0.963700	0.193700	0.353380
C271	C27	0.112000	0.152700	0.361100
C281	C28	0.119100	0.095800	0.402900
C291	C29	0.842400	0.116100	0.427100
C301	C30	0.827000	0.174200	0.387400
C311	C31	0.330200	0.358300	0.347760
C321	C32	0.009600	0.461700	0.347130
C331	C33	0.759100	0.428100	0.430740
C341	C34	0.196200	0.354900	0.392700
C351	C35	0.046500	0.398400	0.390590
C361	C36	0.926000	0.387300	0.433270
C371	C37	0.954700	0.335700	0.478000
C381	C38	0.101100	0.292800	0.480100
C391	C39	0.220600	0.302800	0.437400
C401	C40	0.445100	0.242500	0.690340
C411	C41	0.463700	0.306300	0.646620
C421	C42	0.612000	0.347300	0.638900
C431	C43	0.619100	0.404200	0.597100
C441	C44	0.342400	0.383900	0.572900
C451	C45	0.327000	0.325800	0.612600
C461	C46	0.169800	0.641700	0.847760
C471	C47	0.490400	0.538300	0.847130
C481	C48	0.740900	0.571900	0.930740
C491	C49	0.303800	0.645100	0.892700
C501	C50	0.453500	0.601600	0.890590
C511	C51	0.574000	0.612700	0.933270
C521	C52	0.545300	0.664300	0.978000
C531	C53	0.398900	0.707200	0.980100
C541	C54	0.279400	0.697200	0.937400
C551	C55	0.054900	0.757500	0.190340
C561	C56	0.036300	0.693700	0.146620
C571	C57	0.888000	0.652700	0.138900
C581	C58	0.880900	0.595800	0.097100
C591	C59	0.157600	0.616100	0.072900
C601	C60	0.173000	0.674200	0.112600
C611	C61	0.330200	0.141700	0.847760
C621	C62	0.009600	0.038300	0.847130
C631	C63	0.759100	0.071900	0.930740
C641	C64	0.196200	0.145100	0.892700
C651	C65	0.046500	0.101600	0.890590
C661	C66	0.926000	0.112700	0.933270
C671	C67	0.954700	0.164300	0.978000
C681	C68	0.101100	0.207200	0.980100
C691	C69	0.220600	0.197200	0.937400
C701	C70	0.445100	0.257500	0.190340
C711	C71	0.463700	0.193700	0.146620
C721	C72	0.612000	0.152700	0.138900
C731	C73	0.619100	0.095800	0.097100
C741	C74	0.342400	0.116100	0.072900
C751	C75	0.327000	0.174200	0.112600
C761	C76	0.169800	0.858300	0.347760
C771	C77	0.490400	0.961700	0.347130
C781	C78	0.740900	0.928100	0.430740
C791	C79	0.303800	0.854900	0.392700
C801	C80	0.453500	0.898400	0.390590
C811	C81	0.574000	0.887300	0.433270
C821	C82	0.545300	0.835700	0.478000
C831	C83	0.398900	0.792800	0.480100
C841	C84	0.279400	0.802800	0.437400
C851	C85	0.054900	0.742500	0.690340
C861	C86	0.036300	0.806300	0.646620
C871	C87	0.888000	0.847300	0.638900
C881	C88	0.880900	0.904200	0.597100
C891	C89	0.157600	0.883900	0.572900
C901	C90	0.173000	0.825800	0.612600
C911	C91	0.669800	0.641700	0.652240
C921	C92	0.990400	0.538300	0.652870
C931	C93	0.240900	0.571900	0.569260
C941	C94	0.803800	0.645100	0.607300
C951	C95	0.953500	0.601600	0.609410
C961	C96	0.074000	0.612700	0.566730
C971	C97	0.045300	0.664300	0.522000
C981	C98	0.898900	0.707200	0.519900
C991	C99	0.779400	0.697200	0.562600
C1001	C100	0.554900	0.757500	0.309660
C1011	C101	0.536300	0.693700	0.353380
C1021	C102	0.388000	0.652700	0.361100
C1031	C103	0.380900	0.595800	0.402900
C1041	C104	0.657600	0.616100	0.427100
C1051	C105	0.673000	0.674200	0.387400
C1061	C106	0.830200	0.358300	0.152240
C1071	C107	0.509600	0.461700	0.152870
C1081	C108	0.259100	0.428100	0.069260
C1091	C109	0.696200	0.354900	0.107300
C1101	C110	0.546500	0.398400	0.109410
C1111	C111	0.426000	0.387300	0.066730
C1121	C112	0.454700	0.335700	0.022000
C1131	C113	0.601100	0.292800	0.019900
C1141	C114	0.720600	0.302800	0.062600
C1151	C115	0.945100	0.242500	0.809660
C1161	C116	0.963700	0.306300	0.853380
C1171	C117	0.112000	0.347300	0.861100
C1181	C118	0.119100	0.404200	0.902900
C1191	C119	0.842400	0.383900	0.927100
C1201	C120	0.827000	0.325800	0.887400
N11	N1	0.513200	0.922700	0.935890
N21	N2	0.986800	0.077300	0.435890
N31	N3	0.486800	0.422700	0.564110
N41	N4	0.013200	0.577300	0.064110
N51	N5	0.486800	0.077300	0.064110
N61	N6	0.013200	0.922700	0.564110
N71	N7	0.513200	0.577300	0.435890
N81	N8	0.986800	0.422700	0.935890
O11	O1	0.684100	0.907900	0.193440
O21	O2	0.544900	0.815600	0.148850
O31	O3	0.047000	0.941240	0.202410
O41	O4	0.970900	0.029100	0.136710
O51	O5	0.315700	0.935600	0.114990
O61	O6	0.293000	0.951700	0.020690
O71	O7	0.698000	0.713100	0.806570
O81	O8	0.429900	0.722810	0.780230
O91	O9	0.815900	0.092100	0.693440
O101	O10	0.955100	0.184400	0.648850
O111	O11	0.453000	0.058760	0.702410
O121	O12	0.529100	0.970900	0.636710
O131	O13	0.184300	0.064400	0.614990
O141	O14	0.207000	0.048300	0.520690
O151	O15	0.802000	0.286900	0.306570
O161	O16	0.070100	0.277190	0.280230
O171	O17	0.315900	0.407900	0.306560
O181	O18	0.455100	0.315600	0.351150
O191	O19	0.953000	0.441240	0.297590
O201	O20	0.029100	0.529100	0.363290
O211	O21	0.684300	0.435600	0.385010
O221	O22	0.707000	0.451700	0.479310
O231	O23	0.302000	0.213100	0.693430
O241	O24	0.570100	0.222810	0.719770
O251	O25	0.184100	0.592100	0.806560
O261	O26	0.044900	0.684400	0.851150
O271	O27	0.547000	0.558760	0.797590
O281	O28	0.470900	0.470900	0.863290
O291	O29	0.815700	0.564400	0.885010
O301	O30	0.793000	0.548300	0.979310
O311	O31	0.198000	0.786900	0.193430
O321	O32	0.929900	0.777190	0.219770
O331	O33	0.315900	0.092100	0.806560
O341	O34	0.455100	0.184400	0.851150
O351	O35	0.953000	0.058760	0.797590
O361	O36	0.029100	0.970900	0.863290
O371	O37	0.684300	0.064400	0.885010
O381	O38	0.707000	0.048300	0.979310
O391	O39	0.302000	0.286900	0.193430
O401	O40	0.570100	0.277190	0.219770
O411	O41	0.184100	0.907900	0.306560
O421	O42	0.044900	0.815600	0.351150
O431	O43	0.547000	0.941240	0.297590
O441	O44	0.470900	0.029100	0.363290
O451	O45	0.815700	0.935600	0.385010
O461	O46	0.793000	0.951700	0.479310
O471	O47	0.198000	0.713100	0.693430
O481	O48	0.929900	0.722810	0.719770
O491	O49	0.684100	0.592100	0.693440
O501	O50	0.544900	0.684400	0.648850
O511	O51	0.047000	0.558760	0.702410
O521	O52	0.970900	0.470900	0.636710
O531	O53	0.315700	0.564400	0.614990
O541	O54	0.293000	0.548300	0.520690
O551	O55	0.698000	0.786900	0.306570
O561	O56	0.429900	0.777190	0.280230
O571	O57	0.815900	0.407900	0.193440
O581	O58	0.955100	0.315600	0.148850
O591	O59	0.453000	0.441240	0.202410
O601	O60	0.529100	0.529100	0.136710
O611	O61	0.184300	0.435600	0.114990
O621	O62	0.207000	0.451700	0.020690
O631	O63	0.802000	0.213100	0.806570
O641	O64	0.070100	0.222810	0.780230
