data_LAZPOT_clean_PM
_symmetry_space_group_name_H-M	'P1'
_cell_length_a	7.990500
_cell_length_b	17.245000
_cell_length_c	23.298700
_cell_angle_alpha	90.000000
_cell_angle_beta	90.000000
_cell_angle_gamma	90.000000
_symmetry_Int_Tables_number 1

loop_
_symmetry_equiv_pos_as_xyz
'x,y,z'

loop_
_atom_site_label
_atom_site_type_symbol
_atom_site_fract_x
_atom_site_fract_y
_atom_site_fract_z
Ce11	Ce1	0.138370	0.896610	0.218030
Ce21	Ce2	0.361630	0.103390	0.718030
Ce31	Ce3	0.861630	0.396610	0.281970
Ce41	Ce4	0.638370	0.603390	0.781970
Ce51	Ce5	0.861630	0.103390	0.781970
Ce61	Ce6	0.638370	0.896610	0.281970
Ce71	Ce7	0.138370	0.603390	0.718030
Ce81	Ce8	0.361630	0.396610	0.218030
Cu11	Cu1	0.500000	0.000000	0.500000
Cu21	Cu2	0.000000	0.000000	0.000000
Cu31	Cu3	0.500000	0.500000	0.000000
Cu41	Cu4	0.000000	0.500000	0.500000
H11	H1	0.874900	0.831000	0.507400
H21	H2	0.117700	0.758200	0.509800
H31	H3	0.316600	0.774300	0.439000
H41	H4	0.703700	0.836800	0.661300
H51	H5	0.720100	0.930500	0.591700
H61	H6	0.249700	0.898100	0.550900
H71	H7	0.226000	0.800100	0.616200
H81	H8	0.625100	0.169000	0.007400
H91	H9	0.382300	0.241800	0.009800
H101	H10	0.183400	0.225700	0.939000
H111	H11	0.796300	0.163200	0.161300
H121	H12	0.779900	0.069500	0.091700
H131	H13	0.250300	0.101900	0.050900
H141	H14	0.274000	0.199900	0.116200
H151	H15	0.125100	0.331000	0.992600
H161	H16	0.882300	0.258200	0.990200
H171	H17	0.683400	0.274300	0.061000
H181	H18	0.296300	0.336800	0.838700
H191	H19	0.279900	0.430500	0.908300
H201	H20	0.750300	0.398100	0.949100
H211	H21	0.774000	0.300100	0.883800
H221	H22	0.374900	0.669000	0.492600
H231	H23	0.617700	0.741800	0.490200
H241	H24	0.816600	0.725700	0.561000
H251	H25	0.203700	0.663200	0.338700
H261	H26	0.220100	0.569500	0.408300
H271	H27	0.749700	0.601900	0.449100
H281	H28	0.726000	0.699900	0.383800
H291	H29	0.125100	0.169000	0.492600
H301	H30	0.882300	0.241800	0.490200
H311	H31	0.683400	0.225700	0.561000
H321	H32	0.296300	0.163200	0.338700
H331	H33	0.279900	0.069500	0.408300
H341	H34	0.750300	0.101900	0.449100
H351	H35	0.774000	0.199900	0.383800
H361	H36	0.374900	0.831000	0.992600
H371	H37	0.617700	0.758200	0.990200
H381	H38	0.816600	0.774300	0.061000
H391	H39	0.203700	0.836800	0.838700
H401	H40	0.220100	0.930500	0.908300
H411	H41	0.749700	0.898100	0.949100
H421	H42	0.726000	0.800100	0.883800
H431	H43	0.874900	0.669000	0.007400
H441	H44	0.117700	0.741800	0.009800
H451	H45	0.316600	0.725700	0.939000
H461	H46	0.703700	0.663200	0.161300
H471	H47	0.720100	0.569500	0.091700
H481	H48	0.249700	0.601900	0.050900
H491	H49	0.226000	0.699900	0.116200
H501	H50	0.625100	0.331000	0.507400
H511	H51	0.382300	0.258200	0.509800
H521	H52	0.183400	0.274300	0.439000
H531	H53	0.796300	0.336800	0.661300
H541	H54	0.779900	0.430500	0.591700
H551	H55	0.250300	0.398100	0.550900
H561	H56	0.274000	0.300100	0.616200
C11	C1	0.328400	0.859900	0.348330
C21	C2	0.010100	0.962300	0.347250
C31	C3	0.760400	0.929700	0.431800
C41	C4	0.194300	0.855500	0.393410
C51	C5	0.046800	0.899700	0.391030
C61	C6	0.926200	0.888300	0.433930
C71	C7	0.954400	0.836600	0.478530
C81	C8	0.099800	0.793500	0.480260
C91	C9	0.218600	0.803300	0.437770
C101	C10	0.445400	0.742400	0.690220
C111	C11	0.463100	0.806300	0.646520
C121	C12	0.610900	0.847500	0.638560
C131	C13	0.619700	0.904200	0.597090
C141	C14	0.342700	0.884400	0.572680
C151	C15	0.327200	0.826200	0.612250
C161	C16	0.171600	0.140100	0.848330
C171	C17	0.489900	0.037700	0.847250
C181	C18	0.739600	0.070300	0.931800
C191	C19	0.305700	0.144500	0.893410
C201	C20	0.453200	0.100300	0.891030
C211	C21	0.573800	0.111700	0.933930
C221	C22	0.545600	0.163400	0.978530
C231	C23	0.400200	0.206500	0.980260
C241	C24	0.281400	0.196700	0.937770
C251	C25	0.054600	0.257600	0.190220
C261	C26	0.036900	0.193700	0.146520
C271	C27	0.889100	0.152500	0.138560
C281	C28	0.880300	0.095800	0.097090
C291	C29	0.157300	0.115600	0.072680
C301	C30	0.172800	0.173800	0.112250
C311	C31	0.671600	0.359900	0.151670
C321	C32	0.989900	0.462300	0.152750
C331	C33	0.239600	0.429700	0.068200
C341	C34	0.805700	0.355500	0.106590
C351	C35	0.953200	0.399700	0.108970
C361	C36	0.073800	0.388300	0.066070
C371	C37	0.045600	0.336600	0.021470
C381	C38	0.900200	0.293500	0.019740
C391	C39	0.781400	0.303300	0.062230
C401	C40	0.554600	0.242400	0.809780
C411	C41	0.536900	0.306300	0.853480
C421	C42	0.389100	0.347500	0.861440
C431	C43	0.380300	0.404200	0.902910
C441	C44	0.657300	0.384400	0.927320
C451	C45	0.672800	0.326200	0.887750
C461	C46	0.828400	0.640100	0.651670
C471	C47	0.510100	0.537700	0.652750
C481	C48	0.260400	0.570300	0.568200
C491	C49	0.694300	0.644500	0.606590
C501	C50	0.546800	0.600300	0.608970
C511	C51	0.426200	0.611700	0.566070
C521	C52	0.454400	0.663400	0.521470
C531	C53	0.599800	0.706500	0.519740
C541	C54	0.718600	0.696700	0.562230
C551	C55	0.945400	0.757600	0.309780
C561	C56	0.963100	0.693700	0.353480
C571	C57	0.110900	0.652500	0.361440
C581	C58	0.119700	0.595800	0.402910
C591	C59	0.842700	0.615600	0.427320
C601	C60	0.827200	0.673800	0.387750
C611	C61	0.671600	0.140100	0.651670
C621	C62	0.989900	0.037700	0.652750
C631	C63	0.239600	0.070300	0.568200
C641	C64	0.805700	0.144500	0.606590
C651	C65	0.953200	0.100300	0.608970
C661	C66	0.073800	0.111700	0.566070
C671	C67	0.045600	0.163400	0.521470
C681	C68	0.900200	0.206500	0.519740
C691	C69	0.781400	0.196700	0.562230
C701	C70	0.554600	0.257600	0.309780
C711	C71	0.536900	0.193700	0.353480
C721	C72	0.389100	0.152500	0.361440
C731	C73	0.380300	0.095800	0.402910
C741	C74	0.657300	0.115600	0.427320
C751	C75	0.672800	0.173800	0.387750
C761	C76	0.828400	0.859900	0.151670
C771	C77	0.510100	0.962300	0.152750
C781	C78	0.260400	0.929700	0.068200
C791	C79	0.694300	0.855500	0.106590
C801	C80	0.546800	0.899700	0.108970
C811	C81	0.426200	0.888300	0.066070
C821	C82	0.454400	0.836600	0.021470
C831	C83	0.599800	0.793500	0.019740
C841	C84	0.718600	0.803300	0.062230
C851	C85	0.945400	0.742400	0.809780
C861	C86	0.963100	0.806300	0.853480
C871	C87	0.110900	0.847500	0.861440
C881	C88	0.119700	0.904200	0.902910
C891	C89	0.842700	0.884400	0.927320
C901	C90	0.827200	0.826200	0.887750
C911	C91	0.328400	0.640100	0.848330
C921	C92	0.010100	0.537700	0.847250
C931	C93	0.760400	0.570300	0.931800
C941	C94	0.194300	0.644500	0.893410
C951	C95	0.046800	0.600300	0.891030
C961	C96	0.926200	0.611700	0.933930
C971	C97	0.954400	0.663400	0.978530
C981	C98	0.099800	0.706500	0.980260
C991	C99	0.218600	0.696700	0.937770
C1001	C100	0.445400	0.757600	0.190220
C1011	C101	0.463100	0.693700	0.146520
C1021	C102	0.610900	0.652500	0.138560
C1031	C103	0.619700	0.595800	0.097090
C1041	C104	0.342700	0.615600	0.072680
C1051	C105	0.327200	0.673800	0.112250
C1061	C106	0.171600	0.359900	0.348330
C1071	C107	0.489900	0.462300	0.347250
C1081	C108	0.739600	0.429700	0.431800
C1091	C109	0.305700	0.355500	0.393410
C1101	C110	0.453200	0.399700	0.391030
C1111	C111	0.573800	0.388300	0.433930
C1121	C112	0.545600	0.336600	0.478530
C1131	C113	0.400200	0.293500	0.480260
C1141	C114	0.281400	0.303300	0.437770
C1151	C115	0.054600	0.242400	0.690220
C1161	C116	0.036900	0.306300	0.646520
C1171	C117	0.889100	0.347500	0.638560
C1181	C118	0.880300	0.404200	0.597090
C1191	C119	0.157300	0.384400	0.572680
C1201	C120	0.172800	0.326200	0.612250
N11	N1	0.487400	0.922780	0.564040
N21	N2	0.012600	0.077220	0.064040
N31	N3	0.512600	0.422780	0.935960
N41	N4	0.987400	0.577220	0.435960
N51	N5	0.512600	0.077220	0.435960
N61	N6	0.987400	0.922780	0.935960
N71	N7	0.487400	0.577220	0.064040
N81	N8	0.012600	0.422780	0.564040
O11	O1	0.314200	0.909040	0.307020
O21	O2	0.453000	0.816400	0.351780
O31	O3	0.952500	0.942110	0.298050
O41	O4	0.028400	0.029600	0.363490
O51	O5	0.684500	0.936510	0.385550
O61	O6	0.708700	0.953120	0.480340
O71	O7	0.301400	0.713350	0.693020
O81	O8	0.568100	0.723000	0.719810
O91	O9	0.185800	0.090960	0.807020
O101	O10	0.047000	0.183600	0.851780
O111	O11	0.547500	0.057890	0.798050
O121	O12	0.471600	0.970400	0.863490
O131	O13	0.815500	0.063490	0.885550
O141	O14	0.791300	0.046880	0.980340
O151	O15	0.198600	0.286650	0.193020
O161	O16	0.931900	0.277000	0.219810
O171	O17	0.685800	0.409040	0.192980
O181	O18	0.547000	0.316400	0.148220
O191	O19	0.047500	0.442110	0.201950
O201	O20	0.971600	0.529600	0.136510
O211	O21	0.315500	0.436510	0.114450
O221	O22	0.291300	0.453120	0.019660
O231	O23	0.698600	0.213350	0.806980
O241	O24	0.431900	0.223000	0.780190
O251	O25	0.814200	0.590960	0.692980
O261	O26	0.953000	0.683600	0.648220
O271	O27	0.452500	0.557890	0.701950
O281	O28	0.528400	0.470400	0.636510
O291	O29	0.184500	0.563490	0.614450
O301	O30	0.208700	0.546880	0.519660
O311	O31	0.801400	0.786650	0.306980
O321	O32	0.068100	0.777000	0.280190
O331	O33	0.685800	0.090960	0.692980
O341	O34	0.547000	0.183600	0.648220
O351	O35	0.047500	0.057890	0.701950
O361	O36	0.971600	0.970400	0.636510
O371	O37	0.315500	0.063490	0.614450
O381	O38	0.291300	0.046880	0.519660
O391	O39	0.698600	0.286650	0.306980
O401	O40	0.431900	0.277000	0.280190
O411	O41	0.814200	0.909040	0.192980
O421	O42	0.953000	0.816400	0.148220
O431	O43	0.452500	0.942110	0.201950
O441	O44	0.528400	0.029600	0.136510
O451	O45	0.184500	0.936510	0.114450
O461	O46	0.208700	0.953120	0.019660
O471	O47	0.801400	0.713350	0.806980
O481	O48	0.068100	0.723000	0.780190
O491	O49	0.314200	0.590960	0.807020
O501	O50	0.453000	0.683600	0.851780
O511	O51	0.952500	0.557890	0.798050
O521	O52	0.028400	0.470400	0.863490
O531	O53	0.684500	0.563490	0.885550
O541	O54	0.708700	0.546880	0.980340
O551	O55	0.301400	0.786650	0.193020
O561	O56	0.568100	0.777000	0.219810
O571	O57	0.185800	0.409040	0.307020
O581	O58	0.047000	0.316400	0.351780
O591	O59	0.547500	0.442110	0.298050
O601	O60	0.471600	0.529600	0.363490
O611	O61	0.815500	0.436510	0.385550
O621	O62	0.791300	0.453120	0.480340
O631	O63	0.198600	0.213350	0.693020
O641	O64	0.931900	0.223000	0.719810
