data_LECFUW_charged_PM
_symmetry_space_group_name_H-M	'P1'
_cell_length_a	16.990600
_cell_length_b	19.443800
_cell_length_c	19.443800
_cell_angle_alpha	68.115500
_cell_angle_beta	73.065600
_cell_angle_gamma	106.934000
_symmetry_Int_Tables_number 1

loop_
_symmetry_equiv_pos_as_xyz
'x,y,z'

loop_
_atom_site_label
_atom_site_type_symbol
_atom_site_fract_x
_atom_site_fract_y
_atom_site_fract_z
Cu11	Cu1	0.052750	0.576080	0.379610
Cu21	Cu2	0.114400	0.444250	0.499870
Cu31	Cu3	0.970440	0.727320	0.316830
Cu41	Cu4	0.432360	0.379610	0.044310
Cu51	Cu5	0.614270	0.499870	0.055880
Cu61	Cu6	0.287270	0.316830	0.955850
Cu71	Cu7	0.476670	0.044310	0.576080
Cu81	Cu8	0.670150	0.055880	0.444250
Cu91	Cu9	0.243120	0.955850	0.727320
Cu101	Cu10	0.947250	0.423920	0.620390
Cu111	Cu11	0.885600	0.555750	0.500130
Cu121	Cu12	0.029560	0.272680	0.683170
Cu131	Cu13	0.567640	0.620390	0.955690
Cu141	Cu14	0.385730	0.500130	0.944120
Cu151	Cu15	0.712730	0.683170	0.044150
Cu161	Cu16	0.523330	0.955690	0.423920
Cu171	Cu17	0.329850	0.944120	0.555750
Cu181	Cu18	0.756880	0.044150	0.272680
H11	H1	0.695000	0.866000	0.193700
H21	H2	0.482900	0.677100	0.219000
H31	H3	0.430300	0.795000	0.348900
H41	H4	0.229900	0.766100	0.260600
H51	H5	0.334700	0.790900	0.205000
H61	H6	0.309700	0.809700	0.279900
H71	H7	0.338600	0.560400	0.408900
H81	H8	0.036200	0.230200	0.163300
H91	H9	0.189900	0.421800	0.180900
H101	H10	0.929500	0.254100	0.364800
H111	H11	0.987000	0.524000	0.260000
H121	H12	0.958400	0.437800	0.260500
H131	H13	0.057500	0.514000	0.193600
H141	H14	0.108800	0.333800	0.406700
H151	H15	0.888700	0.193700	0.940300
H161	H16	0.701900	0.219000	0.103900
H171	H17	0.779200	0.348900	0.856100
H181	H18	0.490500	0.260600	0.973300
H191	H19	0.539700	0.205000	0.004100
H201	H20	0.589600	0.279900	0.910400
H211	H21	0.747500	0.408900	0.030700
H221	H22	0.199500	0.163300	0.606500
H231	H23	0.370800	0.180900	0.397300
H241	H24	0.294300	0.364800	0.381100
H251	H25	0.247000	0.260000	0.216000
H261	H26	0.218900	0.260500	0.301700
H271	H27	0.251100	0.193600	0.292400
H281	H28	0.515500	0.406700	0.259500
H291	H29	0.829000	0.940300	0.866000
H301	H30	0.805800	0.103900	0.677100
H311	H31	0.635300	0.856100	0.795000
H321	H32	0.463800	0.973300	0.766100
H331	H33	0.543800	0.004100	0.790900
H341	H34	0.500000	0.910400	0.809700
H351	H35	0.778200	0.030700	0.560400
H361	H36	0.806000	0.606500	0.230200
H371	H37	0.768100	0.397300	0.421800
H381	H38	0.675400	0.381100	0.254100
H391	H39	0.463000	0.216000	0.524000
H401	H40	0.520600	0.301700	0.437800
H411	H41	0.543500	0.292400	0.514000
H421	H42	0.775000	0.259500	0.333800
H431	H43	0.305000	0.134000	0.806300
H441	H44	0.517100	0.322900	0.781000
H451	H45	0.569700	0.205000	0.651100
H461	H46	0.770100	0.233900	0.739400
H471	H47	0.665300	0.209100	0.795000
H481	H48	0.690300	0.190300	0.720100
H491	H49	0.661400	0.439600	0.591100
H501	H50	0.963800	0.769800	0.836700
H511	H51	0.810100	0.578200	0.819100
H521	H52	0.070500	0.745900	0.635200
H531	H53	0.013000	0.476000	0.740000
H541	H54	0.041600	0.562200	0.739500
H551	H55	0.942500	0.486000	0.806400
H561	H56	0.891200	0.666200	0.593300
H571	H57	0.111300	0.806300	0.059700
H581	H58	0.298100	0.781000	0.896100
H591	H59	0.220800	0.651100	0.143900
H601	H60	0.509500	0.739400	0.026700
H611	H61	0.460300	0.795000	0.995900
H621	H62	0.410400	0.720100	0.089600
H631	H63	0.252500	0.591100	0.969300
H641	H64	0.800500	0.836700	0.393500
H651	H65	0.629200	0.819100	0.602700
H661	H66	0.705700	0.635200	0.618900
H671	H67	0.753000	0.740000	0.784000
H681	H68	0.781100	0.739500	0.698300
H691	H69	0.748900	0.806400	0.707600
H701	H70	0.484500	0.593300	0.740500
H711	H71	0.171000	0.059700	0.134000
H721	H72	0.194200	0.896100	0.322900
H731	H73	0.364700	0.143900	0.205000
H741	H74	0.536200	0.026700	0.233900
H751	H75	0.456200	0.995900	0.209100
H761	H76	0.500000	0.089600	0.190300
H771	H77	0.221800	0.969300	0.439600
H781	H78	0.194000	0.393500	0.769800
H791	H79	0.231900	0.602700	0.578200
H801	H80	0.324600	0.618900	0.745900
H811	H81	0.537000	0.784000	0.476000
H821	H82	0.479400	0.698300	0.562200
H831	H83	0.456500	0.707600	0.486000
H841	H84	0.225000	0.740500	0.666200
C11	C1	0.601910	0.904480	0.298450
C21	C2	0.567680	0.840780	0.273840
C31	C3	0.630870	0.831060	0.217950
C41	C4	0.599210	0.769480	0.197950
C51	C5	0.504940	0.718110	0.233190
C61	C6	0.443970	0.728380	0.289570
C71	C7	0.473400	0.789030	0.310530
C81	C8	0.668020	0.756410	0.139850
C91	C9	0.288650	0.770680	0.261130
C101	C10	0.276140	0.687260	0.319040
C111	C11	0.306760	0.589400	0.388520
C121	C12	0.878550	0.156840	0.303090
C131	C13	0.969320	0.230800	0.269140
C141	C14	0.042710	0.259040	0.193010
C151	C15	0.125460	0.329430	0.160440
C161	C16	0.134550	0.373620	0.202770
C171	C17	0.060290	0.344830	0.278050
C181	C18	0.978340	0.273380	0.312560
C191	C19	0.205620	0.357990	0.079590
C201	C20	0.009600	0.485710	0.250810
C211	C21	0.048390	0.457020	0.309150
C221	C22	0.091470	0.376270	0.384460
C231	C23	0.900360	0.298450	0.797070
C241	C24	0.841520	0.273840	0.885380
C251	C25	0.848820	0.217950	0.950990
C261	C26	0.797160	0.197950	0.032570
C271	C27	0.738130	0.233190	0.048700
C281	C28	0.733540	0.289570	0.982050
C291	C29	0.783930	0.310530	0.900440
C301	C30	0.807870	0.139850	0.103740
C311	C31	0.549780	0.261130	0.968190
C321	C32	0.595180	0.319040	0.993700
C331	C33	0.695280	0.388520	0.022080
C341	C34	0.181640	0.303090	0.540070
C351	C35	0.238460	0.269140	0.500060
C361	C36	0.235720	0.193010	0.547950
C371	C37	0.285900	0.160440	0.510130
C381	C38	0.337320	0.202770	0.423610
C391	C39	0.338340	0.278050	0.377120
C401	C40	0.290900	0.312560	0.414060
C411	C41	0.285210	0.079590	0.562420
C421	C42	0.260410	0.250810	0.263480
C431	C43	0.357540	0.309150	0.233830
C441	C44	0.475930	0.384460	0.239270
C451	C45	0.697430	0.797070	0.904480
C461	C46	0.726900	0.885380	0.840780
C471	C47	0.799810	0.950990	0.831060
C481	C48	0.829730	0.032570	0.769480
C491	C49	0.786830	0.048700	0.718110
C501	C50	0.715590	0.982050	0.728380
C511	C51	0.684370	0.900440	0.789030
C521	C52	0.911610	0.103740	0.756410
C531	C53	0.517970	0.968190	0.770680
C541	C54	0.588880	0.993700	0.687260
C551	C55	0.717360	0.022080	0.589400
C561	C56	0.721710	0.540070	0.156840
C571	C57	0.738520	0.500060	0.230800
C581	C58	0.783670	0.547950	0.259040
C591	C59	0.796030	0.510130	0.329430
C601	C60	0.760930	0.423610	0.373620
C611	C61	0.715460	0.377120	0.344830
C621	C62	0.704960	0.414060	0.273380
C631	C63	0.847630	0.562420	0.357990
C641	C64	0.523890	0.263480	0.485710
C651	C65	0.591370	0.233830	0.457020
C661	C66	0.715200	0.239270	0.376270
C671	C67	0.398090	0.095520	0.701550
C681	C68	0.432320	0.159220	0.726160
C691	C69	0.369130	0.168940	0.782050
C701	C70	0.400790	0.230520	0.802050
C711	C71	0.495060	0.281890	0.766810
C721	C72	0.556030	0.271620	0.710430
C731	C73	0.526600	0.210970	0.689470
C741	C74	0.331980	0.243590	0.860150
C751	C75	0.711350	0.229320	0.738870
C761	C76	0.723860	0.312740	0.680960
C771	C77	0.693240	0.410600	0.611480
C781	C78	0.121450	0.843160	0.696910
C791	C79	0.030680	0.769200	0.730860
C801	C80	0.957290	0.740960	0.806990
C811	C81	0.874540	0.670570	0.839560
C821	C82	0.865450	0.626380	0.797230
C831	C83	0.939710	0.655170	0.721950
C841	C84	0.021660	0.726620	0.687440
C851	C85	0.794380	0.642010	0.920410
C861	C86	0.990400	0.514290	0.749190
C871	C87	0.951610	0.542980	0.690850
C881	C88	0.908530	0.623730	0.615540
C891	C89	0.099640	0.701550	0.202930
C901	C90	0.158480	0.726160	0.114620
C911	C91	0.151180	0.782050	0.049010
C921	C92	0.202840	0.802050	0.967430
C931	C93	0.261870	0.766810	0.951300
C941	C94	0.266460	0.710430	0.017950
C951	C95	0.216070	0.689470	0.099560
C961	C96	0.192130	0.860150	0.896260
C971	C97	0.450220	0.738870	0.031810
C981	C98	0.404820	0.680960	0.006300
C991	C99	0.304720	0.611480	0.977920
C1001	C100	0.818360	0.696910	0.459930
C1011	C101	0.761540	0.730860	0.499940
C1021	C102	0.764280	0.806990	0.452050
C1031	C103	0.714100	0.839560	0.489870
C1041	C104	0.662680	0.797230	0.576390
C1051	C105	0.661660	0.721950	0.622880
C1061	C106	0.709100	0.687440	0.585940
C1071	C107	0.714790	0.920410	0.437580
C1081	C108	0.739590	0.749190	0.736520
C1091	C109	0.642460	0.690850	0.766170
C1101	C110	0.524070	0.615540	0.760730
C1111	C111	0.302570	0.202930	0.095520
C1121	C112	0.273100	0.114620	0.159220
C1131	C113	0.200190	0.049010	0.168940
C1141	C114	0.170270	0.967430	0.230520
C1151	C115	0.213170	0.951300	0.281890
C1161	C116	0.284410	0.017950	0.271620
C1171	C117	0.315630	0.099560	0.210970
C1181	C118	0.088390	0.896260	0.243590
C1191	C119	0.482030	0.031810	0.229320
C1201	C120	0.411120	0.006300	0.312740
C1211	C121	0.282640	0.977920	0.410600
C1221	C122	0.278290	0.459930	0.843160
C1231	C123	0.261480	0.499940	0.769200
C1241	C124	0.216330	0.452050	0.740960
C1251	C125	0.203970	0.489870	0.670570
C1261	C126	0.239070	0.576390	0.626380
C1271	C127	0.284540	0.622880	0.655170
C1281	C128	0.295040	0.585940	0.726620
C1291	C129	0.152370	0.437580	0.642010
C1301	C130	0.476110	0.736520	0.514290
C1311	C131	0.408630	0.766170	0.542980
C1321	C132	0.284800	0.760730	0.623730
N11	N1	0.218120	0.557230	0.411700
N21	N2	0.197400	0.618000	0.368070
N31	N3	0.346140	0.671450	0.330290
N41	N4	0.060770	0.480880	0.361630
N51	N5	0.087180	0.428960	0.410060
N61	N6	0.067580	0.390840	0.321660
N71	N7	0.629820	0.411700	0.031070
N81	N8	0.565470	0.368070	0.013930
N91	N9	0.676430	0.330290	0.998260
N101	N10	0.422400	0.361630	0.157490
N111	N11	0.497240	0.410060	0.160980
N121	N12	0.389240	0.321660	0.287500
N131	N13	0.660890	0.031070	0.557230
N141	N14	0.579400	0.013930	0.618000
N151	N15	0.674690	0.998260	0.671450
N161	N16	0.579890	0.157490	0.480880
N171	N17	0.658220	0.160980	0.428960
N181	N18	0.676740	0.287500	0.390840
N191	N19	0.781880	0.442770	0.588300
N201	N20	0.802600	0.382000	0.631930
N211	N21	0.653860	0.328550	0.669710
N221	N22	0.939230	0.519120	0.638370
N231	N23	0.912820	0.571040	0.589940
N241	N24	0.932420	0.609160	0.678340
N251	N25	0.370180	0.588300	0.968930
N261	N26	0.434530	0.631930	0.986070
N271	N27	0.323570	0.669710	0.001740
N281	N28	0.577600	0.638370	0.842510
N291	N29	0.502760	0.589940	0.839020
N301	N30	0.610760	0.678340	0.712500
N311	N31	0.339110	0.968930	0.442770
N321	N32	0.420600	0.986070	0.382000
N331	N33	0.325310	0.001740	0.328550
N341	N34	0.420110	0.842510	0.519120
N351	N35	0.341780	0.839020	0.571040
N361	N36	0.323260	0.712500	0.609160
O11	O1	0.004010	0.647650	0.406960
O21	O2	0.541480	0.901220	0.357500
O31	O3	0.685920	0.953710	0.259360
O41	O4	0.631990	0.701140	0.123940
O51	O5	0.751040	0.796760	0.114140
O61	O6	0.821070	0.126360	0.377010
O71	O7	0.867880	0.132690	0.252750
O81	O8	0.280650	0.417200	0.058430
O91	O9	0.191780	0.319790	0.040820
O101	O10	0.410970	0.406960	0.945390
O111	O11	0.898980	0.357500	0.741280
O121	O12	0.945280	0.259360	0.786930
O131	O13	0.755930	0.123940	0.174920
O141	O14	0.865180	0.114140	0.089100
O151	O15	0.198080	0.377010	0.496630
O161	O16	0.120630	0.252750	0.614560
O171	O17	0.339080	0.058430	0.524370
O181	O18	0.232600	0.040820	0.639390
O191	O19	0.356360	0.945390	0.647650
O201	O20	0.640260	0.741280	0.901220
O211	O21	0.732210	0.786930	0.953710
O221	O22	0.930850	0.174920	0.701140
O231	O23	0.954280	0.089100	0.796760
O241	O24	0.694710	0.496630	0.126360
O251	O25	0.735190	0.614560	0.132690
O261	O26	0.863450	0.524370	0.417200
O271	O27	0.871990	0.639390	0.319790
O281	O28	0.995990	0.352350	0.593040
O291	O29	0.458520	0.098780	0.642500
O301	O30	0.314080	0.046290	0.740640
O311	O31	0.368010	0.298860	0.876060
O321	O32	0.248960	0.203240	0.885860
O331	O33	0.178930	0.873640	0.622990
O341	O34	0.132120	0.867310	0.747250
O351	O35	0.719350	0.582800	0.941570
O361	O36	0.808220	0.680210	0.959180
O371	O37	0.589030	0.593040	0.054610
O381	O38	0.101020	0.642500	0.258720
O391	O39	0.054720	0.740640	0.213070
O401	O40	0.244070	0.876060	0.825080
O411	O41	0.134820	0.885860	0.910900
O421	O42	0.801920	0.622990	0.503370
O431	O43	0.879370	0.747250	0.385440
O441	O44	0.660920	0.941570	0.475630
O451	O45	0.767400	0.959180	0.360610
O461	O46	0.643640	0.054610	0.352350
O471	O47	0.359740	0.258720	0.098780
O481	O48	0.267790	0.213070	0.046290
O491	O49	0.069150	0.825080	0.298860
O501	O50	0.045720	0.910900	0.203240
O511	O51	0.305290	0.503370	0.873640
O521	O52	0.264810	0.385440	0.867310
O531	O53	0.136550	0.475630	0.582800
O541	O54	0.128010	0.360610	0.680210
O551	O55	0.000000	0.500000	0.500000
O561	O56	0.500000	0.500000	0.000000
O571	O57	0.500000	0.000000	0.500000
N371	N37	0.451500	0.793500	0.731100
O581	O58	0.528250	0.810350	0.736100
O591	O59	0.387010	0.812810	0.755780
O601	O60	0.449600	0.752000	0.693500
N381	N38	0.182600	0.731100	0.475400
O611	O61	0.264350	0.736100	0.453550
O621	O62	0.142790	0.755780	0.431410
O631	O63	0.143100	0.693500	0.554500
N391	N39	0.658000	0.475400	0.793500
O641	O64	0.717900	0.453550	0.810350
O651	O65	0.574200	0.431410	0.812810
O661	O66	0.697600	0.554500	0.752000
N401	N40	0.548500	0.206500	0.268900
O671	O67	0.471750	0.189650	0.263900
O681	O68	0.612990	0.187190	0.244220
O691	O69	0.550400	0.248000	0.306500
N411	N41	0.817400	0.268900	0.524600
O701	O70	0.735650	0.263900	0.546450
O711	O71	0.857210	0.244220	0.568590
O721	O72	0.856900	0.306500	0.445500
N421	N42	0.342000	0.524600	0.206500
O731	O73	0.282100	0.546450	0.189650
O741	O74	0.425800	0.568590	0.187190
O751	O75	0.302400	0.445500	0.248000
