data_LECFAC_clean_PM
_symmetry_space_group_name_H-M	'P1'
_cell_length_a	22.400400
_cell_length_b	22.400400
_cell_length_c	22.400400
_cell_angle_alpha	109.471000
_cell_angle_beta	109.471000
_cell_angle_gamma	109.471000
_symmetry_Int_Tables_number 1

loop_
_symmetry_equiv_pos_as_xyz
'x,y,z'

loop_
_atom_site_label
_atom_site_type_symbol
_atom_site_fract_x
_atom_site_fract_y
_atom_site_fract_z
Cu11	Cu1	0.908160	0.505630	0.000000
Cu21	Cu2	0.505630	0.908160	0.000000
Cu31	Cu3	0.494370	0.494370	0.402530
Cu41	Cu4	0.091840	0.091840	0.597470
Cu51	Cu5	0.402530	0.494370	0.494370
Cu61	Cu6	0.597470	0.091840	0.091840
Cu71	Cu7	0.000000	0.908160	0.505630
Cu81	Cu8	0.000000	0.505630	0.908160
Cu91	Cu9	0.908160	0.000000	0.505630
Cu101	Cu10	0.505630	0.000000	0.908160
Cu111	Cu11	0.091840	0.597470	0.091840
Cu121	Cu12	0.494370	0.402530	0.494370
Cu131	Cu13	0.551870	0.000000	0.551870
Cu141	Cu14	0.448130	0.000000	0.448130
Cu151	Cu15	0.551870	0.551870	0.000000
Cu161	Cu16	0.448130	0.448130	0.000000
Cu171	Cu17	0.000000	0.448130	0.448130
Cu181	Cu18	0.000000	0.551870	0.551870
H11	H1	0.746100	0.401800	0.853100
H21	H2	0.548700	0.893000	0.146900
H31	H3	0.451300	0.598200	0.344300
H41	H4	0.253900	0.107000	0.655700
H51	H5	0.344300	0.451300	0.598200
H61	H6	0.655700	0.253900	0.107000
H71	H7	0.853100	0.746100	0.401800
H81	H8	0.146900	0.548700	0.893000
H91	H9	0.893000	0.146900	0.548700
H101	H10	0.401800	0.853100	0.746100
H111	H11	0.107000	0.655700	0.253900
H121	H12	0.598200	0.344300	0.451300
H131	H13	0.893000	0.548700	0.146900
H141	H14	0.401800	0.746100	0.853100
H151	H15	0.107000	0.253900	0.655700
H161	H16	0.598200	0.451300	0.344300
H171	H17	0.746100	0.853100	0.401800
H181	H18	0.548700	0.146900	0.893000
H191	H19	0.451300	0.344300	0.598200
H201	H20	0.253900	0.655700	0.107000
H211	H21	0.344300	0.598200	0.451300
H221	H22	0.655700	0.107000	0.253900
H231	H23	0.853100	0.401800	0.746100
H241	H24	0.146900	0.893000	0.548700
H251	H25	0.530100	0.230400	0.530100
H261	H26	0.691400	0.236600	0.691400
H271	H27	0.702400	0.424800	0.702400
H281	H28	0.700300	0.000000	0.469900
H291	H29	0.545200	0.000000	0.308600
H301	H30	0.722400	0.000000	0.297600
H311	H31	0.299700	0.769600	0.299700
H321	H32	0.454800	0.763400	0.454800
H331	H33	0.277600	0.575200	0.277600
H341	H34	0.469900	0.000000	0.700300
H351	H35	0.308600	0.000000	0.545200
H361	H36	0.297600	0.000000	0.722400
H371	H37	0.299700	0.299700	0.769600
H381	H38	0.454800	0.454800	0.763400
H391	H39	0.277600	0.277600	0.575200
H401	H40	0.700300	0.469900	0.000000
H411	H41	0.545200	0.308600	0.000000
H421	H42	0.722400	0.297600	0.000000
H431	H43	0.530100	0.530100	0.230400
H441	H44	0.691400	0.691400	0.236600
H451	H45	0.702400	0.702400	0.424800
H461	H46	0.469900	0.700300	0.000000
H471	H47	0.308600	0.545200	0.000000
H481	H48	0.297600	0.722400	0.000000
H491	H49	0.000000	0.469900	0.700300
H501	H50	0.000000	0.308600	0.545200
H511	H51	0.000000	0.297600	0.722400
H521	H52	0.230400	0.530100	0.530100
H531	H53	0.236600	0.691400	0.691400
H541	H54	0.424800	0.702400	0.702400
H551	H55	0.000000	0.700300	0.469900
H561	H56	0.000000	0.545200	0.308600
H571	H57	0.000000	0.722400	0.297600
H581	H58	0.769600	0.299700	0.299700
H591	H59	0.763400	0.454800	0.454800
H601	H60	0.575200	0.277600	0.277600
H611	H61	0.000000	0.474000	0.000000
H621	H62	0.474000	0.000000	0.000000
H631	H63	0.526000	0.526000	0.526000
H641	H64	0.000000	0.000000	0.474000
C11	C1	0.784640	0.408860	0.842300
C21	C2	0.566560	0.942340	0.157700
C31	C3	0.433440	0.591140	0.375780
C41	C4	0.215360	0.057660	0.624220
C51	C5	0.375780	0.433440	0.591140
C61	C6	0.624220	0.215360	0.057660
C71	C7	0.842300	0.784640	0.408860
C81	C8	0.157700	0.566560	0.942340
C91	C9	0.942340	0.157700	0.566560
C101	C10	0.408860	0.842300	0.784640
C111	C11	0.057660	0.624220	0.215360
C121	C12	0.591140	0.375780	0.433440
C131	C13	0.942340	0.566560	0.157700
C141	C14	0.408860	0.784640	0.842300
C151	C15	0.057660	0.215360	0.624220
C161	C16	0.591140	0.433440	0.375780
C171	C17	0.784640	0.842300	0.408860
C181	C18	0.566560	0.157700	0.942340
C191	C19	0.433440	0.375780	0.591140
C201	C20	0.215360	0.624220	0.057660
C211	C21	0.375780	0.591140	0.433440
C221	C22	0.624220	0.057660	0.215360
C231	C23	0.842300	0.408860	0.784640
C241	C24	0.157700	0.942340	0.566560
C251	C25	0.580230	0.372860	0.580230
C261	C26	0.611290	0.333000	0.611290
C271	C27	0.574980	0.257920	0.574980
C281	C28	0.606830	0.221060	0.606830
C291	C29	0.670420	0.260060	0.670420
C301	C30	0.705360	0.337780	0.705360
C311	C31	0.677330	0.372860	0.677330
C321	C32	0.565690	0.138980	0.565690
C331	C33	0.792630	0.000000	0.419770
C341	C34	0.721710	0.000000	0.388710
C351	C35	0.682940	0.000000	0.425020
C361	C36	0.614230	0.000000	0.393170
C371	C37	0.589640	0.000000	0.329580
C381	C38	0.632420	0.000000	0.294640
C391	C39	0.695530	0.000000	0.322670
C401	C40	0.573290	0.000000	0.434310
C411	C41	0.207370	0.627140	0.207370
C421	C42	0.278290	0.667000	0.278290
C431	C43	0.317060	0.742080	0.317060
C441	C44	0.385770	0.778940	0.385770
C451	C45	0.410360	0.739940	0.410360
C461	C46	0.367580	0.662220	0.367580
C471	C47	0.304470	0.627140	0.304470
C481	C48	0.426710	0.861020	0.426710
C491	C49	0.419770	0.000000	0.792630
C501	C50	0.388710	0.000000	0.721710
C511	C51	0.425020	0.000000	0.682940
C521	C52	0.393170	0.000000	0.614230
C531	C53	0.329580	0.000000	0.589640
C541	C54	0.294640	0.000000	0.632420
C551	C55	0.322670	0.000000	0.695530
C561	C56	0.434310	0.000000	0.573290
C571	C57	0.207370	0.207370	0.627140
C581	C58	0.278290	0.278290	0.667000
C591	C59	0.317060	0.317060	0.742080
C601	C60	0.385770	0.385770	0.778940
C611	C61	0.410360	0.410360	0.739940
C621	C62	0.367580	0.367580	0.662220
C631	C63	0.304470	0.304470	0.627140
C641	C64	0.426710	0.426710	0.861020
C651	C65	0.792630	0.419770	0.000000
C661	C66	0.721710	0.388710	0.000000
C671	C67	0.682940	0.425020	0.000000
C681	C68	0.614230	0.393170	0.000000
C691	C69	0.589640	0.329580	0.000000
C701	C70	0.632420	0.294640	0.000000
C711	C71	0.695530	0.322670	0.000000
C721	C72	0.573290	0.434310	0.000000
C731	C73	0.580230	0.580230	0.372860
C741	C74	0.611290	0.611290	0.333000
C751	C75	0.574980	0.574980	0.257920
C761	C76	0.606830	0.606830	0.221060
C771	C77	0.670420	0.670420	0.260060
C781	C78	0.705360	0.705360	0.337780
C791	C79	0.677330	0.677330	0.372860
C801	C80	0.565690	0.565690	0.138980
C811	C81	0.419770	0.792630	0.000000
C821	C82	0.388710	0.721710	0.000000
C831	C83	0.425020	0.682940	0.000000
C841	C84	0.393170	0.614230	0.000000
C851	C85	0.329580	0.589640	0.000000
C861	C86	0.294640	0.632420	0.000000
C871	C87	0.322670	0.695530	0.000000
C881	C88	0.434310	0.573290	0.000000
C891	C89	0.000000	0.419770	0.792630
C901	C90	0.000000	0.388710	0.721710
C911	C91	0.000000	0.425020	0.682940
C921	C92	0.000000	0.393170	0.614230
C931	C93	0.000000	0.329580	0.589640
C941	C94	0.000000	0.294640	0.632420
C951	C95	0.000000	0.322670	0.695530
C961	C96	0.000000	0.434310	0.573290
C971	C97	0.372860	0.580230	0.580230
C981	C98	0.333000	0.611290	0.611290
C991	C99	0.257920	0.574980	0.574980
C1001	C100	0.221060	0.606830	0.606830
C1011	C101	0.260060	0.670420	0.670420
C1021	C102	0.337780	0.705360	0.705360
C1031	C103	0.372860	0.677330	0.677330
C1041	C104	0.138980	0.565690	0.565690
C1051	C105	0.000000	0.792630	0.419770
C1061	C106	0.000000	0.721710	0.388710
C1071	C107	0.000000	0.682940	0.425020
C1081	C108	0.000000	0.614230	0.393170
C1091	C109	0.000000	0.589640	0.329580
C1101	C110	0.000000	0.632420	0.294640
C1111	C111	0.000000	0.695530	0.322670
C1121	C112	0.000000	0.573290	0.434310
C1131	C113	0.627140	0.207370	0.207370
C1141	C114	0.667000	0.278290	0.278290
C1151	C115	0.742080	0.317060	0.317060
C1161	C116	0.778940	0.385770	0.385770
C1171	C117	0.739940	0.410360	0.410360
C1181	C118	0.662220	0.367580	0.367580
C1191	C119	0.627140	0.304470	0.304470
C1201	C120	0.861020	0.426710	0.426710
S11	S1	0.000000	0.655440	0.000000
S21	S2	0.655440	0.000000	0.000000
S31	S3	0.344560	0.344560	0.344560
S41	S4	0.000000	0.000000	0.655440
N11	N1	0.854720	0.446850	0.891750
N21	N2	0.555100	0.962970	0.108250
N31	N3	0.444900	0.553150	0.407870
N41	N4	0.145280	0.037030	0.592130
N51	N5	0.407870	0.444900	0.553150
N61	N6	0.592130	0.145280	0.037030
N71	N7	0.891750	0.854720	0.446850
N81	N8	0.108250	0.555100	0.962970
N91	N9	0.962970	0.108250	0.555100
N101	N10	0.446850	0.891750	0.854720
N111	N11	0.037030	0.592130	0.145280
N121	N12	0.553150	0.407870	0.444900
N131	N13	0.962970	0.555100	0.108250
N141	N14	0.446850	0.854720	0.891750
N151	N15	0.037030	0.145280	0.592130
N161	N16	0.553150	0.444900	0.407870
N171	N17	0.854720	0.891750	0.446850
N181	N18	0.555100	0.108250	0.962970
N191	N19	0.444900	0.407870	0.553150
N201	N20	0.145280	0.592130	0.037030
N211	N21	0.407870	0.553150	0.444900
N221	N22	0.592130	0.037030	0.145280
N231	N23	0.891750	0.446850	0.854720
N241	N24	0.108250	0.962970	0.555100
N251	N25	0.775500	0.382000	0.775500
N261	N26	0.606500	0.000000	0.224500
N271	N27	0.393500	0.618000	0.393500
N281	N28	0.224500	0.000000	0.606500
N291	N29	0.393500	0.393500	0.618000
N301	N30	0.606500	0.224500	0.000000
N311	N31	0.775500	0.775500	0.382000
N321	N32	0.224500	0.606500	0.000000
N331	N33	0.000000	0.224500	0.606500
N341	N34	0.382000	0.775500	0.775500
N351	N35	0.000000	0.606500	0.224500
N361	N36	0.618000	0.393500	0.393500
O11	O1	0.520440	0.334440	0.520440
O21	O2	0.613120	0.441580	0.613120
O31	O3	0.595050	0.107960	0.595050
O41	O4	0.507250	0.106420	0.507250
O51	O5	0.814000	0.000000	0.479560
O61	O6	0.828460	0.000000	0.386880
O71	O7	0.512910	0.000000	0.404950
O81	O8	0.599170	0.000000	0.492750
O91	O9	0.186000	0.665560	0.186000
O101	O10	0.171540	0.558420	0.171540
O111	O11	0.487090	0.892040	0.487090
O121	O12	0.400830	0.893580	0.400830
O131	O13	0.479560	0.000000	0.814000
O141	O14	0.386880	0.000000	0.828460
O151	O15	0.404950	0.000000	0.512910
O161	O16	0.492750	0.000000	0.599170
O171	O17	0.186000	0.186000	0.665560
O181	O18	0.171540	0.171540	0.558420
O191	O19	0.487090	0.487090	0.892040
O201	O20	0.400830	0.400830	0.893580
O211	O21	0.814000	0.479560	0.000000
O221	O22	0.828460	0.386880	0.000000
O231	O23	0.512910	0.404950	0.000000
O241	O24	0.599170	0.492750	0.000000
O251	O25	0.520440	0.520440	0.334440
O261	O26	0.613120	0.613120	0.441580
O271	O27	0.595050	0.595050	0.107960
O281	O28	0.507250	0.507250	0.106420
O291	O29	0.479560	0.814000	0.000000
O301	O30	0.386880	0.828460	0.000000
O311	O31	0.404950	0.512910	0.000000
O321	O32	0.492750	0.599170	0.000000
O331	O33	0.000000	0.479560	0.814000
O341	O34	0.000000	0.386880	0.828460
O351	O35	0.000000	0.404950	0.512910
O361	O36	0.000000	0.492750	0.599170
O371	O37	0.334440	0.520440	0.520440
O381	O38	0.441580	0.613120	0.613120
O391	O39	0.107960	0.595050	0.595050
O401	O40	0.106420	0.507250	0.507250
O411	O41	0.000000	0.814000	0.479560
O421	O42	0.000000	0.828460	0.386880
O431	O43	0.000000	0.512910	0.404950
O441	O44	0.000000	0.599170	0.492750
O451	O45	0.665560	0.186000	0.186000
O461	O46	0.558420	0.171540	0.171540
O471	O47	0.892040	0.487090	0.487090
O481	O48	0.893580	0.400830	0.400830
O491	O49	0.000000	0.511660	0.000000
O501	O50	0.000000	0.721360	0.000000
O511	O51	0.511660	0.000000	0.000000
O521	O52	0.721360	0.000000	0.000000
O531	O53	0.488340	0.488340	0.488340
O541	O54	0.278640	0.278640	0.278640
O551	O55	0.000000	0.000000	0.511660
O561	O56	0.000000	0.000000	0.721360
O571	O57	0.933520	0.611460	0.000000
O581	O58	0.611460	0.933520	0.000000
O591	O59	0.388540	0.388540	0.322060
O601	O60	0.066480	0.066480	0.677940
O611	O61	0.322060	0.388540	0.388540
O621	O62	0.677940	0.066480	0.066480
O631	O63	0.000000	0.933520	0.611460
O641	O64	0.000000	0.611460	0.933520
O651	O65	0.933520	0.000000	0.611460
O661	O66	0.611460	0.000000	0.933520
O671	O67	0.066480	0.677940	0.066480
O681	O68	0.388540	0.322060	0.388540
