data_LECGEH_clean_PM
_symmetry_space_group_name_H-M	'P1'
_cell_length_a	8.023100
_cell_length_b	9.530400
_cell_length_c	15.471400
_cell_angle_alpha	96.709000
_cell_angle_beta	103.637000
_cell_angle_gamma	99.063000
_symmetry_Int_Tables_number 1

loop_
_symmetry_equiv_pos_as_xyz
'x,y,z'

loop_
_atom_site_label
_atom_site_type_symbol
_atom_site_fract_x
_atom_site_fract_y
_atom_site_fract_z
Co11	Co1	0.000000	0.500000	0.000000
Co21	Co2	0.000000	0.000000	0.500000
H11	H1	0.445000	0.743900	0.833900
H21	H2	0.113100	0.466500	0.621200
H31	H3	0.524300	0.336400	0.777900
H41	H4	0.156500	0.719000	0.559400
H51	H5	0.238200	0.057000	0.888900
H61	H6	0.264300	0.040500	0.044000
H71	H7	0.171900	0.824400	0.084800
H81	H8	0.033700	0.629200	0.832700
H91	H9	0.555000	0.256100	0.166100
H101	H10	0.886900	0.533500	0.378800
H111	H11	0.475700	0.663600	0.222100
H121	H12	0.843500	0.281000	0.440600
H131	H13	0.761800	0.943000	0.111100
H141	H14	0.735700	0.959500	0.956000
H151	H15	0.828100	0.175600	0.915200
H161	H16	0.966300	0.370800	0.167300
C11	C1	0.659500	0.572200	0.903100
C21	C2	0.504800	0.543000	0.819800
C31	C3	0.411500	0.651000	0.798100
C41	C4	0.267700	0.620800	0.722900
C51	C5	0.214500	0.485900	0.670400
C61	C6	0.311100	0.378500	0.690400
C71	C7	0.456900	0.408400	0.764700
C81	C8	0.260700	0.233700	0.631500
C91	C9	0.138100	0.771500	0.611300
C101	C10	0.128200	0.839300	0.749100
C111	C11	0.138300	0.840900	0.845400
C121	C12	0.203900	0.967800	0.907500
C131	C13	0.217000	0.957700	0.999100
C141	C14	0.161400	0.828500	0.022700
C151	C15	0.081800	0.714100	0.875900
C161	C16	0.340500	0.427800	0.096900
C171	C17	0.495200	0.457000	0.180200
C181	C18	0.588500	0.349000	0.201900
C191	C19	0.732300	0.379200	0.277100
C201	C20	0.785500	0.514100	0.329600
C211	C21	0.688900	0.621500	0.309600
C221	C22	0.543100	0.591600	0.235300
C231	C23	0.739300	0.766300	0.368500
C241	C24	0.861900	0.228500	0.388700
C251	C25	0.871800	0.160700	0.250900
C261	C26	0.861700	0.159100	0.154600
C271	C27	0.796100	0.032200	0.092500
C281	C28	0.783000	0.042300	0.000900
C291	C29	0.838600	0.171500	0.977300
C301	C30	0.918200	0.285900	0.124100
N11	N1	0.177300	0.735400	0.696080
N21	N2	0.072100	0.887700	0.612040
N31	N3	0.064100	0.932500	0.699590
N41	N4	0.091900	0.705600	0.962900
N51	N5	0.822700	0.264600	0.303920
N61	N6	0.927900	0.112300	0.387960
N71	N7	0.935900	0.067500	0.300410
N81	N8	0.908100	0.294400	0.037100
O11	O1	0.673600	0.679600	0.961380
O21	O2	0.761500	0.481600	0.906820
O31	O3	0.377800	0.157900	0.632720
O41	O4	0.104700	0.197600	0.582590
O51	O5	0.326400	0.320400	0.038620
O61	O6	0.238500	0.518400	0.093180
O71	O7	0.622200	0.842100	0.367280
O81	O8	0.895300	0.802400	0.417410
