data_LECGIL_clean_PM
_symmetry_space_group_name_H-M	'P1'
_cell_length_a	15.325000
_cell_length_b	16.472000
_cell_length_c	17.072000
_cell_angle_alpha	70.144000
_cell_angle_beta	64.567000
_cell_angle_gamma	67.516000
_symmetry_Int_Tables_number 1

loop_
_symmetry_equiv_pos_as_xyz
'x,y,z'

loop_
_atom_site_label
_atom_site_type_symbol
_atom_site_fract_x
_atom_site_fract_y
_atom_site_fract_z
Cu11	Cu1	0.430810	0.315580	0.122370
Cu21	Cu2	0.141280	0.120450	0.333300
Cu31	Cu3	0.872950	0.069770	0.689960
Cu41	Cu4	0.789160	0.082100	0.916550
Cu51	Cu5	0.644140	0.307040	0.933710
Cu61	Cu6	0.569190	0.684420	0.877630
Cu71	Cu7	0.858720	0.879550	0.666700
Cu81	Cu8	0.127050	0.930230	0.310040
Cu91	Cu9	0.210840	0.917900	0.083450
Cu101	Cu10	0.355860	0.692960	0.066290
Cu111	Cu11	0.500000	0.500000	0.000000
Cu121	Cu12	0.000000	0.000000	0.000000
Cu131	Cu13	0.000000	0.000000	0.500000
H11	H1	0.997600	0.073600	0.348800
H21	H2	0.584200	0.357700	0.069900
H31	H3	0.403600	0.227200	0.335500
H41	H4	0.279500	0.136200	0.423600
H51	H5	0.071500	0.278000	0.450900
H61	H6	0.946900	0.262000	0.603200
H71	H7	0.264500	0.184800	0.122100
H81	H8	0.702900	0.904300	0.984800
H91	H9	0.165100	0.982300	0.808400
H101	H10	0.116200	0.020900	0.676500
H111	H11	0.810700	0.322100	0.016100
H121	H12	0.947500	0.185000	0.051800
H131	H13	0.716600	0.269300	0.630900
H141	H14	0.624900	0.373000	0.734800
H151	H15	0.598500	0.001400	0.073900
H161	H16	0.449300	0.099900	0.161700
H171	H17	0.237900	0.424300	0.277400
H181	H18	0.202200	0.589600	0.249000
H191	H19	0.002400	0.926400	0.651200
H201	H20	0.415800	0.642300	0.930100
H211	H21	0.596400	0.772800	0.664500
H221	H22	0.720500	0.863800	0.576400
H231	H23	0.928500	0.722000	0.549100
H241	H24	0.053100	0.738000	0.396800
H251	H25	0.735500	0.815200	0.877900
H261	H26	0.297100	0.095700	0.015200
H271	H27	0.834900	0.017700	0.191600
H281	H28	0.883800	0.979100	0.323500
H291	H29	0.189300	0.677900	0.983900
H301	H30	0.052500	0.815000	0.948200
H311	H31	0.283400	0.730700	0.369100
H321	H32	0.375100	0.627000	0.265200
H331	H33	0.401500	0.998600	0.926100
H341	H34	0.550700	0.900100	0.838300
H351	H35	0.762100	0.575700	0.722600
H361	H36	0.797800	0.410400	0.751000
C11	C1	0.358300	0.218900	0.316500
C21	C2	0.290300	0.170000	0.364400
C31	C3	0.042200	0.229500	0.481400
C41	C4	0.974000	0.221100	0.565000
C51	C5	0.249600	0.129600	0.135900
C61	C6	0.733300	0.919400	0.922200
C71	C7	0.098500	0.000800	0.807900
C81	C8	0.071300	0.022300	0.735700
C91	C9	0.825900	0.263400	0.007600
C101	C10	0.902100	0.188000	0.026000
C111	C11	0.716900	0.257200	0.689300
C121	C12	0.666600	0.313500	0.745800
C131	C13	0.584400	0.064700	0.064300
C141	C14	0.502800	0.118100	0.111800
C151	C15	0.273400	0.460900	0.226600
C161	C16	0.255100	0.551400	0.211300
C171	C17	0.641700	0.781100	0.683500
C181	C18	0.709700	0.830000	0.635600
C191	C19	0.957800	0.770500	0.518600
C201	C20	0.026000	0.778900	0.435000
C211	C21	0.750400	0.870400	0.864100
C221	C22	0.266700	0.080600	0.077800
C231	C23	0.901500	0.999200	0.192100
C241	C24	0.928700	0.977700	0.264300
C251	C25	0.174100	0.736600	0.992400
C261	C26	0.097900	0.812000	0.974000
C271	C27	0.283100	0.742800	0.310700
C281	C28	0.333400	0.686500	0.254200
C291	C29	0.415600	0.935300	0.935700
C301	C30	0.497200	0.881900	0.888200
C311	C31	0.726600	0.539100	0.773400
C321	C32	0.744900	0.448600	0.788700
N11	N1	0.242200	0.179200	0.311900
N21	N2	0.280300	0.228900	0.232300
N31	N3	0.347300	0.252900	0.236100
N41	N4	0.952000	0.142300	0.583300
N51	N5	0.004500	0.106800	0.511300
N61	N6	0.061400	0.159500	0.449300
N71	N7	0.207700	0.083800	0.215600
N81	N8	0.801500	0.988100	0.793400
N91	N9	0.766600	0.992600	0.876100
N101	N10	0.972600	0.045300	0.761400
N111	N11	0.938200	0.038200	0.848300
N121	N12	0.015300	0.010500	0.876700
N131	N13	0.899700	0.121300	0.001000
N141	N14	0.825700	0.150300	0.970000
N151	N15	0.778300	0.235500	0.975100
N161	N16	0.768400	0.179500	0.731000
N171	N17	0.747400	0.190200	0.810900
N181	N18	0.687100	0.268600	0.822100
N191	N19	0.643800	0.115000	0.000100
N201	N20	0.594400	0.198900	0.009900
N211	N21	0.510000	0.203600	0.076000
N221	N22	0.350200	0.433700	0.157100
N231	N23	0.379800	0.505000	0.101300
N241	N24	0.322400	0.577900	0.135700
N251	N25	0.757800	0.820800	0.688100
N261	N26	0.719700	0.771100	0.767700
N271	N27	0.652700	0.747100	0.763900
N281	N28	0.048000	0.857700	0.416700
N291	N29	0.995500	0.893200	0.488700
N301	N30	0.938600	0.840500	0.550700
N311	N31	0.792300	0.916200	0.784400
N321	N32	0.198500	0.011900	0.206600
N331	N33	0.233400	0.007400	0.123900
N341	N34	0.027400	0.954700	0.238600
N351	N35	0.061800	0.961800	0.151700
N361	N36	0.984700	0.989500	0.123300
N371	N37	0.100300	0.878700	0.999000
N381	N38	0.174300	0.849700	0.030000
N391	N39	0.221700	0.764500	0.024900
N401	N40	0.231600	0.820500	0.269000
N411	N41	0.252600	0.809800	0.189100
N421	N42	0.312900	0.731400	0.177900
N431	N43	0.356200	0.885000	0.999900
N441	N44	0.405600	0.801100	0.990100
N451	N45	0.490000	0.796400	0.924000
N461	N46	0.649800	0.566300	0.842900
N471	N47	0.620200	0.495000	0.898700
N481	N48	0.677600	0.422100	0.864300
O11	O1	0.056200	0.037900	0.369200
O21	O2	0.542900	0.367900	0.033500
O31	O3	0.943800	0.962100	0.630800
O41	O4	0.457100	0.632100	0.966500
