data_LEDCAA_clean_PM
_symmetry_space_group_name_H-M	'P1'
_cell_length_a	13.168000
_cell_length_b	24.390000
_cell_length_c	15.891000
_cell_angle_alpha	90.000000
_cell_angle_beta	90.000000
_cell_angle_gamma	90.000000
_symmetry_Int_Tables_number 1

loop_
_symmetry_equiv_pos_as_xyz
'x,y,z'

loop_
_atom_site_label
_atom_site_type_symbol
_atom_site_fract_x
_atom_site_fract_y
_atom_site_fract_z
Cd11	Cd1	0.898160	0.727540	0.986230
Cd21	Cd2	0.785990	0.475290	0.110540
Cd31	Cd3	0.601840	0.772460	0.486230
Cd41	Cd4	0.714010	0.024710	0.610540
Cd51	Cd5	0.898160	0.272460	0.513770
Cd61	Cd6	0.785990	0.524710	0.389460
Cd71	Cd7	0.601840	0.227540	0.013770
Cd81	Cd8	0.714010	0.975290	0.889460
Cd91	Cd9	0.101840	0.272460	0.013770
Cd101	Cd10	0.214010	0.524710	0.889460
Cd111	Cd11	0.398160	0.227540	0.513770
Cd121	Cd12	0.285990	0.975290	0.389460
Cd131	Cd13	0.101840	0.727540	0.486230
Cd141	Cd14	0.214010	0.475290	0.610540
Cd151	Cd15	0.398160	0.772460	0.986230
Cd161	Cd16	0.285990	0.024710	0.110540
H11	H1	0.901400	0.753300	0.773600
H21	H2	0.618400	0.703000	0.998100
H31	H3	0.882200	0.074700	0.834400
H41	H4	0.888000	0.645400	0.318000
H51	H5	0.051700	0.095000	0.833500
H61	H6	0.106700	0.941500	0.914000
H71	H7	0.168200	0.026800	0.872700
H81	H8	0.800000	0.575100	0.768700
H91	H9	0.861200	0.714100	0.647500
H101	H10	0.817600	0.622800	0.643000
H111	H11	0.598600	0.746700	0.273600
H121	H12	0.881600	0.797000	0.498100
H131	H13	0.617800	0.425300	0.334400
H141	H14	0.612000	0.854600	0.818000
H151	H15	0.448300	0.405000	0.333500
H161	H16	0.393300	0.558500	0.414000
H171	H17	0.331800	0.473200	0.372700
H181	H18	0.700000	0.924900	0.268700
H191	H19	0.638800	0.785900	0.147500
H201	H20	0.682400	0.877200	0.143000
H211	H21	0.901400	0.246700	0.726400
H221	H22	0.618400	0.297000	0.501900
H231	H23	0.882200	0.925300	0.665600
H241	H24	0.888000	0.354600	0.182000
H251	H25	0.051700	0.905000	0.666500
H261	H26	0.106700	0.058500	0.586000
H271	H27	0.168200	0.973200	0.627300
H281	H28	0.800000	0.424900	0.731300
H291	H29	0.861200	0.285900	0.852500
H301	H30	0.817600	0.377200	0.857000
H311	H31	0.598600	0.253300	0.226400
H321	H32	0.881600	0.203000	0.001900
H331	H33	0.617800	0.574700	0.165600
H341	H34	0.612000	0.145400	0.682000
H351	H35	0.448300	0.595000	0.166500
H361	H36	0.393300	0.441500	0.086000
H371	H37	0.331800	0.526800	0.127300
H381	H38	0.700000	0.075100	0.231300
H391	H39	0.638800	0.214100	0.352500
H401	H40	0.682400	0.122800	0.357000
H411	H41	0.098600	0.246700	0.226400
H421	H42	0.381600	0.297000	0.001900
H431	H43	0.117800	0.925300	0.165600
H441	H44	0.112000	0.354600	0.682000
H451	H45	0.948300	0.905000	0.166500
H461	H46	0.893300	0.058500	0.086000
H471	H47	0.831800	0.973200	0.127300
H481	H48	0.200000	0.424900	0.231300
H491	H49	0.138800	0.285900	0.352500
H501	H50	0.182400	0.377200	0.357000
H511	H51	0.401400	0.253300	0.726400
H521	H52	0.118400	0.203000	0.501900
H531	H53	0.382200	0.574700	0.665600
H541	H54	0.388000	0.145400	0.182000
H551	H55	0.551700	0.595000	0.666500
H561	H56	0.606700	0.441500	0.586000
H571	H57	0.668200	0.526800	0.627300
H581	H58	0.300000	0.075100	0.731300
H591	H59	0.361200	0.214100	0.852500
H601	H60	0.317600	0.122800	0.857000
H611	H61	0.098600	0.753300	0.273600
H621	H62	0.381600	0.703000	0.498100
H631	H63	0.117800	0.074700	0.334400
H641	H64	0.112000	0.645400	0.818000
H651	H65	0.948300	0.095000	0.333500
H661	H66	0.893300	0.941500	0.414000
H671	H67	0.831800	0.026800	0.372700
H681	H68	0.200000	0.575100	0.268700
H691	H69	0.138800	0.714100	0.147500
H701	H70	0.182400	0.622800	0.143000
H711	H71	0.401400	0.746700	0.773600
H721	H72	0.118400	0.797000	0.998100
H731	H73	0.382200	0.425300	0.834400
H741	H74	0.388000	0.854600	0.318000
H751	H75	0.551700	0.405000	0.833500
H761	H76	0.606700	0.558500	0.914000
H771	H77	0.668200	0.473200	0.872700
H781	H78	0.300000	0.924900	0.768700
H791	H79	0.361200	0.785900	0.647500
H801	H80	0.317600	0.877200	0.643000
C11	C1	0.879900	0.717000	0.772700
C21	C2	0.718900	0.812190	0.969400
C31	C3	0.846000	0.599820	0.147000
C41	C4	0.837800	0.596070	0.056000
C51	C5	0.834900	0.609780	0.925500
C61	C6	0.843300	0.637800	0.843200
C71	C7	0.635800	0.739500	0.989200
C81	C8	0.957700	0.960200	0.896600
C91	C9	0.808500	0.846340	0.953200
C101	C10	0.913500	0.906880	0.921700
C111	C11	0.927800	0.047700	0.850900
C121	C12	0.870700	0.624600	0.271100
C131	C13	0.029600	0.060400	0.849700
C141	C14	0.062400	0.969100	0.897500
C151	C15	0.098800	0.019800	0.873200
C161	C16	0.820900	0.611500	0.768700
C171	C17	0.857600	0.693600	0.696700
C181	C18	0.830100	0.640000	0.694200
C191	C19	0.620100	0.783000	0.272700
C201	C20	0.781100	0.687810	0.469400
C211	C21	0.654000	0.900180	0.647000
C221	C22	0.662200	0.903930	0.556000
C231	C23	0.665100	0.890220	0.425500
C241	C24	0.656700	0.862200	0.343200
C251	C25	0.864200	0.760500	0.489200
C261	C26	0.542300	0.539800	0.396600
C271	C27	0.691500	0.653660	0.453200
C281	C28	0.586500	0.593120	0.421700
C291	C29	0.572200	0.452300	0.350900
C301	C30	0.629300	0.875400	0.771100
C311	C31	0.470400	0.439600	0.349700
C321	C32	0.437600	0.530900	0.397500
C331	C33	0.401200	0.480200	0.373200
C341	C34	0.679100	0.888500	0.268700
C351	C35	0.642400	0.806400	0.196700
C361	C36	0.669900	0.860000	0.194200
C371	C37	0.879900	0.283000	0.727300
C381	C38	0.718900	0.187810	0.530600
C391	C39	0.846000	0.400180	0.353000
C401	C40	0.837800	0.403930	0.444000
C411	C41	0.834900	0.390220	0.574500
C421	C42	0.843300	0.362200	0.656800
C431	C43	0.635800	0.260500	0.510800
C441	C44	0.957700	0.039800	0.603400
C451	C45	0.808500	0.153660	0.546800
C461	C46	0.913500	0.093120	0.578300
C471	C47	0.927800	0.952300	0.649100
C481	C48	0.870700	0.375400	0.228900
C491	C49	0.029600	0.939600	0.650300
C501	C50	0.062400	0.030900	0.602500
C511	C51	0.098800	0.980200	0.626800
C521	C52	0.820900	0.388500	0.731300
C531	C53	0.857600	0.306400	0.803300
C541	C54	0.830100	0.360000	0.805800
C551	C55	0.620100	0.217000	0.227300
C561	C56	0.781100	0.312190	0.030600
C571	C57	0.654000	0.099820	0.853000
C581	C58	0.662200	0.096070	0.944000
C591	C59	0.665100	0.109780	0.074500
C601	C60	0.656700	0.137800	0.156800
C611	C61	0.864200	0.239500	0.010800
C621	C62	0.542300	0.460200	0.103400
C631	C63	0.691500	0.346340	0.046800
C641	C64	0.586500	0.406880	0.078300
C651	C65	0.572200	0.547700	0.149100
C661	C66	0.629300	0.124600	0.728900
C671	C67	0.470400	0.560400	0.150300
C681	C68	0.437600	0.469100	0.102500
C691	C69	0.401200	0.519800	0.126800
C701	C70	0.679100	0.111500	0.231300
C711	C71	0.642400	0.193600	0.303300
C721	C72	0.669900	0.140000	0.305800
C731	C73	0.120100	0.283000	0.227300
C741	C74	0.281100	0.187810	0.030600
C751	C75	0.154000	0.400180	0.853000
C761	C76	0.162200	0.403930	0.944000
C771	C77	0.165100	0.390220	0.074500
C781	C78	0.156700	0.362200	0.156800
C791	C79	0.364200	0.260500	0.010800
C801	C80	0.042300	0.039800	0.103400
C811	C81	0.191500	0.153660	0.046800
C821	C82	0.086500	0.093120	0.078300
C831	C83	0.072200	0.952300	0.149100
C841	C84	0.129300	0.375400	0.728900
C851	C85	0.970400	0.939600	0.150300
C861	C86	0.937600	0.030900	0.102500
C871	C87	0.901200	0.980200	0.126800
C881	C88	0.179100	0.388500	0.231300
C891	C89	0.142400	0.306400	0.303300
C901	C90	0.169900	0.360000	0.305800
C911	C91	0.379900	0.217000	0.727300
C921	C92	0.218900	0.312190	0.530600
C931	C93	0.346000	0.099820	0.353000
C941	C94	0.337800	0.096070	0.444000
C951	C95	0.334900	0.109780	0.574500
C961	C96	0.343300	0.137800	0.656800
C971	C97	0.135800	0.239500	0.510800
C981	C98	0.457700	0.460200	0.603400
C991	C99	0.308500	0.346340	0.546800
C1001	C100	0.413500	0.406880	0.578300
C1011	C101	0.427800	0.547700	0.649100
C1021	C102	0.370700	0.124600	0.228900
C1031	C103	0.529600	0.560400	0.650300
C1041	C104	0.562400	0.469100	0.602500
C1051	C105	0.598800	0.519800	0.626800
C1061	C106	0.320900	0.111500	0.731300
C1071	C107	0.357600	0.193600	0.803300
C1081	C108	0.330100	0.140000	0.805800
C1091	C109	0.120100	0.717000	0.272700
C1101	C110	0.281100	0.812190	0.469400
C1111	C111	0.154000	0.599820	0.647000
C1121	C112	0.162200	0.596070	0.556000
C1131	C113	0.165100	0.609780	0.425500
C1141	C114	0.156700	0.637800	0.343200
C1151	C115	0.364200	0.739500	0.489200
C1161	C116	0.042300	0.960200	0.396600
C1171	C117	0.191500	0.846340	0.453200
C1181	C118	0.086500	0.906880	0.421700
C1191	C119	0.072200	0.047700	0.350900
C1201	C120	0.129300	0.624600	0.771100
C1211	C121	0.970400	0.060400	0.349700
C1221	C122	0.937600	0.969100	0.397500
C1231	C123	0.901200	0.019800	0.373200
C1241	C124	0.179100	0.611500	0.268700
C1251	C125	0.142400	0.693600	0.196700
C1261	C126	0.169900	0.640000	0.194200
C1271	C127	0.379900	0.783000	0.772700
C1281	C128	0.218900	0.687810	0.969400
C1291	C129	0.346000	0.900180	0.147000
C1301	C130	0.337800	0.903930	0.056000
C1311	C131	0.334900	0.890220	0.925500
C1321	C132	0.343300	0.862200	0.843200
C1331	C133	0.135800	0.760500	0.989200
C1341	C134	0.457700	0.539800	0.896600
C1351	C135	0.308500	0.653660	0.953200
C1361	C136	0.413500	0.593120	0.921700
C1371	C137	0.427800	0.452300	0.850900
C1381	C138	0.370700	0.875400	0.271100
C1391	C139	0.529600	0.439600	0.849700
C1401	C140	0.562400	0.530900	0.897500
C1411	C141	0.598800	0.480200	0.873200
C1421	C142	0.320900	0.888500	0.768700
C1431	C143	0.357600	0.806400	0.696700
C1441	C144	0.330100	0.860000	0.694200
N11	N1	0.732000	0.757300	0.981900
N21	N2	0.810000	0.557670	0.935200
N31	N3	0.811600	0.548660	0.020400
N41	N4	0.852900	0.636180	0.999400
N51	N5	0.872200	0.690070	0.846300
N61	N6	0.567600	0.779940	0.982300
N71	N7	0.622100	0.827260	0.969900
N81	N8	0.899700	0.821750	0.951400
N91	N9	0.839800	0.573080	0.275700
N101	N10	0.812600	0.899850	0.934400
N111	N11	0.826100	0.556620	0.194000
N121	N12	0.890000	0.999010	0.874400
N131	N13	0.968800	0.861780	0.931300
N141	N14	0.874700	0.644090	0.191500
N151	N15	0.768000	0.742700	0.481900
N161	N16	0.690000	0.942330	0.435200
N171	N17	0.688400	0.951340	0.520400
N181	N18	0.647100	0.863820	0.499400
N191	N19	0.627800	0.809930	0.346300
N201	N20	0.932400	0.720060	0.482300
N211	N21	0.877900	0.672740	0.469900
N221	N22	0.600300	0.678250	0.451400
N231	N23	0.660200	0.926920	0.775700
N241	N24	0.687400	0.600150	0.434400
N251	N25	0.673900	0.943380	0.694000
N261	N26	0.610000	0.500990	0.374400
N271	N27	0.531200	0.638220	0.431300
N281	N28	0.625300	0.855910	0.691500
N291	N29	0.732000	0.242700	0.518100
N301	N30	0.810000	0.442330	0.564800
N311	N31	0.811600	0.451340	0.479600
N321	N32	0.852900	0.363820	0.500600
N331	N33	0.872200	0.309930	0.653700
N341	N34	0.567600	0.220060	0.517700
N351	N35	0.622100	0.172740	0.530100
N361	N36	0.899700	0.178250	0.548600
N371	N37	0.839800	0.426920	0.224300
N381	N38	0.812600	0.100150	0.565600
N391	N39	0.826100	0.443380	0.306000
N401	N40	0.890000	0.000990	0.625600
N411	N41	0.968800	0.138220	0.568700
N421	N42	0.874700	0.355910	0.308500
N431	N43	0.768000	0.257300	0.018100
N441	N44	0.690000	0.057670	0.064800
N451	N45	0.688400	0.048660	0.979600
N461	N46	0.647100	0.136180	0.000600
N471	N47	0.627800	0.190070	0.153700
N481	N48	0.932400	0.279940	0.017700
N491	N49	0.877900	0.327260	0.030100
N501	N50	0.600300	0.321750	0.048600
N511	N51	0.660200	0.073080	0.724300
N521	N52	0.687400	0.399850	0.065600
N531	N53	0.673900	0.056620	0.806000
N541	N54	0.610000	0.499010	0.125600
N551	N55	0.531200	0.361780	0.068700
N561	N56	0.625300	0.144090	0.808500
N571	N57	0.268000	0.242700	0.018100
N581	N58	0.190000	0.442330	0.064800
N591	N59	0.188400	0.451340	0.979600
N601	N60	0.147100	0.363820	0.000600
N611	N61	0.127800	0.309930	0.153700
N621	N62	0.432400	0.220060	0.017700
N631	N63	0.377900	0.172740	0.030100
N641	N64	0.100300	0.178250	0.048600
N651	N65	0.160200	0.426920	0.724300
N661	N66	0.187400	0.100150	0.065600
N671	N67	0.173900	0.443380	0.806000
N681	N68	0.110000	0.000990	0.125600
N691	N69	0.031200	0.138220	0.068700
N701	N70	0.125300	0.355910	0.808500
N711	N71	0.232000	0.257300	0.518100
N721	N72	0.310000	0.057670	0.564800
N731	N73	0.311600	0.048660	0.479600
N741	N74	0.352900	0.136180	0.500600
N751	N75	0.372200	0.190070	0.653700
N761	N76	0.067600	0.279940	0.517700
N771	N77	0.122100	0.327260	0.530100
N781	N78	0.399700	0.321750	0.548600
N791	N79	0.339800	0.073080	0.224300
N801	N80	0.312600	0.399850	0.565600
N811	N81	0.326100	0.056620	0.306000
N821	N82	0.390000	0.499010	0.625600
N831	N83	0.468800	0.361780	0.568700
N841	N84	0.374700	0.144090	0.308500
N851	N85	0.268000	0.757300	0.481900
N861	N86	0.190000	0.557670	0.435200
N871	N87	0.188400	0.548660	0.520400
N881	N88	0.147100	0.636180	0.499400
N891	N89	0.127800	0.690070	0.346300
N901	N90	0.432400	0.779940	0.482300
N911	N91	0.377900	0.827260	0.469900
N921	N92	0.100300	0.821750	0.451400
N931	N93	0.160200	0.573080	0.775700
N941	N94	0.187400	0.899850	0.434400
N951	N95	0.173900	0.556620	0.694000
N961	N96	0.110000	0.999010	0.374400
N971	N97	0.031200	0.861780	0.431300
N981	N98	0.125300	0.644090	0.691500
N991	N99	0.232000	0.742700	0.981900
N1001	N100	0.310000	0.942330	0.935200
N1011	N101	0.311600	0.951340	0.020400
N1021	N102	0.352900	0.863820	0.999400
N1031	N103	0.372200	0.809930	0.846300
N1041	N104	0.067600	0.720060	0.982300
N1051	N105	0.122100	0.672740	0.969900
N1061	N106	0.399700	0.678250	0.951400
N1071	N107	0.339800	0.926920	0.275700
N1081	N108	0.312600	0.600150	0.934400
N1091	N109	0.326100	0.943380	0.194000
N1101	N110	0.390000	0.500990	0.874400
N1111	N111	0.468800	0.638220	0.931300
N1121	N112	0.374700	0.855910	0.191500
