data_LEDHIN_clean_PM
_symmetry_space_group_name_H-M	'P1'
_cell_length_a	8.715900
_cell_length_b	10.973700
_cell_length_c	12.323000
_cell_angle_alpha	68.448000
_cell_angle_beta	86.196000
_cell_angle_gamma	79.605000
_symmetry_Int_Tables_number 1

loop_
_symmetry_equiv_pos_as_xyz
'x,y,z'

loop_
_atom_site_label
_atom_site_type_symbol
_atom_site_fract_x
_atom_site_fract_y
_atom_site_fract_z
Dy11	Dy1	0.712890	0.979400	0.444080
Dy21	Dy2	0.287110	0.020600	0.555920
H11	H1	0.218300	0.627200	0.762100
H21	H2	0.002500	0.313600	0.841200
H31	H3	0.866100	0.639400	0.561100
H41	H4	0.952600	0.226500	0.686800
H51	H5	0.782300	0.114900	0.641000
H61	H6	0.433400	0.418000	0.616500
H71	H7	0.606900	0.533900	0.653700
H81	H8	0.008900	0.331400	0.025000
H91	H9	0.121600	0.215300	0.205200
H101	H10	0.534100	0.311900	0.072500
H111	H11	0.419700	0.431400	0.892600
H121	H12	0.781700	0.372800	0.237900
H131	H13	0.997500	0.686400	0.158800
H141	H14	0.133900	0.360600	0.438900
H151	H15	0.047400	0.773500	0.313200
H161	H16	0.217700	0.885100	0.359000
H171	H17	0.566600	0.582000	0.383500
H181	H18	0.393100	0.466100	0.346300
H191	H19	0.991100	0.668600	0.975000
H201	H20	0.878400	0.784700	0.794800
H211	H21	0.465900	0.688100	0.927500
H221	H22	0.580300	0.568600	0.107400
C11	C1	0.056400	0.795400	0.577000
C21	C2	0.044700	0.654200	0.650000
C31	C3	0.140700	0.587200	0.747400
C41	C4	0.120900	0.460400	0.822800
C51	C5	0.011700	0.400300	0.793900
C61	C6	0.915000	0.464300	0.696700
C71	C7	0.931200	0.593600	0.625300
C81	C8	0.800200	0.393900	0.672400
C91	C9	0.849100	0.266700	0.670000
C101	C10	0.746900	0.199200	0.643100
C111	C11	0.591500	0.256900	0.619200
C121	C12	0.538600	0.381100	0.627300
C131	C13	0.642400	0.449700	0.651400
C141	C14	0.484300	0.187900	0.581900
C151	C15	0.201700	0.391800	0.937500
C161	C16	0.115000	0.327500	0.033900
C171	C17	0.182400	0.257800	0.142500
C181	C18	0.339600	0.251100	0.158300
C191	C19	0.428100	0.316000	0.063200
C201	C20	0.359600	0.386700	0.954700
C211	C21	0.407900	0.172600	0.279000
C221	C22	0.943600	0.204600	0.423000
C231	C23	0.955300	0.345800	0.350000
C241	C24	0.859300	0.412800	0.252600
C251	C25	0.879100	0.539600	0.177200
C261	C26	0.988300	0.599700	0.206100
C271	C27	0.085000	0.535700	0.303300
C281	C28	0.068800	0.406400	0.374700
C291	C29	0.199800	0.606100	0.327600
C301	C30	0.150900	0.733300	0.330000
C311	C31	0.253100	0.800800	0.356900
C321	C32	0.408500	0.743100	0.380800
C331	C33	0.461400	0.618900	0.372700
C341	C34	0.357600	0.550300	0.348600
C351	C35	0.515700	0.812100	0.418100
C361	C36	0.798300	0.608200	0.062500
C371	C37	0.885000	0.672500	0.966100
C381	C38	0.817600	0.742200	0.857500
C391	C39	0.660400	0.748900	0.841700
C401	C40	0.571900	0.684000	0.936800
C411	C41	0.640400	0.613300	0.045300
C421	C42	0.592100	0.827400	0.721000
O11	O1	0.954800	0.860600	0.500200
O21	O2	0.169500	0.839600	0.596200
O31	O3	0.340100	0.213900	0.592400
O41	O4	0.542300	0.099400	0.540600
O51	O5	0.311200	0.153200	0.360600
O61	O6	0.552100	0.134300	0.287100
O71	O7	0.045200	0.139400	0.499800
O81	O8	0.830500	0.160400	0.403800
O91	O9	0.659900	0.786100	0.407600
O101	O10	0.457700	0.900600	0.459400
O111	O11	0.688800	0.846800	0.639400
O121	O12	0.447900	0.865700	0.712900
