data_LEGGOU_clean_PM
_symmetry_space_group_name_H-M	'P1'
_cell_length_a	10.192000
_cell_length_b	17.764000
_cell_length_c	24.437000
_cell_angle_alpha	90.000000
_cell_angle_beta	91.190000
_cell_angle_gamma	90.000000
_symmetry_Int_Tables_number 1

loop_
_symmetry_equiv_pos_as_xyz
'x,y,z'

loop_
_atom_site_label
_atom_site_type_symbol
_atom_site_fract_x
_atom_site_fract_y
_atom_site_fract_z
Zn11	Zn1	0.388110	0.602630	0.961900
Zn21	Zn2	0.887470	0.562540	0.833310
Zn31	Zn3	0.869340	0.755420	0.871820
Zn41	Zn4	0.351370	0.898050	0.774750
Zn51	Zn5	0.854680	0.950710	0.904700
Zn61	Zn6	0.888110	0.897370	0.461900
Zn71	Zn7	0.387470	0.937460	0.333310
Zn81	Zn8	0.369340	0.744580	0.371820
Zn91	Zn9	0.851370	0.601950	0.274750
Zn101	Zn10	0.354680	0.549290	0.404700
H11	H1	0.172500	0.528900	0.888900
H21	H2	0.160900	0.733500	0.944200
H31	H3	0.146200	0.777200	0.809400
H41	H4	0.141800	0.988300	0.850600
H51	H5	0.592400	0.725900	0.932200
H61	H6	0.602100	0.518300	0.884500
H71	H7	0.573800	0.771700	0.802800
H81	H8	0.573300	0.982800	0.841000
H91	H9	0.468000	0.892800	0.154000
H101	H10	0.445800	0.692200	0.228000
H111	H11	0.451800	0.633200	0.143800
H121	H12	0.467300	0.833200	0.069300
H131	H13	0.785000	0.704100	0.015500
H141	H14	0.799000	0.909100	0.084800
H151	H15	0.793500	0.853400	0.169900
H161	H16	0.779900	0.649400	0.101300
H171	H17	0.867000	0.325400	0.793800
H181	H18	0.900700	0.318900	0.957600
H191	H19	0.860800	0.196000	0.791200
H201	H20	0.887600	0.189500	0.955000
H211	H21	0.672500	0.971100	0.388900
H221	H22	0.660900	0.766500	0.444200
H231	H23	0.646200	0.722800	0.309400
H241	H24	0.641800	0.511700	0.350600
H251	H25	0.092400	0.774100	0.432200
H261	H26	0.102100	0.981700	0.384500
H271	H27	0.073800	0.728300	0.302800
H281	H28	0.073300	0.517200	0.341000
H291	H29	0.968000	0.607200	0.654000
H301	H30	0.945800	0.807800	0.728000
H311	H31	0.951800	0.866800	0.643800
H321	H32	0.967300	0.666800	0.569300
H331	H33	0.285000	0.795900	0.515500
H341	H34	0.299000	0.590900	0.584800
H351	H35	0.293500	0.646600	0.669900
H361	H36	0.279900	0.850600	0.601300
H371	H37	0.367000	0.174600	0.293800
H381	H38	0.400700	0.181100	0.457600
H391	H39	0.360800	0.304000	0.291200
H401	H40	0.387600	0.310500	0.455000
C11	C1	0.145500	0.577800	0.896300
C21	C2	0.139000	0.689000	0.926200
C31	C3	0.121200	0.823300	0.824000
C41	C4	0.118500	0.938000	0.846700
C51	C5	0.618400	0.681200	0.915950
C61	C6	0.623600	0.568600	0.890100
C71	C7	0.599000	0.818400	0.816560
C81	C8	0.598100	0.932700	0.837300
C91	C9	0.422600	0.835600	0.252920
C101	C10	0.449300	0.798700	0.199090
C111	C11	0.460500	0.840700	0.151940
C121	C12	0.448100	0.720700	0.196100
C131	C13	0.450400	0.685500	0.145700
C141	C14	0.460600	0.805000	0.101200
C151	C15	0.450600	0.727000	0.098400
C161	C16	0.431800	0.689500	0.043600
C171	C17	0.822500	0.844300	0.985580
C181	C18	0.798400	0.811800	0.041470
C191	C19	0.789300	0.734200	0.046700
C201	C20	0.797600	0.856900	0.087900
C211	C21	0.794800	0.823200	0.138900
C221	C22	0.786600	0.701400	0.098100
C231	C23	0.793900	0.746000	0.144900
C241	C24	0.810700	0.708800	0.200300
C251	C25	0.899100	0.419600	0.877400
C261	C26	0.888000	0.336000	0.875960
C271	C27	0.873100	0.298100	0.826200
C281	C28	0.892400	0.294400	0.924100
C291	C29	0.867400	0.220700	0.824700
C301	C30	0.871600	0.179500	0.872900
C311	C31	0.884400	0.216900	0.922500
C321	C32	0.864000	0.094900	0.869800
C331	C33	0.645500	0.922200	0.396300
C341	C34	0.639000	0.811000	0.426200
C351	C35	0.621200	0.676700	0.324000
C361	C36	0.618500	0.562000	0.346700
C371	C37	0.118400	0.818800	0.415950
C381	C38	0.123600	0.931400	0.390100
C391	C39	0.099000	0.681600	0.316560
C401	C40	0.098100	0.567300	0.337300
C411	C41	0.922600	0.664400	0.752920
C421	C42	0.949300	0.701300	0.699090
C431	C43	0.960500	0.659300	0.651940
C441	C44	0.948100	0.779300	0.696100
C451	C45	0.950400	0.814500	0.645700
C461	C46	0.960600	0.695000	0.601200
C471	C47	0.950600	0.773000	0.598400
C481	C48	0.931800	0.810500	0.543600
C491	C49	0.322500	0.655700	0.485580
C501	C50	0.298400	0.688200	0.541470
C511	C51	0.289300	0.765800	0.546700
C521	C52	0.297600	0.643100	0.587900
C531	C53	0.294800	0.676800	0.638900
C541	C54	0.286600	0.798600	0.598100
C551	C55	0.293900	0.754000	0.644900
C561	C56	0.310700	0.791200	0.700300
C571	C57	0.399100	0.080400	0.377400
C581	C58	0.388000	0.164000	0.375960
C591	C59	0.373100	0.201900	0.326200
C601	C60	0.392400	0.205600	0.424100
C611	C61	0.367400	0.279300	0.324700
C621	C62	0.371600	0.320500	0.372900
C631	C63	0.384400	0.283100	0.422500
C641	C64	0.364000	0.405100	0.369800
N11	N1	0.035300	0.607000	0.877750
N21	N2	0.030300	0.679500	0.896920
N31	N3	0.215100	0.626800	0.927220
N41	N4	0.013100	0.833800	0.851990
N51	N5	0.012200	0.908500	0.867180
N61	N6	0.190400	0.887100	0.819120
N71	N7	0.728400	0.601000	0.870400
N81	N8	0.725000	0.674500	0.887360
N91	N9	0.550800	0.616700	0.919390
N101	N10	0.709100	0.830000	0.843990
N111	N11	0.708100	0.904500	0.858060
N121	N12	0.526200	0.881000	0.810390
N131	N13	0.535300	0.893000	0.377750
N141	N14	0.530300	0.820500	0.396920
N151	N15	0.715100	0.873200	0.427220
N161	N16	0.513100	0.666200	0.351990
N171	N17	0.512200	0.591500	0.367180
N181	N18	0.690400	0.612900	0.319120
N191	N19	0.228400	0.899000	0.370400
N201	N20	0.225000	0.825500	0.387360
N211	N21	0.050800	0.883300	0.419390
N221	N22	0.209100	0.670000	0.343990
N231	N23	0.208100	0.595500	0.358060
N241	N24	0.026200	0.619000	0.310390
O11	O1	0.431200	0.907210	0.257010
O21	O2	0.386800	0.795960	0.291570
O31	O3	0.411300	0.727200	0.001740
O41	O4	0.431300	0.616500	0.041970
O51	O5	0.851000	0.800200	0.948970
O61	O6	0.817400	0.915100	0.979500
O71	O7	0.811400	0.636900	0.200330
O81	O8	0.828100	0.746800	0.242100
O91	O9	0.875600	0.453500	0.831440
O101	O10	0.929000	0.452260	0.920380
O111	O11	0.853500	0.059620	0.914570
O121	O12	0.872200	0.063200	0.825500
O131	O13	0.931200	0.592790	0.757010
O141	O14	0.886800	0.704040	0.791570
O151	O15	0.911300	0.772800	0.501740
O161	O16	0.931300	0.883500	0.541970
O171	O17	0.351000	0.699800	0.448970
O181	O18	0.317400	0.584900	0.479500
O191	O19	0.311400	0.863100	0.700330
O201	O20	0.328100	0.753200	0.742100
O211	O21	0.375600	0.046500	0.331440
O221	O22	0.429000	0.047740	0.420380
O231	O23	0.353500	0.440380	0.414570
O241	O24	0.372200	0.436800	0.325500
Zn111	Zn11	0.111890	0.102630	0.538100
Zn121	Zn12	0.612530	0.062540	0.666690
Zn131	Zn13	0.630660	0.255420	0.628180
Zn141	Zn14	0.148630	0.398050	0.725250
Zn151	Zn15	0.645320	0.450710	0.595300
Zn161	Zn16	0.611890	0.397370	0.038100
Zn171	Zn17	0.112530	0.437460	0.166690
Zn181	Zn18	0.130660	0.244580	0.128180
Zn191	Zn19	0.648630	0.101950	0.225250
Zn201	Zn20	0.145320	0.049290	0.095300
H411	H41	0.327500	0.028900	0.611100
H421	H42	0.339100	0.233500	0.555800
H431	H43	0.353800	0.277200	0.690600
H441	H44	0.358200	0.488300	0.649400
H451	H45	0.907600	0.225900	0.567800
H461	H46	0.897900	0.018300	0.615500
H471	H47	0.926200	0.271700	0.697200
H481	H48	0.926700	0.482800	0.659000
H491	H49	0.032000	0.392800	0.346000
H501	H50	0.054200	0.192200	0.272000
H511	H51	0.048200	0.133200	0.356200
H521	H52	0.032700	0.333200	0.430700
H531	H53	0.715000	0.204100	0.484500
H541	H54	0.701000	0.409100	0.415200
H551	H55	0.706500	0.353400	0.330100
H561	H56	0.720100	0.149400	0.398700
H571	H57	0.633000	0.825400	0.706200
H581	H58	0.599300	0.818900	0.542400
H591	H59	0.639200	0.696000	0.708800
H601	H60	0.612400	0.689500	0.545000
H611	H61	0.827500	0.471100	0.111100
H621	H62	0.839100	0.266500	0.055800
H631	H63	0.853800	0.222800	0.190600
H641	H64	0.858200	0.011700	0.149400
H651	H65	0.407600	0.274100	0.067800
H661	H66	0.397900	0.481700	0.115500
H671	H67	0.426200	0.228300	0.197200
H681	H68	0.426700	0.017200	0.159000
H691	H69	0.532000	0.107200	0.846000
H701	H70	0.554200	0.307800	0.772000
H711	H71	0.548200	0.366800	0.856200
H721	H72	0.532700	0.166800	0.930700
H731	H73	0.215000	0.295900	0.984500
H741	H74	0.201000	0.090900	0.915200
H751	H75	0.206500	0.146600	0.830100
H761	H76	0.220100	0.350600	0.898700
H771	H77	0.133000	0.674600	0.206200
H781	H78	0.099300	0.681100	0.042400
H791	H79	0.139200	0.804000	0.208800
H801	H80	0.112400	0.810500	0.045000
C651	C65	0.354500	0.077800	0.603700
C661	C66	0.361000	0.189000	0.573800
C671	C67	0.378800	0.323300	0.676000
C681	C68	0.381500	0.438000	0.653300
C691	C69	0.881600	0.181200	0.584050
C701	C70	0.876400	0.068600	0.609900
C711	C71	0.901000	0.318400	0.683440
C721	C72	0.901900	0.432700	0.662700
C731	C73	0.077400	0.335600	0.247080
C741	C74	0.050700	0.298700	0.300910
C751	C75	0.039500	0.340700	0.348060
C761	C76	0.051900	0.220700	0.303900
C771	C77	0.049600	0.185500	0.354300
C781	C78	0.039400	0.305000	0.398800
C791	C79	0.049400	0.227000	0.401600
C801	C80	0.068200	0.189500	0.456400
C811	C81	0.677500	0.344300	0.514420
C821	C82	0.701600	0.311800	0.458530
C831	C83	0.710700	0.234200	0.453300
C841	C84	0.702400	0.356900	0.412100
C851	C85	0.705200	0.323200	0.361100
C861	C86	0.713400	0.201400	0.401900
C871	C87	0.706100	0.246000	0.355100
C881	C88	0.689300	0.208800	0.299700
C891	C89	0.600900	0.919600	0.622600
C901	C90	0.612000	0.836000	0.624040
C911	C91	0.626900	0.798100	0.673800
C921	C92	0.607600	0.794400	0.575900
C931	C93	0.632600	0.720700	0.675300
C941	C94	0.628400	0.679500	0.627100
C951	C95	0.615600	0.716900	0.577500
C961	C96	0.636000	0.594900	0.630200
C971	C97	0.854500	0.422200	0.103700
C981	C98	0.861000	0.311000	0.073800
C991	C99	0.878800	0.176700	0.176000
C1001	C100	0.881500	0.062000	0.153300
C1011	C101	0.381600	0.318800	0.084050
C1021	C102	0.376400	0.431400	0.109900
C1031	C103	0.401000	0.181600	0.183440
C1041	C104	0.401900	0.067300	0.162700
C1051	C105	0.577400	0.164400	0.747080
C1061	C106	0.550700	0.201300	0.800910
C1071	C107	0.539500	0.159300	0.848060
C1081	C108	0.551900	0.279300	0.803900
C1091	C109	0.549600	0.314500	0.854300
C1101	C110	0.539400	0.195000	0.898800
C1111	C111	0.549400	0.273000	0.901600
C1121	C112	0.568200	0.310500	0.956400
C1131	C113	0.177500	0.155700	0.014420
C1141	C114	0.201600	0.188200	0.958530
C1151	C115	0.210700	0.265800	0.953300
C1161	C116	0.202400	0.143100	0.912100
C1171	C117	0.205200	0.176800	0.861100
C1181	C118	0.213400	0.298600	0.901900
C1191	C119	0.206100	0.254000	0.855100
C1201	C120	0.189300	0.291200	0.799700
C1211	C121	0.100900	0.580400	0.122600
C1221	C122	0.112000	0.664000	0.124040
C1231	C123	0.126900	0.701900	0.173800
C1241	C124	0.107600	0.705600	0.075900
C1251	C125	0.132600	0.779300	0.175300
C1261	C126	0.128400	0.820500	0.127100
C1271	C127	0.115600	0.783100	0.077500
C1281	C128	0.136000	0.905100	0.130200
N251	N25	0.464700	0.107000	0.622250
N261	N26	0.469700	0.179500	0.603080
N271	N27	0.284900	0.126800	0.572780
N281	N28	0.486900	0.333800	0.648010
N291	N29	0.487800	0.408500	0.632820
N301	N30	0.309600	0.387100	0.680880
N311	N31	0.771600	0.101000	0.629600
N321	N32	0.775000	0.174500	0.612640
N331	N33	0.949200	0.116700	0.580610
N341	N34	0.790900	0.330000	0.656010
N351	N35	0.791900	0.404500	0.641940
N361	N36	0.973800	0.381000	0.689610
N371	N37	0.964700	0.393000	0.122250
N381	N38	0.969700	0.320500	0.103080
N391	N39	0.784900	0.373200	0.072780
N401	N40	0.986900	0.166200	0.148010
N411	N41	0.987800	0.091500	0.132820
N421	N42	0.809600	0.112900	0.180880
N431	N43	0.271600	0.399000	0.129600
N441	N44	0.275000	0.325500	0.112640
N451	N45	0.449200	0.383300	0.080610
N461	N46	0.290900	0.170000	0.156010
N471	N47	0.291900	0.095500	0.141940
N481	N48	0.473800	0.119000	0.189610
O251	O25	0.068800	0.407210	0.242990
O261	O26	0.113200	0.295960	0.208430
O271	O27	0.088700	0.227200	0.498260
O281	O28	0.068700	0.116500	0.458030
O291	O29	0.649000	0.300200	0.551030
O301	O30	0.682600	0.415100	0.520500
O311	O31	0.688600	0.136900	0.299670
O321	O32	0.671900	0.246800	0.257900
O331	O33	0.624400	0.953500	0.668560
O341	O34	0.571000	0.952260	0.579620
O351	O35	0.646500	0.559620	0.585430
O361	O36	0.627800	0.563200	0.674500
O371	O37	0.568800	0.092790	0.742990
O381	O38	0.613200	0.204040	0.708430
O391	O39	0.588700	0.272800	0.998260
O401	O40	0.568700	0.383500	0.958030
O411	O41	0.149000	0.199800	0.051030
O421	O42	0.182600	0.084900	0.020500
O431	O43	0.188600	0.363100	0.799670
O441	O44	0.171900	0.253200	0.757900
O451	O45	0.124400	0.546500	0.168560
O461	O46	0.071000	0.547740	0.079620
O471	O47	0.146500	0.940380	0.085430
O481	O48	0.127800	0.936800	0.174500
