data_LEJCAE_clean_PM
_symmetry_space_group_name_H-M	'P1'
_cell_length_a	8.504000
_cell_length_b	14.441000
_cell_length_c	45.883000
_cell_angle_alpha	90.000000
_cell_angle_beta	90.000000
_cell_angle_gamma	90.000000
_symmetry_Int_Tables_number 1

loop_
_symmetry_equiv_pos_as_xyz
'x,y,z'

loop_
_atom_site_label
_atom_site_type_symbol
_atom_site_fract_x
_atom_site_fract_y
_atom_site_fract_z
C11	C1	0.998000	0.028500	0.095800
C21	C2	0.952000	0.974300	0.079800
C31	C3	0.975000	0.974600	0.009100
C41	C4	0.998000	0.528500	0.595800
C51	C5	0.952000	0.474300	0.579800
C61	C6	0.975000	0.474600	0.509100
C71	C7	0.498000	0.028500	0.595800
C81	C8	0.452000	0.974300	0.579800
C91	C9	0.475000	0.974600	0.509100
C101	C10	0.498000	0.528500	0.095800
C111	C11	0.452000	0.474300	0.079800
C121	C12	0.475000	0.474600	0.009100
C131	C13	0.752000	0.721500	0.095800
C141	C14	0.798000	0.775700	0.079800
C151	C15	0.775000	0.775400	0.009100
C161	C16	0.752000	0.221500	0.595800
C171	C17	0.798000	0.275700	0.579800
C181	C18	0.775000	0.275400	0.509100
C191	C19	0.252000	0.721500	0.595800
C201	C20	0.298000	0.775700	0.579800
C211	C21	0.275000	0.775400	0.509100
C221	C22	0.252000	0.221500	0.095800
C231	C23	0.298000	0.275700	0.079800
C241	C24	0.275000	0.275400	0.009100
C251	C25	0.752000	0.028500	0.654200
C261	C26	0.798000	0.974300	0.670200
C271	C27	0.775000	0.974600	0.740900
C281	C28	0.752000	0.528500	0.154200
C291	C29	0.798000	0.474300	0.170200
C301	C30	0.775000	0.474600	0.240900
C311	C31	0.252000	0.028500	0.154200
C321	C32	0.298000	0.974300	0.170200
C331	C33	0.275000	0.974600	0.240900
C341	C34	0.252000	0.528500	0.654200
C351	C35	0.298000	0.474300	0.670200
C361	C36	0.275000	0.474600	0.740900
C371	C37	0.998000	0.721500	0.654200
C381	C38	0.952000	0.775700	0.670200
C391	C39	0.975000	0.775400	0.740900
C401	C40	0.998000	0.221500	0.154200
C411	C41	0.952000	0.275700	0.170200
C421	C42	0.975000	0.275400	0.240900
C431	C43	0.498000	0.721500	0.154200
C441	C44	0.452000	0.775700	0.170200
C451	C45	0.475000	0.775400	0.240900
C461	C46	0.498000	0.221500	0.654200
C471	C47	0.452000	0.275700	0.670200
C481	C48	0.475000	0.275400	0.740900
C491	C49	0.002000	0.971500	0.904200
C501	C50	0.048000	0.025700	0.920200
C511	C51	0.025000	0.025400	0.990900
C521	C52	0.002000	0.471500	0.404200
C531	C53	0.048000	0.525700	0.420200
C541	C54	0.025000	0.525400	0.490900
C551	C55	0.502000	0.971500	0.404200
C561	C56	0.548000	0.025700	0.420200
C571	C57	0.525000	0.025400	0.490900
C581	C58	0.502000	0.471500	0.904200
C591	C59	0.548000	0.525700	0.920200
C601	C60	0.525000	0.525400	0.990900
C611	C61	0.248000	0.278500	0.904200
C621	C62	0.202000	0.224300	0.920200
C631	C63	0.225000	0.224600	0.990900
C641	C64	0.248000	0.778500	0.404200
C651	C65	0.202000	0.724300	0.420200
C661	C66	0.225000	0.724600	0.490900
C671	C67	0.748000	0.278500	0.404200
C681	C68	0.702000	0.224300	0.420200
C691	C69	0.725000	0.224600	0.490900
C701	C70	0.748000	0.778500	0.904200
C711	C71	0.702000	0.724300	0.920200
C721	C72	0.725000	0.724600	0.990900
C731	C73	0.248000	0.971500	0.345800
C741	C74	0.202000	0.025700	0.329800
C751	C75	0.225000	0.025400	0.259100
C761	C76	0.248000	0.471500	0.845800
C771	C77	0.202000	0.525700	0.829800
C781	C78	0.225000	0.525400	0.759100
C791	C79	0.748000	0.971500	0.845800
C801	C80	0.702000	0.025700	0.829800
C811	C81	0.725000	0.025400	0.759100
C821	C82	0.748000	0.471500	0.345800
C831	C83	0.702000	0.525700	0.329800
C841	C84	0.725000	0.525400	0.259100
C851	C85	0.002000	0.278500	0.345800
C861	C86	0.048000	0.224300	0.329800
C871	C87	0.025000	0.224600	0.259100
C881	C88	0.002000	0.778500	0.845800
C891	C89	0.048000	0.724300	0.829800
C901	C90	0.025000	0.724600	0.759100
C911	C91	0.502000	0.278500	0.845800
C921	C92	0.548000	0.224300	0.829800
C931	C93	0.525000	0.224600	0.759100
C941	C94	0.502000	0.778500	0.345800
C951	C95	0.548000	0.724300	0.329800
C961	C96	0.525000	0.724600	0.259100
Cd11	Cd1	0.875000	0.875000	0.041750
Cd21	Cd2	0.875000	0.375000	0.541750
Cd31	Cd3	0.375000	0.875000	0.541750
Cd41	Cd4	0.375000	0.375000	0.041750
Cd51	Cd5	0.875000	0.875000	0.708250
Cd61	Cd6	0.875000	0.375000	0.208250
Cd71	Cd7	0.375000	0.875000	0.208250
Cd81	Cd8	0.375000	0.375000	0.708250
Cd91	Cd9	0.125000	0.125000	0.958250
Cd101	Cd10	0.125000	0.625000	0.458250
Cd111	Cd11	0.625000	0.125000	0.458250
Cd121	Cd12	0.625000	0.625000	0.958250
Cd131	Cd13	0.125000	0.125000	0.291750
Cd141	Cd14	0.125000	0.625000	0.791750
Cd151	Cd15	0.625000	0.125000	0.791750
Cd161	Cd16	0.625000	0.625000	0.291750
Cd171	Cd17	0.125000	0.125000	0.125000
Cd181	Cd18	0.125000	0.625000	0.625000
Cd191	Cd19	0.625000	0.125000	0.625000
Cd201	Cd20	0.625000	0.625000	0.125000
Cd211	Cd21	0.875000	0.875000	0.875000
Cd221	Cd22	0.875000	0.375000	0.375000
Cd231	Cd23	0.375000	0.875000	0.375000
Cd241	Cd24	0.375000	0.375000	0.875000
