data_LELMIA_clean_PM
_symmetry_space_group_name_H-M	'P1'
_cell_length_a	6.007800
_cell_length_b	16.940100
_cell_length_c	13.006100
_cell_angle_alpha	90.000000
_cell_angle_beta	116.158000
_cell_angle_gamma	90.000000
_symmetry_Int_Tables_number 1

loop_
_symmetry_equiv_pos_as_xyz
'x,y,z'

loop_
_atom_site_label
_atom_site_type_symbol
_atom_site_fract_x
_atom_site_fract_y
_atom_site_fract_z
Sr11	Sr1	0.817860	0.499470	0.594300
S11	S1	0.407000	0.241470	0.299530
O11	O1	0.178600	0.092620	0.188450
O21	O2	0.448100	0.062100	0.118860
O31	O3	0.515600	0.394320	0.428770
O41	O4	0.881000	0.414520	0.430230
C11	C1	0.681800	0.376940	0.399000
C21	C2	0.647000	0.306110	0.326700
C31	C3	0.790900	0.281690	0.275800
H11	H1	0.929300	0.309200	0.280700
C41	C4	0.707500	0.210370	0.214900
H21	H2	0.784700	0.186000	0.175200
C51	C5	0.501600	0.180860	0.220400
C61	C6	0.364500	0.105910	0.171500
Sr21	Sr2	0.182140	0.999470	0.905700
S21	S2	0.593000	0.741470	0.200470
O51	O5	0.821400	0.592620	0.311550
O61	O6	0.551900	0.562100	0.381140
O71	O7	0.484400	0.894320	0.071230
O81	O8	0.119000	0.914520	0.069770
C71	C7	0.318200	0.876940	0.101000
C81	C8	0.353000	0.806110	0.173300
C91	C9	0.209100	0.781690	0.224200
H31	H3	0.070700	0.809200	0.219300
C101	C10	0.292500	0.710370	0.285100
H41	H4	0.215300	0.686000	0.324800
C111	C11	0.498400	0.680860	0.279600
C121	C12	0.635500	0.605910	0.328500
Sr31	Sr3	0.182140	0.500530	0.405700
S31	S3	0.593000	0.758530	0.700470
O91	O9	0.821400	0.907380	0.811550
O101	O10	0.551900	0.937900	0.881140
O111	O11	0.484400	0.605680	0.571230
O121	O12	0.119000	0.585480	0.569770
C131	C13	0.318200	0.623060	0.601000
C141	C14	0.353000	0.693890	0.673300
C151	C15	0.209100	0.718310	0.724200
H51	H5	0.070700	0.690800	0.719300
C161	C16	0.292500	0.789630	0.785100
H61	H6	0.215300	0.814000	0.824800
C171	C17	0.498400	0.819140	0.779600
C181	C18	0.635500	0.894090	0.828500
Sr41	Sr4	0.817860	0.000530	0.094300
S41	S4	0.407000	0.258530	0.799530
O131	O13	0.178600	0.407380	0.688450
O141	O14	0.448100	0.437900	0.618860
O151	O15	0.515600	0.105680	0.928770
O161	O16	0.881000	0.085480	0.930230
C191	C19	0.681800	0.123060	0.899000
C201	C20	0.647000	0.193890	0.826700
C211	C21	0.790900	0.218310	0.775800
H71	H7	0.929300	0.190800	0.780700
C221	C22	0.707500	0.289630	0.714900
H81	H8	0.784700	0.314000	0.675200
C231	C23	0.501600	0.319140	0.720400
C241	C24	0.364500	0.394090	0.671500
