data_LELMIA01_clean_PM
_symmetry_space_group_name_H-M	'P1'
_cell_length_a	5.979500
_cell_length_b	11.359200
_cell_length_c	17.058300
_cell_angle_alpha	90.000000
_cell_angle_beta	90.000000
_cell_angle_gamma	91.257000
_symmetry_Int_Tables_number 1

loop_
_symmetry_equiv_pos_as_xyz
'x,y,z'

loop_
_atom_site_label
_atom_site_type_symbol
_atom_site_fract_x
_atom_site_fract_y
_atom_site_fract_z
Sr11	Sr1	0.722320	0.904410	0.998100
Sr21	Sr2	0.777680	0.595590	0.498100
Sr31	Sr3	0.277680	0.095590	0.001900
Sr41	Sr4	0.222320	0.404410	0.501900
H11	H1	0.116000	0.336000	0.686500
H21	H2	0.156000	0.225500	0.812500
H31	H3	0.384000	0.164000	0.186500
H41	H4	0.344000	0.274500	0.312500
H51	H5	0.884000	0.664000	0.313500
H61	H6	0.844000	0.774500	0.187500
H71	H7	0.616000	0.836000	0.813500
H81	H8	0.656000	0.725500	0.687500
C11	C1	0.783600	0.105100	0.878950
C21	C2	0.821100	0.179470	0.808570
C31	C3	0.017400	0.232230	0.784240
C41	C4	0.994500	0.292820	0.712340
C51	C5	0.781300	0.283950	0.683020
C61	C6	0.692000	0.329060	0.607430
C71	C7	0.716400	0.394900	0.378950
C81	C8	0.678900	0.320530	0.308570
C91	C9	0.482600	0.267770	0.284240
C101	C10	0.505500	0.207180	0.212340
C111	C11	0.718700	0.216050	0.183020
C121	C12	0.808000	0.170940	0.107430
C131	C13	0.216400	0.894900	0.121050
C141	C14	0.178900	0.820530	0.191430
C151	C15	0.982600	0.767770	0.215760
C161	C16	0.005500	0.707180	0.287660
C171	C17	0.218700	0.716050	0.316980
C181	C18	0.308000	0.670940	0.392570
C191	C19	0.283600	0.605100	0.621050
C201	C20	0.321100	0.679470	0.691430
C211	C21	0.517400	0.732230	0.715760
C221	C22	0.494500	0.792820	0.787660
C231	C23	0.281300	0.783950	0.816980
C241	C24	0.192000	0.829060	0.892570
S11	S1	0.607500	0.203380	0.743790
S21	S2	0.892500	0.296620	0.243790
S31	S3	0.392500	0.796620	0.256210
S41	S4	0.107500	0.703380	0.756210
O11	O1	0.586630	0.074700	0.896500
O21	O2	0.953660	0.073170	0.916480
O31	O3	0.487310	0.310050	0.594370
O41	O4	0.828650	0.380750	0.562140
O51	O5	0.913370	0.425300	0.396500
O61	O6	0.546340	0.426830	0.416480
O71	O7	0.012690	0.189950	0.094370
O81	O8	0.671350	0.119250	0.062140
O91	O9	0.413370	0.925300	0.103500
O101	O10	0.046340	0.926830	0.083520
O111	O11	0.512690	0.689950	0.405630
O121	O12	0.171350	0.619250	0.437860
O131	O13	0.086630	0.574700	0.603500
O141	O14	0.453660	0.573170	0.583520
O151	O15	0.987310	0.810050	0.905630
O161	O16	0.328650	0.880750	0.937860
