data_LELROL_clean_PM
_symmetry_space_group_name_H-M	'P1'
_cell_length_a	17.404700
_cell_length_b	17.989200
_cell_length_c	26.943000
_cell_angle_alpha	90.000000
_cell_angle_beta	90.000000
_cell_angle_gamma	106.941000
_symmetry_Int_Tables_number 1

loop_
_symmetry_equiv_pos_as_xyz
'x,y,z'

loop_
_atom_site_label
_atom_site_type_symbol
_atom_site_fract_x
_atom_site_fract_y
_atom_site_fract_z
Mn11	Mn1	0.326380	0.052750	0.121170
Mn21	Mn2	0.112450	0.029080	0.129490
Mn31	Mn3	0.673620	0.447250	0.621170
Mn41	Mn4	0.887550	0.470920	0.629490
Mn51	Mn5	0.673620	0.947250	0.878830
Mn61	Mn6	0.887550	0.970920	0.870510
Mn71	Mn7	0.326380	0.552750	0.378830
Mn81	Mn8	0.112450	0.529080	0.370510
Mn91	Mn9	0.000000	0.000000	0.000000
Mn101	Mn10	0.000000	0.500000	0.500000
H11	H1	0.362800	0.159100	0.762100
H21	H2	0.373000	0.073400	0.762400
H31	H3	0.303600	0.159200	0.632700
H41	H4	0.319600	0.212500	0.681400
H51	H5	0.181300	0.041400	0.628100
H61	H6	0.121800	0.019100	0.674600
H71	H7	0.252400	0.957100	0.756500
H81	H8	0.164400	0.967500	0.752000
H91	H9	0.322100	0.026700	0.634600
H101	H10	0.348900	0.993200	0.684700
H111	H11	0.224300	0.177000	0.754300
H121	H12	0.146900	0.102700	0.751100
H131	H13	0.122000	0.019300	0.819500
H141	H14	0.103000	0.006400	0.903800
H151	H15	0.340900	0.108500	0.924900
H161	H16	0.359300	0.120300	0.840400
H171	H17	0.462900	0.062800	0.640300
H181	H18	0.597100	0.128700	0.624100
H191	H19	0.573300	0.316800	0.697400
H201	H20	0.440700	0.250300	0.714300
H211	H21	0.131200	0.218100	0.725700
H221	H22	0.074700	0.307800	0.691100
H231	H23	0.114100	0.235900	0.555300
H241	H24	0.179800	0.153700	0.589400
H251	H25	0.160300	0.852100	0.729500
H261	H26	0.096000	0.730000	0.697100
H271	H27	0.153600	0.816100	0.558700
H281	H28	0.220200	0.936500	0.591600
H291	H29	0.637200	0.340900	0.262100
H301	H30	0.627000	0.426600	0.262400
H311	H31	0.696400	0.340800	0.132700
H321	H32	0.680400	0.287500	0.181400
H331	H33	0.818700	0.458600	0.128100
H341	H34	0.878200	0.480900	0.174600
H351	H35	0.747600	0.542900	0.256500
H361	H36	0.835600	0.532500	0.252000
H371	H37	0.677900	0.473300	0.134600
H381	H38	0.651100	0.506800	0.184700
H391	H39	0.775700	0.323000	0.254300
H401	H40	0.853100	0.397300	0.251100
H411	H41	0.878000	0.480700	0.319500
H421	H42	0.897000	0.493600	0.403800
H431	H43	0.659100	0.391500	0.424900
H441	H44	0.640700	0.379700	0.340400
H451	H45	0.537100	0.437200	0.140300
H461	H46	0.402900	0.371300	0.124100
H471	H47	0.426700	0.183200	0.197400
H481	H48	0.559300	0.249700	0.214300
H491	H49	0.868800	0.281900	0.225700
H501	H50	0.925300	0.192200	0.191100
H511	H51	0.885900	0.264100	0.055300
H521	H52	0.820200	0.346300	0.089400
H531	H53	0.839700	0.647900	0.229500
H541	H54	0.904000	0.770000	0.197100
H551	H55	0.846400	0.683900	0.058700
H561	H56	0.779800	0.563500	0.091600
H571	H57	0.637200	0.840900	0.237900
H581	H58	0.627000	0.926600	0.237600
H591	H59	0.696400	0.840800	0.367300
H601	H60	0.680400	0.787500	0.318600
H611	H61	0.818700	0.958600	0.371900
H621	H62	0.878200	0.980900	0.325400
H631	H63	0.747600	0.042900	0.243500
H641	H64	0.835600	0.032500	0.248000
H651	H65	0.677900	0.973300	0.365400
H661	H66	0.651100	0.006800	0.315300
H671	H67	0.775700	0.823000	0.245700
H681	H68	0.853100	0.897300	0.248900
H691	H69	0.878000	0.980700	0.180500
H701	H70	0.897000	0.993600	0.096200
H711	H71	0.659100	0.891500	0.075100
H721	H72	0.640700	0.879700	0.159600
H731	H73	0.537100	0.937200	0.359700
H741	H74	0.402900	0.871300	0.375900
H751	H75	0.426700	0.683200	0.302600
H761	H76	0.559300	0.749700	0.285700
H771	H77	0.868800	0.781900	0.274300
H781	H78	0.925300	0.692200	0.308900
H791	H79	0.885900	0.764100	0.444700
H801	H80	0.820200	0.846300	0.410600
H811	H81	0.839700	0.147900	0.270500
H821	H82	0.904000	0.270000	0.302900
H831	H83	0.846400	0.183900	0.441300
H841	H84	0.779800	0.063500	0.408400
H851	H85	0.362800	0.659100	0.737900
H861	H86	0.373000	0.573400	0.737600
H871	H87	0.303600	0.659200	0.867300
H881	H88	0.319600	0.712500	0.818600
H891	H89	0.181300	0.541400	0.871900
H901	H90	0.121800	0.519100	0.825400
H911	H91	0.252400	0.457100	0.743500
H921	H92	0.164400	0.467500	0.748000
H931	H93	0.322100	0.526700	0.865400
H941	H94	0.348900	0.493200	0.815300
H951	H95	0.224300	0.677000	0.745700
H961	H96	0.146900	0.602700	0.748900
H971	H97	0.122000	0.519300	0.680500
H981	H98	0.103000	0.506400	0.596200
H991	H99	0.340900	0.608500	0.575100
H1001	H100	0.359300	0.620300	0.659600
H1011	H101	0.462900	0.562800	0.859700
H1021	H102	0.597100	0.628700	0.875900
H1031	H103	0.573300	0.816800	0.802600
H1041	H104	0.440700	0.750300	0.785700
H1051	H105	0.131200	0.718100	0.774300
H1061	H106	0.074700	0.807800	0.808900
H1071	H107	0.114100	0.735900	0.944700
H1081	H108	0.179800	0.653700	0.910600
H1091	H109	0.160300	0.352100	0.770500
H1101	H110	0.096000	0.230000	0.802900
H1111	H111	0.153600	0.316100	0.941300
H1121	H112	0.220200	0.436500	0.908400
C11	C1	0.252800	0.072500	0.764000
C21	C2	0.341100	0.106000	0.748500
C31	C3	0.349400	0.108800	0.691500
C41	C4	0.298600	0.158400	0.669300
C51	C5	0.209100	0.126000	0.683700
C61	C6	0.178700	0.041600	0.664800
C71	C7	0.228200	0.990700	0.685600
C81	C8	0.221300	0.990200	0.742400
C91	C9	0.316900	0.025900	0.671200
C101	C10	0.203800	0.123500	0.741100
C111	C11	0.242800	0.069700	0.820100
C121	C12	0.167000	0.037100	0.840900
C131	C13	0.155300	0.030200	0.891100
C141	C14	0.219900	0.057700	0.924200
C151	C15	0.295900	0.090400	0.903500
C161	C16	0.307000	0.096900	0.853100
C171	C17	0.211600	0.048300	0.978100
C181	C18	0.436500	0.148300	0.678200
C191	C19	0.484700	0.114400	0.652200
C201	C20	0.565400	0.153800	0.642500
C211	C21	0.599100	0.228000	0.659200
C221	C22	0.551200	0.265000	0.686000
C231	C23	0.472300	0.225500	0.695600
C241	C24	0.684600	0.269500	0.654000
C251	C25	0.163100	0.177100	0.661800
C261	C26	0.129500	0.222400	0.690600
C271	C27	0.093300	0.274300	0.670000
C281	C28	0.083900	0.277900	0.619600
C291	C29	0.117800	0.232900	0.590300
C301	C30	0.156900	0.183600	0.610700
C311	C31	0.041500	0.332000	0.600500
C321	C32	0.192700	0.908100	0.664500
C331	C33	0.157800	0.845200	0.694500
C341	C34	0.119200	0.772200	0.675400
C351	C35	0.114600	0.761200	0.623700
C361	C36	0.153800	0.823300	0.593600
C371	C37	0.193000	0.895400	0.613100
C381	C38	0.067500	0.685300	0.605500
C391	C39	0.747200	0.427500	0.264000
C401	C40	0.658900	0.394000	0.248500
C411	C41	0.650600	0.391200	0.191500
C421	C42	0.701400	0.341600	0.169300
C431	C43	0.790900	0.374000	0.183700
C441	C44	0.821300	0.458400	0.164800
C451	C45	0.771800	0.509300	0.185600
C461	C46	0.778700	0.509800	0.242400
C471	C47	0.683100	0.474100	0.171200
C481	C48	0.796200	0.376500	0.241100
C491	C49	0.757200	0.430300	0.320100
C501	C50	0.833000	0.462900	0.340900
C511	C51	0.844700	0.469800	0.391100
C521	C52	0.780100	0.442300	0.424200
C531	C53	0.704100	0.409600	0.403500
C541	C54	0.693000	0.403100	0.353100
C551	C55	0.788400	0.451700	0.478100
C561	C56	0.563500	0.351700	0.178200
C571	C57	0.515300	0.385600	0.152200
C581	C58	0.434600	0.346200	0.142500
C591	C59	0.400900	0.272000	0.159200
C601	C60	0.448800	0.235000	0.186000
C611	C61	0.527700	0.274500	0.195600
C621	C62	0.315400	0.230500	0.154000
C631	C63	0.836900	0.322900	0.161800
C641	C64	0.870500	0.277600	0.190600
C651	C65	0.906700	0.225700	0.170000
C661	C66	0.916100	0.222100	0.119600
C671	C67	0.882200	0.267100	0.090300
C681	C68	0.843100	0.316400	0.110700
C691	C69	0.958500	0.168000	0.100500
C701	C70	0.807300	0.591900	0.164500
C711	C71	0.842200	0.654800	0.194500
C721	C72	0.880800	0.727800	0.175400
C731	C73	0.885400	0.738800	0.123700
C741	C74	0.846200	0.676700	0.093600
C751	C75	0.807000	0.604600	0.113100
C761	C76	0.932500	0.814700	0.105500
C771	C77	0.747200	0.927500	0.236000
C781	C78	0.658900	0.894000	0.251500
C791	C79	0.650600	0.891200	0.308500
C801	C80	0.701400	0.841600	0.330700
C811	C81	0.790900	0.874000	0.316300
C821	C82	0.821300	0.958400	0.335200
C831	C83	0.771800	0.009300	0.314400
C841	C84	0.778700	0.009800	0.257600
C851	C85	0.683100	0.974100	0.328800
C861	C86	0.796200	0.876500	0.258900
C871	C87	0.757200	0.930300	0.179900
C881	C88	0.833000	0.962900	0.159100
C891	C89	0.844700	0.969800	0.108900
C901	C90	0.780100	0.942300	0.075800
C911	C91	0.704100	0.909600	0.096500
C921	C92	0.693000	0.903100	0.146900
C931	C93	0.788400	0.951700	0.021900
C941	C94	0.563500	0.851700	0.321800
C951	C95	0.515300	0.885600	0.347800
C961	C96	0.434600	0.846200	0.357500
C971	C97	0.400900	0.772000	0.340800
C981	C98	0.448800	0.735000	0.314000
C991	C99	0.527700	0.774500	0.304400
C1001	C100	0.315400	0.730500	0.346000
C1011	C101	0.836900	0.822900	0.338200
C1021	C102	0.870500	0.777600	0.309400
C1031	C103	0.906700	0.725700	0.330000
C1041	C104	0.916100	0.722100	0.380400
C1051	C105	0.882200	0.767100	0.409700
C1061	C106	0.843100	0.816400	0.389300
C1071	C107	0.958500	0.668000	0.399500
C1081	C108	0.807300	0.091900	0.335500
C1091	C109	0.842200	0.154800	0.305500
C1101	C110	0.880800	0.227800	0.324600
C1111	C111	0.885400	0.238800	0.376300
C1121	C112	0.846200	0.176700	0.406400
C1131	C113	0.807000	0.104600	0.386900
C1141	C114	0.932500	0.314700	0.394500
C1151	C115	0.252800	0.572500	0.736000
C1161	C116	0.341100	0.606000	0.751500
C1171	C117	0.349400	0.608800	0.808500
C1181	C118	0.298600	0.658400	0.830700
C1191	C119	0.209100	0.626000	0.816300
C1201	C120	0.178700	0.541600	0.835200
C1211	C121	0.228200	0.490700	0.814400
C1221	C122	0.221300	0.490200	0.757600
C1231	C123	0.316900	0.525900	0.828800
C1241	C124	0.203800	0.623500	0.758900
C1251	C125	0.242800	0.569700	0.679900
C1261	C126	0.167000	0.537100	0.659100
C1271	C127	0.155300	0.530200	0.608900
C1281	C128	0.219900	0.557700	0.575800
C1291	C129	0.295900	0.590400	0.596500
C1301	C130	0.307000	0.596900	0.646900
C1311	C131	0.211600	0.548300	0.521900
C1321	C132	0.436500	0.648300	0.821800
C1331	C133	0.484700	0.614400	0.847800
C1341	C134	0.565400	0.653800	0.857500
C1351	C135	0.599100	0.728000	0.840800
C1361	C136	0.551200	0.765000	0.814000
C1371	C137	0.472300	0.725500	0.804400
C1381	C138	0.684600	0.769500	0.846000
C1391	C139	0.163100	0.677100	0.838200
C1401	C140	0.129500	0.722400	0.809400
C1411	C141	0.093300	0.774300	0.830000
C1421	C142	0.083900	0.777900	0.880400
C1431	C143	0.117800	0.732900	0.909700
C1441	C144	0.156900	0.683600	0.889300
C1451	C145	0.041500	0.832000	0.899500
C1461	C146	0.192700	0.408100	0.835500
C1471	C147	0.157800	0.345200	0.805500
C1481	C148	0.119200	0.272200	0.824600
C1491	C149	0.114600	0.261200	0.876300
C1501	C150	0.153800	0.323300	0.906400
C1511	C151	0.193000	0.395400	0.886900
C1521	C152	0.067500	0.185300	0.894500
N11	N1	0.143700	0.032400	0.005740
N21	N2	0.169500	0.032600	0.052610
N31	N3	0.248200	0.048900	0.053000
N41	N4	0.276500	0.059700	0.007260
N51	N5	0.715900	0.345000	0.646600
N61	N6	0.796100	0.358800	0.646900
N71	N7	0.811400	0.290300	0.652500
N81	N8	0.742600	0.235600	0.658300
N91	N9	0.994900	0.360300	0.629300
N101	N10	0.967400	0.405700	0.599300
N111	N11	0.996400	0.404800	0.555200
N121	N12	0.044800	0.358600	0.553500
N131	N13	0.070200	0.658300	0.559300
N141	N14	0.013700	0.588800	0.559900
N151	N15	0.979700	0.576600	0.604200
N161	N16	0.012000	0.636200	0.633600
N171	N17	0.856300	0.467600	0.505740
N181	N18	0.830500	0.467400	0.552610
N191	N19	0.751800	0.451100	0.553000
N201	N20	0.723500	0.440300	0.507260
N211	N21	0.284100	0.155000	0.146600
N221	N22	0.203900	0.141200	0.146900
N231	N23	0.188600	0.209700	0.152500
N241	N24	0.257400	0.264400	0.158300
N251	N25	0.005100	0.139700	0.129300
N261	N26	0.032600	0.094300	0.099300
N271	N27	0.003600	0.095200	0.055200
N281	N28	0.955200	0.141400	0.053500
N291	N29	0.929800	0.841700	0.059300
N301	N30	0.986300	0.911200	0.059900
N311	N31	0.020300	0.923400	0.104200
N321	N32	0.988000	0.863800	0.133600
N331	N33	0.856300	0.967600	0.994260
N341	N34	0.830500	0.967400	0.947390
N351	N35	0.751800	0.951100	0.947000
N361	N36	0.723500	0.940300	0.992740
N371	N37	0.284100	0.655000	0.353400
N381	N38	0.203900	0.641200	0.353100
N391	N39	0.188600	0.709700	0.347500
N401	N40	0.257400	0.764400	0.341700
N411	N41	0.005100	0.639700	0.370700
N421	N42	0.032600	0.594300	0.400700
N431	N43	0.003600	0.595200	0.444800
N441	N44	0.955200	0.641400	0.446500
N451	N45	0.929800	0.341700	0.440700
N461	N46	0.986300	0.411200	0.440100
N471	N47	0.020300	0.423400	0.395800
N481	N48	0.988000	0.363800	0.366400
N491	N49	0.143700	0.532400	0.494260
N501	N50	0.169500	0.532600	0.447390
N511	N51	0.248200	0.548900	0.447000
N521	N52	0.276500	0.559700	0.492740
N531	N53	0.715900	0.845000	0.853400
N541	N54	0.796100	0.858800	0.853100
N551	N55	0.811400	0.790300	0.847500
N561	N56	0.742600	0.735600	0.841700
N571	N57	0.994900	0.860300	0.870700
N581	N58	0.967400	0.905700	0.900700
N591	N59	0.996400	0.904800	0.944800
N601	N60	0.044800	0.858600	0.946500
N611	N61	0.070200	0.158300	0.940700
N621	N62	0.013700	0.088800	0.940100
N631	N63	0.979700	0.076600	0.895800
N641	N64	0.012000	0.136200	0.866400
Cl11	Cl1	0.205060	0.957000	0.156540
Cl21	Cl2	0.794940	0.543000	0.656540
Cl31	Cl3	0.794940	0.043000	0.843460
Cl41	Cl4	0.205060	0.457000	0.343460
