data_LEPLEZ02_clean_PM
_symmetry_space_group_name_H-M	'P1'
_cell_length_a	17.150000
_cell_length_b	12.284000
_cell_length_c	11.144000
_cell_angle_alpha	90.000000
_cell_angle_beta	127.549000
_cell_angle_gamma	90.000000
_symmetry_Int_Tables_number 1

loop_
_symmetry_equiv_pos_as_xyz
'x,y,z'

loop_
_atom_site_label
_atom_site_type_symbol
_atom_site_fract_x
_atom_site_fract_y
_atom_site_fract_z
Sm11	Sm1	0.216810	0.351920	0.120230
O11	O1	0.164800	0.355500	0.274500
O21	O2	0.226000	0.168300	0.208400
O31	O3	0.128700	0.315600	0.428000
O41	O4	0.200400	0.016400	0.284900
C11	C1	0.139800	0.288900	0.332100
C21	C2	0.118900	0.171600	0.279300
C31	C3	0.187800	0.116100	0.256900
O51	O5	0.051000	0.257500	0.941100
O61	O6	0.159500	0.209600	0.908300
C41	C4	0.075700	0.201000	0.875800
H11	H1	0.054000	0.167000	0.185000
H21	H2	0.029000	0.074000	0.711000
H31	H3	0.119000	0.126000	0.364000
Sm21	Sm2	0.716810	0.851920	0.120230
O71	O7	0.664800	0.855500	0.274500
O81	O8	0.726000	0.668300	0.208400
O91	O9	0.628700	0.815600	0.428000
O101	O10	0.700400	0.516400	0.284900
C51	C5	0.639800	0.788900	0.332100
C61	C6	0.618900	0.671600	0.279300
C71	C7	0.687800	0.616100	0.256900
O111	O11	0.551000	0.757500	0.941100
O121	O12	0.659500	0.709600	0.908300
C81	C8	0.575700	0.701000	0.875800
H41	H4	0.554000	0.667000	0.185000
H51	H5	0.529000	0.574000	0.711000
H61	H6	0.619000	0.626000	0.364000
Sm31	Sm3	0.783190	0.351920	0.379770
O131	O13	0.835200	0.355500	0.225500
O141	O14	0.774000	0.168300	0.291600
O151	O15	0.871300	0.315600	0.072000
O161	O16	0.799600	0.016400	0.215100
C91	C9	0.860200	0.288900	0.167900
C101	C10	0.881100	0.171600	0.220700
C111	C11	0.812200	0.116100	0.243100
O171	O17	0.949000	0.257500	0.558900
O181	O18	0.840500	0.209600	0.591700
C121	C12	0.924300	0.201000	0.624200
H71	H7	0.946000	0.167000	0.315000
H81	H8	0.971000	0.074000	0.789000
H91	H9	0.881000	0.126000	0.136000
Sm41	Sm4	0.283190	0.851920	0.379770
O191	O19	0.335200	0.855500	0.225500
O201	O20	0.274000	0.668300	0.291600
O211	O21	0.371300	0.815600	0.072000
O221	O22	0.299600	0.516400	0.215100
C131	C13	0.360200	0.788900	0.167900
C141	C14	0.381100	0.671600	0.220700
C151	C15	0.312200	0.616100	0.243100
O231	O23	0.449000	0.757500	0.558900
O241	O24	0.340500	0.709600	0.591700
C161	C16	0.424300	0.701000	0.624200
H101	H10	0.446000	0.667000	0.315000
H111	H11	0.471000	0.574000	0.789000
H121	H12	0.381000	0.626000	0.136000
Sm51	Sm5	0.783190	0.648080	0.879770
O251	O25	0.835200	0.644500	0.725500
O261	O26	0.774000	0.831700	0.791600
O271	O27	0.871300	0.684400	0.572000
O281	O28	0.799600	0.983600	0.715100
C171	C17	0.860200	0.711100	0.667900
C181	C18	0.881100	0.828400	0.720700
C191	C19	0.812200	0.883900	0.743100
O291	O29	0.949000	0.742500	0.058900
O301	O30	0.840500	0.790400	0.091700
C201	C20	0.924300	0.799000	0.124200
H131	H13	0.946000	0.833000	0.815000
H141	H14	0.971000	0.926000	0.289000
H151	H15	0.881000	0.874000	0.636000
Sm61	Sm6	0.283190	0.148080	0.879770
O311	O31	0.335200	0.144500	0.725500
O321	O32	0.274000	0.331700	0.791600
O331	O33	0.371300	0.184400	0.572000
O341	O34	0.299600	0.483600	0.715100
C211	C21	0.360200	0.211100	0.667900
C221	C22	0.381100	0.328400	0.720700
C231	C23	0.312200	0.383900	0.743100
O351	O35	0.449000	0.242500	0.058900
O361	O36	0.340500	0.290400	0.091700
C241	C24	0.424300	0.299000	0.124200
H161	H16	0.446000	0.333000	0.815000
H171	H17	0.471000	0.426000	0.289000
H181	H18	0.381000	0.374000	0.636000
Sm71	Sm7	0.216810	0.648080	0.620230
O371	O37	0.164800	0.644500	0.774500
O381	O38	0.226000	0.831700	0.708400
O391	O39	0.128700	0.684400	0.928000
O401	O40	0.200400	0.983600	0.784900
C251	C25	0.139800	0.711100	0.832100
C261	C26	0.118900	0.828400	0.779300
C271	C27	0.187800	0.883900	0.756900
O411	O41	0.051000	0.742500	0.441100
O421	O42	0.159500	0.790400	0.408300
C281	C28	0.075700	0.799000	0.375800
H191	H19	0.054000	0.833000	0.685000
H201	H20	0.029000	0.926000	0.211000
H211	H21	0.119000	0.874000	0.864000
Sm81	Sm8	0.716810	0.148080	0.620230
O431	O43	0.664800	0.144500	0.774500
O441	O44	0.726000	0.331700	0.708400
O451	O45	0.628700	0.184400	0.928000
O461	O46	0.700400	0.483600	0.784900
C291	C29	0.639800	0.211100	0.832100
C301	C30	0.618900	0.328400	0.779300
C311	C31	0.687800	0.383900	0.756900
O471	O47	0.551000	0.242500	0.441100
O481	O48	0.659500	0.290400	0.408300
C321	C32	0.575700	0.299000	0.375800
H221	H22	0.554000	0.333000	0.685000
H231	H23	0.529000	0.426000	0.211000
H241	H24	0.619000	0.374000	0.864000
C331	C33	0.000000	0.125100	0.750000
C341	C34	0.500000	0.625100	0.750000
C351	C35	0.000000	0.874900	0.250000
C361	C36	0.500000	0.374900	0.250000
