data_LEPLEZ_clean_PM
_symmetry_space_group_name_H-M	'P1'
_cell_length_a	10.567100
_cell_length_b	10.567100
_cell_length_c	10.919400
_cell_angle_alpha	78.770800
_cell_angle_beta	62.496300
_cell_angle_gamma	108.758000
_symmetry_Int_Tables_number 1

loop_
_symmetry_equiv_pos_as_xyz
'x,y,z'

loop_
_atom_site_label
_atom_site_type_symbol
_atom_site_fract_x
_atom_site_fract_y
_atom_site_fract_z
Sm11	Sm1	0.448530	0.635170	0.620160
Sm21	Sm2	0.755330	0.068690	0.879840
Sm31	Sm3	0.551470	0.364830	0.379840
Sm41	Sm4	0.244670	0.931310	0.120160
H11	H1	0.897000	0.513700	0.849100
H21	H2	0.041500	0.616700	0.681600
H31	H3	0.733300	0.391100	0.717000
H41	H4	0.862800	0.746100	0.650900
H51	H5	0.798300	0.723100	0.818400
H61	H6	0.608100	0.450300	0.783000
H71	H7	0.103000	0.486300	0.150900
H81	H8	0.958500	0.383300	0.318400
H91	H9	0.266700	0.608900	0.283000
H101	H10	0.137200	0.253900	0.349100
H111	H11	0.201700	0.276900	0.181600
H121	H12	0.391900	0.549700	0.217000
C11	C1	0.096400	0.649000	0.831600
C21	C2	0.013000	0.554000	0.777800
C31	C3	0.047100	0.427900	0.757600
C41	C4	0.598800	0.374600	0.625200
C51	C5	0.980600	0.928000	0.668400
C61	C6	0.831800	0.790800	0.722200
C71	C7	0.685500	0.804700	0.742400
C81	C8	0.499800	0.224000	0.874800
C91	C9	0.903600	0.351000	0.168400
C101	C10	0.987000	0.446000	0.222200
C111	C11	0.952900	0.572100	0.242400
C121	C12	0.401200	0.625400	0.374800
C131	C13	0.019400	0.072000	0.331600
C141	C14	0.168200	0.209200	0.277800
C151	C15	0.314500	0.195300	0.257600
C161	C16	0.500200	0.776000	0.125200
C171	C17	0.624900	0.374900	0.750000
C181	C18	0.375100	0.625100	0.250000
O11	O1	0.246100	0.691100	0.774400
O21	O2	0.015200	0.687500	0.927900
O31	O3	0.186500	0.442600	0.708500
O41	O4	0.932200	0.314900	0.786100
O51	O5	0.632800	0.293800	0.558400
O61	O6	0.539500	0.450600	0.591900
O71	O7	0.965500	0.020500	0.725600
O81	O8	0.115400	0.943100	0.572100
O91	O9	0.651100	0.895000	0.791500
O101	O10	0.601000	0.718300	0.713900
O111	O11	0.352200	0.191200	0.941600
O121	O12	0.542500	0.131400	0.908100
O131	O13	0.753900	0.308900	0.225600
O141	O14	0.984800	0.312500	0.072100
O151	O15	0.813500	0.557400	0.291500
O161	O16	0.067800	0.685100	0.213900
O171	O17	0.367200	0.706200	0.441600
O181	O18	0.460500	0.549400	0.408100
O191	O19	0.034500	0.979500	0.274400
O201	O20	0.884600	0.056900	0.427900
O211	O21	0.348900	0.105000	0.208500
O221	O22	0.399000	0.281700	0.286100
O231	O23	0.647800	0.808800	0.058400
O241	O24	0.457500	0.868600	0.091900
