data_LEQQII_clean_PM
_symmetry_space_group_name_H-M	'P1'
_cell_length_a	16.050300
_cell_length_b	16.050300
_cell_length_c	36.843000
_cell_angle_alpha	90.000000
_cell_angle_beta	90.000000
_cell_angle_gamma	120.000000
_symmetry_Int_Tables_number 1

loop_
_symmetry_equiv_pos_as_xyz
'x,y,z'

loop_
_atom_site_label
_atom_site_type_symbol
_atom_site_fract_x
_atom_site_fract_y
_atom_site_fract_z
O11	O1	0.820600	0.851500	0.111400
O21	O2	0.203700	0.162000	0.108800
N11	N1	0.397900	0.256200	0.114100
C11	C1	0.392200	0.250900	0.151700
H11	H1	0.341700	0.197700	0.162900
C21	C2	0.462000	0.325200	0.172600
H21	H2	0.458200	0.321600	0.197800
C31	C3	0.537500	0.404700	0.155900
C41	C4	0.543200	0.410000	0.118200
H31	H3	0.593700	0.463200	0.107000
C51	C5	0.473400	0.335700	0.097300
H41	H4	0.477200	0.339300	0.072100
N21	N2	0.755700	0.627400	0.219500
C61	C6	0.762900	0.634400	0.181900
H51	H5	0.815200	0.686900	0.171100
C71	C7	0.691900	0.563100	0.160400
H61	H6	0.696700	0.567800	0.135200
C81	C8	0.613600	0.484700	0.176500
C91	C9	0.606400	0.477600	0.214100
H71	H7	0.554100	0.425200	0.224900
C101	C10	0.677500	0.549000	0.235600
H81	H8	0.672600	0.544200	0.260700
C111	C11	0.966200	0.864400	0.128100
H91	H9	0.952000	0.866500	0.153300
H101	H10	0.033600	0.906700	0.123900
H111	H11	0.949300	0.799900	0.121600
C121	C12	0.910100	0.895300	0.105700
C131	C13	0.112400	0.115300	0.103900
C141	C14	0.058800	0.149100	0.127700
H121	H12	0.000600	0.094500	0.136300
H131	H13	0.043300	0.190400	0.113900
H141	H14	0.098400	0.184000	0.148000
O31	O3	0.148500	0.969100	0.444730
O41	O4	0.838000	0.041700	0.442130
N31	N3	0.743800	0.141700	0.447430
C151	C15	0.749100	0.141300	0.485030
H151	H15	0.802300	0.144000	0.496230
C161	C16	0.674800	0.136800	0.505930
H161	H16	0.678400	0.136600	0.531130
C171	C17	0.595300	0.132800	0.489230
C181	C18	0.590000	0.133200	0.451530
H171	H17	0.536800	0.130500	0.440330
C191	C19	0.664300	0.137700	0.430630
H181	H18	0.660700	0.137900	0.405430
N41	N4	0.372600	0.128300	0.552830
C201	C20	0.365600	0.128500	0.515230
H191	H19	0.313100	0.128300	0.504430
C211	C21	0.436900	0.128800	0.493730
H201	H20	0.432200	0.128900	0.468530
C221	C22	0.515300	0.128900	0.509830
C231	C23	0.522400	0.128800	0.547430
H211	H21	0.574800	0.128900	0.558230
C241	C24	0.451000	0.128500	0.568930
H221	H22	0.455800	0.128400	0.594030
C251	C25	0.135600	0.101800	0.461430
H231	H23	0.133500	0.085500	0.486630
H241	H24	0.093300	0.126900	0.457230
H251	H25	0.200100	0.149400	0.454930
C261	C26	0.104700	0.014800	0.439030
C271	C27	0.884700	0.997100	0.437230
C281	C28	0.850900	0.909700	0.461030
H261	H26	0.905500	0.906100	0.469630
H271	H27	0.809600	0.852900	0.447230
H281	H28	0.816000	0.914400	0.481330
O51	O5	0.030900	0.179400	0.778070
O61	O6	0.958300	0.796300	0.775470
N51	N5	0.858300	0.602100	0.780770
C291	C29	0.858700	0.607800	0.818370
H291	H29	0.856000	0.658300	0.829570
C301	C30	0.863200	0.538000	0.839270
H301	H30	0.863400	0.541800	0.864470
C311	C31	0.867200	0.462500	0.822570
C321	C32	0.866800	0.456800	0.784870
H311	H31	0.869500	0.406300	0.773670
C331	C33	0.862300	0.526600	0.763970
H321	H32	0.862100	0.522800	0.738770
N61	N6	0.871700	0.244300	0.886170
C341	C34	0.871500	0.237100	0.848570
H331	H33	0.871700	0.184800	0.837770
C351	C35	0.871200	0.308100	0.827070
H341	H34	0.871100	0.303300	0.801870
C361	C36	0.871100	0.386400	0.843170
C371	C37	0.871200	0.393600	0.880770
H351	H35	0.871100	0.445900	0.891570
C381	C38	0.871500	0.322500	0.902270
H361	H36	0.871600	0.327400	0.927370
C391	C39	0.898200	0.033800	0.794770
H371	H37	0.914500	0.048000	0.819970
H381	H38	0.873100	0.966400	0.790570
H391	H39	0.850600	0.050700	0.788270
C401	C40	0.985200	0.089900	0.772370
C411	C41	0.002900	0.887600	0.770570
C421	C42	0.090300	0.941200	0.794370
H401	H40	0.093900	0.999400	0.802970
H411	H41	0.147100	0.956700	0.780570
H421	H42	0.085600	0.901600	0.814670
O71	O7	0.179400	0.148500	0.611400
O81	O8	0.796300	0.838000	0.608800
N71	N7	0.602100	0.743800	0.614100
C431	C43	0.607800	0.749100	0.651700
H431	H43	0.658300	0.802300	0.662900
C441	C44	0.538000	0.674800	0.672600
H441	H44	0.541800	0.678400	0.697800
C451	C45	0.462500	0.595300	0.655900
C461	C46	0.456800	0.590000	0.618200
H451	H45	0.406300	0.536800	0.607000
C471	C47	0.526600	0.664300	0.597300
H461	H46	0.522800	0.660700	0.572100
N81	N8	0.244300	0.372600	0.719500
C481	C48	0.237100	0.365600	0.681900
H471	H47	0.184800	0.313100	0.671100
C491	C49	0.308100	0.436900	0.660400
H481	H48	0.303300	0.432200	0.635200
C501	C50	0.386400	0.515300	0.676500
C511	C51	0.393600	0.522400	0.714100
H491	H49	0.445900	0.574800	0.724900
C521	C52	0.322500	0.451000	0.735600
H501	H50	0.327400	0.455800	0.760700
C531	C53	0.033800	0.135600	0.628100
H511	H51	0.048000	0.133500	0.653300
H521	H52	0.966400	0.093300	0.623900
H531	H53	0.050700	0.200100	0.621600
C541	C54	0.089900	0.104700	0.605700
C551	C55	0.887600	0.884700	0.603900
C561	C56	0.941200	0.850900	0.627700
H541	H54	0.999400	0.905500	0.636300
H551	H55	0.956700	0.809600	0.613900
H561	H56	0.901600	0.816000	0.648000
O91	O9	0.851500	0.030900	0.944730
O101	O10	0.162000	0.958300	0.942130
N91	N9	0.256200	0.858300	0.947430
C571	C57	0.250900	0.858700	0.985030
H571	H57	0.197700	0.856000	0.996230
C581	C58	0.325200	0.863200	0.005930
H581	H58	0.321600	0.863400	0.031130
C591	C59	0.404700	0.867200	0.989230
C601	C60	0.410000	0.866800	0.951530
H591	H59	0.463200	0.869500	0.940330
C611	C61	0.335700	0.862300	0.930630
H601	H60	0.339300	0.862100	0.905430
N101	N10	0.627400	0.871700	0.052830
C621	C62	0.634400	0.871500	0.015230
H611	H61	0.686900	0.871700	0.004430
C631	C63	0.563100	0.871200	0.993730
H621	H62	0.567800	0.871100	0.968530
C641	C64	0.484700	0.871100	0.009830
C651	C65	0.477600	0.871200	0.047430
H631	H63	0.425200	0.871100	0.058230
C661	C66	0.549000	0.871500	0.068930
H641	H64	0.544200	0.871600	0.094030
C671	C67	0.864400	0.898200	0.961430
H651	H65	0.866500	0.914500	0.986630
H661	H66	0.906700	0.873100	0.957230
H671	H67	0.799900	0.850600	0.954930
C681	C68	0.895300	0.985200	0.939030
C691	C69	0.115300	0.002900	0.937230
C701	C70	0.149100	0.090300	0.961030
H681	H68	0.094500	0.093900	0.969630
H691	H69	0.190400	0.147100	0.947230
H701	H70	0.184000	0.085600	0.981330
O111	O11	0.969100	0.820600	0.278070
O121	O12	0.041700	0.203700	0.275470
N111	N11	0.141700	0.397900	0.280770
C711	C71	0.141300	0.392200	0.318370
H711	H71	0.144000	0.341700	0.329570
C721	C72	0.136800	0.462000	0.339270
H721	H72	0.136600	0.458200	0.364470
C731	C73	0.132800	0.537500	0.322570
C741	C74	0.133200	0.543200	0.284870
H731	H73	0.130500	0.593700	0.273670
C751	C75	0.137700	0.473400	0.263970
H741	H74	0.137900	0.477200	0.238770
N121	N12	0.128300	0.755700	0.386170
C761	C76	0.128500	0.762900	0.348570
H751	H75	0.128300	0.815200	0.337770
C771	C77	0.128800	0.691900	0.327070
H761	H76	0.128900	0.696700	0.301870
C781	C78	0.128900	0.613600	0.343170
C791	C79	0.128800	0.606400	0.380770
H771	H77	0.128900	0.554100	0.391570
C801	C80	0.128500	0.677500	0.402270
H781	H78	0.128400	0.672600	0.427370
C811	C81	0.101800	0.966200	0.294770
H791	H79	0.085500	0.952000	0.319970
H801	H80	0.126900	0.033600	0.290570
H811	H81	0.149400	0.949300	0.288270
C821	C82	0.014800	0.910100	0.272370
C831	C83	0.997100	0.112400	0.270570
C841	C84	0.909700	0.058800	0.294370
H821	H82	0.906100	0.000600	0.302970
H831	H83	0.852900	0.043300	0.280570
H841	H84	0.914400	0.098400	0.314670
O131	O13	0.851500	0.820600	0.221930
O141	O14	0.162000	0.203700	0.224530
N131	N13	0.256200	0.397900	0.219230
C851	C85	0.250900	0.392200	0.181630
H851	H85	0.197700	0.341700	0.170430
C861	C86	0.325200	0.462000	0.160730
H861	H86	0.321600	0.458200	0.135530
C871	C87	0.404700	0.537500	0.177430
C881	C88	0.410000	0.543200	0.215130
H871	H87	0.463200	0.593700	0.226330
C891	C89	0.335700	0.473400	0.236030
H881	H88	0.339300	0.477200	0.261230
N141	N14	0.627400	0.755700	0.113830
C901	C90	0.634400	0.762900	0.151430
H891	H89	0.686900	0.815200	0.162230
C911	C91	0.563100	0.691900	0.172930
H901	H90	0.567800	0.696700	0.198130
C921	C92	0.484700	0.613600	0.156830
C931	C93	0.477600	0.606400	0.119230
H911	H91	0.425200	0.554100	0.108430
C941	C94	0.549000	0.677500	0.097730
H921	H92	0.544200	0.672600	0.072630
C951	C95	0.864400	0.966200	0.205230
H931	H93	0.866500	0.952000	0.180030
H941	H94	0.906700	0.033600	0.209430
H951	H95	0.799900	0.949300	0.211730
C961	C96	0.895300	0.910100	0.227630
C971	C97	0.115300	0.112400	0.229430
C981	C98	0.149100	0.058800	0.205630
H961	H96	0.094500	0.000600	0.197030
H971	H97	0.190400	0.043300	0.219430
H981	H98	0.184000	0.098400	0.185330
O151	O15	0.969100	0.148500	0.888600
O161	O16	0.041700	0.838000	0.891200
N151	N15	0.141700	0.743800	0.885900
C991	C99	0.141300	0.749100	0.848300
H991	H99	0.144000	0.802300	0.837100
C1001	C100	0.136800	0.674800	0.827400
H1001	H100	0.136600	0.678400	0.802200
C1011	C101	0.132800	0.595300	0.844100
C1021	C102	0.133200	0.590000	0.881800
H1011	H101	0.130500	0.536800	0.893000
C1031	C103	0.137700	0.664300	0.902700
H1021	H102	0.137900	0.660700	0.927900
N161	N16	0.128300	0.372600	0.780500
C1041	C104	0.128500	0.365600	0.818100
H1031	H103	0.128300	0.313100	0.828900
C1051	C105	0.128800	0.436900	0.839600
H1041	H104	0.128900	0.432200	0.864800
C1061	C106	0.128900	0.515300	0.823500
C1071	C107	0.128800	0.522400	0.785900
H1051	H105	0.128900	0.574800	0.775100
C1081	C108	0.128500	0.451000	0.764400
H1061	H106	0.128400	0.455800	0.739300
C1091	C109	0.101800	0.135600	0.871900
H1071	H107	0.085500	0.133500	0.846700
H1081	H108	0.126900	0.093300	0.876100
H1091	H109	0.149400	0.200100	0.878400
C1101	C110	0.014800	0.104700	0.894300
C1111	C111	0.997100	0.884700	0.896100
C1121	C112	0.909700	0.850900	0.872300
H1101	H110	0.906100	0.905500	0.863700
H1111	H111	0.852900	0.809600	0.886100
H1121	H112	0.914400	0.816000	0.852000
O171	O17	0.179400	0.030900	0.555270
O181	O18	0.796300	0.958300	0.557870
N171	N17	0.602100	0.858300	0.552570
C1131	C113	0.607800	0.858700	0.514970
H1131	H113	0.658300	0.856000	0.503770
C1141	C114	0.538000	0.863200	0.494070
H1141	H114	0.541800	0.863400	0.468870
C1151	C115	0.462500	0.867200	0.510770
C1161	C116	0.456800	0.866800	0.548470
H1151	H115	0.406300	0.869500	0.559670
C1171	C117	0.526600	0.862300	0.569370
H1161	H116	0.522800	0.862100	0.594570
N181	N18	0.244300	0.871700	0.447170
C1181	C118	0.237100	0.871500	0.484770
H1171	H117	0.184800	0.871700	0.495570
C1191	C119	0.308100	0.871200	0.506270
H1181	H118	0.303300	0.871100	0.531470
C1201	C120	0.386400	0.871100	0.490170
C1211	C121	0.393600	0.871200	0.452570
H1191	H119	0.445900	0.871100	0.441770
C1221	C122	0.322500	0.871500	0.431070
H1201	H120	0.327400	0.871600	0.405970
C1231	C123	0.033800	0.898200	0.538570
H1211	H121	0.048000	0.914500	0.513370
H1221	H122	0.966400	0.873100	0.542770
H1231	H123	0.050700	0.850600	0.545070
C1241	C124	0.089900	0.985200	0.560970
C1251	C125	0.887600	0.002900	0.562770
C1261	C126	0.941200	0.090300	0.538970
H1241	H124	0.999400	0.093900	0.530370
H1251	H125	0.956700	0.147100	0.552770
H1261	H126	0.901600	0.085600	0.518670
O191	O19	0.148500	0.179400	0.721930
O201	O20	0.838000	0.796300	0.724530
N191	N19	0.743800	0.602100	0.719230
C1271	C127	0.749100	0.607800	0.681630
H1271	H127	0.802300	0.658300	0.670430
C1281	C128	0.674800	0.538000	0.660730
H1281	H128	0.678400	0.541800	0.635530
C1291	C129	0.595300	0.462500	0.677430
C1301	C130	0.590000	0.456800	0.715130
H1291	H129	0.536800	0.406300	0.726330
C1311	C131	0.664300	0.526600	0.736030
H1301	H130	0.660700	0.522800	0.761230
N201	N20	0.372600	0.244300	0.613830
C1321	C132	0.365600	0.237100	0.651430
H1311	H131	0.313100	0.184800	0.662230
C1331	C133	0.436900	0.308100	0.672930
H1321	H132	0.432200	0.303300	0.698130
C1341	C134	0.515300	0.386400	0.656830
C1351	C135	0.522400	0.393600	0.619230
H1331	H133	0.574800	0.445900	0.608430
C1361	C136	0.451000	0.322500	0.597730
H1341	H134	0.455800	0.327400	0.572630
C1371	C137	0.135600	0.033800	0.705230
H1351	H135	0.133500	0.048000	0.680030
H1361	H136	0.093300	0.966400	0.709430
H1371	H137	0.200100	0.050700	0.711730
C1381	C138	0.104700	0.089900	0.727630
C1391	C139	0.884700	0.887600	0.729430
C1401	C140	0.850900	0.941200	0.705630
H1381	H138	0.905500	0.999400	0.697030
H1391	H139	0.809600	0.956700	0.719430
H1401	H140	0.816000	0.901600	0.685330
O211	O21	0.030900	0.851500	0.388600
O221	O22	0.958300	0.162000	0.391200
N211	N21	0.858300	0.256200	0.385900
C1411	C141	0.858700	0.250900	0.348300
H1411	H141	0.856000	0.197700	0.337100
C1421	C142	0.863200	0.325200	0.327400
H1421	H142	0.863400	0.321600	0.302200
C1431	C143	0.867200	0.404700	0.344100
C1441	C144	0.866800	0.410000	0.381800
H1431	H143	0.869500	0.463200	0.393000
C1451	C145	0.862300	0.335700	0.402700
H1441	H144	0.862100	0.339300	0.427900
N221	N22	0.871700	0.627400	0.280500
C1461	C146	0.871500	0.634400	0.318100
H1451	H145	0.871700	0.686900	0.328900
C1471	C147	0.871200	0.563100	0.339600
H1461	H146	0.871100	0.567800	0.364800
C1481	C148	0.871100	0.484700	0.323500
C1491	C149	0.871200	0.477600	0.285900
H1471	H147	0.871100	0.425200	0.275100
C1501	C150	0.871500	0.549000	0.264400
H1481	H148	0.871600	0.544200	0.239300
C1511	C151	0.898200	0.864400	0.371900
H1491	H149	0.914500	0.866500	0.346700
H1501	H150	0.873100	0.906700	0.376100
H1511	H151	0.850600	0.799900	0.378400
C1521	C152	0.985200	0.895300	0.394300
C1531	C153	0.002900	0.115300	0.396100
C1541	C154	0.090300	0.149100	0.372300
H1521	H152	0.093900	0.094500	0.363700
H1531	H153	0.147100	0.190400	0.386100
H1541	H154	0.085600	0.184000	0.352000
O231	O23	0.820600	0.969100	0.055270
O241	O24	0.203700	0.041700	0.057870
N231	N23	0.397900	0.141700	0.052570
C1551	C155	0.392200	0.141300	0.014970
H1551	H155	0.341700	0.144000	0.003770
C1561	C156	0.462000	0.136800	0.994070
H1561	H156	0.458200	0.136600	0.968870
C1571	C157	0.537500	0.132800	0.010770
C1581	C158	0.543200	0.133200	0.048470
H1571	H157	0.593700	0.130500	0.059670
C1591	C159	0.473400	0.137700	0.069370
H1581	H158	0.477200	0.137900	0.094570
N241	N24	0.755700	0.128300	0.947170
C1601	C160	0.762900	0.128500	0.984770
H1591	H159	0.815200	0.128300	0.995570
C1611	C161	0.691900	0.128800	0.006270
H1601	H160	0.696700	0.128900	0.031470
C1621	C162	0.613600	0.128900	0.990170
C1631	C163	0.606400	0.128800	0.952570
H1611	H161	0.554100	0.128900	0.941770
C1641	C164	0.677500	0.128500	0.931070
H1621	H162	0.672600	0.128400	0.905970
C1651	C165	0.966200	0.101800	0.038570
H1631	H163	0.952000	0.085500	0.013370
H1641	H164	0.033600	0.126900	0.042770
H1651	H165	0.949300	0.149400	0.045070
C1661	C166	0.910100	0.014800	0.060970
C1671	C167	0.112400	0.997100	0.062770
C1681	C168	0.058800	0.909700	0.038970
H1661	H166	0.000600	0.906100	0.030370
H1671	H167	0.043300	0.852900	0.052770
H1681	H168	0.098400	0.914400	0.018670
Cu11	Cu1	0.297770	0.148890	0.083330
Cu21	Cu2	0.726170	0.863090	0.083330
C1691	C169	0.954800	0.977400	0.083330
C1701	C170	0.069600	0.034800	0.083330
Cu31	Cu3	0.851110	0.148890	0.416670
Cu41	Cu4	0.136910	0.863080	0.416670
C1711	C171	0.022600	0.977400	0.416670
C1721	C172	0.965200	0.034800	0.416670
Cu51	Cu5	0.851110	0.702230	0.750000
Cu61	Cu6	0.136920	0.273830	0.750000
C1731	C173	0.022600	0.045200	0.750000
C1741	C174	0.965200	0.930400	0.750000
Cu71	Cu7	0.702230	0.851110	0.583330
Cu81	Cu8	0.273830	0.136910	0.583330
C1751	C175	0.045200	0.022600	0.583330
C1761	C176	0.930400	0.965200	0.583330
Cu91	Cu9	0.148890	0.851110	0.916670
Cu101	Cu10	0.863090	0.136920	0.916670
C1771	C177	0.977400	0.022600	0.916670
C1781	C178	0.034800	0.965200	0.916670
Cu111	Cu11	0.148890	0.297770	0.250000
Cu121	Cu12	0.863090	0.726170	0.250000
C1791	C179	0.977400	0.954800	0.250000
C1801	C180	0.034800	0.069600	0.250000
