data_LEQVIN_clean_PM
_symmetry_space_group_name_H-M	'P1'
_cell_length_a	8.803000
_cell_length_b	8.803000
_cell_length_c	25.292000
_cell_angle_alpha	90.000000
_cell_angle_beta	90.000000
_cell_angle_gamma	120.000000
_symmetry_Int_Tables_number 1

loop_
_symmetry_equiv_pos_as_xyz
'x,y,z'

loop_
_atom_site_label
_atom_site_type_symbol
_atom_site_fract_x
_atom_site_fract_y
_atom_site_fract_z
P11	P1	0.045530	0.489200	0.070290
H11	H1	0.055000	0.626000	0.068600
O11	O1	0.132200	0.489600	0.122720
O21	O2	0.855200	0.338800	0.069440
O31	O3	0.147300	0.479500	0.022790
P21	P2	0.712200	0.822530	0.403620
H21	H2	0.721670	0.959330	0.401930
O41	O4	0.798870	0.822930	0.456050
O51	O5	0.521870	0.672130	0.402770
O61	O6	0.813970	0.812830	0.356120
P31	P3	0.378860	0.155870	0.736960
H31	H3	0.388330	0.292670	0.735270
O71	O7	0.465530	0.156270	0.789390
O81	O8	0.188530	0.005470	0.736110
O91	O9	0.480630	0.146170	0.689460
P41	P4	0.510800	0.556330	0.070290
H41	H4	0.374000	0.429000	0.068600
O101	O10	0.510400	0.642600	0.122720
O111	O11	0.661200	0.516400	0.069440
O121	O12	0.520500	0.667800	0.022790
P51	P5	0.177470	0.889660	0.403620
H51	H5	0.040670	0.762330	0.401930
O131	O13	0.177070	0.975930	0.456050
O141	O14	0.327870	0.849730	0.402770
O151	O15	0.187170	0.001130	0.356120
P61	P6	0.844130	0.223000	0.736960
H61	H6	0.707330	0.095670	0.735270
O161	O16	0.843730	0.309270	0.789390
O171	O17	0.994530	0.183070	0.736110
O181	O18	0.853830	0.334470	0.689460
P71	P7	0.443670	0.954470	0.070290
H71	H7	0.571000	0.945000	0.068600
O191	O19	0.357400	0.867800	0.122720
O201	O20	0.483600	0.144800	0.069440
O211	O21	0.332200	0.852700	0.022790
P81	P8	0.110340	0.287800	0.403620
H81	H8	0.237670	0.278330	0.401930
O221	O22	0.024070	0.201130	0.456050
O231	O23	0.150270	0.478130	0.402770
O241	O24	0.998870	0.186030	0.356120
P91	P9	0.777000	0.621140	0.736960
H91	H9	0.904330	0.611670	0.735270
O251	O25	0.690730	0.534470	0.789390
O261	O26	0.816930	0.811470	0.736110
O271	O27	0.665530	0.519370	0.689460
P101	P10	0.954470	0.510800	0.929710
H101	H10	0.945000	0.374000	0.931400
O281	O28	0.867800	0.510400	0.877280
O291	O29	0.144800	0.661200	0.930560
O301	O30	0.852700	0.520500	0.977210
P111	P11	0.621140	0.844130	0.263040
H111	H11	0.611670	0.707330	0.264730
O311	O31	0.534470	0.843730	0.210610
O321	O32	0.811470	0.994530	0.263890
O331	O33	0.519370	0.853830	0.310540
P121	P12	0.287800	0.177470	0.596380
H121	H12	0.278330	0.040670	0.598070
O341	O34	0.201130	0.177070	0.543950
O351	O35	0.478130	0.327870	0.597230
O361	O36	0.186030	0.187170	0.643880
P131	P13	0.489200	0.443670	0.929710
H131	H13	0.626000	0.571000	0.931400
O371	O37	0.489600	0.357400	0.877280
O381	O38	0.338800	0.483600	0.930560
O391	O39	0.479500	0.332200	0.977210
P141	P14	0.155870	0.777000	0.263040
H141	H14	0.292670	0.904330	0.264730
O401	O40	0.156270	0.690730	0.210610
O411	O41	0.005470	0.816930	0.263890
O421	O42	0.146170	0.665530	0.310540
P151	P15	0.822530	0.110340	0.596380
H151	H15	0.959330	0.237670	0.598070
O431	O43	0.822930	0.024070	0.543950
O441	O44	0.672130	0.150270	0.597230
O451	O45	0.812830	0.998870	0.643880
P161	P16	0.556330	0.045530	0.929710
H161	H16	0.429000	0.055000	0.931400
O461	O46	0.642600	0.132200	0.877280
O471	O47	0.516400	0.855200	0.930560
O481	O48	0.667800	0.147300	0.977210
P171	P17	0.223000	0.378860	0.263040
H171	H17	0.095670	0.388330	0.264730
O491	O49	0.309270	0.465530	0.210610
O501	O50	0.183070	0.188530	0.263890
O511	O51	0.334470	0.480630	0.310540
P181	P18	0.889660	0.712200	0.596380
H181	H18	0.762330	0.721670	0.598070
O521	O52	0.975930	0.798870	0.543950
O531	O53	0.849730	0.521870	0.597230
O541	O54	0.001130	0.813970	0.643880
Fe11	Fe1	0.666670	0.333330	0.022270
Fe21	Fe2	0.333330	0.666670	0.355600
Fe31	Fe3	0.000000	0.000000	0.688940
Fe41	Fe4	0.333330	0.666670	0.977730
Fe51	Fe5	0.000000	0.000000	0.311060
Fe61	Fe6	0.666670	0.333330	0.644400
Fe71	Fe7	0.333330	0.666670	0.166670
Fe81	Fe8	0.000000	0.000000	0.500000
Fe91	Fe9	0.666670	0.333330	0.833330
