data_LERNEC01_clean_PM
_symmetry_space_group_name_H-M	'P1'
_cell_length_a	10.061600
_cell_length_b	12.874600
_cell_length_c	12.922000
_cell_angle_alpha	71.217400
_cell_angle_beta	67.087700
_cell_angle_gamma	66.998500
_symmetry_Int_Tables_number 1

loop_
_symmetry_equiv_pos_as_xyz
'x,y,z'

loop_
_atom_site_label
_atom_site_type_symbol
_atom_site_fract_x
_atom_site_fract_y
_atom_site_fract_z
Co11	Co1	0.967890	0.613410	0.896990
Co21	Co2	0.250420	0.166680	0.262980
Co31	Co3	0.478290	0.886590	0.603010
Co41	Co4	0.680080	0.333320	0.237020
Co51	Co5	0.032110	0.386590	0.103010
Co61	Co6	0.749580	0.833320	0.737020
Co71	Co7	0.521710	0.113410	0.396990
Co81	Co8	0.319920	0.666680	0.762980
H11	H1	0.855100	0.879000	0.161600
H21	H2	0.998600	0.745600	0.046800
H31	H3	0.635600	0.731800	0.013600
H41	H4	0.484400	0.876100	0.115300
H51	H5	0.136000	0.959200	0.741800
H61	H6	0.014800	0.016100	0.596500
H71	H7	0.137700	0.911200	0.538200
H81	H8	0.895700	0.621000	0.338400
H91	H9	0.791000	0.754400	0.453200
H101	H10	0.381000	0.768200	0.486400
H111	H11	0.475800	0.623900	0.384700
H121	H12	0.837000	0.540800	0.758200
H131	H13	0.627400	0.483900	0.903500
H141	H14	0.587100	0.588800	0.961800
H151	H15	0.144900	0.121000	0.838400
H161	H16	0.001400	0.254400	0.953200
H171	H17	0.364400	0.268200	0.986400
H181	H18	0.515600	0.123900	0.884700
H191	H19	0.864000	0.040800	0.258200
H201	H20	0.985200	0.983900	0.403500
H211	H21	0.862300	0.088800	0.461800
H221	H22	0.104300	0.379000	0.661600
H231	H23	0.209000	0.245600	0.546800
H241	H24	0.619000	0.231800	0.513600
H251	H25	0.524200	0.376100	0.615300
H261	H26	0.163000	0.459200	0.241800
H271	H27	0.372600	0.516100	0.096500
H281	H28	0.412900	0.411200	0.038200
C11	C1	0.552800	0.985400	0.221800
C21	C2	0.653300	0.892700	0.150900
C31	C3	0.807200	0.851800	0.129800
C41	C4	0.891800	0.770900	0.062300
C51	C5	0.681900	0.764400	0.041400
C61	C6	0.590400	0.848600	0.104200
C71	C7	0.033400	0.837800	0.753200
C81	C8	0.152400	0.904400	0.695000
C91	C9	0.122600	0.968800	0.580600
C101	C10	0.219400	0.047300	0.502100
C111	C11	0.760000	0.514600	0.278200
C121	C12	0.696900	0.607300	0.349100
C131	C13	0.788800	0.648200	0.370200
C141	C14	0.725000	0.729100	0.437700
C151	C15	0.487700	0.735600	0.458600
C161	C16	0.543200	0.651400	0.395800
C171	C17	0.624400	0.662200	0.746800
C181	C18	0.751800	0.595600	0.805000
C191	C19	0.672000	0.531200	0.919400
C201	C20	0.768800	0.452700	0.997900
C211	C21	0.447200	0.014600	0.778200
C221	C22	0.346700	0.107300	0.849100
C231	C23	0.192800	0.148200	0.870200
C241	C24	0.108200	0.229100	0.937700
C251	C25	0.318100	0.235600	0.958600
C261	C26	0.409600	0.151400	0.895800
C271	C27	0.966600	0.162200	0.246800
C281	C28	0.847600	0.095600	0.305000
C291	C29	0.877400	0.031200	0.419400
C301	C30	0.780600	0.952700	0.497900
C311	C31	0.240000	0.485400	0.721800
C321	C32	0.303100	0.392700	0.650900
C331	C33	0.211200	0.351800	0.629800
C341	C34	0.275000	0.270900	0.562300
C351	C35	0.512300	0.264400	0.541400
C361	C36	0.456800	0.348600	0.604200
C371	C37	0.375600	0.337800	0.253200
C381	C38	0.248200	0.404400	0.195000
C391	C39	0.328000	0.468800	0.080600
C401	C40	0.231200	0.547300	0.002100
N11	N1	0.833500	0.725600	0.017200
N21	N2	0.576300	0.774400	0.482800
N31	N3	0.166500	0.274400	0.982800
N41	N4	0.423700	0.225600	0.517200
O11	O1	0.610660	0.006180	0.279500
O21	O2	0.419860	0.030680	0.215200
O31	O3	0.083210	0.732180	0.794000
O41	O4	0.896400	0.891400	0.763800
O51	O5	0.299730	0.824340	0.679200
O61	O6	0.356930	0.023640	0.498100
O71	O7	0.157600	0.123700	0.432700
O81	O8	0.896340	0.493820	0.220500
O91	O9	0.665740	0.469320	0.284800
O101	O10	0.609390	0.767820	0.706000
O111	O11	0.551600	0.608600	0.736200
O121	O12	0.803270	0.675660	0.820800
O131	O13	0.878670	0.476360	0.001900
O141	O14	0.714000	0.376300	0.067300
O151	O15	0.389340	0.993820	0.720500
O161	O16	0.580140	0.969320	0.784800
O171	O17	0.916790	0.267820	0.206000
O181	O18	0.103600	0.108600	0.236200
O191	O19	0.700270	0.175660	0.320800
O201	O20	0.643070	0.976360	0.501900
O211	O21	0.842400	0.876300	0.567300
O221	O22	0.103660	0.506180	0.779500
O231	O23	0.334260	0.530680	0.715200
O241	O24	0.390610	0.232180	0.294000
O251	O25	0.448400	0.391400	0.263800
O261	O26	0.196730	0.324340	0.179200
O271	O27	0.121330	0.523640	0.998100
O281	O28	0.286000	0.623700	0.932700
