data_LEVDIB_clean_PM
_symmetry_space_group_name_H-M	'P1'
_cell_length_a	18.567600
_cell_length_b	18.567600
_cell_length_c	20.438600
_cell_angle_alpha	62.984700
_cell_angle_beta	62.984700
_cell_angle_gamma	60.000000
_symmetry_Int_Tables_number 1

loop_
_symmetry_equiv_pos_as_xyz
'x,y,z'

loop_
_atom_site_label
_atom_site_type_symbol
_atom_site_fract_x
_atom_site_fract_y
_atom_site_fract_z
Cu11	Cu1	0.497230	0.068450	0.937780
Cu21	Cu2	0.068450	0.496540	0.937780
Cu31	Cu3	0.496540	0.497230	0.937780
Cu41	Cu4	0.502770	0.503460	0.062220
Cu51	Cu5	0.931550	0.502770	0.062220
Cu61	Cu6	0.503460	0.931550	0.062220
H11	H1	0.772500	0.772000	0.990700
H21	H2	0.764900	0.976100	0.797500
H31	H3	0.979500	0.761600	0.801700
H41	H4	0.938200	0.813200	0.671200
H51	H5	0.891500	0.008500	0.777100
H61	H6	0.958400	0.201100	0.598300
H71	H7	0.993500	0.128800	0.514300
H81	H8	0.772000	0.464800	0.990700
H91	H9	0.976100	0.461500	0.797500
H101	H10	0.761600	0.457200	0.801700
H111	H11	0.813200	0.577400	0.671200
H121	H12	0.008500	0.322900	0.777100
H131	H13	0.201100	0.242200	0.598300
H141	H14	0.128800	0.363400	0.514300
H151	H15	0.464800	0.772500	0.990700
H161	H16	0.461500	0.764900	0.797500
H171	H17	0.457200	0.979500	0.801700
H181	H18	0.577400	0.938200	0.671200
H191	H19	0.322900	0.891500	0.777100
H201	H20	0.242200	0.958400	0.598300
H211	H21	0.363400	0.993500	0.514300
H221	H22	0.227500	0.535200	0.009300
H231	H23	0.235100	0.538500	0.202500
H241	H24	0.020500	0.542800	0.198300
H251	H25	0.061800	0.422600	0.328800
H261	H26	0.108500	0.677100	0.222900
H271	H27	0.041600	0.757800	0.401700
H281	H28	0.006500	0.636600	0.485700
H291	H29	0.228000	0.227500	0.009300
H301	H30	0.023900	0.235100	0.202500
H311	H31	0.238400	0.020500	0.198300
H321	H32	0.186800	0.061800	0.328800
H331	H33	0.991500	0.108500	0.222900
H341	H34	0.798900	0.041600	0.401700
H351	H35	0.871200	0.006500	0.485700
H361	H36	0.535200	0.228000	0.009300
H371	H37	0.538500	0.023900	0.202500
H381	H38	0.542800	0.238400	0.198300
H391	H39	0.422600	0.186800	0.328800
H401	H40	0.677100	0.991500	0.222900
H411	H41	0.757800	0.798900	0.401700
H421	H42	0.636600	0.871200	0.485700
C11	C1	0.931390	0.656890	0.937930
C21	C2	0.884110	0.752610	0.900070
C31	C3	0.797340	0.798440	0.939580
C41	C4	0.751380	0.878680	0.904060
C51	C5	0.660850	0.921950	0.941950
C61	C6	0.794690	0.919290	0.822730
C71	C7	0.876830	0.875130	0.784510
C81	C8	0.922220	0.791320	0.825640
C91	C9	0.923440	0.909740	0.702580
C101	C10	0.944520	0.866420	0.652240
C111	C11	0.975070	0.902470	0.573490
C121	C12	0.984540	0.981840	0.545080
C131	C13	0.963560	0.025160	0.595420
C141	C14	0.933010	0.989110	0.674170
C151	C15	0.911920	0.032520	0.724540
C161	C16	0.921500	0.111900	0.696100
C171	C17	0.951900	0.148000	0.617500
C181	C18	0.973020	0.104620	0.567040
C191	C19	0.656890	0.473790	0.937930
C201	C20	0.752610	0.463210	0.900070
C211	C21	0.798440	0.464640	0.939580
C221	C22	0.878680	0.465880	0.904060
C231	C23	0.921950	0.475250	0.941950
C241	C24	0.919290	0.463290	0.822730
C251	C25	0.875130	0.463530	0.784510
C261	C26	0.791320	0.460820	0.825640
C271	C27	0.909740	0.464240	0.702580
C281	C28	0.866420	0.536820	0.652240
C291	C29	0.902470	0.548970	0.573490
C301	C30	0.981840	0.488540	0.545080
C311	C31	0.025160	0.415860	0.595420
C321	C32	0.989110	0.403710	0.674170
C331	C33	0.032520	0.331020	0.724540
C341	C34	0.111900	0.270500	0.696100
C351	C35	0.148000	0.282600	0.617500
C361	C36	0.104620	0.355320	0.567040
C371	C37	0.473790	0.931390	0.937930
C381	C38	0.463210	0.884110	0.900070
C391	C39	0.464640	0.797340	0.939580
C401	C40	0.465880	0.751380	0.904060
C411	C41	0.475250	0.660850	0.941950
C421	C42	0.463290	0.794690	0.822730
C431	C43	0.463530	0.876830	0.784510
C441	C44	0.460820	0.922220	0.825640
C451	C45	0.464240	0.923440	0.702580
C461	C46	0.536820	0.944520	0.652240
C471	C47	0.548970	0.975070	0.573490
C481	C48	0.488540	0.984540	0.545080
C491	C49	0.415860	0.963560	0.595420
C501	C50	0.403710	0.933010	0.674170
C511	C51	0.331020	0.911920	0.724540
C521	C52	0.270500	0.921500	0.696100
C531	C53	0.282600	0.951900	0.617500
C541	C54	0.355320	0.973020	0.567040
C551	C55	0.068610	0.526210	0.062070
C561	C56	0.115890	0.536790	0.099930
C571	C57	0.202660	0.535360	0.060420
C581	C58	0.248620	0.534120	0.095940
C591	C59	0.339150	0.524750	0.058050
C601	C60	0.205310	0.536710	0.177270
C611	C61	0.123170	0.536470	0.215490
C621	C62	0.077780	0.539180	0.174360
C631	C63	0.076560	0.535760	0.297420
C641	C64	0.055480	0.463180	0.347760
C651	C65	0.024930	0.451030	0.426510
C661	C66	0.015460	0.511460	0.454920
C671	C67	0.036440	0.584140	0.404580
C681	C68	0.066990	0.596290	0.325830
C691	C69	0.088080	0.668980	0.275460
C701	C70	0.078500	0.729500	0.303900
C711	C71	0.048100	0.717400	0.382500
C721	C72	0.026980	0.644680	0.432960
C731	C73	0.343110	0.068610	0.062070
C741	C74	0.247390	0.115890	0.099930
C751	C75	0.201560	0.202660	0.060420
C761	C76	0.121320	0.248620	0.095940
C771	C77	0.078050	0.339150	0.058050
C781	C78	0.080710	0.205310	0.177270
C791	C79	0.124870	0.123170	0.215490
C801	C80	0.208680	0.077780	0.174360
C811	C81	0.090260	0.076560	0.297420
C821	C82	0.133580	0.055480	0.347760
C831	C83	0.097530	0.024930	0.426510
C841	C84	0.018160	0.015460	0.454920
C851	C85	0.974840	0.036440	0.404580
C861	C86	0.010890	0.066990	0.325830
C871	C87	0.967480	0.088080	0.275460
C881	C88	0.888100	0.078500	0.303900
C891	C89	0.852000	0.048100	0.382500
C901	C90	0.895380	0.026980	0.432960
C911	C91	0.526210	0.343110	0.062070
C921	C92	0.536790	0.247390	0.099930
C931	C93	0.535360	0.201560	0.060420
C941	C94	0.534120	0.121320	0.095940
C951	C95	0.524750	0.078050	0.058050
C961	C96	0.536710	0.080710	0.177270
C971	C97	0.536470	0.124870	0.215490
C981	C98	0.539180	0.208680	0.174360
C991	C99	0.535760	0.090260	0.297420
C1001	C100	0.463180	0.133580	0.347760
C1011	C101	0.451030	0.097530	0.426510
C1021	C102	0.511460	0.018160	0.454920
C1031	C103	0.584140	0.974840	0.404580
C1041	C104	0.596290	0.010890	0.325830
C1051	C105	0.668980	0.967480	0.275460
C1061	C106	0.729500	0.888100	0.303900
C1071	C107	0.717400	0.852000	0.382500
C1081	C108	0.644680	0.895380	0.432960
Cl11	Cl1	0.926300	0.171700	0.749800
Cl21	Cl2	0.171700	0.152200	0.749800
Cl31	Cl3	0.152200	0.926300	0.749800
Cl41	Cl4	0.073700	0.847800	0.250200
Cl51	Cl5	0.828300	0.073700	0.250200
Cl61	Cl6	0.847800	0.828300	0.250200
O11	O1	0.003680	0.619080	0.899560
O21	O2	0.886820	0.626620	0.005340
O31	O3	0.627560	0.886760	0.004620
O41	O4	0.622900	0.002200	0.901600
O51	O5	0.021600	0.848100	0.519700
O61	O6	0.619080	0.477680	0.899560
O71	O7	0.626620	0.481220	0.005340
O81	O8	0.886760	0.481060	0.004620
O91	O9	0.002200	0.473300	0.901600
O101	O10	0.848100	0.610600	0.519700
O111	O11	0.477680	0.003680	0.899560
O121	O12	0.481220	0.886820	0.005340
O131	O13	0.481060	0.627560	0.004620
O141	O14	0.473300	0.622900	0.901600
O151	O15	0.610600	0.021600	0.519700
O161	O16	0.996320	0.522320	0.100440
O171	O17	0.113180	0.518780	0.994660
O181	O18	0.372440	0.518940	0.995380
O191	O19	0.377100	0.526700	0.098400
O201	O20	0.978400	0.389400	0.480300
O211	O21	0.380920	0.996320	0.100440
O221	O22	0.373380	0.113180	0.994660
O231	O23	0.113240	0.372440	0.995380
O241	O24	0.997800	0.377100	0.098400
O251	O25	0.151900	0.978400	0.480300
O261	O26	0.522320	0.380920	0.100440
O271	O27	0.518780	0.373380	0.994660
O281	O28	0.518940	0.113240	0.995380
O291	O29	0.526700	0.997800	0.098400
O301	O30	0.389400	0.151900	0.480300
