data_LEVNOQ01_clean_PM
_symmetry_space_group_name_H-M	'P1'
_cell_length_a	11.094200
_cell_length_b	11.094200
_cell_length_c	21.044000
_cell_angle_alpha	95.893000
_cell_angle_beta	95.893000
_cell_angle_gamma	107.215000
_symmetry_Int_Tables_number 1

loop_
_symmetry_equiv_pos_as_xyz
'x,y,z'

loop_
_atom_site_label
_atom_site_type_symbol
_atom_site_fract_x
_atom_site_fract_y
_atom_site_fract_z
Mg11	Mg1	0.982160	0.498980	0.194290
Mg21	Mg2	0.501020	0.017840	0.305710
Mg31	Mg3	0.017840	0.501020	0.805710
Mg41	Mg4	0.498980	0.982160	0.694290
Mg51	Mg5	0.752660	0.247340	0.250000
Mg61	Mg6	0.247340	0.752660	0.750000
H11	H1	0.898600	0.979600	0.149300
H21	H2	0.012600	0.242400	0.030400
H31	H3	0.934600	0.824200	0.078000
H41	H4	0.719800	0.606400	0.077000
H51	H5	0.476700	0.264300	0.097500
H61	H6	0.663500	0.724900	0.989400
H71	H7	0.005500	0.722300	0.396000
H81	H8	0.949900	0.343500	0.389200
H91	H9	0.031400	0.748200	0.507100
H101	H10	0.020400	0.101400	0.350700
H111	H11	0.757600	0.987400	0.469600
H121	H12	0.175800	0.065400	0.422000
H131	H13	0.393600	0.280200	0.423000
H141	H14	0.735700	0.523300	0.402500
H151	H15	0.275100	0.336500	0.510600
H161	H16	0.277700	0.994500	0.104000
H171	H17	0.656500	0.050100	0.110800
H181	H18	0.251800	0.968600	0.992900
H191	H19	0.101400	0.020400	0.850700
H201	H20	0.987400	0.757600	0.969600
H211	H21	0.065400	0.175800	0.922000
H221	H22	0.280200	0.393600	0.923000
H231	H23	0.523300	0.735700	0.902500
H241	H24	0.336500	0.275100	0.010600
H251	H25	0.994500	0.277700	0.604000
H261	H26	0.050100	0.656500	0.610800
H271	H27	0.968600	0.251800	0.492900
H281	H28	0.979600	0.898600	0.649300
H291	H29	0.242400	0.012600	0.530400
H301	H30	0.824200	0.934600	0.578000
H311	H31	0.606400	0.719800	0.577000
H321	H32	0.264300	0.476700	0.597500
H331	H33	0.724900	0.663500	0.489400
H341	H34	0.722300	0.005500	0.896000
H351	H35	0.343500	0.949900	0.889200
H361	H36	0.748200	0.031400	0.007100
C11	C1	0.918500	0.224500	0.141080
C21	C2	0.950400	0.127000	0.095590
C31	C3	0.927900	0.000500	0.109790
C41	C4	0.994000	0.157000	0.039100
C51	C5	0.012400	0.063200	0.992680
C61	C6	0.947800	0.907800	0.067160
C71	C7	0.706380	0.424820	0.150200
C81	C8	0.612820	0.435580	0.095280
C91	C9	0.641990	0.539810	0.063290
C101	C10	0.557700	0.549700	0.010020
C111	C11	0.497100	0.336300	0.075160
C121	C12	0.586200	0.657200	0.976230
C131	C13	0.962140	0.515860	0.310650
C141	C14	0.974280	0.528320	0.382420
C151	C15	0.999950	0.650650	0.418020
C161	C16	0.967770	0.425230	0.413560
C171	C17	0.987570	0.438630	0.482240
C181	C18	0.016700	0.666100	0.483730
C191	C19	0.775500	0.081500	0.358920
C201	C20	0.873000	0.049600	0.404410
C211	C21	0.999500	0.072100	0.390210
C221	C22	0.843000	0.006000	0.460900
C231	C23	0.936800	0.987600	0.507320
C241	C24	0.092200	0.052200	0.432840
C251	C25	0.575180	0.293620	0.349800
C261	C26	0.564420	0.387180	0.404720
C271	C27	0.460190	0.358010	0.436710
C281	C28	0.450300	0.442300	0.489980
C291	C29	0.663700	0.502900	0.424840
C301	C30	0.342800	0.413800	0.523770
C311	C31	0.484140	0.037860	0.189350
C321	C32	0.471680	0.025720	0.117580
C331	C33	0.349350	0.000050	0.081980
C341	C34	0.574770	0.032230	0.086440
C351	C35	0.561370	0.012430	0.017760
C361	C36	0.333900	0.983300	0.016270
C371	C37	0.081500	0.775500	0.858920
C381	C38	0.049600	0.873000	0.904410
C391	C39	0.072100	0.999500	0.890210
C401	C40	0.006000	0.843000	0.960900
C411	C41	0.987600	0.936800	0.007320
C421	C42	0.052200	0.092200	0.932840
C431	C43	0.293620	0.575180	0.849800
C441	C44	0.387180	0.564420	0.904720
C451	C45	0.358010	0.460190	0.936710
C461	C46	0.442300	0.450300	0.989980
C471	C47	0.502900	0.663700	0.924840
C481	C48	0.413800	0.342800	0.023770
C491	C49	0.037860	0.484140	0.689350
C501	C50	0.025720	0.471680	0.617580
C511	C51	0.000050	0.349350	0.581980
C521	C52	0.032230	0.574770	0.586440
C531	C53	0.012430	0.561370	0.517760
C541	C54	0.983300	0.333900	0.516270
C551	C55	0.224500	0.918500	0.641080
C561	C56	0.127000	0.950400	0.595590
C571	C57	0.000500	0.927900	0.609790
C581	C58	0.157000	0.994000	0.539100
C591	C59	0.063200	0.012400	0.492680
C601	C60	0.907800	0.947800	0.567160
C611	C61	0.424820	0.706380	0.650200
C621	C62	0.435580	0.612820	0.595280
C631	C63	0.539810	0.641990	0.563290
C641	C64	0.549700	0.557700	0.510020
C651	C65	0.336300	0.497100	0.575160
C661	C66	0.657200	0.586200	0.476230
C671	C67	0.515860	0.962140	0.810650
C681	C68	0.528320	0.974280	0.882420
C691	C69	0.650650	0.999950	0.918020
C701	C70	0.425230	0.967770	0.913560
C711	C71	0.438630	0.987570	0.982240
C721	C72	0.666100	0.016700	0.983730
O11	O1	0.957150	0.338250	0.132170
O21	O2	0.855330	0.181210	0.184910
O31	O3	0.812070	0.510450	0.160870
O41	O4	0.672670	0.329950	0.179890
O51	O5	0.005570	0.612930	0.284510
O61	O6	0.916050	0.406330	0.276330
O71	O7	0.661750	0.042850	0.367830
O81	O8	0.818790	0.144670	0.315090
O91	O9	0.489550	0.187930	0.339130
O101	O10	0.670050	0.327330	0.320110
O111	O11	0.387070	0.994430	0.215490
O121	O12	0.593670	0.083950	0.223670
O131	O13	0.042850	0.661750	0.867830
O141	O14	0.144670	0.818790	0.815090
O151	O15	0.187930	0.489550	0.839130
O161	O16	0.327330	0.670050	0.820110
O171	O17	0.994430	0.387070	0.715490
O181	O18	0.083950	0.593670	0.723670
O191	O19	0.338250	0.957150	0.632170
O201	O20	0.181210	0.855330	0.684910
O211	O21	0.510450	0.812070	0.660870
O221	O22	0.329950	0.672670	0.679890
O231	O23	0.612930	0.005570	0.784510
O241	O24	0.406330	0.916050	0.776330
