data_LEVNOQ_clean_PM
_symmetry_space_group_name_H-M	'P1'
_cell_length_a	11.257700
_cell_length_b	11.257700
_cell_length_c	20.946000
_cell_angle_alpha	95.882200
_cell_angle_beta	95.882200
_cell_angle_gamma	106.478000
_symmetry_Int_Tables_number 1

loop_
_symmetry_equiv_pos_as_xyz
'x,y,z'

loop_
_atom_site_label
_atom_site_type_symbol
_atom_site_fract_x
_atom_site_fract_y
_atom_site_fract_z
Mg11	Mg1	0.507080	0.022340	0.307860
Mg21	Mg2	0.977660	0.492920	0.192140
Mg31	Mg3	0.492920	0.977660	0.692140
Mg41	Mg4	0.022340	0.507080	0.807860
Mg51	Mg5	0.752390	0.247610	0.250000
Mg61	Mg6	0.247610	0.752390	0.750000
H11	H1	0.652700	0.047300	0.109200
H21	H2	0.286700	0.003500	0.105400
H31	H3	0.740000	0.022800	0.005000
H41	H4	0.761500	0.989300	0.469600
H51	H5	0.017900	0.104900	0.353300
H61	H6	0.829000	0.932400	0.576400
H71	H7	0.721700	0.652300	0.491000
H81	H8	0.730800	0.515400	0.404100
H91	H9	0.396900	0.287700	0.422300
H101	H10	0.952700	0.347300	0.390800
H111	H11	0.996500	0.713300	0.394600
H121	H12	0.977200	0.260000	0.495000
H131	H13	0.010700	0.238500	0.030400
H141	H14	0.895100	0.982100	0.146700
H151	H15	0.067600	0.171000	0.923600
H161	H16	0.347700	0.278300	0.009000
H171	H17	0.484600	0.269200	0.095900
H181	H18	0.712300	0.603100	0.077700
H191	H19	0.347300	0.952700	0.890800
H201	H20	0.713300	0.996500	0.894600
H211	H21	0.260000	0.977200	0.995000
H221	H22	0.238500	0.010700	0.530400
H231	H23	0.982100	0.895100	0.646700
H241	H24	0.171000	0.067600	0.423600
H251	H25	0.278300	0.347700	0.509000
H261	H26	0.269200	0.484600	0.595900
H271	H27	0.603100	0.712300	0.577700
H281	H28	0.047300	0.652700	0.609200
H291	H29	0.003500	0.286700	0.605400
H301	H30	0.022800	0.740000	0.505000
H311	H31	0.989300	0.761500	0.969600
H321	H32	0.104900	0.017900	0.853300
H331	H33	0.932400	0.829000	0.076400
H341	H34	0.652300	0.721700	0.991000
H351	H35	0.515400	0.730800	0.904100
H361	H36	0.287700	0.396900	0.922300
C11	C1	0.560300	0.011500	0.017900
C21	C2	0.573800	0.031400	0.085700
C31	C3	0.474400	0.027800	0.117700
C41	C4	0.354700	0.006100	0.083300
C51	C5	0.661000	0.011000	0.982500
C61	C6	0.488900	0.041900	0.190900
C71	C7	0.938100	0.987500	0.507800
C81	C8	0.843800	0.007800	0.461200
C91	C9	0.873700	0.053100	0.405600
C101	C10	0.997700	0.075300	0.391900
C111	C11	0.909600	0.946000	0.565800
C121	C12	0.778900	0.085100	0.359500
C131	C13	0.655500	0.579900	0.477600
C141	C14	0.661100	0.497100	0.425800
C151	C15	0.564800	0.386200	0.405000
C161	C16	0.461700	0.361100	0.436200
C171	C17	0.549000	0.555400	0.510600
C181	C18	0.576500	0.293100	0.350400
C191	C19	0.988500	0.439700	0.482100
C201	C20	0.968600	0.426200	0.414300
C211	C21	0.972200	0.525600	0.382300
C221	C22	0.993900	0.645300	0.416700
C231	C23	0.989000	0.339000	0.517500
C241	C24	0.958100	0.511100	0.309100
C251	C25	0.012500	0.061900	0.992200
C261	C26	0.992200	0.156200	0.038800
C271	C27	0.946900	0.126300	0.094400
C281	C28	0.924700	0.002300	0.108100
C291	C29	0.054000	0.090400	0.934200
C301	C30	0.914900	0.221100	0.140500
C311	C31	0.420100	0.344500	0.022400
C321	C32	0.502900	0.338900	0.074200
C331	C33	0.613800	0.435200	0.095000
C341	C34	0.638900	0.538300	0.063800
C351	C35	0.444600	0.451000	0.989400
C361	C36	0.706900	0.423500	0.149600
C371	C37	0.439700	0.988500	0.982100
C381	C38	0.426200	0.968600	0.914300
C391	C39	0.525600	0.972200	0.882300
C401	C40	0.645300	0.993900	0.916700
C411	C41	0.339000	0.989000	0.017500
C421	C42	0.511100	0.958100	0.809100
C431	C43	0.061900	0.012500	0.492200
C441	C44	0.156200	0.992200	0.538800
C451	C45	0.126300	0.946900	0.594400
C461	C46	0.002300	0.924700	0.608100
C471	C47	0.090400	0.054000	0.434200
C481	C48	0.221100	0.914900	0.640500
C491	C49	0.344500	0.420100	0.522400
C501	C50	0.338900	0.502900	0.574200
C511	C51	0.435200	0.613800	0.595000
C521	C52	0.538300	0.638900	0.563800
C531	C53	0.451000	0.444600	0.489400
C541	C54	0.423500	0.706900	0.649600
C551	C55	0.011500	0.560300	0.517900
C561	C56	0.031400	0.573800	0.585700
C571	C57	0.027800	0.474400	0.617700
C581	C58	0.006100	0.354700	0.583300
C591	C59	0.011000	0.661000	0.482500
C601	C60	0.041900	0.488900	0.690900
C611	C61	0.987500	0.938100	0.007800
C621	C62	0.007800	0.843800	0.961200
C631	C63	0.053100	0.873700	0.905600
C641	C64	0.075300	0.997700	0.891900
C651	C65	0.946000	0.909600	0.065800
C661	C66	0.085100	0.778900	0.859500
C671	C67	0.579900	0.655500	0.977600
C681	C68	0.497100	0.661100	0.925800
C691	C69	0.386200	0.564800	0.905000
C701	C70	0.361100	0.461700	0.936200
C711	C71	0.555400	0.549000	0.010600
C721	C72	0.293100	0.576500	0.850400
O11	O1	0.666200	0.047400	0.369000
O21	O2	0.820000	0.146800	0.315900
O31	O3	0.596400	0.086800	0.223570
O41	O4	0.393500	0.999700	0.217570
O51	O5	0.668600	0.326000	0.320660
O61	O6	0.492400	0.190200	0.340400
O71	O7	0.952600	0.333800	0.131000
O81	O8	0.853200	0.180000	0.184100
O91	O9	0.913200	0.403600	0.276430
O101	O10	0.000300	0.606500	0.282430
O111	O11	0.674000	0.331400	0.179340
O121	O12	0.809800	0.507600	0.159600
O131	O13	0.333800	0.952600	0.631000
O141	O14	0.180000	0.853200	0.684100
O151	O15	0.403600	0.913200	0.776430
O161	O16	0.606500	0.000300	0.782430
O171	O17	0.331400	0.674000	0.679340
O181	O18	0.507600	0.809800	0.659600
O191	O19	0.047400	0.666200	0.869000
O201	O20	0.146800	0.820000	0.815900
O211	O21	0.086800	0.596400	0.723570
O221	O22	0.999700	0.393500	0.717570
O231	O23	0.326000	0.668600	0.820660
O241	O24	0.190200	0.492400	0.840400
