data_LEVPAF_clean_PM
_symmetry_space_group_name_H-M	'P1'
_cell_length_a	31.864000
_cell_length_b	31.864000
_cell_length_c	12.846000
_cell_angle_alpha	90.000000
_cell_angle_beta	90.000000
_cell_angle_gamma	120.000000
_symmetry_Int_Tables_number 1

loop_
_symmetry_equiv_pos_as_xyz
'x,y,z'

loop_
_atom_site_label
_atom_site_type_symbol
_atom_site_fract_x
_atom_site_fract_y
_atom_site_fract_z
C11	C1	0.021590	0.294120	0.034000
C21	C2	0.055460	0.275270	0.022700
H11	H1	0.069200	0.276500	0.958100
C31	C3	0.066430	0.256640	0.103300
H21	H2	0.050100	0.254900	0.164600
C41	C4	0.100120	0.238430	0.110800
C51	C5	0.131110	0.240460	0.032000
C61	C6	0.164870	0.225500	0.049600
H31	H3	0.185500	0.227300	0.996300
C71	C7	0.167700	0.207930	0.146700
H41	H4	0.190700	0.198600	0.158600
C81	C8	0.136800	0.204000	0.224900
H51	H5	0.138100	0.191400	0.289300
C91	C9	0.103530	0.219040	0.207300
H61	H6	0.082600	0.216200	0.260900
C101	C10	0.910980	0.240130	0.814900
H71	H7	0.915500	0.250800	0.883500
C111	C11	0.865660	0.203580	0.785300
H81	H8	0.840600	0.190200	0.833800
C121	C12	0.857320	0.186710	0.683600
C131	C13	0.896770	0.209160	0.615500
H91	H9	0.893200	0.199700	0.546000
C141	C14	0.940850	0.245190	0.651200
H101	H10	0.966600	0.259400	0.604600
N11	N1	0.948520	0.260860	0.750100
O11	O1	0.010440	0.300350	0.124500
O21	O2	0.004540	0.303760	0.954700
O31	O3	0.128570	0.257860	0.938200
H111	H11	0.155500	0.271400	0.911200
Zn11	Zn1	0.016730	0.309260	0.802860
C151	C15	0.688260	0.627450	0.367330
C161	C16	0.722130	0.608600	0.356030
H121	H12	0.735870	0.609830	0.291430
C171	C17	0.733100	0.589970	0.436630
H131	H13	0.716770	0.588230	0.497930
C181	C18	0.766790	0.571760	0.444130
C191	C19	0.797780	0.573790	0.365330
C201	C20	0.831540	0.558830	0.382930
H141	H14	0.852170	0.560630	0.329630
C211	C21	0.834370	0.541260	0.480030
H151	H15	0.857370	0.531930	0.491930
C221	C22	0.803470	0.537330	0.558230
H161	H16	0.804770	0.524730	0.622630
C231	C23	0.770200	0.552370	0.540630
H171	H17	0.749270	0.549530	0.594230
C241	C24	0.577650	0.573460	0.148230
H181	H18	0.582170	0.584130	0.216830
C251	C25	0.532330	0.536910	0.118630
H191	H19	0.507270	0.523530	0.167130
C261	C26	0.523990	0.520040	0.016930
C271	C27	0.563440	0.542490	0.948830
H201	H20	0.559870	0.533030	0.879330
C281	C28	0.607520	0.578520	0.984530
H211	H21	0.633270	0.592730	0.937930
N21	N2	0.615190	0.594190	0.083430
O41	O4	0.677110	0.633680	0.457830
O51	O5	0.671210	0.637090	0.288030
O61	O6	0.795240	0.591190	0.271530
H221	H22	0.822170	0.604730	0.244530
Zn21	Zn2	0.683390	0.642600	0.136190
C291	C29	0.354920	0.960790	0.700670
C301	C30	0.388790	0.941940	0.689370
H231	H23	0.402530	0.943170	0.624770
C311	C31	0.399760	0.923310	0.769970
H241	H24	0.383430	0.921570	0.831270
C321	C32	0.433450	0.905100	0.777470
C331	C33	0.464440	0.907130	0.698670
C341	C34	0.498200	0.892170	0.716270
H251	H25	0.518830	0.893970	0.662970
C351	C35	0.501030	0.874600	0.813370
H261	H26	0.524030	0.865270	0.825270
C361	C36	0.470130	0.870670	0.891570
H271	H27	0.471430	0.858070	0.955970
C371	C37	0.436860	0.885710	0.873970
H281	H28	0.415930	0.882870	0.927570
C381	C38	0.244310	0.906800	0.481570
H291	H29	0.248830	0.917470	0.550170
C391	C39	0.198990	0.870250	0.451970
H301	H30	0.173930	0.856870	0.500470
C401	C40	0.190650	0.853380	0.350270
C411	C41	0.230100	0.875830	0.282170
H311	H31	0.226530	0.866370	0.212670
C421	C42	0.274180	0.911860	0.317870
H321	H32	0.299930	0.926070	0.271270
N31	N3	0.281850	0.927530	0.416770
O71	O7	0.343770	0.967020	0.791170
O81	O8	0.337870	0.970430	0.621370
O91	O9	0.461900	0.924530	0.604870
H331	H33	0.488830	0.938070	0.577870
Zn31	Zn3	0.350060	0.975930	0.469530
C431	C43	0.705880	0.727470	0.034000
C441	C44	0.724730	0.780190	0.022700
H341	H34	0.723500	0.792700	0.958100
C451	C45	0.743360	0.809790	0.103300
H351	H35	0.745100	0.795200	0.164600
C461	C46	0.761570	0.861690	0.110800
C471	C47	0.759540	0.890650	0.032000
C481	C48	0.774500	0.939370	0.049600
H361	H36	0.772700	0.958200	0.996300
C491	C49	0.792070	0.959770	0.146700
H371	H37	0.801400	0.992100	0.158600
C501	C50	0.796000	0.932800	0.224900
H381	H38	0.808600	0.946700	0.289300
C511	C51	0.780960	0.884490	0.207300
H391	H39	0.783800	0.866400	0.260900
C521	C52	0.759870	0.670850	0.814900
H401	H40	0.749200	0.664700	0.883500
C531	C53	0.796420	0.662080	0.785300
H411	H41	0.809800	0.650400	0.833800
C541	C54	0.813290	0.670610	0.683600
C551	C55	0.790840	0.687610	0.615500
H421	H42	0.800300	0.693500	0.546000
C561	C56	0.754810	0.695660	0.651200
H431	H43	0.740600	0.707200	0.604600
N41	N4	0.739140	0.687660	0.750100
O101	O10	0.699650	0.710090	0.124500
O111	O11	0.696240	0.700780	0.954700
O121	O12	0.742140	0.870710	0.938200
H441	H44	0.728600	0.884100	0.911200
Zn41	Zn4	0.690740	0.707460	0.802860
C571	C57	0.372550	0.060800	0.367330
C581	C58	0.391400	0.113520	0.356030
H451	H45	0.390170	0.126030	0.291430
C591	C59	0.410030	0.143120	0.436630
H461	H46	0.411770	0.128530	0.497930
C601	C60	0.428240	0.195020	0.444130
C611	C61	0.426210	0.223980	0.365330
C621	C62	0.441170	0.272700	0.382930
H471	H47	0.439370	0.291530	0.329630
C631	C63	0.458740	0.293100	0.480030
H481	H48	0.468070	0.325430	0.491930
C641	C64	0.462670	0.266130	0.558230
H491	H49	0.475270	0.280030	0.622630
C651	C65	0.447630	0.217820	0.540630
H501	H50	0.450470	0.199730	0.594230
C661	C66	0.426540	0.004180	0.148230
H511	H51	0.415870	0.998030	0.216830
C671	C67	0.463090	0.995410	0.118630
H521	H52	0.476470	0.983730	0.167130
C681	C68	0.479960	0.003940	0.016930
C691	C69	0.457510	0.020940	0.948830
H531	H53	0.466970	0.026830	0.879330
C701	C70	0.421480	0.028990	0.984530
H541	H54	0.407270	0.040530	0.937930
N51	N5	0.405810	0.020990	0.083430
O131	O13	0.366320	0.043420	0.457830
O141	O14	0.362910	0.034110	0.288030
O151	O15	0.408810	0.204040	0.271530
H551	H55	0.395270	0.217430	0.244530
Zn51	Zn5	0.357400	0.040800	0.136190
C711	C71	0.039210	0.394140	0.700670
C721	C72	0.058060	0.446860	0.689370
H561	H56	0.056830	0.459370	0.624770
C731	C73	0.076690	0.476460	0.769970
H571	H57	0.078430	0.461870	0.831270
C741	C74	0.094900	0.528360	0.777470
C751	C75	0.092870	0.557320	0.698670
C761	C76	0.107830	0.606040	0.716270
H581	H58	0.106030	0.624870	0.662970
C771	C77	0.125400	0.626440	0.813370
H591	H59	0.134730	0.658770	0.825270
C781	C78	0.129330	0.599470	0.891570
H601	H60	0.141930	0.613370	0.955970
C791	C79	0.114290	0.551160	0.873970
H611	H61	0.117130	0.533070	0.927570
C801	C80	0.093200	0.337520	0.481570
H621	H62	0.082530	0.331370	0.550170
C811	C81	0.129750	0.328750	0.451970
H631	H63	0.143130	0.317070	0.500470
C821	C82	0.146620	0.337280	0.350270
C831	C83	0.124170	0.354280	0.282170
H641	H64	0.133630	0.360170	0.212670
C841	C84	0.088140	0.362330	0.317870
H651	H65	0.073930	0.373870	0.271270
N61	N6	0.072470	0.354330	0.416770
O161	O16	0.032980	0.376760	0.791170
O171	O17	0.029570	0.367450	0.621370
O181	O18	0.075470	0.537380	0.604870
H661	H66	0.061930	0.550770	0.577870
Zn61	Zn6	0.024070	0.374130	0.469530
C851	C85	0.272530	0.978410	0.034000
C861	C86	0.219810	0.944540	0.022700
H671	H67	0.207300	0.930800	0.958100
C871	C87	0.190210	0.933570	0.103300
H681	H68	0.204800	0.949900	0.164600
C881	C88	0.138310	0.899880	0.110800
C891	C89	0.109350	0.868890	0.032000
C901	C90	0.060630	0.835130	0.049600
H691	H69	0.041800	0.814500	0.996300
C911	C91	0.040230	0.832300	0.146700
H701	H70	0.007900	0.809300	0.158600
C921	C92	0.067200	0.863200	0.224900
H711	H71	0.053300	0.861900	0.289300
C931	C93	0.115510	0.896470	0.207300
H721	H72	0.133600	0.917400	0.260900
C941	C94	0.329150	0.089020	0.814900
H731	H73	0.335300	0.084500	0.883500
C951	C95	0.337920	0.134340	0.785300
H741	H74	0.349600	0.159400	0.833800
C961	C96	0.329390	0.142680	0.683600
C971	C97	0.312390	0.103230	0.615500
H751	H75	0.306500	0.106800	0.546000
C981	C98	0.304340	0.059150	0.651200
H761	H76	0.292800	0.033400	0.604600
N71	N7	0.312340	0.051480	0.750100
O191	O19	0.289910	0.989560	0.124500
O201	O20	0.299220	0.995460	0.954700
O211	O21	0.129290	0.871430	0.938200
H771	H77	0.115900	0.844500	0.911200
Zn71	Zn7	0.292540	0.983270	0.802860
C991	C99	0.939200	0.311740	0.367330
C1001	C100	0.886480	0.277870	0.356030
H781	H78	0.873970	0.264130	0.291430
C1011	C101	0.856880	0.266900	0.436630
H791	H79	0.871470	0.283230	0.497930
C1021	C102	0.804980	0.233210	0.444130
C1031	C103	0.776020	0.202220	0.365330
C1041	C104	0.727300	0.168460	0.382930
H801	H80	0.708470	0.147830	0.329630
C1051	C105	0.706900	0.165630	0.480030
H811	H81	0.674570	0.142630	0.491930
C1061	C106	0.733870	0.196530	0.558230
H821	H82	0.719970	0.195230	0.622630
C1071	C107	0.782180	0.229800	0.540630
H831	H83	0.800270	0.250730	0.594230
C1081	C108	0.995820	0.422350	0.148230
H841	H84	0.001970	0.417830	0.216830
C1091	C109	0.004590	0.467670	0.118630
H851	H85	0.016270	0.492730	0.167130
C1101	C110	0.996060	0.476010	0.016930
C1111	C111	0.979060	0.436560	0.948830
H861	H86	0.973170	0.440130	0.879330
C1121	C112	0.971010	0.392480	0.984530
H871	H87	0.959470	0.366730	0.937930
N81	N8	0.979010	0.384810	0.083430
O221	O22	0.956580	0.322890	0.457830
O231	O23	0.965890	0.328790	0.288030
O241	O24	0.795960	0.204760	0.271530
H881	H88	0.782570	0.177830	0.244530
Zn81	Zn8	0.959200	0.316610	0.136190
C1131	C113	0.605860	0.645080	0.700670
C1141	C114	0.553140	0.611210	0.689370
H891	H89	0.540630	0.597470	0.624770
C1151	C115	0.523540	0.600240	0.769970
H901	H90	0.538130	0.616570	0.831270
C1161	C116	0.471640	0.566550	0.777470
C1171	C117	0.442680	0.535560	0.698670
C1181	C118	0.393960	0.501800	0.716270
H911	H91	0.375130	0.481170	0.662970
C1191	C119	0.373560	0.498970	0.813370
H921	H92	0.341230	0.475970	0.825270
C1201	C120	0.400530	0.529870	0.891570
H931	H93	0.386630	0.528570	0.955970
C1211	C121	0.448840	0.563140	0.873970
H941	H94	0.466930	0.584070	0.927570
C1221	C122	0.662480	0.755690	0.481570
H951	H95	0.668630	0.751170	0.550170
C1231	C123	0.671250	0.801010	0.451970
H961	H96	0.682930	0.826070	0.500470
C1241	C124	0.662720	0.809350	0.350270
C1251	C125	0.645720	0.769900	0.282170
H971	H97	0.639830	0.773470	0.212670
C1261	C126	0.637670	0.725820	0.317870
H981	H98	0.626130	0.700070	0.271270
N91	N9	0.645670	0.718150	0.416770
O251	O25	0.623240	0.656230	0.791170
O261	O26	0.632550	0.662130	0.621370
O271	O27	0.462620	0.538100	0.604870
H991	H99	0.449230	0.511170	0.577870
Zn91	Zn9	0.625870	0.649940	0.469530
C1271	C127	0.978410	0.705880	0.966000
C1281	C128	0.944540	0.724730	0.977300
H1001	H100	0.930800	0.723500	0.041900
C1291	C129	0.933570	0.743360	0.896700
H1011	H101	0.949900	0.745100	0.835400
C1301	C130	0.899880	0.761570	0.889200
C1311	C131	0.868890	0.759540	0.968000
C1321	C132	0.835130	0.774500	0.950400
H1021	H102	0.814500	0.772700	0.003700
C1331	C133	0.832300	0.792070	0.853300
H1031	H103	0.809300	0.801400	0.841400
C1341	C134	0.863200	0.796000	0.775100
H1041	H104	0.861900	0.808600	0.710700
C1351	C135	0.896470	0.780960	0.792700
H1051	H105	0.917400	0.783800	0.739100
C1361	C136	0.089020	0.759870	0.185100
H1061	H106	0.084500	0.749200	0.116500
C1371	C137	0.134340	0.796420	0.214700
H1071	H107	0.159400	0.809800	0.166200
C1381	C138	0.142680	0.813290	0.316400
C1391	C139	0.103230	0.790840	0.384500
H1081	H108	0.106800	0.800300	0.454000
C1401	C140	0.059150	0.754810	0.348800
H1091	H109	0.033400	0.740600	0.395400
N101	N10	0.051480	0.739140	0.249900
O281	O28	0.989560	0.699650	0.875500
O291	O29	0.995460	0.696240	0.045300
O301	O30	0.871430	0.742140	0.061800
H1101	H110	0.844500	0.728600	0.088800
Zn101	Zn10	0.983270	0.690740	0.197140
C1411	C141	0.645080	0.039210	0.299330
C1421	C142	0.611210	0.058060	0.310630
H1111	H111	0.597470	0.056830	0.375230
C1431	C143	0.600240	0.076690	0.230030
H1121	H112	0.616570	0.078430	0.168730
C1441	C144	0.566550	0.094900	0.222530
C1451	C145	0.535560	0.092870	0.301330
C1461	C146	0.501800	0.107830	0.283730
H1131	H113	0.481170	0.106030	0.337030
C1471	C147	0.498970	0.125400	0.186630
H1141	H114	0.475970	0.134730	0.174730
C1481	C148	0.529870	0.129330	0.108430
H1151	H115	0.528570	0.141930	0.044030
C1491	C149	0.563140	0.114290	0.126030
H1161	H116	0.584070	0.117130	0.072430
C1501	C150	0.755690	0.093200	0.518430
H1171	H117	0.751170	0.082530	0.449830
C1511	C151	0.801010	0.129750	0.548030
H1181	H118	0.826070	0.143130	0.499530
C1521	C152	0.809350	0.146620	0.649730
C1531	C153	0.769900	0.124170	0.717830
H1191	H119	0.773470	0.133630	0.787330
C1541	C154	0.725820	0.088140	0.682130
H1201	H120	0.700070	0.073930	0.728730
N111	N11	0.718150	0.072470	0.583230
O311	O31	0.656230	0.032980	0.208830
O321	O32	0.662130	0.029570	0.378630
O331	O33	0.538100	0.075470	0.395130
H1211	H121	0.511170	0.061930	0.422130
Zn111	Zn11	0.649940	0.024070	0.530470
C1551	C155	0.311740	0.372550	0.632670
C1561	C156	0.277870	0.391400	0.643970
H1221	H122	0.264130	0.390170	0.708570
C1571	C157	0.266900	0.410030	0.563370
H1231	H123	0.283230	0.411770	0.502070
C1581	C158	0.233210	0.428240	0.555870
C1591	C159	0.202220	0.426210	0.634670
C1601	C160	0.168460	0.441170	0.617070
H1241	H124	0.147830	0.439370	0.670370
C1611	C161	0.165630	0.458740	0.519970
H1251	H125	0.142630	0.468070	0.508070
C1621	C162	0.196530	0.462670	0.441770
H1261	H126	0.195230	0.475270	0.377370
C1631	C163	0.229800	0.447630	0.459370
H1271	H127	0.250730	0.450470	0.405770
C1641	C164	0.422350	0.426540	0.851770
H1281	H128	0.417830	0.415870	0.783170
C1651	C165	0.467670	0.463090	0.881370
H1291	H129	0.492730	0.476470	0.832870
C1661	C166	0.476010	0.479960	0.983070
C1671	C167	0.436560	0.457510	0.051170
H1301	H130	0.440130	0.466970	0.120670
C1681	C168	0.392480	0.421480	0.015470
H1311	H131	0.366730	0.407270	0.062070
N121	N12	0.384810	0.405810	0.916570
O341	O34	0.322890	0.366320	0.542170
O351	O35	0.328790	0.362910	0.711970
O361	O36	0.204760	0.408810	0.728470
H1321	H132	0.177830	0.395270	0.755470
Zn121	Zn12	0.316610	0.357400	0.863810
C1691	C169	0.294120	0.272530	0.966000
C1701	C170	0.275270	0.219810	0.977300
H1331	H133	0.276500	0.207300	0.041900
C1711	C171	0.256640	0.190210	0.896700
H1341	H134	0.254900	0.204800	0.835400
C1721	C172	0.238430	0.138310	0.889200
C1731	C173	0.240460	0.109350	0.968000
C1741	C174	0.225500	0.060630	0.950400
H1351	H135	0.227300	0.041800	0.003700
C1751	C175	0.207930	0.040230	0.853300
H1361	H136	0.198600	0.007900	0.841400
C1761	C176	0.204000	0.067200	0.775100
H1371	H137	0.191400	0.053300	0.710700
C1771	C177	0.219040	0.115510	0.792700
H1381	H138	0.216200	0.133600	0.739100
C1781	C178	0.240130	0.329150	0.185100
H1391	H139	0.250800	0.335300	0.116500
C1791	C179	0.203580	0.337920	0.214700
H1401	H140	0.190200	0.349600	0.166200
C1801	C180	0.186710	0.329390	0.316400
C1811	C181	0.209160	0.312390	0.384500
H1411	H141	0.199700	0.306500	0.454000
C1821	C182	0.245190	0.304340	0.348800
H1421	H142	0.259400	0.292800	0.395400
N131	N13	0.260860	0.312340	0.249900
O371	O37	0.300350	0.289910	0.875500
O381	O38	0.303760	0.299220	0.045300
O391	O39	0.257860	0.129290	0.061800
H1431	H143	0.271400	0.115900	0.088800
Zn131	Zn13	0.309260	0.292540	0.197140
C1831	C183	0.960790	0.605860	0.299330
C1841	C184	0.941940	0.553140	0.310630
H1441	H144	0.943170	0.540630	0.375230
C1851	C185	0.923310	0.523540	0.230030
H1451	H145	0.921570	0.538130	0.168730
C1861	C186	0.905100	0.471640	0.222530
C1871	C187	0.907130	0.442680	0.301330
C1881	C188	0.892170	0.393960	0.283730
H1461	H146	0.893970	0.375130	0.337030
C1891	C189	0.874600	0.373560	0.186630
H1471	H147	0.865270	0.341230	0.174730
C1901	C190	0.870670	0.400530	0.108430
H1481	H148	0.858070	0.386630	0.044030
C1911	C191	0.885710	0.448840	0.126030
H1491	H149	0.882870	0.466930	0.072430
C1921	C192	0.906800	0.662480	0.518430
H1501	H150	0.917470	0.668630	0.449830
C1931	C193	0.870250	0.671250	0.548030
H1511	H151	0.856870	0.682930	0.499530
C1941	C194	0.853380	0.662720	0.649730
C1951	C195	0.875830	0.645720	0.717830
H1521	H152	0.866370	0.639830	0.787330
C1961	C196	0.911860	0.637670	0.682130
H1531	H153	0.926070	0.626130	0.728730
N141	N14	0.927530	0.645670	0.583230
O401	O40	0.967020	0.623240	0.208830
O411	O41	0.970430	0.632550	0.378630
O421	O42	0.924530	0.462620	0.395130
H1541	H154	0.938070	0.449230	0.422130
Zn141	Zn14	0.975930	0.625870	0.530470
C1971	C197	0.627450	0.939200	0.632670
C1981	C198	0.608600	0.886480	0.643970
H1551	H155	0.609830	0.873970	0.708570
C1991	C199	0.589970	0.856880	0.563370
H1561	H156	0.588230	0.871470	0.502070
C2001	C200	0.571760	0.804980	0.555870
C2011	C201	0.573790	0.776020	0.634670
C2021	C202	0.558830	0.727300	0.617070
H1571	H157	0.560630	0.708470	0.670370
C2031	C203	0.541260	0.706900	0.519970
H1581	H158	0.531930	0.674570	0.508070
C2041	C204	0.537330	0.733870	0.441770
H1591	H159	0.524730	0.719970	0.377370
C2051	C205	0.552370	0.782180	0.459370
H1601	H160	0.549530	0.800270	0.405770
C2061	C206	0.573460	0.995820	0.851770
H1611	H161	0.584130	0.001970	0.783170
C2071	C207	0.536910	0.004590	0.881370
H1621	H162	0.523530	0.016270	0.832870
C2081	C208	0.520040	0.996060	0.983070
C2091	C209	0.542490	0.979060	0.051170
H1631	H163	0.533030	0.973170	0.120670
C2101	C210	0.578520	0.971010	0.015470
H1641	H164	0.592730	0.959470	0.062070
N151	N15	0.594190	0.979010	0.916570
O431	O43	0.633680	0.956580	0.542170
O441	O44	0.637090	0.965890	0.711970
O451	O45	0.591190	0.795960	0.728470
H1651	H165	0.604730	0.782570	0.755470
Zn151	Zn15	0.642600	0.959200	0.863810
C2111	C211	0.727470	0.021590	0.966000
C2121	C212	0.780190	0.055460	0.977300
H1661	H166	0.792700	0.069200	0.041900
C2131	C213	0.809790	0.066430	0.896700
H1671	H167	0.795200	0.050100	0.835400
C2141	C214	0.861690	0.100120	0.889200
C2151	C215	0.890650	0.131110	0.968000
C2161	C216	0.939370	0.164870	0.950400
H1681	H168	0.958200	0.185500	0.003700
C2171	C217	0.959770	0.167700	0.853300
H1691	H169	0.992100	0.190700	0.841400
C2181	C218	0.932800	0.136800	0.775100
H1701	H170	0.946700	0.138100	0.710700
C2191	C219	0.884490	0.103530	0.792700
H1711	H171	0.866400	0.082600	0.739100
C2201	C220	0.670850	0.910980	0.185100
H1721	H172	0.664700	0.915500	0.116500
C2211	C221	0.662080	0.865660	0.214700
H1731	H173	0.650400	0.840600	0.166200
C2221	C222	0.670610	0.857320	0.316400
C2231	C223	0.687610	0.896770	0.384500
H1741	H174	0.693500	0.893200	0.454000
C2241	C224	0.695660	0.940850	0.348800
H1751	H175	0.707200	0.966600	0.395400
N161	N16	0.687660	0.948520	0.249900
O461	O46	0.710090	0.010440	0.875500
O471	O47	0.700780	0.004540	0.045300
O481	O48	0.870710	0.128570	0.061800
H1761	H176	0.884100	0.155500	0.088800
Zn161	Zn16	0.707460	0.016730	0.197140
C2251	C225	0.394140	0.354920	0.299330
C2261	C226	0.446860	0.388790	0.310630
H1771	H177	0.459370	0.402530	0.375230
C2271	C227	0.476460	0.399760	0.230030
H1781	H178	0.461870	0.383430	0.168730
C2281	C228	0.528360	0.433450	0.222530
C2291	C229	0.557320	0.464440	0.301330
C2301	C230	0.606040	0.498200	0.283730
H1791	H179	0.624870	0.518830	0.337030
C2311	C231	0.626440	0.501030	0.186630
H1801	H180	0.658770	0.524030	0.174730
C2321	C232	0.599470	0.470130	0.108430
H1811	H181	0.613370	0.471430	0.044030
C2331	C233	0.551160	0.436860	0.126030
H1821	H182	0.533070	0.415930	0.072430
C2341	C234	0.337520	0.244310	0.518430
H1831	H183	0.331370	0.248830	0.449830
C2351	C235	0.328750	0.198990	0.548030
H1841	H184	0.317070	0.173930	0.499530
C2361	C236	0.337280	0.190650	0.649730
C2371	C237	0.354280	0.230100	0.717830
H1851	H185	0.360170	0.226530	0.787330
C2381	C238	0.362330	0.274180	0.682130
H1861	H186	0.373870	0.299930	0.728730
N171	N17	0.354330	0.281850	0.583230
O491	O49	0.376760	0.343770	0.208830
O501	O50	0.367450	0.337870	0.378630
O511	O51	0.537380	0.461900	0.395130
H1871	H187	0.550770	0.488830	0.422130
Zn171	Zn17	0.374130	0.350060	0.530470
C2391	C239	0.060800	0.688260	0.632670
C2401	C240	0.113520	0.722130	0.643970
H1881	H188	0.126030	0.735870	0.708570
C2411	C241	0.143120	0.733100	0.563370
H1891	H189	0.128530	0.716770	0.502070
C2421	C242	0.195020	0.766790	0.555870
C2431	C243	0.223980	0.797780	0.634670
C2441	C244	0.272700	0.831540	0.617070
H1901	H190	0.291530	0.852170	0.670370
C2451	C245	0.293100	0.834370	0.519970
H1911	H191	0.325430	0.857370	0.508070
C2461	C246	0.266130	0.803470	0.441770
H1921	H192	0.280030	0.804770	0.377370
C2471	C247	0.217820	0.770200	0.459370
H1931	H193	0.199730	0.749270	0.405770
C2481	C248	0.004180	0.577650	0.851770
H1941	H194	0.998030	0.582170	0.783170
C2491	C249	0.995410	0.532330	0.881370
H1951	H195	0.983730	0.507270	0.832870
C2501	C250	0.003940	0.523990	0.983070
C2511	C251	0.020940	0.563440	0.051170
H1961	H196	0.026830	0.559870	0.120670
C2521	C252	0.028990	0.607520	0.015470
H1971	H197	0.040530	0.633270	0.062070
N181	N18	0.020990	0.615190	0.916570
O521	O52	0.043420	0.677110	0.542170
O531	O53	0.034110	0.671210	0.711970
O541	O54	0.204040	0.795240	0.728470
H1981	H198	0.217430	0.822170	0.755470
Zn181	Zn18	0.040800	0.683390	0.863810
