data_LEZLAF_clean_PM
_symmetry_space_group_name_H-M	'P1'
_cell_length_a	11.727100
_cell_length_b	11.770700
_cell_length_c	18.263300
_cell_angle_alpha	90.000000
_cell_angle_beta	98.704000
_cell_angle_gamma	90.000000
_symmetry_Int_Tables_number 1

loop_
_symmetry_equiv_pos_as_xyz
'x,y,z'

loop_
_atom_site_label
_atom_site_type_symbol
_atom_site_fract_x
_atom_site_fract_y
_atom_site_fract_z
Ag11	Ag1	0.355700	0.601520	0.015210
Ag21	Ag2	0.359910	0.132280	0.504230
Ag31	Ag3	0.878830	0.603070	0.922010
Ag41	Ag4	0.644300	0.101520	0.984790
Ag51	Ag5	0.640090	0.632280	0.495770
Ag61	Ag6	0.121170	0.103070	0.077990
P11	P1	0.144560	0.912040	0.114850
P21	P2	0.595970	0.808690	0.440370
P31	P3	0.486550	0.714650	0.959080
P41	P4	0.855440	0.412040	0.885150
P51	P5	0.404030	0.308690	0.559630
P61	P6	0.513450	0.214650	0.040920
H11	H1	0.899800	0.772200	0.760300
H21	H2	0.120200	0.449400	0.742200
H31	H3	0.313800	0.853000	0.068000
H41	H4	0.201900	0.815500	0.011800
H51	H5	0.168600	0.912400	0.246900
H61	H6	0.292400	0.912300	0.220100
H71	H7	0.977800	0.812200	0.059100
H81	H8	0.964600	0.845600	0.142400
H91	H9	0.138900	0.566500	0.102900
H101	H10	0.092100	0.651300	0.036800
H111	H11	0.371300	0.747400	0.181600
H121	H12	0.316300	0.625700	0.193100
H131	H13	0.117700	0.622300	0.231300
H141	H14	0.059000	0.742200	0.243000
H151	H15	0.633400	0.075300	0.508500
H161	H16	0.592200	0.154400	0.438400
H171	H17	0.779800	0.874500	0.421100
H181	H18	0.753300	0.916700	0.500100
H191	H19	0.692500	0.969900	0.309100
H201	H20	0.625800	0.087400	0.313500
H211	H21	0.371600	0.962900	0.356900
H221	H22	0.426300	0.084100	0.343700
H231	H23	0.518500	0.913500	0.532500
H241	H24	0.416100	0.869700	0.471200
H251	H25	0.461600	0.792900	0.329200
H261	H26	0.590400	0.791700	0.309900
H271	H27	0.751300	0.831400	0.002300
H281	H28	0.781200	0.878400	0.925200
H291	H29	0.625900	0.576300	0.938800
H301	H30	0.672400	0.648400	0.011600
H311	H31	0.705400	0.765600	0.810300
H321	H32	0.633600	0.652800	0.820800
H331	H33	0.619000	0.949900	0.832400
H341	H34	0.491900	0.955200	0.853600
H351	H35	0.564600	0.861700	0.036500
H361	H36	0.460000	0.908300	0.977900
H371	H37	0.373900	0.787200	0.850700
H381	H38	0.426800	0.666400	0.833300
H391	H39	0.100200	0.272200	0.239700
H401	H40	0.879800	0.949400	0.257800
H411	H41	0.686200	0.353000	0.932000
H421	H42	0.798100	0.315500	0.988200
H431	H43	0.831400	0.412400	0.753100
H441	H44	0.707600	0.412300	0.779900
H451	H45	0.022200	0.312200	0.940900
H461	H46	0.035400	0.345600	0.857600
H471	H47	0.861100	0.066500	0.897100
H481	H48	0.907900	0.151300	0.963200
H491	H49	0.628700	0.247400	0.818400
H501	H50	0.683700	0.125700	0.806900
H511	H51	0.882300	0.122300	0.768700
H521	H52	0.941000	0.242200	0.757000
H531	H53	0.366600	0.575300	0.491500
H541	H54	0.407800	0.654400	0.561600
H551	H55	0.220200	0.374500	0.578900
H561	H56	0.246700	0.416700	0.499900
H571	H57	0.307500	0.469900	0.690900
H581	H58	0.374200	0.587400	0.686500
H591	H59	0.628400	0.462900	0.643100
H601	H60	0.573700	0.584100	0.656300
H611	H61	0.481500	0.413500	0.467500
H621	H62	0.583900	0.369700	0.528800
H631	H63	0.538400	0.292900	0.670800
H641	H64	0.409600	0.291700	0.690100
H651	H65	0.248700	0.331400	0.997700
H661	H66	0.218800	0.378400	0.074800
H671	H67	0.374100	0.076300	0.061200
H681	H68	0.327600	0.148400	0.988400
H691	H69	0.294600	0.265600	0.189700
H701	H70	0.366400	0.152800	0.179200
H711	H71	0.381000	0.449900	0.167600
H721	H72	0.508100	0.455200	0.146400
H731	H73	0.435400	0.361700	0.963500
H741	H74	0.540000	0.408300	0.022100
H751	H75	0.626100	0.287200	0.149300
H761	H76	0.573200	0.166400	0.166700
C11	C1	0.099900	0.582200	0.808700
C21	C2	0.033100	0.679800	0.813700
C31	C3	0.943500	0.704900	0.757000
C41	C4	0.915300	0.633300	0.694600
C51	C5	0.984100	0.536000	0.688500
C61	C6	0.073800	0.514600	0.746100
C71	C7	0.193600	0.549400	0.870700
C81	C8	0.055100	0.765500	0.877900
C91	C9	0.967700	0.453200	0.625100
C101	C10	0.815700	0.660600	0.636400
C111	C11	0.235900	0.819000	0.064800
C121	C12	0.214300	0.878300	0.211200
C131	C13	0.018800	0.815200	0.110600
C141	C14	0.129400	0.647700	0.089100
C151	C15	0.298000	0.704400	0.176100
C161	C16	0.109500	0.701400	0.212900
C171	C17	0.602200	0.074400	0.455000
C181	C18	0.719700	0.907600	0.447400
C191	C19	0.636300	0.010200	0.335100
C201	C20	0.444200	0.007200	0.364200
C211	C21	0.493500	0.905200	0.478500
C221	C22	0.538400	0.829100	0.340500
C231	C23	0.721800	0.838700	0.948800
C241	C24	0.632900	0.654000	0.959800
C251	C25	0.650100	0.730900	0.839600
C261	C26	0.564200	0.910600	0.860000
C271	C27	0.529800	0.859900	0.983600
C281	C28	0.444400	0.739800	0.859000
C291	C29	0.900100	0.082200	0.191300
C301	C30	0.966900	0.179800	0.186300
C311	C31	0.056500	0.204900	0.243000
C321	C32	0.084700	0.133300	0.305400
C331	C33	0.015900	0.036000	0.311500
C341	C34	0.926200	0.014600	0.253900
C351	C35	0.806400	0.049400	0.129300
C361	C36	0.944900	0.265500	0.122100
C371	C37	0.032300	0.953200	0.374900
C381	C38	0.184300	0.160600	0.363600
C391	C39	0.764100	0.319000	0.935200
C401	C40	0.785700	0.378300	0.788800
C411	C41	0.981200	0.315200	0.889400
C421	C42	0.870600	0.147700	0.910900
C431	C43	0.702000	0.204400	0.823900
C441	C44	0.890500	0.201400	0.787100
C451	C45	0.397800	0.574400	0.545000
C461	C46	0.280300	0.407600	0.552600
C471	C47	0.363700	0.510200	0.664900
C481	C48	0.555800	0.507200	0.635800
C491	C49	0.506500	0.405200	0.521500
C501	C50	0.461600	0.329100	0.659500
C511	C51	0.278200	0.338700	0.051200
C521	C52	0.367100	0.154000	0.040200
C531	C53	0.349900	0.230900	0.160400
C541	C54	0.435800	0.410600	0.140000
C551	C55	0.470200	0.359900	0.016400
C561	C56	0.555600	0.239800	0.141000
N11	N1	0.246800	0.701600	0.095400
N21	N2	0.223100	0.755600	0.223500
N31	N3	0.053900	0.700300	0.135100
N41	N4	0.484800	0.017700	0.444800
N51	N5	0.686400	0.021000	0.415400
N61	N6	0.528300	0.951500	0.321100
N71	N7	0.612900	0.909400	0.939100
N81	N8	0.703500	0.724600	0.916400
N91	N9	0.539800	0.798600	0.827800
N101	N10	0.753200	0.201600	0.904600
N111	N11	0.776900	0.255600	0.776500
N121	N12	0.946100	0.200300	0.864900
N131	N13	0.515200	0.517700	0.555200
N141	N14	0.313600	0.521000	0.584600
N151	N15	0.471700	0.451500	0.678900
N161	N16	0.387100	0.409400	0.060900
N171	N17	0.296500	0.224600	0.083600
N181	N18	0.460200	0.298600	0.172200
O11	O1	0.185300	0.581800	0.933600
O21	O2	0.274000	0.484000	0.855600
O31	O3	0.986200	0.762000	0.924200
O41	O4	0.128900	0.838700	0.874700
O51	O5	0.024100	0.469100	0.573000
O61	O6	0.905500	0.369200	0.631100
O71	O7	0.754700	0.747800	0.645100
O81	O8	0.793800	0.594600	0.583500
O91	O9	0.814700	0.081800	0.066400
O101	O10	0.726000	0.984000	0.144400
O111	O11	0.013800	0.262000	0.075800
O121	O12	0.871100	0.338700	0.125300
O131	O13	0.975900	0.969100	0.427000
O141	O14	0.094500	0.869200	0.368900
O151	O15	0.245300	0.247800	0.354900
O161	O16	0.206200	0.094600	0.416500
