data_LEZXAR_clean_PM
_symmetry_space_group_name_H-M	'P1'
_cell_length_a	16.660600
_cell_length_b	16.660600
_cell_length_c	51.316000
_cell_angle_alpha	90.000000
_cell_angle_beta	90.000000
_cell_angle_gamma	120.000000
_symmetry_Int_Tables_number 1

loop_
_symmetry_equiv_pos_as_xyz
'x,y,z'

loop_
_atom_site_label
_atom_site_type_symbol
_atom_site_fract_x
_atom_site_fract_y
_atom_site_fract_z
W11	W1	0.748420	0.479970	0.029760
Yb11	Yb1	0.116300	0.771590	0.079540
O11	O1	0.580000	0.472400	0.076600
C11	C1	0.377500	0.940200	0.029700
O21	O2	0.877900	0.547800	0.043700
O31	O3	0.680400	0.510700	0.118000
O41	O4	0.727700	0.569700	0.046000
O51	O5	0.731400	0.442300	0.155800
O61	O6	0.838600	0.611200	0.088000
O71	O7	0.245700	0.858200	0.056400
O81	O8	0.002300	0.614100	0.082400
O91	O9	0.374300	0.089100	0.951900
C21	C2	0.380300	0.017200	0.991000
N11	N1	0.503800	0.995100	0.997500
C31	C3	0.463600	0.029700	0.987000
H11	H1	0.498000	0.069300	0.972700
C41	C4	0.334900	0.967500	0.013000
H21	H2	0.272100	0.952100	0.016400
C51	C5	0.466400	0.955300	0.022200
H31	H3	0.498400	0.932700	0.032800
C61	C6	0.330000	0.047000	0.972300
O101	O10	0.371400	0.867000	0.071800
C71	C7	0.329100	0.883600	0.053800
O111	O11	0.739400	0.450800	0.072500
W21	W2	0.709200	0.560750	0.084000
W31	W3	0.885540	0.524900	0.079940
O121	O12	0.260300	0.051000	0.982400
O131	O13	0.771800	0.378500	0.027200
W41	W4	0.800180	0.392080	0.140600
O141	O14	0.854300	0.484200	0.116800
W51	W5	0.415090	0.813300	0.363090
Yb21	Yb2	0.782970	0.104920	0.412880
O151	O15	0.246670	0.805730	0.409930
C81	C8	0.044170	0.273530	0.363030
O161	O16	0.544570	0.881130	0.377030
O171	O17	0.347070	0.844030	0.451330
O181	O18	0.394370	0.903030	0.379330
O191	O19	0.398070	0.775630	0.489130
O201	O20	0.505270	0.944530	0.421330
O211	O21	0.912370	0.191530	0.389730
O221	O22	0.668970	0.947430	0.415730
O231	O23	0.040970	0.422430	0.285230
C91	C9	0.046970	0.350530	0.324330
N21	N2	0.170470	0.328430	0.330830
C101	C10	0.130270	0.363030	0.320330
H41	H4	0.164670	0.402630	0.306030
C111	C11	0.001570	0.300830	0.346330
H51	H5	0.938770	0.285430	0.349730
C121	C12	0.133070	0.288630	0.355530
H61	H6	0.165070	0.266030	0.366130
C131	C13	0.996670	0.380330	0.305630
O241	O24	0.038070	0.200330	0.405130
C141	C14	0.995770	0.216930	0.387130
O251	O25	0.406070	0.784130	0.405830
W61	W6	0.375870	0.894080	0.417330
W71	W7	0.552210	0.858230	0.413270
O261	O26	0.926970	0.384330	0.315730
O271	O27	0.438470	0.711830	0.360530
W81	W8	0.466850	0.725410	0.473940
O281	O28	0.520970	0.817530	0.450130
W91	W9	0.081750	0.146640	0.696420
Yb31	Yb3	0.449630	0.438260	0.746210
O291	O29	0.913330	0.139070	0.743270
C151	C15	0.710830	0.606870	0.696370
O301	O30	0.211230	0.214470	0.710370
O311	O31	0.013730	0.177370	0.784670
O321	O32	0.061030	0.236370	0.712670
O331	O33	0.064730	0.108970	0.822470
O341	O34	0.171930	0.277870	0.754670
O351	O35	0.579030	0.524870	0.723070
O361	O36	0.335630	0.280770	0.749070
O371	O37	0.707630	0.755770	0.618570
C161	C16	0.713630	0.683870	0.657670
N31	N3	0.837130	0.661770	0.664170
C171	C17	0.796930	0.696370	0.653670
H71	H7	0.831330	0.735970	0.639370
C181	C18	0.668230	0.634170	0.679670
H81	H8	0.605430	0.618770	0.683070
C191	C19	0.799730	0.621970	0.688870
H91	H9	0.831730	0.599370	0.699470
C201	C20	0.663330	0.713670	0.638970
O381	O38	0.704730	0.533670	0.738470
C211	C21	0.662430	0.550270	0.720470
O391	O39	0.072730	0.117470	0.739170
W101	W10	0.042530	0.227420	0.750660
W111	W11	0.218870	0.191570	0.746610
O401	O40	0.593630	0.717670	0.649070
O411	O41	0.105130	0.045170	0.693870
W121	W12	0.133510	0.058750	0.807270
O421	O42	0.187630	0.150870	0.783470
W131	W13	0.520030	0.268450	0.029760
Yb41	Yb4	0.228410	0.344710	0.079540
O431	O43	0.527600	0.107600	0.076600
C221	C22	0.059800	0.437300	0.029700
O441	O44	0.452200	0.330100	0.043700
O451	O45	0.489300	0.169700	0.118000
O461	O46	0.430300	0.158000	0.046000
O471	O47	0.557700	0.289100	0.155800
O481	O48	0.388800	0.227400	0.088000
O491	O49	0.141800	0.387500	0.056400
O501	O50	0.385900	0.388200	0.082400
O511	O51	0.910900	0.285200	0.951900
C231	C23	0.982800	0.363100	0.991000
N41	N4	0.004900	0.508700	0.997500
C241	C24	0.970300	0.433900	0.987000
H101	H10	0.930700	0.428700	0.972700
C251	C25	0.032500	0.367400	0.013000
H111	H11	0.047900	0.320000	0.016400
C261	C26	0.044700	0.511100	0.022200
H121	H12	0.067300	0.565700	0.032800
C271	C27	0.953000	0.283000	0.972300
O521	O52	0.133000	0.504400	0.071800
C281	C28	0.116400	0.445500	0.053800
O531	O53	0.549200	0.288600	0.072500
W141	W14	0.439250	0.148450	0.084000
W151	W15	0.475100	0.360640	0.079940
O541	O54	0.949000	0.209300	0.982400
O551	O55	0.621500	0.393300	0.027200
W161	W16	0.607920	0.408100	0.140600
O561	O56	0.515800	0.370100	0.116800
W171	W17	0.186700	0.601780	0.363090
Yb51	Yb5	0.895080	0.678040	0.412880
O571	O57	0.194270	0.440930	0.409930
C291	C29	0.726470	0.770630	0.363030
O581	O58	0.118870	0.663430	0.377030
O591	O59	0.155970	0.503030	0.451330
O601	O60	0.096970	0.491330	0.379330
O611	O61	0.224370	0.622430	0.489130
O621	O62	0.055470	0.560730	0.421330
O631	O63	0.808470	0.720830	0.389730
O641	O64	0.052570	0.721530	0.415730
O651	O65	0.577570	0.618530	0.285230
C301	C30	0.649470	0.696430	0.324330
N51	N5	0.671570	0.842030	0.330830
C311	C31	0.636970	0.767230	0.320330
H131	H13	0.597370	0.762030	0.306030
C321	C32	0.699170	0.700730	0.346330
H141	H14	0.714570	0.653330	0.349730
C331	C33	0.711370	0.844430	0.355530
H151	H15	0.733970	0.899030	0.366130
C341	C34	0.619670	0.616330	0.305630
O661	O66	0.799670	0.837730	0.405130
C351	C35	0.783070	0.778830	0.387130
O671	O67	0.215870	0.621930	0.405830
W181	W18	0.105920	0.481780	0.417330
W191	W19	0.141770	0.693970	0.413270
O681	O68	0.615670	0.542630	0.315730
O691	O69	0.288170	0.726630	0.360530
W201	W20	0.274590	0.741430	0.473940
O701	O70	0.182470	0.703430	0.450130
W211	W21	0.853360	0.935120	0.696420
Yb61	Yb6	0.561740	0.011380	0.746210
O711	O71	0.860930	0.774270	0.743270
C361	C36	0.393130	0.103970	0.696370
O721	O72	0.785530	0.996770	0.710370
O731	O73	0.822630	0.836370	0.784670
O741	O74	0.763630	0.824670	0.712670
O751	O75	0.891030	0.955770	0.822470
O761	O76	0.722130	0.894070	0.754670
O771	O77	0.475130	0.054170	0.723070
O781	O78	0.719230	0.054870	0.749070
O791	O79	0.244230	0.951870	0.618570
C371	C37	0.316130	0.029770	0.657670
N61	N6	0.338230	0.175370	0.664170
C381	C38	0.303630	0.100570	0.653670
H161	H16	0.264030	0.095370	0.639370
C391	C39	0.365830	0.034070	0.679670
H171	H17	0.381230	0.986670	0.683070
C401	C40	0.378030	0.177770	0.688870
H181	H18	0.400630	0.232370	0.699470
C411	C41	0.286330	0.949670	0.638970
O801	O80	0.466330	0.171070	0.738470
C421	C42	0.449730	0.112170	0.720470
O811	O81	0.882530	0.955270	0.739170
W221	W22	0.772580	0.815120	0.750660
W231	W23	0.808430	0.027310	0.746610
O821	O82	0.282330	0.875970	0.649070
O831	O83	0.954830	0.059970	0.693870
W241	W24	0.941250	0.074770	0.807270
O841	O84	0.849130	0.036770	0.783470
W251	W25	0.731550	0.251580	0.029760
Yb71	Yb7	0.655290	0.883700	0.079540
O851	O85	0.892400	0.420000	0.076600
C431	C43	0.562700	0.622500	0.029700
O861	O86	0.669900	0.122100	0.043700
O871	O87	0.830300	0.319600	0.118000
O881	O88	0.842000	0.272300	0.046000
O891	O89	0.710900	0.268600	0.155800
O901	O90	0.772600	0.161400	0.088000
O911	O91	0.612500	0.754300	0.056400
O921	O92	0.611800	0.997700	0.082400
O931	O93	0.714800	0.625700	0.951900
C441	C44	0.636900	0.619700	0.991000
N71	N7	0.491300	0.496200	0.997500
C451	C45	0.566100	0.536400	0.987000
H191	H19	0.571300	0.502000	0.972700
C461	C46	0.632600	0.665100	0.013000
H201	H20	0.680000	0.727900	0.016400
C471	C47	0.488900	0.533600	0.022200
H211	H21	0.434300	0.501600	0.032800
C481	C48	0.717000	0.670000	0.972300
O941	O94	0.495600	0.628600	0.071800
C491	C49	0.554500	0.670900	0.053800
O951	O95	0.711400	0.260600	0.072500
W261	W26	0.851550	0.290800	0.084000
W271	W27	0.639360	0.114460	0.079940
O961	O96	0.790700	0.739700	0.982400
O971	O97	0.606700	0.228200	0.027200
W281	W28	0.591900	0.199820	0.140600
O981	O98	0.629900	0.145700	0.116800
W291	W29	0.398220	0.584910	0.363090
Yb81	Yb8	0.321960	0.217030	0.412880
O991	O99	0.559070	0.753330	0.409930
C501	C50	0.229370	0.955830	0.363030
O1001	O100	0.336570	0.455430	0.377030
O1011	O101	0.496970	0.652930	0.451330
O1021	O102	0.508670	0.605630	0.379330
O1031	O103	0.377570	0.601930	0.489130
O1041	O104	0.439270	0.494730	0.421330
O1051	O105	0.279170	0.087630	0.389730
O1061	O106	0.278470	0.331030	0.415730
O1071	O107	0.381470	0.959030	0.285230
C511	C51	0.303570	0.953030	0.324330
N81	N8	0.157970	0.829530	0.330830
C521	C52	0.232770	0.869730	0.320330
H221	H22	0.237970	0.835330	0.306030
C531	C53	0.299270	0.998430	0.346330
H231	H23	0.346670	0.061230	0.349730
C541	C54	0.155570	0.866930	0.355530
H241	H24	0.100970	0.834930	0.366130
C551	C55	0.383670	0.003330	0.305630
O1081	O108	0.162270	0.961930	0.405130
C561	C56	0.221170	0.004230	0.387130
O1091	O109	0.378070	0.593930	0.405830
W301	W30	0.518220	0.624130	0.417330
W311	W31	0.306030	0.447790	0.413270
O1101	O110	0.457370	0.073030	0.315730
O1111	O111	0.273370	0.561530	0.360530
W321	W32	0.258570	0.533150	0.473940
O1121	O112	0.296570	0.479030	0.450130
W331	W33	0.064880	0.918250	0.696420
Yb91	Yb9	0.988620	0.550370	0.746210
O1131	O113	0.225730	0.086670	0.743270
C571	C57	0.896030	0.289170	0.696370
O1141	O114	0.003230	0.788770	0.710370
O1151	O115	0.163630	0.986270	0.784670
O1161	O116	0.175330	0.938970	0.712670
O1171	O117	0.044230	0.935270	0.822470
O1181	O118	0.105930	0.828070	0.754670
O1191	O119	0.945830	0.420970	0.723070
O1201	O120	0.945130	0.664370	0.749070
O1211	O121	0.048130	0.292370	0.618570
C581	C58	0.970230	0.286370	0.657670
N91	N9	0.824630	0.162870	0.664170
C591	C59	0.899430	0.203070	0.653670
H251	H25	0.904630	0.168670	0.639370
C601	C60	0.965930	0.331770	0.679670
H261	H26	0.013330	0.394570	0.683070
C611	C61	0.822230	0.200270	0.688870
H271	H27	0.767630	0.168270	0.699470
C621	C62	0.050330	0.336670	0.638970
O1221	O122	0.828930	0.295270	0.738470
C631	C63	0.887830	0.337570	0.720470
O1231	O123	0.044730	0.927270	0.739170
W341	W34	0.184880	0.957470	0.750660
W351	W35	0.972690	0.781130	0.746610
O1241	O124	0.124030	0.406370	0.649070
O1251	O125	0.940030	0.894870	0.693870
W361	W36	0.925230	0.866490	0.807270
O1261	O126	0.963230	0.812370	0.783470
W371	W37	0.520030	0.251580	0.529760
Yb101	Yb10	0.228410	0.883700	0.579540
O1271	O127	0.527600	0.420000	0.576600
C641	C64	0.059800	0.622500	0.529700
O1281	O128	0.452200	0.122100	0.543700
O1291	O129	0.489300	0.319600	0.618000
O1301	O130	0.430300	0.272300	0.546000
O1311	O131	0.557700	0.268600	0.655800
O1321	O132	0.388800	0.161400	0.588000
O1331	O133	0.141800	0.754300	0.556400
O1341	O134	0.385900	0.997700	0.582400
O1351	O135	0.910900	0.625700	0.451900
C651	C65	0.982800	0.619700	0.491000
N101	N10	0.004900	0.496200	0.497500
C661	C66	0.970300	0.536400	0.487000
H281	H28	0.930700	0.502000	0.472700
C671	C67	0.032500	0.665100	0.513000
H291	H29	0.047900	0.727900	0.516400
C681	C68	0.044700	0.533600	0.522200
H301	H30	0.067300	0.501600	0.532800
C691	C69	0.953000	0.670000	0.472300
O1361	O136	0.133000	0.628600	0.571800
C701	C70	0.116400	0.670900	0.553800
O1371	O137	0.549200	0.260600	0.572500
W381	W38	0.439250	0.290800	0.584000
W391	W39	0.475100	0.114460	0.579940
O1381	O138	0.949000	0.739700	0.482400
O1391	O139	0.621500	0.228200	0.527200
W401	W40	0.607920	0.199820	0.640600
O1401	O140	0.515800	0.145700	0.616800
W411	W41	0.186700	0.584910	0.863090
Yb111	Yb11	0.895080	0.217030	0.912880
O1411	O141	0.194270	0.753330	0.909930
C711	C71	0.726470	0.955830	0.863030
O1421	O142	0.118870	0.455430	0.877030
O1431	O143	0.155970	0.652930	0.951330
O1441	O144	0.096970	0.605630	0.879330
O1451	O145	0.224370	0.601930	0.989130
O1461	O146	0.055470	0.494730	0.921330
O1471	O147	0.808470	0.087630	0.889730
O1481	O148	0.052570	0.331030	0.915730
O1491	O149	0.577570	0.959030	0.785230
C721	C72	0.649470	0.953030	0.824330
N111	N11	0.671570	0.829530	0.830830
C731	C73	0.636970	0.869730	0.820330
H311	H31	0.597370	0.835330	0.806030
C741	C74	0.699170	0.998430	0.846330
H321	H32	0.714570	0.061230	0.849730
C751	C75	0.711370	0.866930	0.855530
H331	H33	0.733970	0.834930	0.866130
C761	C76	0.619670	0.003330	0.805630
O1501	O150	0.799670	0.961930	0.905130
C771	C77	0.783070	0.004230	0.887130
O1511	O151	0.215870	0.593930	0.905830
W421	W42	0.105920	0.624130	0.917330
W431	W43	0.141770	0.447790	0.913270
O1521	O152	0.615670	0.073030	0.815730
O1531	O153	0.288170	0.561530	0.860530
W441	W44	0.274590	0.533150	0.973940
O1541	O154	0.182470	0.479030	0.950130
W451	W45	0.853360	0.918250	0.196420
Yb121	Yb12	0.561740	0.550370	0.246210
O1551	O155	0.860930	0.086670	0.243270
C781	C78	0.393130	0.289170	0.196370
O1561	O156	0.785530	0.788770	0.210370
O1571	O157	0.822630	0.986270	0.284670
O1581	O158	0.763630	0.938970	0.212670
O1591	O159	0.891030	0.935270	0.322470
O1601	O160	0.722130	0.828070	0.254670
O1611	O161	0.475130	0.420970	0.223070
O1621	O162	0.719230	0.664370	0.249070
O1631	O163	0.244230	0.292370	0.118570
C791	C79	0.316130	0.286370	0.157670
N121	N12	0.338230	0.162870	0.164170
C801	C80	0.303630	0.203070	0.153670
H341	H34	0.264030	0.168670	0.139370
C811	C81	0.365830	0.331770	0.179670
H351	H35	0.381230	0.394570	0.183070
C821	C82	0.378030	0.200270	0.188870
H361	H36	0.400630	0.168270	0.199470
C831	C83	0.286330	0.336670	0.138970
O1641	O164	0.466330	0.295270	0.238470
C841	C84	0.449730	0.337570	0.220470
O1651	O165	0.882530	0.927270	0.239170
W461	W46	0.772580	0.957470	0.250660
W471	W47	0.808430	0.781130	0.246610
O1661	O166	0.282330	0.406370	0.149070
O1671	O167	0.954830	0.894870	0.193870
W481	W48	0.941250	0.866490	0.307270
O1681	O168	0.849130	0.812370	0.283470
W491	W49	0.731550	0.479970	0.529760
Yb131	Yb13	0.655290	0.771590	0.579540
O1691	O169	0.892400	0.472400	0.576600
C851	C85	0.562700	0.940200	0.529700
O1701	O170	0.669900	0.547800	0.543700
O1711	O171	0.830300	0.510700	0.618000
O1721	O172	0.842000	0.569700	0.546000
O1731	O173	0.710900	0.442300	0.655800
O1741	O174	0.772600	0.611200	0.588000
O1751	O175	0.612500	0.858200	0.556400
O1761	O176	0.611800	0.614100	0.582400
O1771	O177	0.714800	0.089100	0.451900
C861	C86	0.636900	0.017200	0.491000
N131	N13	0.491300	0.995100	0.497500
C871	C87	0.566100	0.029700	0.487000
H371	H37	0.571300	0.069300	0.472700
C881	C88	0.632600	0.967500	0.513000
H381	H38	0.680000	0.952100	0.516400
C891	C89	0.488900	0.955300	0.522200
H391	H39	0.434300	0.932700	0.532800
C901	C90	0.717000	0.047000	0.472300
O1781	O178	0.495600	0.867000	0.571800
C911	C91	0.554500	0.883600	0.553800
O1791	O179	0.711400	0.450800	0.572500
W501	W50	0.851550	0.560750	0.584000
W511	W51	0.639360	0.524900	0.579940
O1801	O180	0.790700	0.051000	0.482400
O1811	O181	0.606700	0.378500	0.527200
W521	W52	0.591900	0.392080	0.640600
O1821	O182	0.629900	0.484200	0.616800
W531	W53	0.398220	0.813300	0.863090
Yb141	Yb14	0.321960	0.104920	0.912880
O1831	O183	0.559070	0.805730	0.909930
C921	C92	0.229370	0.273530	0.863030
O1841	O184	0.336570	0.881130	0.877030
O1851	O185	0.496970	0.844030	0.951330
O1861	O186	0.508670	0.903030	0.879330
O1871	O187	0.377570	0.775630	0.989130
O1881	O188	0.439270	0.944530	0.921330
O1891	O189	0.279170	0.191530	0.889730
O1901	O190	0.278470	0.947430	0.915730
O1911	O191	0.381470	0.422430	0.785230
C931	C93	0.303570	0.350530	0.824330
N141	N14	0.157970	0.328430	0.830830
C941	C94	0.232770	0.363030	0.820330
H401	H40	0.237970	0.402630	0.806030
C951	C95	0.299270	0.300830	0.846330
H411	H41	0.346670	0.285430	0.849730
C961	C96	0.155570	0.288630	0.855530
H421	H42	0.100970	0.266030	0.866130
C971	C97	0.383670	0.380330	0.805630
O1921	O192	0.162270	0.200330	0.905130
C981	C98	0.221170	0.216930	0.887130
O1931	O193	0.378070	0.784130	0.905830
W541	W54	0.518220	0.894080	0.917330
W551	W55	0.306030	0.858230	0.913270
O1941	O194	0.457370	0.384330	0.815730
O1951	O195	0.273370	0.711830	0.860530
W561	W56	0.258570	0.725410	0.973940
O1961	O196	0.296570	0.817530	0.950130
W571	W57	0.064880	0.146640	0.196420
Yb151	Yb15	0.988620	0.438260	0.246210
O1971	O197	0.225730	0.139070	0.243270
C991	C99	0.896030	0.606870	0.196370
O1981	O198	0.003230	0.214470	0.210370
O1991	O199	0.163630	0.177370	0.284670
O2001	O200	0.175330	0.236370	0.212670
O2011	O201	0.044230	0.108970	0.322470
O2021	O202	0.105930	0.277870	0.254670
O2031	O203	0.945830	0.524870	0.223070
O2041	O204	0.945130	0.280770	0.249070
O2051	O205	0.048130	0.755770	0.118570
C1001	C100	0.970230	0.683870	0.157670
N151	N15	0.824630	0.661770	0.164170
C1011	C101	0.899430	0.696370	0.153670
H431	H43	0.904630	0.735970	0.139370
C1021	C102	0.965930	0.634170	0.179670
H441	H44	0.013330	0.618770	0.183070
C1031	C103	0.822230	0.621970	0.188870
H451	H45	0.767630	0.599370	0.199470
C1041	C104	0.050330	0.713670	0.138970
O2061	O206	0.828930	0.533670	0.238470
C1051	C105	0.887830	0.550270	0.220470
O2071	O207	0.044730	0.117470	0.239170
W581	W58	0.184880	0.227420	0.250660
W591	W59	0.972690	0.191570	0.246610
O2081	O208	0.124030	0.717670	0.149070
O2091	O209	0.940030	0.045170	0.193870
W601	W60	0.925230	0.058750	0.307270
O2101	O210	0.963230	0.150870	0.283470
W611	W61	0.748420	0.268450	0.529760
Yb161	Yb16	0.116300	0.344710	0.579540
O2111	O211	0.580000	0.107600	0.576600
C1061	C106	0.377500	0.437300	0.529700
O2121	O212	0.877900	0.330100	0.543700
O2131	O213	0.680400	0.169700	0.618000
O2141	O214	0.727700	0.158000	0.546000
O2151	O215	0.731400	0.289100	0.655800
O2161	O216	0.838600	0.227400	0.588000
O2171	O217	0.245700	0.387500	0.556400
O2181	O218	0.002300	0.388200	0.582400
O2191	O219	0.374300	0.285200	0.451900
C1071	C107	0.380300	0.363100	0.491000
N161	N16	0.503800	0.508700	0.497500
C1081	C108	0.463600	0.433900	0.487000
H461	H46	0.498000	0.428700	0.472700
C1091	C109	0.334900	0.367400	0.513000
H471	H47	0.272100	0.320000	0.516400
C1101	C110	0.466400	0.511100	0.522200
H481	H48	0.498400	0.565700	0.532800
C1111	C111	0.330000	0.283000	0.472300
O2201	O220	0.371400	0.504400	0.571800
C1121	C112	0.329100	0.445500	0.553800
O2211	O221	0.739400	0.288600	0.572500
W621	W62	0.709200	0.148450	0.584000
W631	W63	0.885540	0.360640	0.579940
O2221	O222	0.260300	0.209300	0.482400
O2231	O223	0.771800	0.393300	0.527200
W641	W64	0.800180	0.408100	0.640600
O2241	O224	0.854300	0.370100	0.616800
W651	W65	0.415090	0.601780	0.863090
Yb171	Yb17	0.782970	0.678040	0.912880
O2251	O225	0.246670	0.440930	0.909930
C1131	C113	0.044170	0.770630	0.863030
O2261	O226	0.544570	0.663430	0.877030
O2271	O227	0.347070	0.503030	0.951330
O2281	O228	0.394370	0.491330	0.879330
O2291	O229	0.398070	0.622430	0.989130
O2301	O230	0.505270	0.560730	0.921330
O2311	O231	0.912370	0.720830	0.889730
O2321	O232	0.668970	0.721530	0.915730
O2331	O233	0.040970	0.618530	0.785230
C1141	C114	0.046970	0.696430	0.824330
N171	N17	0.170470	0.842030	0.830830
C1151	C115	0.130270	0.767230	0.820330
H491	H49	0.164670	0.762030	0.806030
C1161	C116	0.001570	0.700730	0.846330
H501	H50	0.938770	0.653330	0.849730
C1171	C117	0.133070	0.844430	0.855530
H511	H51	0.165070	0.899030	0.866130
C1181	C118	0.996670	0.616330	0.805630
O2341	O234	0.038070	0.837730	0.905130
C1191	C119	0.995770	0.778830	0.887130
O2351	O235	0.406070	0.621930	0.905830
W661	W66	0.375870	0.481780	0.917330
W671	W67	0.552210	0.693970	0.913270
O2361	O236	0.926970	0.542630	0.815730
O2371	O237	0.438470	0.726630	0.860530
W681	W68	0.466850	0.741430	0.973940
O2381	O238	0.520970	0.703430	0.950130
W691	W69	0.081750	0.935120	0.196420
Yb181	Yb18	0.449630	0.011380	0.246210
O2391	O239	0.913330	0.774270	0.243270
C1201	C120	0.710830	0.103970	0.196370
O2401	O240	0.211230	0.996770	0.210370
O2411	O241	0.013730	0.836370	0.284670
O2421	O242	0.061030	0.824670	0.212670
O2431	O243	0.064730	0.955770	0.322470
O2441	O244	0.171930	0.894070	0.254670
O2451	O245	0.579030	0.054170	0.223070
O2461	O246	0.335630	0.054870	0.249070
O2471	O247	0.707630	0.951870	0.118570
C1211	C121	0.713630	0.029770	0.157670
N181	N18	0.837130	0.175370	0.164170
C1221	C122	0.796930	0.100570	0.153670
H521	H52	0.831330	0.095370	0.139370
C1231	C123	0.668230	0.034070	0.179670
H531	H53	0.605430	0.986670	0.183070
C1241	C124	0.799730	0.177770	0.188870
H541	H54	0.831730	0.232370	0.199470
C1251	C125	0.663330	0.949670	0.138970
O2481	O248	0.704730	0.171070	0.238470
C1261	C126	0.662430	0.112170	0.220470
O2491	O249	0.072730	0.955270	0.239170
W701	W70	0.042530	0.815120	0.250660
W711	W71	0.218870	0.027310	0.246610
O2501	O250	0.593630	0.875970	0.149070
O2511	O251	0.105130	0.059970	0.193870
W721	W72	0.133510	0.074770	0.307270
O2521	O252	0.187630	0.036770	0.283470
O2531	O253	0.666670	0.333330	0.116000
O2541	O254	0.333330	0.666670	0.449330
O2551	O255	0.000000	0.000000	0.782670
O2561	O256	0.666670	0.333330	0.616000
O2571	O257	0.333330	0.666670	0.949330
O2581	O258	0.000000	0.000000	0.282670
