data_LIBJAJ_clean_PM
_symmetry_space_group_name_H-M	'P1'
_cell_length_a	7.715900
_cell_length_b	7.862300
_cell_length_c	18.323000
_cell_angle_alpha	90.000000
_cell_angle_beta	90.000000
_cell_angle_gamma	95.700000
_symmetry_Int_Tables_number 1

loop_
_symmetry_equiv_pos_as_xyz
'x,y,z'

loop_
_atom_site_label
_atom_site_type_symbol
_atom_site_fract_x
_atom_site_fract_y
_atom_site_fract_z
Ca11	Ca1	0.720830	0.780840	0.725610
Ca21	Ca2	0.779170	0.219160	0.225610
Ca31	Ca3	0.279170	0.219160	0.274380
Ca41	Ca4	0.220830	0.780840	0.774390
H11	H1	0.625600	0.296800	0.926600
H21	H2	0.727700	0.452900	0.966400
H31	H3	0.385800	0.451600	0.910100
H41	H4	0.390900	0.739100	0.945000
H51	H5	0.577800	0.735000	0.978400
H61	H6	0.775200	0.991300	0.957900
H71	H7	0.079000	0.816500	0.945200
H81	H8	0.891500	0.725400	0.959200
H91	H9	0.953700	0.243800	0.929500
H101	H10	0.118100	0.141100	0.926100
H111	H11	0.874400	0.703200	0.426600
H121	H12	0.772300	0.547100	0.466400
H131	H13	0.114200	0.548400	0.410100
H141	H14	0.109100	0.260900	0.445000
H151	H15	0.922200	0.265000	0.478400
H161	H16	0.724800	0.008700	0.457900
H171	H17	0.421000	0.183500	0.445200
H181	H18	0.608500	0.274600	0.459200
H191	H19	0.546300	0.756200	0.429500
H201	H20	0.381900	0.858900	0.426100
H211	H21	0.374400	0.703200	0.073400
H221	H22	0.272300	0.547100	0.033600
H231	H23	0.614200	0.548400	0.089900
H241	H24	0.609100	0.260900	0.055000
H251	H25	0.422200	0.265000	0.021600
H261	H26	0.224800	0.008700	0.042100
H271	H27	0.921000	0.183500	0.054800
H281	H28	0.108500	0.274600	0.040800
H291	H29	0.046300	0.756200	0.070500
H301	H30	0.881900	0.858900	0.073900
H311	H31	0.125600	0.296800	0.573400
H321	H32	0.227700	0.452900	0.533600
H331	H33	0.885800	0.451600	0.589900
H341	H34	0.890900	0.739100	0.555000
H351	H35	0.077800	0.735000	0.521600
H361	H36	0.275200	0.991300	0.542100
H371	H37	0.579000	0.816500	0.554800
H381	H38	0.391500	0.725400	0.540800
H391	H39	0.453700	0.243800	0.570500
H401	H40	0.618100	0.141100	0.573900
C11	C1	0.571300	0.583100	0.847250
C21	C2	0.612800	0.394500	0.957810
C31	C3	0.499200	0.515400	0.919630
C41	C4	0.468000	0.667100	0.969380
C51	C5	0.857700	0.957700	0.852990
C61	C6	0.888000	0.981700	0.934460
C71	C7	0.967700	0.829000	0.968200
C81	C8	0.006200	0.146900	0.949570
C91	C9	0.928700	0.416900	0.347250
C101	C10	0.887200	0.605500	0.457810
C111	C11	0.000800	0.484600	0.419630
C121	C12	0.032000	0.332900	0.469380
C131	C13	0.642300	0.042300	0.352990
C141	C14	0.612000	0.018300	0.434460
C151	C15	0.532300	0.171000	0.468200
C161	C16	0.493800	0.853100	0.449570
C171	C17	0.428700	0.416900	0.152750
C181	C18	0.387200	0.605500	0.042190
C191	C19	0.500800	0.484600	0.080370
C201	C20	0.532000	0.332900	0.030620
C211	C21	0.142300	0.042300	0.147010
C221	C22	0.112000	0.018300	0.065540
C231	C23	0.032300	0.171000	0.031800
C241	C24	0.993800	0.853100	0.050430
C251	C25	0.071300	0.583100	0.652750
C261	C26	0.112800	0.394500	0.542190
C271	C27	0.999200	0.515400	0.580370
C281	C28	0.968000	0.667100	0.530620
C291	C29	0.357700	0.957700	0.647010
C301	C30	0.388000	0.981700	0.565540
C311	C31	0.467700	0.829000	0.531800
C321	C32	0.506200	0.146900	0.550430
O11	O1	0.473680	0.660730	0.806370
O21	O2	0.727160	0.567320	0.828660
O31	O3	0.972950	0.900690	0.813900
O41	O4	0.714200	0.992620	0.825650
O51	O5	0.026320	0.339270	0.306370
O61	O6	0.772840	0.432680	0.328660
O71	O7	0.527050	0.099310	0.313900
O81	O8	0.785800	0.007380	0.325650
O91	O9	0.526320	0.339270	0.193630
O101	O10	0.272840	0.432680	0.171340
O111	O11	0.027050	0.099310	0.186100
O121	O12	0.285800	0.007380	0.174350
O131	O13	0.973680	0.660730	0.693630
O141	O14	0.227160	0.567320	0.671340
O151	O15	0.472950	0.900690	0.686100
O161	O16	0.214200	0.992620	0.674350
