data_LICKAL_clean_PM
_symmetry_space_group_name_H-M	'P1'
_cell_length_a	9.655000
_cell_length_b	9.344000
_cell_length_c	30.965000
_cell_angle_alpha	90.000000
_cell_angle_beta	93.859000
_cell_angle_gamma	90.000000
_symmetry_Int_Tables_number 1

loop_
_symmetry_equiv_pos_as_xyz
'x,y,z'

loop_
_atom_site_label
_atom_site_type_symbol
_atom_site_fract_x
_atom_site_fract_y
_atom_site_fract_z
Zn11	Zn1	0.530470	0.285100	0.140950
Zn21	Zn2	0.701440	0.548250	0.038170
Zn31	Zn3	0.440790	0.311410	0.307640
P11	P1	0.461140	0.121420	0.221510
P21	P2	0.745260	0.072500	0.182900
P31	P3	0.413300	0.376730	0.051680
P41	P4	0.518960	0.613060	0.111990
O11	O1	0.408400	0.215700	0.183780
O21	O2	0.401500	0.169100	0.263130
O31	O3	0.431700	0.961600	0.212950
O41	O4	0.675700	0.143600	0.142490
O51	O5	0.728200	0.910100	0.181540
O61	O6	0.895700	0.114900	0.191060
O71	O7	0.690400	0.287800	0.229540
H11	H1	0.648500	0.330400	0.247800
O81	O8	0.413300	0.262300	0.086500
O91	O9	0.556500	0.395700	0.034040
O101	O10	0.302100	0.347300	0.015620
O111	O11	0.467200	0.735700	0.139190
O121	O12	0.571900	0.487800	0.139490
O131	O13	0.625800	0.668800	0.082240
O141	O14	0.325800	0.654000	0.045500
H21	H2	0.361800	0.636100	0.022900
N11	N1	0.036700	0.888200	0.298540
H31	H3	0.069500	0.802700	0.299600
N21	N2	0.880600	0.452700	0.059460
C11	C1	0.651800	0.139500	0.229250
C21	C2	0.693600	0.061800	0.272360
H41	H4	0.653700	0.114200	0.295500
H51	H5	0.650900	0.967800	0.271200
C31	C3	0.845500	0.042800	0.284310
C41	C4	0.932500	0.156500	0.296150
H61	H6	0.897300	0.249200	0.295600
C51	C5	0.070400	0.133900	0.308800
H71	H7	0.128100	0.210400	0.316900
C61	C6	0.120700	0.997400	0.309300
H81	H8	0.214000	0.980500	0.317100
C71	C7	0.903100	0.907900	0.286190
H91	H9	0.847800	0.829000	0.278700
C81	C8	0.367600	0.547400	0.077700
C91	C9	0.245000	0.531900	0.107130
H101	H10	0.280800	0.485900	0.133700
H111	H11	0.216800	0.627600	0.114800
C101	C10	0.114900	0.451600	0.091230
C111	C11	0.096200	0.309500	0.103020
H121	H12	0.167700	0.260900	0.118400
C121	C12	0.972700	0.239900	0.092200
H131	H13	0.961000	0.144200	0.099300
C131	C13	0.866900	0.315700	0.070500
H141	H14	0.783000	0.269700	0.063400
C141	C14	0.003500	0.518400	0.069610
H151	H15	0.013200	0.613600	0.061600
Zn41	Zn4	0.469530	0.785100	0.359050
Zn51	Zn5	0.298560	0.048250	0.461830
Zn61	Zn6	0.559210	0.811410	0.192360
P51	P5	0.538860	0.621420	0.278490
P61	P6	0.254740	0.572500	0.317100
P71	P7	0.586700	0.876730	0.448320
P81	P8	0.481040	0.113060	0.388010
O151	O15	0.591600	0.715700	0.316220
O161	O16	0.598500	0.669100	0.236870
O171	O17	0.568300	0.461600	0.287050
O181	O18	0.324300	0.643600	0.357510
O191	O19	0.271800	0.410100	0.318460
O201	O20	0.104300	0.614900	0.308940
O211	O21	0.309600	0.787800	0.270460
H161	H16	0.351500	0.830400	0.252200
O221	O22	0.586700	0.762300	0.413500
O231	O23	0.443500	0.895700	0.465960
O241	O24	0.697900	0.847300	0.484380
O251	O25	0.532800	0.235700	0.360810
O261	O26	0.428100	0.987800	0.360510
O271	O27	0.374200	0.168800	0.417760
O281	O28	0.674200	0.154000	0.454500
H171	H17	0.638200	0.136100	0.477100
N31	N3	0.963300	0.388200	0.201460
H181	H18	0.930500	0.302700	0.200400
N41	N4	0.119400	0.952700	0.440540
C151	C15	0.348200	0.639500	0.270750
C161	C16	0.306400	0.561800	0.227640
H191	H19	0.346300	0.614200	0.204500
H201	H20	0.349100	0.467800	0.228800
C171	C17	0.154500	0.542800	0.215690
C181	C18	0.067500	0.656500	0.203850
H211	H21	0.102700	0.749200	0.204400
C191	C19	0.929600	0.633900	0.191200
H221	H22	0.871900	0.710400	0.183100
C201	C20	0.879300	0.497400	0.190700
H231	H23	0.786000	0.480500	0.182900
C211	C21	0.096900	0.407900	0.213810
H241	H24	0.152200	0.329000	0.221300
C221	C22	0.632400	0.047400	0.422300
C231	C23	0.755000	0.031900	0.392870
H251	H25	0.719200	0.985900	0.366300
H261	H26	0.783200	0.127600	0.385200
C241	C24	0.885100	0.951600	0.408770
C251	C25	0.903800	0.809500	0.396980
H271	H27	0.832300	0.760900	0.381600
C261	C26	0.027300	0.739900	0.407800
H281	H28	0.039000	0.644200	0.400700
C271	C27	0.133100	0.815700	0.429500
H291	H29	0.217000	0.769700	0.436600
C281	C28	0.996500	0.018400	0.430390
H301	H30	0.986800	0.113600	0.438400
Zn71	Zn7	0.469530	0.714900	0.859040
Zn81	Zn8	0.298560	0.451750	0.961830
Zn91	Zn9	0.559210	0.688590	0.692360
P91	P9	0.538860	0.878580	0.778490
P101	P10	0.254740	0.927500	0.817100
P111	P11	0.586700	0.623270	0.948320
P121	P12	0.481040	0.386940	0.888010
O291	O29	0.591600	0.784300	0.816220
O301	O30	0.598500	0.830900	0.736870
O311	O31	0.568300	0.038400	0.787050
O321	O32	0.324300	0.856400	0.857510
O331	O33	0.271800	0.089900	0.818460
O341	O34	0.104300	0.885100	0.808940
O351	O35	0.309600	0.712200	0.770460
H311	H31	0.351500	0.669600	0.752200
O361	O36	0.586700	0.737700	0.913500
O371	O37	0.443500	0.604300	0.965960
O381	O38	0.697900	0.652700	0.984380
O391	O39	0.532800	0.264300	0.860810
O401	O40	0.428100	0.512200	0.860510
O411	O41	0.374200	0.331200	0.917760
O421	O42	0.674200	0.346000	0.954500
H321	H32	0.638200	0.363900	0.977100
N51	N5	0.963300	0.111800	0.701460
H331	H33	0.930500	0.197300	0.700400
N61	N6	0.119400	0.547300	0.940540
C291	C29	0.348200	0.860500	0.770750
C301	C30	0.306400	0.938200	0.727640
H341	H34	0.346300	0.885800	0.704500
H351	H35	0.349100	0.032200	0.728800
C311	C31	0.154500	0.957200	0.715690
C321	C32	0.067500	0.843500	0.703850
H361	H36	0.102700	0.750800	0.704400
C331	C33	0.929600	0.866100	0.691200
H371	H37	0.871900	0.789600	0.683100
C341	C34	0.879300	0.002600	0.690700
H381	H38	0.786000	0.019500	0.682900
C351	C35	0.096900	0.092100	0.713810
H391	H39	0.152200	0.171000	0.721300
C361	C36	0.632400	0.452600	0.922300
C371	C37	0.755000	0.468100	0.892870
H401	H40	0.719200	0.514100	0.866300
H411	H41	0.783200	0.372400	0.885200
C381	C38	0.885100	0.548400	0.908770
C391	C39	0.903800	0.690500	0.896980
H421	H42	0.832300	0.739100	0.881600
C401	C40	0.027300	0.760100	0.907800
H431	H43	0.039000	0.855800	0.900700
C411	C41	0.133100	0.684300	0.929500
H441	H44	0.217000	0.730300	0.936600
C421	C42	0.996500	0.481600	0.930390
H451	H45	0.986800	0.386400	0.938400
Zn101	Zn10	0.530470	0.214900	0.640960
Zn111	Zn11	0.701440	0.951750	0.538170
Zn121	Zn12	0.440790	0.188590	0.807640
P131	P13	0.461140	0.378580	0.721510
P141	P14	0.745260	0.427500	0.682900
P151	P15	0.413300	0.123270	0.551680
P161	P16	0.518960	0.886940	0.611990
O431	O43	0.408400	0.284300	0.683780
O441	O44	0.401500	0.330900	0.763130
O451	O45	0.431700	0.538400	0.712950
O461	O46	0.675700	0.356400	0.642490
O471	O47	0.728200	0.589900	0.681540
O481	O48	0.895700	0.385100	0.691060
O491	O49	0.690400	0.212200	0.729540
H461	H46	0.648500	0.169600	0.747800
O501	O50	0.413300	0.237700	0.586500
O511	O51	0.556500	0.104300	0.534040
O521	O52	0.302100	0.152700	0.515620
O531	O53	0.467200	0.764300	0.639190
O541	O54	0.571900	0.012200	0.639490
O551	O55	0.625800	0.831200	0.582240
O561	O56	0.325800	0.846000	0.545500
H471	H47	0.361800	0.863900	0.522900
N71	N7	0.036700	0.611800	0.798540
H481	H48	0.069500	0.697300	0.799600
N81	N8	0.880600	0.047300	0.559460
C431	C43	0.651800	0.360500	0.729250
C441	C44	0.693600	0.438200	0.772360
H491	H49	0.653700	0.385800	0.795500
H501	H50	0.650900	0.532200	0.771200
C451	C45	0.845500	0.457200	0.784310
C461	C46	0.932500	0.343500	0.796150
H511	H51	0.897300	0.250800	0.795600
C471	C47	0.070400	0.366100	0.808800
H521	H52	0.128100	0.289600	0.816900
C481	C48	0.120700	0.502600	0.809300
H531	H53	0.214000	0.519500	0.817100
C491	C49	0.903100	0.592100	0.786190
H541	H54	0.847800	0.671000	0.778700
C501	C50	0.367600	0.952600	0.577700
C511	C51	0.245000	0.968100	0.607130
H551	H55	0.280800	0.014100	0.633700
H561	H56	0.216800	0.872400	0.614800
C521	C52	0.114900	0.048400	0.591230
C531	C53	0.096200	0.190500	0.603020
H571	H57	0.167700	0.239100	0.618400
C541	C54	0.972700	0.260100	0.592200
H581	H58	0.961000	0.355800	0.599300
C551	C55	0.866900	0.184300	0.570500
H591	H59	0.783000	0.230300	0.563400
C561	C56	0.003500	0.981600	0.569610
H601	H60	0.013200	0.886400	0.561600
