data_LICSUM_clean_PM
_symmetry_space_group_name_H-M	'P1'
_cell_length_a	6.860400
_cell_length_b	9.992500
_cell_length_c	10.884100
_cell_angle_alpha	90.000000
_cell_angle_beta	90.000000
_cell_angle_gamma	90.000000
_symmetry_Int_Tables_number 1

loop_
_symmetry_equiv_pos_as_xyz
'x,y,z'

loop_
_atom_site_label
_atom_site_type_symbol
_atom_site_fract_x
_atom_site_fract_y
_atom_site_fract_z
Mg11	Mg1	0.857590	0.203180	0.289340
Mg21	Mg2	0.642410	0.796820	0.789340
Mg31	Mg3	0.142410	0.703180	0.210660
Mg41	Mg4	0.357590	0.296820	0.710660
H11	H1	0.560000	0.892000	0.311000
H21	H2	0.674000	0.921000	0.428000
H31	H3	0.532000	0.085000	0.513000
H41	H4	0.371000	0.125000	0.417000
H51	H5	0.940000	0.108000	0.811000
H61	H6	0.826000	0.079000	0.928000
H71	H7	0.968000	0.915000	0.013000
H81	H8	0.129000	0.875000	0.917000
H91	H9	0.440000	0.392000	0.189000
H101	H10	0.326000	0.421000	0.072000
H111	H11	0.468000	0.585000	0.987000
H121	H12	0.629000	0.625000	0.083000
H131	H13	0.060000	0.608000	0.689000
H141	H14	0.174000	0.579000	0.572000
H151	H15	0.032000	0.415000	0.487000
H161	H16	0.871000	0.375000	0.583000
C11	C1	0.852000	0.916140	0.276330
C21	C2	0.546600	0.280700	0.450120
C31	C3	0.662200	0.942200	0.343900
C41	C4	0.502200	0.132400	0.434400
C51	C5	0.648000	0.083860	0.776330
C61	C6	0.953400	0.719300	0.950120
C71	C7	0.837800	0.057800	0.843900
C81	C8	0.997800	0.867600	0.934400
C91	C9	0.148000	0.416140	0.223670
C101	C10	0.453400	0.780700	0.049880
C111	C11	0.337800	0.442200	0.156100
C121	C12	0.497800	0.632400	0.065600
C131	C13	0.352000	0.583860	0.723670
C141	C14	0.046600	0.219300	0.549880
C151	C15	0.162200	0.557800	0.656100
C161	C16	0.002200	0.367600	0.565600
O11	O1	0.621800	0.082100	0.338200
O21	O2	0.897600	0.794050	0.265570
O31	O3	0.466300	0.341670	0.536570
O41	O4	0.662000	0.334300	0.374490
O51	O5	0.948100	0.012520	0.237390
O61	O6	0.878200	0.917900	0.838200
O71	O7	0.602400	0.205950	0.765570
O81	O8	0.033700	0.658330	0.036570
O91	O9	0.838000	0.665700	0.874490
O101	O10	0.551900	0.987480	0.737390
O111	O11	0.378200	0.582100	0.161800
O121	O12	0.102400	0.294050	0.234430
O131	O13	0.533700	0.841670	0.963430
O141	O14	0.338000	0.834300	0.125510
O151	O15	0.051900	0.512520	0.262610
O161	O16	0.121800	0.417900	0.661800
O171	O17	0.397600	0.705950	0.734430
O181	O18	0.966300	0.158330	0.463430
O191	O19	0.162000	0.165700	0.625510
O201	O20	0.448100	0.487480	0.762610
