data_LIDZUV_clean_PM
_symmetry_space_group_name_H-M	'P1'
_cell_length_a	5.576100
_cell_length_b	11.830100
_cell_length_c	22.792200
_cell_angle_alpha	100.493000
_cell_angle_beta	90.000000
_cell_angle_gamma	90.000000
_symmetry_Int_Tables_number 1

loop_
_symmetry_equiv_pos_as_xyz
'x,y,z'

loop_
_atom_site_label
_atom_site_type_symbol
_atom_site_fract_x
_atom_site_fract_y
_atom_site_fract_z
Ca11	Ca1	0.256380	0.863410	0.777160
Ca21	Ca2	0.756380	0.636590	0.722840
Ca31	Ca3	0.743620	0.136590	0.222840
Ca41	Ca4	0.243620	0.363410	0.277160
H11	H1	0.624700	0.267600	0.094100
H21	H2	0.706300	0.225000	0.992500
H31	H3	0.055300	0.079100	0.962700
H41	H4	0.971400	0.126800	0.064000
H51	H5	0.978100	0.316100	0.780600
H61	H6	0.063700	0.161500	0.827100
H71	H7	0.698700	0.306500	0.881700
H81	H8	0.618700	0.456400	0.831000
H91	H9	0.124700	0.232400	0.405900
H101	H10	0.206300	0.275000	0.507500
H111	H11	0.555300	0.420900	0.537300
H121	H12	0.471400	0.373200	0.436000
H131	H13	0.478100	0.183900	0.719400
H141	H14	0.563700	0.338500	0.672900
H151	H15	0.198700	0.193500	0.618300
H161	H16	0.118700	0.043600	0.669000
H171	H17	0.375300	0.732400	0.905900
H181	H18	0.293700	0.775000	0.007500
H191	H19	0.944700	0.920900	0.037300
H201	H20	0.028600	0.873200	0.936000
H211	H21	0.021900	0.683900	0.219400
H221	H22	0.936300	0.838500	0.172900
H231	H23	0.301300	0.693500	0.118300
H241	H24	0.381300	0.543600	0.169000
H251	H25	0.875300	0.767600	0.594100
H261	H26	0.793700	0.725000	0.492500
H271	H27	0.444700	0.579100	0.462700
H281	H28	0.528600	0.626800	0.564000
H291	H29	0.521900	0.816100	0.280600
H301	H30	0.436300	0.661500	0.327100
H311	H31	0.801300	0.806500	0.381700
H321	H32	0.881300	0.956400	0.331000
C11	C1	0.238800	0.222970	0.155110
C21	C2	0.292600	0.198450	0.089260
C31	C3	0.511200	0.229400	0.067840
C41	C4	0.560900	0.203500	0.007120
C51	C5	0.390800	0.145200	0.968660
C61	C6	0.169300	0.116500	0.989130
C71	C7	0.120500	0.144400	0.049710
C81	C8	0.241300	0.495600	0.765420
C91	C9	0.292400	0.400450	0.800370
C101	C10	0.124200	0.312800	0.799920
C111	C11	0.173600	0.220900	0.828170
C121	C12	0.389600	0.219370	0.857970
C131	C13	0.556600	0.307700	0.860440
C141	C14	0.507200	0.397800	0.830620
C151	C15	0.738800	0.277030	0.344890
C161	C16	0.792600	0.301550	0.410740
C171	C17	0.011200	0.270600	0.432160
C181	C18	0.060900	0.296500	0.492880
C191	C19	0.890800	0.354800	0.531340
C201	C20	0.669300	0.383500	0.510870
C211	C21	0.620500	0.355600	0.450290
C221	C22	0.741300	0.004400	0.734580
C231	C23	0.792400	0.099550	0.699630
C241	C24	0.624200	0.187200	0.700080
C251	C25	0.673600	0.279100	0.671830
C261	C26	0.889600	0.280630	0.642030
C271	C27	0.056600	0.192300	0.639560
C281	C28	0.007200	0.102200	0.669380
C291	C29	0.761200	0.777030	0.844890
C301	C30	0.707400	0.801550	0.910740
C311	C31	0.488800	0.770600	0.932160
C321	C32	0.439100	0.796500	0.992880
C331	C33	0.609200	0.854800	0.031340
C341	C34	0.830700	0.883500	0.010870
C351	C35	0.879500	0.855600	0.950290
C361	C36	0.758700	0.504400	0.234580
C371	C37	0.707600	0.599550	0.199630
C381	C38	0.875800	0.687200	0.200080
C391	C39	0.826400	0.779100	0.171830
C401	C40	0.610400	0.780630	0.142030
C411	C41	0.443400	0.692300	0.139560
C421	C42	0.492800	0.602200	0.169380
C431	C43	0.261200	0.722970	0.655110
C441	C44	0.207400	0.698450	0.589260
C451	C45	0.988800	0.729400	0.567840
C461	C46	0.939100	0.703500	0.507120
C471	C47	0.109200	0.645200	0.468660
C481	C48	0.330700	0.616500	0.489130
C491	C49	0.379500	0.644400	0.549710
C501	C50	0.258700	0.995600	0.265420
C511	C51	0.207600	0.900450	0.300370
C521	C52	0.375800	0.812800	0.299920
C531	C53	0.326400	0.720900	0.328170
C541	C54	0.110400	0.719370	0.357970
C551	C55	0.943400	0.807700	0.360440
C561	C56	0.992800	0.897800	0.330620
S11	S1	0.463820	0.102110	0.892290
S21	S2	0.963820	0.397890	0.607710
S31	S3	0.536180	0.897890	0.107710
S41	S4	0.036180	0.602110	0.392290
O11	O1	0.414400	0.237280	0.190730
O21	O2	0.024900	0.231810	0.171690
O31	O3	0.025500	0.515990	0.756680
O41	O4	0.419200	0.543250	0.747350
O51	O5	0.305500	0.006970	0.868770
O61	O6	0.718900	0.085080	0.888210
O71	O7	0.914400	0.262720	0.309270
O81	O8	0.524900	0.268190	0.328310
O91	O9	0.525500	0.984010	0.743320
O101	O10	0.919200	0.956750	0.752650
O111	O11	0.805500	0.493030	0.631230
O121	O12	0.218900	0.414920	0.611790
O131	O13	0.585600	0.762720	0.809270
O141	O14	0.975100	0.768190	0.828310
O151	O15	0.974500	0.484010	0.243320
O161	O16	0.580800	0.456750	0.252650
O171	O17	0.694500	0.993030	0.131230
O181	O18	0.281100	0.914920	0.111790
O191	O19	0.085600	0.737280	0.690730
O201	O20	0.475100	0.731810	0.671690
O211	O21	0.474500	0.015990	0.256680
O221	O22	0.080800	0.043250	0.247350
O231	O23	0.194500	0.506970	0.368770
O241	O24	0.781100	0.585080	0.388210
