data_LIFSAW_clean_PM
_symmetry_space_group_name_H-M	'P1'
_cell_length_a	21.892000
_cell_length_b	12.609000
_cell_length_c	23.263000
_cell_angle_alpha	90.000000
_cell_angle_beta	102.894000
_cell_angle_gamma	90.000000
_symmetry_Int_Tables_number 1

loop_
_symmetry_equiv_pos_as_xyz
'x,y,z'

loop_
_atom_site_label
_atom_site_type_symbol
_atom_site_fract_x
_atom_site_fract_y
_atom_site_fract_z
Cd11	Cd1	0.094500	0.676840	0.265450
O11	O1	0.099570	0.392600	0.243800
O21	O2	0.156010	0.533600	0.276800
O31	O3	0.050680	0.835200	0.271860
N11	N1	0.314720	0.273400	0.241600
N21	N2	0.024900	0.396700	0.354200
N31	N3	0.078100	0.325600	0.662300
N41	N4	0.135700	0.697900	0.369100
C11	C1	0.149700	0.440400	0.258200
C21	C2	0.207300	0.382500	0.252600
C31	C3	0.203500	0.289900	0.221300
H11	H1	0.164500	0.262000	0.203400
C41	C4	0.257700	0.238000	0.216600
H21	H2	0.254200	0.175500	0.194900
C51	C5	0.318000	0.363800	0.270600
H31	H3	0.357500	0.390600	0.287500
C61	C6	0.266800	0.420200	0.277300
H41	H4	0.271900	0.483500	0.298300
C71	C7	0.053700	0.055500	0.274100
H51	H5	0.090600	0.020200	0.290900
C81	C8	0.052000	0.164400	0.272800
H61	H6	0.088600	0.201500	0.288500
C91	C9	0.081200	0.365400	0.385100
H71	H7	0.113300	0.355700	0.365300
C101	C10	0.093300	0.346900	0.444700
H81	H8	0.133200	0.325700	0.464500
C111	C11	0.046600	0.359700	0.475200
C121	C12	0.989200	0.390400	0.443300
H91	H9	0.956200	0.398900	0.462000
C131	C13	0.979900	0.408800	0.384100
H101	H10	0.940400	0.430700	0.363700
C141	C14	0.058500	0.343000	0.539800
C151	C15	0.115100	0.367400	0.576500
H111	H11	0.147900	0.391300	0.560500
C161	C16	0.123800	0.356900	0.635900
H121	H12	0.163100	0.372200	0.659300
C171	C17	0.023700	0.299600	0.626900
H131	H13	0.991900	0.274800	0.644000
C181	C18	0.011800	0.307200	0.566700
H141	H14	0.972700	0.288500	0.544000
C191	C19	0.166000	0.620500	0.401900
H151	H15	0.156900	0.551000	0.389500
C201	C20	0.210300	0.637200	0.453600
H161	H16	0.229900	0.579600	0.475000
C211	C21	0.225500	0.738900	0.473300
C221	C22	0.192500	0.818000	0.439400
H171	H17	0.199800	0.888300	0.451000
C231	C23	0.148800	0.795200	0.388700
H181	H18	0.127500	0.851200	0.367100
Cd21	Cd2	0.594500	0.176840	0.265450
O41	O4	0.599570	0.892600	0.243800
O51	O5	0.656010	0.033600	0.276800
O61	O6	0.550680	0.335200	0.271860
N51	N5	0.814720	0.773400	0.241600
N61	N6	0.524900	0.896700	0.354200
N71	N7	0.578100	0.825600	0.662300
N81	N8	0.635700	0.197900	0.369100
C241	C24	0.649700	0.940400	0.258200
C251	C25	0.707300	0.882500	0.252600
C261	C26	0.703500	0.789900	0.221300
H191	H19	0.664500	0.762000	0.203400
C271	C27	0.757700	0.738000	0.216600
H201	H20	0.754200	0.675500	0.194900
C281	C28	0.818000	0.863800	0.270600
H211	H21	0.857500	0.890600	0.287500
C291	C29	0.766800	0.920200	0.277300
H221	H22	0.771900	0.983500	0.298300
C301	C30	0.553700	0.555500	0.274100
H231	H23	0.590600	0.520200	0.290900
C311	C31	0.552000	0.664400	0.272800
H241	H24	0.588600	0.701500	0.288500
C321	C32	0.581200	0.865400	0.385100
H251	H25	0.613300	0.855700	0.365300
C331	C33	0.593300	0.846900	0.444700
H261	H26	0.633200	0.825700	0.464500
C341	C34	0.546600	0.859700	0.475200
C351	C35	0.489200	0.890400	0.443300
H271	H27	0.456200	0.898900	0.462000
C361	C36	0.479900	0.908800	0.384100
H281	H28	0.440400	0.930700	0.363700
C371	C37	0.558500	0.843000	0.539800
C381	C38	0.615100	0.867400	0.576500
H291	H29	0.647900	0.891300	0.560500
C391	C39	0.623800	0.856900	0.635900
H301	H30	0.663100	0.872200	0.659300
C401	C40	0.523700	0.799600	0.626900
H311	H31	0.491900	0.774800	0.644000
C411	C41	0.511800	0.807200	0.566700
H321	H32	0.472700	0.788500	0.544000
C421	C42	0.666000	0.120500	0.401900
H331	H33	0.656900	0.051000	0.389500
C431	C43	0.710300	0.137200	0.453600
H341	H34	0.729900	0.079600	0.475000
C441	C44	0.725500	0.238900	0.473300
C451	C45	0.692500	0.318000	0.439400
H351	H35	0.699800	0.388300	0.451000
C461	C46	0.648800	0.295200	0.388700
H361	H36	0.627500	0.351200	0.367100
Cd31	Cd3	0.905500	0.676840	0.234550
O71	O7	0.900430	0.392600	0.256200
O81	O8	0.843990	0.533600	0.223200
O91	O9	0.949320	0.835200	0.228140
N91	N9	0.685280	0.273400	0.258400
N101	N10	0.975100	0.396700	0.145800
N111	N11	0.921900	0.325600	0.837700
N121	N12	0.864300	0.697900	0.130900
C471	C47	0.850300	0.440400	0.241800
C481	C48	0.792700	0.382500	0.247400
C491	C49	0.796500	0.289900	0.278700
H371	H37	0.835500	0.262000	0.296600
C501	C50	0.742300	0.238000	0.283400
H381	H38	0.745800	0.175500	0.305100
C511	C51	0.682000	0.363800	0.229400
H391	H39	0.642500	0.390600	0.212500
C521	C52	0.733200	0.420200	0.222700
H401	H40	0.728100	0.483500	0.201700
C531	C53	0.946300	0.055500	0.225900
H411	H41	0.909400	0.020200	0.209100
C541	C54	0.948000	0.164400	0.227200
H421	H42	0.911400	0.201500	0.211500
C551	C55	0.918800	0.365400	0.114900
H431	H43	0.886700	0.355700	0.134700
C561	C56	0.906700	0.346900	0.055300
H441	H44	0.866800	0.325700	0.035500
C571	C57	0.953400	0.359700	0.024800
C581	C58	0.010800	0.390400	0.056700
H451	H45	0.043800	0.398900	0.038000
C591	C59	0.020100	0.408800	0.115900
H461	H46	0.059600	0.430700	0.136300
C601	C60	0.941500	0.343000	0.960200
C611	C61	0.884900	0.367400	0.923500
H471	H47	0.852100	0.391300	0.939500
C621	C62	0.876200	0.356900	0.864100
H481	H48	0.836900	0.372200	0.840700
C631	C63	0.976300	0.299600	0.873100
H491	H49	0.008100	0.274800	0.856000
C641	C64	0.988200	0.307200	0.933300
H501	H50	0.027300	0.288500	0.956000
C651	C65	0.834000	0.620500	0.098100
H511	H51	0.843100	0.551000	0.110500
C661	C66	0.789700	0.637200	0.046400
H521	H52	0.770100	0.579600	0.025000
C671	C67	0.774500	0.738900	0.026700
C681	C68	0.807500	0.818000	0.060600
H531	H53	0.800200	0.888300	0.049000
C691	C69	0.851200	0.795200	0.111300
H541	H54	0.872500	0.851200	0.132900
Cd41	Cd4	0.405500	0.176840	0.234550
O101	O10	0.400430	0.892600	0.256200
O111	O11	0.343990	0.033600	0.223200
O121	O12	0.449320	0.335200	0.228140
N131	N13	0.185280	0.773400	0.258400
N141	N14	0.475100	0.896700	0.145800
N151	N15	0.421900	0.825600	0.837700
N161	N16	0.364300	0.197900	0.130900
C701	C70	0.350300	0.940400	0.241800
C711	C71	0.292700	0.882500	0.247400
C721	C72	0.296500	0.789900	0.278700
H551	H55	0.335500	0.762000	0.296600
C731	C73	0.242300	0.738000	0.283400
H561	H56	0.245800	0.675500	0.305100
C741	C74	0.182000	0.863800	0.229400
H571	H57	0.142500	0.890600	0.212500
C751	C75	0.233200	0.920200	0.222700
H581	H58	0.228100	0.983500	0.201700
C761	C76	0.446300	0.555500	0.225900
H591	H59	0.409400	0.520200	0.209100
C771	C77	0.448000	0.664400	0.227200
H601	H60	0.411400	0.701500	0.211500
C781	C78	0.418800	0.865400	0.114900
H611	H61	0.386700	0.855700	0.134700
C791	C79	0.406700	0.846900	0.055300
H621	H62	0.366800	0.825700	0.035500
C801	C80	0.453400	0.859700	0.024800
C811	C81	0.510800	0.890400	0.056700
H631	H63	0.543800	0.898900	0.038000
C821	C82	0.520100	0.908800	0.115900
H641	H64	0.559600	0.930700	0.136300
C831	C83	0.441500	0.843000	0.960200
C841	C84	0.384900	0.867400	0.923500
H651	H65	0.352100	0.891300	0.939500
C851	C85	0.376200	0.856900	0.864100
H661	H66	0.336900	0.872200	0.840700
C861	C86	0.476300	0.799600	0.873100
H671	H67	0.508100	0.774800	0.856000
C871	C87	0.488200	0.807200	0.933300
H681	H68	0.527300	0.788500	0.956000
C881	C88	0.334000	0.120500	0.098100
H691	H69	0.343100	0.051000	0.110500
C891	C89	0.289700	0.137200	0.046400
H701	H70	0.270100	0.079600	0.025000
C901	C90	0.274500	0.238900	0.026700
C911	C91	0.307500	0.318000	0.060600
H711	H71	0.300200	0.388300	0.049000
C921	C92	0.351200	0.295200	0.111300
H721	H72	0.372500	0.351200	0.132900
Cd51	Cd5	0.905500	0.323160	0.734550
O131	O13	0.900430	0.607400	0.756200
O141	O14	0.843990	0.466400	0.723200
O151	O15	0.949320	0.164800	0.728140
N171	N17	0.685280	0.726600	0.758400
N181	N18	0.975100	0.603300	0.645800
N191	N19	0.921900	0.674400	0.337700
N201	N20	0.864300	0.302100	0.630900
C931	C93	0.850300	0.559600	0.741800
C941	C94	0.792700	0.617500	0.747400
C951	C95	0.796500	0.710100	0.778700
H731	H73	0.835500	0.738000	0.796600
C961	C96	0.742300	0.762000	0.783400
H741	H74	0.745800	0.824500	0.805100
C971	C97	0.682000	0.636200	0.729400
H751	H75	0.642500	0.609400	0.712500
C981	C98	0.733200	0.579800	0.722700
H761	H76	0.728100	0.516500	0.701700
C991	C99	0.946300	0.944500	0.725900
H771	H77	0.909400	0.979800	0.709100
C1001	C100	0.948000	0.835600	0.727200
H781	H78	0.911400	0.798500	0.711500
C1011	C101	0.918800	0.634600	0.614900
H791	H79	0.886700	0.644300	0.634700
C1021	C102	0.906700	0.653100	0.555300
H801	H80	0.866800	0.674300	0.535500
C1031	C103	0.953400	0.640300	0.524800
C1041	C104	0.010800	0.609600	0.556700
H811	H81	0.043800	0.601100	0.538000
C1051	C105	0.020100	0.591200	0.615900
H821	H82	0.059600	0.569300	0.636300
C1061	C106	0.941500	0.657000	0.460200
C1071	C107	0.884900	0.632600	0.423500
H831	H83	0.852100	0.608700	0.439500
C1081	C108	0.876200	0.643100	0.364100
H841	H84	0.836900	0.627800	0.340700
C1091	C109	0.976300	0.700400	0.373100
H851	H85	0.008100	0.725200	0.356000
C1101	C110	0.988200	0.692800	0.433300
H861	H86	0.027300	0.711500	0.456000
C1111	C111	0.834000	0.379500	0.598100
H871	H87	0.843100	0.449000	0.610500
C1121	C112	0.789700	0.362800	0.546400
H881	H88	0.770100	0.420400	0.525000
C1131	C113	0.774500	0.261100	0.526700
C1141	C114	0.807500	0.182000	0.560600
H891	H89	0.800200	0.111700	0.549000
C1151	C115	0.851200	0.204800	0.611300
H901	H90	0.872500	0.148800	0.632900
Cd61	Cd6	0.405500	0.823160	0.734550
O161	O16	0.400430	0.107400	0.756200
O171	O17	0.343990	0.966400	0.723200
O181	O18	0.449320	0.664800	0.728140
N211	N21	0.185280	0.226600	0.758400
N221	N22	0.475100	0.103300	0.645800
N231	N23	0.421900	0.174400	0.337700
N241	N24	0.364300	0.802100	0.630900
C1161	C116	0.350300	0.059600	0.741800
C1171	C117	0.292700	0.117500	0.747400
C1181	C118	0.296500	0.210100	0.778700
H911	H91	0.335500	0.238000	0.796600
C1191	C119	0.242300	0.262000	0.783400
H921	H92	0.245800	0.324500	0.805100
C1201	C120	0.182000	0.136200	0.729400
H931	H93	0.142500	0.109400	0.712500
C1211	C121	0.233200	0.079800	0.722700
H941	H94	0.228100	0.016500	0.701700
C1221	C122	0.446300	0.444500	0.725900
H951	H95	0.409400	0.479800	0.709100
C1231	C123	0.448000	0.335600	0.727200
H961	H96	0.411400	0.298500	0.711500
C1241	C124	0.418800	0.134600	0.614900
H971	H97	0.386700	0.144300	0.634700
C1251	C125	0.406700	0.153100	0.555300
H981	H98	0.366800	0.174300	0.535500
C1261	C126	0.453400	0.140300	0.524800
C1271	C127	0.510800	0.109600	0.556700
H991	H99	0.543800	0.101100	0.538000
C1281	C128	0.520100	0.091200	0.615900
H1001	H100	0.559600	0.069300	0.636300
C1291	C129	0.441500	0.157000	0.460200
C1301	C130	0.384900	0.132600	0.423500
H1011	H101	0.352100	0.108700	0.439500
C1311	C131	0.376200	0.143100	0.364100
H1021	H102	0.336900	0.127800	0.340700
C1321	C132	0.476300	0.200400	0.373100
H1031	H103	0.508100	0.225200	0.356000
C1331	C133	0.488200	0.192800	0.433300
H1041	H104	0.527300	0.211500	0.456000
C1341	C134	0.334000	0.879500	0.598100
H1051	H105	0.343100	0.949000	0.610500
C1351	C135	0.289700	0.862800	0.546400
H1061	H106	0.270100	0.920400	0.525000
C1361	C136	0.274500	0.761100	0.526700
C1371	C137	0.307500	0.682000	0.560600
H1071	H107	0.300200	0.611700	0.549000
C1381	C138	0.351200	0.704800	0.611300
H1081	H108	0.372500	0.648800	0.632900
Cd71	Cd7	0.094500	0.323160	0.765450
O191	O19	0.099570	0.607400	0.743800
O201	O20	0.156010	0.466400	0.776800
O211	O21	0.050680	0.164800	0.771860
N251	N25	0.314720	0.726600	0.741600
N261	N26	0.024900	0.603300	0.854200
N271	N27	0.078100	0.674400	0.162300
N281	N28	0.135700	0.302100	0.869100
C1391	C139	0.149700	0.559600	0.758200
C1401	C140	0.207300	0.617500	0.752600
C1411	C141	0.203500	0.710100	0.721300
H1091	H109	0.164500	0.738000	0.703400
C1421	C142	0.257700	0.762000	0.716600
H1101	H110	0.254200	0.824500	0.694900
C1431	C143	0.318000	0.636200	0.770600
H1111	H111	0.357500	0.609400	0.787500
C1441	C144	0.266800	0.579800	0.777300
H1121	H112	0.271900	0.516500	0.798300
C1451	C145	0.053700	0.944500	0.774100
H1131	H113	0.090600	0.979800	0.790900
C1461	C146	0.052000	0.835600	0.772800
H1141	H114	0.088600	0.798500	0.788500
C1471	C147	0.081200	0.634600	0.885100
H1151	H115	0.113300	0.644300	0.865300
C1481	C148	0.093300	0.653100	0.944700
H1161	H116	0.133200	0.674300	0.964500
C1491	C149	0.046600	0.640300	0.975200
C1501	C150	0.989200	0.609600	0.943300
H1171	H117	0.956200	0.601100	0.962000
C1511	C151	0.979900	0.591200	0.884100
H1181	H118	0.940400	0.569300	0.863700
C1521	C152	0.058500	0.657000	0.039800
C1531	C153	0.115100	0.632600	0.076500
H1191	H119	0.147900	0.608700	0.060500
C1541	C154	0.123800	0.643100	0.135900
H1201	H120	0.163100	0.627800	0.159300
C1551	C155	0.023700	0.700400	0.126900
H1211	H121	0.991900	0.725200	0.144000
C1561	C156	0.011800	0.692800	0.066700
H1221	H122	0.972700	0.711500	0.044000
C1571	C157	0.166000	0.379500	0.901900
H1231	H123	0.156900	0.449000	0.889500
C1581	C158	0.210300	0.362800	0.953600
H1241	H124	0.229900	0.420400	0.975000
C1591	C159	0.225500	0.261100	0.973300
C1601	C160	0.192500	0.182000	0.939400
H1251	H125	0.199800	0.111700	0.951000
C1611	C161	0.148800	0.204800	0.888700
H1261	H126	0.127500	0.148800	0.867100
Cd81	Cd8	0.594500	0.823160	0.765450
O221	O22	0.599570	0.107400	0.743800
O231	O23	0.656010	0.966400	0.776800
O241	O24	0.550680	0.664800	0.771860
N291	N29	0.814720	0.226600	0.741600
N301	N30	0.524900	0.103300	0.854200
N311	N31	0.578100	0.174400	0.162300
N321	N32	0.635700	0.802100	0.869100
C1621	C162	0.649700	0.059600	0.758200
C1631	C163	0.707300	0.117500	0.752600
C1641	C164	0.703500	0.210100	0.721300
H1271	H127	0.664500	0.238000	0.703400
C1651	C165	0.757700	0.262000	0.716600
H1281	H128	0.754200	0.324500	0.694900
C1661	C166	0.818000	0.136200	0.770600
H1291	H129	0.857500	0.109400	0.787500
C1671	C167	0.766800	0.079800	0.777300
H1301	H130	0.771900	0.016500	0.798300
C1681	C168	0.553700	0.444500	0.774100
H1311	H131	0.590600	0.479800	0.790900
C1691	C169	0.552000	0.335600	0.772800
H1321	H132	0.588600	0.298500	0.788500
C1701	C170	0.581200	0.134600	0.885100
H1331	H133	0.613300	0.144300	0.865300
C1711	C171	0.593300	0.153100	0.944700
H1341	H134	0.633200	0.174300	0.964500
C1721	C172	0.546600	0.140300	0.975200
C1731	C173	0.489200	0.109600	0.943300
H1351	H135	0.456200	0.101100	0.962000
C1741	C174	0.479900	0.091200	0.884100
H1361	H136	0.440400	0.069300	0.863700
C1751	C175	0.558500	0.157000	0.039800
C1761	C176	0.615100	0.132600	0.076500
H1371	H137	0.647900	0.108700	0.060500
C1771	C177	0.623800	0.143100	0.135900
H1381	H138	0.663100	0.127800	0.159300
C1781	C178	0.523700	0.200400	0.126900
H1391	H139	0.491900	0.225200	0.144000
C1791	C179	0.511800	0.192800	0.066700
H1401	H140	0.472700	0.211500	0.044000
C1801	C180	0.666000	0.879500	0.901900
H1411	H141	0.656900	0.949000	0.889500
C1811	C181	0.710300	0.862800	0.953600
H1421	H142	0.729900	0.920400	0.975000
C1821	C182	0.725500	0.761100	0.973300
C1831	C183	0.692500	0.682000	0.939400
H1431	H143	0.699800	0.611700	0.951000
C1841	C184	0.648800	0.704800	0.888700
H1441	H144	0.627500	0.648800	0.867100
Cd91	Cd9	0.000000	0.408630	0.250000
F11	F1	0.000000	0.590400	0.250000
N331	N33	0.000000	0.219900	0.250000
C1851	C185	0.000000	0.880300	0.250000
C1861	C186	0.000000	0.999100	0.250000
Cd101	Cd10	0.500000	0.908630	0.250000
F21	F2	0.500000	0.090400	0.250000
N341	N34	0.500000	0.719900	0.250000
C1871	C187	0.500000	0.380300	0.250000
C1881	C188	0.500000	0.499100	0.250000
Cd111	Cd11	0.000000	0.591370	0.750000
F31	F3	0.000000	0.409600	0.750000
N351	N35	0.000000	0.780100	0.750000
C1891	C189	0.000000	0.119700	0.750000
C1901	C190	0.000000	0.000900	0.750000
Cd121	Cd12	0.500000	0.091370	0.750000
F41	F4	0.500000	0.909600	0.750000
N361	N36	0.500000	0.280100	0.750000
C1911	C191	0.500000	0.619700	0.750000
C1921	C192	0.500000	0.500900	0.750000
