data_LIFWOO_clean_PM
_symmetry_space_group_name_H-M	'P1'
_cell_length_a	15.047300
_cell_length_b	17.789200
_cell_length_c	17.789200
_cell_angle_alpha	90.000000
_cell_angle_beta	90.000000
_cell_angle_gamma	90.000000
_symmetry_Int_Tables_number 1

loop_
_symmetry_equiv_pos_as_xyz
'x,y,z'

loop_
_atom_site_label
_atom_site_type_symbol
_atom_site_fract_x
_atom_site_fract_y
_atom_site_fract_z
Zn11	Zn1	0.871560	0.750000	0.750000
Zn21	Zn2	0.371560	0.750000	0.750000
Si11	Si1	0.621470	0.750000	0.750000
Si21	Si2	0.121470	0.750000	0.750000
H11	H1	0.771100	0.826800	0.878100
H21	H2	0.772600	0.840400	0.007500
H31	H3	0.976700	0.692300	0.015400
H41	H4	0.973000	0.686300	0.885200
H51	H5	0.880100	0.661600	0.130600
H61	H6	0.875200	0.899300	0.243700
H71	H7	0.870700	0.888900	0.114600
H81	H8	0.771100	0.673200	0.621900
H91	H9	0.772600	0.659600	0.492500
H101	H10	0.976700	0.807700	0.484600
H111	H11	0.973000	0.813700	0.614800
H121	H12	0.880100	0.838400	0.369400
H131	H13	0.875200	0.600700	0.256300
H141	H14	0.870700	0.611100	0.385400
H151	H15	0.771100	0.621900	0.826800
H161	H16	0.772600	0.492500	0.840400
H171	H17	0.976700	0.484600	0.692300
H181	H18	0.973000	0.614800	0.686300
H191	H19	0.880100	0.369400	0.661600
H201	H20	0.875200	0.256300	0.899300
H211	H21	0.870700	0.385400	0.888900
H221	H22	0.771100	0.878100	0.673200
H231	H23	0.772600	0.007500	0.659600
H241	H24	0.976700	0.015400	0.807700
H251	H25	0.973000	0.885200	0.813700
H261	H26	0.880100	0.130600	0.838400
H271	H27	0.875200	0.243700	0.600700
H281	H28	0.870700	0.114600	0.611100
H291	H29	0.271100	0.826800	0.621900
H301	H30	0.272600	0.840400	0.492500
H311	H31	0.476700	0.692300	0.484600
H321	H32	0.473000	0.686300	0.614800
H331	H33	0.380100	0.661600	0.369400
H341	H34	0.375200	0.899300	0.256300
H351	H35	0.370700	0.888900	0.385400
H361	H36	0.271100	0.673200	0.878100
H371	H37	0.272600	0.659600	0.007500
H381	H38	0.476700	0.807700	0.015400
H391	H39	0.473000	0.813700	0.885200
H401	H40	0.380100	0.838400	0.130600
H411	H41	0.375200	0.600700	0.243700
H421	H42	0.370700	0.611100	0.114600
H431	H43	0.271100	0.621900	0.673200
H441	H44	0.272600	0.492500	0.659600
H451	H45	0.476700	0.484600	0.807700
H461	H46	0.473000	0.614800	0.813700
H471	H47	0.380100	0.369400	0.838400
H481	H48	0.375200	0.256300	0.600700
H491	H49	0.370700	0.385400	0.611100
H501	H50	0.271100	0.878100	0.826800
H511	H51	0.272600	0.007500	0.840400
H521	H52	0.476700	0.015400	0.692300
H531	H53	0.473000	0.885200	0.686300
H541	H54	0.380100	0.130600	0.661600
H551	H55	0.375200	0.243700	0.899300
H561	H56	0.370700	0.114600	0.888900
C11	C1	0.814000	0.799830	0.906530
C21	C2	0.813800	0.807620	0.983690
C31	C3	0.874750	0.766800	0.026400
C41	C4	0.934200	0.721100	0.988270
C51	C5	0.931300	0.717390	0.910610
C61	C6	0.876290	0.773000	0.109400
C71	C7	0.878270	0.709700	0.153790
C81	C8	0.877640	0.714500	0.232650
C91	C9	0.875500	0.850900	0.221100
C101	C10	0.873700	0.844800	0.144600
C111	C11	0.814000	0.700170	0.593470
C121	C12	0.813800	0.692380	0.516310
C131	C13	0.874750	0.733200	0.473600
C141	C14	0.934200	0.778900	0.511730
C151	C15	0.931300	0.782610	0.589390
C161	C16	0.876290	0.727000	0.390600
C171	C17	0.878270	0.790300	0.346210
C181	C18	0.877640	0.785500	0.267350
C191	C19	0.875500	0.649100	0.278900
C201	C20	0.873700	0.655200	0.355400
C211	C21	0.814000	0.593470	0.799830
C221	C22	0.813800	0.516310	0.807620
C231	C23	0.874750	0.473600	0.766800
C241	C24	0.934200	0.511730	0.721100
C251	C25	0.931300	0.589390	0.717390
C261	C26	0.876290	0.390600	0.773000
C271	C27	0.878270	0.346210	0.709700
C281	C28	0.877640	0.267350	0.714500
C291	C29	0.875500	0.278900	0.850900
C301	C30	0.873700	0.355400	0.844800
C311	C31	0.814000	0.906530	0.700170
C321	C32	0.813800	0.983690	0.692380
C331	C33	0.874750	0.026400	0.733200
C341	C34	0.934200	0.988270	0.778900
C351	C35	0.931300	0.910610	0.782610
C361	C36	0.876290	0.109400	0.727000
C371	C37	0.878270	0.153790	0.790300
C381	C38	0.877640	0.232650	0.785500
C391	C39	0.875500	0.221100	0.649100
C401	C40	0.873700	0.144600	0.655200
C411	C41	0.314000	0.799830	0.593470
C421	C42	0.313800	0.807620	0.516310
C431	C43	0.374750	0.766800	0.473600
C441	C44	0.434200	0.721100	0.511730
C451	C45	0.431300	0.717390	0.589390
C461	C46	0.376290	0.773000	0.390600
C471	C47	0.378270	0.709700	0.346210
C481	C48	0.377640	0.714500	0.267350
C491	C49	0.375500	0.850900	0.278900
C501	C50	0.373700	0.844800	0.355400
C511	C51	0.314000	0.700170	0.906530
C521	C52	0.313800	0.692380	0.983690
C531	C53	0.374750	0.733200	0.026400
C541	C54	0.434200	0.778900	0.988270
C551	C55	0.431300	0.782610	0.910610
C561	C56	0.376290	0.727000	0.109400
C571	C57	0.378270	0.790300	0.153790
C581	C58	0.377640	0.785500	0.232650
C591	C59	0.375500	0.649100	0.221100
C601	C60	0.373700	0.655200	0.144600
C611	C61	0.314000	0.593470	0.700170
C621	C62	0.313800	0.516310	0.692380
C631	C63	0.374750	0.473600	0.733200
C641	C64	0.434200	0.511730	0.778900
C651	C65	0.431300	0.589390	0.782610
C661	C66	0.376290	0.390600	0.727000
C671	C67	0.378270	0.346210	0.790300
C681	C68	0.377640	0.267350	0.785500
C691	C69	0.375500	0.278900	0.649100
C701	C70	0.373700	0.355400	0.655200
C711	C71	0.314000	0.906530	0.799830
C721	C72	0.313800	0.983690	0.807620
C731	C73	0.374750	0.026400	0.766800
C741	C74	0.434200	0.988270	0.721100
C751	C75	0.431300	0.910610	0.717390
C761	C76	0.376290	0.109400	0.773000
C771	C77	0.378270	0.153790	0.709700
C781	C78	0.377640	0.232650	0.714500
C791	C79	0.375500	0.221100	0.850900
C801	C80	0.373700	0.144600	0.844800
N11	N1	0.871930	0.756020	0.869840
N21	N2	0.871930	0.743980	0.630160
N31	N3	0.871930	0.630160	0.756020
N41	N4	0.871930	0.869840	0.743980
N51	N5	0.371930	0.756020	0.630160
N61	N6	0.371930	0.743980	0.869840
N71	N7	0.371930	0.630160	0.743980
N81	N8	0.371930	0.869840	0.756020
F11	F1	0.621370	0.699300	0.828960
F21	F2	0.621370	0.800700	0.671040
F31	F3	0.621370	0.671040	0.699300
F41	F4	0.621370	0.828960	0.800700
F51	F5	0.121370	0.699300	0.671040
F61	F6	0.121370	0.800700	0.828960
F71	F7	0.121370	0.671040	0.800700
F81	F8	0.121370	0.828960	0.699300
F91	F9	0.734300	0.750000	0.750000
F101	F10	0.508700	0.750000	0.750000
F111	F11	0.234300	0.750000	0.750000
F121	F12	0.008700	0.750000	0.750000
Zn31	Zn3	0.628440	0.250000	0.250000
Zn41	Zn4	0.128440	0.250000	0.250000
Si31	Si3	0.878530	0.250000	0.250000
Si41	Si4	0.378530	0.250000	0.250000
H571	H57	0.728900	0.173200	0.378100
H581	H58	0.727400	0.159600	0.507500
H591	H59	0.523300	0.307700	0.515400
H601	H60	0.527000	0.313700	0.385200
H611	H61	0.619900	0.338400	0.630600
H621	H62	0.624800	0.100700	0.743700
H631	H63	0.629300	0.111100	0.614600
H641	H64	0.728900	0.326800	0.121900
H651	H65	0.727400	0.340400	0.992500
H661	H66	0.523300	0.192300	0.984600
H671	H67	0.527000	0.186300	0.114800
H681	H68	0.619900	0.161600	0.869400
H691	H69	0.624800	0.399300	0.756300
H701	H70	0.629300	0.388900	0.885400
H711	H71	0.728900	0.378100	0.326800
H721	H72	0.727400	0.507500	0.340400
H731	H73	0.523300	0.515400	0.192300
H741	H74	0.527000	0.385200	0.186300
H751	H75	0.619900	0.630600	0.161600
H761	H76	0.624800	0.743700	0.399300
H771	H77	0.629300	0.614600	0.388900
H781	H78	0.728900	0.121900	0.173200
H791	H79	0.727400	0.992500	0.159600
H801	H80	0.523300	0.984600	0.307700
H811	H81	0.527000	0.114800	0.313700
H821	H82	0.619900	0.869400	0.338400
H831	H83	0.624800	0.756300	0.100700
H841	H84	0.629300	0.885400	0.111100
H851	H85	0.228900	0.173200	0.121900
H861	H86	0.227400	0.159600	0.992500
H871	H87	0.023300	0.307700	0.984600
H881	H88	0.027000	0.313700	0.114800
H891	H89	0.119900	0.338400	0.869400
H901	H90	0.124800	0.100700	0.756300
H911	H91	0.129300	0.111100	0.885400
H921	H92	0.228900	0.326800	0.378100
H931	H93	0.227400	0.340400	0.507500
H941	H94	0.023300	0.192300	0.515400
H951	H95	0.027000	0.186300	0.385200
H961	H96	0.119900	0.161600	0.630600
H971	H97	0.124800	0.399300	0.743700
H981	H98	0.129300	0.388900	0.614600
H991	H99	0.228900	0.378100	0.173200
H1001	H100	0.227400	0.507500	0.159600
H1011	H101	0.023300	0.515400	0.307700
H1021	H102	0.027000	0.385200	0.313700
H1031	H103	0.119900	0.630600	0.338400
H1041	H104	0.124800	0.743700	0.100700
H1051	H105	0.129300	0.614600	0.111100
H1061	H106	0.228900	0.121900	0.326800
H1071	H107	0.227400	0.992500	0.340400
H1081	H108	0.023300	0.984600	0.192300
H1091	H109	0.027000	0.114800	0.186300
H1101	H110	0.119900	0.869400	0.161600
H1111	H111	0.124800	0.756300	0.399300
H1121	H112	0.129300	0.885400	0.388900
C811	C81	0.686000	0.200170	0.406530
C821	C82	0.686200	0.192380	0.483690
C831	C83	0.625250	0.233200	0.526400
C841	C84	0.565800	0.278900	0.488270
C851	C85	0.568700	0.282610	0.410610
C861	C86	0.623710	0.227000	0.609400
C871	C87	0.621730	0.290300	0.653790
C881	C88	0.622360	0.285500	0.732650
C891	C89	0.624500	0.149100	0.721100
C901	C90	0.626300	0.155200	0.644600
C911	C91	0.686000	0.299830	0.093470
C921	C92	0.686200	0.307620	0.016310
C931	C93	0.625250	0.266800	0.973600
C941	C94	0.565800	0.221100	0.011730
C951	C95	0.568700	0.217390	0.089390
C961	C96	0.623710	0.273000	0.890600
C971	C97	0.621730	0.209700	0.846210
C981	C98	0.622360	0.214500	0.767350
C991	C99	0.624500	0.350900	0.778900
C1001	C100	0.626300	0.344800	0.855400
C1011	C101	0.686000	0.406530	0.299830
C1021	C102	0.686200	0.483690	0.307620
C1031	C103	0.625250	0.526400	0.266800
C1041	C104	0.565800	0.488270	0.221100
C1051	C105	0.568700	0.410610	0.217390
C1061	C106	0.623710	0.609400	0.273000
C1071	C107	0.621730	0.653790	0.209700
C1081	C108	0.622360	0.732650	0.214500
C1091	C109	0.624500	0.721100	0.350900
C1101	C110	0.626300	0.644600	0.344800
C1111	C111	0.686000	0.093470	0.200170
C1121	C112	0.686200	0.016310	0.192380
C1131	C113	0.625250	0.973600	0.233200
C1141	C114	0.565800	0.011730	0.278900
C1151	C115	0.568700	0.089390	0.282610
C1161	C116	0.623710	0.890600	0.227000
C1171	C117	0.621730	0.846210	0.290300
C1181	C118	0.622360	0.767350	0.285500
C1191	C119	0.624500	0.778900	0.149100
C1201	C120	0.626300	0.855400	0.155200
C1211	C121	0.186000	0.200170	0.093470
C1221	C122	0.186200	0.192380	0.016310
C1231	C123	0.125250	0.233200	0.973600
C1241	C124	0.065800	0.278900	0.011730
C1251	C125	0.068700	0.282610	0.089390
C1261	C126	0.123710	0.227000	0.890600
C1271	C127	0.121730	0.290300	0.846210
C1281	C128	0.122360	0.285500	0.767350
C1291	C129	0.124500	0.149100	0.778900
C1301	C130	0.126300	0.155200	0.855400
C1311	C131	0.186000	0.299830	0.406530
C1321	C132	0.186200	0.307620	0.483690
C1331	C133	0.125250	0.266800	0.526400
C1341	C134	0.065800	0.221100	0.488270
C1351	C135	0.068700	0.217390	0.410610
C1361	C136	0.123710	0.273000	0.609400
C1371	C137	0.121730	0.209700	0.653790
C1381	C138	0.122360	0.214500	0.732650
C1391	C139	0.124500	0.350900	0.721100
C1401	C140	0.126300	0.344800	0.644600
C1411	C141	0.186000	0.406530	0.200170
C1421	C142	0.186200	0.483690	0.192380
C1431	C143	0.125250	0.526400	0.233200
C1441	C144	0.065800	0.488270	0.278900
C1451	C145	0.068700	0.410610	0.282610
C1461	C146	0.123710	0.609400	0.227000
C1471	C147	0.121730	0.653790	0.290300
C1481	C148	0.122360	0.732650	0.285500
C1491	C149	0.124500	0.721100	0.149100
C1501	C150	0.126300	0.644600	0.155200
C1511	C151	0.186000	0.093470	0.299830
C1521	C152	0.186200	0.016310	0.307620
C1531	C153	0.125250	0.973600	0.266800
C1541	C154	0.065800	0.011730	0.221100
C1551	C155	0.068700	0.089390	0.217390
C1561	C156	0.123710	0.890600	0.273000
C1571	C157	0.121730	0.846210	0.209700
C1581	C158	0.122360	0.767350	0.214500
C1591	C159	0.124500	0.778900	0.350900
C1601	C160	0.126300	0.855400	0.344800
N91	N9	0.628070	0.243980	0.369840
N101	N10	0.628070	0.256020	0.130160
N111	N11	0.628070	0.369840	0.256020
N121	N12	0.628070	0.130160	0.243980
N131	N13	0.128070	0.243980	0.130160
N141	N14	0.128070	0.256020	0.369840
N151	N15	0.128070	0.369840	0.243980
N161	N16	0.128070	0.130160	0.256020
F131	F13	0.878630	0.300700	0.328960
F141	F14	0.878630	0.199300	0.171040
F151	F15	0.878630	0.328960	0.199300
F161	F16	0.878630	0.171040	0.300700
F171	F17	0.378630	0.300700	0.171040
F181	F18	0.378630	0.199300	0.328960
F191	F19	0.378630	0.328960	0.300700
F201	F20	0.378630	0.171040	0.199300
F211	F21	0.765700	0.250000	0.250000
F221	F22	0.991300	0.250000	0.250000
F231	F23	0.265700	0.250000	0.250000
F241	F24	0.491300	0.250000	0.250000
