data_LIGHAM_clean_PM
_symmetry_space_group_name_H-M	'P1'
_cell_length_a	13.866900
_cell_length_b	14.893200
_cell_length_c	15.027300
_cell_angle_alpha	119.188000
_cell_angle_beta	116.933000
_cell_angle_gamma	90.976300
_symmetry_Int_Tables_number 1

loop_
_symmetry_equiv_pos_as_xyz
'x,y,z'

loop_
_atom_site_label
_atom_site_type_symbol
_atom_site_fract_x
_atom_site_fract_y
_atom_site_fract_z
Mn11	Mn1	0.287160	0.037160	0.074320
Mn21	Mn2	0.712840	0.962840	0.925680
Mn31	Mn3	0.000000	0.000000	0.000000
Mn41	Mn4	0.500000	0.000000	0.000000
H11	H1	0.353500	0.029800	0.401800
H21	H2	0.068400	0.115500	0.279800
H31	H3	0.043600	0.129600	0.430000
H41	H4	0.052100	0.128900	0.614200
H51	H5	0.097100	0.120200	0.778800
H61	H6	0.371900	0.028700	0.784000
H71	H7	0.393600	0.906000	0.597600
H81	H8	0.389000	0.906300	0.489600
H91	H9	0.189900	0.845000	0.382800
H101	H10	0.244100	0.762300	0.413200
H111	H11	0.196400	0.841700	0.490200
H121	H12	0.507500	0.094600	0.628200
H131	H13	0.512400	0.096600	0.737600
H141	H14	0.435700	0.243700	0.773000
H151	H15	0.560000	0.270800	0.795600
H161	H16	0.451000	0.246200	0.674800
H171	H17	0.548300	0.372000	0.401800
H181	H18	0.711400	0.164300	0.279800
H191	H19	0.886400	0.300400	0.430000
H201	H20	0.062100	0.485300	0.614200
H211	H21	0.181700	0.658600	0.778800
H221	H22	0.912100	0.755300	0.784000
H231	H23	0.704000	0.691600	0.597600
H241	H24	0.600600	0.583300	0.489600
H251	H25	0.692900	0.537800	0.382800
H261	H26	0.669100	0.650900	0.413200
H271	H27	0.793800	0.648500	0.490200
H281	H28	0.620700	0.533600	0.628200
H291	H29	0.725200	0.641000	0.737600
H301	H30	0.837300	0.529300	0.773000
H311	H31	0.735600	0.524800	0.795600
H321	H32	0.723800	0.428600	0.674800
H331	H33	0.646500	0.970200	0.598200
H341	H34	0.931600	0.884500	0.720200
H351	H35	0.956400	0.870400	0.570000
H361	H36	0.947900	0.871100	0.385800
H371	H37	0.902900	0.879800	0.221200
H381	H38	0.628100	0.971300	0.216000
H391	H39	0.606400	0.094000	0.402400
H401	H40	0.611000	0.093700	0.510400
H411	H41	0.810100	0.155000	0.617200
H421	H42	0.755900	0.237700	0.586800
H431	H43	0.803600	0.158300	0.509800
H441	H44	0.492500	0.905400	0.371800
H451	H45	0.487600	0.903400	0.262400
H461	H46	0.564300	0.756300	0.227000
H471	H47	0.440000	0.729200	0.204400
H481	H48	0.549000	0.753800	0.325200
H491	H49	0.451700	0.628000	0.598200
H501	H50	0.288600	0.835700	0.720200
H511	H51	0.113600	0.699600	0.570000
H521	H52	0.937900	0.514700	0.385800
H531	H53	0.818300	0.341400	0.221200
H541	H54	0.087900	0.244700	0.216000
H551	H55	0.296000	0.308400	0.402400
H561	H56	0.399400	0.416700	0.510400
H571	H57	0.307100	0.462200	0.617200
H581	H58	0.330900	0.349100	0.586800
H591	H59	0.206200	0.351500	0.509800
H601	H60	0.379300	0.466400	0.371800
H611	H61	0.274800	0.359000	0.262400
H621	H62	0.162700	0.470700	0.227000
H631	H63	0.264400	0.475200	0.204400
H641	H64	0.276200	0.571400	0.325200
C11	C1	0.229080	0.059480	0.229960
C21	C2	0.212280	0.071080	0.326360
C31	C3	0.290700	0.049600	0.407400
C41	C4	0.275760	0.057560	0.495320
C51	C5	0.121030	0.100830	0.335060
C61	C6	0.106040	0.109340	0.424080
C71	C7	0.183410	0.087910	0.503820
C81	C8	0.188260	0.087660	0.603920
C91	C9	0.117440	0.109740	0.649080
C101	C10	0.143910	0.103310	0.746020
C111	C11	0.262170	0.062870	0.897940
C121	C12	0.236580	0.072880	0.795760
C131	C13	0.307850	0.049750	0.750100
C141	C14	0.283550	0.057950	0.654900
C151	C15	0.347620	0.035320	0.590640
C161	C16	0.349100	0.917600	0.532800
C171	C17	0.235100	0.834500	0.447400
C181	C18	0.470400	0.111300	0.675000
C191	C19	0.480100	0.227900	0.734600
C201	C20	0.500880	0.170480	0.229960
C211	C21	0.614080	0.255280	0.326360
C221	C22	0.616700	0.357800	0.407400
C231	C23	0.719560	0.437760	0.495320
C241	C24	0.714030	0.234230	0.335060
C251	C25	0.818040	0.314740	0.424080
C261	C26	0.820410	0.415910	0.503820
C271	C27	0.915660	0.516260	0.603920
C281	C28	0.031640	0.539340	0.649080
C291	C29	0.102110	0.642710	0.746020
C301	C30	0.135770	0.835070	0.897940
C311	C31	0.059180	0.722880	0.795760
C321	C32	0.942250	0.700350	0.750100
C331	C33	0.871350	0.596950	0.654900
C341	C34	0.743020	0.555320	0.590640
C351	C35	0.683700	0.615200	0.532800
C361	C36	0.712300	0.612900	0.447400
C371	C37	0.704600	0.563700	0.675000
C381	C38	0.754500	0.506700	0.734600
C391	C39	0.770920	0.940520	0.770040
C401	C40	0.787720	0.928920	0.673640
C411	C41	0.709300	0.950400	0.592600
C421	C42	0.724240	0.942440	0.504680
C431	C43	0.878970	0.899170	0.664940
C441	C44	0.893960	0.890660	0.575920
C451	C45	0.816590	0.912090	0.496180
C461	C46	0.811740	0.912340	0.396080
C471	C47	0.882560	0.890260	0.350920
C481	C48	0.856090	0.896690	0.253980
C491	C49	0.737830	0.937130	0.102060
C501	C50	0.763420	0.927120	0.204240
C511	C51	0.692150	0.950250	0.249900
C521	C52	0.716450	0.942050	0.345100
C531	C53	0.652380	0.964680	0.409360
C541	C54	0.650900	0.082400	0.467200
C551	C55	0.764900	0.165500	0.552600
C561	C56	0.529600	0.888700	0.325000
C571	C57	0.519900	0.772100	0.265400
C581	C58	0.499120	0.829520	0.770040
C591	C59	0.385920	0.744720	0.673640
C601	C60	0.383300	0.642200	0.592600
C611	C61	0.280440	0.562240	0.504680
C621	C62	0.285970	0.765770	0.664940
C631	C63	0.181960	0.685260	0.575920
C641	C64	0.179590	0.584090	0.496180
C651	C65	0.084340	0.483740	0.396080
C661	C66	0.968360	0.460660	0.350920
C671	C67	0.897890	0.357290	0.253980
C681	C68	0.864230	0.164930	0.102060
C691	C69	0.940820	0.277120	0.204240
C701	C70	0.057750	0.299650	0.249900
C711	C71	0.128650	0.403050	0.345100
C721	C72	0.256980	0.444680	0.409360
C731	C73	0.316300	0.384800	0.467200
C741	C74	0.287700	0.387100	0.552600
C751	C75	0.295400	0.436300	0.325000
C761	C76	0.245500	0.493300	0.265400
O11	O1	0.303510	0.020610	0.216520
O21	O2	0.166480	0.089680	0.162760
O31	O3	0.330950	0.012350	0.924320
O41	O4	0.214540	0.101940	0.955740
O51	O5	0.413010	0.195910	0.216520
O61	O6	0.496280	0.073080	0.162760
O71	O7	0.093370	0.911970	0.924320
O81	O8	0.241200	0.853800	0.955740
O91	O9	0.696490	0.979390	0.783480
O101	O10	0.833520	0.910320	0.837240
O111	O11	0.669050	0.987650	0.075680
O121	O12	0.785460	0.898060	0.044260
O131	O13	0.586990	0.804090	0.783480
O141	O14	0.503720	0.926920	0.837240
O151	O15	0.906630	0.088030	0.075680
O161	O16	0.758800	0.146200	0.044260
