data_LIHRIE_clean_PM
_symmetry_space_group_name_H-M	'P1'
_cell_length_a	6.811900
_cell_length_b	7.318300
_cell_length_c	13.784600
_cell_angle_alpha	90.000000
_cell_angle_beta	90.000000
_cell_angle_gamma	90.000000
_symmetry_Int_Tables_number 1

loop_
_symmetry_equiv_pos_as_xyz
'x,y,z'

loop_
_atom_site_label
_atom_site_type_symbol
_atom_site_fract_x
_atom_site_fract_y
_atom_site_fract_z
Zn11	Zn1	0.750000	0.182630	0.586240
Zn21	Zn2	0.250000	0.317370	0.086240
Zn31	Zn3	0.250000	0.817370	0.413760
Zn41	Zn4	0.750000	0.682630	0.913760
Zn51	Zn5	0.000000	0.500000	0.500000
Zn61	Zn6	0.000000	0.000000	0.000000
Zn71	Zn7	0.500000	0.500000	0.500000
Zn81	Zn8	0.500000	0.000000	0.000000
H11	H1	0.038600	0.137900	0.766800
H21	H2	0.961400	0.362100	0.266800
H31	H3	0.538600	0.862100	0.233200
H41	H4	0.461400	0.637900	0.733200
H51	H5	0.961400	0.862100	0.233200
H61	H6	0.038600	0.637900	0.733200
H71	H7	0.461400	0.137900	0.766800
H81	H8	0.538600	0.362100	0.266800
H91	H9	0.750000	0.291000	0.431000
H101	H10	0.250000	0.209000	0.931000
H111	H11	0.250000	0.709000	0.569000
H121	H12	0.750000	0.791000	0.069000
C11	C1	0.905800	0.127200	0.787020
C21	C2	0.094200	0.372800	0.287020
C31	C3	0.405800	0.872800	0.212980
C41	C4	0.594200	0.627200	0.712980
C51	C5	0.094200	0.872800	0.212980
C61	C6	0.905800	0.627200	0.712980
C71	C7	0.594200	0.127200	0.787020
C81	C8	0.405800	0.372800	0.287020
N11	N1	0.851300	0.080500	0.875400
N21	N2	0.148700	0.419500	0.375400
N31	N3	0.351300	0.919500	0.124600
N41	N4	0.648700	0.580500	0.624600
N51	N5	0.148700	0.919500	0.124600
N61	N6	0.851300	0.580500	0.624600
N71	N7	0.648700	0.080500	0.875400
N81	N8	0.351300	0.419500	0.375400
N91	N9	0.750000	0.158000	0.728660
N101	N10	0.250000	0.342000	0.228660
N111	N11	0.250000	0.842000	0.271340
N121	N12	0.750000	0.658000	0.771340
O11	O1	0.750000	0.351100	0.473540
O21	O2	0.250000	0.148900	0.973540
O31	O3	0.250000	0.648900	0.526460
O41	O4	0.750000	0.851100	0.026460
