data_LIJNOJ01_clean_PM
_symmetry_space_group_name_H-M	'P1'
_cell_length_a	17.551500
_cell_length_b	14.287500
_cell_length_c	18.745600
_cell_angle_alpha	90.000000
_cell_angle_beta	97.436000
_cell_angle_gamma	90.000000
_symmetry_Int_Tables_number 1

loop_
_symmetry_equiv_pos_as_xyz
'x,y,z'

loop_
_atom_site_label
_atom_site_type_symbol
_atom_site_fract_x
_atom_site_fract_y
_atom_site_fract_z
Mn11	Mn1	0.616250	0.428770	0.995030
Mn21	Mn2	0.868090	0.576650	0.995260
N11	N1	0.677340	0.314500	0.931750
O11	O1	0.819020	0.025260	0.558420
O21	O2	0.711680	0.097450	0.579630
C11	C1	0.777890	0.066700	0.598020
C21	C2	0.812000	0.083800	0.675900
C31	C3	0.771810	0.134900	0.721340
H11	H1	0.722800	0.158300	0.704000
C41	C4	0.802800	0.152500	0.792670
C51	C5	0.875800	0.117700	0.816600
H21	H2	0.898300	0.130200	0.863900
C61	C6	0.915400	0.065200	0.771900
H31	H3	0.964200	0.041300	0.789300
C71	C7	0.883900	0.047300	0.701320
H41	H4	0.910900	0.011000	0.671100
C81	C8	0.642600	0.249500	0.887420
H51	H5	0.589500	0.240100	0.887200
C91	C9	0.680600	0.195200	0.841870
H61	H6	0.653400	0.150500	0.811700
C101	C10	0.759410	0.207200	0.841020
C111	C11	0.795600	0.272600	0.889140
H71	H7	0.849000	0.281300	0.892500
C121	C12	0.753320	0.324600	0.931780
H81	H8	0.779100	0.369500	0.962600
N21	N2	0.546670	0.163100	0.565340
O31	O3	0.413210	0.456870	0.939290
O41	O4	0.524150	0.403720	0.908990
C131	C13	0.453920	0.422000	0.896010
C141	C14	0.415050	0.396700	0.821270
C151	C15	0.454750	0.346900	0.773910
H91	H9	0.506200	0.329800	0.788200
C161	C16	0.419270	0.322000	0.705390
C171	C17	0.343400	0.350000	0.684240
H101	H10	0.319300	0.335000	0.637900
C181	C18	0.303600	0.399500	0.730900
H111	H11	0.252500	0.417800	0.716300
C191	C19	0.339030	0.422500	0.799540
H121	H12	0.311500	0.455500	0.831300
C201	C20	0.556900	0.151100	0.636860
H131	H13	0.593300	0.106700	0.656400
C211	C21	0.516900	0.200300	0.683270
H141	H14	0.526400	0.188900	0.733000
C221	C22	0.462210	0.267100	0.656450
C231	C23	0.449500	0.276100	0.582540
H151	H15	0.411800	0.317800	0.561200
C241	C24	0.492200	0.223600	0.539890
H161	H16	0.482000	0.231100	0.489800
N31	N3	0.071560	0.181860	0.570690
O51	O5	0.923600	0.467870	0.941360
O61	O6	0.035290	0.406540	0.920030
C251	C25	0.967770	0.434000	0.901080
C261	C26	0.936960	0.421000	0.822310
C271	C27	0.977930	0.369100	0.777560
H171	H17	0.026500	0.345300	0.795800
C281	C28	0.948540	0.351400	0.706070
C291	C29	0.876900	0.388800	0.679960
H181	H18	0.855700	0.377200	0.632100
C301	C30	0.836900	0.442500	0.723800
H191	H19	0.789200	0.468400	0.705000
C311	C31	0.866100	0.458800	0.795330
H201	H20	0.838300	0.494900	0.825000
C321	C32	0.108070	0.243500	0.617230
H211	H21	0.161700	0.248700	0.619600
C331	C33	0.070960	0.299500	0.661640
H221	H22	0.099200	0.341500	0.693400
C341	C34	0.991370	0.293700	0.659370
C351	C35	0.953300	0.230700	0.610270
H231	H23	0.899500	0.225700	0.605600
C361	C36	0.994600	0.176000	0.568740
H241	H24	0.967900	0.132400	0.537400
N41	N4	0.808930	0.807210	0.554580
O71	O7	0.664410	0.528390	0.929570
O81	O8	0.775150	0.590360	0.907100
C371	C37	0.707870	0.561700	0.888260
C381	C38	0.677280	0.569900	0.808890
C391	C39	0.716940	0.621900	0.763100
H251	H25	0.763500	0.650800	0.781300
C401	C40	0.688540	0.632100	0.689980
C411	C41	0.619600	0.587600	0.663840
H261	H26	0.599400	0.594100	0.615200
C421	C42	0.581000	0.534200	0.709100
H271	H27	0.535300	0.503400	0.690600
C431	C43	0.608940	0.525500	0.781940
H281	H28	0.581900	0.490000	0.812600
C441	C44	0.846710	0.751000	0.604510
H291	H29	0.900700	0.750900	0.609500
C451	C45	0.810900	0.693100	0.648970
H301	H30	0.840400	0.656300	0.683700
C461	C46	0.730920	0.689500	0.642200
C471	C47	0.692020	0.745800	0.588870
H311	H31	0.638000	0.744800	0.581000
C481	C48	0.731900	0.803100	0.547330
H321	H32	0.703800	0.841100	0.512400
Mn31	Mn3	0.383750	0.928770	0.504970
Mn41	Mn4	0.131910	0.076650	0.504740
N51	N5	0.322660	0.814500	0.568250
O91	O9	0.180980	0.525260	0.941580
O101	O10	0.288320	0.597450	0.920370
C491	C49	0.222110	0.566700	0.901980
C501	C50	0.188000	0.583800	0.824100
C511	C51	0.228190	0.634900	0.778660
H331	H33	0.277200	0.658300	0.796000
C521	C52	0.197200	0.652500	0.707330
C531	C53	0.124200	0.617700	0.683400
H341	H34	0.101700	0.630200	0.636100
C541	C54	0.084600	0.565200	0.728100
H351	H35	0.035800	0.541300	0.710700
C551	C55	0.116100	0.547300	0.798680
H361	H36	0.089100	0.511000	0.828900
C561	C56	0.357400	0.749500	0.612580
H371	H37	0.410500	0.740100	0.612800
C571	C57	0.319400	0.695200	0.658130
H381	H38	0.346600	0.650500	0.688300
C581	C58	0.240590	0.707200	0.658980
C591	C59	0.204400	0.772600	0.610860
H391	H39	0.151000	0.781300	0.607500
C601	C60	0.246680	0.824600	0.568220
H401	H40	0.220900	0.869500	0.537400
N61	N6	0.453330	0.663100	0.934660
O111	O11	0.586790	0.956870	0.560710
O121	O12	0.475850	0.903720	0.591010
C611	C61	0.546080	0.922000	0.603990
C621	C62	0.584950	0.896700	0.678730
C631	C63	0.545250	0.846900	0.726090
H411	H41	0.493800	0.829800	0.711800
C641	C64	0.580730	0.822000	0.794610
C651	C65	0.656600	0.850000	0.815760
H421	H42	0.680700	0.835000	0.862100
C661	C66	0.696400	0.899500	0.769100
H431	H43	0.747500	0.917800	0.783700
C671	C67	0.660970	0.922500	0.700460
H441	H44	0.688500	0.955500	0.668700
C681	C68	0.443100	0.651100	0.863140
H451	H45	0.406700	0.606700	0.843600
C691	C69	0.483100	0.700300	0.816730
H461	H46	0.473600	0.688900	0.767000
C701	C70	0.537790	0.767100	0.843550
C711	C71	0.550500	0.776100	0.917460
H471	H47	0.588200	0.817800	0.938800
C721	C72	0.507800	0.723600	0.960110
H481	H48	0.518000	0.731100	0.010200
N71	N7	0.928440	0.681860	0.929310
O131	O13	0.076400	0.967870	0.558640
O141	O14	0.964710	0.906540	0.579970
C731	C73	0.032230	0.934000	0.598920
C741	C74	0.063040	0.921000	0.677690
C751	C75	0.022070	0.869100	0.722440
H491	H49	0.973500	0.845300	0.704200
C761	C76	0.051460	0.851400	0.793930
C771	C77	0.123100	0.888800	0.820040
H501	H50	0.144300	0.877200	0.867900
C781	C78	0.163100	0.942500	0.776200
H511	H51	0.210800	0.968400	0.795000
C791	C79	0.133900	0.958800	0.704670
H521	H52	0.161700	0.994900	0.675000
C801	C80	0.891930	0.743500	0.882770
H531	H53	0.838300	0.748700	0.880400
C811	C81	0.929040	0.799500	0.838360
H541	H54	0.900800	0.841500	0.806600
C821	C82	0.008630	0.793700	0.840630
C831	C83	0.046700	0.730700	0.889730
H551	H55	0.100500	0.725700	0.894400
C841	C84	0.005400	0.676000	0.931260
H561	H56	0.032100	0.632400	0.962600
N81	N8	0.191070	0.307210	0.945420
O151	O15	0.335590	0.028390	0.570430
O161	O16	0.224850	0.090360	0.592900
C851	C85	0.292130	0.061700	0.611740
C861	C86	0.322720	0.069900	0.691110
C871	C87	0.283060	0.121900	0.736900
H571	H57	0.236500	0.150800	0.718700
C881	C88	0.311460	0.132100	0.810020
C891	C89	0.380400	0.087600	0.836160
H581	H58	0.400600	0.094100	0.884800
C901	C90	0.419000	0.034200	0.790900
H591	H59	0.464700	0.003400	0.809400
C911	C91	0.391060	0.025500	0.718060
H601	H60	0.418100	0.990000	0.687400
C921	C92	0.153290	0.251000	0.895490
H611	H61	0.099300	0.250900	0.890500
C931	C93	0.189100	0.193100	0.851030
H621	H62	0.159600	0.156300	0.816300
C941	C94	0.269080	0.189500	0.857800
C951	C95	0.307980	0.245800	0.911130
H631	H63	0.362000	0.244800	0.919000
C961	C96	0.268100	0.303100	0.952670
H641	H64	0.296200	0.341100	0.987600
Mn51	Mn5	0.383750	0.571230	0.004970
Mn61	Mn6	0.131910	0.423350	0.004740
N91	N9	0.322660	0.685500	0.068250
O171	O17	0.180980	0.974740	0.441580
O181	O18	0.288320	0.902550	0.420370
C971	C97	0.222110	0.933300	0.401980
C981	C98	0.188000	0.916200	0.324100
C991	C99	0.228190	0.865100	0.278660
H651	H65	0.277200	0.841700	0.296000
C1001	C100	0.197200	0.847500	0.207330
C1011	C101	0.124200	0.882300	0.183400
H661	H66	0.101700	0.869800	0.136100
C1021	C102	0.084600	0.934800	0.228100
H671	H67	0.035800	0.958700	0.210700
C1031	C103	0.116100	0.952700	0.298680
H681	H68	0.089100	0.989000	0.328900
C1041	C104	0.357400	0.750500	0.112580
H691	H69	0.410500	0.759900	0.112800
C1051	C105	0.319400	0.804800	0.158130
H701	H70	0.346600	0.849500	0.188300
C1061	C106	0.240590	0.792800	0.158980
C1071	C107	0.204400	0.727400	0.110860
H711	H71	0.151000	0.718700	0.107500
C1081	C108	0.246680	0.675400	0.068220
H721	H72	0.220900	0.630500	0.037400
N101	N10	0.453330	0.836900	0.434660
O191	O19	0.586790	0.543130	0.060710
O201	O20	0.475850	0.596280	0.091010
C1091	C109	0.546080	0.578000	0.103990
C1101	C110	0.584950	0.603300	0.178730
C1111	C111	0.545250	0.653100	0.226090
H731	H73	0.493800	0.670200	0.211800
C1121	C112	0.580730	0.678000	0.294610
C1131	C113	0.656600	0.650000	0.315760
H741	H74	0.680700	0.665000	0.362100
C1141	C114	0.696400	0.600500	0.269100
H751	H75	0.747500	0.582200	0.283700
C1151	C115	0.660970	0.577500	0.200460
H761	H76	0.688500	0.544500	0.168700
C1161	C116	0.443100	0.848900	0.363140
H771	H77	0.406700	0.893300	0.343600
C1171	C117	0.483100	0.799700	0.316730
H781	H78	0.473600	0.811100	0.267000
C1181	C118	0.537790	0.732900	0.343550
C1191	C119	0.550500	0.723900	0.417460
H791	H79	0.588200	0.682200	0.438800
C1201	C120	0.507800	0.776400	0.460110
H801	H80	0.518000	0.768900	0.510200
N111	N11	0.928440	0.818140	0.429310
O211	O21	0.076400	0.532130	0.058640
O221	O22	0.964710	0.593460	0.079970
C1211	C121	0.032230	0.566000	0.098920
C1221	C122	0.063040	0.579000	0.177690
C1231	C123	0.022070	0.630900	0.222440
H811	H81	0.973500	0.654700	0.204200
C1241	C124	0.051460	0.648600	0.293930
C1251	C125	0.123100	0.611200	0.320040
H821	H82	0.144300	0.622800	0.367900
C1261	C126	0.163100	0.557500	0.276200
H831	H83	0.210800	0.531600	0.295000
C1271	C127	0.133900	0.541200	0.204670
H841	H84	0.161700	0.505100	0.175000
C1281	C128	0.891930	0.756500	0.382770
H851	H85	0.838300	0.751300	0.380400
C1291	C129	0.929040	0.700500	0.338360
H861	H86	0.900800	0.658500	0.306600
C1301	C130	0.008630	0.706300	0.340630
C1311	C131	0.046700	0.769300	0.389730
H871	H87	0.100500	0.774300	0.394400
C1321	C132	0.005400	0.824000	0.431260
H881	H88	0.032100	0.867600	0.462600
N121	N12	0.191070	0.192790	0.445420
O231	O23	0.335590	0.471610	0.070430
O241	O24	0.224850	0.409640	0.092900
C1331	C133	0.292130	0.438300	0.111740
C1341	C134	0.322720	0.430100	0.191110
C1351	C135	0.283060	0.378100	0.236900
H891	H89	0.236500	0.349200	0.218700
C1361	C136	0.311460	0.367900	0.310020
C1371	C137	0.380400	0.412400	0.336160
H901	H90	0.400600	0.405900	0.384800
C1381	C138	0.419000	0.465800	0.290900
H911	H91	0.464700	0.496600	0.309400
C1391	C139	0.391060	0.474500	0.218060
H921	H92	0.418100	0.510000	0.187400
C1401	C140	0.153290	0.249000	0.395490
H931	H93	0.099300	0.249100	0.390500
C1411	C141	0.189100	0.306900	0.351030
H941	H94	0.159600	0.343700	0.316300
C1421	C142	0.269080	0.310500	0.357800
C1431	C143	0.307980	0.254200	0.411130
H951	H95	0.362000	0.255200	0.419000
C1441	C144	0.268100	0.196900	0.452670
H961	H96	0.296200	0.158900	0.487600
Mn71	Mn7	0.616250	0.071230	0.495030
Mn81	Mn8	0.868090	0.923350	0.495260
N131	N13	0.677340	0.185500	0.431750
O251	O25	0.819020	0.474740	0.058420
O261	O26	0.711680	0.402550	0.079630
C1451	C145	0.777890	0.433300	0.098020
C1461	C146	0.812000	0.416200	0.175900
C1471	C147	0.771810	0.365100	0.221340
H971	H97	0.722800	0.341700	0.204000
C1481	C148	0.802800	0.347500	0.292670
C1491	C149	0.875800	0.382300	0.316600
H981	H98	0.898300	0.369800	0.363900
C1501	C150	0.915400	0.434800	0.271900
H991	H99	0.964200	0.458700	0.289300
C1511	C151	0.883900	0.452700	0.201320
H1001	H100	0.910900	0.489000	0.171100
C1521	C152	0.642600	0.250500	0.387420
H1011	H101	0.589500	0.259900	0.387200
C1531	C153	0.680600	0.304800	0.341870
H1021	H102	0.653400	0.349500	0.311700
C1541	C154	0.759410	0.292800	0.341020
C1551	C155	0.795600	0.227400	0.389140
H1031	H103	0.849000	0.218700	0.392500
C1561	C156	0.753320	0.175400	0.431780
H1041	H104	0.779100	0.130500	0.462600
N141	N14	0.546670	0.336900	0.065340
O271	O27	0.413210	0.043130	0.439290
O281	O28	0.524150	0.096280	0.408990
C1571	C157	0.453920	0.078000	0.396010
C1581	C158	0.415050	0.103300	0.321270
C1591	C159	0.454750	0.153100	0.273910
H1051	H105	0.506200	0.170200	0.288200
C1601	C160	0.419270	0.178000	0.205390
C1611	C161	0.343400	0.150000	0.184240
H1061	H106	0.319300	0.165000	0.137900
C1621	C162	0.303600	0.100500	0.230900
H1071	H107	0.252500	0.082200	0.216300
C1631	C163	0.339030	0.077500	0.299540
H1081	H108	0.311500	0.044500	0.331300
C1641	C164	0.556900	0.348900	0.136860
H1091	H109	0.593300	0.393300	0.156400
C1651	C165	0.516900	0.299700	0.183270
H1101	H110	0.526400	0.311100	0.233000
C1661	C166	0.462210	0.232900	0.156450
C1671	C167	0.449500	0.223900	0.082540
H1111	H111	0.411800	0.182200	0.061200
C1681	C168	0.492200	0.276400	0.039890
H1121	H112	0.482000	0.268900	0.989800
N151	N15	0.071560	0.318140	0.070690
O291	O29	0.923600	0.032130	0.441360
O301	O30	0.035290	0.093460	0.420030
C1691	C169	0.967770	0.066000	0.401080
C1701	C170	0.936960	0.079000	0.322310
C1711	C171	0.977930	0.130900	0.277560
H1131	H113	0.026500	0.154700	0.295800
C1721	C172	0.948540	0.148600	0.206070
C1731	C173	0.876900	0.111200	0.179960
H1141	H114	0.855700	0.122800	0.132100
C1741	C174	0.836900	0.057500	0.223800
H1151	H115	0.789200	0.031600	0.205000
C1751	C175	0.866100	0.041200	0.295330
H1161	H116	0.838300	0.005100	0.325000
C1761	C176	0.108070	0.256500	0.117230
H1171	H117	0.161700	0.251300	0.119600
C1771	C177	0.070960	0.200500	0.161640
H1181	H118	0.099200	0.158500	0.193400
C1781	C178	0.991370	0.206300	0.159370
C1791	C179	0.953300	0.269300	0.110270
H1191	H119	0.899500	0.274300	0.105600
C1801	C180	0.994600	0.324000	0.068740
H1201	H120	0.967900	0.367600	0.037400
N161	N16	0.808930	0.692790	0.054580
O311	O31	0.664410	0.971610	0.429570
O321	O32	0.775150	0.909640	0.407100
C1811	C181	0.707870	0.938300	0.388260
C1821	C182	0.677280	0.930100	0.308890
C1831	C183	0.716940	0.878100	0.263100
H1211	H121	0.763500	0.849200	0.281300
C1841	C184	0.688540	0.867900	0.189980
C1851	C185	0.619600	0.912400	0.163840
H1221	H122	0.599400	0.905900	0.115200
C1861	C186	0.581000	0.965800	0.209100
H1231	H123	0.535300	0.996600	0.190600
C1871	C187	0.608940	0.974500	0.281940
H1241	H124	0.581900	0.010000	0.312600
C1881	C188	0.846710	0.749000	0.104510
H1251	H125	0.900700	0.749100	0.109500
C1891	C189	0.810900	0.806900	0.148970
H1261	H126	0.840400	0.843700	0.183700
C1901	C190	0.730920	0.810500	0.142200
C1911	C191	0.692020	0.754200	0.088870
H1271	H127	0.638000	0.755200	0.081000
C1921	C192	0.731900	0.696900	0.047330
H1281	H128	0.703800	0.658900	0.012400
