data_LIJNOJ_clean_PM
_symmetry_space_group_name_H-M	'P1'
_cell_length_a	17.581100
_cell_length_b	14.097800
_cell_length_c	18.787100
_cell_angle_alpha	90.000000
_cell_angle_beta	97.723000
_cell_angle_gamma	90.000000
_symmetry_Int_Tables_number 1

loop_
_symmetry_equiv_pos_as_xyz
'x,y,z'

loop_
_atom_site_label
_atom_site_type_symbol
_atom_site_fract_x
_atom_site_fract_y
_atom_site_fract_z
Mn11	Mn1	0.615420	0.429170	0.994620
Mn21	Mn2	0.867550	0.576680	0.994820
N11	N1	0.675660	0.313260	0.931970
O11	O1	0.819130	0.026750	0.557790
O21	O2	0.710760	0.097540	0.579240
C11	C1	0.777840	0.067650	0.597720
C21	C2	0.811790	0.084530	0.675270
C31	C3	0.771250	0.135200	0.721160
H11	H1	0.721500	0.158400	0.703800
C41	C4	0.802300	0.152740	0.792360
C51	C5	0.876120	0.119090	0.816550
H21	H2	0.898800	0.131900	0.864400
C61	C6	0.916460	0.067330	0.771410
H31	H3	0.966100	0.043700	0.788700
C71	C7	0.884430	0.049820	0.700800
H41	H4	0.912200	0.014100	0.670000
C81	C8	0.641500	0.246710	0.887240
H51	H5	0.588100	0.236200	0.886700
C91	C9	0.679980	0.192760	0.841980
H61	H6	0.653000	0.146600	0.811500
C101	C10	0.758260	0.206330	0.841130
C111	C11	0.794100	0.273450	0.888730
H71	H7	0.847800	0.283800	0.891400
C121	C12	0.751690	0.324770	0.931860
H81	H8	0.777500	0.370800	0.963300
N21	N2	0.545890	0.161950	0.564840
O31	O3	0.412120	0.454050	0.939350
O41	O4	0.523720	0.403700	0.908360
C131	C13	0.452750	0.420380	0.895760
C141	C14	0.413760	0.395160	0.820990
C151	C15	0.453320	0.345430	0.773560
H91	H9	0.505100	0.327500	0.788300
C161	C16	0.418550	0.321190	0.704650
C171	C17	0.342620	0.349760	0.683230
H101	H10	0.318200	0.335100	0.636300
C181	C18	0.302910	0.399480	0.730360
H111	H11	0.251500	0.418800	0.715400
C191	C19	0.337910	0.421180	0.799330
H121	H12	0.309900	0.453800	0.831700
C201	C20	0.556860	0.150010	0.636630
H131	H13	0.594400	0.105500	0.656500
C211	C21	0.516490	0.199060	0.682800
H141	H14	0.526000	0.187100	0.733000
C221	C22	0.461430	0.266500	0.655920
C231	C23	0.449090	0.277580	0.581770
H151	H15	0.411700	0.321300	0.560300
C241	C24	0.491770	0.224350	0.539350
H161	H16	0.481900	0.232800	0.488800
N31	N3	0.072580	0.183140	0.570500
O51	O5	0.923250	0.466740	0.941390
O61	O6	0.035980	0.406590	0.920250
C251	C25	0.967830	0.433240	0.900950
C261	C26	0.937400	0.421440	0.822540
C271	C27	0.978670	0.369590	0.777570
H171	H17	0.027700	0.345000	0.795900
C281	C28	0.949050	0.353290	0.706100
C291	C29	0.877250	0.390870	0.679430
H181	H18	0.856100	0.379600	0.630900
C301	C30	0.837180	0.444160	0.723330
H191	H19	0.789100	0.471000	0.704400
C311	C31	0.866160	0.459270	0.795090
H201	H20	0.837600	0.495100	0.825200
C321	C32	0.108920	0.245560	0.617320
H211	H21	0.163100	0.251200	0.619900
C331	C33	0.071900	0.301850	0.661890
H221	H22	0.100400	0.344500	0.694400
C341	C34	0.992180	0.295770	0.658880
C351	C35	0.954420	0.231820	0.609680
H231	H23	0.900100	0.226200	0.604800
C361	C36	0.996050	0.176810	0.568150
H241	H24	0.969300	0.132100	0.536200
N41	N4	0.808770	0.806260	0.553650
O71	O7	0.663220	0.529690	0.929120
O81	O8	0.774920	0.589990	0.906520
C371	C37	0.707000	0.562110	0.887800
C381	C38	0.676160	0.569430	0.808350
C391	C39	0.716100	0.621700	0.762430
H251	H25	0.763200	0.651200	0.780900
C401	C40	0.687890	0.631300	0.689610
C411	C41	0.618790	0.586060	0.663330
H261	H26	0.598700	0.591900	0.614000
C421	C42	0.579490	0.532960	0.708540
H271	H27	0.533000	0.502000	0.689900
C431	C43	0.607720	0.524650	0.781170
H281	H28	0.580400	0.488500	0.812100
C441	C44	0.846570	0.749780	0.604640
H291	H29	0.901100	0.750100	0.610400
C451	C45	0.810650	0.691510	0.648930
H301	H30	0.840200	0.653700	0.684200
C461	C46	0.730110	0.688510	0.641470
C471	C47	0.691950	0.744380	0.587080
H311	H31	0.637500	0.742800	0.578200
C481	C48	0.731770	0.801860	0.545970
H321	H32	0.703400	0.840400	0.510300
Mn31	Mn3	0.384580	0.929170	0.505380
Mn41	Mn4	0.132450	0.076680	0.505180
N51	N5	0.324340	0.813260	0.568030
O91	O9	0.180870	0.526750	0.942210
O101	O10	0.289240	0.597540	0.920760
C491	C49	0.222160	0.567650	0.902280
C501	C50	0.188210	0.584530	0.824730
C511	C51	0.228750	0.635200	0.778840
H331	H33	0.278500	0.658400	0.796200
C521	C52	0.197700	0.652740	0.707640
C531	C53	0.123880	0.619090	0.683450
H341	H34	0.101200	0.631900	0.635600
C541	C54	0.083540	0.567330	0.728590
H351	H35	0.033900	0.543700	0.711300
C551	C55	0.115570	0.549820	0.799200
H361	H36	0.087800	0.514100	0.830000
C561	C56	0.358500	0.746710	0.612760
H371	H37	0.411900	0.736200	0.613300
C571	C57	0.320020	0.692760	0.658020
H381	H38	0.347000	0.646600	0.688500
C581	C58	0.241740	0.706330	0.658870
C591	C59	0.205900	0.773450	0.611270
H391	H39	0.152200	0.783800	0.608600
C601	C60	0.248310	0.824770	0.568140
H401	H40	0.222500	0.870800	0.536700
N61	N6	0.454110	0.661950	0.935160
O111	O11	0.587880	0.954050	0.560650
O121	O12	0.476280	0.903700	0.591640
C611	C61	0.547250	0.920380	0.604240
C621	C62	0.586240	0.895160	0.679010
C631	C63	0.546680	0.845430	0.726440
H411	H41	0.494900	0.827500	0.711700
C641	C64	0.581450	0.821190	0.795350
C651	C65	0.657380	0.849760	0.816770
H421	H42	0.681800	0.835100	0.863700
C661	C66	0.697090	0.899480	0.769640
H431	H43	0.748500	0.918800	0.784600
C671	C67	0.662090	0.921180	0.700670
H441	H44	0.690100	0.953800	0.668300
C681	C68	0.443140	0.650010	0.863370
H451	H45	0.405600	0.605500	0.843500
C691	C69	0.483510	0.699060	0.817200
H461	H46	0.474000	0.687100	0.767000
C701	C70	0.538570	0.766500	0.844080
C711	C71	0.550910	0.777580	0.918230
H471	H47	0.588300	0.821300	0.939700
C721	C72	0.508230	0.724350	0.960650
H481	H48	0.518100	0.732800	0.011200
N71	N7	0.927420	0.683140	0.929500
O131	O13	0.076750	0.966740	0.558610
O141	O14	0.964020	0.906590	0.579750
C731	C73	0.032170	0.933240	0.599050
C741	C74	0.062600	0.921440	0.677460
C751	C75	0.021330	0.869590	0.722430
H491	H49	0.972300	0.845000	0.704100
C761	C76	0.050950	0.853290	0.793900
C771	C77	0.122750	0.890870	0.820570
H501	H50	0.143900	0.879600	0.869100
C781	C78	0.162820	0.944160	0.776670
H511	H51	0.210900	0.971000	0.795600
C791	C79	0.133840	0.959270	0.704910
H521	H52	0.162400	0.995100	0.674800
C801	C80	0.891080	0.745560	0.882680
H531	H53	0.836900	0.751200	0.880100
C811	C81	0.928100	0.801850	0.838110
H541	H54	0.899600	0.844500	0.805600
C821	C82	0.007820	0.795770	0.841120
C831	C83	0.045580	0.731820	0.890320
H551	H55	0.099900	0.726200	0.895200
C841	C84	0.003950	0.676810	0.931850
H561	H56	0.030700	0.632100	0.963800
N81	N8	0.191230	0.306260	0.946350
O151	O15	0.336780	0.029690	0.570880
O161	O16	0.225080	0.089990	0.593480
C851	C85	0.293000	0.062110	0.612200
C861	C86	0.323840	0.069430	0.691650
C871	C87	0.283900	0.121700	0.737570
H571	H57	0.236800	0.151200	0.719100
C881	C88	0.312110	0.131300	0.810390
C891	C89	0.381210	0.086060	0.836670
H581	H58	0.401300	0.091900	0.886000
C901	C90	0.420510	0.032960	0.791460
H591	H59	0.467000	0.002000	0.810100
C911	C91	0.392280	0.024650	0.718830
H601	H60	0.419600	0.988500	0.687900
C921	C92	0.153430	0.249780	0.895360
H611	H61	0.098900	0.250100	0.889600
C931	C93	0.189350	0.191510	0.851070
H621	H62	0.159800	0.153700	0.815800
C941	C94	0.269890	0.188510	0.858530
C951	C95	0.308050	0.244380	0.912920
H631	H63	0.362500	0.242800	0.921800
C961	C96	0.268230	0.301860	0.954030
H641	H64	0.296600	0.340400	0.989700
Mn51	Mn5	0.384580	0.570830	0.005380
Mn61	Mn6	0.132450	0.423320	0.005180
N91	N9	0.324340	0.686740	0.068030
O171	O17	0.180870	0.973250	0.442210
O181	O18	0.289240	0.902460	0.420760
C971	C97	0.222160	0.932350	0.402280
C981	C98	0.188210	0.915470	0.324730
C991	C99	0.228750	0.864800	0.278840
H651	H65	0.278500	0.841600	0.296200
C1001	C100	0.197700	0.847260	0.207640
C1011	C101	0.123880	0.880910	0.183450
H661	H66	0.101200	0.868100	0.135600
C1021	C102	0.083540	0.932670	0.228590
H671	H67	0.033900	0.956300	0.211300
C1031	C103	0.115570	0.950180	0.299200
H681	H68	0.087800	0.985900	0.330000
C1041	C104	0.358500	0.753290	0.112760
H691	H69	0.411900	0.763800	0.113300
C1051	C105	0.320020	0.807240	0.158020
H701	H70	0.347000	0.853400	0.188500
C1061	C106	0.241740	0.793670	0.158870
C1071	C107	0.205900	0.726550	0.111270
H711	H71	0.152200	0.716200	0.108600
C1081	C108	0.248310	0.675230	0.068140
H721	H72	0.222500	0.629200	0.036700
N101	N10	0.454110	0.838050	0.435160
O191	O19	0.587880	0.545950	0.060650
O201	O20	0.476280	0.596300	0.091640
C1091	C109	0.547250	0.579620	0.104240
C1101	C110	0.586240	0.604840	0.179010
C1111	C111	0.546680	0.654570	0.226440
H731	H73	0.494900	0.672500	0.211700
C1121	C112	0.581450	0.678810	0.295350
C1131	C113	0.657380	0.650240	0.316770
H741	H74	0.681800	0.664900	0.363700
C1141	C114	0.697090	0.600520	0.269640
H751	H75	0.748500	0.581200	0.284600
C1151	C115	0.662090	0.578820	0.200670
H761	H76	0.690100	0.546200	0.168300
C1161	C116	0.443140	0.849990	0.363370
H771	H77	0.405600	0.894500	0.343500
C1171	C117	0.483510	0.800940	0.317200
H781	H78	0.474000	0.812900	0.267000
C1181	C118	0.538570	0.733500	0.344080
C1191	C119	0.550910	0.722420	0.418230
H791	H79	0.588300	0.678700	0.439700
C1201	C120	0.508230	0.775650	0.460650
H801	H80	0.518100	0.767200	0.511200
N111	N11	0.927420	0.816860	0.429500
O211	O21	0.076750	0.533260	0.058610
O221	O22	0.964020	0.593410	0.079750
C1211	C121	0.032170	0.566760	0.099050
C1221	C122	0.062600	0.578560	0.177460
C1231	C123	0.021330	0.630410	0.222430
H811	H81	0.972300	0.655000	0.204100
C1241	C124	0.050950	0.646710	0.293900
C1251	C125	0.122750	0.609130	0.320570
H821	H82	0.143900	0.620400	0.369100
C1261	C126	0.162820	0.555840	0.276670
H831	H83	0.210900	0.529000	0.295600
C1271	C127	0.133840	0.540730	0.204910
H841	H84	0.162400	0.504900	0.174800
C1281	C128	0.891080	0.754440	0.382680
H851	H85	0.836900	0.748800	0.380100
C1291	C129	0.928100	0.698150	0.338110
H861	H86	0.899600	0.655500	0.305600
C1301	C130	0.007820	0.704230	0.341120
C1311	C131	0.045580	0.768180	0.390320
H871	H87	0.099900	0.773800	0.395200
C1321	C132	0.003950	0.823190	0.431850
H881	H88	0.030700	0.867900	0.463800
N121	N12	0.191230	0.193740	0.446350
O231	O23	0.336780	0.470310	0.070880
O241	O24	0.225080	0.410010	0.093480
C1331	C133	0.293000	0.437890	0.112200
C1341	C134	0.323840	0.430570	0.191650
C1351	C135	0.283900	0.378300	0.237570
H891	H89	0.236800	0.348800	0.219100
C1361	C136	0.312110	0.368700	0.310390
C1371	C137	0.381210	0.413940	0.336670
H901	H90	0.401300	0.408100	0.386000
C1381	C138	0.420510	0.467040	0.291460
H911	H91	0.467000	0.498000	0.310100
C1391	C139	0.392280	0.475350	0.218830
H921	H92	0.419600	0.511500	0.187900
C1401	C140	0.153430	0.250220	0.395360
H931	H93	0.098900	0.249900	0.389600
C1411	C141	0.189350	0.308490	0.351070
H941	H94	0.159800	0.346300	0.315800
C1421	C142	0.269890	0.311490	0.358530
C1431	C143	0.308050	0.255620	0.412920
H951	H95	0.362500	0.257200	0.421800
C1441	C144	0.268230	0.198140	0.454030
H961	H96	0.296600	0.159600	0.489700
Mn71	Mn7	0.615420	0.070830	0.494620
Mn81	Mn8	0.867550	0.923320	0.494820
N131	N13	0.675660	0.186740	0.431970
O251	O25	0.819130	0.473250	0.057790
O261	O26	0.710760	0.402460	0.079240
C1451	C145	0.777840	0.432350	0.097720
C1461	C146	0.811790	0.415470	0.175270
C1471	C147	0.771250	0.364800	0.221160
H971	H97	0.721500	0.341600	0.203800
C1481	C148	0.802300	0.347260	0.292360
C1491	C149	0.876120	0.380910	0.316550
H981	H98	0.898800	0.368100	0.364400
C1501	C150	0.916460	0.432670	0.271410
H991	H99	0.966100	0.456300	0.288700
C1511	C151	0.884430	0.450180	0.200800
H1001	H100	0.912200	0.485900	0.170000
C1521	C152	0.641500	0.253290	0.387240
H1011	H101	0.588100	0.263800	0.386700
C1531	C153	0.679980	0.307240	0.341980
H1021	H102	0.653000	0.353400	0.311500
C1541	C154	0.758260	0.293670	0.341130
C1551	C155	0.794100	0.226550	0.388730
H1031	H103	0.847800	0.216200	0.391400
C1561	C156	0.751690	0.175230	0.431860
H1041	H104	0.777500	0.129200	0.463300
N141	N14	0.545890	0.338050	0.064840
O271	O27	0.412120	0.045950	0.439350
O281	O28	0.523720	0.096300	0.408360
C1571	C157	0.452750	0.079620	0.395760
C1581	C158	0.413760	0.104840	0.320990
C1591	C159	0.453320	0.154570	0.273560
H1051	H105	0.505100	0.172500	0.288300
C1601	C160	0.418550	0.178810	0.204650
C1611	C161	0.342620	0.150240	0.183230
H1061	H106	0.318200	0.164900	0.136300
C1621	C162	0.302910	0.100520	0.230360
H1071	H107	0.251500	0.081200	0.215400
C1631	C163	0.337910	0.078820	0.299330
H1081	H108	0.309900	0.046200	0.331700
C1641	C164	0.556860	0.349990	0.136630
H1091	H109	0.594400	0.394500	0.156500
C1651	C165	0.516490	0.300940	0.182800
H1101	H110	0.526000	0.312900	0.233000
C1661	C166	0.461430	0.233500	0.155920
C1671	C167	0.449090	0.222420	0.081770
H1111	H111	0.411700	0.178700	0.060300
C1681	C168	0.491770	0.275650	0.039350
H1121	H112	0.481900	0.267200	0.988800
N151	N15	0.072580	0.316860	0.070500
O291	O29	0.923250	0.033260	0.441390
O301	O30	0.035980	0.093410	0.420250
C1691	C169	0.967830	0.066760	0.400950
C1701	C170	0.937400	0.078560	0.322540
C1711	C171	0.978670	0.130410	0.277570
H1131	H113	0.027700	0.155000	0.295900
C1721	C172	0.949050	0.146710	0.206100
C1731	C173	0.877250	0.109130	0.179430
H1141	H114	0.856100	0.120400	0.130900
C1741	C174	0.837180	0.055840	0.223330
H1151	H115	0.789100	0.029000	0.204400
C1751	C175	0.866160	0.040730	0.295090
H1161	H116	0.837600	0.004900	0.325200
C1761	C176	0.108920	0.254440	0.117320
H1171	H117	0.163100	0.248800	0.119900
C1771	C177	0.071900	0.198150	0.161890
H1181	H118	0.100400	0.155500	0.194400
C1781	C178	0.992180	0.204230	0.158880
C1791	C179	0.954420	0.268180	0.109680
H1191	H119	0.900100	0.273800	0.104800
C1801	C180	0.996050	0.323190	0.068150
H1201	H120	0.969300	0.367900	0.036200
N161	N16	0.808770	0.693740	0.053650
O311	O31	0.663220	0.970310	0.429120
O321	O32	0.774920	0.910010	0.406520
C1811	C181	0.707000	0.937890	0.387800
C1821	C182	0.676160	0.930570	0.308350
C1831	C183	0.716100	0.878300	0.262430
H1211	H121	0.763200	0.848800	0.280900
C1841	C184	0.687890	0.868700	0.189610
C1851	C185	0.618790	0.913940	0.163330
H1221	H122	0.598700	0.908100	0.114000
C1861	C186	0.579490	0.967040	0.208540
H1231	H123	0.533000	0.998000	0.189900
C1871	C187	0.607720	0.975350	0.281170
H1241	H124	0.580400	0.011500	0.312100
C1881	C188	0.846570	0.750220	0.104640
H1251	H125	0.901100	0.749900	0.110400
C1891	C189	0.810650	0.808490	0.148930
H1261	H126	0.840200	0.846300	0.184200
C1901	C190	0.730110	0.811490	0.141470
C1911	C191	0.691950	0.755620	0.087080
H1271	H127	0.637500	0.757200	0.078200
C1921	C192	0.731770	0.698140	0.045970
H1281	H128	0.703400	0.659600	0.010300
