data_LIJXEI_clean_PM
_symmetry_space_group_name_H-M	'P1'
_cell_length_a	9.949000
_cell_length_b	16.150000
_cell_length_c	24.550000
_cell_angle_alpha	90.000000
_cell_angle_beta	95.830000
_cell_angle_gamma	90.000000
_symmetry_Int_Tables_number 1

loop_
_symmetry_equiv_pos_as_xyz
'x,y,z'

loop_
_atom_site_label
_atom_site_type_symbol
_atom_site_fract_x
_atom_site_fract_y
_atom_site_fract_z
Cd11	Cd1	0.160540	0.586570	0.536580
Cd21	Cd2	0.248600	0.855480	0.984220
Cd31	Cd3	0.339460	0.086570	0.963420
Cd41	Cd4	0.251400	0.355480	0.515780
Cd51	Cd5	0.839460	0.413430	0.463420
Cd61	Cd6	0.751400	0.144520	0.015780
Cd71	Cd7	0.660540	0.913430	0.036580
Cd81	Cd8	0.748600	0.644520	0.484220
Cd91	Cd9	0.000000	0.000000	0.000000
Cd101	Cd10	0.500000	0.500000	0.500000
H11	H1	0.273300	0.628700	0.393800
H21	H2	0.262400	0.779200	0.119100
H31	H3	0.862500	0.538900	0.343300
H41	H4	0.713200	0.539700	0.255900
H51	H5	0.678700	0.577100	0.165700
H61	H6	0.853100	0.641000	0.124300
H71	H7	0.050800	0.677000	0.172300
H81	H8	0.324700	0.704800	0.282300
H91	H9	0.274700	0.673700	0.223400
H101	H10	0.104600	0.003900	0.190300
H111	H11	0.079600	0.047600	0.286400
H121	H12	0.103200	0.016300	0.377700
H131	H13	0.174500	0.883300	0.407700
H141	H14	0.225100	0.787000	0.348500
H151	H15	0.985300	0.629100	0.637500
H161	H16	0.995300	0.673000	0.726500
H171	H17	0.400900	0.677000	0.727500
H181	H18	0.376600	0.634300	0.638200
H191	H19	0.033100	0.777100	0.788900
H201	H20	0.056800	0.836900	0.874100
H211	H21	0.409000	0.735800	0.906000
H221	H22	0.398000	0.675200	0.821600
H231	H23	0.890400	0.681000	0.987900
H241	H24	0.030400	0.710300	0.970900
H251	H25	0.014000	0.690700	0.032400
H261	H26	0.063700	0.853600	0.534700
H271	H27	0.142100	0.775500	0.558900
H281	H28	0.037300	0.819800	0.592500
H291	H29	0.859900	0.023600	0.071300
H301	H30	0.226700	0.128700	0.106200
H311	H31	0.237600	0.279200	0.380900
H321	H32	0.637500	0.038900	0.156700
H331	H33	0.786800	0.039700	0.244100
H341	H34	0.821300	0.077100	0.334300
H351	H35	0.646900	0.141000	0.375700
H361	H36	0.449200	0.177000	0.327700
H371	H37	0.175300	0.204800	0.217700
H381	H38	0.225300	0.173700	0.276600
H391	H39	0.395400	0.503900	0.309700
H401	H40	0.420400	0.547600	0.213600
H411	H41	0.396800	0.516300	0.122300
H421	H42	0.325500	0.383300	0.092300
H431	H43	0.274900	0.287000	0.151500
H441	H44	0.514700	0.129100	0.862500
H451	H45	0.504700	0.173000	0.773500
H461	H46	0.099100	0.177000	0.772500
H471	H47	0.123400	0.134300	0.861800
H481	H48	0.466900	0.277100	0.711100
H491	H49	0.443200	0.336900	0.625900
H501	H50	0.091000	0.235800	0.594000
H511	H51	0.102000	0.175200	0.678400
H521	H52	0.609600	0.181000	0.512100
H531	H53	0.469600	0.210300	0.529100
H541	H54	0.486000	0.190700	0.467600
H551	H55	0.436300	0.353600	0.965300
H561	H56	0.357900	0.275500	0.941100
H571	H57	0.462700	0.319800	0.907500
H581	H58	0.640100	0.523600	0.428700
H591	H59	0.726700	0.371300	0.606200
H601	H60	0.737600	0.220800	0.880900
H611	H61	0.137500	0.461100	0.656700
H621	H62	0.286800	0.460300	0.744100
H631	H63	0.321300	0.422900	0.834300
H641	H64	0.146900	0.359000	0.875700
H651	H65	0.949200	0.323000	0.827700
H661	H66	0.675300	0.295200	0.717700
H671	H67	0.725300	0.326300	0.776600
H681	H68	0.895400	0.996100	0.809700
H691	H69	0.920400	0.952400	0.713600
H701	H70	0.896800	0.983700	0.622300
H711	H71	0.825500	0.116700	0.592300
H721	H72	0.774900	0.213000	0.651500
H731	H73	0.014700	0.370900	0.362500
H741	H74	0.004700	0.327000	0.273500
H751	H75	0.599100	0.323000	0.272500
H761	H76	0.623400	0.365700	0.361800
H771	H77	0.966900	0.222900	0.211100
H781	H78	0.943200	0.163100	0.125900
H791	H79	0.591000	0.264200	0.094000
H801	H80	0.602000	0.324800	0.178400
H811	H81	0.109600	0.319000	0.012100
H821	H82	0.969600	0.289700	0.029100
H831	H83	0.986000	0.309300	0.967600
H841	H84	0.936300	0.146400	0.465300
H851	H85	0.857900	0.224500	0.441100
H861	H86	0.962700	0.180200	0.407500
H871	H87	0.140100	0.976400	0.928700
H881	H88	0.773300	0.871300	0.893800
H891	H89	0.762400	0.720800	0.619100
H901	H90	0.362500	0.961100	0.843300
H911	H91	0.213200	0.960300	0.755900
H921	H92	0.178700	0.922900	0.665700
H931	H93	0.353100	0.859000	0.624300
H941	H94	0.550800	0.823000	0.672300
H951	H95	0.824700	0.795200	0.782300
H961	H96	0.774700	0.826300	0.723400
H971	H97	0.604600	0.496100	0.690300
H981	H98	0.579600	0.452400	0.786400
H991	H99	0.603200	0.483700	0.877700
H1001	H100	0.674500	0.616700	0.907700
H1011	H101	0.725100	0.713000	0.848500
H1021	H102	0.485300	0.870900	0.137500
H1031	H103	0.495300	0.827000	0.226500
H1041	H104	0.900900	0.823000	0.227500
H1051	H105	0.876600	0.865700	0.138200
H1061	H106	0.533100	0.722900	0.288900
H1071	H107	0.556800	0.663100	0.374100
H1081	H108	0.909000	0.764200	0.406000
H1091	H109	0.898000	0.824800	0.321600
H1101	H110	0.390400	0.819000	0.487900
H1111	H111	0.530400	0.789700	0.470900
H1121	H112	0.514000	0.809300	0.532400
H1131	H113	0.563700	0.646400	0.034700
H1141	H114	0.642100	0.724500	0.058900
H1151	H115	0.537300	0.680200	0.092500
H1161	H116	0.359900	0.476400	0.571300
C11	C1	0.068100	0.561610	0.418130
C21	C2	0.050480	0.583350	0.358060
C31	C3	0.930320	0.566090	0.326930
C41	C4	0.906820	0.588090	0.271600
C51	C5	0.780500	0.567470	0.239600
C61	C6	0.760600	0.588600	0.186120
C71	C7	0.866200	0.628680	0.161430
C81	C8	0.985400	0.649660	0.189960
C91	C9	0.011500	0.629980	0.247220
C101	C10	0.135050	0.652180	0.278340
C111	C11	0.154350	0.625930	0.332840
C121	C12	0.247150	0.702910	0.254930
C131	C13	0.210730	0.790290	0.237960
C141	C14	0.210600	0.814060	0.184010
C151	C15	0.168670	0.893660	0.165340
C161	C16	0.133920	0.951860	0.202580
C171	C17	0.142210	0.933490	0.259080
C181	C18	0.109400	0.995390	0.298250
C191	C19	0.122600	0.976540	0.352280
C201	C20	0.166300	0.895620	0.370460
C211	C21	0.195190	0.838390	0.335060
C221	C22	0.182750	0.851350	0.277340
C231	C23	0.157570	0.917500	0.105480
C241	C24	0.069830	0.639140	0.656140
C251	C25	0.074370	0.666090	0.709790
C261	C26	0.200550	0.682840	0.738390
C271	C27	0.314760	0.668440	0.709930
C281	C28	0.299670	0.641810	0.656190
C291	C29	0.212020	0.719610	0.794470
C301	C30	0.111800	0.768000	0.812020
C311	C31	0.125900	0.803500	0.863630
C321	C32	0.332050	0.744330	0.881810
C331	C33	0.326670	0.707500	0.831180
C341	C34	0.931600	0.800460	0.007570
C351	C35	0.970000	0.712870	0.998900
C361	C36	0.947130	0.749540	0.530190
C371	C37	0.057600	0.804620	0.556450
C381	C38	0.431900	0.061610	0.081870
C391	C39	0.449520	0.083350	0.141940
C401	C40	0.569680	0.066090	0.173070
C411	C41	0.593180	0.088090	0.228400
C421	C42	0.719500	0.067470	0.260400
C431	C43	0.739400	0.088600	0.313880
C441	C44	0.633800	0.128680	0.338570
C451	C45	0.514600	0.149660	0.310040
C461	C46	0.488500	0.129980	0.252780
C471	C47	0.364950	0.152180	0.221660
C481	C48	0.345650	0.125930	0.167160
C491	C49	0.252850	0.202910	0.245070
C501	C50	0.289270	0.290290	0.262040
C511	C51	0.289400	0.314060	0.315990
C521	C52	0.331330	0.393660	0.334660
C531	C53	0.366080	0.451860	0.297420
C541	C54	0.357790	0.433490	0.240920
C551	C55	0.390600	0.495390	0.201750
C561	C56	0.377400	0.476540	0.147720
C571	C57	0.333700	0.395620	0.129540
C581	C58	0.304810	0.338390	0.164940
C591	C59	0.317250	0.351350	0.222660
C601	C60	0.342430	0.417500	0.394520
C611	C61	0.430170	0.139140	0.843860
C621	C62	0.425630	0.166090	0.790210
C631	C63	0.299450	0.182840	0.761610
C641	C64	0.185240	0.168440	0.790070
C651	C65	0.200330	0.141810	0.843810
C661	C66	0.287980	0.219610	0.705530
C671	C67	0.388200	0.268000	0.687980
C681	C68	0.374100	0.303500	0.636370
C691	C69	0.167950	0.244330	0.618190
C701	C70	0.173330	0.207500	0.668820
C711	C71	0.568400	0.300460	0.492430
C721	C72	0.530000	0.212870	0.501100
C731	C73	0.552870	0.249540	0.969810
C741	C74	0.442400	0.304620	0.943550
C751	C75	0.931900	0.438390	0.581870
C761	C76	0.949520	0.416650	0.641940
C771	C77	0.069680	0.433910	0.673070
C781	C78	0.093180	0.411910	0.728400
C791	C79	0.219500	0.432530	0.760400
C801	C80	0.239400	0.411400	0.813880
C811	C81	0.133800	0.371320	0.838570
C821	C82	0.014600	0.350340	0.810040
C831	C83	0.988500	0.370020	0.752780
C841	C84	0.864950	0.347820	0.721660
C851	C85	0.845650	0.374070	0.667160
C861	C86	0.752850	0.297090	0.745070
C871	C87	0.789270	0.209710	0.762040
C881	C88	0.789400	0.185940	0.815990
C891	C89	0.831330	0.106340	0.834660
C901	C90	0.866080	0.048140	0.797420
C911	C91	0.857790	0.066510	0.740920
C921	C92	0.890600	0.004610	0.701750
C931	C93	0.877400	0.023460	0.647720
C941	C94	0.833700	0.104380	0.629540
C951	C95	0.804810	0.161610	0.664940
C961	C96	0.817250	0.148650	0.722660
C971	C97	0.842430	0.082500	0.894520
C981	C98	0.930170	0.360860	0.343860
C991	C99	0.925630	0.333910	0.290210
C1001	C100	0.799450	0.317160	0.261610
C1011	C101	0.685240	0.331560	0.290070
C1021	C102	0.700330	0.358190	0.343810
C1031	C103	0.787980	0.280390	0.205530
C1041	C104	0.888200	0.232000	0.187980
C1051	C105	0.874100	0.196500	0.136370
C1061	C106	0.667950	0.255670	0.118190
C1071	C107	0.673330	0.292500	0.168820
C1081	C108	0.068400	0.199540	0.992430
C1091	C109	0.030000	0.287130	0.001100
C1101	C110	0.052870	0.250460	0.469810
C1111	C111	0.942400	0.195380	0.443550
C1121	C112	0.568100	0.938390	0.918130
C1131	C113	0.550480	0.916650	0.858060
C1141	C114	0.430320	0.933910	0.826930
C1151	C115	0.406820	0.911910	0.771600
C1161	C116	0.280500	0.932530	0.739600
C1171	C117	0.260600	0.911400	0.686120
C1181	C118	0.366200	0.871320	0.661430
C1191	C119	0.485400	0.850340	0.689960
C1201	C120	0.511500	0.870020	0.747220
C1211	C121	0.635050	0.847820	0.778340
C1221	C122	0.654350	0.874070	0.832840
C1231	C123	0.747150	0.797090	0.754930
C1241	C124	0.710730	0.709710	0.737960
C1251	C125	0.710600	0.685940	0.684010
C1261	C126	0.668670	0.606340	0.665340
C1271	C127	0.633920	0.548140	0.702580
C1281	C128	0.642210	0.566510	0.759080
C1291	C129	0.609400	0.504610	0.798250
C1301	C130	0.622600	0.523460	0.852280
C1311	C131	0.666300	0.604380	0.870460
C1321	C132	0.695190	0.661610	0.835060
C1331	C133	0.682750	0.648650	0.777340
C1341	C134	0.657570	0.582500	0.605480
C1351	C135	0.569830	0.860860	0.156140
C1361	C136	0.574370	0.833910	0.209790
C1371	C137	0.700550	0.817160	0.238390
C1381	C138	0.814760	0.831560	0.209930
C1391	C139	0.799670	0.858190	0.156190
C1401	C140	0.712020	0.780390	0.294470
C1411	C141	0.611800	0.732000	0.312020
C1421	C142	0.625900	0.696500	0.363630
C1431	C143	0.832050	0.755670	0.381810
C1441	C144	0.826670	0.792500	0.331180
C1451	C145	0.431600	0.699540	0.507570
C1461	C146	0.470000	0.787130	0.498900
C1471	C147	0.447130	0.750460	0.030190
C1481	C148	0.557600	0.695380	0.056450
N11	N1	0.178740	0.626450	0.628980
N21	N2	0.233980	0.791490	0.898500
N31	N3	0.321260	0.126450	0.871020
N41	N4	0.266020	0.291490	0.601500
N51	N5	0.821260	0.373550	0.371020
N61	N6	0.766020	0.208510	0.101500
N71	N7	0.678740	0.873550	0.128980
N81	N8	0.733980	0.708510	0.398500
O11	O1	0.174620	0.587240	0.445890
O21	O2	0.975940	0.523460	0.438160
O31	O3	0.276120	0.642000	0.361680
O41	O4	0.083920	0.977050	0.089090
O51	O5	0.228590	0.872800	0.075650
O61	O6	0.247980	0.756310	0.147720
O71	O7	0.837730	0.818570	0.035170
O81	O8	0.002470	0.854160	0.984530
O91	O9	0.975830	0.674370	0.518210
O101	O10	0.830150	0.776940	0.519400
O111	O11	0.810930	0.017120	0.043310
O121	O12	0.325380	0.087240	0.054110
O131	O13	0.524060	0.023460	0.061840
O141	O14	0.223880	0.142000	0.138320
O151	O15	0.416080	0.477050	0.410910
O161	O16	0.271410	0.372800	0.424350
O171	O17	0.252020	0.256310	0.352280
O181	O18	0.662270	0.318570	0.464830
O191	O19	0.497530	0.354160	0.515470
O201	O20	0.524170	0.174370	0.981790
O211	O21	0.669850	0.276940	0.980600
O221	O22	0.689070	0.517120	0.456690
O231	O23	0.825380	0.412760	0.554110
O241	O24	0.024060	0.476540	0.561840
O251	O25	0.723880	0.358000	0.638320
O261	O26	0.916080	0.022950	0.910910
O271	O27	0.771410	0.127200	0.924350
O281	O28	0.752020	0.243690	0.852280
O291	O29	0.162270	0.181430	0.964830
O301	O30	0.997530	0.145840	0.015470
O311	O31	0.024170	0.325630	0.481790
O321	O32	0.169850	0.223060	0.480600
O331	O33	0.189070	0.982880	0.956690
O341	O34	0.674620	0.912760	0.945890
O351	O35	0.475940	0.976540	0.938160
O361	O36	0.776120	0.858000	0.861680
O371	O37	0.583920	0.522950	0.589090
O381	O38	0.728590	0.627200	0.575650
O391	O39	0.747980	0.743690	0.647720
O401	O40	0.337730	0.681430	0.535170
O411	O41	0.502470	0.645840	0.484530
O421	O42	0.475830	0.825630	0.018210
O431	O43	0.330150	0.723060	0.019400
O441	O44	0.310930	0.482880	0.543310
