data_LIKFOB_clean_PM
_symmetry_space_group_name_H-M	'P1'
_cell_length_a	6.923500
_cell_length_b	7.426800
_cell_length_c	8.251700
_cell_angle_alpha	90.118000
_cell_angle_beta	109.774000
_cell_angle_gamma	93.329000
_symmetry_Int_Tables_number 1

loop_
_symmetry_equiv_pos_as_xyz
'x,y,z'

loop_
_atom_site_label
_atom_site_type_symbol
_atom_site_fract_x
_atom_site_fract_y
_atom_site_fract_z
Zn11	Zn1	0.500000	0.000000	0.500000
Zn21	Zn2	0.000000	0.500000	0.500000
H11	H1	0.570600	0.204500	0.963000
H21	H2	0.429400	0.795500	0.037000
C11	C1	0.542100	0.323000	0.978200
C21	C2	0.581300	0.391800	0.143800
C31	C3	0.540300	0.569900	0.167400
C41	C4	0.580900	0.662000	0.339700
C51	C5	0.647400	0.260300	0.288100
C61	C6	0.457900	0.677000	0.021800
C71	C7	0.418700	0.608200	0.856200
C81	C8	0.459700	0.430100	0.832600
C91	C9	0.419100	0.338000	0.660300
C101	C10	0.352600	0.739700	0.711900
O11	O1	0.510520	0.141520	0.288910
O21	O2	0.827630	0.270240	0.394310
O31	O3	0.447620	0.766010	0.350070
O41	O4	0.745380	0.638640	0.462170
O51	O5	0.489480	0.858480	0.711090
O61	O6	0.172370	0.729760	0.605690
O71	O7	0.552380	0.233990	0.649930
O81	O8	0.254620	0.361360	0.537830
