data_LIQDAS_clean_PM
_symmetry_space_group_name_H-M	'P1'
_cell_length_a	20.171000
_cell_length_b	20.171000
_cell_length_c	26.197000
_cell_angle_alpha	90.000000
_cell_angle_beta	90.000000
_cell_angle_gamma	120.000000
_symmetry_Int_Tables_number 1

loop_
_symmetry_equiv_pos_as_xyz
'x,y,z'

loop_
_atom_site_label
_atom_site_type_symbol
_atom_site_fract_x
_atom_site_fract_y
_atom_site_fract_z
O11	O1	0.058380	0.109850	0.614080
O21	O2	0.993650	0.083780	0.541600
O31	O3	0.322790	0.499830	0.691120
O41	O4	0.350890	0.599460	0.641770
O51	O5	0.272470	0.576390	0.557130
C11	C1	0.081390	0.213730	0.561530
C21	C2	0.132400	0.264780	0.595680
H11	H1	0.142500	0.246400	0.626400
C31	C3	0.170360	0.343990	0.586370
C41	C4	0.221880	0.397650	0.620970
H21	H2	0.232800	0.380000	0.651700
C51	C5	0.257260	0.474760	0.612150
C61	C6	0.241910	0.502220	0.565350
C71	C7	0.191460	0.450820	0.530800
H31	H3	0.180500	0.469100	0.500400
C81	C8	0.155600	0.371450	0.539560
C91	C9	0.102100	0.316000	0.504570
H41	H4	0.091700	0.332900	0.473300
C101	C10	0.066150	0.240170	0.514840
H51	H5	0.030800	0.204500	0.491000
C111	C11	0.041600	0.130580	0.572500
C121	C12	0.312230	0.528110	0.650360
C131	C13	0.963430	0.920490	0.720360
H61	H6	0.991800	0.895600	0.707600
H71	H7	0.910200	0.891300	0.707500
O61	O6	0.890150	0.948530	0.614080
O71	O7	0.916220	0.909870	0.541600
O81	O8	0.500170	0.822960	0.691120
O91	O9	0.400540	0.751430	0.641770
O101	O10	0.423610	0.696080	0.557130
C141	C14	0.786270	0.867660	0.561530
C151	C15	0.735220	0.867620	0.595680
H81	H8	0.753600	0.896100	0.626400
C161	C16	0.656010	0.826370	0.586370
C171	C17	0.602350	0.824230	0.620970
H91	H9	0.620000	0.852800	0.651700
C181	C18	0.525240	0.782500	0.612150
C191	C19	0.497780	0.739690	0.565350
C201	C20	0.549180	0.740640	0.530800
H101	H10	0.530900	0.711400	0.500400
C211	C21	0.628550	0.784150	0.539560
C221	C22	0.684000	0.786100	0.504570
H111	H11	0.667100	0.758800	0.473300
C231	C23	0.759830	0.825980	0.514840
H121	H12	0.795500	0.826300	0.491000
C241	C24	0.869420	0.911020	0.572500
C251	C25	0.471890	0.784120	0.650360
C261	C26	0.079510	0.042940	0.720360
H131	H13	0.104400	0.096200	0.707600
H141	H14	0.108700	0.018900	0.707500
O111	O11	0.051470	0.941620	0.614080
O121	O12	0.090130	0.006350	0.541600
O131	O13	0.177040	0.677210	0.691120
O141	O14	0.248570	0.649110	0.641770
O151	O15	0.303920	0.727530	0.557130
C271	C27	0.132340	0.918610	0.561530
C281	C28	0.132380	0.867600	0.595680
H151	H15	0.103900	0.857500	0.626400
C291	C29	0.173630	0.829640	0.586370
C301	C30	0.175770	0.778120	0.620970
H161	H16	0.147200	0.767200	0.651700
C311	C31	0.217500	0.742740	0.612150
C321	C32	0.260310	0.758090	0.565350
C331	C33	0.259360	0.808540	0.530800
H171	H17	0.288600	0.819500	0.500400
C341	C34	0.215850	0.844400	0.539560
C351	C35	0.213900	0.897900	0.504570
H181	H18	0.241200	0.908300	0.473300
C361	C36	0.174020	0.933850	0.514840
H191	H19	0.173700	0.969200	0.491000
C371	C37	0.088980	0.958400	0.572500
C381	C38	0.215880	0.687770	0.650360
C391	C39	0.957060	0.036570	0.720360
H201	H20	0.903800	0.008200	0.707600
H211	H21	0.981100	0.089800	0.707500
O161	O16	0.941620	0.890150	0.114080
O171	O17	0.006350	0.916220	0.041600
O181	O18	0.677210	0.500170	0.191120
O191	O19	0.649110	0.400540	0.141770
O201	O20	0.727530	0.423610	0.057130
C401	C40	0.918610	0.786270	0.061530
C411	C41	0.867600	0.735220	0.095680
H221	H22	0.857500	0.753600	0.126400
C421	C42	0.829640	0.656010	0.086370
C431	C43	0.778120	0.602350	0.120970
H231	H23	0.767200	0.620000	0.151700
C441	C44	0.742740	0.525240	0.112150
C451	C45	0.758090	0.497780	0.065350
C461	C46	0.808540	0.549180	0.030800
H241	H24	0.819500	0.530900	0.000400
C471	C47	0.844400	0.628550	0.039560
C481	C48	0.897900	0.684000	0.004570
H251	H25	0.908300	0.667100	0.973300
C491	C49	0.933850	0.759830	0.014840
H261	H26	0.969200	0.795500	0.991000
C501	C50	0.958400	0.869420	0.072500
C511	C51	0.687770	0.471890	0.150360
C521	C52	0.036570	0.079510	0.220360
H271	H27	0.008200	0.104400	0.207600
H281	H28	0.089800	0.108700	0.207500
O211	O21	0.109850	0.051470	0.114080
O221	O22	0.083780	0.090130	0.041600
O231	O23	0.499830	0.177040	0.191120
O241	O24	0.599460	0.248570	0.141770
O251	O25	0.576390	0.303920	0.057130
C531	C53	0.213730	0.132340	0.061530
C541	C54	0.264780	0.132380	0.095680
H291	H29	0.246400	0.103900	0.126400
C551	C55	0.343990	0.173630	0.086370
C561	C56	0.397650	0.175770	0.120970
H301	H30	0.380000	0.147200	0.151700
C571	C57	0.474760	0.217500	0.112150
C581	C58	0.502220	0.260310	0.065350
C591	C59	0.450820	0.259360	0.030800
H311	H31	0.469100	0.288600	0.000400
C601	C60	0.371450	0.215850	0.039560
C611	C61	0.316000	0.213900	0.004570
H321	H32	0.332900	0.241200	0.973300
C621	C62	0.240170	0.174020	0.014840
H331	H33	0.204500	0.173700	0.991000
C631	C63	0.130580	0.088980	0.072500
C641	C64	0.528110	0.215880	0.150360
C651	C65	0.920490	0.957060	0.220360
H341	H34	0.895600	0.903800	0.207600
H351	H35	0.891300	0.981100	0.207500
O261	O26	0.948530	0.058380	0.114080
O271	O27	0.909870	0.993650	0.041600
O281	O28	0.822960	0.322790	0.191120
O291	O29	0.751430	0.350890	0.141770
O301	O30	0.696080	0.272470	0.057130
C661	C66	0.867660	0.081390	0.061530
C671	C67	0.867620	0.132400	0.095680
H361	H36	0.896100	0.142500	0.126400
C681	C68	0.826370	0.170360	0.086370
C691	C69	0.824230	0.221880	0.120970
H371	H37	0.852800	0.232800	0.151700
C701	C70	0.782500	0.257260	0.112150
C711	C71	0.739690	0.241910	0.065350
C721	C72	0.740640	0.191460	0.030800
H381	H38	0.711400	0.180500	0.000400
C731	C73	0.784150	0.155600	0.039560
C741	C74	0.786100	0.102100	0.004570
H391	H39	0.758800	0.091700	0.973300
C751	C75	0.825980	0.066150	0.014840
H401	H40	0.826300	0.030800	0.991000
C761	C76	0.911020	0.041600	0.072500
C771	C77	0.784120	0.312230	0.150360
C781	C78	0.042940	0.963430	0.220360
H411	H41	0.096200	0.991800	0.207600
H421	H42	0.018900	0.910200	0.207500
O311	O31	0.941620	0.890150	0.385920
O321	O32	0.006350	0.916220	0.458400
O331	O33	0.677210	0.500170	0.308880
O341	O34	0.649110	0.400540	0.358230
O351	O35	0.727530	0.423610	0.442870
C791	C79	0.918610	0.786270	0.438470
C801	C80	0.867600	0.735220	0.404320
H431	H43	0.857500	0.753600	0.373600
C811	C81	0.829640	0.656010	0.413630
C821	C82	0.778120	0.602350	0.379030
H441	H44	0.767200	0.620000	0.348300
C831	C83	0.742740	0.525240	0.387850
C841	C84	0.758090	0.497780	0.434650
C851	C85	0.808540	0.549180	0.469200
H451	H45	0.819500	0.530900	0.499600
C861	C86	0.844400	0.628550	0.460440
C871	C87	0.897900	0.684000	0.495430
H461	H46	0.908300	0.667100	0.526700
C881	C88	0.933850	0.759830	0.485160
H471	H47	0.969200	0.795500	0.509000
C891	C89	0.958400	0.869420	0.427500
C901	C90	0.687770	0.471890	0.349640
C911	C91	0.036570	0.079510	0.279640
H481	H48	0.008200	0.104400	0.292400
H491	H49	0.089800	0.108700	0.292500
O361	O36	0.109850	0.051470	0.385920
O371	O37	0.083780	0.090130	0.458400
O381	O38	0.499830	0.177040	0.308880
O391	O39	0.599460	0.248570	0.358230
O401	O40	0.576390	0.303920	0.442870
C921	C92	0.213730	0.132340	0.438470
C931	C93	0.264780	0.132380	0.404320
H501	H50	0.246400	0.103900	0.373600
C941	C94	0.343990	0.173630	0.413630
C951	C95	0.397650	0.175770	0.379030
H511	H51	0.380000	0.147200	0.348300
C961	C96	0.474760	0.217500	0.387850
C971	C97	0.502220	0.260310	0.434650
C981	C98	0.450820	0.259360	0.469200
H521	H52	0.469100	0.288600	0.499600
C991	C99	0.371450	0.215850	0.460440
C1001	C100	0.316000	0.213900	0.495430
H531	H53	0.332900	0.241200	0.526700
C1011	C101	0.240170	0.174020	0.485160
H541	H54	0.204500	0.173700	0.509000
C1021	C102	0.130580	0.088980	0.427500
C1031	C103	0.528110	0.215880	0.349640
C1041	C104	0.920490	0.957060	0.279640
H551	H55	0.895600	0.903800	0.292400
H561	H56	0.891300	0.981100	0.292500
O411	O41	0.948530	0.058380	0.385920
O421	O42	0.909870	0.993650	0.458400
O431	O43	0.822960	0.322790	0.308880
O441	O44	0.751430	0.350890	0.358230
O451	O45	0.696080	0.272470	0.442870
C1051	C105	0.867660	0.081390	0.438470
C1061	C106	0.867620	0.132400	0.404320
H571	H57	0.896100	0.142500	0.373600
C1071	C107	0.826370	0.170360	0.413630
C1081	C108	0.824230	0.221880	0.379030
H581	H58	0.852800	0.232800	0.348300
C1091	C109	0.782500	0.257260	0.387850
C1101	C110	0.739690	0.241910	0.434650
C1111	C111	0.740640	0.191460	0.469200
H591	H59	0.711400	0.180500	0.499600
C1121	C112	0.784150	0.155600	0.460440
C1131	C113	0.786100	0.102100	0.495430
H601	H60	0.758800	0.091700	0.526700
C1141	C114	0.825980	0.066150	0.485160
H611	H61	0.826300	0.030800	0.509000
C1151	C115	0.911020	0.041600	0.427500
C1161	C116	0.784120	0.312230	0.349640
C1171	C117	0.042940	0.963430	0.279640
H621	H62	0.096200	0.991800	0.292400
H631	H63	0.018900	0.910200	0.292500
O461	O46	0.058380	0.109850	0.885920
O471	O47	0.993650	0.083780	0.958400
O481	O48	0.322790	0.499830	0.808880
O491	O49	0.350890	0.599460	0.858230
O501	O50	0.272470	0.576390	0.942870
C1181	C118	0.081390	0.213730	0.938470
C1191	C119	0.132400	0.264780	0.904320
H641	H64	0.142500	0.246400	0.873600
C1201	C120	0.170360	0.343990	0.913630
C1211	C121	0.221880	0.397650	0.879030
H651	H65	0.232800	0.380000	0.848300
C1221	C122	0.257260	0.474760	0.887850
C1231	C123	0.241910	0.502220	0.934650
C1241	C124	0.191460	0.450820	0.969200
H661	H66	0.180500	0.469100	0.999600
C1251	C125	0.155600	0.371450	0.960440
C1261	C126	0.102100	0.316000	0.995430
H671	H67	0.091700	0.332900	0.026700
C1271	C127	0.066150	0.240170	0.985160
H681	H68	0.030800	0.204500	0.009000
C1281	C128	0.041600	0.130580	0.927500
C1291	C129	0.312230	0.528110	0.849640
C1301	C130	0.963430	0.920490	0.779640
H691	H69	0.991800	0.895600	0.792400
H701	H70	0.910200	0.891300	0.792500
O511	O51	0.890150	0.948530	0.885920
O521	O52	0.916220	0.909870	0.958400
O531	O53	0.500170	0.822960	0.808880
O541	O54	0.400540	0.751430	0.858230
O551	O55	0.423610	0.696080	0.942870
C1311	C131	0.786270	0.867660	0.938470
C1321	C132	0.735220	0.867620	0.904320
H711	H71	0.753600	0.896100	0.873600
C1331	C133	0.656010	0.826370	0.913630
C1341	C134	0.602350	0.824230	0.879030
H721	H72	0.620000	0.852800	0.848300
C1351	C135	0.525240	0.782500	0.887850
C1361	C136	0.497780	0.739690	0.934650
C1371	C137	0.549180	0.740640	0.969200
H731	H73	0.530900	0.711400	0.999600
C1381	C138	0.628550	0.784150	0.960440
C1391	C139	0.684000	0.786100	0.995430
H741	H74	0.667100	0.758800	0.026700
C1401	C140	0.759830	0.825980	0.985160
H751	H75	0.795500	0.826300	0.009000
C1411	C141	0.869420	0.911020	0.927500
C1421	C142	0.471890	0.784120	0.849640
C1431	C143	0.079510	0.042940	0.779640
H761	H76	0.104400	0.096200	0.792400
H771	H77	0.108700	0.018900	0.792500
O561	O56	0.051470	0.941620	0.885920
O571	O57	0.090130	0.006350	0.958400
O581	O58	0.177040	0.677210	0.808880
O591	O59	0.248570	0.649110	0.858230
O601	O60	0.303920	0.727530	0.942870
C1441	C144	0.132340	0.918610	0.938470
C1451	C145	0.132380	0.867600	0.904320
H781	H78	0.103900	0.857500	0.873600
C1461	C146	0.173630	0.829640	0.913630
C1471	C147	0.175770	0.778120	0.879030
H791	H79	0.147200	0.767200	0.848300
C1481	C148	0.217500	0.742740	0.887850
C1491	C149	0.260310	0.758090	0.934650
C1501	C150	0.259360	0.808540	0.969200
H801	H80	0.288600	0.819500	0.999600
C1511	C151	0.215850	0.844400	0.960440
C1521	C152	0.213900	0.897900	0.995430
H811	H81	0.241200	0.908300	0.026700
C1531	C153	0.174020	0.933850	0.985160
H821	H82	0.173700	0.969200	0.009000
C1541	C154	0.088980	0.958400	0.927500
C1551	C155	0.215880	0.687770	0.849640
C1561	C156	0.957060	0.036570	0.779640
H831	H83	0.903800	0.008200	0.792400
H841	H84	0.981100	0.089800	0.792500
Zn11	Zn1	0.000000	0.000000	0.624050
N11	N1	0.000000	0.000000	0.701790
Zn21	Zn2	0.000000	0.000000	0.124050
N21	N2	0.000000	0.000000	0.201790
Zn31	Zn3	0.000000	0.000000	0.375950
N31	N3	0.000000	0.000000	0.298210
Zn41	Zn4	0.000000	0.000000	0.875950
N41	N4	0.000000	0.000000	0.798210
Zn51	Zn5	0.000000	0.000000	0.500000
Zn61	Zn6	0.000000	0.000000	0.000000
Zn71	Zn7	0.378110	0.565370	0.750000
O611	O61	0.397860	0.668810	0.750000
Zn81	Zn8	0.434630	0.812740	0.750000
O621	O62	0.331190	0.729050	0.750000
Zn91	Zn9	0.187260	0.621890	0.750000
O631	O63	0.270950	0.602140	0.750000
Zn101	Zn10	0.621890	0.434630	0.250000
O641	O64	0.602140	0.331190	0.250000
Zn111	Zn11	0.565370	0.187260	0.250000
O651	O65	0.668810	0.270950	0.250000
Zn121	Zn12	0.812740	0.378110	0.250000
O661	O66	0.729050	0.397860	0.250000
Ti11	Ti1	0.333330	0.666670	0.592940
Ti21	Ti2	0.666670	0.333330	0.092940
Ti31	Ti3	0.666670	0.333330	0.407060
Ti41	Ti4	0.333330	0.666670	0.907060
C1571	C157	0.333330	0.666670	0.750000
C1581	C158	0.666670	0.333330	0.250000
