data_LITCUO_clean_PM
_symmetry_space_group_name_H-M	'P1'
_cell_length_a	10.168000
_cell_length_b	18.035000
_cell_length_c	27.054000
_cell_angle_alpha	90.000000
_cell_angle_beta	99.321000
_cell_angle_gamma	90.000000
_symmetry_Int_Tables_number 1

loop_
_symmetry_equiv_pos_as_xyz
'x,y,z'

loop_
_atom_site_label
_atom_site_type_symbol
_atom_site_fract_x
_atom_site_fract_y
_atom_site_fract_z
Co11	Co1	0.469300	0.690840	0.309510
Co21	Co2	0.640850	0.765710	0.216910
O11	O1	0.355000	0.647810	0.356580
O21	O2	0.241800	0.704930	0.293300
O31	O3	0.654900	0.668510	0.338740
O41	O4	0.562600	0.844800	0.253990
C11	C1	0.752000	0.683300	0.318150
C21	C2	0.245400	0.667600	0.331750
O51	O5	0.748300	0.716960	0.278670
C31	C3	0.120000	0.647400	0.350200
C41	C4	0.123700	0.602700	0.391450
H11	H1	0.204900	0.583500	0.406900
C51	C5	0.504100	0.997100	0.448490
O61	O6	0.481700	0.797150	0.318030
C61	C6	0.883900	0.657100	0.344050
O71	O7	0.545100	0.117490	0.242960
C71	C7	0.523300	0.922650	0.319800
C81	C8	0.890200	0.614300	0.386560
H21	H2	0.812600	0.604500	0.399400
C91	C9	0.519400	0.054160	0.315370
C101	C10	0.080800	0.563200	0.501890
C111	C11	0.009700	0.540000	0.456190
C121	C12	0.999100	0.673900	0.326050
H31	H3	0.995600	0.703300	0.297600
C131	C13	0.009600	0.585700	0.410310
C141	C14	0.509300	0.993900	0.393970
C151	C15	0.527800	0.987100	0.292750
H41	H4	0.536600	0.984900	0.259100
C161	C16	0.515800	0.926790	0.369900
H51	H5	0.515000	0.883200	0.388200
C171	C17	0.524300	0.848900	0.295430
C181	C18	0.069100	0.522900	0.546500
C191	C19	0.510000	0.058300	0.365740
H61	H6	0.504000	0.104300	0.380800
O81	O8	0.061400	0.889000	0.424210
O91	O9	0.308800	0.711100	0.558120
C201	C20	0.613900	0.024200	0.481130
O101	O10	0.285800	0.640800	0.636940
C211	C21	0.160500	0.628800	0.506280
H71	H7	0.165400	0.657100	0.477900
C221	C22	0.391700	0.972200	0.466280
C231	C23	0.137600	0.550800	0.592380
H81	H8	0.128900	0.526600	0.622000
C241	C24	0.281000	0.943100	0.434450
H91	H9	0.284100	0.939300	0.400400
C251	C25	0.228100	0.650200	0.550330
O111	O11	0.954500	0.093500	0.484490
C261	C26	0.732700	0.045800	0.464730
H101	H10	0.738000	0.041800	0.430800
O121	O12	0.483700	0.182830	0.303310
C271	C27	0.169000	0.920100	0.451750
C281	C28	0.215000	0.611200	0.594180
C291	C29	0.839100	0.072100	0.496010
C301	C30	0.325700	0.752700	0.515200
H111	H11	0.376400	0.724300	0.494900
H121	H12	0.372200	0.797900	0.525500
H131	H13	0.240000	0.764200	0.496200
C311	C31	0.969500	0.086500	0.432800
H141	H14	0.908400	0.119700	0.413000
H151	H15	0.059200	0.099800	0.429700
H161	H16	0.952100	0.036600	0.421300
C321	C32	0.069200	0.871200	0.372900
H171	H17	0.116500	0.909800	0.358800
H181	H18	0.980900	0.867000	0.354200
H191	H19	0.115500	0.825000	0.371600
C331	C33	0.274800	0.602600	0.682800
H201	H20	0.316400	0.554800	0.682800
H211	H21	0.182400	0.596400	0.685400
H221	H22	0.318100	0.631000	0.710700
C341	C34	0.514200	0.124300	0.285120
O131	O13	0.805300	0.806200	0.202300
H231	H23	0.806000	0.831700	0.175900
H241	H24	0.877000	0.799700	0.222800
O141	O14	0.777800	0.725500	0.177400
H251	H25	0.833500	0.684900	0.192000
H261	H26	0.753200	0.723200	0.141200
Co31	Co3	0.530700	0.190840	0.190490
Co41	Co4	0.359150	0.265710	0.283090
O151	O15	0.645000	0.147810	0.143420
O161	O16	0.758200	0.204930	0.206700
O171	O17	0.345100	0.168510	0.161260
O181	O18	0.437400	0.344800	0.246010
C351	C35	0.248000	0.183300	0.181850
C361	C36	0.754600	0.167600	0.168250
O191	O19	0.251700	0.216960	0.221330
C371	C37	0.880000	0.147400	0.149800
C381	C38	0.876300	0.102700	0.108550
H271	H27	0.795100	0.083500	0.093100
C391	C39	0.495900	0.497100	0.051510
O201	O20	0.518300	0.297150	0.181970
C401	C40	0.116100	0.157100	0.155950
O211	O21	0.454900	0.617490	0.257040
C411	C41	0.476700	0.422650	0.180200
C421	C42	0.109800	0.114300	0.113440
H281	H28	0.187400	0.104500	0.100600
C431	C43	0.480600	0.554160	0.184630
C441	C44	0.919200	0.063200	0.998110
C451	C45	0.990300	0.040000	0.043810
C461	C46	0.000900	0.173900	0.173950
H291	H29	0.004400	0.203300	0.202400
C471	C47	0.990400	0.085700	0.089690
C481	C48	0.490700	0.493900	0.106030
C491	C49	0.472200	0.487100	0.207250
H301	H30	0.463400	0.484900	0.240900
C501	C50	0.484200	0.426790	0.130100
H311	H31	0.485000	0.383200	0.111800
C511	C51	0.475700	0.348900	0.204570
C521	C52	0.930900	0.022900	0.953500
C531	C53	0.490000	0.558300	0.134260
H321	H32	0.496000	0.604300	0.119200
O221	O22	0.938600	0.389000	0.075790
O231	O23	0.691200	0.211100	0.941880
C541	C54	0.386100	0.524200	0.018870
O241	O24	0.714200	0.140800	0.863060
C551	C55	0.839500	0.128800	0.993720
H331	H33	0.834600	0.157100	0.022100
C561	C56	0.608300	0.472200	0.033720
C571	C57	0.862400	0.050800	0.907620
H341	H34	0.871100	0.026600	0.878000
C581	C58	0.719000	0.443100	0.065550
H351	H35	0.715900	0.439300	0.099600
C591	C59	0.771900	0.150200	0.949670
O251	O25	0.045500	0.593500	0.015510
C601	C60	0.267300	0.545800	0.035270
H361	H36	0.262000	0.541800	0.069200
O261	O26	0.516300	0.682830	0.196690
C611	C61	0.831000	0.420100	0.048250
C621	C62	0.785000	0.111200	0.905820
C631	C63	0.160900	0.572100	0.003990
C641	C64	0.674300	0.252700	0.984800
H371	H37	0.623600	0.224300	0.005100
H381	H38	0.627800	0.297900	0.974500
H391	H39	0.760000	0.264200	0.003800
C651	C65	0.030500	0.586500	0.067200
H401	H40	0.091600	0.619700	0.087000
H411	H41	0.940800	0.599800	0.070300
H421	H42	0.047900	0.536600	0.078700
C661	C66	0.930800	0.371200	0.127100
H431	H43	0.883500	0.409800	0.141200
H441	H44	0.019100	0.367000	0.145800
H451	H45	0.884500	0.325000	0.128400
C671	C67	0.725200	0.102600	0.817200
H461	H46	0.683600	0.054800	0.817200
H471	H47	0.817600	0.096400	0.814600
H481	H48	0.681900	0.131000	0.789300
C681	C68	0.485800	0.624300	0.214880
O271	O27	0.194700	0.306200	0.297700
H491	H49	0.194000	0.331700	0.324100
H501	H50	0.123000	0.299700	0.277200
O281	O28	0.222200	0.225500	0.322600
H511	H51	0.166500	0.184900	0.308000
H521	H52	0.246800	0.223200	0.358800
Co51	Co5	0.530700	0.309160	0.690490
Co61	Co6	0.359150	0.234290	0.783090
O291	O29	0.645000	0.352190	0.643420
O301	O30	0.758200	0.295070	0.706700
O311	O31	0.345100	0.331490	0.661260
O321	O32	0.437400	0.155200	0.746010
C691	C69	0.248000	0.316700	0.681850
C701	C70	0.754600	0.332400	0.668250
O331	O33	0.251700	0.283040	0.721330
C711	C71	0.880000	0.352600	0.649800
C721	C72	0.876300	0.397300	0.608550
H531	H53	0.795100	0.416500	0.593100
C731	C73	0.495900	0.002900	0.551510
O341	O34	0.518300	0.202850	0.681970
C741	C74	0.116100	0.342900	0.655950
O351	O35	0.454900	0.882510	0.757040
C751	C75	0.476700	0.077350	0.680200
C761	C76	0.109800	0.385700	0.613440
H541	H54	0.187400	0.395500	0.600600
C771	C77	0.480600	0.945840	0.684630
C781	C78	0.919200	0.436800	0.498110
C791	C79	0.990300	0.460000	0.543810
C801	C80	0.000900	0.326100	0.673950
H551	H55	0.004400	0.296700	0.702400
C811	C81	0.990400	0.414300	0.589690
C821	C82	0.490700	0.006100	0.606030
C831	C83	0.472200	0.012900	0.707250
H561	H56	0.463400	0.015100	0.740900
C841	C84	0.484200	0.073210	0.630100
H571	H57	0.485000	0.116800	0.611800
C851	C85	0.475700	0.151100	0.704570
C861	C86	0.930900	0.477100	0.453500
C871	C87	0.490000	0.941700	0.634260
H581	H58	0.496000	0.895700	0.619200
O361	O36	0.938600	0.111000	0.575790
O371	O37	0.691200	0.288900	0.441880
C881	C88	0.386100	0.975800	0.518870
O381	O38	0.714200	0.359200	0.363060
C891	C89	0.839500	0.371200	0.493720
H591	H59	0.834600	0.342900	0.522100
C901	C90	0.608300	0.027800	0.533720
C911	C91	0.862400	0.449200	0.407620
H601	H60	0.871100	0.473400	0.378000
C921	C92	0.719000	0.056900	0.565550
H611	H61	0.715900	0.060700	0.599600
C931	C93	0.771900	0.349800	0.449670
O391	O39	0.045500	0.906500	0.515510
C941	C94	0.267300	0.954200	0.535270
H621	H62	0.262000	0.958200	0.569200
O401	O40	0.516300	0.817170	0.696690
C951	C95	0.831000	0.079900	0.548250
C961	C96	0.785000	0.388800	0.405820
C971	C97	0.160900	0.927900	0.503990
C981	C98	0.674300	0.247300	0.484800
H631	H63	0.623600	0.275700	0.505100
H641	H64	0.627800	0.202100	0.474500
H651	H65	0.760000	0.235800	0.503800
C991	C99	0.030500	0.913500	0.567200
H661	H66	0.091600	0.880300	0.587000
H671	H67	0.940800	0.900200	0.570300
H681	H68	0.047900	0.963400	0.578700
C1001	C100	0.930800	0.128800	0.627100
H691	H69	0.883500	0.090200	0.641200
H701	H70	0.019100	0.133000	0.645800
H711	H71	0.884500	0.175000	0.628400
C1011	C101	0.725200	0.397400	0.317200
H721	H72	0.683600	0.445200	0.317200
H731	H73	0.817600	0.403600	0.314600
H741	H74	0.681900	0.369000	0.289300
C1021	C102	0.485800	0.875700	0.714880
O411	O41	0.194700	0.193800	0.797700
H751	H75	0.194000	0.168300	0.824100
H761	H76	0.123000	0.200300	0.777200
O421	O42	0.222200	0.274500	0.822600
H771	H77	0.166500	0.315100	0.808000
H781	H78	0.246800	0.276800	0.858800
Co71	Co7	0.469300	0.809160	0.809510
Co81	Co8	0.640850	0.734290	0.716910
O431	O43	0.355000	0.852190	0.856580
O441	O44	0.241800	0.795070	0.793300
O451	O45	0.654900	0.831490	0.838740
O461	O46	0.562600	0.655200	0.753990
C1031	C103	0.752000	0.816700	0.818150
C1041	C104	0.245400	0.832400	0.831750
O471	O47	0.748300	0.783040	0.778670
C1051	C105	0.120000	0.852600	0.850200
C1061	C106	0.123700	0.897300	0.891450
H791	H79	0.204900	0.916500	0.906900
C1071	C107	0.504100	0.502900	0.948490
O481	O48	0.481700	0.702850	0.818030
C1081	C108	0.883900	0.842900	0.844050
O491	O49	0.545100	0.382510	0.742960
C1091	C109	0.523300	0.577350	0.819800
C1101	C110	0.890200	0.885700	0.886560
H801	H80	0.812600	0.895500	0.899400
C1111	C111	0.519400	0.445840	0.815370
C1121	C112	0.080800	0.936800	0.001890
C1131	C113	0.009700	0.960000	0.956190
C1141	C114	0.999100	0.826100	0.826050
H811	H81	0.995600	0.796700	0.797600
C1151	C115	0.009600	0.914300	0.910310
C1161	C116	0.509300	0.506100	0.893970
C1171	C117	0.527800	0.512900	0.792750
H821	H82	0.536600	0.515100	0.759100
C1181	C118	0.515800	0.573210	0.869900
H831	H83	0.515000	0.616800	0.888200
C1191	C119	0.524300	0.651100	0.795430
C1201	C120	0.069100	0.977100	0.046500
C1211	C121	0.510000	0.441700	0.865740
H841	H84	0.504000	0.395700	0.880800
O501	O50	0.061400	0.611000	0.924210
O511	O51	0.308800	0.788900	0.058120
C1221	C122	0.613900	0.475800	0.981130
O521	O52	0.285800	0.859200	0.136940
C1231	C123	0.160500	0.871200	0.006280
H851	H85	0.165400	0.842900	0.977900
C1241	C124	0.391700	0.527800	0.966280
C1251	C125	0.137600	0.949200	0.092380
H861	H86	0.128900	0.973400	0.122000
C1261	C126	0.281000	0.556900	0.934450
H871	H87	0.284100	0.560700	0.900400
C1271	C127	0.228100	0.849800	0.050330
O531	O53	0.954500	0.406500	0.984490
C1281	C128	0.732700	0.454200	0.964730
H881	H88	0.738000	0.458200	0.930800
O541	O54	0.483700	0.317170	0.803310
C1291	C129	0.169000	0.579900	0.951750
C1301	C130	0.215000	0.888800	0.094180
C1311	C131	0.839100	0.427900	0.996010
C1321	C132	0.325700	0.747300	0.015200
H891	H89	0.376400	0.775700	0.994900
H901	H90	0.372200	0.702100	0.025500
H911	H91	0.240000	0.735800	0.996200
C1331	C133	0.969500	0.413500	0.932800
H921	H92	0.908400	0.380300	0.913000
H931	H93	0.059200	0.400200	0.929700
H941	H94	0.952100	0.463400	0.921300
C1341	C134	0.069200	0.628800	0.872900
H951	H95	0.116500	0.590200	0.858800
H961	H96	0.980900	0.633000	0.854200
H971	H97	0.115500	0.675000	0.871600
C1351	C135	0.274800	0.897400	0.182800
H981	H98	0.316400	0.945200	0.182800
H991	H99	0.182400	0.903600	0.185400
H1001	H100	0.318100	0.869000	0.210700
C1361	C136	0.514200	0.375700	0.785120
O551	O55	0.805300	0.693800	0.702300
H1011	H101	0.806000	0.668300	0.675900
H1021	H102	0.877000	0.700300	0.722800
O561	O56	0.777800	0.774500	0.677400
H1031	H103	0.833500	0.815100	0.692000
H1041	H104	0.753200	0.776800	0.641200
