data_LITDAV_clean_PM
_symmetry_space_group_name_H-M	'P1'
_cell_length_a	10.107000
_cell_length_b	18.338000
_cell_length_c	27.084000
_cell_angle_alpha	90.000000
_cell_angle_beta	99.285000
_cell_angle_gamma	90.000000
_symmetry_Int_Tables_number 1

loop_
_symmetry_equiv_pos_as_xyz
'x,y,z'

loop_
_atom_site_label
_atom_site_type_symbol
_atom_site_fract_x
_atom_site_fract_y
_atom_site_fract_z
Zn11	Zn1	0.464270	0.803930	0.307580
Zn21	Zn2	0.636670	0.730130	0.219180
O11	O1	0.646800	0.829580	0.339330
O21	O2	0.483500	0.698710	0.313770
C11	C1	0.886800	0.881770	0.388730
H11	H1	0.808800	0.893300	0.401100
C21	C2	0.878600	0.837380	0.347020
O31	O3	0.566400	0.646910	0.251190
O41	O4	0.746000	0.772770	0.283560
C31	C3	0.994600	0.819190	0.329400
H21	H2	0.990700	0.789000	0.301600
C41	C4	0.509900	0.443960	0.315530
C51	C5	0.747500	0.810400	0.321070
C61	C6	0.501600	0.504930	0.448260
C71	C7	0.525700	0.645190	0.292280
C81	C8	0.074000	0.934700	0.504030
C91	C9	0.008600	0.957200	0.457560
O51	O5	0.292800	0.787130	0.565200
C101	C10	0.116300	0.845500	0.352840
C111	C11	0.064600	0.977300	0.547690
C121	C12	0.500700	0.442770	0.365950
H31	H3	0.490500	0.398500	0.381600
C131	C13	0.007600	0.909500	0.412510
C141	C14	0.506500	0.507270	0.393490
C151	C15	0.522300	0.573610	0.318180
C161	C16	0.513000	0.571910	0.368050
H41	H4	0.511100	0.615700	0.385300
C171	C17	0.123400	0.890900	0.394330
H51	H5	0.205900	0.908800	0.409800
C181	C18	0.613100	0.476730	0.480710
C191	C19	0.524700	0.509250	0.292110
H61	H6	0.536200	0.510000	0.258700
C201	C20	0.389900	0.529190	0.467520
C211	C21	0.150500	0.868500	0.510820
H71	H7	0.155600	0.839200	0.483200
C221	C22	0.733600	0.456200	0.462890
H81	H8	0.738800	0.462300	0.429200
O61	O6	0.059900	0.615700	0.428830
C231	C23	0.201200	0.888700	0.599450
C241	C24	0.275600	0.560300	0.435820
H91	H9	0.277000	0.565600	0.401800
C251	C25	0.129200	0.950700	0.595300
H101	H10	0.121000	0.976900	0.624000
C261	C26	0.215000	0.847600	0.555900
O71	O7	0.956800	0.408300	0.480400
C271	C27	0.968800	0.422100	0.428700
H111	H11	0.907800	0.391200	0.407300
H121	H12	0.058900	0.412200	0.423700
H131	H13	0.947600	0.472200	0.420800
C281	C28	0.838700	0.428800	0.493280
C291	C29	0.307900	0.743500	0.522800
H141	H14	0.338000	0.773500	0.497800
H151	H15	0.223200	0.721800	0.509300
H161	H16	0.372500	0.705700	0.532800
C301	C30	0.167900	0.581700	0.454640
O81	O8	0.353300	0.845650	0.356130
O91	O9	0.235500	0.786690	0.294850
O101	O10	0.551800	0.372420	0.248430
C311	C31	0.241700	0.824100	0.333000
O111	O11	0.442300	0.323230	0.303570
C321	C32	0.065400	0.639400	0.379000
H171	H17	0.074700	0.597800	0.358300
H181	H18	0.140800	0.671300	0.379200
H191	H19	0.984400	0.665000	0.366100
C331	C33	0.500500	0.373800	0.286740
O121	O12	0.266300	0.860030	0.642790
C341	C34	0.245200	0.895300	0.688120
H201	H20	0.150800	0.900500	0.688200
H211	H21	0.286500	0.942600	0.690100
H221	H22	0.284300	0.866500	0.716300
Zn31	Zn3	0.535730	0.303930	0.192420
Zn41	Zn4	0.363330	0.230130	0.280820
O131	O13	0.353200	0.329580	0.160670
O141	O14	0.516500	0.198710	0.186230
C351	C35	0.113200	0.381770	0.111270
H231	H23	0.191200	0.393300	0.098900
C361	C36	0.121400	0.337380	0.152980
O151	O15	0.433600	0.146910	0.248810
O161	O16	0.254000	0.272770	0.216440
C371	C37	0.005400	0.319190	0.170600
H241	H24	0.009300	0.289000	0.198400
C381	C38	0.490100	0.943960	0.184470
C391	C39	0.252500	0.310400	0.178930
C401	C40	0.498400	0.004930	0.051740
C411	C41	0.474300	0.145190	0.207720
C421	C42	0.926000	0.434700	0.995970
C431	C43	0.991400	0.457200	0.042440
O171	O17	0.707200	0.287130	0.934800
C441	C44	0.883700	0.345500	0.147160
C451	C45	0.935400	0.477300	0.952310
C461	C46	0.499300	0.942770	0.134050
H251	H25	0.509500	0.898500	0.118400
C471	C47	0.992400	0.409500	0.087490
C481	C48	0.493500	0.007270	0.106510
C491	C49	0.477700	0.073610	0.181820
C501	C50	0.487000	0.071910	0.131950
H261	H26	0.488900	0.115700	0.114700
C511	C51	0.876600	0.390900	0.105670
H271	H27	0.794100	0.408800	0.090200
C521	C52	0.386900	0.976730	0.019290
C531	C53	0.475300	0.009250	0.207890
H281	H28	0.463800	0.010000	0.241300
C541	C54	0.610100	0.029190	0.032480
C551	C55	0.849500	0.368500	0.989180
H291	H29	0.844400	0.339200	0.016800
C561	C56	0.266400	0.956200	0.037110
H301	H30	0.261200	0.962300	0.070800
O181	O18	0.940100	0.115700	0.071170
C571	C57	0.798800	0.388700	0.900550
C581	C58	0.724400	0.060300	0.064180
H311	H31	0.723000	0.065600	0.098200
C591	C59	0.870800	0.450700	0.904700
H321	H32	0.879000	0.476900	0.876000
C601	C60	0.785000	0.347600	0.944100
O191	O19	0.043200	0.908300	0.019600
C611	C61	0.031200	0.922100	0.071300
H331	H33	0.092200	0.891200	0.092700
H341	H34	0.941100	0.912200	0.076300
H351	H35	0.052400	0.972200	0.079200
C621	C62	0.161300	0.928800	0.006720
C631	C63	0.692100	0.243500	0.977200
H361	H36	0.662000	0.273500	0.002200
H371	H37	0.776800	0.221800	0.990700
H381	H38	0.627500	0.205700	0.967200
C641	C64	0.832100	0.081700	0.045360
O201	O20	0.646700	0.345650	0.143870
O211	O21	0.764500	0.286690	0.205150
O221	O22	0.448200	0.872420	0.251570
C651	C65	0.758300	0.324100	0.167000
O231	O23	0.557700	0.823230	0.196430
C661	C66	0.934600	0.139400	0.121000
H391	H39	0.925300	0.097800	0.141700
H401	H40	0.859200	0.171300	0.120800
H411	H41	0.015600	0.165000	0.133900
C671	C67	0.499500	0.873800	0.213260
O241	O24	0.733700	0.360030	0.857210
C681	C68	0.754800	0.395300	0.811880
H421	H42	0.849200	0.400500	0.811800
H431	H43	0.713500	0.442600	0.809900
H441	H44	0.715700	0.366500	0.783700
Zn51	Zn5	0.535730	0.196070	0.692420
Zn61	Zn6	0.363330	0.269870	0.780820
O251	O25	0.353200	0.170420	0.660670
O261	O26	0.516500	0.301290	0.686230
C691	C69	0.113200	0.118230	0.611270
H451	H45	0.191200	0.106700	0.598900
C701	C70	0.121400	0.162620	0.652980
O271	O27	0.433600	0.353090	0.748810
O281	O28	0.254000	0.227230	0.716440
C711	C71	0.005400	0.180810	0.670600
H461	H46	0.009300	0.211000	0.698400
C721	C72	0.490100	0.556040	0.684470
C731	C73	0.252500	0.189600	0.678930
C741	C74	0.498400	0.495070	0.551740
C751	C75	0.474300	0.354810	0.707720
C761	C76	0.926000	0.065300	0.495970
C771	C77	0.991400	0.042800	0.542440
O291	O29	0.707200	0.212870	0.434800
C781	C78	0.883700	0.154500	0.647160
C791	C79	0.935400	0.022700	0.452310
C801	C80	0.499300	0.557230	0.634050
H471	H47	0.509500	0.601500	0.618400
C811	C81	0.992400	0.090500	0.587490
C821	C82	0.493500	0.492730	0.606510
C831	C83	0.477700	0.426390	0.681820
C841	C84	0.487000	0.428090	0.631950
H481	H48	0.488900	0.384300	0.614700
C851	C85	0.876600	0.109100	0.605670
H491	H49	0.794100	0.091200	0.590200
C861	C86	0.386900	0.523270	0.519290
C871	C87	0.475300	0.490750	0.707890
H501	H50	0.463800	0.490000	0.741300
C881	C88	0.610100	0.470810	0.532480
C891	C89	0.849500	0.131500	0.489180
H511	H51	0.844400	0.160800	0.516800
C901	C90	0.266400	0.543800	0.537110
H521	H52	0.261200	0.537700	0.570800
O301	O30	0.940100	0.384300	0.571170
C911	C91	0.798800	0.111300	0.400550
C921	C92	0.724400	0.439700	0.564180
H531	H53	0.723000	0.434400	0.598200
C931	C93	0.870800	0.049300	0.404700
H541	H54	0.879000	0.023100	0.376000
C941	C94	0.785000	0.152400	0.444100
O311	O31	0.043200	0.591700	0.519600
C951	C95	0.031200	0.577900	0.571300
H551	H55	0.092200	0.608800	0.592700
H561	H56	0.941100	0.587800	0.576300
H571	H57	0.052400	0.527800	0.579200
C961	C96	0.161300	0.571200	0.506720
C971	C97	0.692100	0.256500	0.477200
H581	H58	0.662000	0.226500	0.502200
H591	H59	0.776800	0.278200	0.490700
H601	H60	0.627500	0.294300	0.467200
C981	C98	0.832100	0.418300	0.545360
O321	O32	0.646700	0.154350	0.643870
O331	O33	0.764500	0.213310	0.705150
O341	O34	0.448200	0.627580	0.751570
C991	C99	0.758300	0.175900	0.667000
O351	O35	0.557700	0.676770	0.696430
C1001	C100	0.934600	0.360600	0.621000
H611	H61	0.925300	0.402200	0.641700
H621	H62	0.859200	0.328700	0.620800
H631	H63	0.015600	0.335000	0.633900
C1011	C101	0.499500	0.626200	0.713260
O361	O36	0.733700	0.139970	0.357210
C1021	C102	0.754800	0.104700	0.311880
H641	H64	0.849200	0.099500	0.311800
H651	H65	0.713500	0.057400	0.309900
H661	H66	0.715700	0.133500	0.283700
Zn71	Zn7	0.464270	0.696070	0.807580
Zn81	Zn8	0.636670	0.769870	0.719180
O371	O37	0.646800	0.670420	0.839330
O381	O38	0.483500	0.801290	0.813770
C1031	C103	0.886800	0.618230	0.888730
H671	H67	0.808800	0.606700	0.901100
C1041	C104	0.878600	0.662620	0.847020
O391	O39	0.566400	0.853090	0.751190
O401	O40	0.746000	0.727230	0.783560
C1051	C105	0.994600	0.680810	0.829400
H681	H68	0.990700	0.711000	0.801600
C1061	C106	0.509900	0.056040	0.815530
C1071	C107	0.747500	0.689600	0.821070
C1081	C108	0.501600	0.995070	0.948260
C1091	C109	0.525700	0.854810	0.792280
C1101	C110	0.074000	0.565300	0.004030
C1111	C111	0.008600	0.542800	0.957560
O411	O41	0.292800	0.712870	0.065200
C1121	C112	0.116300	0.654500	0.852840
C1131	C113	0.064600	0.522700	0.047690
C1141	C114	0.500700	0.057230	0.865950
H691	H69	0.490500	0.101500	0.881600
C1151	C115	0.007600	0.590500	0.912510
C1161	C116	0.506500	0.992730	0.893490
C1171	C117	0.522300	0.926390	0.818180
C1181	C118	0.513000	0.928090	0.868050
H701	H70	0.511100	0.884300	0.885300
C1191	C119	0.123400	0.609100	0.894330
H711	H71	0.205900	0.591200	0.909800
C1201	C120	0.613100	0.023270	0.980710
C1211	C121	0.524700	0.990750	0.792110
H721	H72	0.536200	0.990000	0.758700
C1221	C122	0.389900	0.970810	0.967520
C1231	C123	0.150500	0.631500	0.010820
H731	H73	0.155600	0.660800	0.983200
C1241	C124	0.733600	0.043800	0.962890
H741	H74	0.738800	0.037700	0.929200
O421	O42	0.059900	0.884300	0.928830
C1251	C125	0.201200	0.611300	0.099450
C1261	C126	0.275600	0.939700	0.935820
H751	H75	0.277000	0.934400	0.901800
C1271	C127	0.129200	0.549300	0.095300
H761	H76	0.121000	0.523100	0.124000
C1281	C128	0.215000	0.652400	0.055900
O431	O43	0.956800	0.091700	0.980400
C1291	C129	0.968800	0.077900	0.928700
H771	H77	0.907800	0.108800	0.907300
H781	H78	0.058900	0.087800	0.923700
H791	H79	0.947600	0.027800	0.920800
C1301	C130	0.838700	0.071200	0.993280
C1311	C131	0.307900	0.756500	0.022800
H801	H80	0.338000	0.726500	0.997800
H811	H81	0.223200	0.778200	0.009300
H821	H82	0.372500	0.794300	0.032800
C1321	C132	0.167900	0.918300	0.954640
O441	O44	0.353300	0.654350	0.856130
O451	O45	0.235500	0.713310	0.794850
O461	O46	0.551800	0.127580	0.748430
C1331	C133	0.241700	0.675900	0.833000
O471	O47	0.442300	0.176770	0.803570
C1341	C134	0.065400	0.860600	0.879000
H831	H83	0.074700	0.902200	0.858300
H841	H84	0.140800	0.828700	0.879200
H851	H85	0.984400	0.835000	0.866100
C1351	C135	0.500500	0.126200	0.786740
O481	O48	0.266300	0.639970	0.142790
C1361	C136	0.245200	0.604700	0.188120
H861	H86	0.150800	0.599500	0.188200
H871	H87	0.286500	0.557400	0.190100
H881	H88	0.284300	0.633500	0.216300
