data_LIVKUW_clean_PM
_symmetry_space_group_name_H-M	'P1'
_cell_length_a	10.172400
_cell_length_b	10.172400
_cell_length_c	9.606000
_cell_angle_alpha	90.000000
_cell_angle_beta	90.000000
_cell_angle_gamma	90.000000
_symmetry_Int_Tables_number 1

loop_
_symmetry_equiv_pos_as_xyz
'x,y,z'

loop_
_atom_site_label
_atom_site_type_symbol
_atom_site_fract_x
_atom_site_fract_y
_atom_site_fract_z
O11	O1	0.697000	0.480000	0.218400
O21	O2	0.197000	0.980000	0.718400
O31	O3	0.303000	0.520000	0.218400
O41	O4	0.803000	0.020000	0.718400
O51	O5	0.480000	0.303000	0.781600
O61	O6	0.980000	0.803000	0.281600
O71	O7	0.520000	0.697000	0.781600
O81	O8	0.020000	0.197000	0.281600
O91	O9	0.303000	0.480000	0.781600
O101	O10	0.803000	0.980000	0.281600
O111	O11	0.697000	0.520000	0.781600
O121	O12	0.197000	0.020000	0.281600
O131	O13	0.520000	0.303000	0.218400
O141	O14	0.020000	0.803000	0.718400
O151	O15	0.480000	0.697000	0.218400
O161	O16	0.980000	0.197000	0.718400
P11	P1	0.664600	0.335400	0.191800
O171	O17	0.700100	0.299900	0.038000
O181	O18	0.741500	0.258500	0.286000
Co11	Co1	0.633200	0.366800	0.868400
P21	P2	0.164600	0.835400	0.691800
O191	O19	0.200100	0.799900	0.538000
O201	O20	0.241500	0.758500	0.786000
Co21	Co2	0.133200	0.866800	0.368400
P31	P3	0.335400	0.664600	0.191800
O211	O21	0.299900	0.700100	0.038000
O221	O22	0.258500	0.741500	0.286000
Co31	Co3	0.366800	0.633200	0.868400
P41	P4	0.835400	0.164600	0.691800
O231	O23	0.799900	0.200100	0.538000
O241	O24	0.758500	0.241500	0.786000
Co41	Co4	0.866800	0.133200	0.368400
P51	P5	0.335400	0.335400	0.808200
O251	O25	0.299900	0.299900	0.962000
O261	O26	0.258500	0.258500	0.714000
Co51	Co5	0.366800	0.366800	0.131600
P61	P6	0.835400	0.835400	0.308200
O271	O27	0.799900	0.799900	0.462000
O281	O28	0.758500	0.758500	0.214000
Co61	Co6	0.866800	0.866800	0.631600
P71	P7	0.664600	0.664600	0.808200
O291	O29	0.700100	0.700100	0.962000
O301	O30	0.741500	0.741500	0.714000
Co71	Co7	0.633200	0.633200	0.131600
P81	P8	0.164600	0.164600	0.308200
O311	O31	0.200100	0.200100	0.462000
O321	O32	0.241500	0.241500	0.214000
Co81	Co8	0.133200	0.133200	0.631600
