data_LIVLUZ_clean_PM
_symmetry_space_group_name_H-M	'P1'
_cell_length_a	8.254000
_cell_length_b	18.896000
_cell_length_c	18.006000
_cell_angle_alpha	90.000000
_cell_angle_beta	90.000000
_cell_angle_gamma	90.000000
_symmetry_Int_Tables_number 1

loop_
_symmetry_equiv_pos_as_xyz
'x,y,z'

loop_
_atom_site_label
_atom_site_type_symbol
_atom_site_fract_x
_atom_site_fract_y
_atom_site_fract_z
Cd11	Cd1	0.512690	0.972730	0.906630
O11	O1	0.373200	0.363900	0.938800
O21	O2	0.214800	0.442600	0.882300
O31	O3	0.758300	0.001600	0.433900
O41	O4	0.586800	0.011000	0.528000
N11	N1	0.575100	0.088900	0.899000
N21	N2	0.706800	0.188900	0.912800
N31	N3	0.543900	0.205100	0.919800
N41	N4	0.418400	0.941200	0.794000
N51	N5	0.254900	0.937400	0.696800
N61	N6	0.384600	0.892000	0.681900
C11	C1	0.462700	0.141900	0.912100
H11	H1	0.351100	0.135900	0.915100
C21	C2	0.719100	0.118500	0.899400
H21	H2	0.816000	0.094600	0.891500
C31	C3	0.838500	0.237500	0.914200
C41	C4	0.986800	0.216800	0.945100
H31	H3	0.998500	0.172000	0.965800
C51	C5	0.115800	0.263600	0.944500
H41	H4	0.215800	0.249400	0.963000
C61	C6	0.097500	0.331900	0.916300
C71	C7	0.946800	0.352500	0.887700
H51	H5	0.933600	0.397800	0.868500
C81	C8	0.816700	0.305600	0.887800
H61	H6	0.715900	0.319900	0.870200
C91	C9	0.237000	0.382800	0.911800
C101	C10	0.485400	0.894700	0.742100
H71	H7	0.582000	0.869900	0.747500
C111	C11	0.282600	0.964800	0.765500
H81	H8	0.213700	0.996400	0.789300
C121	C12	0.122000	0.952200	0.648900
C131	C13	0.152900	0.963900	0.574100
H91	H9	0.258000	0.961300	0.555600
C141	C14	0.023400	0.979700	0.526900
H101	H10	0.042400	0.987400	0.476700
C151	C15	0.866000	0.983900	0.554500
C161	C16	0.838800	0.972900	0.630100
H111	H11	0.733900	0.976000	0.648700
C171	C17	0.966100	0.957200	0.678300
H121	H12	0.947600	0.950200	0.728700
C181	C18	0.727500	0.999800	0.502700
Cd21	Cd2	0.487310	0.027270	0.406630
O51	O5	0.626800	0.636100	0.438800
O61	O6	0.785200	0.557400	0.382300
O71	O7	0.241700	0.998400	0.933900
O81	O8	0.413200	0.989000	0.028000
N71	N7	0.424900	0.911100	0.399000
N81	N8	0.293200	0.811100	0.412800
N91	N9	0.456100	0.794900	0.419800
N101	N10	0.581600	0.058800	0.294000
N111	N11	0.745100	0.062600	0.196800
N121	N12	0.615400	0.108000	0.181900
C191	C19	0.537300	0.858100	0.412100
H131	H13	0.648900	0.864100	0.415100
C201	C20	0.280900	0.881500	0.399400
H141	H14	0.184000	0.905400	0.391500
C211	C21	0.161500	0.762500	0.414200
C221	C22	0.013200	0.783200	0.445100
H151	H15	0.001500	0.828000	0.465800
C231	C23	0.884200	0.736400	0.444500
H161	H16	0.784200	0.750600	0.463000
C241	C24	0.902500	0.668100	0.416300
C251	C25	0.053200	0.647500	0.387700
H171	H17	0.066400	0.602200	0.368500
C261	C26	0.183300	0.694400	0.387800
H181	H18	0.284100	0.680100	0.370200
C271	C27	0.763000	0.617200	0.411800
C281	C28	0.514600	0.105300	0.242100
H191	H19	0.418000	0.130100	0.247500
C291	C29	0.717400	0.035200	0.265500
H201	H20	0.786300	0.003600	0.289300
C301	C30	0.878000	0.047800	0.148900
C311	C31	0.847100	0.036100	0.074100
H211	H21	0.742000	0.038700	0.055600
C321	C32	0.976600	0.020300	0.026900
H221	H22	0.957600	0.012600	0.976700
C331	C33	0.134000	0.016100	0.054500
C341	C34	0.161200	0.027100	0.130100
H231	H23	0.266100	0.024000	0.148700
C351	C35	0.033900	0.042800	0.178300
H241	H24	0.052400	0.049800	0.228700
C361	C36	0.272500	0.000200	0.002700
Cd31	Cd3	0.487310	0.472730	0.906630
O91	O9	0.626800	0.863900	0.938800
O101	O10	0.785200	0.942600	0.882300
O111	O11	0.241700	0.501600	0.433900
O121	O12	0.413200	0.511000	0.528000
N131	N13	0.424900	0.588900	0.899000
N141	N14	0.293200	0.688900	0.912800
N151	N15	0.456100	0.705100	0.919800
N161	N16	0.581600	0.441200	0.794000
N171	N17	0.745100	0.437400	0.696800
N181	N18	0.615400	0.392000	0.681900
C371	C37	0.537300	0.641900	0.912100
H251	H25	0.648900	0.635900	0.915100
C381	C38	0.280900	0.618500	0.899400
H261	H26	0.184000	0.594600	0.891500
C391	C39	0.161500	0.737500	0.914200
C401	C40	0.013200	0.716800	0.945100
H271	H27	0.001500	0.672000	0.965800
C411	C41	0.884200	0.763600	0.944500
H281	H28	0.784200	0.749400	0.963000
C421	C42	0.902500	0.831900	0.916300
C431	C43	0.053200	0.852500	0.887700
H291	H29	0.066400	0.897800	0.868500
C441	C44	0.183300	0.805600	0.887800
H301	H30	0.284100	0.819900	0.870200
C451	C45	0.763000	0.882800	0.911800
C461	C46	0.514600	0.394700	0.742100
H311	H31	0.418000	0.369900	0.747500
C471	C47	0.717400	0.464800	0.765500
H321	H32	0.786300	0.496400	0.789300
C481	C48	0.878000	0.452200	0.648900
C491	C49	0.847100	0.463900	0.574100
H331	H33	0.742000	0.461300	0.555600
C501	C50	0.976600	0.479700	0.526900
H341	H34	0.957600	0.487400	0.476700
C511	C51	0.134000	0.483900	0.554500
C521	C52	0.161200	0.472900	0.630100
H351	H35	0.266100	0.476000	0.648700
C531	C53	0.033900	0.457200	0.678300
H361	H36	0.052400	0.450200	0.728700
C541	C54	0.272500	0.499800	0.502700
Cd41	Cd4	0.512690	0.527270	0.406630
O131	O13	0.373200	0.136100	0.438800
O141	O14	0.214800	0.057400	0.382300
O151	O15	0.758300	0.498400	0.933900
O161	O16	0.586800	0.489000	0.028000
N191	N19	0.575100	0.411100	0.399000
N201	N20	0.706800	0.311100	0.412800
N211	N21	0.543900	0.294900	0.419800
N221	N22	0.418400	0.558800	0.294000
N231	N23	0.254900	0.562600	0.196800
N241	N24	0.384600	0.608000	0.181900
C551	C55	0.462700	0.358100	0.412100
H371	H37	0.351100	0.364100	0.415100
C561	C56	0.719100	0.381500	0.399400
H381	H38	0.816000	0.405400	0.391500
C571	C57	0.838500	0.262500	0.414200
C581	C58	0.986800	0.283200	0.445100
H391	H39	0.998500	0.328000	0.465800
C591	C59	0.115800	0.236400	0.444500
H401	H40	0.215800	0.250600	0.463000
C601	C60	0.097500	0.168100	0.416300
C611	C61	0.946800	0.147500	0.387700
H411	H41	0.933600	0.102200	0.368500
C621	C62	0.816700	0.194400	0.387800
H421	H42	0.715900	0.180100	0.370200
C631	C63	0.237000	0.117200	0.411800
C641	C64	0.485400	0.605300	0.242100
H431	H43	0.582000	0.630100	0.247500
C651	C65	0.282600	0.535200	0.265500
H441	H44	0.213700	0.503600	0.289300
C661	C66	0.122000	0.547800	0.148900
C671	C67	0.152900	0.536100	0.074100
H451	H45	0.258000	0.538700	0.055600
C681	C68	0.023400	0.520300	0.026900
H461	H46	0.042400	0.512600	0.976700
C691	C69	0.866000	0.516100	0.054500
C701	C70	0.838800	0.527100	0.130100
H471	H47	0.733900	0.524000	0.148700
C711	C71	0.966100	0.542800	0.178300
H481	H48	0.947600	0.549800	0.228700
C721	C72	0.727500	0.500200	0.002700
