data_LIVTEP_charged_PM
_symmetry_space_group_name_H-M	'P1'
_cell_length_a	8.157000
_cell_length_b	10.170600
_cell_length_c	11.613000
_cell_angle_alpha	90.000000
_cell_angle_beta	90.000000
_cell_angle_gamma	113.641000
_symmetry_Int_Tables_number 1

loop_
_symmetry_equiv_pos_as_xyz
'x,y,z'

loop_
_atom_site_label
_atom_site_type_symbol
_atom_site_fract_x
_atom_site_fract_y
_atom_site_fract_z
Cu11	Cu1	0.500000	0.000000	0.250000
Cu21	Cu2	0.500000	0.000000	0.750000
H11	H1	0.000000	0.500000	0.798300
H21	H2	0.500000	0.500000	0.701700
H31	H3	0.000000	0.500000	0.201700
H41	H4	0.500000	0.500000	0.298300
C11	C1	0.791100	0.247000	0.880600
C21	C2	0.900500	0.376400	0.940300
C31	C3	0.208900	0.753000	0.880600
C41	C4	0.099500	0.623600	0.940300
C51	C5	0.455900	0.247000	0.619400
C61	C6	0.475900	0.376400	0.559700
C71	C7	0.544100	0.753000	0.619400
C81	C8	0.524100	0.623600	0.559700
C91	C9	0.208900	0.753000	0.119400
C101	C10	0.099500	0.623600	0.059700
C111	C11	0.791100	0.247000	0.119400
C121	C12	0.900500	0.376400	0.059700
C131	C13	0.544100	0.753000	0.380600
C141	C14	0.524100	0.623600	0.440300
C151	C15	0.455900	0.247000	0.380600
C161	C16	0.475900	0.376400	0.440300
C171	C17	0.000000	0.500000	0.878400
C181	C18	0.500000	0.500000	0.621600
C191	C19	0.000000	0.500000	0.121600
C201	C20	0.500000	0.500000	0.378400
N11	N1	0.697600	0.142400	0.838400
N21	N2	0.302400	0.857600	0.838400
N31	N3	0.444800	0.142400	0.661600
N41	N4	0.555200	0.857600	0.661600
N51	N5	0.302400	0.857600	0.161600
N61	N6	0.697600	0.142400	0.161600
N71	N7	0.555200	0.857600	0.338400
N81	N8	0.444800	0.142400	0.338400
P11	P1	0.500000	0.500000	0.000000
F11	F1	0.543600	0.408800	0.904400
F21	F2	0.456400	0.591200	0.904400
F31	F3	0.456400	0.591200	0.095600
F41	F4	0.543600	0.408800	0.095600
F51	F5	0.702300	0.603600	0.000000
F61	F6	0.297700	0.396400	0.000000
P21	P2	0.000000	0.500000	0.500000
F71	F7	0.865200	0.408800	0.595600
F81	F8	0.134800	0.591200	0.595600
F91	F9	0.134800	0.591200	0.404400
F101	F10	0.865200	0.408800	0.404400
F111	F11	0.901300	0.603600	0.500000
F121	F12	0.098700	0.396400	0.500000
