data_LIVWAQ_clean_PM
_symmetry_space_group_name_H-M	'P1'
_cell_length_a	10.094500
_cell_length_b	14.735600
_cell_length_c	14.496400
_cell_angle_alpha	90.000000
_cell_angle_beta	97.497000
_cell_angle_gamma	90.000000
_symmetry_Int_Tables_number 1

loop_
_symmetry_equiv_pos_as_xyz
'x,y,z'

loop_
_atom_site_label
_atom_site_type_symbol
_atom_site_fract_x
_atom_site_fract_y
_atom_site_fract_z
Zn11	Zn1	0.958890	0.098780	0.899010
Zn21	Zn2	0.966960	0.260450	0.264710
Zn31	Zn3	0.517100	0.128960	0.439780
P11	P1	0.001500	0.107130	0.117620
H11	H1	0.130900	0.170100	0.105800
P21	P2	0.685680	0.276050	0.340780
H21	H2	0.645200	0.284100	0.254100
P31	P3	0.270810	0.233100	0.341780
H31	H3	0.276600	0.188200	0.265100
P41	P4	0.557030	0.073720	0.643700
H41	H4	0.688000	0.040300	0.698400
O11	O1	0.636300	0.353800	0.394900
O21	O2	0.058100	0.019700	0.159400
O31	O3	0.331500	0.322800	0.323500
O41	O4	0.915900	0.093500	0.025300
O51	O5	0.923600	0.158000	0.184400
O61	O6	0.480900	0.122700	0.710200
O71	O7	0.835300	0.278100	0.347600
O81	O8	0.124300	0.238500	0.352800
O91	O9	0.342700	0.182500	0.423700
O101	O10	0.476900	0.992800	0.606000
O111	O11	0.635900	0.184800	0.364100
O121	O12	0.598400	0.133500	0.568300
Zn41	Zn4	0.541110	0.598780	0.600990
Zn51	Zn5	0.533040	0.760450	0.235290
Zn61	Zn6	0.982900	0.628960	0.060220
P51	P5	0.498500	0.607130	0.382380
H51	H5	0.369100	0.670100	0.394200
P61	P6	0.814320	0.776050	0.159220
H61	H6	0.854800	0.784100	0.245900
P71	P7	0.229190	0.733100	0.158220
H71	H7	0.223400	0.688200	0.234900
P81	P8	0.942970	0.573720	0.856300
H81	H8	0.812000	0.540300	0.801600
O131	O13	0.863700	0.853800	0.105100
O141	O14	0.441900	0.519700	0.340600
O151	O15	0.168500	0.822800	0.176500
O161	O16	0.584100	0.593500	0.474700
O171	O17	0.576400	0.658000	0.315600
O181	O18	0.019100	0.622700	0.789800
O191	O19	0.664700	0.778100	0.152400
O201	O20	0.375700	0.738500	0.147200
O211	O21	0.157300	0.682500	0.076300
O221	O22	0.023100	0.492800	0.894000
O231	O23	0.864100	0.684800	0.135900
O241	O24	0.901600	0.633500	0.931700
Zn71	Zn7	0.041110	0.901220	0.100990
Zn81	Zn8	0.033040	0.739550	0.735290
Zn91	Zn9	0.482900	0.871040	0.560220
P91	P9	0.998500	0.892870	0.882380
H91	H9	0.869100	0.829900	0.894200
P101	P10	0.314320	0.723950	0.659220
H101	H10	0.354800	0.715900	0.745900
P111	P11	0.729190	0.766900	0.658220
H111	H11	0.723400	0.811800	0.734900
P121	P12	0.442970	0.926280	0.356300
H121	H12	0.312000	0.959700	0.301600
O251	O25	0.363700	0.646200	0.605100
O261	O26	0.941900	0.980300	0.840600
O271	O27	0.668500	0.677200	0.676500
O281	O28	0.084100	0.906500	0.974700
O291	O29	0.076400	0.842000	0.815600
O301	O30	0.519100	0.877300	0.289800
O311	O31	0.164700	0.721900	0.652400
O321	O32	0.875700	0.761500	0.647200
O331	O33	0.657300	0.817500	0.576300
O341	O34	0.523100	0.007200	0.394000
O351	O35	0.364100	0.815200	0.635900
O361	O36	0.401600	0.866500	0.431700
Zn101	Zn10	0.458890	0.401220	0.399010
Zn111	Zn11	0.466960	0.239550	0.764710
Zn121	Zn12	0.017100	0.371040	0.939780
P131	P13	0.501500	0.392870	0.617620
H131	H13	0.630900	0.329900	0.605800
P141	P14	0.185680	0.223950	0.840780
H141	H14	0.145200	0.215900	0.754100
P151	P15	0.770810	0.266900	0.841780
H151	H15	0.776600	0.311800	0.765100
P161	P16	0.057030	0.426280	0.143700
H161	H16	0.188000	0.459700	0.198400
O371	O37	0.136300	0.146200	0.894900
O381	O38	0.558100	0.480300	0.659400
O391	O39	0.831500	0.177200	0.823500
O401	O40	0.415900	0.406500	0.525300
O411	O41	0.423600	0.342000	0.684400
O421	O42	0.980900	0.377300	0.210200
O431	O43	0.335300	0.221900	0.847600
O441	O44	0.624300	0.261500	0.852800
O451	O45	0.842700	0.317500	0.923700
O461	O46	0.976900	0.507200	0.106000
O471	O47	0.135900	0.315200	0.864100
O481	O48	0.098400	0.366500	0.068300
