data_LIWFUS_clean_PM
_symmetry_space_group_name_H-M	'P1'
_cell_length_a	7.454800
_cell_length_b	8.082500
_cell_length_c	10.166000
_cell_angle_alpha	75.244000
_cell_angle_beta	68.883000
_cell_angle_gamma	80.648000
_symmetry_Int_Tables_number 1

loop_
_symmetry_equiv_pos_as_xyz
'x,y,z'

loop_
_atom_site_label
_atom_site_type_symbol
_atom_site_fract_x
_atom_site_fract_y
_atom_site_fract_z
V11	V1	0.244000	0.516400	0.262200
V21	V2	0.307400	0.761400	0.747200
P11	P1	0.532300	0.735200	0.968800
P21	P2	0.902700	0.277000	0.478500
O11	O1	0.478300	0.639200	0.126100
O21	O2	0.711300	0.651200	0.869000
O31	O3	0.099300	0.344800	0.434000
O41	O4	0.743400	0.358600	0.594600
O51	O5	0.356300	0.759400	0.919400
O61	O6	0.840700	0.309700	0.344700
O71	O7	0.486600	0.341600	0.328500
C11	C1	0.587900	0.947700	0.958000
C21	C2	0.921600	0.049500	0.551900
H11	H1	0.691400	0.939400	0.996600
H21	H2	0.632800	0.007100	0.857600
H31	H3	0.798300	0.004400	0.575300
H41	H4	0.949900	0.030700	0.640800
V31	V3	0.756000	0.483600	0.737800
V41	V4	0.692600	0.238600	0.252800
P31	P3	0.467700	0.264800	0.031200
P41	P4	0.097300	0.723000	0.521500
O81	O8	0.521700	0.360800	0.873900
O91	O9	0.288700	0.348800	0.131000
O101	O10	0.900700	0.655200	0.566000
O111	O11	0.256600	0.641400	0.405400
O121	O12	0.643700	0.240600	0.080600
O131	O13	0.159300	0.690300	0.655300
O141	O14	0.513400	0.658400	0.671500
C31	C3	0.412100	0.052300	0.042000
C41	C4	0.078400	0.950500	0.448100
H51	H5	0.308600	0.060600	0.003400
H61	H6	0.367200	0.992900	0.142400
H71	H7	0.201700	0.995600	0.424700
H81	H8	0.050100	0.969300	0.359200
