data_LIWXIZ_clean_PM
_symmetry_space_group_name_H-M	'P1'
_cell_length_a	4.789000
_cell_length_b	11.771000
_cell_length_c	26.329000
_cell_angle_alpha	96.822000
_cell_angle_beta	90.000000
_cell_angle_gamma	90.000000
_symmetry_Int_Tables_number 1

loop_
_symmetry_equiv_pos_as_xyz
'x,y,z'

loop_
_atom_site_label
_atom_site_type_symbol
_atom_site_fract_x
_atom_site_fract_y
_atom_site_fract_z
Zn11	Zn1	0.295530	0.095410	0.550640
Zn21	Zn2	0.277380	0.824150	0.970520
Zn31	Zn3	0.795530	0.904590	0.449360
Zn41	Zn4	0.777380	0.175850	0.029480
H11	H1	0.789800	0.256700	0.420500
H21	H2	0.900200	0.287100	0.337500
H31	H3	0.361100	0.042300	0.283400
H41	H4	0.771200	0.958100	0.232100
H51	H5	0.630400	0.833800	0.163700
H61	H6	0.465400	0.218200	0.163700
H71	H7	0.331900	0.239500	0.656700
H81	H8	0.818600	0.290200	0.546500
H91	H9	0.764200	0.449700	0.613800
H101	H10	0.120400	0.523400	0.694000
H111	H11	0.301900	0.426800	0.713600
H121	H12	0.888200	0.258000	0.734300
H131	H13	0.590700	0.242100	0.801200
H141	H14	0.538300	0.582100	0.827700
H151	H15	0.840600	0.597800	0.760500
H161	H16	0.144100	0.401600	0.853700
H171	H17	0.362900	0.324700	0.877900
H181	H18	0.087300	0.609500	0.897000
H191	H19	0.690200	0.620300	0.998400
H201	H20	0.713300	0.433200	0.947200
H211	H21	0.289800	0.743300	0.579500
H221	H22	0.400200	0.712900	0.662500
H231	H23	0.861100	0.957700	0.716600
H241	H24	0.271200	0.041900	0.767900
H251	H25	0.130400	0.166200	0.836300
H261	H26	0.965400	0.781800	0.836300
H271	H27	0.831900	0.760500	0.343300
H281	H28	0.318600	0.709800	0.453500
H291	H29	0.264200	0.550300	0.386200
H301	H30	0.620400	0.476600	0.306000
H311	H31	0.801900	0.573200	0.286400
H321	H32	0.388200	0.742000	0.265700
H331	H33	0.090700	0.757900	0.198800
H341	H34	0.038300	0.417900	0.172300
H351	H35	0.340600	0.402200	0.239500
H361	H36	0.644100	0.598400	0.146300
H371	H37	0.862900	0.675300	0.122100
H381	H38	0.587300	0.390500	0.103000
H391	H39	0.190200	0.379700	0.001600
H401	H40	0.213300	0.566800	0.052800
C11	C1	0.445000	0.116300	0.456740
C21	C2	0.505900	0.131100	0.401920
C31	C3	0.703200	0.213500	0.393050
C41	C4	0.770800	0.231100	0.343320
C51	C5	0.645400	0.165300	0.301990
C61	C6	0.447700	0.085000	0.311010
C71	C7	0.374400	0.066300	0.360860
C81	C8	0.157300	0.979000	0.367660
C91	C9	0.714500	0.188400	0.248940
C101	C10	0.629800	0.102000	0.205270
C111	C11	0.680900	0.985400	0.204760
C121	C12	0.596800	0.911600	0.163580
C131	C13	0.464000	0.948000	0.121820
C141	C14	0.410100	0.065700	0.122450
C151	C15	0.496800	0.140200	0.163720
C161	C16	0.254700	0.113900	0.080330
C171	C17	0.386900	0.863600	0.076670
C181	C18	0.198300	0.272300	0.637380
C191	C19	0.916500	0.299800	0.577200
C201	C20	0.886500	0.388500	0.614200
C211	C21	0.119100	0.444100	0.700590
C221	C22	0.904000	0.429700	0.741010
C231	C23	0.821000	0.323900	0.753370
C241	C24	0.641000	0.314300	0.793330
C251	C25	0.533700	0.410600	0.821950
C261	C26	0.609800	0.516300	0.809190
C271	C27	0.792700	0.525700	0.768850
C281	C28	0.334800	0.398600	0.865820
C291	C29	0.240000	0.589800	0.915890
C301	C30	0.571800	0.594700	0.971480
C311	C31	0.585900	0.491200	0.943360
C321	C32	0.945000	0.883700	0.543260
C331	C33	0.005900	0.868900	0.598080
C341	C34	0.203200	0.786500	0.606950
C351	C35	0.270800	0.768900	0.656680
C361	C36	0.145400	0.834700	0.698010
C371	C37	0.947700	0.915000	0.688990
C381	C38	0.874400	0.933700	0.639140
C391	C39	0.657300	0.021000	0.632340
C401	C40	0.214500	0.811600	0.751060
C411	C41	0.129800	0.898000	0.794730
C421	C42	0.180900	0.014600	0.795240
C431	C43	0.096800	0.088400	0.836420
C441	C44	0.964000	0.052000	0.878180
C451	C45	0.910100	0.934300	0.877550
C461	C46	0.996800	0.859800	0.836280
C471	C47	0.754700	0.886100	0.919670
C481	C48	0.886900	0.136400	0.923330
C491	C49	0.698300	0.727700	0.362620
C501	C50	0.416500	0.700200	0.422800
C511	C51	0.386500	0.611500	0.385800
C521	C52	0.619100	0.555900	0.299410
C531	C53	0.404000	0.570300	0.258990
C541	C54	0.321000	0.676100	0.246630
C551	C55	0.141000	0.685700	0.206670
C561	C56	0.033700	0.589400	0.178050
C571	C57	0.109800	0.483700	0.190810
C581	C58	0.292700	0.474300	0.231150
C591	C59	0.834800	0.601400	0.134180
C601	C60	0.740000	0.410200	0.084110
C611	C61	0.071800	0.405300	0.028520
C621	C62	0.085900	0.508800	0.056640
N11	N1	0.113000	0.226100	0.591880
N21	N2	0.070800	0.371300	0.652410
N31	N3	0.376700	0.488600	0.908140
N41	N4	0.354200	0.656400	0.954070
N51	N5	0.613000	0.773900	0.408120
N61	N6	0.570800	0.628700	0.347590
N71	N7	0.876700	0.511400	0.091860
N81	N8	0.854200	0.343600	0.045930
O11	O1	0.304900	0.186900	0.484520
O21	O2	0.556700	0.035400	0.476380
O31	O3	0.084600	0.974800	0.414110
O41	O4	0.064000	0.917500	0.330560
O51	O5	0.830000	0.276700	0.241510
O61	O6	0.991900	0.104000	0.080940
O71	O7	0.380700	0.170000	0.049970
O81	O8	0.381600	0.761400	0.080660
O91	O9	0.338800	0.908400	0.035980
O101	O10	0.804900	0.813100	0.515480
O111	O11	0.056700	0.964600	0.523620
O121	O12	0.584600	0.025200	0.585890
O131	O13	0.564000	0.082500	0.669440
O141	O14	0.330000	0.723300	0.758490
O151	O15	0.491900	0.896000	0.919060
O161	O16	0.880700	0.830000	0.950030
O171	O17	0.881600	0.238600	0.919340
O181	O18	0.838800	0.091600	0.964020
