data_LIXMIQ_clean_PM
_symmetry_space_group_name_H-M	'P1'
_cell_length_a	9.407100
_cell_length_b	15.667200
_cell_length_c	16.056000
_cell_angle_alpha	111.237000
_cell_angle_beta	90.000000
_cell_angle_gamma	107.471000
_symmetry_Int_Tables_number 1

loop_
_symmetry_equiv_pos_as_xyz
'x,y,z'

loop_
_atom_site_label
_atom_site_type_symbol
_atom_site_fract_x
_atom_site_fract_y
_atom_site_fract_z
Gd11	Gd1	0.662050	0.006500	0.598080
Gd21	Gd2	0.655550	0.993500	0.901920
Gd31	Gd3	0.344450	0.006500	0.098080
Gd41	Gd4	0.337950	0.993500	0.401920
H11	H1	0.658100	0.716600	0.897900
H21	H2	0.649100	0.692000	0.738100
H31	H3	0.393500	0.712400	0.553600
H41	H4	0.646300	0.563800	0.266000
H51	H5	0.961300	0.236400	0.979400
H61	H6	0.398900	0.464400	0.906800
H71	H7	0.338500	0.754000	0.284900
H81	H8	0.042900	0.692000	0.238100
H91	H9	0.747400	0.410600	0.805800
H101	H10	0.350900	0.308000	0.261900
H111	H11	0.252600	0.589400	0.194200
H121	H12	0.882800	0.610000	0.937200
H131	H13	0.117200	0.390000	0.062800
H141	H14	0.318900	0.712400	0.053600
H151	H15	0.934500	0.535600	0.593200
H161	H16	0.353700	0.436200	0.734000
H171	H17	0.349400	0.463800	0.347000
H181	H18	0.941500	0.283400	0.602100
H191	H19	0.272800	0.390000	0.562800
H201	H20	0.726900	0.727800	0.357700
H211	H21	0.663200	0.410600	0.305800
H221	H22	0.957100	0.308000	0.761900
H231	H23	0.885600	0.536200	0.153000
H241	H24	0.727200	0.610000	0.437200
H251	H25	0.000900	0.727800	0.857700
H261	H26	0.038700	0.763600	0.020600
H271	H27	0.336800	0.589400	0.694200
H281	H28	0.341900	0.283400	0.102100
H291	H29	0.273100	0.272200	0.642300
H301	H30	0.415500	0.754000	0.784900
H311	H31	0.601100	0.535600	0.093200
H321	H32	0.606500	0.287600	0.446400
H331	H33	0.724900	0.763600	0.520600
H341	H34	0.058500	0.716600	0.397900
H351	H35	0.661500	0.246000	0.715100
H361	H36	0.082500	0.436200	0.234000
H371	H37	0.917500	0.563800	0.766000
H381	H38	0.275100	0.236400	0.479400
H391	H39	0.650600	0.536200	0.653000
H401	H40	0.681100	0.287600	0.946400
H411	H41	0.065500	0.464400	0.406800
H421	H42	0.584500	0.246000	0.215100
H431	H43	0.999100	0.272200	0.142300
H441	H44	0.114400	0.463800	0.847000
C11	C1	0.241500	0.580400	0.483600
C21	C2	0.914900	0.627000	0.997500
C31	C3	0.234100	0.730200	0.481300
C41	C4	0.068100	0.699800	0.825100
C51	C5	0.652800	0.382600	0.772600
C61	C6	0.474600	0.161200	0.992200
C71	C7	0.104200	0.682200	0.419100
C81	C8	0.120300	0.562000	0.723700
C91	C9	0.955100	0.418000	0.610400
C101	C10	0.109400	0.530800	0.423600
C111	C11	0.694300	0.320000	0.486500
C121	C12	0.044900	0.582000	0.389600
C131	C13	0.398700	0.715800	0.281900
C141	C14	0.334000	0.417600	0.372500
C151	C15	0.541800	0.757000	0.332300
C161	C16	0.578000	0.682200	0.919100
C171	C17	0.085100	0.373000	0.002500
C181	C18	0.916400	0.582400	0.127500
C191	C19	0.625700	0.320000	0.986500
C201	C20	0.661100	0.419600	0.016400
C211	C21	0.313400	0.838800	0.507800
C221	C22	0.665100	0.675600	0.678000
C231	C23	0.587800	0.861200	0.398100
C241	C24	0.458200	0.243000	0.667700
C251	C25	0.578600	0.469200	0.076400
C261	C26	0.412200	0.138800	0.601900
C271	C27	0.931900	0.300200	0.174900
C281	C28	0.130400	0.439600	0.962800
C291	C29	0.441700	0.562000	0.223700
C301	C30	0.338900	0.580400	0.983600
C311	C31	0.347200	0.617400	0.227400
C321	C32	0.989500	0.324400	0.822000
C331	C33	0.462900	0.418000	0.110400
C341	C34	0.942500	0.254400	0.861200
C351	C35	0.317100	0.715800	0.781900
C361	C36	0.758500	0.419600	0.516400
C371	C37	0.726600	0.138800	0.101900
C381	C38	0.270200	0.617400	0.727400
C391	C39	0.503900	0.269800	0.018700
C401	C40	0.017000	0.601400	0.770600
C411	C41	0.991900	0.281200	0.952500
C421	C42	0.215200	0.757000	0.832300
C431	C43	0.710700	0.718800	0.547500
C441	C44	0.584400	0.601400	0.270600
C451	C45	0.334900	0.324400	0.322000
C461	C46	0.157800	0.846000	0.192400
C471	C47	0.682900	0.284200	0.218100
C481	C48	0.368300	0.300200	0.674900
C491	C49	0.309200	0.439600	0.462800
C501	C50	0.784800	0.243000	0.167700
C511	C51	0.983000	0.398600	0.229400
C521	C52	0.890600	0.469200	0.576400
C531	C53	0.537100	0.582000	0.889600
C541	C54	0.083600	0.417600	0.872500
C551	C55	0.765900	0.269800	0.518700
C561	C56	0.010500	0.675600	0.178000
C571	C57	0.842200	0.154000	0.807600
C581	C58	0.311800	0.154000	0.307600
C591	C59	0.666000	0.582400	0.627500
C601	C60	0.895800	0.317800	0.580900
C611	C61	0.305700	0.680000	0.513500
C621	C62	0.712100	0.627000	0.497500
C631	C63	0.558300	0.438000	0.776300
C641	C64	0.601300	0.284200	0.718100
C651	C65	0.688100	0.745600	0.638800
C661	C66	0.287900	0.373000	0.502500
C671	C67	0.631700	0.699800	0.325100
C681	C68	0.869600	0.560400	0.037200
C691	C69	0.879700	0.438000	0.276300
C701	C70	0.688200	0.846000	0.692400
C711	C71	0.496100	0.730200	0.981300
C721	C72	0.421400	0.530800	0.923600
C731	C73	0.422000	0.317800	0.080900
C741	C74	0.008100	0.718800	0.047500
C751	C75	0.729800	0.382600	0.272600
C761	C76	0.273400	0.861200	0.898100
C771	C77	0.374300	0.680000	0.013500
C781	C78	0.525400	0.838800	0.007800
C791	C79	0.057500	0.745600	0.138800
C801	C80	0.415600	0.398600	0.729400
C811	C81	0.289300	0.281200	0.452500
C821	C82	0.686600	0.161200	0.492200
C831	C83	0.311900	0.254400	0.361200
C841	C84	0.690800	0.560400	0.537200
O11	O1	0.807900	0.110200	0.041300
O21	O2	0.916700	0.537800	0.328600
O31	O3	0.824000	0.092600	0.843000
O41	O4	0.251000	0.882600	0.474700
O51	O5	0.311800	0.533000	0.518100
O61	O6	0.221200	0.533000	0.018100
O71	O7	0.554600	0.122800	0.938800
O81	O8	0.176000	0.907400	0.157000
O91	O9	0.731400	0.907400	0.657000
O101	O10	0.650300	0.862600	0.772200
O111	O11	0.400100	0.914200	0.892500
O121	O12	0.368400	0.117400	0.025300
O131	O13	0.599900	0.085800	0.107500
O141	O14	0.192100	0.889800	0.958700
O151	O15	0.302300	0.110200	0.541300
O161	O16	0.514100	0.914200	0.392500
O171	O17	0.510700	0.000000	0.750000
O181	O18	0.631600	0.882600	0.974700
O191	O19	0.083300	0.462200	0.671400
O201	O20	0.431800	0.877200	0.561200
O211	O21	0.268600	0.092600	0.343000
O221	O22	0.445400	0.877200	0.061200
O231	O23	0.749000	0.117400	0.525300
O241	O24	0.688200	0.467000	0.481900
O251	O25	0.568200	0.122800	0.438800
O261	O26	0.778800	0.467000	0.981900
O271	O27	0.378900	0.462200	0.171400
O281	O28	0.621100	0.537800	0.828600
O291	O29	0.349700	0.137400	0.227800
O301	O30	0.485900	0.085800	0.607500
O311	O31	0.212300	0.862600	0.272200
O321	O32	0.489300	0.000000	0.250000
O331	O33	0.787700	0.137400	0.727800
O341	O34	0.697700	0.889800	0.458700
