data_LIXNIP_clean_PM
_symmetry_space_group_name_H-M	'P1'
_cell_length_a	9.096000
_cell_length_b	11.996000
_cell_length_c	15.144000
_cell_angle_alpha	90.000000
_cell_angle_beta	99.400000
_cell_angle_gamma	90.000000
_symmetry_Int_Tables_number 1

loop_
_symmetry_equiv_pos_as_xyz
'x,y,z'

loop_
_atom_site_label
_atom_site_type_symbol
_atom_site_fract_x
_atom_site_fract_y
_atom_site_fract_z
In11	In1	0.051100	0.917400	0.002900
K11	K1	0.444100	0.031800	0.364300
O11	O1	0.113700	0.026900	0.112600
O21	O2	0.280300	0.063000	0.232000
O31	O3	0.261200	0.894600	0.947900
O41	O4	0.440400	0.774800	0.927400
O51	O5	0.817600	0.979600	0.971700
O61	O6	0.594100	0.997300	0.012300
O71	O7	0.978500	0.779600	0.919100
O81	O8	0.819100	0.640700	0.889700
N11	N1	0.221100	0.808100	0.104400
N21	N2	0.901400	0.816100	0.090100
C11	C1	0.228500	0.002300	0.171000
C21	C2	0.311100	0.894100	0.160400
C31	C3	0.341400	0.807700	0.969900
C41	C4	0.315600	0.744000	0.051500
C51	C5	0.142200	0.734000	0.159900
C61	C6	0.996400	0.782700	0.176100
C71	C7	0.780100	0.891100	0.104700
C81	C8	0.722200	0.960600	0.023400
C91	C9	0.841600	0.718800	0.034800
C101	C10	0.881000	0.713900	0.940800
In21	In2	0.551100	0.417400	0.002900
K21	K2	0.944100	0.531800	0.364300
O91	O9	0.613700	0.526900	0.112600
O101	O10	0.780300	0.563000	0.232000
O111	O11	0.761200	0.394600	0.947900
O121	O12	0.940400	0.274800	0.927400
O131	O13	0.317600	0.479600	0.971700
O141	O14	0.094100	0.497300	0.012300
O151	O15	0.478500	0.279600	0.919100
O161	O16	0.319100	0.140700	0.889700
N31	N3	0.721100	0.308100	0.104400
N41	N4	0.401400	0.316100	0.090100
C111	C11	0.728500	0.502300	0.171000
C121	C12	0.811100	0.394100	0.160400
C131	C13	0.841400	0.307700	0.969900
C141	C14	0.815600	0.244000	0.051500
C151	C15	0.642200	0.234000	0.159900
C161	C16	0.496400	0.282700	0.176100
C171	C17	0.280100	0.391100	0.104700
C181	C18	0.222200	0.460600	0.023400
C191	C19	0.341600	0.218800	0.034800
C201	C20	0.381000	0.213900	0.940800
In31	In3	0.051100	0.082600	0.502900
K31	K3	0.444100	0.968200	0.864300
O171	O17	0.113700	0.973100	0.612600
O181	O18	0.280300	0.937000	0.732000
O191	O19	0.261200	0.105400	0.447900
O201	O20	0.440400	0.225200	0.427400
O211	O21	0.817600	0.020400	0.471700
O221	O22	0.594100	0.002700	0.512300
O231	O23	0.978500	0.220400	0.419100
O241	O24	0.819100	0.359300	0.389700
N51	N5	0.221100	0.191900	0.604400
N61	N6	0.901400	0.183900	0.590100
C211	C21	0.228500	0.997700	0.671000
C221	C22	0.311100	0.105900	0.660400
C231	C23	0.341400	0.192300	0.469900
C241	C24	0.315600	0.256000	0.551500
C251	C25	0.142200	0.266000	0.659900
C261	C26	0.996400	0.217300	0.676100
C271	C27	0.780100	0.108900	0.604700
C281	C28	0.722200	0.039400	0.523400
C291	C29	0.841600	0.281200	0.534800
C301	C30	0.881000	0.286100	0.440800
In41	In4	0.551100	0.582600	0.502900
K41	K4	0.944100	0.468200	0.864300
O251	O25	0.613700	0.473100	0.612600
O261	O26	0.780300	0.437000	0.732000
O271	O27	0.761200	0.605400	0.447900
O281	O28	0.940400	0.725200	0.427400
O291	O29	0.317600	0.520400	0.471700
O301	O30	0.094100	0.502700	0.512300
O311	O31	0.478500	0.720400	0.419100
O321	O32	0.319100	0.859300	0.389700
N71	N7	0.721100	0.691900	0.604400
N81	N8	0.401400	0.683900	0.590100
C311	C31	0.728500	0.497700	0.671000
C321	C32	0.811100	0.605900	0.660400
C331	C33	0.841400	0.692300	0.469900
C341	C34	0.815600	0.756000	0.551500
C351	C35	0.642200	0.766000	0.659900
C361	C36	0.496400	0.717300	0.676100
C371	C37	0.280100	0.608900	0.604700
C381	C38	0.222200	0.539400	0.523400
C391	C39	0.341600	0.781200	0.534800
C401	C40	0.381000	0.786100	0.440800
