data_LOBHAM_clean_PM
_symmetry_space_group_name_H-M	'P1'
_cell_length_a	13.532800
_cell_length_b	13.911100
_cell_length_c	17.763400
_cell_angle_alpha	111.292000
_cell_angle_beta	90.000000
_cell_angle_gamma	90.000000
_symmetry_Int_Tables_number 1

loop_
_symmetry_equiv_pos_as_xyz
'x,y,z'

loop_
_atom_site_label
_atom_site_type_symbol
_atom_site_fract_x
_atom_site_fract_y
_atom_site_fract_z
Ni11	Ni1	0.017110	0.738550	0.922760
Ni21	Ni2	0.517110	0.261450	0.577240
Ni31	Ni3	0.982890	0.261450	0.077240
Ni41	Ni4	0.482890	0.738550	0.422760
Ni51	Ni5	0.000000	0.000000	0.000000
Ni61	Ni6	0.500000	0.000000	0.500000
H11	H1	0.139000	0.860000	0.002100
H21	H2	0.135000	0.864000	0.923000
H31	H3	0.885500	0.702200	0.068500
H41	H4	0.858500	0.005400	0.158200
H51	H5	0.822400	0.899800	0.258200
H61	H6	0.810700	0.778700	0.213500
H71	H7	0.664200	0.802500	0.151700
H81	H8	0.677500	0.924200	0.189800
H91	H9	0.631800	0.013800	0.343500
H101	H10	0.605700	0.711500	0.252900
H111	H11	0.109500	0.537500	0.047700
H121	H12	0.271800	0.529900	0.236100
H131	H13	0.260500	0.789700	0.185000
H141	H14	0.639000	0.140000	0.497900
H151	H15	0.635000	0.136000	0.577000
H161	H16	0.385500	0.297800	0.431500
H171	H17	0.358500	0.994600	0.341800
H181	H18	0.322400	0.100200	0.241800
H191	H19	0.310700	0.221300	0.286500
H201	H20	0.164200	0.197500	0.348300
H211	H21	0.177500	0.075800	0.310200
H221	H22	0.131800	0.986200	0.156500
H231	H23	0.105700	0.288500	0.247100
H241	H24	0.609500	0.462500	0.452300
H251	H25	0.771800	0.470100	0.263900
H261	H26	0.760500	0.210300	0.315000
H271	H27	0.861000	0.140000	0.997900
H281	H28	0.865000	0.136000	0.077000
H291	H29	0.114500	0.297800	0.931500
H301	H30	0.141500	0.994600	0.841800
H311	H31	0.177600	0.100200	0.741800
H321	H32	0.189300	0.221300	0.786500
H331	H33	0.335800	0.197500	0.848300
H341	H34	0.322500	0.075800	0.810200
H351	H35	0.368200	0.986200	0.656500
H361	H36	0.394300	0.288500	0.747100
H371	H37	0.890500	0.462500	0.952300
H381	H38	0.728200	0.470100	0.763900
H391	H39	0.739500	0.210300	0.815000
H401	H40	0.361000	0.860000	0.502100
H411	H41	0.365000	0.864000	0.423000
H421	H42	0.614500	0.702200	0.568500
H431	H43	0.641500	0.005400	0.658200
H441	H44	0.677600	0.899800	0.758200
H451	H45	0.689300	0.778700	0.713500
H461	H46	0.835800	0.802500	0.651700
H471	H47	0.822500	0.924200	0.689800
H481	H48	0.868200	0.013800	0.843500
H491	H49	0.894300	0.711500	0.752900
H501	H50	0.390500	0.537500	0.547700
H511	H51	0.228200	0.529900	0.736100
H521	H52	0.239500	0.789700	0.685000
C11	C1	0.889900	0.772320	0.075280
C21	C2	0.875100	0.938000	0.124210
C31	C3	0.798600	0.845800	0.208780
C41	C4	0.689100	0.859600	0.198780
C51	C5	0.615700	0.945700	0.337330
C61	C6	0.601500	0.780800	0.287870
C71	C7	0.184500	0.670740	0.105780
C81	C8	0.152540	0.570160	0.091000
C91	C9	0.184210	0.518380	0.140240
C101	C10	0.247380	0.566550	0.204750
C111	C11	0.274400	0.669190	0.222870
C121	C12	0.242490	0.720470	0.172960
C131	C13	0.153300	0.725700	0.050610
C141	C14	0.150000	0.409200	0.122800
C151	C15	0.333300	0.725990	0.296730
C161	C16	0.389900	0.227680	0.424720
C171	C17	0.375100	0.062000	0.375790
C181	C18	0.298600	0.154200	0.291220
C191	C19	0.189100	0.140400	0.301220
C201	C20	0.115700	0.054300	0.162670
C211	C21	0.101500	0.219200	0.212130
C221	C22	0.684500	0.329260	0.394220
C231	C23	0.652540	0.429840	0.409000
C241	C24	0.684210	0.481620	0.359760
C251	C25	0.747380	0.433450	0.295250
C261	C26	0.774400	0.330810	0.277130
C271	C27	0.742490	0.279530	0.327040
C281	C28	0.653300	0.274300	0.449390
C291	C29	0.650000	0.590800	0.377200
C301	C30	0.833300	0.274010	0.203270
C311	C31	0.110100	0.227680	0.924720
C321	C32	0.124900	0.062000	0.875790
C331	C33	0.201400	0.154200	0.791220
C341	C34	0.310900	0.140400	0.801220
C351	C35	0.384300	0.054300	0.662670
C361	C36	0.398500	0.219200	0.712130
C371	C37	0.815500	0.329260	0.894220
C381	C38	0.847460	0.429840	0.909000
C391	C39	0.815790	0.481620	0.859760
C401	C40	0.752620	0.433450	0.795250
C411	C41	0.725600	0.330810	0.777130
C421	C42	0.757510	0.279530	0.827040
C431	C43	0.846700	0.274300	0.949390
C441	C44	0.850000	0.590800	0.877200
C451	C45	0.666700	0.274010	0.703270
C461	C46	0.610100	0.772320	0.575280
C471	C47	0.624900	0.938000	0.624210
C481	C48	0.701400	0.845800	0.708780
C491	C49	0.810900	0.859600	0.698780
C501	C50	0.884300	0.945700	0.837330
C511	C51	0.898500	0.780800	0.787870
C521	C52	0.315500	0.670740	0.605780
C531	C53	0.347460	0.570160	0.591000
C541	C54	0.315790	0.518380	0.640240
C551	C55	0.252620	0.566550	0.704750
C561	C56	0.225600	0.669190	0.722870
C571	C57	0.257510	0.720470	0.672960
C581	C58	0.346700	0.725700	0.550610
C591	C59	0.350000	0.409200	0.622800
C601	C60	0.166700	0.725990	0.796730
N11	N1	0.933110	0.808030	0.025230
N21	N2	0.923510	0.914100	0.056360
N31	N3	0.852300	0.851620	0.138560
N41	N4	0.636880	0.861910	0.271740
N51	N5	0.569550	0.918760	0.391150
N61	N6	0.560400	0.812780	0.359160
N71	N7	0.433110	0.191970	0.474770
N81	N8	0.423510	0.085900	0.443640
N91	N9	0.352300	0.148380	0.361440
N101	N10	0.136880	0.138090	0.228260
N111	N11	0.069550	0.081240	0.108850
N121	N12	0.060400	0.187220	0.140840
N131	N13	0.066890	0.191970	0.974770
N141	N14	0.076490	0.085900	0.943640
N151	N15	0.147700	0.148380	0.861440
N161	N16	0.363120	0.138090	0.728260
N171	N17	0.430450	0.081240	0.608850
N181	N18	0.439600	0.187220	0.640840
N191	N19	0.566890	0.808030	0.525230
N201	N20	0.576490	0.914100	0.556360
N211	N21	0.647700	0.851620	0.638560
N221	N22	0.863120	0.861910	0.771740
N231	N23	0.930450	0.918760	0.891150
N241	N24	0.939600	0.812780	0.859160
O11	O1	0.099690	0.879700	0.966220
O21	O2	0.102220	0.676670	0.990080
O31	O3	0.180250	0.818930	0.069660
O41	O4	0.058550	0.394360	0.112380
O51	O5	0.212640	0.342750	0.118700
O61	O6	0.390640	0.675730	0.324280
O71	O7	0.319600	0.822990	0.328100
O81	O8	0.599690	0.120300	0.533780
O91	O9	0.602220	0.323330	0.509920
O101	O10	0.680250	0.181070	0.430340
O111	O11	0.558550	0.605640	0.387620
O121	O12	0.712640	0.657250	0.381300
O131	O13	0.890640	0.324270	0.175720
O141	O14	0.819600	0.177010	0.171900
O151	O15	0.900310	0.120300	0.033780
O161	O16	0.897780	0.323330	0.009920
O171	O17	0.819750	0.181070	0.930340
O181	O18	0.941450	0.605640	0.887620
O191	O19	0.787360	0.657250	0.881300
O201	O20	0.609360	0.324270	0.675720
O211	O21	0.680400	0.177010	0.671900
O221	O22	0.400310	0.879700	0.466220
O231	O23	0.397780	0.676670	0.490080
O241	O24	0.319750	0.818930	0.569660
O251	O25	0.441450	0.394360	0.612380
O261	O26	0.287360	0.342750	0.618700
O271	O27	0.109360	0.675730	0.824280
O281	O28	0.180400	0.822990	0.828100
