data_LODKIA_clean_PM
_symmetry_space_group_name_H-M	'P1'
_cell_length_a	9.154900
_cell_length_b	15.408600
_cell_length_c	25.451900
_cell_angle_alpha	80.776100
_cell_angle_beta	79.639200
_cell_angle_gamma	72.718300
_symmetry_Int_Tables_number 1

loop_
_symmetry_equiv_pos_as_xyz
'x,y,z'

loop_
_atom_site_label
_atom_site_type_symbol
_atom_site_fract_x
_atom_site_fract_y
_atom_site_fract_z
Cd11	Cd1	0.153230	0.376550	0.495030
Cd21	Cd2	0.024810	0.123450	0.004970
Cd31	Cd3	0.846770	0.623450	0.504970
Cd41	Cd4	0.975190	0.876550	0.995030
H11	H1	0.993300	0.210300	0.661900
H21	H2	0.630000	0.811200	0.739400
H31	H3	0.706400	0.730100	0.867900
H41	H4	0.456400	0.999100	0.690500
H51	H5	0.128700	0.079700	0.821700
H61	H6	0.293600	0.269900	0.132100
H71	H7	0.871300	0.920300	0.178300
H81	H8	0.819400	0.311200	0.239400
H91	H9	0.872000	0.230100	0.165900
H101	H10	0.146000	0.500900	0.809500
H111	H11	0.304400	0.769900	0.632100
H121	H12	0.566500	0.216700	0.172100
H131	H13	0.044700	0.716700	0.672100
H141	H14	0.558400	0.901300	0.387100
H151	H15	0.846800	0.598700	0.112900
H161	H16	0.865500	0.289700	0.838100
H171	H17	0.153200	0.401300	0.887100
H181	H18	0.794500	0.142800	0.296400
H191	H19	0.233700	0.357200	0.203600
H201	H20	0.766300	0.642800	0.796400
H211	H21	0.433500	0.783300	0.827900
H221	H22	0.128000	0.769900	0.834100
H231	H23	0.134500	0.710300	0.161900
H241	H24	0.955300	0.283300	0.327900
H251	H25	0.441600	0.098700	0.612900
H261	H26	0.854000	0.499100	0.190500
H271	H27	0.370000	0.188800	0.260600
H281	H28	0.987200	0.887600	0.259600
H291	H29	0.695600	0.230100	0.367900
H301	H30	0.543600	0.000900	0.309500
H311	H31	0.134400	0.612400	0.240400
H321	H32	0.030100	0.420300	0.678300
H331	H33	0.006700	0.789700	0.338100
H341	H34	0.180600	0.688800	0.760600
H351	H35	0.969900	0.579700	0.321700
H361	H36	0.268000	0.269900	0.334100
H371	H37	0.012800	0.112400	0.740400
H381	H38	0.732000	0.730100	0.665900
H391	H39	0.865600	0.387600	0.759600
H401	H40	0.205500	0.857200	0.703600
C11	C1	0.923500	0.331600	0.832400
C21	C2	0.054200	0.530400	0.626800
C31	C3	0.401900	0.308300	0.406900
C41	C4	0.371000	0.779400	0.652800
C51	C5	0.011600	0.608300	0.722500
C61	C6	0.882900	0.808300	0.906900
C71	C7	0.338300	0.820900	0.927100
C81	C8	0.086300	0.679100	0.572900
C91	C9	0.945800	0.469600	0.373200
C101	C10	0.661700	0.179100	0.072900
C111	C11	0.763400	0.955100	0.276300
C121	C12	0.914100	0.304300	0.217500
C131	C13	0.017700	0.270200	0.921800
C141	C14	0.630300	0.157100	0.173100
C151	C15	0.994800	0.544900	0.223700
C161	C16	0.625700	0.754800	0.673400
C171	C17	0.354000	0.101700	0.638300
C181	C18	0.592300	0.157400	0.271000
C191	C19	0.085900	0.695700	0.782500
C201	C20	0.810500	0.980700	0.176900
C211	C21	0.987700	0.482900	0.275500
C221	C22	0.912500	0.831600	0.332400
C231	C23	0.564100	0.804300	0.717500
C241	C24	0.076500	0.668400	0.167600
C251	C25	0.217300	0.165100	0.628900
C261	C26	0.161400	0.330700	0.196500
C271	C27	0.087200	0.242400	0.140600
C281	C28	0.657600	0.108300	0.222500
C291	C29	0.075000	0.485400	0.576800
C301	C30	0.988700	0.665100	0.128900
C311	C31	0.209700	0.229800	0.578200
C321	C32	0.253900	0.982900	0.775500
C331	C33	0.005200	0.455100	0.776300
C341	C34	0.369700	0.842900	0.826900
C351	C35	0.862800	0.985400	0.076800
C361	C36	0.968100	0.519300	0.323100
C371	C37	0.077200	0.609000	0.214400
C381	C38	0.746100	0.017100	0.224500
C391	C39	0.598100	0.691700	0.593100
C401	C40	0.906000	0.601700	0.138300
C411	C41	0.342400	0.891700	0.777500
C421	C42	0.988400	0.391700	0.277500
C431	C43	0.629000	0.220600	0.347200
C441	C44	0.782700	0.834900	0.371100
C451	C45	0.407700	0.842600	0.729000
C461	C46	0.922800	0.391000	0.785600
C471	C47	0.011300	0.334900	0.871100
C481	C48	0.979300	0.657400	0.771000
C491	C49	0.637000	0.958100	0.314900
C501	C50	0.137200	0.014600	0.923200
C511	C51	0.060500	0.620700	0.624700
C521	C52	0.189500	0.019300	0.823100
C531	C53	0.788600	0.030400	0.126800
C541	C54	0.363000	0.041900	0.685100
C551	C55	0.838600	0.669300	0.803500
C561	C56	0.435900	0.195700	0.282500
C571	C57	0.910000	0.541900	0.185100
C581	C58	0.236600	0.044900	0.723700
C591	C59	0.912800	0.757600	0.859400
C601	C60	0.031900	0.480700	0.676900
C611	C61	0.305900	0.879300	0.875300
C621	C62	0.020700	0.342600	0.229000
C631	C63	0.982300	0.729800	0.078200
C641	C64	0.039500	0.657100	0.673100
C651	C65	0.094000	0.398300	0.861700
C661	C66	0.099400	0.109000	0.714400
C671	C67	0.087500	0.168400	0.667600
C681	C68	0.946100	0.254800	0.173400
C691	C69	0.470200	0.257600	0.359400
C701	C70	0.211400	0.969600	0.873200
C711	C71	0.913700	0.320900	0.427100
C721	C72	0.374300	0.245200	0.326600
C731	C73	0.196800	0.279400	0.152800
C741	C74	0.900600	0.891000	0.285600
C751	C75	0.925000	0.514600	0.423200
C761	C76	0.694100	0.120700	0.124700
C771	C77	0.939500	0.379300	0.375300
C781	C78	0.960500	0.342900	0.326900
C791	C79	0.803200	0.720600	0.847200
C801	C80	0.529800	0.742400	0.640600
C811	C81	0.090000	0.458100	0.814900
C821	C82	0.790300	0.770200	0.421800
C831	C83	0.117100	0.191700	0.093100
C841	C84	0.053900	0.745200	0.826600
C851	C85	0.311400	0.830700	0.696500
C861	C86	0.012300	0.517100	0.724500
C871	C87	0.688600	0.169300	0.303500
C881	C88	0.646000	0.898300	0.361700
O11	O1	0.929070	0.348370	0.470490
O21	O2	0.043910	0.517720	0.441260
O31	O3	0.517400	0.659600	0.571000
O41	O4	0.747930	0.151630	0.029510
O51	O5	0.214820	0.052930	0.943230
O61	O6	0.077270	0.277190	0.566870
O71	O7	0.260320	0.315480	0.422480
O81	O8	0.883800	0.736900	0.048500
O91	O9	0.739680	0.684520	0.577520
O101	O10	0.789020	0.552930	0.443230
O111	O11	0.116200	0.263100	0.951500
O121	O12	0.252000	0.159600	0.071000
O131	O13	0.119900	0.751330	0.572470
O141	O14	0.921330	0.222810	0.933130
O151	O15	0.998280	0.184520	0.077520
O161	O16	0.922730	0.722810	0.433130
O171	O17	0.070930	0.651630	0.529510
O181	O18	0.556300	0.251330	0.072470
O191	O19	0.785180	0.947070	0.056770
O201	O20	0.330800	0.236900	0.548500
O211	O21	0.078670	0.777190	0.066870
O221	O22	0.748000	0.840400	0.929000
O231	O23	0.482600	0.340400	0.429000
O241	O24	0.880100	0.248670	0.427530
O251	O25	0.956090	0.482280	0.558740
O261	O26	0.252070	0.848370	0.970490
O271	O27	0.997110	0.017720	0.941260
O281	O28	0.669200	0.763100	0.451500
O291	O29	0.001720	0.815480	0.922480
O301	O30	0.443700	0.748670	0.927530
O311	O31	0.210980	0.447070	0.556770
O321	O32	0.002890	0.982280	0.058740
