data_LOGBEO_clean_PM
_symmetry_space_group_name_H-M	'P1'
_cell_length_a	18.691000
_cell_length_b	18.691000
_cell_length_c	9.423000
_cell_angle_alpha	90.000000
_cell_angle_beta	90.000000
_cell_angle_gamma	90.000000
_symmetry_Int_Tables_number 1

loop_
_symmetry_equiv_pos_as_xyz
'x,y,z'

loop_
_atom_site_label
_atom_site_type_symbol
_atom_site_fract_x
_atom_site_fract_y
_atom_site_fract_z
P11	P1	0.064890	0.557200	0.335580
O11	O1	0.059260	0.624050	0.245100
O21	O2	0.074940	0.580910	0.489100
O31	O3	0.128780	0.512580	0.293800
O41	O4	0.995390	0.516410	0.321400
Al11	Al1	0.065210	0.665480	0.080490
P21	P2	0.949660	0.666410	0.839780
O51	O5	0.985240	0.656440	0.983600
O61	O6	0.997130	0.637110	0.721600
O71	O7	0.878150	0.629160	0.842600
O81	O8	0.937420	0.744610	0.808800
Al21	Al2	0.163930	0.455810	0.156050
P31	P3	0.165820	0.567330	0.904510
O91	O9	0.154100	0.499950	0.988600
O101	O10	0.138020	0.632610	0.983000
O111	O11	0.130090	0.560640	0.760900
O121	O12	0.244570	0.580170	0.877700
Al31	Al3	0.050650	0.565770	0.665410
P41	P4	0.435110	0.942800	0.335580
O131	O13	0.440740	0.875950	0.245100
O141	O14	0.425060	0.919090	0.489100
O151	O15	0.371220	0.987420	0.293800
O161	O16	0.504610	0.983590	0.321400
Al41	Al4	0.434790	0.834520	0.080490
P51	P5	0.550340	0.833590	0.839780
O171	O17	0.514760	0.843560	0.983600
O181	O18	0.502870	0.862890	0.721600
O191	O19	0.621850	0.870840	0.842600
O201	O20	0.562580	0.755390	0.808800
Al51	Al5	0.336070	0.044190	0.156050
P61	P6	0.334180	0.932670	0.904510
O211	O21	0.345900	0.000050	0.988600
O221	O22	0.361980	0.867390	0.983000
O231	O23	0.369910	0.939360	0.760900
O241	O24	0.255430	0.919830	0.877700
Al61	Al6	0.449350	0.934230	0.665410
P71	P7	0.942800	0.064890	0.335580
O251	O25	0.875950	0.059260	0.245100
O261	O26	0.919090	0.074940	0.489100
O271	O27	0.987420	0.128780	0.293800
O281	O28	0.983590	0.995390	0.321400
Al71	Al7	0.834520	0.065210	0.080490
P81	P8	0.833590	0.949660	0.839780
O291	O29	0.843560	0.985240	0.983600
O301	O30	0.862890	0.997130	0.721600
O311	O31	0.870840	0.878150	0.842600
O321	O32	0.755390	0.937420	0.808800
Al81	Al8	0.044190	0.163930	0.156050
P91	P9	0.932670	0.165820	0.904510
O331	O33	0.000050	0.154100	0.988600
O341	O34	0.867390	0.138020	0.983000
O351	O35	0.939360	0.130090	0.760900
O361	O36	0.919830	0.244570	0.877700
Al91	Al9	0.934230	0.050650	0.665410
P101	P10	0.557200	0.435110	0.335580
O371	O37	0.624050	0.440740	0.245100
O381	O38	0.580910	0.425060	0.489100
O391	O39	0.512580	0.371220	0.293800
O401	O40	0.516410	0.504610	0.321400
Al101	Al10	0.665480	0.434790	0.080490
P111	P11	0.666410	0.550340	0.839780
O411	O41	0.656440	0.514760	0.983600
O421	O42	0.637110	0.502870	0.721600
O431	O43	0.629160	0.621850	0.842600
O441	O44	0.744610	0.562580	0.808800
Al111	Al11	0.455810	0.336070	0.156050
P121	P12	0.567330	0.334180	0.904510
O451	O45	0.499950	0.345900	0.988600
O461	O46	0.632610	0.361980	0.983000
O471	O47	0.560640	0.369910	0.760900
O481	O48	0.580170	0.255430	0.877700
Al121	Al12	0.565770	0.449350	0.665410
P131	P13	0.935110	0.442800	0.664420
O491	O49	0.940740	0.375950	0.754900
O501	O50	0.925060	0.419090	0.510900
O511	O51	0.871220	0.487420	0.706200
O521	O52	0.004610	0.483590	0.678600
Al131	Al13	0.934790	0.334520	0.919510
P141	P14	0.050340	0.333590	0.160220
O531	O53	0.014760	0.343560	0.016400
O541	O54	0.002870	0.362890	0.278400
O551	O55	0.121850	0.370840	0.157400
O561	O56	0.062580	0.255390	0.191200
Al141	Al14	0.836070	0.544190	0.843950
P151	P15	0.834180	0.432670	0.095490
O571	O57	0.845900	0.500050	0.011400
O581	O58	0.861980	0.367390	0.017000
O591	O59	0.869910	0.439360	0.239100
O601	O60	0.755430	0.419830	0.122300
Al151	Al15	0.949350	0.434230	0.334590
P161	P16	0.564890	0.057200	0.664420
O611	O61	0.559260	0.124050	0.754900
O621	O62	0.574940	0.080910	0.510900
O631	O63	0.628780	0.012580	0.706200
O641	O64	0.495390	0.016410	0.678600
Al161	Al16	0.565210	0.165480	0.919510
P171	P17	0.449660	0.166410	0.160220
O651	O65	0.485240	0.156440	0.016400
O661	O66	0.497130	0.137110	0.278400
O671	O67	0.378150	0.129160	0.157400
O681	O68	0.437420	0.244610	0.191200
Al171	Al17	0.663930	0.955810	0.843950
P181	P18	0.665820	0.067330	0.095490
O691	O69	0.654100	0.999950	0.011400
O701	O70	0.638020	0.132610	0.017000
O711	O71	0.630090	0.060640	0.239100
O721	O72	0.744570	0.080170	0.122300
Al181	Al18	0.550650	0.065770	0.334590
P191	P19	0.057200	0.935110	0.664420
O731	O73	0.124050	0.940740	0.754900
O741	O74	0.080910	0.925060	0.510900
O751	O75	0.012580	0.871220	0.706200
O761	O76	0.016410	0.004610	0.678600
Al191	Al19	0.165480	0.934790	0.919510
P201	P20	0.166410	0.050340	0.160220
O771	O77	0.156440	0.014760	0.016400
O781	O78	0.137110	0.002870	0.278400
O791	O79	0.129160	0.121850	0.157400
O801	O80	0.244610	0.062580	0.191200
Al201	Al20	0.955810	0.836070	0.843950
P211	P21	0.067330	0.834180	0.095490
O811	O81	0.999950	0.845900	0.011400
O821	O82	0.132610	0.861980	0.017000
O831	O83	0.060640	0.869910	0.239100
O841	O84	0.080170	0.755430	0.122300
Al211	Al21	0.065770	0.949350	0.334590
P221	P22	0.442800	0.564890	0.664420
O851	O85	0.375950	0.559260	0.754900
O861	O86	0.419090	0.574940	0.510900
O871	O87	0.487420	0.628780	0.706200
O881	O88	0.483590	0.495390	0.678600
Al221	Al22	0.334520	0.565210	0.919510
P231	P23	0.333590	0.449660	0.160220
O891	O89	0.343560	0.485240	0.016400
O901	O90	0.362890	0.497130	0.278400
O911	O91	0.370840	0.378150	0.157400
O921	O92	0.255390	0.437420	0.191200
Al231	Al23	0.544190	0.663930	0.843950
P241	P24	0.432670	0.665820	0.095490
O931	O93	0.500050	0.654100	0.011400
O941	O94	0.367390	0.638020	0.017000
O951	O95	0.439360	0.630090	0.239100
O961	O96	0.419830	0.744570	0.122300
Al241	Al24	0.434230	0.550650	0.334590
