data_LOGBAK_clean_PM
_symmetry_space_group_name_H-M	'P1'
_cell_length_a	18.740000
_cell_length_b	18.740000
_cell_length_c	9.439000
_cell_angle_alpha	90.000000
_cell_angle_beta	90.000000
_cell_angle_gamma	90.000000
_symmetry_Int_Tables_number 1

loop_
_symmetry_equiv_pos_as_xyz
'x,y,z'

loop_
_atom_site_label
_atom_site_type_symbol
_atom_site_fract_x
_atom_site_fract_y
_atom_site_fract_z
Al11	Al1	0.066100	0.551310	0.335000
O11	O1	0.060200	0.627800	0.239600
O21	O2	0.080300	0.574500	0.505800
O31	O3	0.137000	0.500200	0.282400
O41	O4	0.987100	0.505100	0.319800
P11	P1	0.067500	0.666100	0.092400
Al21	Al2	0.954740	0.664170	0.842900
O51	O5	0.999200	0.654400	0.006000
O61	O6	0.009700	0.630600	0.709100
O71	O7	0.873500	0.621400	0.844500
O81	O8	0.936100	0.752400	0.808600
P21	P2	0.166300	0.451000	0.159600
Al31	Al3	0.165600	0.566000	0.916700
O91	O9	0.156000	0.487300	0.011400
O101	O10	0.133200	0.636500	0.009600
O111	O11	0.123400	0.559900	0.756900
O121	O12	0.080000	0.747000	0.125500
P31	P3	0.055440	0.565100	0.663900
Al41	Al4	0.433900	0.948690	0.335000
O131	O13	0.439800	0.872200	0.239600
O141	O14	0.419700	0.925500	0.505800
O151	O15	0.363000	0.999800	0.282400
O161	O16	0.512900	0.994900	0.319800
P41	P4	0.432500	0.833900	0.092400
Al51	Al5	0.545260	0.835830	0.842900
O171	O17	0.500800	0.845600	0.006000
O181	O18	0.490300	0.869400	0.709100
O191	O19	0.626500	0.878600	0.844500
O201	O20	0.563900	0.747600	0.808600
P51	P5	0.333700	0.049000	0.159600
Al61	Al6	0.334400	0.934000	0.916700
O211	O21	0.344000	0.012700	0.011400
O221	O22	0.366800	0.863500	0.009600
O231	O23	0.376600	0.940100	0.756900
O241	O24	0.420000	0.753000	0.125500
P61	P6	0.444560	0.934900	0.663900
Al71	Al7	0.948690	0.066100	0.335000
O251	O25	0.872200	0.060200	0.239600
O261	O26	0.925500	0.080300	0.505800
O271	O27	0.999800	0.137000	0.282400
O281	O28	0.994900	0.987100	0.319800
P71	P7	0.833900	0.067500	0.092400
Al81	Al8	0.835830	0.954740	0.842900
O291	O29	0.845600	0.999200	0.006000
O301	O30	0.869400	0.009700	0.709100
O311	O31	0.878600	0.873500	0.844500
O321	O32	0.747600	0.936100	0.808600
P81	P8	0.049000	0.166300	0.159600
Al91	Al9	0.934000	0.165600	0.916700
O331	O33	0.012700	0.156000	0.011400
O341	O34	0.863500	0.133200	0.009600
O351	O35	0.940100	0.123400	0.756900
O361	O36	0.753000	0.080000	0.125500
P91	P9	0.934900	0.055440	0.663900
Al101	Al10	0.551310	0.433900	0.335000
O371	O37	0.627800	0.439800	0.239600
O381	O38	0.574500	0.419700	0.505800
O391	O39	0.500200	0.363000	0.282400
O401	O40	0.505100	0.512900	0.319800
P101	P10	0.666100	0.432500	0.092400
Al111	Al11	0.664170	0.545260	0.842900
O411	O41	0.654400	0.500800	0.006000
O421	O42	0.630600	0.490300	0.709100
O431	O43	0.621400	0.626500	0.844500
O441	O44	0.752400	0.563900	0.808600
P111	P11	0.451000	0.333700	0.159600
Al121	Al12	0.566000	0.334400	0.916700
O451	O45	0.487300	0.344000	0.011400
O461	O46	0.636500	0.366800	0.009600
O471	O47	0.559900	0.376600	0.756900
O481	O48	0.747000	0.420000	0.125500
P121	P12	0.565100	0.444560	0.663900
Al131	Al13	0.933900	0.448690	0.665000
O491	O49	0.939800	0.372200	0.760400
O501	O50	0.919700	0.425500	0.494200
O511	O51	0.863000	0.499800	0.717600
O521	O52	0.012900	0.494900	0.680200
P131	P13	0.932500	0.333900	0.907600
Al141	Al14	0.045260	0.335830	0.157100
O531	O53	0.000800	0.345600	0.994000
O541	O54	0.990300	0.369400	0.290900
O551	O55	0.126500	0.378600	0.155500
O561	O56	0.063900	0.247600	0.191400
P141	P14	0.833700	0.549000	0.840400
Al151	Al15	0.834400	0.434000	0.083300
O571	O57	0.844000	0.512700	0.988600
O581	O58	0.866800	0.363500	0.990400
O591	O59	0.876600	0.440100	0.243100
O601	O60	0.920000	0.253000	0.874500
P151	P15	0.944560	0.434900	0.336100
Al161	Al16	0.566100	0.051310	0.665000
O611	O61	0.560200	0.127800	0.760400
O621	O62	0.580300	0.074500	0.494200
O631	O63	0.637000	0.000200	0.717600
O641	O64	0.487100	0.005100	0.680200
P161	P16	0.567500	0.166100	0.907600
Al171	Al17	0.454740	0.164170	0.157100
O651	O65	0.499200	0.154400	0.994000
O661	O66	0.509700	0.130600	0.290900
O671	O67	0.373500	0.121400	0.155500
O681	O68	0.436100	0.252400	0.191400
P171	P17	0.666300	0.951000	0.840400
Al181	Al18	0.665600	0.066000	0.083300
O691	O69	0.656000	0.987300	0.988600
O701	O70	0.633200	0.136500	0.990400
O711	O71	0.623400	0.059900	0.243100
O721	O72	0.580000	0.247000	0.874500
P181	P18	0.555440	0.065100	0.336100
Al191	Al19	0.051310	0.933900	0.665000
O731	O73	0.127800	0.939800	0.760400
O741	O74	0.074500	0.919700	0.494200
O751	O75	0.000200	0.863000	0.717600
O761	O76	0.005100	0.012900	0.680200
P191	P19	0.166100	0.932500	0.907600
Al201	Al20	0.164170	0.045260	0.157100
O771	O77	0.154400	0.000800	0.994000
O781	O78	0.130600	0.990300	0.290900
O791	O79	0.121400	0.126500	0.155500
O801	O80	0.252400	0.063900	0.191400
P201	P20	0.951000	0.833700	0.840400
Al211	Al21	0.066000	0.834400	0.083300
O811	O81	0.987300	0.844000	0.988600
O821	O82	0.136500	0.866800	0.990400
O831	O83	0.059900	0.876600	0.243100
O841	O84	0.247000	0.920000	0.874500
P211	P21	0.065100	0.944560	0.336100
Al221	Al22	0.448690	0.566100	0.665000
O851	O85	0.372200	0.560200	0.760400
O861	O86	0.425500	0.580300	0.494200
O871	O87	0.499800	0.637000	0.717600
O881	O88	0.494900	0.487100	0.680200
P221	P22	0.333900	0.567500	0.907600
Al231	Al23	0.335830	0.454740	0.157100
O891	O89	0.345600	0.499200	0.994000
O901	O90	0.369400	0.509700	0.290900
O911	O91	0.378600	0.373500	0.155500
O921	O92	0.247600	0.436100	0.191400
P231	P23	0.549000	0.666300	0.840400
Al241	Al24	0.434000	0.665600	0.083300
O931	O93	0.512700	0.656000	0.988600
O941	O94	0.363500	0.633200	0.990400
O951	O95	0.440100	0.623400	0.243100
O961	O96	0.253000	0.580000	0.874500
P241	P24	0.434900	0.555440	0.336100
