data_LOJFUL_clean_PM
_symmetry_space_group_name_H-M	'P1'
_cell_length_a	16.315000
_cell_length_b	17.405000
_cell_length_c	18.410000
_cell_angle_alpha	89.592000
_cell_angle_beta	84.330000
_cell_angle_gamma	82.521000
_symmetry_Int_Tables_number 1

loop_
_symmetry_equiv_pos_as_xyz
'x,y,z'

loop_
_atom_site_label
_atom_site_type_symbol
_atom_site_fract_x
_atom_site_fract_y
_atom_site_fract_z
Na11	Na1	0.088780	0.050660	0.000200
Na21	Na2	0.911220	0.949340	0.999800
Zn11	Zn1	0.525300	0.498900	0.190100
Zn21	Zn2	0.474700	0.501100	0.809900
H11	H1	0.605300	0.204900	0.156700
H21	H2	0.455000	0.222200	0.160100
H31	H3	0.217800	0.465500	0.175900
H41	H4	0.218000	0.604800	0.174500
H51	H5	0.449500	0.794000	0.178800
H61	H6	0.598500	0.777800	0.178200
H71	H7	0.836200	0.533800	0.162500
H81	H8	0.837100	0.392500	0.157500
H91	H9	0.735300	0.252300	0.049500
H101	H10	0.837100	0.148200	0.035800
H111	H11	0.885200	0.168900	0.242000
H121	H12	0.780700	0.274300	0.259500
H131	H13	0.304900	0.342300	0.058900
H141	H14	0.208400	0.258000	0.045000
H151	H15	0.206100	0.203500	0.257600
H161	H16	0.302600	0.287800	0.271500
H171	H17	0.361100	0.757600	0.069600
H181	H18	0.265500	0.866400	0.056300
H191	H19	0.141300	0.820500	0.246200
H201	H20	0.240400	0.715600	0.263100
H211	H21	0.723400	0.714300	0.067200
H221	H22	0.823500	0.795100	0.058200
H231	H23	0.881600	0.737400	0.258100
H241	H24	0.779700	0.654200	0.268200
H251	H25	0.394700	0.795100	0.843300
H261	H26	0.545000	0.777800	0.839900
H271	H27	0.782200	0.534500	0.824100
H281	H28	0.782000	0.395200	0.825500
H291	H29	0.550500	0.206000	0.821200
H301	H30	0.401500	0.222200	0.821800
H311	H31	0.163800	0.466200	0.837500
H321	H32	0.162900	0.607500	0.842500
H331	H33	0.264700	0.747700	0.950500
H341	H34	0.162900	0.851800	0.964200
H351	H35	0.114800	0.831100	0.758000
H361	H36	0.219300	0.725700	0.740500
H371	H37	0.695100	0.657700	0.941100
H381	H38	0.791600	0.742000	0.955000
H391	H39	0.793900	0.796500	0.742400
H401	H40	0.697400	0.712200	0.728500
H411	H41	0.638900	0.242400	0.930400
H421	H42	0.734500	0.133600	0.943700
H431	H43	0.858700	0.179500	0.753800
H441	H44	0.759600	0.284400	0.736900
H451	H45	0.276600	0.285700	0.932800
H461	H46	0.176500	0.204900	0.941800
H471	H47	0.118400	0.262600	0.741900
H481	H48	0.220300	0.345800	0.731800
C11	C1	0.704300	0.415500	0.168800
C21	C2	0.679100	0.342100	0.165800
C31	C3	0.595800	0.326700	0.166800
C41	C4	0.570600	0.251800	0.161100
C51	C5	0.488200	0.261400	0.163200
C61	C6	0.459600	0.342500	0.171200
C71	C7	0.377500	0.377200	0.174300
C81	C8	0.349600	0.456400	0.177800
C91	C9	0.264100	0.491500	0.176400
C101	C10	0.264300	0.567800	0.176000
C111	C11	0.348400	0.583400	0.178300
C121	C12	0.375400	0.656200	0.176000
C131	C13	0.458000	0.671900	0.176000
C141	C14	0.484000	0.747000	0.177700
C151	C15	0.565300	0.738200	0.177500
C161	C16	0.594200	0.655400	0.175700
C171	C17	0.676100	0.622000	0.173600
C181	C18	0.704000	0.541400	0.172600
C191	C19	0.790000	0.507400	0.165100
C201	C20	0.790500	0.429700	0.162400
C211	C21	0.745300	0.273800	0.156100
C221	C22	0.764300	0.235600	0.088900
C231	C23	0.825600	0.173400	0.080800
C241	C24	0.870300	0.147600	0.137400
C251	C25	0.854200	0.185600	0.203800
C261	C26	0.791500	0.249000	0.214500
C271	C27	0.937000	0.079200	0.127200
C281	C28	0.313300	0.323400	0.166600
C291	C29	0.285100	0.314500	0.098700
C301	C30	0.227300	0.264000	0.090400
C311	C31	0.197700	0.222400	0.149900
C321	C32	0.225900	0.231300	0.217700
C331	C33	0.283700	0.281800	0.226100
C341	C34	0.133800	0.169000	0.137800
C351	C35	0.311500	0.725200	0.167300
C361	C36	0.317800	0.770500	0.105900
C371	C37	0.259900	0.835800	0.097600
C381	C38	0.194500	0.854900	0.150300
C391	C39	0.186400	0.808800	0.211300
C401	C40	0.245200	0.745100	0.221000
C411	C41	0.134400	0.925800	0.140000
C421	C42	0.741400	0.675000	0.168400
C431	C43	0.755200	0.718300	0.106000
C441	C44	0.814900	0.766800	0.100700
C451	C45	0.863300	0.774700	0.158000
C461	C46	0.849800	0.732800	0.219400
C471	C47	0.788400	0.682400	0.225700
C481	C48	0.926300	0.829500	0.149300
C491	C49	0.453000	0.464700	0.346700
C501	C50	0.447000	0.464800	0.422500
C511	C51	0.503400	0.499400	0.458940
C521	C52	0.565900	0.533800	0.419500
C531	C53	0.572000	0.533700	0.343700
C541	C54	0.295700	0.584500	0.831200
C551	C55	0.320900	0.657900	0.834200
C561	C56	0.404200	0.673300	0.833200
C571	C57	0.429400	0.748200	0.838900
C581	C58	0.511800	0.738600	0.836800
C591	C59	0.540400	0.657500	0.828800
C601	C60	0.622500	0.622800	0.825700
C611	C61	0.650400	0.543600	0.822200
C621	C62	0.735900	0.508500	0.823600
C631	C63	0.735700	0.432200	0.824000
C641	C64	0.651600	0.416600	0.821700
C651	C65	0.624600	0.343800	0.824000
C661	C66	0.542000	0.328100	0.824000
C671	C67	0.516000	0.253000	0.822300
C681	C68	0.434700	0.261800	0.822500
C691	C69	0.405800	0.344600	0.824300
C701	C70	0.323900	0.378000	0.826400
C711	C71	0.296000	0.458600	0.827400
C721	C72	0.210000	0.492600	0.834900
C731	C73	0.209500	0.570300	0.837600
C741	C74	0.254700	0.726200	0.843900
C751	C75	0.235700	0.764400	0.911100
C761	C76	0.174400	0.826600	0.919200
C771	C77	0.129700	0.852400	0.862600
C781	C78	0.145800	0.814400	0.796200
C791	C79	0.208500	0.751000	0.785500
C801	C80	0.063000	0.920800	0.872800
C811	C81	0.686700	0.676600	0.833400
C821	C82	0.714900	0.685500	0.901300
C831	C83	0.772700	0.736000	0.909600
C841	C84	0.802300	0.777600	0.850100
C851	C85	0.774100	0.768700	0.782300
C861	C86	0.716300	0.718200	0.773900
C871	C87	0.866200	0.831000	0.862200
C881	C88	0.688500	0.274800	0.832700
C891	C89	0.682200	0.229500	0.894100
C901	C90	0.740100	0.164200	0.902400
C911	C91	0.805500	0.145100	0.849700
C921	C92	0.813600	0.191200	0.788700
C931	C93	0.754800	0.254900	0.779000
C941	C94	0.865600	0.074200	0.860000
C951	C95	0.258600	0.325000	0.831600
C961	C96	0.244800	0.281700	0.894000
C971	C97	0.185100	0.233200	0.899300
C981	C98	0.136700	0.225300	0.842000
C991	C99	0.150200	0.267200	0.780600
C1001	C100	0.211600	0.317600	0.774300
C1011	C101	0.073700	0.170500	0.850700
C1021	C102	0.547000	0.535300	0.653300
C1031	C103	0.553000	0.535200	0.577500
C1041	C104	0.496600	0.500600	0.541060
C1051	C105	0.434100	0.466200	0.580500
C1061	C106	0.428000	0.466300	0.656300
N11	N1	0.528100	0.381300	0.173700
N21	N2	0.399500	0.513900	0.179900
N31	N3	0.525700	0.616400	0.177100
N41	N4	0.654300	0.484400	0.174700
N51	N5	0.515500	0.499200	0.307250
N61	N6	0.471900	0.618700	0.826300
N71	N7	0.600500	0.486100	0.820100
N81	N8	0.474300	0.383600	0.822900
N91	N9	0.345700	0.515600	0.825300
N101	N10	0.484500	0.500800	0.692750
O11	O1	0.954700	0.048500	0.067100
O21	O2	0.973400	0.058400	0.183300
O31	O3	0.117100	0.151900	0.077800
O41	O4	0.088900	0.152100	0.202200
O51	O5	0.147400	0.970600	0.090000
O61	O6	0.070800	0.937100	0.188400
O71	O7	0.940900	0.866100	0.095700
O81	O8	0.967200	0.832500	0.208800
O91	O9	0.045300	0.951500	0.932900
O101	O10	0.026600	0.941600	0.816700
O111	O11	0.882900	0.848100	0.922200
O121	O12	0.911100	0.847900	0.797800
O131	O13	0.852600	0.029400	0.910000
O141	O14	0.929200	0.062900	0.811600
O151	O15	0.059100	0.133900	0.904300
O161	O16	0.032800	0.167500	0.791200
