data_LOLQIM_clean_PM
_symmetry_space_group_name_H-M	'P1'
_cell_length_a	9.982000
_cell_length_b	10.000000
_cell_length_c	9.576000
_cell_angle_alpha	97.960000
_cell_angle_beta	114.870000
_cell_angle_gamma	107.670000
_symmetry_Int_Tables_number 1

loop_
_symmetry_equiv_pos_as_xyz
'x,y,z'

loop_
_atom_site_label
_atom_site_type_symbol
_atom_site_fract_x
_atom_site_fract_y
_atom_site_fract_z
Ge11	Ge1	0.033060	0.115450	0.863590
Zn11	Zn1	0.791160	0.341020	0.312180
P11	P1	0.400200	0.229100	0.174600
P21	P2	0.028400	0.659500	0.336200
P31	P3	0.969900	0.192900	0.153900
O11	O1	0.557300	0.287400	0.169500
O21	O2	0.395500	0.333800	0.302100
O31	O3	0.263800	0.194300	0.005200
O41	O4	0.384100	0.078600	0.219900
O51	O5	0.887500	0.548600	0.339200
O61	O6	0.997200	0.795400	0.304600
O71	O7	0.186400	0.702200	0.493700
O81	O8	0.047300	0.591500	0.188700
O91	O9	0.840700	0.221200	0.178700
O101	O10	0.117500	0.348100	0.220400
O111	O11	0.036400	0.093300	0.244500
O121	O12	0.906100	0.129400	0.971700
H11	H1	0.077600	0.502700	0.192200
H21	H2	0.205500	0.440600	0.260100
H31	H3	0.392400	0.399500	0.381600
Ge21	Ge2	0.966940	0.884550	0.136410
Zn21	Zn2	0.208840	0.658980	0.687820
P41	P4	0.599800	0.770900	0.825400
P51	P5	0.971600	0.340500	0.663800
P61	P6	0.030100	0.807100	0.846100
O131	O13	0.442700	0.712600	0.830500
O141	O14	0.604500	0.666200	0.697900
O151	O15	0.736200	0.805700	0.994800
O161	O16	0.615900	0.921400	0.780100
O171	O17	0.112500	0.451400	0.660800
O181	O18	0.002800	0.204600	0.695400
O191	O19	0.813600	0.297800	0.506300
O201	O20	0.952700	0.408500	0.811300
O211	O21	0.159300	0.778800	0.821300
O221	O22	0.882500	0.651900	0.779600
O231	O23	0.963600	0.906700	0.755500
O241	O24	0.093900	0.870600	0.028300
H41	H4	0.922400	0.497300	0.807800
H51	H5	0.794500	0.559400	0.739900
H61	H6	0.607600	0.600500	0.618400
