data_LOLREL_clean_PM
_symmetry_space_group_name_H-M	'P1'
_cell_length_a	27.705600
_cell_length_b	23.395000
_cell_length_c	21.070900
_cell_angle_alpha	90.000000
_cell_angle_beta	113.911000
_cell_angle_gamma	90.000000
_symmetry_Int_Tables_number 1

loop_
_symmetry_equiv_pos_as_xyz
'x,y,z'

loop_
_atom_site_label
_atom_site_type_symbol
_atom_site_fract_x
_atom_site_fract_y
_atom_site_fract_z
C11	C1	0.589630	0.273100	0.097240
C21	C2	0.548300	0.310470	0.846370
C31	C3	0.360070	0.288620	0.677410
C41	C4	0.269180	0.300380	0.589060
H11	H1	0.253400	0.274800	0.616000
C51	C5	0.827860	0.419410	0.977000
C61	C6	0.862000	0.282820	0.174850
C71	C7	0.754160	0.367070	0.992510
H21	H2	0.730800	0.384700	0.952200
C81	C8	0.640120	0.322270	0.938550
H31	H3	0.651100	0.332100	0.903700
C91	C9	0.587130	0.310030	0.921080
C101	C10	0.321810	0.314870	0.611510
C111	C11	0.315570	0.417080	0.470000
C121	C12	0.843130	0.351430	0.075560
H41	H4	0.879100	0.359200	0.092100
C131	C13	0.734430	0.330330	0.028210
C141	C14	0.659000	0.306820	0.058590
H51	H5	0.682300	0.308000	0.105100
C151	C15	0.606540	0.291880	0.041530
C161	C16	0.230510	0.324420	0.528780
C171	C17	0.174050	0.310360	0.508100
C181	C18	0.088770	0.258900	0.597500
C191	C19	0.068700	0.278040	0.472550
H61	H6	0.034100	0.266000	0.460600
C201	C20	0.137410	0.311080	0.438600
H71	H7	0.148300	0.322000	0.404000
C211	C21	0.677490	0.320090	0.007660
C221	C22	0.808420	0.378130	0.015810
C231	C23	0.104440	0.278630	0.541760
C241	C24	0.771970	0.303150	0.087170
H81	H8	0.760200	0.277100	0.111000
C251	C25	0.570680	0.292940	0.972660
H91	H9	0.535800	0.282300	0.960900
C261	C26	0.085370	0.295850	0.420810
C271	C27	0.156020	0.295700	0.558430
H101	H10	0.179300	0.297500	0.604900
C281	C28	0.338070	0.353040	0.573000
H111	H11	0.373500	0.363000	0.588000
C291	C29	0.300940	0.375830	0.512350
C301	C30	0.247550	0.361480	0.490270
H121	H12	0.223000	0.376900	0.449200
C311	C31	0.046610	0.295170	0.345400
C321	C32	0.906700	0.613500	0.849800
H131	H13	0.943100	0.610500	0.874700
C331	C33	0.883800	0.106900	0.330900
H141	H14	0.918000	0.101100	0.363800
O11	O1	0.501010	0.298310	0.831910
O21	O2	0.551120	0.239420	0.083060
O31	O3	0.844660	0.244180	0.200410
O41	O4	0.054040	0.221500	0.585930
O51	O5	0.346670	0.246960	0.703620
O61	O6	0.894120	0.655670	0.810520
O71	O7	0.910480	0.297500	0.202260
O81	O8	0.062720	0.309560	0.300150
O91	O9	0.565370	0.323270	0.801640
O101	O10	0.112110	0.280550	0.657750
O111	O11	0.615030	0.290240	0.159250
O121	O12	0.875970	0.433610	0.002760
O131	O13	0.797340	0.439410	0.920860
O141	O14	0.407090	0.308380	0.706170
O151	O15	0.000610	0.279660	0.332270
O161	O16	0.877690	0.149700	0.294650
O171	O17	0.363110	0.432220	0.487250
O181	O18	0.852100	0.071250	0.330140
O191	O19	0.883870	0.577010	0.862590
C341	C34	0.824740	0.313320	0.110810
O201	O20	0.281150	0.438050	0.416880
Tm11	Tm1	0.434080	0.235530	0.793780
Tm21	Tm2	0.930250	0.222950	0.289990
C351	C35	0.089630	0.773100	0.097240
C361	C36	0.048300	0.810470	0.846370
C371	C37	0.860070	0.788620	0.677410
C381	C38	0.769180	0.800380	0.589060
H151	H15	0.753400	0.774800	0.616000
C391	C39	0.327860	0.919410	0.977000
C401	C40	0.362000	0.782820	0.174850
C411	C41	0.254160	0.867070	0.992510
H161	H16	0.230800	0.884700	0.952200
C421	C42	0.140120	0.822270	0.938550
H171	H17	0.151100	0.832100	0.903700
C431	C43	0.087130	0.810030	0.921080
C441	C44	0.821810	0.814870	0.611510
C451	C45	0.815570	0.917080	0.470000
C461	C46	0.343130	0.851430	0.075560
H181	H18	0.379100	0.859200	0.092100
C471	C47	0.234430	0.830330	0.028210
C481	C48	0.159000	0.806820	0.058590
H191	H19	0.182300	0.808000	0.105100
C491	C49	0.106540	0.791880	0.041530
C501	C50	0.730510	0.824420	0.528780
C511	C51	0.674050	0.810360	0.508100
C521	C52	0.588770	0.758900	0.597500
C531	C53	0.568700	0.778040	0.472550
H201	H20	0.534100	0.766000	0.460600
C541	C54	0.637410	0.811080	0.438600
H211	H21	0.648300	0.822000	0.404000
C551	C55	0.177490	0.820090	0.007660
C561	C56	0.308420	0.878130	0.015810
C571	C57	0.604440	0.778630	0.541760
C581	C58	0.271970	0.803150	0.087170
H221	H22	0.260200	0.777100	0.111000
C591	C59	0.070680	0.792940	0.972660
H231	H23	0.035800	0.782300	0.960900
C601	C60	0.585370	0.795850	0.420810
C611	C61	0.656020	0.795700	0.558430
H241	H24	0.679300	0.797500	0.604900
C621	C62	0.838070	0.853040	0.573000
H251	H25	0.873500	0.863000	0.588000
C631	C63	0.800940	0.875830	0.512350
C641	C64	0.747550	0.861480	0.490270
H261	H26	0.723000	0.876900	0.449200
C651	C65	0.546610	0.795170	0.345400
C661	C66	0.406700	0.113500	0.849800
H271	H27	0.443100	0.110500	0.874700
C671	C67	0.383800	0.606900	0.330900
H281	H28	0.418000	0.601100	0.363800
O211	O21	0.001010	0.798310	0.831910
O221	O22	0.051120	0.739420	0.083060
O231	O23	0.344660	0.744180	0.200410
O241	O24	0.554040	0.721500	0.585930
O251	O25	0.846670	0.746960	0.703620
O261	O26	0.394120	0.155670	0.810520
O271	O27	0.410480	0.797500	0.202260
O281	O28	0.562720	0.809560	0.300150
O291	O29	0.065370	0.823270	0.801640
O301	O30	0.612110	0.780550	0.657750
O311	O31	0.115030	0.790240	0.159250
O321	O32	0.375970	0.933610	0.002760
O331	O33	0.297340	0.939410	0.920860
O341	O34	0.907090	0.808380	0.706170
O351	O35	0.500610	0.779660	0.332270
O361	O36	0.377690	0.649700	0.294650
O371	O37	0.863110	0.932220	0.487250
O381	O38	0.352100	0.571250	0.330140
O391	O39	0.383870	0.077010	0.862590
C681	C68	0.324740	0.813320	0.110810
O401	O40	0.781150	0.938050	0.416880
Tm31	Tm3	0.934080	0.735530	0.793780
Tm41	Tm4	0.430250	0.722950	0.289990
C691	C69	0.410370	0.273100	0.902760
C701	C70	0.451700	0.310470	0.153630
C711	C71	0.639930	0.288620	0.322590
C721	C72	0.730820	0.300380	0.410940
H291	H29	0.746600	0.274800	0.384000
C731	C73	0.172140	0.419410	0.023000
C741	C74	0.138000	0.282820	0.825150
C751	C75	0.245840	0.367070	0.007490
H301	H30	0.269200	0.384700	0.047800
C761	C76	0.359880	0.322270	0.061450
H311	H31	0.348900	0.332100	0.096300
C771	C77	0.412870	0.310030	0.078920
C781	C78	0.678190	0.314870	0.388490
C791	C79	0.684430	0.417080	0.530000
C801	C80	0.156870	0.351430	0.924440
H321	H32	0.120900	0.359200	0.907900
C811	C81	0.265570	0.330330	0.971790
C821	C82	0.341000	0.306820	0.941410
H331	H33	0.317700	0.308000	0.894900
C831	C83	0.393460	0.291880	0.958470
C841	C84	0.769490	0.324420	0.471220
C851	C85	0.825950	0.310360	0.491900
C861	C86	0.911230	0.258900	0.402500
C871	C87	0.931300	0.278040	0.527450
H341	H34	0.965900	0.266000	0.539400
C881	C88	0.862590	0.311080	0.561400
H351	H35	0.851700	0.322000	0.596000
C891	C89	0.322510	0.320090	0.992340
C901	C90	0.191580	0.378130	0.984190
C911	C91	0.895560	0.278630	0.458240
C921	C92	0.228030	0.303150	0.912830
H361	H36	0.239800	0.277100	0.889000
C931	C93	0.429320	0.292940	0.027340
H371	H37	0.464200	0.282300	0.039100
C941	C94	0.914630	0.295850	0.579190
C951	C95	0.843980	0.295700	0.441570
H381	H38	0.820700	0.297500	0.395100
C961	C96	0.661930	0.353040	0.427000
H391	H39	0.626500	0.363000	0.412000
C971	C97	0.699060	0.375830	0.487650
C981	C98	0.752450	0.361480	0.509730
H401	H40	0.777000	0.376900	0.550800
C991	C99	0.953390	0.295170	0.654600
C1001	C100	0.093300	0.613500	0.150200
H411	H41	0.056900	0.610500	0.125300
C1011	C101	0.116200	0.106900	0.669100
H421	H42	0.082000	0.101100	0.636200
O411	O41	0.498990	0.298310	0.168090
O421	O42	0.448880	0.239420	0.916940
O431	O43	0.155340	0.244180	0.799590
O441	O44	0.945960	0.221500	0.414070
O451	O45	0.653330	0.246960	0.296380
O461	O46	0.105880	0.655670	0.189480
O471	O47	0.089520	0.297500	0.797740
O481	O48	0.937280	0.309560	0.699850
O491	O49	0.434630	0.323270	0.198360
O501	O50	0.887890	0.280550	0.342250
O511	O51	0.384970	0.290240	0.840750
O521	O52	0.124030	0.433610	0.997240
O531	O53	0.202660	0.439410	0.079140
O541	O54	0.592910	0.308380	0.293830
O551	O55	0.999390	0.279660	0.667730
O561	O56	0.122310	0.149700	0.705350
O571	O57	0.636890	0.432220	0.512750
O581	O58	0.147900	0.071250	0.669860
O591	O59	0.116130	0.577010	0.137410
C1021	C102	0.175260	0.313320	0.889190
O601	O60	0.718850	0.438050	0.583120
Tm51	Tm5	0.565920	0.235530	0.206220
Tm61	Tm6	0.069750	0.222950	0.710010
C1031	C103	0.910370	0.773100	0.902760
C1041	C104	0.951700	0.810470	0.153630
C1051	C105	0.139930	0.788620	0.322590
C1061	C106	0.230820	0.800380	0.410940
H431	H43	0.246600	0.774800	0.384000
C1071	C107	0.672140	0.919410	0.023000
C1081	C108	0.638000	0.782820	0.825150
C1091	C109	0.745840	0.867070	0.007490
H441	H44	0.769200	0.884700	0.047800
C1101	C110	0.859880	0.822270	0.061450
H451	H45	0.848900	0.832100	0.096300
C1111	C111	0.912870	0.810030	0.078920
C1121	C112	0.178190	0.814870	0.388490
C1131	C113	0.184430	0.917080	0.530000
C1141	C114	0.656870	0.851430	0.924440
H461	H46	0.620900	0.859200	0.907900
C1151	C115	0.765570	0.830330	0.971790
C1161	C116	0.841000	0.806820	0.941410
H471	H47	0.817700	0.808000	0.894900
C1171	C117	0.893460	0.791880	0.958470
C1181	C118	0.269490	0.824420	0.471220
C1191	C119	0.325950	0.810360	0.491900
C1201	C120	0.411230	0.758900	0.402500
C1211	C121	0.431300	0.778040	0.527450
H481	H48	0.465900	0.766000	0.539400
C1221	C122	0.362590	0.811080	0.561400
H491	H49	0.351700	0.822000	0.596000
C1231	C123	0.822510	0.820090	0.992340
C1241	C124	0.691580	0.878130	0.984190
C1251	C125	0.395560	0.778630	0.458240
C1261	C126	0.728030	0.803150	0.912830
H501	H50	0.739800	0.777100	0.889000
C1271	C127	0.929320	0.792940	0.027340
H511	H51	0.964200	0.782300	0.039100
C1281	C128	0.414630	0.795850	0.579190
C1291	C129	0.343980	0.795700	0.441570
H521	H52	0.320700	0.797500	0.395100
C1301	C130	0.161930	0.853040	0.427000
H531	H53	0.126500	0.863000	0.412000
C1311	C131	0.199060	0.875830	0.487650
C1321	C132	0.252450	0.861480	0.509730
H541	H54	0.277000	0.876900	0.550800
C1331	C133	0.453390	0.795170	0.654600
C1341	C134	0.593300	0.113500	0.150200
H551	H55	0.556900	0.110500	0.125300
C1351	C135	0.616200	0.606900	0.669100
H561	H56	0.582000	0.601100	0.636200
O611	O61	0.998990	0.798310	0.168090
O621	O62	0.948880	0.739420	0.916940
O631	O63	0.655340	0.744180	0.799590
O641	O64	0.445960	0.721500	0.414070
O651	O65	0.153330	0.746960	0.296380
O661	O66	0.605880	0.155670	0.189480
O671	O67	0.589520	0.797500	0.797740
O681	O68	0.437280	0.809560	0.699850
O691	O69	0.934630	0.823270	0.198360
O701	O70	0.387890	0.780550	0.342250
O711	O71	0.884970	0.790240	0.840750
O721	O72	0.624030	0.933610	0.997240
O731	O73	0.702660	0.939410	0.079140
O741	O74	0.092910	0.808380	0.293830
O751	O75	0.499390	0.779660	0.667730
O761	O76	0.622310	0.649700	0.705350
O771	O77	0.136890	0.932220	0.512750
O781	O78	0.647900	0.571250	0.669860
O791	O79	0.616130	0.077010	0.137410
C1361	C136	0.675260	0.813320	0.889190
O801	O80	0.218850	0.938050	0.583120
Tm71	Tm7	0.065920	0.735530	0.206220
Tm81	Tm8	0.569750	0.722950	0.710010
C1371	C137	0.410370	0.726900	0.902760
C1381	C138	0.451700	0.689530	0.153630
C1391	C139	0.639930	0.711380	0.322590
C1401	C140	0.730820	0.699620	0.410940
H571	H57	0.746600	0.725200	0.384000
C1411	C141	0.172140	0.580590	0.023000
C1421	C142	0.138000	0.717180	0.825150
C1431	C143	0.245840	0.632930	0.007490
H581	H58	0.269200	0.615300	0.047800
C1441	C144	0.359880	0.677730	0.061450
H591	H59	0.348900	0.667900	0.096300
C1451	C145	0.412870	0.689970	0.078920
C1461	C146	0.678190	0.685130	0.388490
C1471	C147	0.684430	0.582920	0.530000
C1481	C148	0.156870	0.648570	0.924440
H601	H60	0.120900	0.640800	0.907900
C1491	C149	0.265570	0.669670	0.971790
C1501	C150	0.341000	0.693180	0.941410
H611	H61	0.317700	0.692000	0.894900
C1511	C151	0.393460	0.708120	0.958470
C1521	C152	0.769490	0.675580	0.471220
C1531	C153	0.825950	0.689640	0.491900
C1541	C154	0.911230	0.741100	0.402500
C1551	C155	0.931300	0.721960	0.527450
H621	H62	0.965900	0.734000	0.539400
C1561	C156	0.862590	0.688920	0.561400
H631	H63	0.851700	0.678000	0.596000
C1571	C157	0.322510	0.679910	0.992340
C1581	C158	0.191580	0.621870	0.984190
C1591	C159	0.895560	0.721370	0.458240
C1601	C160	0.228030	0.696850	0.912830
H641	H64	0.239800	0.722900	0.889000
C1611	C161	0.429320	0.707060	0.027340
H651	H65	0.464200	0.717700	0.039100
C1621	C162	0.914630	0.704150	0.579190
C1631	C163	0.843980	0.704300	0.441570
H661	H66	0.820700	0.702500	0.395100
C1641	C164	0.661930	0.646960	0.427000
H671	H67	0.626500	0.637000	0.412000
C1651	C165	0.699060	0.624170	0.487650
C1661	C166	0.752450	0.638520	0.509730
H681	H68	0.777000	0.623100	0.550800
C1671	C167	0.953390	0.704830	0.654600
C1681	C168	0.093300	0.386500	0.150200
H691	H69	0.056900	0.389500	0.125300
C1691	C169	0.116200	0.893100	0.669100
H701	H70	0.082000	0.898900	0.636200
O811	O81	0.498990	0.701690	0.168090
O821	O82	0.448880	0.760580	0.916940
O831	O83	0.155340	0.755820	0.799590
O841	O84	0.945960	0.778500	0.414070
O851	O85	0.653330	0.753040	0.296380
O861	O86	0.105880	0.344330	0.189480
O871	O87	0.089520	0.702500	0.797740
O881	O88	0.937280	0.690440	0.699850
O891	O89	0.434630	0.676730	0.198360
O901	O90	0.887890	0.719450	0.342250
O911	O91	0.384970	0.709760	0.840750
O921	O92	0.124030	0.566390	0.997240
O931	O93	0.202660	0.560590	0.079140
O941	O94	0.592910	0.691620	0.293830
O951	O95	0.999390	0.720340	0.667730
O961	O96	0.122310	0.850300	0.705350
O971	O97	0.636890	0.567780	0.512750
O981	O98	0.147900	0.928750	0.669860
O991	O99	0.116130	0.422990	0.137410
C1701	C170	0.175260	0.686680	0.889190
O1001	O100	0.718850	0.561950	0.583120
Tm91	Tm9	0.565920	0.764470	0.206220
Tm101	Tm10	0.069750	0.777050	0.710010
C1711	C171	0.910370	0.226900	0.902760
C1721	C172	0.951700	0.189530	0.153630
C1731	C173	0.139930	0.211380	0.322590
C1741	C174	0.230820	0.199620	0.410940
H711	H71	0.246600	0.225200	0.384000
C1751	C175	0.672140	0.080590	0.023000
C1761	C176	0.638000	0.217180	0.825150
C1771	C177	0.745840	0.132930	0.007490
H721	H72	0.769200	0.115300	0.047800
C1781	C178	0.859880	0.177730	0.061450
H731	H73	0.848900	0.167900	0.096300
C1791	C179	0.912870	0.189970	0.078920
C1801	C180	0.178190	0.185130	0.388490
C1811	C181	0.184430	0.082920	0.530000
C1821	C182	0.656870	0.148570	0.924440
H741	H74	0.620900	0.140800	0.907900
C1831	C183	0.765570	0.169670	0.971790
C1841	C184	0.841000	0.193180	0.941410
H751	H75	0.817700	0.192000	0.894900
C1851	C185	0.893460	0.208120	0.958470
C1861	C186	0.269490	0.175580	0.471220
C1871	C187	0.325950	0.189640	0.491900
C1881	C188	0.411230	0.241100	0.402500
C1891	C189	0.431300	0.221960	0.527450
H761	H76	0.465900	0.234000	0.539400
C1901	C190	0.362590	0.188920	0.561400
H771	H77	0.351700	0.178000	0.596000
C1911	C191	0.822510	0.179910	0.992340
C1921	C192	0.691580	0.121870	0.984190
C1931	C193	0.395560	0.221370	0.458240
C1941	C194	0.728030	0.196850	0.912830
H781	H78	0.739800	0.222900	0.889000
C1951	C195	0.929320	0.207060	0.027340
H791	H79	0.964200	0.217700	0.039100
C1961	C196	0.414630	0.204150	0.579190
C1971	C197	0.343980	0.204300	0.441570
H801	H80	0.320700	0.202500	0.395100
C1981	C198	0.161930	0.146960	0.427000
H811	H81	0.126500	0.137000	0.412000
C1991	C199	0.199060	0.124170	0.487650
C2001	C200	0.252450	0.138520	0.509730
H821	H82	0.277000	0.123100	0.550800
C2011	C201	0.453390	0.204830	0.654600
C2021	C202	0.593300	0.886500	0.150200
H831	H83	0.556900	0.889500	0.125300
C2031	C203	0.616200	0.393100	0.669100
H841	H84	0.582000	0.398900	0.636200
O1011	O101	0.998990	0.201690	0.168090
O1021	O102	0.948880	0.260580	0.916940
O1031	O103	0.655340	0.255820	0.799590
O1041	O104	0.445960	0.278500	0.414070
O1051	O105	0.153330	0.253040	0.296380
O1061	O106	0.605880	0.844330	0.189480
O1071	O107	0.589520	0.202500	0.797740
O1081	O108	0.437280	0.190440	0.699850
O1091	O109	0.934630	0.176730	0.198360
O1101	O110	0.387890	0.219450	0.342250
O1111	O111	0.884970	0.209760	0.840750
O1121	O112	0.624030	0.066390	0.997240
O1131	O113	0.702660	0.060590	0.079140
O1141	O114	0.092910	0.191620	0.293830
O1151	O115	0.499390	0.220340	0.667730
O1161	O116	0.622310	0.350300	0.705350
O1171	O117	0.136890	0.067780	0.512750
O1181	O118	0.647900	0.428750	0.669860
O1191	O119	0.616130	0.922990	0.137410
C2041	C204	0.675260	0.186680	0.889190
O1201	O120	0.218850	0.061950	0.583120
Tm111	Tm11	0.065920	0.264470	0.206220
Tm121	Tm12	0.569750	0.277050	0.710010
C2051	C205	0.589630	0.726900	0.097240
C2061	C206	0.548300	0.689530	0.846370
C2071	C207	0.360070	0.711380	0.677410
C2081	C208	0.269180	0.699620	0.589060
H851	H85	0.253400	0.725200	0.616000
C2091	C209	0.827860	0.580590	0.977000
C2101	C210	0.862000	0.717180	0.174850
C2111	C211	0.754160	0.632930	0.992510
H861	H86	0.730800	0.615300	0.952200
C2121	C212	0.640120	0.677730	0.938550
H871	H87	0.651100	0.667900	0.903700
C2131	C213	0.587130	0.689970	0.921080
C2141	C214	0.321810	0.685130	0.611510
C2151	C215	0.315570	0.582920	0.470000
C2161	C216	0.843130	0.648570	0.075560
H881	H88	0.879100	0.640800	0.092100
C2171	C217	0.734430	0.669670	0.028210
C2181	C218	0.659000	0.693180	0.058590
H891	H89	0.682300	0.692000	0.105100
C2191	C219	0.606540	0.708120	0.041530
C2201	C220	0.230510	0.675580	0.528780
C2211	C221	0.174050	0.689640	0.508100
C2221	C222	0.088770	0.741100	0.597500
C2231	C223	0.068700	0.721960	0.472550
H901	H90	0.034100	0.734000	0.460600
C2241	C224	0.137410	0.688920	0.438600
H911	H91	0.148300	0.678000	0.404000
C2251	C225	0.677490	0.679910	0.007660
C2261	C226	0.808420	0.621870	0.015810
C2271	C227	0.104440	0.721370	0.541760
C2281	C228	0.771970	0.696850	0.087170
H921	H92	0.760200	0.722900	0.111000
C2291	C229	0.570680	0.707060	0.972660
H931	H93	0.535800	0.717700	0.960900
C2301	C230	0.085370	0.704150	0.420810
C2311	C231	0.156020	0.704300	0.558430
H941	H94	0.179300	0.702500	0.604900
C2321	C232	0.338070	0.646960	0.573000
H951	H95	0.373500	0.637000	0.588000
C2331	C233	0.300940	0.624170	0.512350
C2341	C234	0.247550	0.638520	0.490270
H961	H96	0.223000	0.623100	0.449200
C2351	C235	0.046610	0.704830	0.345400
C2361	C236	0.906700	0.386500	0.849800
H971	H97	0.943100	0.389500	0.874700
C2371	C237	0.883800	0.893100	0.330900
H981	H98	0.918000	0.898900	0.363800
O1211	O121	0.501010	0.701690	0.831910
O1221	O122	0.551120	0.760580	0.083060
O1231	O123	0.844660	0.755820	0.200410
O1241	O124	0.054040	0.778500	0.585930
O1251	O125	0.346670	0.753040	0.703620
O1261	O126	0.894120	0.344330	0.810520
O1271	O127	0.910480	0.702500	0.202260
O1281	O128	0.062720	0.690440	0.300150
O1291	O129	0.565370	0.676730	0.801640
O1301	O130	0.112110	0.719450	0.657750
O1311	O131	0.615030	0.709760	0.159250
O1321	O132	0.875970	0.566390	0.002760
O1331	O133	0.797340	0.560590	0.920860
O1341	O134	0.407090	0.691620	0.706170
O1351	O135	0.000610	0.720340	0.332270
O1361	O136	0.877690	0.850300	0.294650
O1371	O137	0.363110	0.567780	0.487250
O1381	O138	0.852100	0.928750	0.330140
O1391	O139	0.883870	0.422990	0.862590
C2381	C238	0.824740	0.686680	0.110810
O1401	O140	0.281150	0.561950	0.416880
Tm131	Tm13	0.434080	0.764470	0.793780
Tm141	Tm14	0.930250	0.777050	0.289990
C2391	C239	0.089630	0.226900	0.097240
C2401	C240	0.048300	0.189530	0.846370
C2411	C241	0.860070	0.211380	0.677410
C2421	C242	0.769180	0.199620	0.589060
H991	H99	0.753400	0.225200	0.616000
C2431	C243	0.327860	0.080590	0.977000
C2441	C244	0.362000	0.217180	0.174850
C2451	C245	0.254160	0.132930	0.992510
H1001	H100	0.230800	0.115300	0.952200
C2461	C246	0.140120	0.177730	0.938550
H1011	H101	0.151100	0.167900	0.903700
C2471	C247	0.087130	0.189970	0.921080
C2481	C248	0.821810	0.185130	0.611510
C2491	C249	0.815570	0.082920	0.470000
C2501	C250	0.343130	0.148570	0.075560
H1021	H102	0.379100	0.140800	0.092100
C2511	C251	0.234430	0.169670	0.028210
C2521	C252	0.159000	0.193180	0.058590
H1031	H103	0.182300	0.192000	0.105100
C2531	C253	0.106540	0.208120	0.041530
C2541	C254	0.730510	0.175580	0.528780
C2551	C255	0.674050	0.189640	0.508100
C2561	C256	0.588770	0.241100	0.597500
C2571	C257	0.568700	0.221960	0.472550
H1041	H104	0.534100	0.234000	0.460600
C2581	C258	0.637410	0.188920	0.438600
H1051	H105	0.648300	0.178000	0.404000
C2591	C259	0.177490	0.179910	0.007660
C2601	C260	0.308420	0.121870	0.015810
C2611	C261	0.604440	0.221370	0.541760
C2621	C262	0.271970	0.196850	0.087170
H1061	H106	0.260200	0.222900	0.111000
C2631	C263	0.070680	0.207060	0.972660
H1071	H107	0.035800	0.217700	0.960900
C2641	C264	0.585370	0.204150	0.420810
C2651	C265	0.656020	0.204300	0.558430
H1081	H108	0.679300	0.202500	0.604900
C2661	C266	0.838070	0.146960	0.573000
H1091	H109	0.873500	0.137000	0.588000
C2671	C267	0.800940	0.124170	0.512350
C2681	C268	0.747550	0.138520	0.490270
H1101	H110	0.723000	0.123100	0.449200
C2691	C269	0.546610	0.204830	0.345400
C2701	C270	0.406700	0.886500	0.849800
H1111	H111	0.443100	0.889500	0.874700
C2711	C271	0.383800	0.393100	0.330900
H1121	H112	0.418000	0.398900	0.363800
O1411	O141	0.001010	0.201690	0.831910
O1421	O142	0.051120	0.260580	0.083060
O1431	O143	0.344660	0.255820	0.200410
O1441	O144	0.554040	0.278500	0.585930
O1451	O145	0.846670	0.253040	0.703620
O1461	O146	0.394120	0.844330	0.810520
O1471	O147	0.410480	0.202500	0.202260
O1481	O148	0.562720	0.190440	0.300150
O1491	O149	0.065370	0.176730	0.801640
O1501	O150	0.612110	0.219450	0.657750
O1511	O151	0.115030	0.209760	0.159250
O1521	O152	0.375970	0.066390	0.002760
O1531	O153	0.297340	0.060590	0.920860
O1541	O154	0.907090	0.191620	0.706170
O1551	O155	0.500610	0.220340	0.332270
O1561	O156	0.377690	0.350300	0.294650
O1571	O157	0.863110	0.067780	0.487250
O1581	O158	0.352100	0.428750	0.330140
O1591	O159	0.383870	0.922990	0.862590
C2721	C272	0.324740	0.186680	0.110810
O1601	O160	0.781150	0.061950	0.416880
Tm151	Tm15	0.934080	0.264470	0.793780
Tm161	Tm16	0.430250	0.277050	0.289990
C2731	C273	0.000000	0.500000	0.000000
C2741	C274	0.500000	0.000000	0.000000
C2751	C275	0.760600	0.500000	0.764600
H1131	H113	0.738000	0.500000	0.787500
O1611	O161	0.956770	0.500000	0.970900
O1621	O162	0.805910	0.500000	0.802200
O1631	O163	0.738330	0.500000	0.702800
Tm171	Tm17	0.866180	0.500000	0.913850
Tm181	Tm18	0.661180	0.500000	0.607080
C2761	C276	0.260600	0.000000	0.764600
H1141	H114	0.238000	0.000000	0.787500
O1641	O164	0.456770	0.000000	0.970900
O1651	O165	0.305910	0.000000	0.802200
O1661	O166	0.238330	0.000000	0.702800
Tm191	Tm19	0.366180	0.000000	0.913850
Tm201	Tm20	0.161180	0.000000	0.607080
C2771	C277	0.239400	0.500000	0.235400
H1151	H115	0.262000	0.500000	0.212500
O1671	O167	0.043230	0.500000	0.029100
O1681	O168	0.194090	0.500000	0.197800
O1691	O169	0.261670	0.500000	0.297200
Tm211	Tm21	0.133820	0.500000	0.086150
Tm221	Tm22	0.338820	0.500000	0.392920
C2781	C278	0.739400	0.000000	0.235400
H1161	H116	0.762000	0.000000	0.212500
O1701	O170	0.543230	0.000000	0.029100
O1711	O171	0.694090	0.000000	0.197800
O1721	O172	0.761670	0.000000	0.297200
Tm231	Tm23	0.633820	0.000000	0.086150
Tm241	Tm24	0.838820	0.000000	0.392920
