data_LOMLUV_clean_PM
_symmetry_space_group_name_H-M	'P1'
_cell_length_a	11.318400
_cell_length_b	11.015900
_cell_length_c	18.751900
_cell_angle_alpha	90.000000
_cell_angle_beta	92.569000
_cell_angle_gamma	90.000000
_symmetry_Int_Tables_number 1

loop_
_symmetry_equiv_pos_as_xyz
'x,y,z'

loop_
_atom_site_label
_atom_site_type_symbol
_atom_site_fract_x
_atom_site_fract_y
_atom_site_fract_z
Ga11	Ga1	0.257260	0.949380	0.292730
Ga21	Ga2	0.281870	0.905800	0.108240
Ga31	Ga3	0.243890	0.073380	0.792320
Ga41	Ga4	0.214040	0.120800	0.607470
P11	P1	0.038040	0.970960	0.182800
H11	H1	0.028000	0.084000	0.180000
P21	P2	0.324600	0.166430	0.186700
H21	H2	0.456000	0.183000	0.199000
P31	P3	0.192040	0.118540	0.434010
H31	H3	0.076000	0.135000	0.431000
P41	P4	0.262220	0.909190	0.931230
H41	H4	0.141000	0.893000	0.917000
P51	P5	0.466120	0.121110	0.691230
H51	H5	0.505000	0.225000	0.701000
P61	P6	0.179700	0.860790	0.682150
H61	H6	0.052000	0.847000	0.684000
O11	O1	0.309200	0.866400	0.208290
H71	H7	0.309000	0.791200	0.211000
O21	O2	0.090000	0.946000	0.257900
O31	O3	0.274100	0.115800	0.254340
O41	O4	0.212100	0.015100	0.383410
O51	O5	0.267400	0.285400	0.163300
O61	O6	0.572800	0.045000	0.671700
O71	O7	0.114000	0.924900	0.123060
O81	O8	0.316700	0.076400	0.125800
O91	O9	0.278200	0.950100	0.008370
O101	O10	0.253400	0.234900	0.414080
O111	O11	0.182200	0.152100	0.705160
H81	H8	0.171000	0.228000	0.705000
O121	O12	0.915600	0.917600	0.170370
O131	O13	0.407300	0.072500	0.756650
O141	O14	0.233600	0.738800	0.665540
O151	O15	0.306200	0.007800	0.882500
O161	O16	0.215300	0.907800	0.755970
O171	O17	0.382800	0.134600	0.625300
O181	O18	0.229600	0.074400	0.508950
O191	O19	0.323300	0.787900	0.919060
O201	O20	0.209800	0.947200	0.622880
Ga51	Ga5	0.242740	0.449380	0.207270
Ga61	Ga6	0.218130	0.405800	0.391760
Ga71	Ga7	0.256110	0.573380	0.707680
Ga81	Ga8	0.285960	0.620800	0.892530
P71	P7	0.461960	0.470960	0.317200
H91	H9	0.472000	0.584000	0.320000
P81	P8	0.175400	0.666430	0.313300
H101	H10	0.044000	0.683000	0.301000
P91	P9	0.307960	0.618540	0.065990
H111	H11	0.424000	0.635000	0.069000
P101	P10	0.237780	0.409190	0.568770
H121	H12	0.359000	0.393000	0.583000
P111	P11	0.033880	0.621110	0.808770
H131	H13	0.995000	0.725000	0.799000
P121	P12	0.320300	0.360790	0.817850
H141	H14	0.448000	0.347000	0.816000
O211	O21	0.190800	0.366400	0.291710
H151	H15	0.191000	0.291200	0.289000
O221	O22	0.410000	0.446000	0.242100
O231	O23	0.225900	0.615800	0.245660
O241	O24	0.287900	0.515100	0.116590
O251	O25	0.232600	0.785400	0.336700
O261	O26	0.927200	0.545000	0.828300
O271	O27	0.386000	0.424900	0.376940
O281	O28	0.183300	0.576400	0.374200
O291	O29	0.221800	0.450100	0.491630
O301	O30	0.246600	0.734900	0.085920
O311	O31	0.317800	0.652100	0.794840
H161	H16	0.329000	0.728000	0.795000
O321	O32	0.584400	0.417600	0.329630
O331	O33	0.092700	0.572500	0.743350
O341	O34	0.266400	0.238800	0.834460
O351	O35	0.193800	0.507800	0.617500
O361	O36	0.284700	0.407800	0.744030
O371	O37	0.117200	0.634600	0.874700
O381	O38	0.270400	0.574400	0.991050
O391	O39	0.176700	0.287900	0.580940
O401	O40	0.290200	0.447200	0.877120
Ga91	Ga9	0.742740	0.050620	0.707270
Ga101	Ga10	0.718130	0.094200	0.891760
Ga111	Ga11	0.756110	0.926620	0.207680
Ga121	Ga12	0.785960	0.879200	0.392530
P131	P13	0.961960	0.029040	0.817200
H171	H17	0.972000	0.916000	0.820000
P141	P14	0.675400	0.833570	0.813300
H181	H18	0.544000	0.817000	0.801000
P151	P15	0.807960	0.881460	0.565990
H191	H19	0.924000	0.865000	0.569000
P161	P16	0.737780	0.090810	0.068770
H201	H20	0.859000	0.107000	0.083000
P171	P17	0.533880	0.878890	0.308770
H211	H21	0.495000	0.775000	0.299000
P181	P18	0.820300	0.139210	0.317850
H221	H22	0.948000	0.153000	0.316000
O411	O41	0.690800	0.133600	0.791710
H231	H23	0.691000	0.208800	0.789000
O421	O42	0.910000	0.054000	0.742100
O431	O43	0.725900	0.884200	0.745660
O441	O44	0.787900	0.984900	0.616590
O451	O45	0.732600	0.714600	0.836700
O461	O46	0.427200	0.955000	0.328300
O471	O47	0.886000	0.075100	0.876940
O481	O48	0.683300	0.923600	0.874200
O491	O49	0.721800	0.049900	0.991630
O501	O50	0.746600	0.765100	0.585920
O511	O51	0.817800	0.847900	0.294840
H241	H24	0.829000	0.772000	0.295000
O521	O52	0.084400	0.082400	0.829630
O531	O53	0.592700	0.927500	0.243350
O541	O54	0.766400	0.261200	0.334460
O551	O55	0.693800	0.992200	0.117500
O561	O56	0.784700	0.092200	0.244030
O571	O57	0.617200	0.865400	0.374700
O581	O58	0.770400	0.925600	0.491050
O591	O59	0.676700	0.212100	0.080940
O601	O60	0.790200	0.052800	0.377120
Ga131	Ga13	0.757260	0.550620	0.792730
Ga141	Ga14	0.781870	0.594200	0.608240
Ga151	Ga15	0.743890	0.426620	0.292320
Ga161	Ga16	0.714040	0.379200	0.107470
P191	P19	0.538040	0.529040	0.682800
H251	H25	0.528000	0.416000	0.680000
P201	P20	0.824600	0.333570	0.686700
H261	H26	0.956000	0.317000	0.699000
P211	P21	0.692040	0.381460	0.934010
H271	H27	0.576000	0.365000	0.931000
P221	P22	0.762220	0.590810	0.431230
H281	H28	0.641000	0.607000	0.417000
P231	P23	0.966120	0.378890	0.191230
H291	H29	0.005000	0.275000	0.201000
P241	P24	0.679700	0.639210	0.182150
H301	H30	0.552000	0.653000	0.184000
O611	O61	0.809200	0.633600	0.708290
H311	H31	0.809000	0.708800	0.711000
O621	O62	0.590000	0.554000	0.757900
O631	O63	0.774100	0.384200	0.754340
O641	O64	0.712100	0.484900	0.883410
O651	O65	0.767400	0.214600	0.663300
O661	O66	0.072800	0.455000	0.171700
O671	O67	0.614000	0.575100	0.623060
O681	O68	0.816700	0.423600	0.625800
O691	O69	0.778200	0.549900	0.508370
O701	O70	0.753400	0.265100	0.914080
O711	O71	0.682200	0.347900	0.205160
H321	H32	0.671000	0.272000	0.205000
O721	O72	0.415600	0.582400	0.670370
O731	O73	0.907300	0.427500	0.256650
O741	O74	0.733600	0.761200	0.165540
O751	O75	0.806200	0.492200	0.382500
O761	O76	0.715300	0.592200	0.255970
O771	O77	0.882800	0.365400	0.125300
O781	O78	0.729600	0.425600	0.008950
O791	O79	0.823300	0.712100	0.419060
O801	O80	0.709800	0.552800	0.122880
