data_LOMLOQ_clean_PM
_symmetry_space_group_name_H-M	'P1'
_cell_length_a	18.315000
_cell_length_b	18.315000
_cell_length_c	13.136000
_cell_angle_alpha	90.000000
_cell_angle_beta	90.000000
_cell_angle_gamma	120.000000
_symmetry_Int_Tables_number 1

loop_
_symmetry_equiv_pos_as_xyz
'x,y,z'

loop_
_atom_site_label
_atom_site_type_symbol
_atom_site_fract_x
_atom_site_fract_y
_atom_site_fract_z
F11	F1	0.777340	0.590930	0.142520
F21	F2	0.884680	0.574710	0.013140
Ga11	Ga1	0.894250	0.659450	0.096440
H11	H1	0.024000	0.850000	0.980000
O11	O1	0.144660	0.850300	0.003600
O21	O2	0.028940	0.743920	0.883600
O31	O3	0.011220	0.736970	0.072900
P11	P1	0.050990	0.795140	0.981230
F31	F3	0.444010	0.924260	0.475850
F41	F4	0.551350	0.908040	0.346470
Ga21	Ga2	0.560920	0.992780	0.429770
H21	H2	0.690670	0.183330	0.313330
O41	O4	0.811330	0.183630	0.336930
O51	O5	0.695610	0.077250	0.216930
O61	O6	0.677890	0.070300	0.406230
P21	P2	0.717660	0.128470	0.314560
F51	F5	0.110670	0.257600	0.809190
F61	F6	0.218010	0.241380	0.679810
Ga31	Ga3	0.227580	0.326120	0.763110
H31	H3	0.357330	0.516670	0.646670
O71	O7	0.477990	0.516970	0.670270
O81	O8	0.362270	0.410590	0.550270
O91	O9	0.344550	0.403640	0.739570
P31	P3	0.384320	0.461810	0.647900
F71	F7	0.409070	0.186410	0.142520
F81	F8	0.425290	0.309970	0.013140
Ga41	Ga4	0.340550	0.234800	0.096440
H41	H4	0.150000	0.174000	0.980000
O101	O10	0.149700	0.294360	0.003600
O111	O11	0.256080	0.285020	0.883600
O121	O12	0.263030	0.274250	0.072900
P41	P4	0.204860	0.255850	0.981230
F91	F9	0.075740	0.519740	0.475850
F101	F10	0.091960	0.643300	0.346470
Ga51	Ga5	0.007220	0.568130	0.429770
H51	H5	0.816670	0.507330	0.313330
O131	O13	0.816370	0.627690	0.336930
O141	O14	0.922750	0.618350	0.216930
O151	O15	0.929700	0.607580	0.406230
P51	P5	0.871530	0.589180	0.314560
F111	F11	0.742400	0.853080	0.809190
F121	F12	0.758620	0.976640	0.679810
Ga61	Ga6	0.673880	0.901470	0.763110
H61	H6	0.483330	0.840670	0.646670
O161	O16	0.483030	0.961030	0.670270
O171	O17	0.589410	0.951690	0.550270
O181	O18	0.596360	0.940920	0.739570
P61	P6	0.538190	0.922520	0.647900
F131	F13	0.813590	0.222660	0.142520
F141	F14	0.690030	0.115320	0.013140
Ga71	Ga7	0.765200	0.105750	0.096440
H71	H7	0.826000	0.976000	0.980000
O191	O19	0.705640	0.855340	0.003600
O201	O20	0.714980	0.971060	0.883600
O211	O21	0.725750	0.988780	0.072900
P71	P7	0.744150	0.949010	0.981230
F151	F15	0.480260	0.555990	0.475850
F161	F16	0.356700	0.448650	0.346470
Ga81	Ga8	0.431870	0.439080	0.429770
H81	H8	0.492670	0.309330	0.313330
O221	O22	0.372310	0.188670	0.336930
O231	O23	0.381650	0.304390	0.216930
O241	O24	0.392420	0.322110	0.406230
P81	P8	0.410820	0.282340	0.314560
F171	F17	0.146920	0.889330	0.809190
F181	F18	0.023360	0.781990	0.679810
Ga91	Ga9	0.098530	0.772420	0.763110
H91	H9	0.159330	0.642670	0.646670
O251	O25	0.038970	0.522010	0.670270
O261	O26	0.048310	0.637730	0.550270
O271	O27	0.059080	0.655450	0.739570
P91	P9	0.077480	0.615680	0.647900
F191	F19	0.222660	0.409070	0.857480
F201	F20	0.115320	0.425290	0.986860
Ga101	Ga10	0.105750	0.340550	0.903560
H101	H10	0.976000	0.150000	0.020000
O281	O28	0.855340	0.149700	0.996400
O291	O29	0.971060	0.256080	0.116400
O301	O30	0.988780	0.263030	0.927100
P101	P10	0.949010	0.204860	0.018770
F211	F21	0.889330	0.742400	0.190810
F221	F22	0.781990	0.758620	0.320190
Ga111	Ga11	0.772420	0.673880	0.236890
H111	H11	0.642670	0.483330	0.353330
O311	O31	0.522010	0.483030	0.329730
O321	O32	0.637730	0.589410	0.449730
O331	O33	0.655450	0.596360	0.260430
P111	P11	0.615680	0.538190	0.352100
F231	F23	0.555990	0.075740	0.524150
F241	F24	0.448650	0.091960	0.653530
Ga121	Ga12	0.439080	0.007220	0.570230
H121	H12	0.309330	0.816670	0.686670
O341	O34	0.188670	0.816370	0.663070
O351	O35	0.304390	0.922750	0.783070
O361	O36	0.322110	0.929700	0.593770
P121	P12	0.282340	0.871530	0.685440
F251	F25	0.590930	0.813590	0.857480
F261	F26	0.574710	0.690030	0.986860
Ga131	Ga13	0.659450	0.765200	0.903560
H131	H13	0.850000	0.826000	0.020000
O371	O37	0.850300	0.705640	0.996400
O381	O38	0.743920	0.714980	0.116400
O391	O39	0.736970	0.725750	0.927100
P131	P13	0.795140	0.744150	0.018770
F271	F27	0.257600	0.146920	0.190810
F281	F28	0.241380	0.023360	0.320190
Ga141	Ga14	0.326120	0.098530	0.236890
H141	H14	0.516670	0.159330	0.353330
O401	O40	0.516970	0.038970	0.329730
O411	O41	0.410590	0.048310	0.449730
O421	O42	0.403640	0.059080	0.260430
P141	P14	0.461810	0.077480	0.352100
F291	F29	0.924260	0.480260	0.524150
F301	F30	0.908040	0.356700	0.653530
Ga151	Ga15	0.992780	0.431870	0.570230
H151	H15	0.183330	0.492670	0.686670
O431	O43	0.183630	0.372310	0.663070
O441	O44	0.077250	0.381650	0.783070
O451	O45	0.070300	0.392420	0.593770
P151	P15	0.128470	0.410820	0.685440
F311	F31	0.186410	0.777340	0.857480
F321	F32	0.309970	0.884680	0.986860
Ga161	Ga16	0.234800	0.894250	0.903560
H161	H16	0.174000	0.024000	0.020000
O461	O46	0.294360	0.144660	0.996400
O471	O47	0.285020	0.028940	0.116400
O481	O48	0.274250	0.011220	0.927100
P161	P16	0.255850	0.050990	0.018770
F331	F33	0.853080	0.110670	0.190810
F341	F34	0.976640	0.218010	0.320190
Ga171	Ga17	0.901470	0.227580	0.236890
H171	H17	0.840670	0.357330	0.353330
O491	O49	0.961030	0.477990	0.329730
O501	O50	0.951690	0.362270	0.449730
O511	O51	0.940920	0.344550	0.260430
P171	P17	0.922520	0.384320	0.352100
F351	F35	0.519740	0.444010	0.524150
F361	F36	0.643300	0.551350	0.653530
Ga181	Ga18	0.568130	0.560920	0.570230
H181	H18	0.507330	0.690670	0.686670
O521	O52	0.627690	0.811330	0.663070
O531	O53	0.618350	0.695610	0.783070
O541	O54	0.607580	0.677890	0.593770
P181	P18	0.589180	0.717660	0.685440
