data_LONWIW_clean_PM
_symmetry_space_group_name_H-M	'P1'
_cell_length_a	13.613200
_cell_length_b	18.026100
_cell_length_c	22.945000
_cell_angle_alpha	69.574000
_cell_angle_beta	88.899000
_cell_angle_gamma	89.147000
_symmetry_Int_Tables_number 1

loop_
_symmetry_equiv_pos_as_xyz
'x,y,z'

loop_
_atom_site_label
_atom_site_type_symbol
_atom_site_fract_x
_atom_site_fract_y
_atom_site_fract_z
Mg11	Mg1	0.911790	0.794260	0.397590
Mg21	Mg2	0.124180	0.866810	0.250390
Mg31	Mg3	0.342460	0.943760	0.105030
Mg41	Mg4	0.607020	0.690530	0.611700
Mg51	Mg5	0.376010	0.632360	0.750930
Mg61	Mg6	0.147800	0.569770	0.890260
O11	O1	0.046520	0.837850	0.404430
O21	O2	0.165760	0.824000	0.341090
O31	O3	0.471130	0.659290	0.593520
O41	O4	0.349440	0.667050	0.658190
O51	O5	0.340430	0.781340	0.381770
H11	H1	0.297000	0.794000	0.357400
O61	O6	0.176360	0.718240	0.616610
H21	H2	0.218000	0.701000	0.640300
O71	O7	0.876270	0.895130	0.324910
O81	O8	0.003730	0.932610	0.258540
O91	O9	0.735730	0.290410	0.250390
O101	O10	0.861490	0.326130	0.182310
O111	O11	0.024050	0.077980	0.187950
H31	H3	0.040000	0.030000	0.207500
O121	O12	0.712900	0.142900	0.320630
H41	H4	0.709000	0.189000	0.304800
O131	O13	0.046620	0.268990	0.656760
O141	O14	0.957310	0.229050	0.744590
O151	O15	0.286940	0.540390	0.756170
O161	O16	0.201190	0.498570	0.845010
O171	O17	0.986120	0.286310	0.830880
H51	H5	0.960000	0.260000	0.808400
O181	O18	0.256080	0.484500	0.669270
H61	H6	0.285000	0.509000	0.689900
O191	O19	0.203400	0.963850	0.246780
O201	O20	0.292710	0.004160	0.159060
O211	O21	0.446620	0.234820	0.345640
O221	O22	0.533390	0.275080	0.257020
O231	O23	0.234600	0.020260	0.333410
H71	H7	0.202000	0.992000	0.313900
O241	O24	0.503930	0.218200	0.171070
H81	H8	0.529000	0.245000	0.192800
O251	O25	0.087690	0.909340	0.158550
O261	O26	0.209190	0.903260	0.093400
O271	O27	0.912880	0.951800	0.117180
H91	H9	0.956000	0.940000	0.139900
O281	O28	0.404390	0.599850	0.843750
O291	O29	0.284490	0.596270	0.912620
O301	O30	0.580540	0.548620	0.881050
H101	H10	0.538000	0.558000	0.859700
O311	O31	0.622380	0.593610	0.691410
O321	O32	0.489190	0.556340	0.752740
O331	O33	0.757480	0.198710	0.760900
O341	O34	0.626600	0.161160	0.824580
O351	O35	0.463020	0.408830	0.820980
H111	H11	0.443000	0.457000	0.798900
O361	O36	0.790350	0.347280	0.699680
H121	H12	0.797000	0.298000	0.713800
C11	C1	0.131600	0.817980	0.394320
C21	C2	0.199100	0.783790	0.447650
C31	C3	0.297800	0.767040	0.439140
C41	C4	0.355300	0.732700	0.491040
H131	H13	0.420900	0.721100	0.485400
C51	C5	0.318100	0.715080	0.551320
C61	C6	0.219400	0.733020	0.559660
C71	C7	0.161700	0.767380	0.507910
H141	H14	0.096400	0.779800	0.513400
C81	C8	0.385000	0.677740	0.604660
C91	C9	0.928000	0.946300	0.285450
C101	C10	0.898100	0.031650	0.268460
C111	C11	0.946800	0.092000	0.221480
C121	C12	0.917000	0.169800	0.208190
H151	H15	0.949900	0.209700	0.177100
C131	C13	0.839400	0.189950	0.240040
C141	C14	0.790100	0.129700	0.287330
C151	C15	0.821200	0.052100	0.300920
H161	H16	0.789700	0.012300	0.332800
C161	C16	0.810600	0.275900	0.222520
C171	C17	0.022200	0.272360	0.708500
C181	C18	0.071900	0.330580	0.730640
C191	C19	0.052700	0.333900	0.789950
C201	C20	0.104000	0.387900	0.808920
H171	H17	0.092600	0.389400	0.848600
C211	C21	0.171900	0.439380	0.769850
C221	C22	0.190600	0.436050	0.710440
C231	C23	0.139500	0.383200	0.691630
H181	H18	0.150200	0.382600	0.651700
C241	C24	0.223400	0.496840	0.792530
C251	C25	0.268200	0.006900	0.210920
C261	C26	0.318600	0.065010	0.233020
C271	C27	0.300600	0.068470	0.292560
C281	C28	0.351600	0.122140	0.310840
H191	H19	0.340100	0.124100	0.350400
C291	C29	0.419900	0.173560	0.271550
C301	C30	0.437800	0.170600	0.212210
C311	C31	0.386200	0.116600	0.193800
H201	H20	0.397300	0.115000	0.154100
C321	C32	0.470000	0.231980	0.293700
C331	C33	0.124100	0.921770	0.104820
C341	C34	0.058300	0.961590	0.051650
C351	C35	0.958200	0.974900	0.060010
C361	C36	0.901400	0.012390	0.008750
H211	H21	0.834800	0.020600	0.014400
C371	C37	0.370500	0.582360	0.898470
C381	C38	0.439200	0.540910	0.950100
C391	C39	0.538000	0.525720	0.939030
C401	C40	0.403100	0.514910	0.011050
H221	H22	0.337800	0.525100	0.018500
C411	C41	0.568400	0.542550	0.728780
C421	C42	0.598200	0.457150	0.746820
C431	C43	0.544600	0.395900	0.790270
C441	C44	0.573900	0.318110	0.802580
H231	H23	0.538200	0.277800	0.831500
C451	C45	0.654900	0.298330	0.773080
C461	C46	0.709300	0.359600	0.730490
C471	C47	0.680100	0.437360	0.718390
H241	H24	0.716600	0.477700	0.690200
C481	C48	0.681600	0.212720	0.787680
Mg71	Mg7	0.088210	0.205740	0.602410
Mg81	Mg8	0.875820	0.133190	0.749610
Mg91	Mg9	0.657540	0.056240	0.894970
Mg101	Mg10	0.392980	0.309470	0.388300
Mg111	Mg11	0.623990	0.367640	0.249070
Mg121	Mg12	0.852200	0.430230	0.109740
O371	O37	0.953480	0.162150	0.595570
O381	O38	0.834240	0.176000	0.658910
O391	O39	0.528870	0.340710	0.406480
O401	O40	0.650560	0.332950	0.341810
O411	O41	0.659570	0.218660	0.618230
H251	H25	0.703000	0.206000	0.642600
O421	O42	0.823640	0.281760	0.383390
H261	H26	0.782000	0.299000	0.359700
O431	O43	0.123730	0.104870	0.675090
O441	O44	0.996270	0.067390	0.741460
O451	O45	0.264270	0.709590	0.749610
O461	O46	0.138510	0.673870	0.817690
O471	O47	0.975950	0.922020	0.812050
H271	H27	0.960000	0.970000	0.792500
O481	O48	0.287100	0.857100	0.679370
H281	H28	0.291000	0.811000	0.695200
O491	O49	0.953380	0.731010	0.343240
O501	O50	0.042690	0.770950	0.255410
O511	O51	0.713060	0.459610	0.243830
O521	O52	0.798810	0.501430	0.154990
O531	O53	0.013880	0.713690	0.169120
H291	H29	0.040000	0.740000	0.191600
O541	O54	0.743920	0.515500	0.330730
H301	H30	0.715000	0.491000	0.310100
O551	O55	0.796600	0.036150	0.753220
O561	O56	0.707290	0.995840	0.840940
O571	O57	0.553380	0.765180	0.654360
O581	O58	0.466610	0.724920	0.742980
O591	O59	0.765400	0.979740	0.666590
H311	H31	0.798000	0.008000	0.686100
O601	O60	0.496070	0.781800	0.828930
H321	H32	0.471000	0.755000	0.807200
O611	O61	0.912310	0.090660	0.841450
O621	O62	0.790810	0.096740	0.906600
O631	O63	0.087120	0.048200	0.882820
H331	H33	0.044000	0.060000	0.860100
O641	O64	0.595610	0.400150	0.156250
O651	O65	0.715510	0.403730	0.087380
O661	O66	0.419460	0.451380	0.118950
H341	H34	0.462000	0.442000	0.140300
O671	O67	0.377620	0.406390	0.308590
O681	O68	0.510810	0.443660	0.247260
O691	O69	0.242520	0.801290	0.239100
O701	O70	0.373400	0.838840	0.175420
O711	O71	0.536980	0.591170	0.179020
H351	H35	0.557000	0.543000	0.201100
O721	O72	0.209650	0.652720	0.300320
H361	H36	0.203000	0.702000	0.286200
C491	C49	0.868400	0.182020	0.605680
C501	C50	0.800900	0.216210	0.552350
C511	C51	0.702200	0.232960	0.560860
C521	C52	0.644700	0.267300	0.508960
H371	H37	0.579100	0.278900	0.514600
C531	C53	0.681900	0.284920	0.448680
C541	C54	0.780600	0.266980	0.440340
C551	C55	0.838300	0.232620	0.492090
H381	H38	0.903600	0.220200	0.486600
C561	C56	0.615000	0.322260	0.395340
C571	C57	0.072000	0.053700	0.714550
C581	C58	0.101900	0.968350	0.731540
C591	C59	0.053200	0.908000	0.778520
C601	C60	0.083000	0.830200	0.791810
H391	H39	0.050100	0.790300	0.822900
C611	C61	0.160600	0.810050	0.759960
C621	C62	0.209900	0.870300	0.712670
C631	C63	0.178800	0.947900	0.699080
H401	H40	0.210300	0.987700	0.667200
C641	C64	0.189400	0.724100	0.777480
C651	C65	0.977800	0.727640	0.291500
C661	C66	0.928100	0.669420	0.269360
C671	C67	0.947300	0.666100	0.210050
C681	C68	0.896000	0.612100	0.191080
H411	H41	0.907400	0.610600	0.151400
C691	C69	0.828100	0.560620	0.230150
C701	C70	0.809400	0.563950	0.289560
C711	C71	0.860500	0.616800	0.308370
H421	H42	0.849800	0.617400	0.348300
C721	C72	0.776600	0.503160	0.207470
C731	C73	0.731800	0.993100	0.789080
C741	C74	0.681400	0.934990	0.766980
C751	C75	0.699400	0.931530	0.707440
C761	C76	0.648400	0.877860	0.689160
H431	H43	0.659900	0.875900	0.649600
C771	C77	0.580100	0.826440	0.728450
C781	C78	0.562200	0.829400	0.787790
C791	C79	0.613800	0.883400	0.806200
H441	H44	0.602700	0.885000	0.845900
C801	C80	0.530000	0.768020	0.706300
C811	C81	0.875900	0.078230	0.895180
C821	C82	0.941700	0.038410	0.948350
C831	C83	0.041800	0.025100	0.939990
C841	C84	0.098600	0.987610	0.991250
H451	H45	0.165200	0.979400	0.985600
C851	C85	0.629500	0.417640	0.101530
C861	C86	0.560800	0.459090	0.049900
C871	C87	0.462000	0.474280	0.060970
C881	C88	0.596900	0.485090	0.988950
H461	H46	0.662200	0.474900	0.981500
C891	C89	0.431600	0.457450	0.271220
C901	C90	0.401800	0.542850	0.253180
C911	C91	0.455400	0.604100	0.209730
C921	C92	0.426100	0.681890	0.197420
H471	H47	0.461800	0.722200	0.168500
C931	C93	0.345100	0.701670	0.226920
C941	C94	0.290700	0.640400	0.269510
C951	C95	0.319900	0.562640	0.281610
H481	H48	0.283400	0.522300	0.309800
C961	C96	0.318400	0.787280	0.212320
