data_LOQLEJ_manual_PM
_symmetry_space_group_name_H-M	'P1'
_cell_length_a	7.233000
_cell_length_b	21.758200
_cell_length_c	21.758200
_cell_angle_alpha	60.047800
_cell_angle_beta	90.000000
_cell_angle_gamma	90.000000
_symmetry_Int_Tables_number 1

loop_
_symmetry_equiv_pos_as_xyz
'x,y,z'

loop_
_atom_site_label
_atom_site_type_symbol
_atom_site_fract_x
_atom_site_fract_y
_atom_site_fract_z
In11	In1	0.000000	0.000000	0.500000
In21	In2	0.500000	0.000000	0.500000
In31	In3	0.500000	0.500000	0.000000
In41	In4	0.000000	0.500000	0.000000
In51	In5	0.000000	0.000000	0.000000
In61	In6	0.500000	0.000000	0.000000
H71	H7	0.449210	0.795120	0.679500
H81	H8	0.050240	0.968680	0.322560
H91	H9	0.050820	0.969040	0.207980
H101	H10	0.949210	0.204880	0.320500
H111	H11	0.550240	0.031320	0.677440
H121	H12	0.550820	0.030960	0.792020
H131	H13	0.050790	0.679500	0.795120
H141	H14	0.449760	0.322560	0.968680
H151	H15	0.449180	0.207980	0.969040
H161	H16	0.550790	0.320500	0.204880
H171	H17	0.949760	0.677440	0.031320
H181	H18	0.949180	0.792020	0.030960
H191	H19	0.550790	0.204880	0.320500
H201	H20	0.949760	0.031320	0.677440
H211	H21	0.949180	0.030960	0.792020
H221	H22	0.050790	0.795120	0.679500
H231	H23	0.449760	0.968680	0.322560
H241	H24	0.449180	0.969040	0.207980
H251	H25	0.949210	0.320500	0.204880
H261	H26	0.550240	0.677440	0.031320
H271	H27	0.550820	0.792020	0.030960
H281	H28	0.449210	0.679500	0.795120
H291	H29	0.050240	0.322560	0.968680
H301	H30	0.050820	0.207980	0.969040
C311	C31	0.585600	0.767930	0.704670
C321	C32	0.913900	0.969590	0.295830
C331	C33	0.914200	0.969100	0.234080
C341	C34	0.085600	0.232070	0.295330
C351	C35	0.413900	0.030410	0.704170
C361	C36	0.414200	0.030900	0.765920
C371	C37	0.914400	0.704670	0.767930
C381	C38	0.586100	0.295830	0.969590
C391	C39	0.585800	0.234080	0.969100
C401	C40	0.414400	0.295330	0.232070
C411	C41	0.086100	0.704170	0.030410
C421	C42	0.085800	0.765920	0.030900
C431	C43	0.414400	0.232070	0.295330
C441	C44	0.086100	0.030410	0.704170
C451	C45	0.085800	0.030900	0.765920
C461	C46	0.914400	0.767930	0.704670
C471	C47	0.586100	0.969590	0.295830
C481	C48	0.585800	0.969100	0.234080
C491	C49	0.085600	0.295330	0.232070
C501	C50	0.413900	0.704170	0.030410
C511	C51	0.414200	0.765920	0.030900
C521	C52	0.585600	0.704670	0.767930
C531	C53	0.913900	0.295830	0.969590
C541	C54	0.914200	0.234080	0.969100
C551	C55	0.750000	0.870700	0.605960
C561	C56	0.750000	0.797860	0.672300
C571	C57	0.750000	0.977480	0.393860
C581	C58	0.750000	0.971190	0.327550
C591	C59	0.750000	0.968670	0.202490
C601	C60	0.750000	0.970750	0.131250
C611	C61	0.250000	0.129300	0.394040
C621	C62	0.250000	0.202140	0.327700
C631	C63	0.250000	0.022520	0.606140
C641	C64	0.250000	0.028810	0.672450
C651	C65	0.250000	0.031330	0.797510
C661	C66	0.250000	0.029250	0.868750
C671	C67	0.750000	0.605960	0.870700
C681	C68	0.750000	0.672300	0.797860
C691	C69	0.750000	0.393860	0.977480
C701	C70	0.750000	0.327550	0.971190
C711	C71	0.750000	0.202490	0.968670
C721	C72	0.750000	0.131250	0.970750
C731	C73	0.250000	0.394040	0.129300
C741	C74	0.250000	0.327700	0.202140
C751	C75	0.250000	0.606140	0.022520
C761	C76	0.250000	0.672450	0.028810
C771	C77	0.250000	0.797510	0.031330
C781	C78	0.250000	0.868750	0.029250
O791	O79	0.904350	0.897140	0.580720
O801	O80	0.901940	0.977330	0.420050
O811	O81	0.903530	0.971820	0.104160
O821	O82	0.404350	0.102860	0.419280
O831	O83	0.401940	0.022670	0.579950
O841	O84	0.403530	0.028180	0.895840
O851	O85	0.595650	0.580720	0.897140
O861	O86	0.598060	0.420050	0.977330
O871	O87	0.596470	0.104160	0.971820
O881	O88	0.095650	0.419280	0.102860
O891	O89	0.098060	0.579950	0.022670
O901	O90	0.096470	0.895840	0.028180
O911	O91	0.095650	0.102860	0.419280
O921	O92	0.098060	0.022670	0.579950
O931	O93	0.096470	0.028180	0.895840
O941	O94	0.595650	0.897140	0.580720
O951	O95	0.598060	0.977330	0.420050
O961	O96	0.596470	0.971820	0.104160
O971	O97	0.404350	0.419280	0.102860
O981	O98	0.401940	0.579950	0.022670
O991	O99	0.403530	0.895840	0.028180
O1001	O100	0.904350	0.580720	0.897140
O1011	O101	0.901940	0.420050	0.977330
O1021	O102	0.903530	0.104160	0.971820
O1031	O103	0.750000	0.048610	0.501170
O1041	O104	0.250000	0.951390	0.498830
O1051	O105	0.750000	0.501170	0.048610
O1061	O106	0.250000	0.498830	0.951390
O1071	O107	0.750000	0.975840	0.975840
O1081	O108	0.250000	0.024160	0.024160
H1091	H109	0.750170	0.456500	0.094810
H1101	H110	0.249970	0.905200	0.543500
H1111	H111	0.750030	0.094810	0.456510
H1121	H112	0.249990	0.453040	0.952010
H1131	H113	0.250000	0.076410	0.002480
H1141	H114	0.749950	0.997890	0.923560
