data_LOXKAM_clean_PM
_symmetry_space_group_name_H-M	'P1'
_cell_length_a	28.950000
_cell_length_b	39.508000
_cell_length_c	10.278500
_cell_angle_alpha	90.000000
_cell_angle_beta	95.737000
_cell_angle_gamma	90.000000
_symmetry_Int_Tables_number 1

loop_
_symmetry_equiv_pos_as_xyz
'x,y,z'

loop_
_atom_site_label
_atom_site_type_symbol
_atom_site_fract_x
_atom_site_fract_y
_atom_site_fract_z
Cd11	Cd1	0.239660	0.676040	0.944630
Cd21	Cd2	0.232160	0.686340	0.457160
O11	O1	0.306260	0.679520	0.572300
O21	O2	0.301850	0.669660	0.362900
O31	O3	0.173940	0.682580	0.302800
O41	O4	0.198870	0.695670	0.110800
O51	O5	0.177330	0.670640	0.794600
O61	O6	0.197660	0.703810	0.634000
N11	N1	0.225940	0.621290	0.013400
N21	N2	0.138240	0.427790	0.244800
N31	N3	0.237530	0.230440	0.093600
N41	N4	0.215250	0.629650	0.500200
N51	N5	0.136900	0.433600	0.744100
N61	N6	0.253200	0.242010	0.588900
C11	C1	0.229470	0.612890	0.138700
H11	H1	0.238400	0.629600	0.200000
C21	C2	0.220840	0.581610	0.182800
H21	H2	0.224200	0.577300	0.272200
C31	C3	0.207070	0.555830	0.096200
C41	C4	0.203000	0.564770	0.964600
H31	H3	0.194300	0.548600	0.901300
C51	C5	0.211800	0.597580	0.927300
H41	H4	0.207700	0.603200	0.839000
C61	C6	0.192880	0.521380	0.138700
C71	C7	0.178030	0.516730	0.260600
H51	H5	0.178900	0.534900	0.318200
C81	C8	0.161920	0.485920	0.300200
H61	H6	0.152600	0.483500	0.383700
C91	C9	0.159570	0.458110	0.214200
C101	C10	0.178280	0.462470	0.094300
H71	H7	0.179600	0.444100	0.038500
C111	C11	0.194630	0.493410	0.057600
H81	H8	0.206900	0.495600	0.977800
C121	C12	0.155610	0.396370	0.208200
C131	C13	0.201780	0.389100	0.229000
H91	H9	0.222300	0.405900	0.262100
C141	C14	0.219040	0.357350	0.202200
H101	H10	0.250700	0.353000	0.216200
C151	C15	0.188620	0.332120	0.154500
C161	C16	0.142420	0.339680	0.128200
H111	H11	0.122100	0.323000	0.093300
C171	C17	0.125510	0.371350	0.152400
H121	H12	0.094200	0.376200	0.131800
C181	C18	0.206060	0.296730	0.133300
C191	C19	0.252420	0.289570	0.119000
H131	H13	0.274200	0.306900	0.122900
C201	C20	0.265620	0.257180	0.099300
H141	H14	0.296700	0.253400	0.088900
C211	C21	0.194540	0.237290	0.111500
H151	H15	0.173900	0.219200	0.111000
C221	C22	0.177590	0.268420	0.130700
H161	H16	0.146300	0.271000	0.142400
C231	C23	0.097870	0.428980	0.316300
C241	C24	0.067060	0.455630	0.307700
H171	H17	0.071500	0.473500	0.251400
C251	C25	0.029240	0.456350	0.381800
H181	H18	0.010100	0.475300	0.377700
C261	C26	0.019630	0.429850	0.460600
C271	C27	0.049450	0.402120	0.462900
H191	H19	0.042800	0.383100	0.511100
C281	C28	0.088110	0.401930	0.396800
H201	H20	0.108200	0.383500	0.405400
C291	C29	0.246520	0.606990	0.549100
H211	H21	0.277600	0.613400	0.559900
C301	C30	0.235350	0.574740	0.584300
H221	H22	0.258700	0.560100	0.618000
C311	C31	0.189850	0.563610	0.570300
C321	C32	0.157580	0.587020	0.518000
H231	H23	0.126300	0.581300	0.506300
C331	C33	0.171470	0.618440	0.483500
H241	H24	0.148900	0.633100	0.445600
C341	C34	0.177580	0.529120	0.611600
C351	C35	0.210030	0.505720	0.660600
H251	H25	0.241400	0.511200	0.665900
C361	C36	0.196820	0.474540	0.701600
H261	H26	0.219500	0.459400	0.735700
C371	C37	0.150790	0.464870	0.693700
C381	C38	0.117210	0.487260	0.639400
H271	H27	0.086200	0.480800	0.629500
C391	C39	0.129660	0.518550	0.600600
H281	H28	0.106800	0.533500	0.566300
C401	C40	0.164130	0.403700	0.724500
C411	C41	0.170520	0.378770	0.824600
H291	H29	0.160500	0.382700	0.906400
C421	C42	0.191570	0.349050	0.798500
H301	H30	0.195500	0.332800	0.864300
C431	C43	0.207510	0.341780	0.678600
C441	C44	0.203340	0.367940	0.583500
H311	H31	0.214800	0.364500	0.503200
C451	C45	0.182880	0.397840	0.608200
H321	H32	0.181500	0.414800	0.545300
C461	C46	0.225670	0.308480	0.648600
C471	C47	0.225600	0.281640	0.737300
H331	H33	0.215900	0.285600	0.819500
C481	C48	0.239440	0.249640	0.706300
H341	H34	0.239300	0.232700	0.768900
C491	C49	0.251700	0.266940	0.502700
H351	H35	0.261100	0.262100	0.420800
C501	C50	0.237400	0.299090	0.524600
H361	H36	0.235500	0.314900	0.457100
C511	C51	0.097120	0.431850	0.814300
C521	C52	0.085770	0.459180	0.889500
H371	H37	0.104500	0.478400	0.893600
C531	C53	0.047400	0.458480	0.958100
H381	H38	0.039600	0.477700	0.003500
C541	C54	0.020220	0.429850	0.961000
C551	C55	0.032320	0.402770	0.888900
H391	H39	0.014500	0.383200	0.889200
C561	C56	0.070280	0.403240	0.814700
H401	H40	0.077200	0.384400	0.766100
C571	C57	0.324940	0.672800	0.472500
C581	C58	0.377270	0.668970	0.480200
C591	C59	0.400020	0.661380	0.372900
H411	H41	0.382500	0.657700	0.293300
C601	C60	0.446960	0.659070	0.378000
H421	H42	0.460800	0.654000	0.302400
C611	C61	0.474920	0.664200	0.496300
C621	C62	0.451550	0.672700	0.606500
H431	H43	0.468800	0.676700	0.686300
C631	C63	0.403480	0.675210	0.598200
H441	H44	0.388900	0.681100	0.671600
C641	C64	0.167760	0.690270	0.183500
C651	C65	0.117940	0.693870	0.126700
C661	C66	0.083880	0.689700	0.206500
H451	H45	0.091400	0.683900	0.293800
C671	C67	0.037390	0.694000	0.157600
H461	H46	0.014300	0.692500	0.214100
C681	C68	0.025330	0.700610	0.027400
C691	C69	0.060660	0.705030	0.947000
H471	H47	0.053400	0.710000	0.858800
C701	C70	0.105770	0.702180	0.996500
H481	H48	0.129000	0.705900	0.941900
C711	C71	0.168690	0.686690	0.691300
C721	C72	0.117870	0.688400	0.633600
C731	C73	0.089640	0.660280	0.644000
H491	H49	0.101900	0.641300	0.688600
C741	C74	0.044440	0.659570	0.590900
H501	H50	0.026800	0.640000	0.595500
C751	C75	0.024570	0.689120	0.528500
C761	C76	0.052250	0.715720	0.520500
H511	H51	0.040100	0.735400	0.480700
C771	C77	0.099470	0.715270	0.570400
H521	H52	0.118000	0.734100	0.558700
Cd31	Cd3	0.739660	0.176040	0.944630
Cd41	Cd4	0.732160	0.186340	0.457160
O71	O7	0.806260	0.179520	0.572300
O81	O8	0.801850	0.169660	0.362900
O91	O9	0.673940	0.182580	0.302800
O101	O10	0.698870	0.195670	0.110800
O111	O11	0.677330	0.170640	0.794600
O121	O12	0.697660	0.203810	0.634000
N71	N7	0.725940	0.121290	0.013400
N81	N8	0.638240	0.927790	0.244800
N91	N9	0.737530	0.730440	0.093600
N101	N10	0.715250	0.129650	0.500200
N111	N11	0.636900	0.933600	0.744100
N121	N12	0.753200	0.742010	0.588900
C781	C78	0.729470	0.112890	0.138700
H531	H53	0.738400	0.129600	0.200000
C791	C79	0.720840	0.081610	0.182800
H541	H54	0.724200	0.077300	0.272200
C801	C80	0.707070	0.055830	0.096200
C811	C81	0.703000	0.064770	0.964600
H551	H55	0.694300	0.048600	0.901300
C821	C82	0.711800	0.097580	0.927300
H561	H56	0.707700	0.103200	0.839000
C831	C83	0.692880	0.021380	0.138700
C841	C84	0.678030	0.016730	0.260600
H571	H57	0.678900	0.034900	0.318200
C851	C85	0.661920	0.985920	0.300200
H581	H58	0.652600	0.983500	0.383700
C861	C86	0.659570	0.958110	0.214200
C871	C87	0.678280	0.962470	0.094300
H591	H59	0.679600	0.944100	0.038500
C881	C88	0.694630	0.993410	0.057600
H601	H60	0.706900	0.995600	0.977800
C891	C89	0.655610	0.896370	0.208200
C901	C90	0.701780	0.889100	0.229000
H611	H61	0.722300	0.905900	0.262100
C911	C91	0.719040	0.857350	0.202200
H621	H62	0.750700	0.853000	0.216200
C921	C92	0.688620	0.832120	0.154500
C931	C93	0.642420	0.839680	0.128200
H631	H63	0.622100	0.823000	0.093300
C941	C94	0.625510	0.871350	0.152400
H641	H64	0.594200	0.876200	0.131800
C951	C95	0.706060	0.796730	0.133300
C961	C96	0.752420	0.789570	0.119000
H651	H65	0.774200	0.806900	0.122900
C971	C97	0.765620	0.757180	0.099300
H661	H66	0.796700	0.753400	0.088900
C981	C98	0.694540	0.737290	0.111500
H671	H67	0.673900	0.719200	0.111000
C991	C99	0.677590	0.768420	0.130700
H681	H68	0.646300	0.771000	0.142400
C1001	C100	0.597870	0.928980	0.316300
C1011	C101	0.567060	0.955630	0.307700
H691	H69	0.571500	0.973500	0.251400
C1021	C102	0.529240	0.956350	0.381800
H701	H70	0.510100	0.975300	0.377700
C1031	C103	0.519630	0.929850	0.460600
C1041	C104	0.549450	0.902120	0.462900
H711	H71	0.542800	0.883100	0.511100
C1051	C105	0.588110	0.901930	0.396800
H721	H72	0.608200	0.883500	0.405400
C1061	C106	0.746520	0.106990	0.549100
H731	H73	0.777600	0.113400	0.559900
C1071	C107	0.735350	0.074740	0.584300
H741	H74	0.758700	0.060100	0.618000
C1081	C108	0.689850	0.063610	0.570300
C1091	C109	0.657580	0.087020	0.518000
H751	H75	0.626300	0.081300	0.506300
C1101	C110	0.671470	0.118440	0.483500
H761	H76	0.648900	0.133100	0.445600
C1111	C111	0.677580	0.029120	0.611600
C1121	C112	0.710030	0.005720	0.660600
H771	H77	0.741400	0.011200	0.665900
C1131	C113	0.696820	0.974540	0.701600
H781	H78	0.719500	0.959400	0.735700
C1141	C114	0.650790	0.964870	0.693700
C1151	C115	0.617210	0.987260	0.639400
H791	H79	0.586200	0.980800	0.629500
C1161	C116	0.629660	0.018550	0.600600
H801	H80	0.606800	0.033500	0.566300
C1171	C117	0.664130	0.903700	0.724500
C1181	C118	0.670520	0.878770	0.824600
H811	H81	0.660500	0.882700	0.906400
C1191	C119	0.691570	0.849050	0.798500
H821	H82	0.695500	0.832800	0.864300
C1201	C120	0.707510	0.841780	0.678600
C1211	C121	0.703340	0.867940	0.583500
H831	H83	0.714800	0.864500	0.503200
C1221	C122	0.682880	0.897840	0.608200
H841	H84	0.681500	0.914800	0.545300
C1231	C123	0.725670	0.808480	0.648600
C1241	C124	0.725600	0.781640	0.737300
H851	H85	0.715900	0.785600	0.819500
C1251	C125	0.739440	0.749640	0.706300
H861	H86	0.739300	0.732700	0.768900
C1261	C126	0.751700	0.766940	0.502700
H871	H87	0.761100	0.762100	0.420800
C1271	C127	0.737400	0.799090	0.524600
H881	H88	0.735500	0.814900	0.457100
C1281	C128	0.597120	0.931850	0.814300
C1291	C129	0.585770	0.959180	0.889500
H891	H89	0.604500	0.978400	0.893600
C1301	C130	0.547400	0.958480	0.958100
H901	H90	0.539600	0.977700	0.003500
C1311	C131	0.520220	0.929850	0.961000
C1321	C132	0.532320	0.902770	0.888900
H911	H91	0.514500	0.883200	0.889200
C1331	C133	0.570280	0.903240	0.814700
H921	H92	0.577200	0.884400	0.766100
C1341	C134	0.824940	0.172800	0.472500
C1351	C135	0.877270	0.168970	0.480200
C1361	C136	0.900020	0.161380	0.372900
H931	H93	0.882500	0.157700	0.293300
C1371	C137	0.946960	0.159070	0.378000
H941	H94	0.960800	0.154000	0.302400
C1381	C138	0.974920	0.164200	0.496300
C1391	C139	0.951550	0.172700	0.606500
H951	H95	0.968800	0.176700	0.686300
C1401	C140	0.903480	0.175210	0.598200
H961	H96	0.888900	0.181100	0.671600
C1411	C141	0.667760	0.190270	0.183500
C1421	C142	0.617940	0.193870	0.126700
C1431	C143	0.583880	0.189700	0.206500
H971	H97	0.591400	0.183900	0.293800
C1441	C144	0.537390	0.194000	0.157600
H981	H98	0.514300	0.192500	0.214100
C1451	C145	0.525330	0.200610	0.027400
C1461	C146	0.560660	0.205030	0.947000
H991	H99	0.553400	0.210000	0.858800
C1471	C147	0.605770	0.202180	0.996500
H1001	H100	0.629000	0.205900	0.941900
C1481	C148	0.668690	0.186690	0.691300
C1491	C149	0.617870	0.188400	0.633600
C1501	C150	0.589640	0.160280	0.644000
H1011	H101	0.601900	0.141300	0.688600
C1511	C151	0.544440	0.159570	0.590900
H1021	H102	0.526800	0.140000	0.595500
C1521	C152	0.524570	0.189120	0.528500
C1531	C153	0.552250	0.215720	0.520500
H1031	H103	0.540100	0.235400	0.480700
C1541	C154	0.599470	0.215270	0.570400
H1041	H104	0.618000	0.234100	0.558700
Cd51	Cd5	0.760340	0.676040	0.055370
Cd61	Cd6	0.767840	0.686340	0.542840
O131	O13	0.693740	0.679520	0.427700
O141	O14	0.698150	0.669660	0.637100
O151	O15	0.826060	0.682580	0.697200
O161	O16	0.801130	0.695670	0.889200
O171	O17	0.822670	0.670640	0.205400
O181	O18	0.802340	0.703810	0.366000
N131	N13	0.774060	0.621290	0.986600
N141	N14	0.861760	0.427790	0.755200
N151	N15	0.762470	0.230440	0.906400
N161	N16	0.784750	0.629650	0.499800
N171	N17	0.863100	0.433600	0.255900
N181	N18	0.746800	0.242010	0.411100
C1551	C155	0.770530	0.612890	0.861300
H1051	H105	0.761600	0.629600	0.800000
C1561	C156	0.779160	0.581610	0.817200
H1061	H106	0.775800	0.577300	0.727800
C1571	C157	0.792930	0.555830	0.903800
C1581	C158	0.797000	0.564770	0.035400
H1071	H107	0.805700	0.548600	0.098700
C1591	C159	0.788200	0.597580	0.072700
H1081	H108	0.792300	0.603200	0.161000
C1601	C160	0.807120	0.521380	0.861300
C1611	C161	0.821970	0.516730	0.739400
H1091	H109	0.821100	0.534900	0.681800
C1621	C162	0.838080	0.485920	0.699800
H1101	H110	0.847400	0.483500	0.616300
C1631	C163	0.840430	0.458110	0.785800
C1641	C164	0.821720	0.462470	0.905700
H1111	H111	0.820400	0.444100	0.961500
C1651	C165	0.805370	0.493410	0.942400
H1121	H112	0.793100	0.495600	0.022200
C1661	C166	0.844390	0.396370	0.791800
C1671	C167	0.798220	0.389100	0.771000
H1131	H113	0.777700	0.405900	0.737900
C1681	C168	0.780960	0.357350	0.797800
H1141	H114	0.749300	0.353000	0.783800
C1691	C169	0.811380	0.332120	0.845500
C1701	C170	0.857580	0.339680	0.871800
H1151	H115	0.877900	0.323000	0.906700
C1711	C171	0.874490	0.371350	0.847600
H1161	H116	0.905800	0.376200	0.868200
C1721	C172	0.793940	0.296730	0.866700
C1731	C173	0.747580	0.289570	0.881000
H1171	H117	0.725800	0.306900	0.877100
C1741	C174	0.734380	0.257180	0.900700
H1181	H118	0.703300	0.253400	0.911100
C1751	C175	0.805460	0.237290	0.888500
H1191	H119	0.826100	0.219200	0.889000
C1761	C176	0.822410	0.268420	0.869300
H1201	H120	0.853700	0.271000	0.857600
C1771	C177	0.902130	0.428980	0.683700
C1781	C178	0.932940	0.455630	0.692300
H1211	H121	0.928500	0.473500	0.748600
C1791	C179	0.970760	0.456350	0.618200
H1221	H122	0.989900	0.475300	0.622300
C1801	C180	0.980370	0.429850	0.539400
C1811	C181	0.950550	0.402120	0.537100
H1231	H123	0.957200	0.383100	0.488900
C1821	C182	0.911890	0.401930	0.603200
H1241	H124	0.891800	0.383500	0.594600
C1831	C183	0.753480	0.606990	0.450900
H1251	H125	0.722400	0.613400	0.440100
C1841	C184	0.764650	0.574740	0.415700
H1261	H126	0.741300	0.560100	0.382000
C1851	C185	0.810150	0.563610	0.429700
C1861	C186	0.842420	0.587020	0.482000
H1271	H127	0.873700	0.581300	0.493700
C1871	C187	0.828530	0.618440	0.516500
H1281	H128	0.851100	0.633100	0.554400
C1881	C188	0.822420	0.529120	0.388400
C1891	C189	0.789970	0.505720	0.339400
H1291	H129	0.758600	0.511200	0.334100
C1901	C190	0.803180	0.474540	0.298400
H1301	H130	0.780500	0.459400	0.264300
C1911	C191	0.849210	0.464870	0.306300
C1921	C192	0.882790	0.487260	0.360600
H1311	H131	0.913800	0.480800	0.370500
C1931	C193	0.870340	0.518550	0.399400
H1321	H132	0.893200	0.533500	0.433700
C1941	C194	0.835870	0.403700	0.275500
C1951	C195	0.829480	0.378770	0.175400
H1331	H133	0.839500	0.382700	0.093600
C1961	C196	0.808430	0.349050	0.201500
H1341	H134	0.804500	0.332800	0.135700
C1971	C197	0.792490	0.341780	0.321400
C1981	C198	0.796660	0.367940	0.416500
H1351	H135	0.785200	0.364500	0.496800
C1991	C199	0.817120	0.397840	0.391800
H1361	H136	0.818500	0.414800	0.454700
C2001	C200	0.774330	0.308480	0.351400
C2011	C201	0.774400	0.281640	0.262700
H1371	H137	0.784100	0.285600	0.180500
C2021	C202	0.760560	0.249640	0.293700
H1381	H138	0.760700	0.232700	0.231100
C2031	C203	0.748300	0.266940	0.497300
H1391	H139	0.738900	0.262100	0.579200
C2041	C204	0.762600	0.299090	0.475400
H1401	H140	0.764500	0.314900	0.542900
C2051	C205	0.902880	0.431850	0.185700
C2061	C206	0.914230	0.459180	0.110500
H1411	H141	0.895500	0.478400	0.106400
C2071	C207	0.952600	0.458480	0.041900
H1421	H142	0.960400	0.477700	0.996500
C2081	C208	0.979780	0.429850	0.039000
C2091	C209	0.967680	0.402770	0.111100
H1431	H143	0.985500	0.383200	0.110800
C2101	C210	0.929720	0.403240	0.185300
H1441	H144	0.922800	0.384400	0.233900
C2111	C211	0.675060	0.672800	0.527500
C2121	C212	0.622730	0.668970	0.519800
C2131	C213	0.599980	0.661380	0.627100
H1451	H145	0.617500	0.657700	0.706700
C2141	C214	0.553040	0.659070	0.622000
H1461	H146	0.539200	0.654000	0.697600
C2151	C215	0.525080	0.664200	0.503700
C2161	C216	0.548450	0.672700	0.393500
H1471	H147	0.531200	0.676700	0.313700
C2171	C217	0.596520	0.675210	0.401800
H1481	H148	0.611100	0.681100	0.328400
C2181	C218	0.832240	0.690270	0.816500
C2191	C219	0.882060	0.693870	0.873300
C2201	C220	0.916120	0.689700	0.793500
H1491	H149	0.908600	0.683900	0.706200
C2211	C221	0.962610	0.694000	0.842400
H1501	H150	0.985700	0.692500	0.785900
C2221	C222	0.974670	0.700610	0.972600
C2231	C223	0.939340	0.705030	0.053000
H1511	H151	0.946600	0.710000	0.141200
C2241	C224	0.894230	0.702180	0.003500
H1521	H152	0.871000	0.705900	0.058100
C2251	C225	0.831310	0.686690	0.308700
C2261	C226	0.882130	0.688400	0.366400
C2271	C227	0.910360	0.660280	0.356000
H1531	H153	0.898100	0.641300	0.311400
C2281	C228	0.955560	0.659570	0.409100
H1541	H154	0.973200	0.640000	0.404500
C2291	C229	0.975430	0.689120	0.471500
C2301	C230	0.947750	0.715720	0.479500
H1551	H155	0.959900	0.735400	0.519300
C2311	C231	0.900530	0.715270	0.429600
H1561	H156	0.882000	0.734100	0.441300
Cd71	Cd7	0.260340	0.176040	0.055370
Cd81	Cd8	0.267840	0.186340	0.542840
O191	O19	0.193740	0.179520	0.427700
O201	O20	0.198150	0.169660	0.637100
O211	O21	0.326060	0.182580	0.697200
O221	O22	0.301130	0.195670	0.889200
O231	O23	0.322670	0.170640	0.205400
O241	O24	0.302340	0.203810	0.366000
N191	N19	0.274060	0.121290	0.986600
N201	N20	0.361760	0.927790	0.755200
N211	N21	0.262470	0.730440	0.906400
N221	N22	0.284750	0.129650	0.499800
N231	N23	0.363100	0.933600	0.255900
N241	N24	0.246800	0.742010	0.411100
C2321	C232	0.270530	0.112890	0.861300
H1571	H157	0.261600	0.129600	0.800000
C2331	C233	0.279160	0.081610	0.817200
H1581	H158	0.275800	0.077300	0.727800
C2341	C234	0.292930	0.055830	0.903800
C2351	C235	0.297000	0.064770	0.035400
H1591	H159	0.305700	0.048600	0.098700
C2361	C236	0.288200	0.097580	0.072700
H1601	H160	0.292300	0.103200	0.161000
C2371	C237	0.307120	0.021380	0.861300
C2381	C238	0.321970	0.016730	0.739400
H1611	H161	0.321100	0.034900	0.681800
C2391	C239	0.338080	0.985920	0.699800
H1621	H162	0.347400	0.983500	0.616300
C2401	C240	0.340430	0.958110	0.785800
C2411	C241	0.321720	0.962470	0.905700
H1631	H163	0.320400	0.944100	0.961500
C2421	C242	0.305370	0.993410	0.942400
H1641	H164	0.293100	0.995600	0.022200
C2431	C243	0.344390	0.896370	0.791800
C2441	C244	0.298220	0.889100	0.771000
H1651	H165	0.277700	0.905900	0.737900
C2451	C245	0.280960	0.857350	0.797800
H1661	H166	0.249300	0.853000	0.783800
C2461	C246	0.311380	0.832120	0.845500
C2471	C247	0.357580	0.839680	0.871800
H1671	H167	0.377900	0.823000	0.906700
C2481	C248	0.374490	0.871350	0.847600
H1681	H168	0.405800	0.876200	0.868200
C2491	C249	0.293940	0.796730	0.866700
C2501	C250	0.247580	0.789570	0.881000
H1691	H169	0.225800	0.806900	0.877100
C2511	C251	0.234380	0.757180	0.900700
H1701	H170	0.203300	0.753400	0.911100
C2521	C252	0.305460	0.737290	0.888500
H1711	H171	0.326100	0.719200	0.889000
C2531	C253	0.322410	0.768420	0.869300
H1721	H172	0.353700	0.771000	0.857600
C2541	C254	0.402130	0.928980	0.683700
C2551	C255	0.432940	0.955630	0.692300
H1731	H173	0.428500	0.973500	0.748600
C2561	C256	0.470760	0.956350	0.618200
H1741	H174	0.489900	0.975300	0.622300
C2571	C257	0.480370	0.929850	0.539400
C2581	C258	0.450550	0.902120	0.537100
H1751	H175	0.457200	0.883100	0.488900
C2591	C259	0.411890	0.901930	0.603200
H1761	H176	0.391800	0.883500	0.594600
C2601	C260	0.253480	0.106990	0.450900
H1771	H177	0.222400	0.113400	0.440100
C2611	C261	0.264650	0.074740	0.415700
H1781	H178	0.241300	0.060100	0.382000
C2621	C262	0.310150	0.063610	0.429700
C2631	C263	0.342420	0.087020	0.482000
H1791	H179	0.373700	0.081300	0.493700
C2641	C264	0.328530	0.118440	0.516500
H1801	H180	0.351100	0.133100	0.554400
C2651	C265	0.322420	0.029120	0.388400
C2661	C266	0.289970	0.005720	0.339400
H1811	H181	0.258600	0.011200	0.334100
C2671	C267	0.303180	0.974540	0.298400
H1821	H182	0.280500	0.959400	0.264300
C2681	C268	0.349210	0.964870	0.306300
C2691	C269	0.382790	0.987260	0.360600
H1831	H183	0.413800	0.980800	0.370500
C2701	C270	0.370340	0.018550	0.399400
H1841	H184	0.393200	0.033500	0.433700
C2711	C271	0.335870	0.903700	0.275500
C2721	C272	0.329480	0.878770	0.175400
H1851	H185	0.339500	0.882700	0.093600
C2731	C273	0.308430	0.849050	0.201500
H1861	H186	0.304500	0.832800	0.135700
C2741	C274	0.292490	0.841780	0.321400
C2751	C275	0.296660	0.867940	0.416500
H1871	H187	0.285200	0.864500	0.496800
C2761	C276	0.317120	0.897840	0.391800
H1881	H188	0.318500	0.914800	0.454700
C2771	C277	0.274330	0.808480	0.351400
C2781	C278	0.274400	0.781640	0.262700
H1891	H189	0.284100	0.785600	0.180500
C2791	C279	0.260560	0.749640	0.293700
H1901	H190	0.260700	0.732700	0.231100
C2801	C280	0.248300	0.766940	0.497300
H1911	H191	0.238900	0.762100	0.579200
C2811	C281	0.262600	0.799090	0.475400
H1921	H192	0.264500	0.814900	0.542900
C2821	C282	0.402880	0.931850	0.185700
C2831	C283	0.414230	0.959180	0.110500
H1931	H193	0.395500	0.978400	0.106400
C2841	C284	0.452600	0.958480	0.041900
H1941	H194	0.460400	0.977700	0.996500
C2851	C285	0.479780	0.929850	0.039000
C2861	C286	0.467680	0.902770	0.111100
H1951	H195	0.485500	0.883200	0.110800
C2871	C287	0.429720	0.903240	0.185300
H1961	H196	0.422800	0.884400	0.233900
C2881	C288	0.175060	0.172800	0.527500
C2891	C289	0.122730	0.168970	0.519800
C2901	C290	0.099980	0.161380	0.627100
H1971	H197	0.117500	0.157700	0.706700
C2911	C291	0.053040	0.159070	0.622000
H1981	H198	0.039200	0.154000	0.697600
C2921	C292	0.025080	0.164200	0.503700
C2931	C293	0.048450	0.172700	0.393500
H1991	H199	0.031200	0.176700	0.313700
C2941	C294	0.096520	0.175210	0.401800
H2001	H200	0.111100	0.181100	0.328400
C2951	C295	0.332240	0.190270	0.816500
C2961	C296	0.382060	0.193870	0.873300
C2971	C297	0.416120	0.189700	0.793500
H2011	H201	0.408600	0.183900	0.706200
C2981	C298	0.462610	0.194000	0.842400
H2021	H202	0.485700	0.192500	0.785900
C2991	C299	0.474670	0.200610	0.972600
C3001	C300	0.439340	0.205030	0.053000
H2031	H203	0.446600	0.210000	0.141200
C3011	C301	0.394230	0.202180	0.003500
H2041	H204	0.371000	0.205900	0.058100
C3021	C302	0.331310	0.186690	0.308700
C3031	C303	0.382130	0.188400	0.366400
C3041	C304	0.410360	0.160280	0.356000
H2051	H205	0.398100	0.141300	0.311400
C3051	C305	0.455560	0.159570	0.409100
H2061	H206	0.473200	0.140000	0.404500
C3061	C306	0.475430	0.189120	0.471500
C3071	C307	0.447750	0.215720	0.479500
H2071	H207	0.459900	0.235400	0.519300
C3081	C308	0.400530	0.215270	0.429600
H2081	H208	0.382000	0.234100	0.441300
