data_LOZSAW02_clean_PM
_symmetry_space_group_name_H-M	'P1'
_cell_length_a	13.427000
_cell_length_b	8.731800
_cell_length_c	15.083000
_cell_angle_alpha	90.000000
_cell_angle_beta	111.700000
_cell_angle_gamma	90.000000
_symmetry_Int_Tables_number 1

loop_
_symmetry_equiv_pos_as_xyz
'x,y,z'

loop_
_atom_site_label
_atom_site_type_symbol
_atom_site_fract_x
_atom_site_fract_y
_atom_site_fract_z
C11	C1	0.663900	0.235400	0.575300
C21	C2	0.834900	0.400400	0.587100
C31	C3	0.835400	0.087600	0.574300
N11	N1	0.614800	0.222600	0.623200
N21	N2	0.882500	0.492100	0.641000
N31	N3	0.882100	0.983600	0.616000
C41	C4	0.163900	0.735400	0.575300
C51	C5	0.334900	0.900400	0.587100
C61	C6	0.335400	0.587600	0.574300
N41	N4	0.114800	0.722600	0.623200
N51	N5	0.382500	0.992100	0.641000
N61	N6	0.382100	0.483600	0.616000
C71	C7	0.336100	0.235400	0.924700
C81	C8	0.165100	0.400400	0.912900
C91	C9	0.164600	0.087600	0.925700
N71	N7	0.385200	0.222600	0.876800
N81	N8	0.117500	0.492100	0.859000
N91	N9	0.117900	0.983600	0.884000
C101	C10	0.836100	0.735400	0.924700
C111	C11	0.665100	0.900400	0.912900
C121	C12	0.664600	0.587600	0.925700
N101	N10	0.885200	0.722600	0.876800
N111	N11	0.617500	0.992100	0.859000
N121	N12	0.617900	0.483600	0.884000
C131	C13	0.336100	0.764600	0.424700
C141	C14	0.165100	0.599600	0.412900
C151	C15	0.164600	0.912400	0.425700
N131	N13	0.385200	0.777400	0.376800
N141	N14	0.117500	0.507900	0.359000
N151	N15	0.117900	0.016400	0.384000
C161	C16	0.836100	0.264600	0.424700
C171	C17	0.665100	0.099600	0.412900
C181	C18	0.664600	0.412400	0.425700
N161	N16	0.885200	0.277400	0.376800
N171	N17	0.617500	0.007900	0.359000
N181	N18	0.617900	0.516400	0.384000
C191	C19	0.663900	0.764600	0.075300
C201	C20	0.834900	0.599600	0.087100
C211	C21	0.835400	0.912400	0.074300
N191	N19	0.614800	0.777400	0.123200
N201	N20	0.882500	0.507900	0.141000
N211	N21	0.882100	0.016400	0.116000
C221	C22	0.163900	0.264600	0.075300
C231	C23	0.334900	0.099600	0.087100
C241	C24	0.335400	0.412400	0.074300
N221	N22	0.114800	0.277400	0.123200
N231	N23	0.382500	0.007900	0.141000
N241	N24	0.382100	0.516400	0.116000
Co11	Co1	0.750000	0.250000	0.500000
Co21	Co2	0.250000	0.250000	0.000000
Co31	Co3	0.250000	0.750000	0.500000
Co41	Co4	0.750000	0.750000	0.000000
K11	K1	0.500000	0.251320	0.750000
K21	K2	0.000000	0.751320	0.750000
K31	K3	0.500000	0.748680	0.250000
K41	K4	0.000000	0.248680	0.250000
