data_LUBMAW_clean_PM
_symmetry_space_group_name_H-M	'P1'
_cell_length_a	9.946200
_cell_length_b	23.357000
_cell_length_c	23.603500
_cell_angle_alpha	94.998000
_cell_angle_beta	96.626000
_cell_angle_gamma	90.668000
_symmetry_Int_Tables_number 1

loop_
_symmetry_equiv_pos_as_xyz
'x,y,z'

loop_
_atom_site_label
_atom_site_type_symbol
_atom_site_fract_x
_atom_site_fract_y
_atom_site_fract_z
Nd11	Nd1	0.782600	0.980560	0.998080
Nd21	Nd2	0.262860	0.497600	0.520470
Nd31	Nd3	0.217400	0.019440	0.001920
Nd41	Nd4	0.737140	0.502400	0.479530
P11	P1	0.058200	0.898010	0.071050
P21	P2	0.006800	0.607780	0.518140
P31	P3	0.511500	0.967760	0.089960
P41	P4	0.429100	0.417100	0.412820
P51	P5	0.941800	0.101990	0.928950
P61	P6	0.993200	0.392220	0.481860
P71	P7	0.488500	0.032240	0.910040
P81	P8	0.570900	0.582900	0.587180
H11	H1	0.781600	0.797300	0.466400
H21	H2	0.890400	0.846800	0.468600
H31	H3	0.704000	0.737000	0.363000
H41	H4	0.727000	0.826000	0.225000
H51	H5	0.791000	0.942000	0.252000
H61	H6	0.908000	0.950000	0.301000
H71	H7	0.898000	0.910000	0.162000
H81	H8	0.273000	0.869000	0.156000
H91	H9	0.423600	0.855200	0.233700
H101	H10	0.392300	0.889400	0.290600
H111	H11	0.340800	0.749300	0.218800
H121	H12	0.314000	0.661000	0.260000
H131	H13	0.337000	0.666000	0.360000
H141	H14	0.403200	0.721400	0.454300
H151	H15	0.376500	0.787500	0.459000
H161	H16	0.221000	0.672000	0.484000
H171	H17	0.817000	0.704000	0.481000
H181	H18	0.820000	0.984000	0.457000
H191	H19	0.796000	0.934000	0.439000
H201	H20	0.503000	0.918000	0.428000
H211	H21	0.576000	0.849000	0.422000
H221	H22	0.830000	0.244000	0.421000
H231	H23	0.851000	0.296000	0.394000
H241	H24	0.786100	0.289800	0.281800
H251	H25	0.796000	0.239000	0.184000
H261	H26	0.812600	0.138000	0.189200
H271	H27	0.849400	0.054400	0.308400
H281	H28	0.894100	0.054000	0.246700
H291	H29	0.737000	0.017200	0.164600
H301	H30	0.363000	0.973300	0.180700
H311	H31	0.242600	0.983000	0.267300
H321	H32	0.374900	0.013200	0.336100
H331	H33	0.165600	0.095100	0.230400
H341	H34	0.137100	0.173000	0.245400
H351	H35	0.178900	0.225400	0.331600
H361	H36	0.228000	0.217000	0.438000
H371	H37	0.365000	0.178000	0.449000
H381	H38	0.303400	0.310800	0.425700
H391	H39	0.680000	0.365000	0.407000
H401	H40	0.958000	0.104000	0.435000
H411	H41	0.020000	0.121000	0.363000
H421	H42	0.368200	0.025300	0.458600
H431	H43	0.253700	0.019400	0.406800
H441	H44	0.256800	0.072000	0.453000
H451	H45	0.218400	0.202700	0.533600
H461	H46	0.109600	0.153200	0.531400
H471	H47	0.296000	0.263000	0.637000
H481	H48	0.273000	0.174000	0.775000
H491	H49	0.209000	0.058000	0.748000
H501	H50	0.092000	0.050000	0.699000
H511	H51	0.102000	0.090000	0.838000
H521	H52	0.727000	0.131000	0.844000
H531	H53	0.576400	0.144800	0.766300
H541	H54	0.607700	0.110600	0.709400
H551	H55	0.659200	0.250700	0.781200
H561	H56	0.686000	0.339000	0.740000
H571	H57	0.663000	0.334000	0.640000
H581	H58	0.596800	0.278600	0.545700
H591	H59	0.623500	0.212500	0.541000
H601	H60	0.779000	0.328000	0.516000
H611	H61	0.183000	0.296000	0.519000
H621	H62	0.180000	0.016000	0.543000
H631	H63	0.204000	0.066000	0.561000
H641	H64	0.497000	0.082000	0.572000
H651	H65	0.424000	0.151000	0.578000
H661	H66	0.170000	0.756000	0.579000
H671	H67	0.149000	0.704000	0.606000
H681	H68	0.213900	0.710200	0.718200
H691	H69	0.204000	0.761000	0.816000
H701	H70	0.187400	0.862000	0.810800
H711	H71	0.150600	0.945600	0.691600
H721	H72	0.105900	0.946000	0.753300
H731	H73	0.263000	0.982800	0.835400
H741	H74	0.637000	0.026700	0.819300
H751	H75	0.757400	0.017000	0.732700
H761	H76	0.625100	0.986800	0.663900
H771	H77	0.834400	0.904900	0.769600
H781	H78	0.862900	0.827000	0.754600
H791	H79	0.821100	0.774600	0.668400
H801	H80	0.772000	0.783000	0.562000
H811	H81	0.635000	0.822000	0.551000
H821	H82	0.696600	0.689200	0.574300
H831	H83	0.320000	0.635000	0.593000
H841	H84	0.042000	0.896000	0.565000
H851	H85	0.980000	0.879000	0.637000
H861	H86	0.631800	0.974700	0.541400
H871	H87	0.746300	0.980600	0.593200
H881	H88	0.743200	0.928000	0.547000
C11	C1	0.972600	0.766600	0.459600
C21	C2	0.860300	0.809600	0.449500
C31	C3	0.820300	0.815700	0.386000
C41	C4	0.748100	0.771000	0.350700
C51	C5	0.714300	0.774600	0.292500
C61	C6	0.756900	0.825300	0.269100
C71	C7	0.826500	0.868700	0.300800
C81	C8	0.877400	0.918400	0.273800
C91	C9	0.993800	0.904200	0.238700
C101	C10	0.976000	0.905900	0.180000
C111	C11	0.078700	0.890400	0.146200
C121	C12	0.202600	0.874000	0.175000
C131	C13	0.222100	0.873800	0.232900
C141	C14	0.360100	0.858500	0.262000
C151	C15	0.357300	0.801500	0.291200
C161	C16	0.342900	0.749900	0.258400
C171	C17	0.331500	0.698500	0.283000
C181	C18	0.332800	0.700800	0.342000
C191	C19	0.349300	0.751600	0.376600
C201	C20	0.343200	0.750700	0.440000
C211	C21	0.203000	0.739100	0.456000
C221	C22	0.172200	0.687400	0.475700
C231	C23	0.044200	0.674200	0.489300
C241	C24	0.941900	0.714400	0.479800
C251	C25	0.100400	0.778800	0.448900
C261	C26	0.855100	0.865300	0.359500
C271	C27	0.119100	0.889900	0.264500
C281	C28	0.364000	0.800700	0.349700
C291	C29	0.848400	0.954800	0.414600
C301	C30	0.512500	0.874500	0.400200
C311	C31	0.652700	0.271500	0.398200
C321	C32	0.797200	0.258000	0.387100
C331	C33	0.803900	0.223200	0.329100
C341	C34	0.794600	0.250100	0.280100
C351	C35	0.797500	0.218700	0.226600
C361	C36	0.809900	0.159000	0.224300
C371	C37	0.818100	0.130700	0.273900
C381	C38	0.824500	0.066500	0.270300
C391	C39	0.688800	0.037900	0.245000
C401	C40	0.666700	0.016190	0.187260
C411	C41	0.542000	0.993330	0.163620
C421	C42	0.434600	0.993520	0.197480
C431	C43	0.452200	0.014700	0.255020
C441	C44	0.333800	0.015340	0.290360
C451	C45	0.283500	0.074080	0.303280
C461	C46	0.206100	0.103020	0.262400
C471	C47	0.165400	0.157420	0.273450
C481	C48	0.204200	0.187430	0.325230
C491	C49	0.280700	0.161600	0.367900
C501	C50	0.327600	0.196600	0.425500
C511	C51	0.426400	0.242900	0.417900
C521	C52	0.390900	0.301100	0.419000
C531	C53	0.479300	0.344100	0.410500
C541	C54	0.608100	0.329500	0.399400
C551	C55	0.562800	0.230000	0.409400
C561	C56	0.818500	0.163100	0.326500
C571	C57	0.580500	0.035700	0.279100
C581	C58	0.317500	0.105200	0.357000
C591	C59	0.962300	0.129000	0.402700
C601	C60	0.311400	0.046000	0.432200
C611	C61	0.027400	0.233400	0.540400
C621	C62	0.139700	0.190400	0.550500
C631	C63	0.179700	0.184300	0.614000
C641	C64	0.251900	0.229000	0.649300
C651	C65	0.285700	0.225400	0.707500
C661	C66	0.243100	0.174700	0.730900
C671	C67	0.173500	0.131300	0.699200
C681	C68	0.122600	0.081600	0.726200
C691	C69	0.006200	0.095800	0.761300
C701	C70	0.024000	0.094100	0.820000
C711	C71	0.921300	0.109600	0.853800
C721	C72	0.797400	0.126000	0.825000
C731	C73	0.777900	0.126200	0.767100
C741	C74	0.639900	0.141500	0.738000
C751	C75	0.642700	0.198500	0.708800
C761	C76	0.657100	0.250100	0.741600
C771	C77	0.668500	0.301500	0.717000
C781	C78	0.667200	0.299200	0.658000
C791	C79	0.650700	0.248400	0.623400
C801	C80	0.656800	0.249300	0.560000
C811	C81	0.797000	0.260900	0.544000
C821	C82	0.827800	0.312600	0.524300
C831	C83	0.955800	0.325800	0.510700
C841	C84	0.058100	0.285600	0.520200
C851	C85	0.899600	0.221200	0.551100
C861	C86	0.144900	0.134700	0.640500
C871	C87	0.880900	0.110100	0.735500
C881	C88	0.636000	0.199300	0.650300
C891	C89	0.151600	0.045200	0.585400
C901	C90	0.487500	0.125500	0.599800
C911	C91	0.347300	0.728500	0.601800
C921	C92	0.202800	0.742000	0.612900
C931	C93	0.196100	0.776800	0.670900
C941	C94	0.205400	0.749900	0.719900
C951	C95	0.202500	0.781300	0.773400
C961	C96	0.190100	0.841000	0.775700
C971	C97	0.181900	0.869300	0.726100
C981	C98	0.175500	0.933500	0.729700
C991	C99	0.311200	0.962100	0.755000
C1001	C100	0.333300	0.983810	0.812740
C1011	C101	0.458000	0.006670	0.836380
C1021	C102	0.565400	0.006480	0.802520
C1031	C103	0.547800	0.985300	0.744980
C1041	C104	0.666200	0.984660	0.709640
C1051	C105	0.716500	0.925920	0.696720
C1061	C106	0.793900	0.896980	0.737600
C1071	C107	0.834600	0.842580	0.726550
C1081	C108	0.795800	0.812570	0.674770
C1091	C109	0.719300	0.838400	0.632100
C1101	C110	0.672400	0.803400	0.574500
C1111	C111	0.573600	0.757100	0.582100
C1121	C112	0.609100	0.698900	0.581000
C1131	C113	0.520700	0.655900	0.589500
C1141	C114	0.391900	0.670500	0.600600
C1151	C115	0.437200	0.770000	0.590600
C1161	C116	0.181500	0.836900	0.673500
C1171	C117	0.419500	0.964300	0.720900
C1181	C118	0.682500	0.894800	0.643000
C1191	C119	0.037700	0.871000	0.597300
C1201	C120	0.688600	0.954000	0.567800
N11	N1	0.042300	0.047900	0.100100
N21	N2	0.261000	0.521000	0.444000
N31	N3	0.957700	0.952100	0.899900
N41	N4	0.739000	0.479000	0.556000
O11	O1	0.928700	0.907800	0.394000
O21	O2	0.141000	0.893900	0.323400
O31	O3	0.373600	0.853400	0.383100
O41	O4	0.132000	0.832100	0.432600
O51	O5	0.917900	0.919000	0.054400
O61	O6	0.173400	0.934500	0.055500
O71	O7	0.073100	0.835400	0.041700
O81	O8	0.136500	0.579000	0.535000
O91	O9	0.906400	0.571400	0.478600
O101	O10	0.935600	0.628500	0.574100
O111	O11	0.826400	0.136600	0.376400
O121	O12	0.608200	0.053800	0.335400
O131	O13	0.394200	0.078000	0.399400
O141	O14	0.595900	0.174400	0.413400
O151	O15	0.643500	0.952900	0.069000
O161	O16	0.429000	0.012000	0.059000
O171	O17	0.424300	0.909900	0.086300
O181	O18	0.381400	0.430900	0.351400
O191	O19	0.541900	0.455300	0.439200
O201	O20	0.306100	0.423500	0.446800
O211	O21	0.992100	0.038900	0.047300
O221	O22	0.168000	0.051900	0.109100
O231	O23	0.970400	0.052200	0.138600
O241	O24	0.334000	0.556900	0.442300
O251	O25	0.121100	0.512600	0.421800
O261	O26	0.230100	0.557300	0.399500
O271	O27	0.071300	0.092200	0.606000
O281	O28	0.859000	0.106100	0.676600
O291	O29	0.626400	0.146600	0.616900
O301	O30	0.868000	0.167900	0.567400
O311	O31	0.082100	0.081000	0.945600
O321	O32	0.826600	0.065500	0.944500
O331	O33	0.926900	0.164600	0.958300
O341	O34	0.863500	0.421000	0.465000
O351	O35	0.093600	0.428600	0.521400
O361	O36	0.064400	0.371500	0.425900
O371	O37	0.173600	0.863400	0.623600
O381	O38	0.391800	0.946200	0.664600
O391	O39	0.605800	0.922000	0.600600
O401	O40	0.404100	0.825600	0.586600
O411	O41	0.356500	0.047100	0.931000
O421	O42	0.571000	0.988000	0.941000
O431	O43	0.575700	0.090100	0.913700
O441	O44	0.618600	0.569100	0.648600
O451	O45	0.458100	0.544700	0.560800
O461	O46	0.693900	0.576500	0.553200
O471	O47	0.007900	0.961100	0.952700
O481	O48	0.832000	0.948100	0.890900
O491	O49	0.029600	0.947800	0.861400
O501	O50	0.666000	0.443100	0.557700
O511	O51	0.878900	0.487400	0.578200
O521	O52	0.769900	0.442700	0.600500
