data_LUCDIW_clean_PM
_symmetry_space_group_name_H-M	'P1'
_cell_length_a	12.201500
_cell_length_b	12.367800
_cell_length_c	13.520300
_cell_angle_alpha	102.222000
_cell_angle_beta	98.704000
_cell_angle_gamma	106.480000
_symmetry_Int_Tables_number 1

loop_
_symmetry_equiv_pos_as_xyz
'x,y,z'

loop_
_atom_site_label
_atom_site_type_symbol
_atom_site_fract_x
_atom_site_fract_y
_atom_site_fract_z
Ce11	Ce1	0.325140	0.480910	0.453960
Ce21	Ce2	0.674860	0.519090	0.546040
H11	H1	0.037500	0.356700	0.111800
H21	H2	0.202200	0.699900	0.205800
H31	H3	0.894100	0.278500	0.944100
H41	H4	0.585100	0.229500	0.543800
H51	H5	0.261000	0.051100	0.378900
H61	H6	0.711800	0.122100	0.609100
H71	H7	0.366800	0.469000	0.134200
H81	H8	0.712800	0.531100	0.208400
H91	H9	0.274100	0.462300	0.955500
H101	H10	0.962500	0.643300	0.888200
H111	H11	0.797800	0.300100	0.794200
H121	H12	0.105900	0.721500	0.055900
H131	H13	0.414900	0.770500	0.456200
H141	H14	0.739000	0.948900	0.621100
H151	H15	0.288200	0.877900	0.390900
H161	H16	0.633200	0.531000	0.865800
H171	H17	0.287200	0.468900	0.791600
H181	H18	0.725900	0.537700	0.044500
C11	C1	0.188500	0.509100	0.271800
C21	C2	0.990000	0.442900	0.004700
C31	C3	0.051600	0.430600	0.100600
C41	C4	0.127500	0.523300	0.172500
C51	C5	0.148600	0.634800	0.156300
C61	C6	0.910400	0.352600	0.933200
C71	C7	0.402200	0.269900	0.452700
C81	C8	0.544600	0.052300	0.523100
C91	C9	0.525500	0.158500	0.513200
C101	C10	0.422100	0.157200	0.460100
C111	C11	0.332600	0.051700	0.414700
C121	C12	0.651300	0.051800	0.577700
C131	C13	0.527500	0.493900	0.297300
C141	C14	0.445500	0.488600	0.012500
C151	C15	0.438800	0.483200	0.115600
C161	C16	0.536500	0.498400	0.186800
C171	C17	0.645700	0.520100	0.159200
C181	C18	0.346600	0.475000	0.937800
C191	C19	0.811500	0.490900	0.728200
C201	C20	0.010000	0.557100	0.995300
C211	C21	0.948400	0.569400	0.899400
C221	C22	0.872500	0.476700	0.827500
C231	C23	0.851400	0.365200	0.843700
C241	C24	0.089600	0.647400	0.066800
C251	C25	0.597800	0.730100	0.547300
C261	C26	0.455400	0.947700	0.476900
C271	C27	0.474500	0.841500	0.486800
C281	C28	0.577900	0.842800	0.539900
C291	C29	0.667400	0.948300	0.585300
C301	C30	0.348700	0.948200	0.422300
C311	C31	0.472500	0.506100	0.702700
C321	C32	0.554500	0.511400	0.987500
C331	C33	0.561200	0.516800	0.884400
C341	C34	0.463500	0.501600	0.813200
C351	C35	0.354300	0.479900	0.840800
C361	C36	0.653400	0.525000	0.062200
O11	O1	0.165900	0.408700	0.287500
O21	O2	0.262200	0.598800	0.335500
O31	O3	0.301900	0.266100	0.414300
O41	O4	0.484700	0.363700	0.485800
O51	O5	0.426200	0.463100	0.312200
O61	O6	0.621900	0.520700	0.361300
O71	O7	0.834100	0.591300	0.712500
O81	O8	0.737800	0.401200	0.664500
O91	O9	0.698100	0.733900	0.585700
O101	O10	0.515300	0.636300	0.514200
O111	O11	0.573800	0.536900	0.687800
O121	O12	0.378100	0.479300	0.638700
