data_LUDVIP_clean_PM
_symmetry_space_group_name_H-M	'P1'
_cell_length_a	15.096000
_cell_length_b	15.677600
_cell_length_c	31.846000
_cell_angle_alpha	93.630500
_cell_angle_beta	90.000000
_cell_angle_gamma	118.780000
_symmetry_Int_Tables_number 1

loop_
_symmetry_equiv_pos_as_xyz
'x,y,z'

loop_
_atom_site_label
_atom_site_type_symbol
_atom_site_fract_x
_atom_site_fract_y
_atom_site_fract_z
Zn11	Zn1	0.938550	0.586200	0.195750
Zn21	Zn2	0.545680	0.856460	0.883530
Zn31	Zn3	0.101260	0.379820	0.002210
Zn41	Zn4	0.647650	0.586200	0.695750
Zn51	Zn5	0.310780	0.856460	0.383530
Zn61	Zn6	0.278560	0.379820	0.502210
H11	H1	0.196200	0.268200	0.951300
H21	H2	0.229800	0.143200	0.960800
H31	H3	0.042900	0.068000	0.059400
H41	H4	0.016900	0.198800	0.048000
H51	H5	0.410200	0.769000	0.952900
H61	H6	0.306900	0.797200	0.000400
H71	H7	0.404200	0.060000	0.954600
H81	H8	0.514500	0.029400	0.912500
H91	H9	0.108200	0.652200	0.138900
H101	H10	0.183500	0.753400	0.085500
H111	H11	0.986800	0.856000	0.102400
H121	H12	0.911500	0.746800	0.154100
H131	H13	0.100100	0.482200	0.086900
H141	H14	0.198500	0.550800	0.147800
H151	H15	0.389900	0.456600	0.103000
H161	H16	0.288800	0.398200	0.041800
H171	H17	0.501700	0.858800	0.347300
H181	H18	0.543900	0.784000	0.291000
H191	H19	0.247000	0.629400	0.257300
H201	H20	0.211800	0.697000	0.317700
H211	H21	0.825600	0.655400	0.257500
H221	H22	0.680000	0.667800	0.258300
H231	H23	0.596500	0.515000	0.145300
H241	H24	0.742300	0.503400	0.147300
H251	H25	0.072000	0.268200	0.451300
H261	H26	0.913400	0.143200	0.460800
H271	H27	0.025100	0.068000	0.559400
H281	H28	0.181900	0.198800	0.548000
H291	H29	0.358800	0.769000	0.452900
H301	H30	0.490300	0.797200	0.500400
H311	H31	0.655800	0.060000	0.454600
H321	H32	0.514900	0.029400	0.412500
H331	H33	0.544000	0.652200	0.638900
H341	H34	0.569900	0.753400	0.585500
H351	H35	0.869200	0.856000	0.602400
H361	H36	0.835300	0.746800	0.654100
H371	H37	0.382100	0.482200	0.586900
H381	H38	0.352300	0.550800	0.647800
H391	H39	0.066700	0.456600	0.603000
H401	H40	0.109400	0.398200	0.541800
H411	H41	0.357100	0.858800	0.847300
H421	H42	0.240100	0.784000	0.791000
H431	H43	0.382400	0.629400	0.757300
H441	H44	0.485200	0.697000	0.817700
H451	H45	0.829800	0.655400	0.757500
H461	H46	0.987800	0.667800	0.758300
H471	H47	0.918500	0.515000	0.645300
H481	H48	0.761100	0.503400	0.647300
C11	C1	0.148700	0.889400	0.057500
C21	C2	0.266700	0.943600	0.007600
C31	C3	0.169400	0.016200	0.020300
C41	C4	0.166400	0.228000	0.973900
C51	C5	0.186200	0.153600	0.979400
C61	C6	0.143700	0.092800	0.011600
C71	C7	0.076600	0.109400	0.037500
C81	C8	0.061300	0.187400	0.030200
C91	C9	0.410100	0.829600	0.953700
C101	C10	0.346600	0.845000	0.981600
C111	C11	0.342800	0.931800	0.981000
C121	C12	0.404700	0.999800	0.955300
C131	C13	0.469600	0.980400	0.929600
C141	C14	0.082100	0.693400	0.130800
C151	C15	0.129400	0.755400	0.099900
C161	C16	0.097400	0.820400	0.090100
C171	C17	0.013500	0.814800	0.109700
C181	C18	0.968000	0.748600	0.140200
C191	C19	0.378000	0.559800	0.169100
C201	C20	0.422400	0.649400	0.231700
C211	C21	0.528400	0.602200	0.200500
C221	C22	0.160800	0.478600	0.090000
C231	C23	0.219100	0.519800	0.126400
C241	C24	0.309000	0.515600	0.131800
C251	C25	0.332400	0.465600	0.100100
C261	C26	0.270300	0.428800	0.064200
C271	C27	0.449100	0.810000	0.329300
C281	C28	0.475100	0.766800	0.295300
C291	C29	0.399300	0.698600	0.268000
C301	C30	0.300500	0.674600	0.276000
C311	C31	0.280300	0.717200	0.311500
C321	C32	0.778600	0.626800	0.234300
C331	C33	0.692000	0.634000	0.235100
C341	C34	0.621800	0.592000	0.201900
C351	C35	0.642700	0.544000	0.168700
C361	C36	0.729900	0.538400	0.169900
C371	C37	0.740700	0.889400	0.557500
C381	C38	0.676900	0.943600	0.507600
C391	C39	0.846800	0.016200	0.520300
C401	C40	0.061600	0.228000	0.473900
C411	C41	0.967400	0.153600	0.479400
C421	C42	0.949100	0.092800	0.511600
C431	C43	0.032800	0.109400	0.537500
C441	C44	0.126100	0.187400	0.530200
C451	C45	0.419500	0.829600	0.453700
C461	C46	0.498400	0.845000	0.481600
C471	C47	0.589000	0.931800	0.481000
C481	C48	0.595100	0.999800	0.455300
C491	C49	0.510800	0.980400	0.429600
C501	C50	0.611300	0.693400	0.630800
C511	C51	0.626000	0.755400	0.599900
C521	C52	0.723000	0.820400	0.590100
C531	C53	0.801300	0.814800	0.609700
C541	C54	0.780600	0.748600	0.640200
C551	C55	0.181800	0.559800	0.669100
C561	C56	0.227000	0.649400	0.731700
C571	C57	0.073800	0.602200	0.700500
C581	C58	0.317800	0.478600	0.590000
C591	C59	0.300700	0.519800	0.626400
C601	C60	0.206600	0.515600	0.631800
C611	C61	0.133200	0.465600	0.600100
C621	C62	0.158500	0.428800	0.564200
C631	C63	0.360900	0.810000	0.829300
C641	C64	0.291700	0.766800	0.795300
C651	C65	0.299300	0.698600	0.768000
C661	C66	0.374100	0.674600	0.776000
C671	C67	0.436900	0.717200	0.811500
C681	C68	0.848200	0.626800	0.734300
C691	C69	0.942000	0.634000	0.735100
C701	C70	0.970200	0.592000	0.701900
C711	C71	0.901300	0.544000	0.668700
C721	C72	0.808500	0.538400	0.669900
I11	I1	0.027600	0.654400	0.267300
I21	I2	0.930000	0.432940	0.159920
I31	I3	0.674900	0.014400	0.847500
I41	I4	0.583600	0.727000	0.916550
I51	I5	0.221490	0.480620	0.947080
I61	I6	0.926150	0.349020	0.018910
I71	I7	0.626800	0.654400	0.767300
I81	I8	0.502940	0.432940	0.659920
I91	I9	0.339500	0.014400	0.347500
I101	I10	0.143400	0.727000	0.416550
I111	I11	0.259130	0.480620	0.447080
I121	I12	0.422870	0.349020	0.518910
N11	N1	0.225900	0.883600	0.037600
N21	N2	0.243600	0.012600	0.997200
N31	N3	0.118300	0.954000	0.049370
N41	N4	0.104400	0.247000	0.000200
N51	N5	0.470300	0.896400	0.928400
N61	N6	0.001000	0.687800	0.150400
N71	N7	0.352300	0.603000	0.200900
N81	N8	0.514700	0.654400	0.232800
N91	N9	0.465200	0.557600	0.167350
N101	N10	0.185000	0.434800	0.059600
N111	N11	0.353000	0.785600	0.337400
N121	N12	0.799900	0.581000	0.202060
N131	N13	0.657700	0.883600	0.537600
N141	N14	0.769000	0.012600	0.497200
N151	N15	0.835700	0.954000	0.549370
N161	N16	0.142600	0.247000	0.500200
N171	N17	0.426100	0.896400	0.428400
N181	N18	0.686800	0.687800	0.650400
N191	N19	0.250700	0.603000	0.700900
N201	N20	0.139700	0.654400	0.732800
N211	N21	0.092400	0.557600	0.667350
N221	N22	0.249800	0.434800	0.559600
N231	N23	0.432600	0.785600	0.837400
N241	N24	0.781100	0.581000	0.702060
Zn71	Zn7	0.352350	0.413800	0.304250
Zn81	Zn8	0.689220	0.143540	0.616470
Zn91	Zn9	0.721440	0.620180	0.497790
Zn101	Zn10	0.061450	0.413800	0.804250
Zn111	Zn11	0.454320	0.143540	0.116470
Zn121	Zn12	0.898740	0.620180	0.997790
H491	H49	0.928000	0.731800	0.548700
H501	H50	0.086600	0.856800	0.539200
H511	H51	0.974900	0.932000	0.440600
H521	H52	0.818100	0.801200	0.452000
H531	H53	0.641200	0.231000	0.547100
H541	H54	0.509700	0.202800	0.499600
H551	H55	0.344200	0.940000	0.545400
H561	H56	0.485100	0.970600	0.587500
H571	H57	0.456000	0.347800	0.361100
H581	H58	0.430100	0.246600	0.414500
H591	H59	0.130800	0.144000	0.397600
H601	H60	0.164700	0.253200	0.345900
H611	H61	0.617900	0.517800	0.413100
H621	H62	0.647700	0.449200	0.352200
H631	H63	0.933300	0.543400	0.397000
H641	H64	0.890600	0.601800	0.458200
H651	H65	0.642900	0.141200	0.152700
H661	H66	0.759900	0.216000	0.209000
H671	H67	0.617600	0.370600	0.242700
H681	H68	0.514800	0.303000	0.182300
H691	H69	0.170200	0.344600	0.242500
H701	H70	0.012200	0.332200	0.241700
H711	H71	0.081500	0.485000	0.354700
H721	H72	0.238900	0.496600	0.352700
H731	H73	0.803800	0.731800	0.048700
H741	H74	0.770200	0.856800	0.039200
H751	H75	0.957100	0.932000	0.940600
H761	H76	0.983100	0.801200	0.952000
H771	H77	0.589800	0.231000	0.047100
H781	H78	0.693100	0.202800	0.999600
H791	H79	0.595800	0.940000	0.045400
H801	H80	0.485500	0.970600	0.087500
H811	H81	0.891800	0.347800	0.861100
H821	H82	0.816500	0.246600	0.914500
H831	H83	0.013200	0.144000	0.897600
H841	H84	0.088500	0.253200	0.845900
H851	H85	0.899900	0.517800	0.913100
H861	H86	0.801500	0.449200	0.852200
H871	H87	0.610100	0.543400	0.897000
H881	H88	0.711200	0.601800	0.958200
H891	H89	0.498300	0.141200	0.652700
H901	H90	0.456100	0.216000	0.709000
H911	H91	0.753000	0.370600	0.742700
H921	H92	0.788200	0.303000	0.682300
H931	H93	0.174400	0.344600	0.742500
H941	H94	0.320000	0.332200	0.741700
H951	H95	0.403500	0.485000	0.854700
H961	H96	0.257700	0.496600	0.852700
C731	C73	0.259300	0.110600	0.442500
C741	C74	0.323100	0.056400	0.492400
C751	C75	0.153200	0.983800	0.479700
C761	C76	0.938400	0.772000	0.526100
C771	C77	0.032600	0.846400	0.520600
C781	C78	0.050900	0.907200	0.488400
C791	C79	0.967200	0.890600	0.462500
C801	C80	0.873900	0.812600	0.469800
C811	C81	0.580500	0.170400	0.546300
C821	C82	0.501600	0.155000	0.518400
C831	C83	0.411000	0.068200	0.519000
C841	C84	0.404900	0.000200	0.544700
C851	C85	0.489200	0.019600	0.570400
C861	C86	0.388700	0.306600	0.369200
C871	C87	0.374000	0.244600	0.400100
C881	C88	0.277000	0.179600	0.409900
C891	C89	0.198700	0.185200	0.390300
C901	C90	0.219400	0.251400	0.359800
C911	C91	0.818200	0.440200	0.330900
C921	C92	0.773000	0.350600	0.268300
C931	C93	0.926200	0.397800	0.299500
C941	C94	0.682200	0.521400	0.410000
C951	C95	0.699300	0.480200	0.373600
C961	C96	0.793400	0.484400	0.368200
C971	C97	0.866800	0.534400	0.399900
C981	C98	0.841500	0.571200	0.435800
C991	C99	0.639100	0.190000	0.170700
C1001	C100	0.708300	0.233200	0.204700
C1011	C101	0.700700	0.301400	0.232000
C1021	C102	0.625900	0.325400	0.224000
C1031	C103	0.563100	0.282800	0.188500
C1041	C104	0.151800	0.373200	0.265700
C1051	C105	0.058000	0.366000	0.264900
C1061	C106	0.029800	0.408000	0.298100
C1071	C107	0.098700	0.456000	0.331300
C1081	C108	0.191500	0.461600	0.330100
C1091	C109	0.851300	0.110600	0.942500
C1101	C110	0.733300	0.056400	0.992400
C1111	C111	0.830600	0.983800	0.979700
C1121	C112	0.833600	0.772000	0.026100
C1131	C113	0.813800	0.846400	0.020600
C1141	C114	0.856300	0.907200	0.988400
C1151	C115	0.923400	0.890600	0.962500
C1161	C116	0.938700	0.812600	0.969800
C1171	C117	0.589900	0.170400	0.046300
C1181	C118	0.653400	0.155000	0.018400
C1191	C119	0.657200	0.068200	0.019000
C1201	C120	0.595300	0.000200	0.044700
C1211	C121	0.530400	0.019600	0.070400
C1221	C122	0.917900	0.306600	0.869200
C1231	C123	0.870600	0.244600	0.900100
C1241	C124	0.902600	0.179600	0.909900
C1251	C125	0.986500	0.185200	0.890300
C1261	C126	0.032000	0.251400	0.859800
C1271	C127	0.622000	0.440200	0.830900
C1281	C128	0.577600	0.350600	0.768300
C1291	C129	0.471600	0.397800	0.799500
C1301	C130	0.839200	0.521400	0.910000
C1311	C131	0.780900	0.480200	0.873600
C1321	C132	0.691000	0.484400	0.868200
C1331	C133	0.667600	0.534400	0.899900
C1341	C134	0.729700	0.571200	0.935800
C1351	C135	0.550900	0.190000	0.670700
C1361	C136	0.524900	0.233200	0.704700
C1371	C137	0.600700	0.301400	0.732000
C1381	C138	0.699500	0.325400	0.724000
C1391	C139	0.719700	0.282800	0.688500
C1401	C140	0.221400	0.373200	0.765700
C1411	C141	0.308000	0.366000	0.764900
C1421	C142	0.378200	0.408000	0.798100
C1431	C143	0.357300	0.456000	0.831300
C1441	C144	0.270100	0.461600	0.830100
I131	I13	0.373200	0.345600	0.232700
I141	I14	0.497060	0.567060	0.340080
I151	I15	0.660500	0.985600	0.652500
I161	I16	0.856600	0.273000	0.583450
I171	I17	0.740870	0.519380	0.552920
I181	I18	0.577130	0.650980	0.481090
I191	I19	0.972400	0.345600	0.732700
I201	I20	0.070000	0.567060	0.840080
I211	I21	0.325100	0.985600	0.152500
I221	I22	0.416400	0.273000	0.083450
I231	I23	0.778510	0.519380	0.052920
I241	I24	0.073850	0.650980	0.981090
N251	N25	0.342300	0.116400	0.462400
N261	N26	0.231000	0.987400	0.502800
N271	N27	0.164300	0.046000	0.450630
N281	N28	0.857400	0.753000	0.499800
N291	N29	0.573900	0.103600	0.571600
N301	N30	0.313200	0.312200	0.349600
N311	N31	0.749300	0.397000	0.299100
N321	N32	0.860300	0.345600	0.267200
N331	N33	0.907600	0.442400	0.332650
N341	N34	0.750200	0.565200	0.440400
N351	N35	0.567400	0.214400	0.162600
N361	N36	0.218900	0.419000	0.297940
N371	N37	0.774100	0.116400	0.962400
N381	N38	0.756400	0.987400	0.002800
N391	N39	0.881700	0.046000	0.950630
N401	N40	0.895600	0.753000	0.999800
N411	N41	0.529700	0.103600	0.071600
N421	N42	0.999000	0.312200	0.849600
N431	N43	0.647700	0.397000	0.799100
N441	N44	0.485300	0.345600	0.767200
N451	N45	0.534800	0.442400	0.832650
N461	N46	0.815000	0.565200	0.940400
N471	N47	0.647000	0.214400	0.662600
N481	N48	0.200100	0.419000	0.797940
