data_LUFBUL_clean_PM
_symmetry_space_group_name_H-M	'P1'
_cell_length_a	13.063000
_cell_length_b	9.901700
_cell_length_c	17.472000
_cell_angle_alpha	90.000000
_cell_angle_beta	90.000000
_cell_angle_gamma	90.000000
_symmetry_Int_Tables_number 1

loop_
_symmetry_equiv_pos_as_xyz
'x,y,z'

loop_
_atom_site_label
_atom_site_type_symbol
_atom_site_fract_x
_atom_site_fract_y
_atom_site_fract_z
O11	O1	0.150100	0.052400	0.917700
O21	O2	0.226200	0.240400	0.881500
N11	N1	0.861900	0.504500	0.260600
N21	N2	0.012700	0.549000	0.207000
N31	N3	0.963700	0.451300	0.167200
C11	C1	0.948400	0.577300	0.263400
H11	H1	0.961900	0.641200	0.301100
C21	C2	0.874700	0.428600	0.199100
H21	H2	0.826800	0.367100	0.180900
C31	C3	0.011800	0.385100	0.104300
C41	C4	0.095100	0.442400	0.069900
H31	H3	0.120200	0.525100	0.086800
C51	C5	0.975700	0.263700	0.080600
H41	H4	0.918200	0.226100	0.103600
C61	C6	0.141200	0.375700	0.009800
H51	H5	0.195700	0.416800	0.984700
C71	C7	0.025300	0.195500	0.021200
H61	H6	0.001400	0.111600	0.005300
C81	C8	0.109500	0.252000	0.986300
C91	C9	0.165600	0.178300	0.925400
O31	O3	0.349900	0.947600	0.917700
O41	O4	0.273800	0.759600	0.881500
N41	N4	0.638100	0.495500	0.260600
N51	N5	0.487300	0.451000	0.207000
N61	N6	0.536300	0.548700	0.167200
C101	C10	0.551600	0.422700	0.263400
H71	H7	0.538100	0.358800	0.301100
C111	C11	0.625300	0.571400	0.199100
H81	H8	0.673200	0.632900	0.180900
C121	C12	0.488200	0.614900	0.104300
C131	C13	0.404900	0.557600	0.069900
H91	H9	0.379800	0.474900	0.086800
C141	C14	0.524300	0.736300	0.080600
H101	H10	0.581800	0.773900	0.103600
C151	C15	0.358800	0.624300	0.009800
H111	H11	0.304300	0.583200	0.984700
C161	C16	0.474700	0.804500	0.021200
H121	H12	0.498600	0.888400	0.005300
C171	C17	0.390500	0.748000	0.986300
C181	C18	0.334400	0.821700	0.925400
O51	O5	0.650100	0.447600	0.417700
O61	O6	0.726200	0.259600	0.381500
N71	N7	0.361900	0.995500	0.760600
N81	N8	0.512700	0.951000	0.707000
N91	N9	0.463700	0.048700	0.667200
C191	C19	0.448400	0.922700	0.763400
H131	H13	0.461900	0.858800	0.801100
C201	C20	0.374700	0.071400	0.699100
H141	H14	0.326800	0.132900	0.680900
C211	C21	0.511800	0.114900	0.604300
C221	C22	0.595100	0.057600	0.569900
H151	H15	0.620200	0.974900	0.586800
C231	C23	0.475700	0.236300	0.580600
H161	H16	0.418200	0.273900	0.603600
C241	C24	0.641200	0.124300	0.509800
H171	H17	0.695700	0.083200	0.484700
C251	C25	0.525300	0.304500	0.521200
H181	H18	0.501400	0.388400	0.505300
C261	C26	0.609500	0.248000	0.486300
C271	C27	0.665600	0.321700	0.425400
O71	O7	0.849900	0.552400	0.417700
O81	O8	0.773800	0.740400	0.381500
N101	N10	0.138100	0.004500	0.760600
N111	N11	0.987300	0.049000	0.707000
N121	N12	0.036300	0.951300	0.667200
C281	C28	0.051600	0.077300	0.763400
H191	H19	0.038100	0.141200	0.801100
C291	C29	0.125300	0.928600	0.699100
H201	H20	0.173200	0.867100	0.680900
C301	C30	0.988200	0.885100	0.604300
C311	C31	0.904900	0.942400	0.569900
H211	H21	0.879800	0.025100	0.586800
C321	C32	0.024300	0.763700	0.580600
H221	H22	0.081800	0.726100	0.603600
C331	C33	0.858800	0.875700	0.509800
H231	H23	0.804300	0.916800	0.484700
C341	C34	0.974700	0.695500	0.521200
H241	H24	0.998600	0.611600	0.505300
C351	C35	0.890500	0.752000	0.486300
C361	C36	0.834400	0.678300	0.425400
Cu11	Cu1	0.750000	0.500000	0.338230
Cu21	Cu2	0.250000	0.000000	0.838230
O91	O9	0.349900	0.552400	0.582300
O101	O10	0.273800	0.740400	0.618500
N131	N13	0.638100	0.004500	0.239400
N141	N14	0.487300	0.049000	0.293000
N151	N15	0.536300	0.951300	0.332800
C371	C37	0.551600	0.077300	0.236600
H251	H25	0.538100	0.141200	0.198900
C381	C38	0.625300	0.928600	0.300900
H261	H26	0.673200	0.867100	0.319100
C391	C39	0.488200	0.885100	0.395700
C401	C40	0.404900	0.942400	0.430100
H271	H27	0.379800	0.025100	0.413200
C411	C41	0.524300	0.763700	0.419400
H281	H28	0.581800	0.726100	0.396400
C421	C42	0.358800	0.875700	0.490200
H291	H29	0.304300	0.916800	0.515300
C431	C43	0.474700	0.695500	0.478800
H301	H30	0.498600	0.611600	0.494700
C441	C44	0.390500	0.752000	0.513700
C451	C45	0.334400	0.678300	0.574600
O111	O11	0.150100	0.447600	0.582300
O121	O12	0.226200	0.259600	0.618500
N161	N16	0.861900	0.995500	0.239400
N171	N17	0.012700	0.951000	0.293000
N181	N18	0.963700	0.048700	0.332800
C461	C46	0.948400	0.922700	0.236600
H311	H31	0.961900	0.858800	0.198900
C471	C47	0.874700	0.071400	0.300900
H321	H32	0.826800	0.132900	0.319100
C481	C48	0.011800	0.114900	0.395700
C491	C49	0.095100	0.057600	0.430100
H331	H33	0.120200	0.974900	0.413200
C501	C50	0.975700	0.236300	0.419400
H341	H34	0.918200	0.273900	0.396400
C511	C51	0.141200	0.124300	0.490200
H351	H35	0.195700	0.083200	0.515300
C521	C52	0.025300	0.304500	0.478800
H361	H36	0.001400	0.388400	0.494700
C531	C53	0.109500	0.248000	0.513700
C541	C54	0.165600	0.321700	0.574600
O131	O13	0.849900	0.947600	0.082300
O141	O14	0.773800	0.759600	0.118500
N191	N19	0.138100	0.495500	0.739400
N201	N20	0.987300	0.451000	0.793000
N211	N21	0.036300	0.548700	0.832800
C551	C55	0.051600	0.422700	0.736600
H371	H37	0.038100	0.358800	0.698900
C561	C56	0.125300	0.571400	0.800900
H381	H38	0.173200	0.632900	0.819100
C571	C57	0.988200	0.614900	0.895700
C581	C58	0.904900	0.557600	0.930100
H391	H39	0.879800	0.474900	0.913200
C591	C59	0.024300	0.736300	0.919400
H401	H40	0.081800	0.773900	0.896400
C601	C60	0.858800	0.624300	0.990200
H411	H41	0.804300	0.583200	0.015300
C611	C61	0.974700	0.804500	0.978800
H421	H42	0.998600	0.888400	0.994700
C621	C62	0.890500	0.748000	0.013700
C631	C63	0.834400	0.821700	0.074600
O151	O15	0.650100	0.052400	0.082300
O161	O16	0.726200	0.240400	0.118500
N221	N22	0.361900	0.504500	0.739400
N231	N23	0.512700	0.549000	0.793000
N241	N24	0.463700	0.451300	0.832800
C641	C64	0.448400	0.577300	0.736600
H431	H43	0.461900	0.641200	0.698900
C651	C65	0.374700	0.428600	0.800900
H441	H44	0.326800	0.367100	0.819100
C661	C66	0.511800	0.385100	0.895700
C671	C67	0.595100	0.442400	0.930100
H451	H45	0.620200	0.525100	0.913200
C681	C68	0.475700	0.263700	0.919400
H461	H46	0.418200	0.226100	0.896400
C691	C69	0.641200	0.375700	0.990200
H471	H47	0.695700	0.416800	0.015300
C701	C70	0.525300	0.195500	0.978800
H481	H48	0.501400	0.111600	0.994700
C711	C71	0.609500	0.252000	0.013700
C721	C72	0.665600	0.178300	0.074600
Cu31	Cu3	0.750000	0.000000	0.161770
Cu41	Cu4	0.250000	0.500000	0.661770
