data_LUFNAC01_clean_PM
_symmetry_space_group_name_H-M	'P1'
_cell_length_a	11.885000
_cell_length_b	11.885000
_cell_length_c	16.344000
_cell_angle_alpha	73.483100
_cell_angle_beta	73.483100
_cell_angle_gamma	78.510000
_symmetry_Int_Tables_number 1

loop_
_symmetry_equiv_pos_as_xyz
'x,y,z'

loop_
_atom_site_label
_atom_site_type_symbol
_atom_site_fract_x
_atom_site_fract_y
_atom_site_fract_z
Mn11	Mn1	0.332500	0.115380	0.547060
Mn21	Mn2	0.884620	0.667500	0.952940
Mn31	Mn3	0.667500	0.884620	0.452940
Mn41	Mn4	0.115380	0.332500	0.047060
H11	H1	0.952700	0.664700	0.536800
H21	H2	0.987100	0.642300	0.744900
H31	H3	0.163800	0.313000	0.774600
H41	H4	0.075200	0.479800	0.546400
H51	H5	0.877600	0.766400	0.671800
H61	H6	0.861900	0.827300	0.576600
H71	H7	0.134200	0.795000	0.499700
H81	H8	0.922200	0.959600	0.679200
H91	H9	0.067900	0.073700	0.654600
H101	H10	0.274300	0.913100	0.482100
H111	H11	0.335300	0.047300	0.963200
H121	H12	0.357700	0.012900	0.755100
H131	H13	0.687000	0.836200	0.725400
H141	H14	0.520200	0.924800	0.953600
H151	H15	0.233600	0.122400	0.828200
H161	H16	0.172700	0.138100	0.923400
H171	H17	0.205000	0.865800	0.000300
H181	H18	0.040400	0.077800	0.820800
H191	H19	0.926300	0.932100	0.845400
H201	H20	0.086900	0.725700	0.017900
H211	H21	0.047300	0.335300	0.463200
H221	H22	0.012900	0.357700	0.255100
H231	H23	0.836200	0.687000	0.225400
H241	H24	0.924800	0.520200	0.453600
H251	H25	0.122400	0.233600	0.328200
H261	H26	0.138100	0.172700	0.423400
H271	H27	0.865800	0.205000	0.500300
H281	H28	0.077800	0.040400	0.320800
H291	H29	0.932100	0.926300	0.345400
H301	H30	0.725700	0.086900	0.517900
H311	H31	0.664700	0.952700	0.036800
H321	H32	0.642300	0.987100	0.244900
H331	H33	0.313000	0.163800	0.274600
H341	H34	0.479800	0.075200	0.046400
H351	H35	0.766400	0.877600	0.171800
H361	H36	0.827300	0.861900	0.076600
H371	H37	0.795000	0.134200	0.999700
H381	H38	0.959600	0.922200	0.179200
H391	H39	0.073700	0.067900	0.154600
H401	H40	0.913100	0.274300	0.982100
C11	C1	0.018300	0.578300	0.636500
C21	C2	0.074500	0.475700	0.774400
C31	C3	0.189800	0.277600	0.616400
C41	C4	0.126300	0.380700	0.655200
C51	C5	0.021000	0.576400	0.722300
C61	C6	0.127400	0.379000	0.740600
C71	C7	0.013400	0.858600	0.595800
C81	C8	0.073400	0.475400	0.866500
C91	C9	0.073700	0.479300	0.603700
C101	C10	0.918800	0.782800	0.610000
C111	C11	0.119200	0.849400	0.533900
C121	C12	0.994100	0.946500	0.639500
C131	C13	0.082800	0.015400	0.623700
C141	C14	0.202600	0.922000	0.523200
C151	C15	0.421700	0.981700	0.863500
C161	C16	0.524300	0.925500	0.725600
C171	C17	0.722400	0.810200	0.883600
C181	C18	0.619300	0.873700	0.844800
C191	C19	0.423600	0.979000	0.777700
C201	C20	0.621000	0.872600	0.759400
C211	C21	0.141400	0.986600	0.904200
C221	C22	0.524600	0.926600	0.633500
C231	C23	0.520700	0.926300	0.896300
C241	C24	0.217200	0.081200	0.890000
C251	C25	0.150600	0.880800	0.966100
C261	C26	0.053500	0.005900	0.860500
C271	C27	0.984600	0.917200	0.876300
C281	C28	0.078000	0.797400	0.976800
C291	C29	0.981700	0.421700	0.363500
C301	C30	0.925500	0.524300	0.225600
C311	C31	0.810200	0.722400	0.383600
C321	C32	0.873700	0.619300	0.344800
C331	C33	0.979000	0.423600	0.277700
C341	C34	0.872600	0.621000	0.259400
C351	C35	0.986600	0.141400	0.404200
C361	C36	0.926600	0.524600	0.133500
C371	C37	0.926300	0.520700	0.396300
C381	C38	0.081200	0.217200	0.390000
C391	C39	0.880800	0.150600	0.466100
C401	C40	0.005900	0.053500	0.360500
C411	C41	0.917200	0.984600	0.376300
C421	C42	0.797400	0.078000	0.476800
C431	C43	0.578300	0.018300	0.136500
C441	C44	0.475700	0.074500	0.274400
C451	C45	0.277600	0.189800	0.116400
C461	C46	0.380700	0.126300	0.155200
C471	C47	0.576400	0.021000	0.222300
C481	C48	0.379000	0.127400	0.240600
C491	C49	0.858600	0.013400	0.095800
C501	C50	0.475400	0.073400	0.366500
C511	C51	0.479300	0.073700	0.103700
C521	C52	0.782800	0.918800	0.110000
C531	C53	0.849400	0.119200	0.033900
C541	C54	0.946500	0.994100	0.139500
C551	C55	0.015400	0.082800	0.123700
C561	C56	0.922000	0.202600	0.023200
N11	N1	0.186300	0.004500	0.568500
N21	N2	0.962200	0.672200	0.585100
N31	N3	0.995500	0.813700	0.931500
N41	N4	0.327800	0.037800	0.914900
N51	N5	0.813700	0.995500	0.431500
N61	N6	0.037800	0.327800	0.414900
N71	N7	0.004500	0.186300	0.068500
N81	N8	0.672200	0.962200	0.085100
O11	O1	0.237500	0.188300	0.664400
O21	O2	0.197200	0.282800	0.536900
O31	O3	0.114400	0.380000	0.911200
O41	O4	0.037700	0.569900	0.891400
O51	O5	0.811700	0.762500	0.835600
O61	O6	0.717200	0.802800	0.963100
O71	O7	0.620000	0.885600	0.588800
O81	O8	0.430100	0.962300	0.608600
O91	O9	0.762500	0.811700	0.335600
O101	O10	0.802800	0.717200	0.463100
O111	O11	0.885600	0.620000	0.088800
O121	O12	0.962300	0.430100	0.108600
O131	O13	0.188300	0.237500	0.164400
O141	O14	0.282800	0.197200	0.036900
O151	O15	0.380000	0.114400	0.411200
O161	O16	0.569900	0.037700	0.391400
