data_LUFNAC04_clean_PM
_symmetry_space_group_name_H-M	'P1'
_cell_length_a	11.887000
_cell_length_b	11.887000
_cell_length_c	16.355000
_cell_angle_alpha	73.375900
_cell_angle_beta	73.375900
_cell_angle_gamma	78.419400
_symmetry_Int_Tables_number 1

loop_
_symmetry_equiv_pos_as_xyz
'x,y,z'

loop_
_atom_site_label
_atom_site_type_symbol
_atom_site_fract_x
_atom_site_fract_y
_atom_site_fract_z
Mn11	Mn1	0.832430	0.615870	0.546670
Mn21	Mn2	0.384130	0.167570	0.953330
Mn31	Mn3	0.167570	0.384130	0.453330
Mn41	Mn4	0.615870	0.832430	0.046670
H11	H1	0.166600	0.452600	0.037200
H21	H2	0.813500	0.663300	0.274500
H31	H3	0.142800	0.486000	0.245400
H41	H4	0.979900	0.573900	0.046600
H51	H5	0.328200	0.360800	0.078100
H61	H6	0.266900	0.378100	0.172900
H71	H7	0.293800	0.636200	0.003000
H81	H8	0.458700	0.423900	0.180300
H91	H9	0.577000	0.566200	0.152400
H101	H10	0.414200	0.773600	0.981800
H111	H11	0.547400	0.833400	0.462800
H121	H12	0.336700	0.186500	0.225500
H131	H13	0.514000	0.857200	0.254600
H141	H14	0.426100	0.020100	0.453400
H151	H15	0.639200	0.671800	0.421900
H161	H16	0.621900	0.733100	0.327100
H171	H17	0.363800	0.706200	0.497000
H181	H18	0.576100	0.541300	0.319700
H191	H19	0.433800	0.423000	0.347600
H201	H20	0.226400	0.585800	0.518200
H211	H21	0.833400	0.547400	0.962800
H221	H22	0.186500	0.336700	0.725500
H231	H23	0.857200	0.514000	0.754600
H241	H24	0.020100	0.426100	0.953400
H251	H25	0.671800	0.639200	0.921900
H261	H26	0.733100	0.621900	0.827100
H271	H27	0.706200	0.363800	0.997000
H281	H28	0.541300	0.576100	0.819700
H291	H29	0.423000	0.433800	0.847600
H301	H30	0.585800	0.226400	0.018200
H311	H31	0.452600	0.166600	0.537200
H321	H32	0.663300	0.813500	0.774500
H331	H33	0.486000	0.142800	0.745400
H341	H34	0.573900	0.979900	0.546600
H351	H35	0.360800	0.328200	0.578100
H361	H36	0.378100	0.266900	0.672900
H371	H37	0.636200	0.293800	0.503000
H381	H38	0.423900	0.458700	0.680300
H391	H39	0.566200	0.577000	0.652400
H401	H40	0.773600	0.414200	0.481800
C11	C1	0.976800	0.573200	0.273800
C21	C2	0.078400	0.518000	0.137600
C31	C3	0.777800	0.689200	0.116700
C41	C4	0.879500	0.626900	0.240300
C51	C5	0.881000	0.626000	0.155200
C61	C6	0.077100	0.519900	0.222700
C71	C7	0.976700	0.573100	0.366500
C81	C8	0.979300	0.573100	0.103800
C91	C9	0.359900	0.512100	0.096200
C101	C10	0.283800	0.418600	0.111000
C111	C11	0.350100	0.619700	0.035700
C121	C12	0.446700	0.494900	0.139400
C131	C13	0.517100	0.582300	0.122900
C141	C14	0.422700	0.702500	0.023500
C151	C15	0.426800	0.023200	0.226200
C161	C16	0.482000	0.921600	0.362400
C171	C17	0.310800	0.222200	0.383300
C181	C18	0.373100	0.120500	0.259700
C191	C19	0.374000	0.119000	0.344800
C201	C20	0.480100	0.922900	0.277300
C211	C21	0.426900	0.023300	0.133500
C221	C22	0.426900	0.020700	0.396200
C231	C23	0.487900	0.640100	0.403800
C241	C24	0.581400	0.716200	0.389000
C251	C25	0.380300	0.649900	0.464300
C261	C26	0.505100	0.553300	0.360600
C271	C27	0.417700	0.482900	0.377100
C281	C28	0.297500	0.577300	0.476500
C291	C29	0.023200	0.426800	0.726200
C301	C30	0.921600	0.482000	0.862400
C311	C31	0.222200	0.310800	0.883300
C321	C32	0.120500	0.373100	0.759700
C331	C33	0.119000	0.374000	0.844800
C341	C34	0.922900	0.480100	0.777300
C351	C35	0.023300	0.426900	0.633500
C361	C36	0.020700	0.426900	0.896200
C371	C37	0.640100	0.487900	0.903800
C381	C38	0.716200	0.581400	0.889000
C391	C39	0.649900	0.380300	0.964300
C401	C40	0.553300	0.505100	0.860600
C411	C41	0.482900	0.417700	0.877100
C421	C42	0.577300	0.297500	0.976500
C431	C43	0.573200	0.976800	0.773800
C441	C44	0.518000	0.078400	0.637600
C451	C45	0.689200	0.777800	0.616700
C461	C46	0.626900	0.879500	0.740300
C471	C47	0.626000	0.881000	0.655200
C481	C48	0.519900	0.077100	0.722700
C491	C49	0.573100	0.976700	0.866500
C501	C50	0.573100	0.979300	0.603800
C511	C51	0.512100	0.359900	0.596200
C521	C52	0.418600	0.283800	0.611000
C531	C53	0.619700	0.350100	0.535700
C541	C54	0.494900	0.446700	0.639400
C551	C55	0.582300	0.517100	0.622900
C561	C56	0.702500	0.422700	0.523500
N11	N1	0.173600	0.461800	0.085800
N21	N2	0.505300	0.686500	0.068300
N31	N3	0.538200	0.826400	0.414200
N41	N4	0.313500	0.494700	0.431700
N51	N5	0.826400	0.538200	0.914200
N61	N6	0.494700	0.313500	0.931700
N71	N7	0.461800	0.173600	0.585800
N81	N8	0.686500	0.505300	0.568300
O11	O1	0.689000	0.737400	0.163800
O21	O2	0.784900	0.696100	0.036300
O31	O3	0.069100	0.536700	0.392100
O41	O4	0.879600	0.613400	0.412400
O51	O5	0.262600	0.311000	0.336200
O61	O6	0.303900	0.215100	0.463700
O71	O7	0.463300	0.930900	0.107900
O81	O8	0.386600	0.120400	0.087600
O91	O9	0.311000	0.262600	0.836200
O101	O10	0.215100	0.303900	0.963700
O111	O11	0.930900	0.463300	0.607900
O121	O12	0.120400	0.386600	0.587600
O131	O13	0.737400	0.689000	0.663800
O141	O14	0.696100	0.784900	0.536300
O151	O15	0.536700	0.069100	0.892100
O161	O16	0.613400	0.879600	0.912400
