data_LUFQUZ02_clean_PM
_symmetry_space_group_name_H-M	'P1'
_cell_length_a	7.242100
_cell_length_b	7.266600
_cell_length_c	7.269600
_cell_angle_alpha	90.000000
_cell_angle_beta	90.000000
_cell_angle_gamma	90.000000
_symmetry_Int_Tables_number 1

loop_
_symmetry_equiv_pos_as_xyz
'x,y,z'

loop_
_atom_site_label
_atom_site_type_symbol
_atom_site_fract_x
_atom_site_fract_y
_atom_site_fract_z
Fe11	Fe1	0.000000	0.000000	0.000000
Ni11	Ni1	0.000000	0.500000	0.500000
H11	H1	0.659400	0.000000	0.733900
H21	H2	0.659400	0.000000	0.266100
H31	H3	0.340600	0.000000	0.733900
H41	H4	0.340600	0.000000	0.266100
C11	C1	0.000000	0.675700	0.688000
C21	C2	0.000000	0.324300	0.312000
C31	C3	0.000000	0.324300	0.688000
C41	C4	0.000000	0.675700	0.312000
C51	C5	0.596900	0.000000	0.845600
C61	C6	0.596900	0.000000	0.154400
C71	C7	0.403100	0.000000	0.845600
C81	C8	0.403100	0.000000	0.154400
N11	N1	0.000000	0.794900	0.791200
N21	N2	0.000000	0.205100	0.208800
N31	N3	0.000000	0.205100	0.791200
N41	N4	0.000000	0.794900	0.208800
N51	N5	0.692700	0.000000	0.000000
N61	N6	0.307300	0.000000	0.000000
