data_LUJSOA_clean_PM
_symmetry_space_group_name_H-M	'P1'
_cell_length_a	23.593300
_cell_length_b	13.845900
_cell_length_c	6.801000
_cell_angle_alpha	90.000000
_cell_angle_beta	95.195200
_cell_angle_gamma	90.000000
_symmetry_Int_Tables_number 1

loop_
_symmetry_equiv_pos_as_xyz
'x,y,z'

loop_
_atom_site_label
_atom_site_type_symbol
_atom_site_fract_x
_atom_site_fract_y
_atom_site_fract_z
C11	C1	0.575970	0.054520	0.766730
C21	C2	0.631000	0.109870	0.784880
O11	O1	0.552630	0.033580	0.601140
O21	O2	0.550540	0.037990	0.915420
Ca11	Ca1	0.541790	0.022350	0.263280
N11	N1	0.662690	0.090370	0.295200
O31	O3	0.648420	0.999710	0.289900
O41	O4	0.716030	0.114920	0.303500
O51	O5	0.623380	0.156310	0.276400
Ca21	Ca2	0.751130	0.940450	0.299430
N21	N2	0.681390	0.711820	0.229390
O61	O6	0.633600	0.668290	0.177420
O71	O7	0.681690	0.804030	0.262400
O81	O8	0.729290	0.666030	0.225100
C31	C3	0.862960	0.041260	0.334260
C41	C4	0.912450	0.109260	0.363260
O91	O9	0.836180	0.018350	0.477450
O101	O10	0.841790	0.023220	0.163920
C51	C5	0.718680	0.903350	0.781690
C61	C6	0.667070	0.839410	0.761620
O111	O11	0.740110	0.931620	0.631530
O121	O12	0.738030	0.932850	0.947190
Ca31	Ca3	0.672590	0.504420	0.178830
C71	C7	0.924030	0.554520	0.233270
C81	C8	0.869000	0.609870	0.215120
O131	O13	0.947370	0.533580	0.398860
O141	O14	0.949460	0.537990	0.084580
Ca41	Ca4	0.958210	0.522350	0.736720
N31	N3	0.837310	0.590370	0.704800
O151	O15	0.851580	0.499710	0.710100
O161	O16	0.783970	0.614920	0.696500
O171	O17	0.876620	0.656310	0.723600
Ca51	Ca5	0.748870	0.440450	0.700570
N41	N4	0.818610	0.211820	0.770610
O181	O18	0.866400	0.168290	0.822580
O191	O19	0.818310	0.304030	0.737600
O201	O20	0.770710	0.166030	0.774900
C91	C9	0.637040	0.541260	0.665740
C101	C10	0.587550	0.609260	0.636740
O211	O21	0.663820	0.518350	0.522550
O221	O22	0.658210	0.523220	0.836080
C111	C11	0.781320	0.403350	0.218310
C121	C12	0.832930	0.339410	0.238380
O231	O23	0.759890	0.431620	0.368470
O241	O24	0.761970	0.432850	0.052810
Ca61	Ca6	0.827410	0.004420	0.821170
C131	C13	0.424030	0.945480	0.233270
C141	C14	0.369000	0.890130	0.215120
O251	O25	0.447370	0.966420	0.398860
O261	O26	0.449460	0.962010	0.084580
Ca71	Ca7	0.458210	0.977650	0.736720
N51	N5	0.337310	0.909630	0.704800
O271	O27	0.351580	0.000290	0.710100
O281	O28	0.283970	0.885080	0.696500
O291	O29	0.376620	0.843690	0.723600
Ca81	Ca8	0.248870	0.059550	0.700570
N61	N6	0.318610	0.288180	0.770610
O301	O30	0.366400	0.331710	0.822580
O311	O31	0.318310	0.195970	0.737600
O321	O32	0.270710	0.333970	0.774900
C151	C15	0.137040	0.958740	0.665740
C161	C16	0.087550	0.890740	0.636740
O331	O33	0.163820	0.981650	0.522550
O341	O34	0.158210	0.976780	0.836080
C171	C17	0.281320	0.096650	0.218310
C181	C18	0.332930	0.160590	0.238380
O351	O35	0.259890	0.068380	0.368470
O361	O36	0.261970	0.067150	0.052810
Ca91	Ca9	0.327410	0.495580	0.821170
C191	C19	0.075970	0.445480	0.766730
C201	C20	0.131000	0.390130	0.784880
O371	O37	0.052630	0.466420	0.601140
O381	O38	0.050540	0.462010	0.915420
Ca101	Ca10	0.041790	0.477650	0.263280
N71	N7	0.162690	0.409630	0.295200
O391	O39	0.148420	0.500290	0.289900
O401	O40	0.216030	0.385080	0.303500
O411	O41	0.123380	0.343690	0.276400
Ca111	Ca11	0.251130	0.559550	0.299430
N81	N8	0.181390	0.788180	0.229390
O421	O42	0.133600	0.831710	0.177420
O431	O43	0.181690	0.695970	0.262400
O441	O44	0.229290	0.833970	0.225100
C211	C21	0.362960	0.458740	0.334260
C221	C22	0.412450	0.390740	0.363260
O451	O45	0.336180	0.481650	0.477450
O461	O46	0.341790	0.476780	0.163920
C231	C23	0.218680	0.596650	0.781690
C241	C24	0.167070	0.660590	0.761620
O471	O47	0.240110	0.568380	0.631530
O481	O48	0.238030	0.567150	0.947190
Ca121	Ca12	0.172590	0.995580	0.178830
