data_LUKRUE_clean_h_PM
_symmetry_space_group_name_H-M	'P1'
_cell_length_a	8.211000
_cell_length_b	13.430800
_cell_length_c	25.664000
_cell_angle_alpha	90.000000
_cell_angle_beta	90.000000
_cell_angle_gamma	90.000000
_symmetry_Int_Tables_number 1

loop_
_symmetry_equiv_pos_as_xyz
'x,y,z'

loop_
_atom_site_label
_atom_site_type_symbol
_atom_site_fract_x
_atom_site_fract_y
_atom_site_fract_z
Cu11	Cu1	0.156380	0.690200	0.997070
Cu21	Cu2	0.343620	0.309800	0.497070
Cu31	Cu3	0.843620	0.190200	0.502930
Cu41	Cu4	0.656380	0.809800	0.002930
P11	P1	0.865000	0.688090	0.925710
P21	P2	0.614500	0.332460	0.580990
P31	P3	0.635000	0.311910	0.425710
P41	P4	0.885500	0.667540	0.080990
P51	P5	0.135000	0.188090	0.574290
P61	P6	0.385500	0.832460	0.919010
P71	P7	0.365000	0.811910	0.074290
P81	P8	0.114500	0.167540	0.419010
C11	C1	0.843300	0.820700	0.783900
C21	C2	0.880700	0.711800	0.856800
C31	C3	0.833000	0.801100	0.838200
C41	C4	0.981500	0.692400	0.659500
C51	C5	0.905100	0.765600	0.694800
C61	C6	0.901500	0.744700	0.749400
C71	C7	0.940100	0.636600	0.824000
C81	C8	0.894100	0.604700	0.642600
C91	C9	0.790300	0.912800	0.762600
C101	C10	0.789500	0.932800	0.708400
C111	C11	0.952000	0.657400	0.769900
C121	C12	0.137200	0.706500	0.642800
C131	C13	0.842300	0.857000	0.675500
C141	C14	0.742400	0.949300	0.602800
C151	C15	0.728200	0.588000	0.655800
C161	C16	0.323000	0.795500	0.686700
C171	C17	0.974200	0.533600	0.609900
C181	C18	0.137700	0.548000	0.596100
C191	C19	0.887700	0.450000	0.592200
C201	C20	0.646000	0.507000	0.637700
C211	C21	0.729000	0.434800	0.605300
C221	C22	0.219000	0.637500	0.611000
C231	C23	0.647200	0.226100	0.664600
C241	C24	0.531300	0.172300	0.703900
C251	C25	0.740000	0.426600	0.938000
C261	C26	0.727000	0.522300	0.948200
C271	C27	0.656700	0.179300	0.283900
C281	C28	0.619300	0.288200	0.356800
C291	C29	0.667000	0.198900	0.338200
C301	C30	0.518500	0.307600	0.159500
C311	C31	0.594900	0.234400	0.194800
C321	C32	0.598500	0.255300	0.249400
C331	C33	0.559900	0.363400	0.324000
C341	C34	0.605900	0.395300	0.142600
C351	C35	0.709700	0.087200	0.262600
C361	C36	0.710500	0.067200	0.208400
C371	C37	0.548000	0.342600	0.269900
C381	C38	0.362800	0.293500	0.142800
C391	C39	0.657700	0.143000	0.175500
C401	C40	0.757600	0.050700	0.102800
C411	C41	0.771800	0.412000	0.155800
C421	C42	0.177000	0.204500	0.186700
C431	C43	0.525800	0.466400	0.109900
C441	C44	0.362300	0.452000	0.096100
C451	C45	0.612300	0.550000	0.092200
C461	C46	0.854000	0.493000	0.137700
C471	C47	0.771000	0.565200	0.105300
C481	C48	0.281000	0.362500	0.111000
C491	C49	0.852800	0.773900	0.164600
C501	C50	0.968700	0.827700	0.203900
C511	C51	0.760000	0.573400	0.438000
C521	C52	0.773000	0.477700	0.448200
C531	C53	0.156700	0.320700	0.716100
C541	C54	0.119300	0.211800	0.643200
C551	C55	0.167000	0.301100	0.661800
C561	C56	0.018500	0.192400	0.840500
C571	C57	0.094900	0.265600	0.805200
C581	C58	0.098500	0.244700	0.750600
C591	C59	0.059900	0.136600	0.676000
C601	C60	0.105900	0.104700	0.857400
C611	C61	0.209700	0.412800	0.737400
C621	C62	0.210500	0.432800	0.791600
C631	C63	0.048000	0.157400	0.730100
C641	C64	0.862800	0.206500	0.857200
C651	C65	0.157700	0.357000	0.824500
C661	C66	0.257600	0.449300	0.897200
C671	C67	0.271800	0.088000	0.844200
C681	C68	0.677000	0.295500	0.813300
C691	C69	0.025800	0.033600	0.890100
C701	C70	0.862300	0.048000	0.903900
C711	C71	0.112300	0.950000	0.907800
C721	C72	0.354000	0.007000	0.862300
C731	C73	0.271000	0.934800	0.894700
C741	C74	0.781000	0.137500	0.889000
C751	C75	0.352800	0.726100	0.835400
C761	C76	0.468700	0.672300	0.796100
C771	C77	0.260000	0.926600	0.562000
C781	C78	0.273000	0.022300	0.551800
C791	C79	0.343300	0.679300	0.216100
C801	C80	0.380700	0.788200	0.143200
C811	C81	0.333000	0.698900	0.161800
C821	C82	0.481500	0.807600	0.340500
C831	C83	0.405100	0.734400	0.305200
C841	C84	0.401500	0.755300	0.250600
C851	C85	0.440100	0.863400	0.176000
C861	C86	0.394100	0.895300	0.357400
C871	C87	0.290300	0.587200	0.237400
C881	C88	0.289500	0.567200	0.291600
C891	C89	0.452000	0.842600	0.230100
C901	C90	0.637200	0.793500	0.357200
C911	C91	0.342300	0.643000	0.324500
C921	C92	0.242400	0.550700	0.397200
C931	C93	0.228200	0.912000	0.344200
C941	C94	0.823000	0.704500	0.313300
C951	C95	0.474200	0.966400	0.390100
C961	C96	0.637700	0.952000	0.403900
C971	C97	0.387700	0.050000	0.407800
C981	C98	0.146000	0.993000	0.362300
C991	C99	0.229000	0.065200	0.394700
C1001	C100	0.719000	0.862500	0.389000
C1011	C101	0.147200	0.273900	0.335400
C1021	C102	0.031300	0.327700	0.296100
C1031	C103	0.240000	0.073400	0.062000
C1041	C104	0.227000	0.977700	0.051800
O11	O1	0.018800	0.636900	0.943400
O21	O2	0.206400	0.797500	0.652700
O31	O3	0.848000	0.869100	0.622700
O41	O4	0.714000	0.616900	0.931900
O51	O5	0.730800	0.265000	0.555400
O61	O6	0.539700	0.279500	0.630630
O71	O7	0.473100	0.371200	0.549900
O81	O8	0.823400	0.785100	0.952870
O91	O9	0.481200	0.363100	0.443400
O101	O10	0.293600	0.202500	0.152700
O111	O11	0.652000	0.130900	0.122700
O121	O12	0.786000	0.383100	0.431900
O131	O13	0.769200	0.735000	0.055400
O141	O14	0.960300	0.720500	0.130630
O151	O15	0.026900	0.628800	0.049900
O161	O16	0.676600	0.214900	0.452870
O171	O17	0.981200	0.136900	0.556600
O181	O18	0.793600	0.297500	0.847300
O191	O19	0.152000	0.369100	0.877300
O201	O20	0.286000	0.116900	0.568100
O211	O21	0.269200	0.765000	0.944600
O221	O22	0.460300	0.779500	0.869370
O231	O23	0.526900	0.871200	0.950100
O241	O24	0.176600	0.285100	0.547130
O251	O25	0.518800	0.863100	0.056600
O261	O26	0.706400	0.702500	0.347300
O271	O27	0.348000	0.630900	0.377300
O281	O28	0.214000	0.883100	0.068100
O291	O29	0.230800	0.235000	0.444600
O301	O30	0.039700	0.220500	0.369370
O311	O31	0.973100	0.128800	0.450100
O321	O32	0.323400	0.714900	0.047130
H11	H1	0.784630	0.860680	0.865790
H21	H2	0.977100	0.561520	0.841000
H31	H3	0.745800	0.974670	0.789470
H41	H4	0.746820	0.008370	0.693480
H51	H5	0.005520	0.599500	0.742300
H61	H6	0.609340	0.928190	0.609040
H71	H7	0.766120	0.960390	0.559420
H81	H8	0.770070	0.021350	0.624550
H91	H9	0.661340	0.642970	0.682030
H101	H10	0.439070	0.826360	0.668440
H111	H11	0.344670	0.715480	0.699790
H121	H12	0.287850	0.842910	0.721790
H131	H13	0.950310	0.392820	0.566190
H141	H14	0.512160	0.496170	0.648070
H151	H15	0.446800	0.133080	0.732550
H161	H16	0.751260	0.343700	0.929160
H171	H17	0.715250	0.139650	0.366010
H181	H18	0.522900	0.438480	0.341000
H191	H19	0.754200	0.025330	0.289470
H201	H20	0.753180	0.991630	0.193480
H211	H21	0.493800	0.402350	0.243550
H221	H22	0.751850	0.049350	0.058420
H231	H23	0.714200	0.976110	0.118820
H241	H24	0.888420	0.064610	0.115770
H251	H25	0.838660	0.357030	0.182030
H261	H26	0.150170	0.125530	0.200540
H271	H27	0.063010	0.237510	0.168140
H281	H28	0.215230	0.252220	0.221340
H291	H29	0.294750	0.511670	0.073060
H301	H30	0.987840	0.503830	0.148070
H311	H31	0.151360	0.346620	0.097440
H321	H32	0.053200	0.866920	0.232550
H331	H33	0.748740	0.656300	0.429160
H341	H34	0.215370	0.360680	0.634210
H351	H35	0.022900	0.061520	0.659000
H361	H36	0.254200	0.474670	0.710530
H371	H37	0.253180	0.508370	0.806520
H381	H38	0.994480	0.099500	0.757700
H391	H39	0.317800	0.489300	0.863080
H401	H40	0.355450	0.416060	0.923480
H411	H41	0.181220	0.504560	0.920430
H421	H42	0.338660	0.142970	0.817970
H431	H43	0.635440	0.215360	0.807200
H441	H44	0.722600	0.327340	0.774790
H451	H45	0.570370	0.342050	0.828000
H461	H46	0.487840	0.996170	0.851930
H471	H47	0.553200	0.633080	0.767450
H481	H48	0.248740	0.843700	0.570840
H491	H49	0.284630	0.639320	0.134210
H501	H50	0.477100	0.938480	0.159000
H511	H51	0.245800	0.525330	0.210530
H521	H52	0.246820	0.491630	0.306520
H531	H53	0.506200	0.902350	0.256450
H541	H54	0.321010	0.488240	0.413700
H551	H55	0.164240	0.520440	0.364080
H561	H56	0.160290	0.581400	0.429210
H571	H57	0.161340	0.857030	0.317970
H581	H58	0.775330	0.736530	0.275100
H591	H59	0.869720	0.625650	0.306440
H601	H60	0.926540	0.753080	0.328440
H611	H61	0.705250	0.011670	0.426940
H621	H62	0.012160	0.003830	0.351930
H631	H63	0.848650	0.847700	0.402870
H641	H64	0.946800	0.366920	0.267450
H651	H65	0.251260	0.156300	0.070840
