data_LULHUW_clean_PM
_symmetry_space_group_name_H-M	'P1'
_cell_length_a	6.929000
_cell_length_b	8.185000
_cell_length_c	10.441500
_cell_angle_alpha	108.751000
_cell_angle_beta	109.378000
_cell_angle_gamma	90.000000
_symmetry_Int_Tables_number 1

loop_
_symmetry_equiv_pos_as_xyz
'x,y,z'

loop_
_atom_site_label
_atom_site_type_symbol
_atom_site_fract_x
_atom_site_fract_y
_atom_site_fract_z
Ni11	Ni1	0.000000	0.000000	0.500000
Ni21	Ni2	0.500000	0.500000	0.500000
H11	H1	0.063300	0.011800	0.804800
H21	H2	0.820600	0.851700	0.926200
H31	H3	0.258500	0.488200	0.195200
H41	H4	0.894400	0.648300	0.073800
H51	H5	0.936700	0.988200	0.195200
H61	H6	0.179400	0.148300	0.073800
H71	H7	0.741500	0.511800	0.804800
H81	H8	0.105600	0.351700	0.926200
C11	C1	0.816300	0.819700	0.663600
C21	C2	0.954200	0.940000	0.806600
C31	C3	0.932900	0.941700	0.929200
C41	C4	0.152700	0.680300	0.336400
C51	C5	0.147600	0.560000	0.193400
C61	C6	0.003700	0.558300	0.070800
C71	C7	0.183700	0.180300	0.336400
C81	C8	0.045800	0.060000	0.193400
C91	C9	0.067100	0.058300	0.070800
C101	C10	0.847300	0.319700	0.663600
C111	C11	0.852400	0.440000	0.806600
C121	C12	0.996300	0.441700	0.929200
O11	O1	0.838870	0.828700	0.550340
O21	O2	0.682500	0.713100	0.660600
O31	O3	0.288530	0.671300	0.449660
O41	O4	0.021900	0.786900	0.339400
O51	O5	0.161130	0.171300	0.449660
O61	O6	0.317500	0.286900	0.339400
O71	O7	0.711470	0.328700	0.550340
O81	O8	0.978100	0.213100	0.660600
