data_LULVOF_clean_PM
_symmetry_space_group_name_H-M	'P1'
_cell_length_a	25.938000
_cell_length_b	18.158000
_cell_length_c	16.792900
_cell_angle_alpha	90.000000
_cell_angle_beta	116.945000
_cell_angle_gamma	90.000000
_symmetry_Int_Tables_number 1

loop_
_symmetry_equiv_pos_as_xyz
'x,y,z'

loop_
_atom_site_label
_atom_site_type_symbol
_atom_site_fract_x
_atom_site_fract_y
_atom_site_fract_z
Co11	Co1	0.370500	0.721230	0.513370
Co21	Co2	0.296430	0.768280	0.295570
Co31	Co3	0.211860	0.811940	0.068960
O11	O1	0.374500	0.622000	0.460500
O21	O2	0.314300	0.654700	0.318600
O31	O3	0.282800	0.881300	0.277300
O41	O4	0.215800	0.906300	0.136000
O51	O5	0.456300	0.751300	0.522600
O61	O6	0.373800	0.790400	0.414300
O71	O7	0.721500	0.240800	0.176400
O81	O8	0.633900	0.276300	0.082700
O91	O9	0.347100	0.767000	0.228200
O101	O10	0.295500	0.814800	0.091000
O111	O11	0.786300	0.804200	0.976200
O121	O12	0.743700	0.722700	0.864700
N11	N1	0.198900	0.723600	0.978500
N21	N2	0.179400	0.865200	0.943100
N31	N3	0.359900	0.823900	0.569100
N41	N4	0.404400	0.697900	0.649400
C11	C1	0.339700	0.608800	0.380800
C21	C2	0.327200	0.527500	0.357800
C31	C3	0.344600	0.475700	0.424100
H11	H1	0.364500	0.491400	0.484600
C41	C4	0.334200	0.401200	0.406000
H21	H2	0.347100	0.366400	0.453400
C51	C5	0.304500	0.377800	0.317400
C61	C6	0.286700	0.429500	0.248200
H31	H3	0.267400	0.413600	0.187800
C71	C7	0.297100	0.504200	0.267600
H41	H4	0.284200	0.539300	0.220600
C81	C8	0.293400	0.300100	0.297100
C91	C9	0.285300	0.235600	0.283200
C101	C10	0.275200	0.158100	0.267500
C111	C11	0.304800	0.107600	0.336700
H51	H5	0.330400	0.124700	0.394800
C121	C12	0.296200	0.031100	0.319500
H61	H6	0.316400	0.996800	0.366000
C131	C13	0.258000	0.005900	0.233800
C141	C14	0.227300	0.056700	0.167000
H71	H7	0.200000	0.039700	0.109800
C151	C15	0.235900	0.131800	0.182700
H81	H8	0.215200	0.165700	0.136000
C161	C16	0.251400	0.924400	0.214300
C171	C17	0.430000	0.790100	0.453000
C181	C18	0.461500	0.839500	0.420000
C191	C19	0.521000	0.830800	0.449600
H91	H9	0.540600	0.790800	0.487900
C201	C20	0.551300	0.879200	0.424100
H101	H10	0.591500	0.872200	0.443800
C211	C21	0.522800	0.939400	0.368500
C221	C22	0.463300	0.948100	0.339700
H111	H11	0.443800	0.988600	0.302300
C231	C23	0.432100	0.898600	0.364600
H121	H12	0.391700	0.905000	0.344300
C241	C24	0.553200	0.993700	0.343900
C251	C25	0.573800	0.042600	0.319800
C261	C26	0.598700	0.095700	0.283000
C271	C27	0.656600	0.091200	0.300500
H131	H13	0.681400	0.056300	0.342600
C281	C28	0.678200	0.137400	0.256900
H141	H14	0.717100	0.132400	0.266800
C291	C29	0.642300	0.191500	0.198100
C301	C30	0.586000	0.198300	0.183400
H151	H15	0.562300	0.235500	0.144100
C311	C31	0.562500	0.151400	0.225400
H161	H16	0.523600	0.156800	0.215600
C321	C32	0.666600	0.240300	0.150800
C331	C33	0.341000	0.788600	0.153700
C341	C34	0.391600	0.778900	0.133200
C351	C35	0.380800	0.768200	0.045100
H171	H17	0.342000	0.768200	0.999300
C361	C36	0.425800	0.757700	0.022800
H181	H18	0.417800	0.750400	0.962300
C371	C37	0.484000	0.757800	0.091600
C381	C38	0.494300	0.770600	0.180300
H191	H19	0.532900	0.772200	0.226700
C391	C39	0.448800	0.780700	0.200300
H201	H20	0.456300	0.789000	0.260500
C401	C40	0.530200	0.748900	0.067400
C411	C41	0.566300	0.744400	0.040600
C421	C42	0.610300	0.746200	0.010300
C431	C43	0.610700	0.698100	0.945800
H211	H21	0.581800	0.661100	0.921600
C441	C44	0.653100	0.703700	0.916000
H221	H22	0.652100	0.671800	0.870400
C451	C45	0.697100	0.756700	0.954100
C461	C46	0.697400	0.803000	0.019200
H231	H23	0.727200	0.838700	0.044900
C471	C47	0.654600	0.798600	0.048800
H241	H24	0.655700	0.830700	0.094200
C481	C48	0.745500	0.761400	0.927600
C491	C49	0.213200	0.653900	0.003600
H251	H25	0.228800	0.642100	0.065300
C501	C50	0.206200	0.597400	0.942800
H261	H26	0.217100	0.548100	0.962300
C511	C51	0.182300	0.616000	0.852400
H271	H27	0.176500	0.579000	0.809100
C521	C52	0.167300	0.688400	0.825700
H281	H28	0.151300	0.701900	0.764500
C531	C53	0.176500	0.740900	0.892100
C541	C54	0.165800	0.821300	0.871000
C551	C55	0.145700	0.850200	0.785400
H291	H29	0.135400	0.818300	0.735700
C561	C56	0.140700	0.925900	0.773200
H301	H30	0.127400	0.946600	0.715200
C571	C57	0.155600	0.970700	0.847200
H311	H31	0.152800	0.022800	0.840700
C581	C58	0.174800	0.938500	0.931900
H321	H32	0.184700	0.969300	0.982500
C591	C59	0.334900	0.884500	0.522200
H331	H33	0.319200	0.883000	0.459000
C601	C60	0.331100	0.949800	0.562900
H341	H34	0.312500	0.992000	0.528300
C611	C61	0.354700	0.951400	0.654000
H351	H35	0.353000	0.995400	0.683400
C621	C62	0.381100	0.889300	0.703800
H361	H36	0.397400	0.889500	0.767100
C631	C63	0.382800	0.825800	0.656700
C641	C64	0.408200	0.754600	0.702800
C651	C65	0.431400	0.745200	0.796100
H371	H37	0.433100	0.785500	0.833200
C661	C66	0.451700	0.676000	0.833200
H381	H38	0.468900	0.668900	0.896000
C671	C67	0.446100	0.616800	0.775700
H391	H39	0.458200	0.568700	0.798600
C681	C68	0.422400	0.630500	0.684700
H401	H40	0.418800	0.590800	0.645600
Co41	Co4	0.870500	0.221230	0.513370
Co51	Co5	0.796430	0.268280	0.295570
Co61	Co6	0.711860	0.311940	0.068960
O131	O13	0.874500	0.122000	0.460500
O141	O14	0.814300	0.154700	0.318600
O151	O15	0.782800	0.381300	0.277300
O161	O16	0.715800	0.406300	0.136000
O171	O17	0.956300	0.251300	0.522600
O181	O18	0.873800	0.290400	0.414300
O191	O19	0.221500	0.740800	0.176400
O201	O20	0.133900	0.776300	0.082700
O211	O21	0.847100	0.267000	0.228200
O221	O22	0.795500	0.314800	0.091000
O231	O23	0.286300	0.304200	0.976200
O241	O24	0.243700	0.222700	0.864700
N51	N5	0.698900	0.223600	0.978500
N61	N6	0.679400	0.365200	0.943100
N71	N7	0.859900	0.323900	0.569100
N81	N8	0.904400	0.197900	0.649400
C691	C69	0.839700	0.108800	0.380800
C701	C70	0.827200	0.027500	0.357800
C711	C71	0.844600	0.975700	0.424100
H411	H41	0.864500	0.991400	0.484600
C721	C72	0.834200	0.901200	0.406000
H421	H42	0.847100	0.866400	0.453400
C731	C73	0.804500	0.877800	0.317400
C741	C74	0.786700	0.929500	0.248200
H431	H43	0.767400	0.913600	0.187800
C751	C75	0.797100	0.004200	0.267600
H441	H44	0.784200	0.039300	0.220600
C761	C76	0.793400	0.800100	0.297100
C771	C77	0.785300	0.735600	0.283200
C781	C78	0.775200	0.658100	0.267500
C791	C79	0.804800	0.607600	0.336700
H451	H45	0.830400	0.624700	0.394800
C801	C80	0.796200	0.531100	0.319500
H461	H46	0.816400	0.496800	0.366000
C811	C81	0.758000	0.505900	0.233800
C821	C82	0.727300	0.556700	0.167000
H471	H47	0.700000	0.539700	0.109800
C831	C83	0.735900	0.631800	0.182700
H481	H48	0.715200	0.665700	0.136000
C841	C84	0.751400	0.424400	0.214300
C851	C85	0.930000	0.290100	0.453000
C861	C86	0.961500	0.339500	0.420000
C871	C87	0.021000	0.330800	0.449600
H491	H49	0.040600	0.290800	0.487900
C881	C88	0.051300	0.379200	0.424100
H501	H50	0.091500	0.372200	0.443800
C891	C89	0.022800	0.439400	0.368500
C901	C90	0.963300	0.448100	0.339700
H511	H51	0.943800	0.488600	0.302300
C911	C91	0.932100	0.398600	0.364600
H521	H52	0.891700	0.405000	0.344300
C921	C92	0.053200	0.493700	0.343900
C931	C93	0.073800	0.542600	0.319800
C941	C94	0.098700	0.595700	0.283000
C951	C95	0.156600	0.591200	0.300500
H531	H53	0.181400	0.556300	0.342600
C961	C96	0.178200	0.637400	0.256900
H541	H54	0.217100	0.632400	0.266800
C971	C97	0.142300	0.691500	0.198100
C981	C98	0.086000	0.698300	0.183400
H551	H55	0.062300	0.735500	0.144100
C991	C99	0.062500	0.651400	0.225400
H561	H56	0.023600	0.656800	0.215600
C1001	C100	0.166600	0.740300	0.150800
C1011	C101	0.841000	0.288600	0.153700
C1021	C102	0.891600	0.278900	0.133200
C1031	C103	0.880800	0.268200	0.045100
H571	H57	0.842000	0.268200	0.999300
C1041	C104	0.925800	0.257700	0.022800
H581	H58	0.917800	0.250400	0.962300
C1051	C105	0.984000	0.257800	0.091600
C1061	C106	0.994300	0.270600	0.180300
H591	H59	0.032900	0.272200	0.226700
C1071	C107	0.948800	0.280700	0.200300
H601	H60	0.956300	0.289000	0.260500
C1081	C108	0.030200	0.248900	0.067400
C1091	C109	0.066300	0.244400	0.040600
C1101	C110	0.110300	0.246200	0.010300
C1111	C111	0.110700	0.198100	0.945800
H611	H61	0.081800	0.161100	0.921600
C1121	C112	0.153100	0.203700	0.916000
H621	H62	0.152100	0.171800	0.870400
C1131	C113	0.197100	0.256700	0.954100
C1141	C114	0.197400	0.303000	0.019200
H631	H63	0.227200	0.338700	0.044900
C1151	C115	0.154600	0.298600	0.048800
H641	H64	0.155700	0.330700	0.094200
C1161	C116	0.245500	0.261400	0.927600
C1171	C117	0.713200	0.153900	0.003600
H651	H65	0.728800	0.142100	0.065300
C1181	C118	0.706200	0.097400	0.942800
H661	H66	0.717100	0.048100	0.962300
C1191	C119	0.682300	0.116000	0.852400
H671	H67	0.676500	0.079000	0.809100
C1201	C120	0.667300	0.188400	0.825700
H681	H68	0.651300	0.201900	0.764500
C1211	C121	0.676500	0.240900	0.892100
C1221	C122	0.665800	0.321300	0.871000
C1231	C123	0.645700	0.350200	0.785400
H691	H69	0.635400	0.318300	0.735700
C1241	C124	0.640700	0.425900	0.773200
H701	H70	0.627400	0.446600	0.715200
C1251	C125	0.655600	0.470700	0.847200
H711	H71	0.652800	0.522800	0.840700
C1261	C126	0.674800	0.438500	0.931900
H721	H72	0.684700	0.469300	0.982500
C1271	C127	0.834900	0.384500	0.522200
H731	H73	0.819200	0.383000	0.459000
C1281	C128	0.831100	0.449800	0.562900
H741	H74	0.812500	0.492000	0.528300
C1291	C129	0.854700	0.451400	0.654000
H751	H75	0.853000	0.495400	0.683400
C1301	C130	0.881100	0.389300	0.703800
H761	H76	0.897400	0.389500	0.767100
C1311	C131	0.882800	0.325800	0.656700
C1321	C132	0.908200	0.254600	0.702800
C1331	C133	0.931400	0.245200	0.796100
H771	H77	0.933100	0.285500	0.833200
C1341	C134	0.951700	0.176000	0.833200
H781	H78	0.968900	0.168900	0.896000
C1351	C135	0.946100	0.116800	0.775700
H791	H79	0.958200	0.068700	0.798600
C1361	C136	0.922400	0.130500	0.684700
H801	H80	0.918800	0.090800	0.645600
Co71	Co7	0.370500	0.278770	0.013370
Co81	Co8	0.296430	0.231720	0.795570
Co91	Co9	0.211860	0.188060	0.568960
O251	O25	0.374500	0.378000	0.960500
O261	O26	0.314300	0.345300	0.818600
O271	O27	0.282800	0.118700	0.777300
O281	O28	0.215800	0.093700	0.636000
O291	O29	0.456300	0.248700	0.022600
O301	O30	0.373800	0.209600	0.914300
O311	O31	0.721500	0.759200	0.676400
O321	O32	0.633900	0.723700	0.582700
O331	O33	0.347100	0.233000	0.728200
O341	O34	0.295500	0.185200	0.591000
O351	O35	0.786300	0.195800	0.476200
O361	O36	0.743700	0.277300	0.364700
N91	N9	0.198900	0.276400	0.478500
N101	N10	0.179400	0.134800	0.443100
N111	N11	0.359900	0.176100	0.069100
N121	N12	0.404400	0.302100	0.149400
C1371	C137	0.339700	0.391200	0.880800
C1381	C138	0.327200	0.472500	0.857800
C1391	C139	0.344600	0.524300	0.924100
H811	H81	0.364500	0.508600	0.984600
C1401	C140	0.334200	0.598800	0.906000
H821	H82	0.347100	0.633600	0.953400
C1411	C141	0.304500	0.622200	0.817400
C1421	C142	0.286700	0.570500	0.748200
H831	H83	0.267400	0.586400	0.687800
C1431	C143	0.297100	0.495800	0.767600
H841	H84	0.284200	0.460700	0.720600
C1441	C144	0.293400	0.699900	0.797100
C1451	C145	0.285300	0.764400	0.783200
C1461	C146	0.275200	0.841900	0.767500
C1471	C147	0.304800	0.892400	0.836700
H851	H85	0.330400	0.875300	0.894800
C1481	C148	0.296200	0.968900	0.819500
H861	H86	0.316400	0.003200	0.866000
C1491	C149	0.258000	0.994100	0.733800
C1501	C150	0.227300	0.943300	0.667000
H871	H87	0.200000	0.960300	0.609800
C1511	C151	0.235900	0.868200	0.682700
H881	H88	0.215200	0.834300	0.636000
C1521	C152	0.251400	0.075600	0.714300
C1531	C153	0.430000	0.209900	0.953000
C1541	C154	0.461500	0.160500	0.920000
C1551	C155	0.521000	0.169200	0.949600
H891	H89	0.540600	0.209200	0.987900
C1561	C156	0.551300	0.120800	0.924100
H901	H90	0.591500	0.127800	0.943800
C1571	C157	0.522800	0.060600	0.868500
C1581	C158	0.463300	0.051900	0.839700
H911	H91	0.443800	0.011400	0.802300
C1591	C159	0.432100	0.101400	0.864600
H921	H92	0.391700	0.095000	0.844300
C1601	C160	0.553200	0.006300	0.843900
C1611	C161	0.573800	0.957400	0.819800
C1621	C162	0.598700	0.904300	0.783000
C1631	C163	0.656600	0.908800	0.800500
H931	H93	0.681400	0.943700	0.842600
C1641	C164	0.678200	0.862600	0.756900
H941	H94	0.717100	0.867600	0.766800
C1651	C165	0.642300	0.808500	0.698100
C1661	C166	0.586000	0.801700	0.683400
H951	H95	0.562300	0.764500	0.644100
C1671	C167	0.562500	0.848600	0.725400
H961	H96	0.523600	0.843200	0.715600
C1681	C168	0.666600	0.759700	0.650800
C1691	C169	0.341000	0.211400	0.653700
C1701	C170	0.391600	0.221100	0.633200
C1711	C171	0.380800	0.231800	0.545100
H971	H97	0.342000	0.231800	0.499300
C1721	C172	0.425800	0.242300	0.522800
H981	H98	0.417800	0.249600	0.462300
C1731	C173	0.484000	0.242200	0.591600
C1741	C174	0.494300	0.229400	0.680300
H991	H99	0.532900	0.227800	0.726700
C1751	C175	0.448800	0.219300	0.700300
H1001	H100	0.456300	0.211000	0.760500
C1761	C176	0.530200	0.251100	0.567400
C1771	C177	0.566300	0.255600	0.540600
C1781	C178	0.610300	0.253800	0.510300
C1791	C179	0.610700	0.301900	0.445800
H1011	H101	0.581800	0.338900	0.421600
C1801	C180	0.653100	0.296300	0.416000
H1021	H102	0.652100	0.328200	0.370400
C1811	C181	0.697100	0.243300	0.454100
C1821	C182	0.697400	0.197000	0.519200
H1031	H103	0.727200	0.161300	0.544900
C1831	C183	0.654600	0.201400	0.548800
H1041	H104	0.655700	0.169300	0.594200
C1841	C184	0.745500	0.238600	0.427600
C1851	C185	0.213200	0.346100	0.503600
H1051	H105	0.228800	0.357900	0.565300
C1861	C186	0.206200	0.402600	0.442800
H1061	H106	0.217100	0.451900	0.462300
C1871	C187	0.182300	0.384000	0.352400
H1071	H107	0.176500	0.421000	0.309100
C1881	C188	0.167300	0.311600	0.325700
H1081	H108	0.151300	0.298100	0.264500
C1891	C189	0.176500	0.259100	0.392100
C1901	C190	0.165800	0.178700	0.371000
C1911	C191	0.145700	0.149800	0.285400
H1091	H109	0.135400	0.181700	0.235700
C1921	C192	0.140700	0.074100	0.273200
H1101	H110	0.127400	0.053400	0.215200
C1931	C193	0.155600	0.029300	0.347200
H1111	H111	0.152800	0.977200	0.340700
C1941	C194	0.174800	0.061500	0.431900
H1121	H112	0.184700	0.030700	0.482500
C1951	C195	0.334900	0.115500	0.022200
H1131	H113	0.319200	0.117000	0.959000
C1961	C196	0.331100	0.050200	0.062900
H1141	H114	0.312500	0.008000	0.028300
C1971	C197	0.354700	0.048600	0.154000
H1151	H115	0.353000	0.004600	0.183400
C1981	C198	0.381100	0.110700	0.203800
H1161	H116	0.397400	0.110500	0.267100
C1991	C199	0.382800	0.174200	0.156700
C2001	C200	0.408200	0.245400	0.202800
C2011	C201	0.431400	0.254800	0.296100
H1171	H117	0.433100	0.214500	0.333200
C2021	C202	0.451700	0.324000	0.333200
H1181	H118	0.468900	0.331100	0.396000
C2031	C203	0.446100	0.383200	0.275700
H1191	H119	0.458200	0.431300	0.298600
C2041	C204	0.422400	0.369500	0.184700
H1201	H120	0.418800	0.409200	0.145600
Co101	Co10	0.870500	0.778770	0.013370
Co111	Co11	0.796430	0.731720	0.795570
Co121	Co12	0.711860	0.688060	0.568960
O371	O37	0.874500	0.878000	0.960500
O381	O38	0.814300	0.845300	0.818600
O391	O39	0.782800	0.618700	0.777300
O401	O40	0.715800	0.593700	0.636000
O411	O41	0.956300	0.748700	0.022600
O421	O42	0.873800	0.709600	0.914300
O431	O43	0.221500	0.259200	0.676400
O441	O44	0.133900	0.223700	0.582700
O451	O45	0.847100	0.733000	0.728200
O461	O46	0.795500	0.685200	0.591000
O471	O47	0.286300	0.695800	0.476200
O481	O48	0.243700	0.777300	0.364700
N131	N13	0.698900	0.776400	0.478500
N141	N14	0.679400	0.634800	0.443100
N151	N15	0.859900	0.676100	0.069100
N161	N16	0.904400	0.802100	0.149400
C2051	C205	0.839700	0.891200	0.880800
C2061	C206	0.827200	0.972500	0.857800
C2071	C207	0.844600	0.024300	0.924100
H1211	H121	0.864500	0.008600	0.984600
C2081	C208	0.834200	0.098800	0.906000
H1221	H122	0.847100	0.133600	0.953400
C2091	C209	0.804500	0.122200	0.817400
C2101	C210	0.786700	0.070500	0.748200
H1231	H123	0.767400	0.086400	0.687800
C2111	C211	0.797100	0.995800	0.767600
H1241	H124	0.784200	0.960700	0.720600
C2121	C212	0.793400	0.199900	0.797100
C2131	C213	0.785300	0.264400	0.783200
C2141	C214	0.775200	0.341900	0.767500
C2151	C215	0.804800	0.392400	0.836700
H1251	H125	0.830400	0.375300	0.894800
C2161	C216	0.796200	0.468900	0.819500
H1261	H126	0.816400	0.503200	0.866000
C2171	C217	0.758000	0.494100	0.733800
C2181	C218	0.727300	0.443300	0.667000
H1271	H127	0.700000	0.460300	0.609800
C2191	C219	0.735900	0.368200	0.682700
H1281	H128	0.715200	0.334300	0.636000
C2201	C220	0.751400	0.575600	0.714300
C2211	C221	0.930000	0.709900	0.953000
C2221	C222	0.961500	0.660500	0.920000
C2231	C223	0.021000	0.669200	0.949600
H1291	H129	0.040600	0.709200	0.987900
C2241	C224	0.051300	0.620800	0.924100
H1301	H130	0.091500	0.627800	0.943800
C2251	C225	0.022800	0.560600	0.868500
C2261	C226	0.963300	0.551900	0.839700
H1311	H131	0.943800	0.511400	0.802300
C2271	C227	0.932100	0.601400	0.864600
H1321	H132	0.891700	0.595000	0.844300
C2281	C228	0.053200	0.506300	0.843900
C2291	C229	0.073800	0.457400	0.819800
C2301	C230	0.098700	0.404300	0.783000
C2311	C231	0.156600	0.408800	0.800500
H1331	H133	0.181400	0.443700	0.842600
C2321	C232	0.178200	0.362600	0.756900
H1341	H134	0.217100	0.367600	0.766800
C2331	C233	0.142300	0.308500	0.698100
C2341	C234	0.086000	0.301700	0.683400
H1351	H135	0.062300	0.264500	0.644100
C2351	C235	0.062500	0.348600	0.725400
H1361	H136	0.023600	0.343200	0.715600
C2361	C236	0.166600	0.259700	0.650800
C2371	C237	0.841000	0.711400	0.653700
C2381	C238	0.891600	0.721100	0.633200
C2391	C239	0.880800	0.731800	0.545100
H1371	H137	0.842000	0.731800	0.499300
C2401	C240	0.925800	0.742300	0.522800
H1381	H138	0.917800	0.749600	0.462300
C2411	C241	0.984000	0.742200	0.591600
C2421	C242	0.994300	0.729400	0.680300
H1391	H139	0.032900	0.727800	0.726700
C2431	C243	0.948800	0.719300	0.700300
H1401	H140	0.956300	0.711000	0.760500
C2441	C244	0.030200	0.751100	0.567400
C2451	C245	0.066300	0.755600	0.540600
C2461	C246	0.110300	0.753800	0.510300
C2471	C247	0.110700	0.801900	0.445800
H1411	H141	0.081800	0.838900	0.421600
C2481	C248	0.153100	0.796300	0.416000
H1421	H142	0.152100	0.828200	0.370400
C2491	C249	0.197100	0.743300	0.454100
C2501	C250	0.197400	0.697000	0.519200
H1431	H143	0.227200	0.661300	0.544900
C2511	C251	0.154600	0.701400	0.548800
H1441	H144	0.155700	0.669300	0.594200
C2521	C252	0.245500	0.738600	0.427600
C2531	C253	0.713200	0.846100	0.503600
H1451	H145	0.728800	0.857900	0.565300
C2541	C254	0.706200	0.902600	0.442800
H1461	H146	0.717100	0.951900	0.462300
C2551	C255	0.682300	0.884000	0.352400
H1471	H147	0.676500	0.921000	0.309100
C2561	C256	0.667300	0.811600	0.325700
H1481	H148	0.651300	0.798100	0.264500
C2571	C257	0.676500	0.759100	0.392100
C2581	C258	0.665800	0.678700	0.371000
C2591	C259	0.645700	0.649800	0.285400
H1491	H149	0.635400	0.681700	0.235700
C2601	C260	0.640700	0.574100	0.273200
H1501	H150	0.627400	0.553400	0.215200
C2611	C261	0.655600	0.529300	0.347200
H1511	H151	0.652800	0.477200	0.340700
C2621	C262	0.674800	0.561500	0.431900
H1521	H152	0.684700	0.530700	0.482500
C2631	C263	0.834900	0.615500	0.022200
H1531	H153	0.819200	0.617000	0.959000
C2641	C264	0.831100	0.550200	0.062900
H1541	H154	0.812500	0.508000	0.028300
C2651	C265	0.854700	0.548600	0.154000
H1551	H155	0.853000	0.504600	0.183400
C2661	C266	0.881100	0.610700	0.203800
H1561	H156	0.897400	0.610500	0.267100
C2671	C267	0.882800	0.674200	0.156700
C2681	C268	0.908200	0.745400	0.202800
C2691	C269	0.931400	0.754800	0.296100
H1571	H157	0.933100	0.714500	0.333200
C2701	C270	0.951700	0.824000	0.333200
H1581	H158	0.968900	0.831100	0.396000
C2711	C271	0.946100	0.883200	0.275700
H1591	H159	0.958200	0.931300	0.298600
C2721	C272	0.922400	0.869500	0.184700
H1601	H160	0.918800	0.909200	0.145600
