data_LULXEW_clean_PM
_symmetry_space_group_name_H-M	'P1'
_cell_length_a	10.896000
_cell_length_b	13.901000
_cell_length_c	14.255600
_cell_angle_alpha	90.000000
_cell_angle_beta	90.000000
_cell_angle_gamma	109.490000
_symmetry_Int_Tables_number 1

loop_
_symmetry_equiv_pos_as_xyz
'x,y,z'

loop_
_atom_site_label
_atom_site_type_symbol
_atom_site_fract_x
_atom_site_fract_y
_atom_site_fract_z
Na11	Na1	0.494010	0.834240	0.331260
Na21	Na2	0.005990	0.665760	0.831260
Na31	Na3	0.505990	0.165760	0.668740
Na41	Na4	0.994010	0.334240	0.168740
Na51	Na5	0.500000	0.000000	0.500000
Na61	Na6	0.000000	0.500000	0.000000
Na71	Na7	0.000000	0.000000	0.500000
Na81	Na8	0.500000	0.500000	0.000000
Co11	Co1	0.239250	0.998320	0.605690
Co21	Co2	0.260750	0.501680	0.105690
Co31	Co3	0.760750	0.001680	0.394310
Co41	Co4	0.739250	0.498320	0.894310
H11	H1	0.229700	0.719700	0.336800
H21	H2	0.860500	0.546200	0.271900
H31	H3	0.782400	0.628800	0.387800
H41	H4	0.926500	0.760900	0.474700
H51	H5	0.241800	0.249100	0.343000
H61	H6	0.591900	0.428400	0.243100
H71	H7	0.696800	0.355000	0.349300
H81	H8	0.576000	0.228200	0.452700
H91	H9	0.270300	0.780300	0.836800
H101	H10	0.639500	0.953800	0.771900
H111	H11	0.717600	0.871200	0.887800
H121	H12	0.573500	0.739100	0.974700
H131	H13	0.258200	0.250900	0.843000
H141	H14	0.908100	0.071600	0.743100
H151	H15	0.803200	0.145000	0.849300
H161	H16	0.924000	0.271800	0.952700
H171	H17	0.770300	0.280300	0.663200
H181	H18	0.139500	0.453800	0.728100
H191	H19	0.217600	0.371200	0.612200
H201	H20	0.073500	0.239100	0.525300
H211	H21	0.758200	0.750900	0.657000
H221	H22	0.408100	0.571600	0.756900
H231	H23	0.303200	0.645000	0.650700
H241	H24	0.424000	0.771800	0.547300
H251	H25	0.729700	0.219700	0.163200
H261	H26	0.360500	0.046200	0.228100
H271	H27	0.282400	0.128800	0.112200
H281	H28	0.426500	0.260900	0.025300
H291	H29	0.741800	0.749100	0.157000
H301	H30	0.091900	0.928400	0.256900
H311	H31	0.196800	0.855000	0.150700
H321	H32	0.076000	0.728200	0.047300
C11	C1	0.092300	0.753000	0.413900
C21	C2	0.138600	0.701700	0.346600
C31	C3	0.053200	0.624400	0.293500
C41	C4	0.919700	0.598300	0.308500
C51	C5	0.873400	0.648100	0.376700
C61	C6	0.958900	0.726000	0.428800
C71	C7	0.186100	0.841000	0.467100
C81	C8	0.100200	0.571700	0.216300
C91	C9	0.396900	0.225700	0.406700
C101	C10	0.334200	0.270300	0.344100
C111	C11	0.406400	0.346000	0.283000
C121	C12	0.542100	0.377100	0.285100
C131	C13	0.604300	0.333300	0.348000
C141	C14	0.532800	0.257800	0.409300
C151	C15	0.316000	0.143600	0.471000
C161	C16	0.339900	0.396100	0.217400
C171	C17	0.407700	0.747000	0.913900
C181	C18	0.361400	0.798300	0.846600
C191	C19	0.446800	0.875600	0.793500
C201	C20	0.580300	0.901700	0.808500
C211	C21	0.626600	0.851900	0.876700
C221	C22	0.541100	0.774000	0.928800
C231	C23	0.313900	0.659000	0.967100
C241	C24	0.399800	0.928300	0.716300
C251	C25	0.103100	0.274300	0.906700
C261	C26	0.165800	0.229700	0.844100
C271	C27	0.093600	0.154000	0.783000
C281	C28	0.957900	0.122900	0.785100
C291	C29	0.895700	0.166700	0.848000
C301	C30	0.967200	0.242200	0.909300
C311	C31	0.184000	0.356400	0.971000
C321	C32	0.160100	0.103900	0.717400
C331	C33	0.907700	0.247000	0.586100
C341	C34	0.861400	0.298300	0.653400
C351	C35	0.946800	0.375600	0.706500
C361	C36	0.080300	0.401700	0.691500
C371	C37	0.126600	0.351900	0.623300
C381	C38	0.041100	0.274000	0.571200
C391	C39	0.813900	0.159000	0.532900
C401	C40	0.899800	0.428300	0.783700
C411	C41	0.603100	0.774300	0.593300
C421	C42	0.665800	0.729700	0.655900
C431	C43	0.593600	0.654000	0.717000
C441	C44	0.457900	0.622900	0.714900
C451	C45	0.395700	0.666700	0.652000
C461	C46	0.467200	0.742200	0.590700
C471	C47	0.684000	0.856400	0.529000
C481	C48	0.660100	0.603900	0.782600
C491	C49	0.592300	0.253000	0.086100
C501	C50	0.638600	0.201700	0.153400
C511	C51	0.553200	0.124400	0.206500
C521	C52	0.419700	0.098300	0.191500
C531	C53	0.373400	0.148100	0.123300
C541	C54	0.458900	0.226000	0.071200
C551	C55	0.686100	0.341000	0.032900
C561	C56	0.600200	0.071700	0.283700
C571	C57	0.896900	0.725700	0.093300
C581	C58	0.834200	0.770300	0.155900
C591	C59	0.906400	0.846000	0.217000
C601	C60	0.042100	0.877100	0.214900
C611	C61	0.104300	0.833300	0.152000
C621	C62	0.032800	0.757800	0.090700
C631	C63	0.816000	0.643600	0.029000
C641	C64	0.839900	0.896100	0.282600
O11	O1	0.305500	0.861730	0.457150
O21	O2	0.132700	0.889000	0.521730
O31	O3	0.222300	0.593100	0.205850
O41	O4	0.019500	0.509000	0.165640
O51	O5	0.196600	0.115300	0.467500
O61	O6	0.377400	0.104480	0.529990
O71	O7	0.218400	0.374800	0.219150
O81	O8	0.410000	0.463500	0.161060
O91	O9	0.194500	0.638270	0.957150
O101	O10	0.367300	0.611000	0.021730
O111	O11	0.277700	0.906900	0.705850
O121	O12	0.480500	0.991000	0.665640
O131	O13	0.303400	0.384700	0.967500
O141	O14	0.122600	0.395520	0.029990
O151	O15	0.281600	0.125200	0.719150
O161	O16	0.090000	0.036500	0.661060
O171	O17	0.694500	0.138270	0.542850
O181	O18	0.867300	0.111000	0.478270
O191	O19	0.777700	0.406900	0.794150
O201	O20	0.980500	0.491000	0.834360
O211	O21	0.803400	0.884700	0.532500
O221	O22	0.622600	0.895520	0.470010
O231	O23	0.781600	0.625200	0.780850
O241	O24	0.590000	0.536500	0.838940
O251	O25	0.805500	0.361730	0.042850
O261	O26	0.632700	0.389000	0.978270
O271	O27	0.722300	0.093100	0.294150
O281	O28	0.519500	0.009000	0.334360
O291	O29	0.696600	0.615300	0.032500
O301	O30	0.877400	0.604480	0.970010
O311	O31	0.718400	0.874800	0.280850
O321	O32	0.910000	0.963500	0.338940
