data_LUMLIQ_clean_PM
_symmetry_space_group_name_H-M	'P1'
_cell_length_a	10.618600
_cell_length_b	15.779500
_cell_length_c	14.162000
_cell_angle_alpha	90.000000
_cell_angle_beta	130.430000
_cell_angle_gamma	90.000000
_symmetry_Int_Tables_number 1

loop_
_symmetry_equiv_pos_as_xyz
'x,y,z'

loop_
_atom_site_label
_atom_site_type_symbol
_atom_site_fract_x
_atom_site_fract_y
_atom_site_fract_z
C11	C1	0.994100	0.444500	0.384100
H11	H1	0.991400	0.421900	0.443400
C21	C2	0.085900	0.489700	0.296200
C31	C3	0.913800	0.494300	0.212000
C41	C4	0.215700	0.511500	0.290300
C51	C5	0.784200	0.524100	0.081600
C61	C6	0.480600	0.246300	0.583500
H21	H2	0.452000	0.241700	0.506200
C71	C7	0.524000	0.298800	0.741800
C81	C8	0.559300	0.212600	0.761500
C91	C9	0.525900	0.363200	0.817800
C101	C10	0.613200	0.157800	0.863700
N11	N1	0.134100	0.458300	0.405600
N21	N2	0.858600	0.465600	0.271000
N31	N3	0.472700	0.319100	0.627800
N41	N4	0.533500	0.180800	0.661200
O11	O1	0.184900	0.541800	0.195900
O21	O2	0.362700	0.497200	0.388500
O31	O3	0.814000	0.539600	0.012000
O41	O4	0.643600	0.533100	0.048300
O51	O5	0.464500	0.434400	0.766600
O61	O6	0.581900	0.344600	0.924900
O71	O7	0.641000	0.189600	0.960100
H31	H3	0.623400	0.240700	0.950500
O81	O8	0.628600	0.081000	0.855900
Cd11	Cd1	0.406410	0.456570	0.570490
Cd21	Cd2	0.420360	0.543150	0.843550
C111	C11	0.005900	0.944500	0.115900
H41	H4	0.008600	0.921900	0.056600
C121	C12	0.914100	0.989700	0.203800
C131	C13	0.086200	0.994300	0.288000
C141	C14	0.784300	0.011500	0.209700
C151	C15	0.215800	0.024100	0.418400
C161	C16	0.519400	0.746300	0.916500
H51	H5	0.548000	0.741700	0.993800
C171	C17	0.476000	0.798800	0.758200
C181	C18	0.440700	0.712600	0.738500
C191	C19	0.474100	0.863200	0.682200
C201	C20	0.386800	0.657800	0.636300
N51	N5	0.865900	0.958300	0.094400
N61	N6	0.141400	0.965600	0.229000
N71	N7	0.527300	0.819100	0.872200
N81	N8	0.466500	0.680800	0.838800
O91	O9	0.815100	0.041800	0.304100
O101	O10	0.637300	0.997200	0.111500
O111	O11	0.186000	0.039600	0.488000
O121	O12	0.356400	0.033100	0.451700
O131	O13	0.535500	0.934400	0.733400
O141	O14	0.418100	0.844600	0.575100
O151	O15	0.359000	0.689600	0.539900
H61	H6	0.376600	0.740700	0.549500
O161	O16	0.371400	0.581000	0.644100
Cd31	Cd3	0.593590	0.956570	0.929510
Cd41	Cd4	0.579640	0.043150	0.656450
C211	C21	0.005900	0.555500	0.615900
H71	H7	0.008600	0.578100	0.556600
C221	C22	0.914100	0.510300	0.703800
C231	C23	0.086200	0.505700	0.788000
C241	C24	0.784300	0.488500	0.709700
C251	C25	0.215800	0.475900	0.918400
C261	C26	0.519400	0.753700	0.416500
H81	H8	0.548000	0.758300	0.493800
C271	C27	0.476000	0.701200	0.258200
C281	C28	0.440700	0.787400	0.238500
C291	C29	0.474100	0.636800	0.182200
C301	C30	0.386800	0.842200	0.136300
N91	N9	0.865900	0.541700	0.594400
N101	N10	0.141400	0.534400	0.729000
N111	N11	0.527300	0.680900	0.372200
N121	N12	0.466500	0.819200	0.338800
O171	O17	0.815100	0.458200	0.804100
O181	O18	0.637300	0.502800	0.611500
O191	O19	0.186000	0.460400	0.988000
O201	O20	0.356400	0.466900	0.951700
O211	O21	0.535500	0.565600	0.233400
O221	O22	0.418100	0.655400	0.075100
O231	O23	0.359000	0.810400	0.039900
H91	H9	0.376600	0.759300	0.049500
O241	O24	0.371400	0.919000	0.144100
Cd51	Cd5	0.593590	0.543430	0.429510
Cd61	Cd6	0.579640	0.456850	0.156450
C311	C31	0.994100	0.055500	0.884100
H101	H10	0.991400	0.078100	0.943400
C321	C32	0.085900	0.010300	0.796200
C331	C33	0.913800	0.005700	0.712000
C341	C34	0.215700	0.988500	0.790300
C351	C35	0.784200	0.975900	0.581600
C361	C36	0.480600	0.253700	0.083500
H111	H11	0.452000	0.258300	0.006200
C371	C37	0.524000	0.201200	0.241800
C381	C38	0.559300	0.287400	0.261500
C391	C39	0.525900	0.136800	0.317800
C401	C40	0.613200	0.342200	0.363700
N131	N13	0.134100	0.041700	0.905600
N141	N14	0.858600	0.034400	0.771000
N151	N15	0.472700	0.180900	0.127800
N161	N16	0.533500	0.319200	0.161200
O251	O25	0.184900	0.958200	0.695900
O261	O26	0.362700	0.002800	0.888500
O271	O27	0.814000	0.960400	0.512000
O281	O28	0.643600	0.966900	0.548300
O291	O29	0.464500	0.065600	0.266600
O301	O30	0.581900	0.155400	0.424900
O311	O31	0.641000	0.310400	0.460100
H121	H12	0.623400	0.259300	0.450500
O321	O32	0.628600	0.419000	0.355900
Cd71	Cd7	0.406410	0.043430	0.070490
Cd81	Cd8	0.420360	0.956850	0.343550
Cd91	Cd9	0.000000	0.500000	0.000000
Cd101	Cd10	0.000000	0.000000	0.500000
