data_LUMMAJ_clean_PM
_symmetry_space_group_name_H-M	'P1'
_cell_length_a	10.300800
_cell_length_b	13.324600
_cell_length_c	20.462000
_cell_angle_alpha	90.000000
_cell_angle_beta	90.000000
_cell_angle_gamma	90.000000
_symmetry_Int_Tables_number 1

loop_
_symmetry_equiv_pos_as_xyz
'x,y,z'

loop_
_atom_site_label
_atom_site_type_symbol
_atom_site_fract_x
_atom_site_fract_y
_atom_site_fract_z
Zn11	Zn1	0.435290	0.889730	0.293830
O11	O1	0.450100	0.809600	0.202600
O21	O2	0.804100	0.897000	0.072600
N11	N1	0.603500	0.945400	0.256300
O31	O3	0.923900	0.018100	0.121300
O41	O4	0.584100	0.778600	0.121800
N21	N2	0.779800	0.027800	0.222800
C11	C1	0.640100	0.905100	0.200400
N31	N3	0.450200	0.763200	0.349300
C21	C2	0.493500	0.596500	0.427600
C31	C3	0.532700	0.596000	0.364100
H11	H1	0.573000	0.539400	0.347000
C41	C4	0.516000	0.508100	0.470900
H21	H2	0.562900	0.456200	0.451500
C51	C5	0.826700	0.953800	0.118300
C61	C6	0.687000	0.018700	0.268500
H31	H3	0.682300	0.059900	0.305100
C71	C7	0.554700	0.824700	0.174800
C81	C8	0.430500	0.681700	0.450400
H41	H4	0.404900	0.684700	0.493900
C91	C9	0.512800	0.679500	0.324500
H51	H5	0.541600	0.679000	0.281500
C101	C10	0.405700	0.759700	0.410800
H61	H6	0.356200	0.812900	0.426500
C111	C11	0.749000	0.957900	0.179200
Zn21	Zn2	0.064710	0.610270	0.293830
O51	O5	0.049900	0.690400	0.202600
O61	O6	0.695900	0.603000	0.072600
N41	N4	0.896500	0.554600	0.256300
O71	O7	0.576100	0.481900	0.121300
O81	O8	0.915900	0.721400	0.121800
N51	N5	0.720200	0.472200	0.222800
C121	C12	0.859900	0.594900	0.200400
N61	N6	0.049800	0.736800	0.349300
C131	C13	0.006500	0.903500	0.427600
C141	C14	0.967300	0.904000	0.364100
H71	H7	0.927000	0.960600	0.347000
C151	C15	0.984000	0.991900	0.470900
H81	H8	0.937100	0.043800	0.451500
C161	C16	0.673300	0.546200	0.118300
C171	C17	0.813000	0.481300	0.268500
H91	H9	0.817700	0.440100	0.305100
C181	C18	0.945300	0.675300	0.174800
C191	C19	0.069500	0.818300	0.450400
H101	H10	0.095100	0.815300	0.493900
C201	C20	0.987200	0.820500	0.324500
H111	H11	0.958400	0.821000	0.281500
C211	C21	0.094300	0.740300	0.410800
H121	H12	0.143800	0.687100	0.426500
C221	C22	0.751000	0.542100	0.179200
Zn31	Zn3	0.564710	0.389730	0.206170
O91	O9	0.549900	0.309600	0.297400
O101	O10	0.195900	0.397000	0.427400
N71	N7	0.396500	0.445400	0.243700
O111	O11	0.076100	0.518100	0.378700
O121	O12	0.415900	0.278600	0.378200
N81	N8	0.220200	0.527800	0.277200
C231	C23	0.359900	0.405100	0.299600
N91	N9	0.549800	0.263200	0.150700
C241	C24	0.506500	0.096500	0.072400
C251	C25	0.467300	0.096000	0.135900
H131	H13	0.427000	0.039400	0.153000
C261	C26	0.484000	0.008100	0.029100
H141	H14	0.437100	0.956200	0.048500
C271	C27	0.173300	0.453800	0.381700
C281	C28	0.313000	0.518700	0.231500
H151	H15	0.317700	0.559900	0.194900
C291	C29	0.445300	0.324700	0.325200
C301	C30	0.569500	0.181700	0.049600
H161	H16	0.595100	0.184700	0.006100
C311	C31	0.487200	0.179500	0.175500
H171	H17	0.458400	0.179000	0.218500
C321	C32	0.594300	0.259700	0.089200
H181	H18	0.643800	0.312900	0.073500
C331	C33	0.251000	0.457900	0.320800
Zn41	Zn4	0.935290	0.110270	0.206170
O131	O13	0.950100	0.190400	0.297400
O141	O14	0.304100	0.103000	0.427400
N101	N10	0.103500	0.054600	0.243700
O151	O15	0.423900	0.981900	0.378700
O161	O16	0.084100	0.221400	0.378200
N111	N11	0.279800	0.972200	0.277200
C341	C34	0.140100	0.094900	0.299600
N121	N12	0.950200	0.236800	0.150700
C351	C35	0.993500	0.403500	0.072400
C361	C36	0.032700	0.404000	0.135900
H191	H19	0.073000	0.460600	0.153000
C371	C37	0.016000	0.491900	0.029100
H201	H20	0.062900	0.543800	0.048500
C381	C38	0.326700	0.046200	0.381700
C391	C39	0.187000	0.981300	0.231500
H211	H21	0.182300	0.940100	0.194900
C401	C40	0.054700	0.175300	0.325200
C411	C41	0.930500	0.318300	0.049600
H221	H22	0.904900	0.315300	0.006100
C421	C42	0.012800	0.320500	0.175500
H231	H23	0.041600	0.321000	0.218500
C431	C43	0.905700	0.240300	0.089200
H241	H24	0.856200	0.187100	0.073500
C441	C44	0.249000	0.042100	0.320800
Zn51	Zn5	0.564710	0.110270	0.706170
O171	O17	0.549900	0.190400	0.797400
O181	O18	0.195900	0.103000	0.927400
N131	N13	0.396500	0.054600	0.743700
O191	O19	0.076100	0.981900	0.878700
O201	O20	0.415900	0.221400	0.878200
N141	N14	0.220200	0.972200	0.777200
C451	C45	0.359900	0.094900	0.799600
N151	N15	0.549800	0.236800	0.650700
C461	C46	0.506500	0.403500	0.572400
C471	C47	0.467300	0.404000	0.635900
H251	H25	0.427000	0.460600	0.653000
C481	C48	0.484000	0.491900	0.529100
H261	H26	0.437100	0.543800	0.548500
C491	C49	0.173300	0.046200	0.881700
C501	C50	0.313000	0.981300	0.731500
H271	H27	0.317700	0.940100	0.694900
C511	C51	0.445300	0.175300	0.825200
C521	C52	0.569500	0.318300	0.549600
H281	H28	0.595100	0.315300	0.506100
C531	C53	0.487200	0.320500	0.675500
H291	H29	0.458400	0.321000	0.718500
C541	C54	0.594300	0.240300	0.589200
H301	H30	0.643800	0.187100	0.573500
C551	C55	0.251000	0.042100	0.820800
Zn61	Zn6	0.935290	0.389730	0.706170
O211	O21	0.950100	0.309600	0.797400
O221	O22	0.304100	0.397000	0.927400
N161	N16	0.103500	0.445400	0.743700
O231	O23	0.423900	0.518100	0.878700
O241	O24	0.084100	0.278600	0.878200
N171	N17	0.279800	0.527800	0.777200
C561	C56	0.140100	0.405100	0.799600
N181	N18	0.950200	0.263200	0.650700
C571	C57	0.993500	0.096500	0.572400
C581	C58	0.032700	0.096000	0.635900
H311	H31	0.073000	0.039400	0.653000
C591	C59	0.016000	0.008100	0.529100
H321	H32	0.062900	0.956200	0.548500
C601	C60	0.326700	0.453800	0.881700
C611	C61	0.187000	0.518700	0.731500
H331	H33	0.182300	0.559900	0.694900
C621	C62	0.054700	0.324700	0.825200
C631	C63	0.930500	0.181700	0.549600
H341	H34	0.904900	0.184700	0.506100
C641	C64	0.012800	0.179500	0.675500
H351	H35	0.041600	0.179000	0.718500
C651	C65	0.905700	0.259700	0.589200
H361	H36	0.856200	0.312900	0.573500
C661	C66	0.249000	0.457900	0.820800
Zn71	Zn7	0.435290	0.610270	0.793830
O251	O25	0.450100	0.690400	0.702600
O261	O26	0.804100	0.603000	0.572600
N191	N19	0.603500	0.554600	0.756300
O271	O27	0.923900	0.481900	0.621300
O281	O28	0.584100	0.721400	0.621800
N201	N20	0.779800	0.472200	0.722800
C671	C67	0.640100	0.594900	0.700400
N211	N21	0.450200	0.736800	0.849300
C681	C68	0.493500	0.903500	0.927600
C691	C69	0.532700	0.904000	0.864100
H371	H37	0.573000	0.960600	0.847000
C701	C70	0.516000	0.991900	0.970900
H381	H38	0.562900	0.043800	0.951500
C711	C71	0.826700	0.546200	0.618300
C721	C72	0.687000	0.481300	0.768500
H391	H39	0.682300	0.440100	0.805100
C731	C73	0.554700	0.675300	0.674800
C741	C74	0.430500	0.818300	0.950400
H401	H40	0.404900	0.815300	0.993900
C751	C75	0.512800	0.820500	0.824500
H411	H41	0.541600	0.821000	0.781500
C761	C76	0.405700	0.740300	0.910800
H421	H42	0.356200	0.687100	0.926500
C771	C77	0.749000	0.542100	0.679200
Zn81	Zn8	0.064710	0.889730	0.793830
O291	O29	0.049900	0.809600	0.702600
O301	O30	0.695900	0.897000	0.572600
N221	N22	0.896500	0.945400	0.756300
O311	O31	0.576100	0.018100	0.621300
O321	O32	0.915900	0.778600	0.621800
N231	N23	0.720200	0.027800	0.722800
C781	C78	0.859900	0.905100	0.700400
N241	N24	0.049800	0.763200	0.849300
C791	C79	0.006500	0.596500	0.927600
C801	C80	0.967300	0.596000	0.864100
H431	H43	0.927000	0.539400	0.847000
C811	C81	0.984000	0.508100	0.970900
H441	H44	0.937100	0.456200	0.951500
C821	C82	0.673300	0.953800	0.618300
C831	C83	0.813000	0.018700	0.768500
H451	H45	0.817700	0.059900	0.805100
C841	C84	0.945300	0.824700	0.674800
C851	C85	0.069500	0.681700	0.950400
H461	H46	0.095100	0.684700	0.993900
C861	C86	0.987200	0.679500	0.824500
H471	H47	0.958400	0.679000	0.781500
C871	C87	0.094300	0.759700	0.910800
H481	H48	0.143800	0.812900	0.926500
C881	C88	0.751000	0.957900	0.679200
Zn91	Zn9	0.750000	0.750000	0.075000
Zn101	Zn10	0.250000	0.250000	0.425000
Zn111	Zn11	0.250000	0.250000	0.925000
Zn121	Zn12	0.750000	0.750000	0.575000
