data_LUMZAW_clean_PM
_symmetry_space_group_name_H-M	'P1'
_cell_length_a	24.349000
_cell_length_b	9.233400
_cell_length_c	16.959000
_cell_angle_alpha	90.000000
_cell_angle_beta	119.410000
_cell_angle_gamma	90.000000
_symmetry_Int_Tables_number 1

loop_
_symmetry_equiv_pos_as_xyz
'x,y,z'

loop_
_atom_site_label
_atom_site_type_symbol
_atom_site_fract_x
_atom_site_fract_y
_atom_site_fract_z
Cu11	Cu1	0.153360	0.670620	0.323350
Cu21	Cu2	0.148000	0.896510	0.648490
Cu31	Cu3	0.063100	0.685690	0.727440
Cu41	Cu4	0.063790	0.879420	0.397090
N11	N1	0.192600	0.738700	0.457900
N21	N2	0.249300	0.716300	0.528900
N31	N3	0.189500	0.827000	0.573500
N41	N4	0.155800	0.806500	0.483700
N51	N5	0.187200	0.718900	0.734300
N61	N6	0.154500	0.629800	0.759500
N71	N7	0.190200	0.522500	0.808500
N81	N8	0.249000	0.539700	0.819700
N91	N9	0.468900	0.804500	0.023200
N101	N10	0.525800	0.766400	0.093300
N111	N11	0.558100	0.691700	0.064500
N121	N12	0.524100	0.679100	0.973200
N131	N13	0.528200	0.804200	0.819400
N141	N14	0.563600	0.890000	0.799300
N151	N15	0.527800	0.000300	0.750400
N161	N16	0.470500	0.988600	0.739300
N171	N17	0.057200	0.155300	0.296800
N181	N18	0.152300	0.179000	0.742500
C11	C1	0.246300	0.770700	0.599300
C21	C2	0.301800	0.771400	0.692600
C31	C3	0.358100	0.815800	0.701200
H11	H1	0.358300	0.850400	0.649900
C41	C4	0.414400	0.812400	0.781300
C51	C5	0.414500	0.759400	0.859300
C61	C6	0.356700	0.718300	0.852000
H21	H2	0.356000	0.688700	0.903900
C71	C7	0.299700	0.720200	0.769100
C81	C8	0.244800	0.661000	0.773100
C91	C9	0.470800	0.751200	0.951600
C101	C10	0.470900	0.867700	0.782400
C111	C11	0.057000	0.053800	0.336200
C121	C12	0.151300	0.077600	0.702300
Cu51	Cu5	0.653360	0.170620	0.323350
Cu61	Cu6	0.648000	0.396510	0.648490
Cu71	Cu7	0.563100	0.185690	0.727440
Cu81	Cu8	0.563790	0.379420	0.397090
N191	N19	0.692600	0.238700	0.457900
N201	N20	0.749300	0.216300	0.528900
N211	N21	0.689500	0.327000	0.573500
N221	N22	0.655800	0.306500	0.483700
N231	N23	0.687200	0.218900	0.734300
N241	N24	0.654500	0.129800	0.759500
N251	N25	0.690200	0.022500	0.808500
N261	N26	0.749000	0.039700	0.819700
N271	N27	0.968900	0.304500	0.023200
N281	N28	0.025800	0.266400	0.093300
N291	N29	0.058100	0.191700	0.064500
N301	N30	0.024100	0.179100	0.973200
N311	N31	0.028200	0.304200	0.819400
N321	N32	0.063600	0.390000	0.799300
N331	N33	0.027800	0.500300	0.750400
N341	N34	0.970500	0.488600	0.739300
N351	N35	0.557200	0.655300	0.296800
N361	N36	0.652300	0.679000	0.742500
C131	C13	0.746300	0.270700	0.599300
C141	C14	0.801800	0.271400	0.692600
C151	C15	0.858100	0.315800	0.701200
H31	H3	0.858300	0.350400	0.649900
C161	C16	0.914400	0.312400	0.781300
C171	C17	0.914500	0.259400	0.859300
C181	C18	0.856700	0.218300	0.852000
H41	H4	0.856000	0.188700	0.903900
C191	C19	0.799700	0.220200	0.769100
C201	C20	0.744800	0.161000	0.773100
C211	C21	0.970800	0.251200	0.951600
C221	C22	0.970900	0.367700	0.782400
C231	C23	0.557000	0.553800	0.336200
C241	C24	0.651300	0.577600	0.702300
Cu91	Cu9	0.153360	0.329380	0.823350
Cu101	Cu10	0.148000	0.103490	0.148490
Cu111	Cu11	0.063100	0.314310	0.227440
Cu121	Cu12	0.063790	0.120580	0.897090
N371	N37	0.192600	0.261300	0.957900
N381	N38	0.249300	0.283700	0.028900
N391	N39	0.189500	0.173000	0.073500
N401	N40	0.155800	0.193500	0.983700
N411	N41	0.187200	0.281100	0.234300
N421	N42	0.154500	0.370200	0.259500
N431	N43	0.190200	0.477500	0.308500
N441	N44	0.249000	0.460300	0.319700
N451	N45	0.468900	0.195500	0.523200
N461	N46	0.525800	0.233600	0.593300
N471	N47	0.558100	0.308300	0.564500
N481	N48	0.524100	0.320900	0.473200
N491	N49	0.528200	0.195800	0.319400
N501	N50	0.563600	0.110000	0.299300
N511	N51	0.527800	0.999700	0.250400
N521	N52	0.470500	0.011400	0.239300
N531	N53	0.057200	0.844700	0.796800
N541	N54	0.152300	0.821000	0.242500
C251	C25	0.246300	0.229300	0.099300
C261	C26	0.301800	0.228600	0.192600
C271	C27	0.358100	0.184200	0.201200
H51	H5	0.358300	0.149600	0.149900
C281	C28	0.414400	0.187600	0.281300
C291	C29	0.414500	0.240600	0.359300
C301	C30	0.356700	0.281700	0.352000
H61	H6	0.356000	0.311300	0.403900
C311	C31	0.299700	0.279800	0.269100
C321	C32	0.244800	0.339000	0.273100
C331	C33	0.470800	0.248800	0.451600
C341	C34	0.470900	0.132300	0.282400
C351	C35	0.057000	0.946200	0.836200
C361	C36	0.151300	0.922400	0.202300
Cu131	Cu13	0.653360	0.829380	0.823350
Cu141	Cu14	0.648000	0.603490	0.148490
Cu151	Cu15	0.563100	0.814310	0.227440
Cu161	Cu16	0.563790	0.620580	0.897090
N551	N55	0.692600	0.761300	0.957900
N561	N56	0.749300	0.783700	0.028900
N571	N57	0.689500	0.673000	0.073500
N581	N58	0.655800	0.693500	0.983700
N591	N59	0.687200	0.781100	0.234300
N601	N60	0.654500	0.870200	0.259500
N611	N61	0.690200	0.977500	0.308500
N621	N62	0.749000	0.960300	0.319700
N631	N63	0.968900	0.695500	0.523200
N641	N64	0.025800	0.733600	0.593300
N651	N65	0.058100	0.808300	0.564500
N661	N66	0.024100	0.820900	0.473200
N671	N67	0.028200	0.695800	0.319400
N681	N68	0.063600	0.610000	0.299300
N691	N69	0.027800	0.499700	0.250400
N701	N70	0.970500	0.511400	0.239300
N711	N71	0.557200	0.344700	0.796800
N721	N72	0.652300	0.321000	0.242500
C371	C37	0.746300	0.729300	0.099300
C381	C38	0.801800	0.728600	0.192600
C391	C39	0.858100	0.684200	0.201200
H71	H7	0.858300	0.649600	0.149900
C401	C40	0.914400	0.687600	0.281300
C411	C41	0.914500	0.740600	0.359300
C421	C42	0.856700	0.781700	0.352000
H81	H8	0.856000	0.811300	0.403900
C431	C43	0.799700	0.779800	0.269100
C441	C44	0.744800	0.839000	0.273100
C451	C45	0.970800	0.748800	0.451600
C461	C46	0.970900	0.632300	0.282400
C471	C47	0.557000	0.446200	0.836200
C481	C48	0.651300	0.422400	0.202300
