data_LUMZUO_clean_PM
_symmetry_space_group_name_H-M	'P1'
_cell_length_a	13.250100
_cell_length_b	13.250100
_cell_length_c	18.498900
_cell_angle_alpha	92.555900
_cell_angle_beta	92.555900
_cell_angle_gamma	112.732000
_symmetry_Int_Tables_number 1

loop_
_symmetry_equiv_pos_as_xyz
'x,y,z'

loop_
_atom_site_label
_atom_site_type_symbol
_atom_site_fract_x
_atom_site_fract_y
_atom_site_fract_z
Mn11	Mn1	0.787570	0.706990	0.303040
Mn21	Mn2	0.293010	0.212430	0.196960
Mn31	Mn3	0.212430	0.293010	0.696960
Mn41	Mn4	0.706990	0.787570	0.803040
Mn51	Mn5	0.500000	0.000000	0.000000
Mn61	Mn6	0.000000	0.500000	0.500000
W11	W1	0.965090	0.550470	0.089180
W21	W2	0.079310	0.430350	0.050980
W31	W3	0.128510	0.628890	0.001200
W41	W4	0.449530	0.034910	0.410820
W51	W5	0.569650	0.920690	0.449020
W61	W6	0.371110	0.871490	0.498800
W71	W7	0.034910	0.449530	0.910820
W81	W8	0.920690	0.569650	0.949020
W91	W9	0.871490	0.371110	0.998800
W101	W10	0.550470	0.965090	0.589180
W111	W11	0.430350	0.079310	0.550980
W121	W12	0.628890	0.128510	0.501200
C11	C1	0.917900	0.611300	0.187900
C21	C2	0.170000	0.347400	0.104100
C31	C3	0.276500	0.776300	0.003100
C41	C4	0.388700	0.082100	0.312100
C51	C5	0.652600	0.830000	0.395900
C61	C6	0.223700	0.723500	0.496900
C71	C7	0.082100	0.388700	0.812100
C81	C8	0.830000	0.652600	0.895900
C91	C9	0.723500	0.223700	0.996900
C101	C10	0.611300	0.917900	0.687900
C111	C11	0.347400	0.170000	0.604100
C121	C12	0.776300	0.276500	0.503100
S11	S1	0.158700	0.600300	0.129970
S21	S2	0.222780	0.508420	0.965910
S31	S3	0.922680	0.364320	0.127670
S41	S4	0.013550	0.729050	0.035230
S51	S5	0.399700	0.841300	0.370030
S61	S6	0.491580	0.777220	0.534090
S71	S7	0.635680	0.077320	0.372330
S81	S8	0.270950	0.986450	0.464770
S91	S9	0.841300	0.399700	0.870030
S101	S10	0.777220	0.491580	0.034090
S111	S11	0.077320	0.635680	0.872330
S121	S12	0.986450	0.270950	0.964770
S131	S13	0.600300	0.158700	0.629970
S141	S14	0.508420	0.222780	0.465910
S151	S15	0.364320	0.922680	0.627670
S161	S16	0.729050	0.013550	0.535230
N11	N1	0.882100	0.642300	0.235700
N21	N2	0.219400	0.302200	0.133800
N31	N3	0.354500	0.854300	0.005900
N41	N4	0.357700	0.117900	0.264300
N51	N5	0.697800	0.780600	0.366200
N61	N6	0.145700	0.645500	0.494100
N71	N7	0.117900	0.357700	0.764300
N81	N8	0.780600	0.697800	0.866200
N91	N9	0.645500	0.145700	0.994100
N101	N10	0.642300	0.882100	0.735700
N111	N11	0.302200	0.219400	0.633800
N121	N12	0.854300	0.354500	0.505900
