data_LUNBAX_clean_PM
_symmetry_space_group_name_H-M	'P1'
_cell_length_a	13.188800
_cell_length_b	13.188800
_cell_length_c	18.286000
_cell_angle_alpha	92.732100
_cell_angle_beta	92.732100
_cell_angle_gamma	112.781000
_symmetry_Int_Tables_number 1

loop_
_symmetry_equiv_pos_as_xyz
'x,y,z'

loop_
_atom_site_label
_atom_site_type_symbol
_atom_site_fract_x
_atom_site_fract_y
_atom_site_fract_z
Fe11	Fe1	0.215210	0.295330	0.695980
Fe21	Fe2	0.704670	0.784790	0.804020
Fe31	Fe3	0.784790	0.704670	0.304020
Fe41	Fe4	0.295330	0.215210	0.195980
Fe51	Fe5	0.500000	0.000000	0.000000
Fe61	Fe6	0.000000	0.500000	0.500000
W11	W1	0.037800	0.450660	0.910310
W21	W2	0.918510	0.567310	0.947590
W31	W3	0.127400	0.631840	0.002140
W41	W4	0.549340	0.962200	0.589690
W51	W5	0.432690	0.081490	0.552410
W61	W6	0.368160	0.872600	0.497860
W71	W7	0.962200	0.549340	0.089690
W81	W8	0.081490	0.432690	0.052410
W91	W9	0.872600	0.368160	0.997860
W101	W10	0.450660	0.037800	0.410310
W111	W11	0.567310	0.918510	0.447590
W121	W12	0.631840	0.127400	0.502140
C11	C1	0.089400	0.390600	0.811500
C21	C2	0.826100	0.648900	0.892200
C31	C3	0.272200	0.783200	0.004700
C41	C4	0.609400	0.910600	0.688500
C51	C5	0.351100	0.173900	0.607800
C61	C6	0.216800	0.727800	0.495300
C71	C7	0.910600	0.609400	0.188500
C81	C8	0.173900	0.351100	0.107800
C91	C9	0.727800	0.216800	0.995300
C101	C10	0.390600	0.089400	0.311500
C111	C11	0.648900	0.826100	0.392200
C121	C12	0.783200	0.272200	0.504700
S11	S1	0.076100	0.636500	0.871400
S21	S2	0.842200	0.396000	0.867500
S31	S3	0.225900	0.515100	0.968100
S41	S4	0.008030	0.727570	0.035200
S51	S5	0.363500	0.923900	0.628600
S61	S6	0.604000	0.157800	0.632500
S71	S7	0.484900	0.774100	0.531900
S81	S8	0.272430	0.991970	0.464800
S91	S9	0.923900	0.363500	0.128600
S101	S10	0.157800	0.604000	0.132500
S111	S11	0.774100	0.484900	0.031900
S121	S12	0.991970	0.272430	0.964800
S131	S13	0.636500	0.076100	0.371400
S141	S14	0.396000	0.842200	0.367500
S151	S15	0.515100	0.225900	0.468100
S161	S16	0.727570	0.008030	0.535200
N11	N1	0.122100	0.357700	0.762100
N21	N2	0.773500	0.689700	0.864400
N31	N3	0.351600	0.862800	0.005500
N41	N4	0.642300	0.877900	0.737900
N51	N5	0.310300	0.226500	0.635600
N61	N6	0.137200	0.648400	0.494500
N71	N7	0.877900	0.642300	0.237900
N81	N8	0.226500	0.310300	0.135600
N91	N9	0.648400	0.137200	0.994500
N101	N10	0.357700	0.122100	0.262100
N111	N11	0.689700	0.773500	0.364400
N121	N12	0.862800	0.351600	0.505500
