data_LUNBEB_clean_PM
_symmetry_space_group_name_H-M	'P1'
_cell_length_a	13.112000
_cell_length_b	13.112000
_cell_length_c	18.030000
_cell_angle_alpha	92.685800
_cell_angle_beta	92.685800
_cell_angle_gamma	113.136000
_symmetry_Int_Tables_number 1

loop_
_symmetry_equiv_pos_as_xyz
'x,y,z'

loop_
_atom_site_label
_atom_site_type_symbol
_atom_site_fract_x
_atom_site_fract_y
_atom_site_fract_z
Co11	Co1	0.795510	0.715290	0.694400
Co21	Co2	0.284710	0.204490	0.805600
Co31	Co3	0.204490	0.284710	0.305600
Co41	Co4	0.715290	0.795510	0.194400
Co51	Co5	0.500000	0.000000	0.000000
Co61	Co6	0.000000	0.500000	0.500000
W11	W1	0.951880	0.538640	0.908750
W21	W2	0.067070	0.417330	0.947550
W31	W3	0.133400	0.627380	0.002020
W41	W4	0.461360	0.048120	0.591250
W51	W5	0.582670	0.932930	0.552450
W61	W6	0.372620	0.866600	0.497980
W71	W7	0.048120	0.461360	0.091250
W81	W8	0.932930	0.582670	0.052450
W91	W9	0.866600	0.372620	0.997980
W101	W10	0.538640	0.951880	0.408750
W111	W11	0.417330	0.067070	0.447550
W121	W12	0.627380	0.133400	0.502020
C11	C1	0.895100	0.593300	0.809200
C21	C2	0.143000	0.321800	0.892400
C31	C3	0.282400	0.772200	0.006900
C41	C4	0.406700	0.104900	0.690800
C51	C5	0.678200	0.857000	0.607600
C61	C6	0.227800	0.717600	0.493100
C71	C7	0.104900	0.406700	0.190800
C81	C8	0.857000	0.678200	0.107600
C91	C9	0.717600	0.227800	0.993100
C101	C10	0.593300	0.895100	0.309200
C111	C11	0.321800	0.143000	0.392400
C121	C12	0.772200	0.282400	0.506900
S11	S1	0.139600	0.576600	0.869600
S21	S2	0.018400	0.729000	0.966500
S31	S3	0.895600	0.342400	0.865500
S41	S4	0.228200	0.507200	0.036400
S51	S5	0.423400	0.860400	0.630400
S61	S6	0.271000	0.981600	0.533500
S71	S7	0.657600	0.104400	0.634500
S81	S8	0.492800	0.771800	0.463600
S91	S9	0.860400	0.423400	0.130400
S101	S10	0.981600	0.271000	0.033500
S111	S11	0.104400	0.657600	0.134500
S121	S12	0.771800	0.492800	0.963600
S131	S13	0.576600	0.139600	0.369600
S141	S14	0.729000	0.018400	0.466500
S151	S15	0.342400	0.895600	0.365500
S161	S16	0.507200	0.228200	0.536400
N11	N1	0.859100	0.624100	0.760100
N21	N2	0.188200	0.271200	0.863500
N31	N3	0.364100	0.848300	0.003100
N41	N4	0.375900	0.140900	0.739900
N51	N5	0.728800	0.811800	0.636500
N61	N6	0.151700	0.635900	0.496900
N71	N7	0.140900	0.375900	0.239900
N81	N8	0.811800	0.728800	0.136500
N91	N9	0.635900	0.151700	0.996900
N101	N10	0.624100	0.859100	0.260100
N111	N11	0.271200	0.188200	0.363500
N121	N12	0.848300	0.364100	0.503100
