data_LUPHIN_clean_PM
_symmetry_space_group_name_H-M	'P1'
_cell_length_a	9.904500
_cell_length_b	12.301100
_cell_length_c	17.322000
_cell_angle_alpha	90.000000
_cell_angle_beta	103.701000
_cell_angle_gamma	90.000000
_symmetry_Int_Tables_number 1

loop_
_symmetry_equiv_pos_as_xyz
'x,y,z'

loop_
_atom_site_label
_atom_site_type_symbol
_atom_site_fract_x
_atom_site_fract_y
_atom_site_fract_z
Fe11	Fe1	0.755600	0.577300	0.221300
Fe21	Fe2	0.562500	0.525800	0.370800
Fe31	Fe3	0.867500	0.352600	0.924700
Fe41	Fe4	0.030900	0.389600	0.290700
P11	P1	0.300100	0.414200	0.440600
P21	P2	0.779300	0.844900	0.204200
P31	P3	0.437800	0.624600	0.192000
P41	P4	0.914300	0.457700	0.106200
O11	O1	0.571200	0.617200	0.162500
O21	O2	0.827200	0.729000	0.231600
F11	F1	0.714500	0.593800	0.328000
F21	F2	0.949600	0.538600	0.278800
O31	O3	0.810700	0.546500	0.119600
O41	O4	0.809400	0.923200	0.275500
O51	O5	0.400700	0.460800	0.395800
O61	O6	0.316000	0.470600	0.520800
O71	O7	0.864200	0.879700	0.143800
O81	O8	0.443500	0.547100	0.262100
O91	O9	0.853600	0.399400	0.028800
O101	O10	0.328500	0.292700	0.455300
O111	O11	0.051700	0.512300	0.102900
O121	O12	0.317300	0.589000	0.122400
O131	O13	0.408200	0.740000	0.215600
O141	O14	0.150600	0.430100	0.393000
O151	O15	0.624100	0.848000	0.163300
O161	O16	0.942500	0.375300	0.174100
N11	N1	0.627100	0.603700	0.603700
Fe51	Fe5	0.744400	0.077300	0.278700
Fe61	Fe6	0.937500	0.025800	0.129200
Fe71	Fe7	0.632500	0.852600	0.575300
Fe81	Fe8	0.469100	0.889600	0.209300
P51	P5	0.199900	0.914200	0.059400
P61	P6	0.720700	0.344900	0.295800
P71	P7	0.062200	0.124600	0.308000
P81	P8	0.585700	0.957700	0.393800
O171	O17	0.928800	0.117200	0.337500
O181	O18	0.672800	0.229000	0.268400
F31	F3	0.785500	0.093800	0.172000
F41	F4	0.550400	0.038600	0.221200
O191	O19	0.689300	0.046500	0.380400
O201	O20	0.690600	0.423200	0.224500
O211	O21	0.099300	0.960800	0.104200
O221	O22	0.184000	0.970600	0.979200
O231	O23	0.635800	0.379700	0.356200
O241	O24	0.056500	0.047100	0.237900
O251	O25	0.646400	0.899400	0.471200
O261	O26	0.171500	0.792700	0.044700
O271	O27	0.448300	0.012300	0.397100
O281	O28	0.182700	0.089000	0.377600
O291	O29	0.091800	0.240000	0.284400
O301	O30	0.349400	0.930100	0.107000
O311	O31	0.875900	0.348000	0.336700
O321	O32	0.557500	0.875300	0.325900
N21	N2	0.872900	0.103700	0.896300
Fe91	Fe9	0.244400	0.422700	0.778700
Fe101	Fe10	0.437500	0.474200	0.629200
Fe111	Fe11	0.132500	0.647400	0.075300
Fe121	Fe12	0.969100	0.610400	0.709300
P91	P9	0.699900	0.585800	0.559400
P101	P10	0.220700	0.155100	0.795800
P111	P11	0.562200	0.375400	0.808000
P121	P12	0.085700	0.542300	0.893800
O331	O33	0.428800	0.382800	0.837500
O341	O34	0.172800	0.271000	0.768400
F51	F5	0.285500	0.406200	0.672000
F61	F6	0.050400	0.461400	0.721200
O351	O35	0.189300	0.453500	0.880400
O361	O36	0.190600	0.076800	0.724500
O371	O37	0.599300	0.539200	0.604200
O381	O38	0.684000	0.529400	0.479200
O391	O39	0.135800	0.120300	0.856200
O401	O40	0.556500	0.452900	0.737900
O411	O41	0.146400	0.600600	0.971200
O421	O42	0.671500	0.707300	0.544700
O431	O43	0.948300	0.487700	0.897100
O441	O44	0.682700	0.411000	0.877600
O451	O45	0.591800	0.260000	0.784400
O461	O46	0.849400	0.569900	0.607000
O471	O47	0.375900	0.152000	0.836700
O481	O48	0.057500	0.624700	0.825900
N31	N3	0.372900	0.396300	0.396300
Fe131	Fe13	0.255600	0.922700	0.721300
Fe141	Fe14	0.062500	0.974200	0.870800
Fe151	Fe15	0.367500	0.147400	0.424700
Fe161	Fe16	0.530900	0.110400	0.790700
P131	P13	0.800100	0.085800	0.940600
P141	P14	0.279300	0.655100	0.704200
P151	P15	0.937800	0.875400	0.692000
P161	P16	0.414300	0.042300	0.606200
O491	O49	0.071200	0.882800	0.662500
O501	O50	0.327200	0.771000	0.731600
F71	F7	0.214500	0.906200	0.828000
F81	F8	0.449600	0.961400	0.778800
O511	O51	0.310700	0.953500	0.619600
O521	O52	0.309400	0.576800	0.775500
O531	O53	0.900700	0.039200	0.895800
O541	O54	0.816000	0.029400	0.020800
O551	O55	0.364200	0.620300	0.643800
O561	O56	0.943500	0.952900	0.762100
O571	O57	0.353600	0.100600	0.528800
O581	O58	0.828500	0.207300	0.955300
O591	O59	0.551700	0.987700	0.602900
O601	O60	0.817300	0.911000	0.622400
O611	O61	0.908200	0.760000	0.715600
O621	O62	0.650600	0.069900	0.893000
O631	O63	0.124100	0.652000	0.663300
O641	O64	0.442500	0.124700	0.674100
N41	N4	0.127100	0.896300	0.103700
