data_LUPTAS_clean_PM
_symmetry_space_group_name_H-M	'P1'
_cell_length_a	10.084800
_cell_length_b	19.368000
_cell_length_c	16.211000
_cell_angle_alpha	114.701000
_cell_angle_beta	90.000000
_cell_angle_gamma	90.000000
_symmetry_Int_Tables_number 1

loop_
_symmetry_equiv_pos_as_xyz
'x,y,z'

loop_
_atom_site_label
_atom_site_type_symbol
_atom_site_fract_x
_atom_site_fract_y
_atom_site_fract_z
Zn11	Zn1	0.028080	0.546840	0.681540
Zn21	Zn2	0.020000	0.990100	0.336090
Zn31	Zn3	0.528080	0.453160	0.818460
Zn41	Zn4	0.520000	0.009900	0.163910
Zn51	Zn5	0.971920	0.453160	0.318460
Zn61	Zn6	0.980000	0.009900	0.663910
Zn71	Zn7	0.471920	0.546840	0.181540
Zn81	Zn8	0.480000	0.990100	0.836090
H11	H1	0.295800	0.966800	0.540100
H21	H2	0.974900	0.645100	0.588700
H31	H3	0.726800	0.583400	0.733400
H41	H4	0.619500	0.773700	0.331300
H51	H5	0.977200	0.871000	0.412100
H61	H6	0.588400	0.699200	0.596100
H71	H7	0.552800	0.641800	0.695400
H81	H8	0.761200	0.929100	0.248700
H91	H9	0.592300	0.849300	0.249800
H101	H10	0.592700	0.779700	0.564700
H111	H11	0.597800	0.820900	0.502700
H121	H12	0.168200	0.570000	0.972300
H131	H13	0.795800	0.033200	0.959900
H141	H14	0.474900	0.354900	0.911300
H151	H15	0.226800	0.416600	0.766600
H161	H16	0.119500	0.226300	0.168700
H171	H17	0.477200	0.129000	0.087900
H181	H18	0.088400	0.300800	0.903900
H191	H19	0.052800	0.358200	0.804600
H201	H20	0.261200	0.070900	0.251300
H211	H21	0.092300	0.150700	0.250200
H221	H22	0.092700	0.220300	0.935300
H231	H23	0.097800	0.179100	0.997300
H241	H24	0.668200	0.430000	0.527700
H251	H25	0.704200	0.033200	0.459900
H261	H26	0.025100	0.354900	0.411300
H271	H27	0.273200	0.416600	0.266600
H281	H28	0.380500	0.226300	0.668700
H291	H29	0.022800	0.129000	0.587900
H301	H30	0.411600	0.300800	0.403900
H311	H31	0.447200	0.358200	0.304600
H321	H32	0.238800	0.070900	0.751300
H331	H33	0.407700	0.150700	0.750200
H341	H34	0.407300	0.220300	0.435300
H351	H35	0.402200	0.179100	0.497300
H361	H36	0.831800	0.430000	0.027700
H371	H37	0.204200	0.966800	0.040100
H381	H38	0.525100	0.645100	0.088700
H391	H39	0.773200	0.583400	0.233400
H401	H40	0.880500	0.773700	0.831300
H411	H41	0.522800	0.871000	0.912100
H421	H42	0.911600	0.699200	0.096100
H431	H43	0.947200	0.641800	0.195400
H441	H44	0.738800	0.929100	0.748700
H451	H45	0.907700	0.849300	0.749800
H461	H46	0.907300	0.779700	0.064700
H471	H47	0.902200	0.820900	0.002700
H481	H48	0.331800	0.570000	0.472300
C11	C1	0.379000	0.980300	0.523600
C21	C2	0.385500	0.000500	0.451300
C31	C3	0.973400	0.564900	0.867200
C41	C4	0.887200	0.643400	0.609100
C51	C5	0.259600	0.007400	0.406300
C61	C6	0.786100	0.676800	0.580100
C71	C7	0.742700	0.608200	0.694700
C81	C8	0.802900	0.814500	0.379200
C91	C9	0.687200	0.807900	0.331300
C101	C10	0.832200	0.766400	0.425600
C111	C11	0.898000	0.865900	0.378300
C121	C12	0.660000	0.676200	0.613300
C131	C13	0.638800	0.641900	0.671500
C141	C14	0.822300	0.705700	0.513400
C151	C15	0.771600	0.900500	0.283700
C161	C16	0.671500	0.852400	0.282900
C171	C17	0.980300	0.531100	0.936400
C181	C18	0.877900	0.490200	0.954700
C191	C19	0.744000	0.480400	0.908900
C201	C20	0.507300	0.020700	0.426800
C211	C21	0.525800	0.039200	0.345600
C221	C22	0.099900	0.541100	0.983100
C231	C23	0.879000	0.019700	0.976400
C241	C24	0.885500	0.999500	0.048700
C251	C25	0.473400	0.435100	0.632800
C261	C26	0.387200	0.356600	0.890900
C271	C27	0.759600	0.992600	0.093700
C281	C28	0.286100	0.323200	0.919900
C291	C29	0.242700	0.391800	0.805300
C301	C30	0.302900	0.185500	0.120800
C311	C31	0.187200	0.192100	0.168700
C321	C32	0.332200	0.233600	0.074400
C331	C33	0.398000	0.134100	0.121700
C341	C34	0.160000	0.323800	0.886700
C351	C35	0.138800	0.358100	0.828500
C361	C36	0.322300	0.294300	0.986600
C371	C37	0.271600	0.099500	0.216300
C381	C38	0.171500	0.147600	0.217100
C391	C39	0.480300	0.468900	0.563600
C401	C40	0.377900	0.509800	0.545300
C411	C41	0.244000	0.519600	0.591100
C421	C42	0.007300	0.979300	0.073200
C431	C43	0.025800	0.960800	0.154400
C441	C44	0.599900	0.458900	0.516900
C451	C45	0.621000	0.019700	0.476400
C461	C46	0.614500	0.999500	0.548700
C471	C47	0.026600	0.435100	0.132800
C481	C48	0.112800	0.356600	0.390900
C491	C49	0.740400	0.992600	0.593700
C501	C50	0.213900	0.323200	0.419900
C511	C51	0.257300	0.391800	0.305300
C521	C52	0.197100	0.185500	0.620800
C531	C53	0.312800	0.192100	0.668700
C541	C54	0.167800	0.233600	0.574400
C551	C55	0.102000	0.134100	0.621700
C561	C56	0.340000	0.323800	0.386700
C571	C57	0.361200	0.358100	0.328500
C581	C58	0.177700	0.294300	0.486600
C591	C59	0.228400	0.099500	0.716300
C601	C60	0.328500	0.147600	0.717100
C611	C61	0.019700	0.468900	0.063600
C621	C62	0.122100	0.509800	0.045300
C631	C63	0.256000	0.519600	0.091100
C641	C64	0.492700	0.979300	0.573200
C651	C65	0.474200	0.960800	0.654400
C661	C66	0.900100	0.458900	0.016900
C671	C67	0.121000	0.980300	0.023600
C681	C68	0.114500	0.000500	0.951300
C691	C69	0.526600	0.564900	0.367200
C701	C70	0.612800	0.643400	0.109100
C711	C71	0.240400	0.007400	0.906300
C721	C72	0.713900	0.676800	0.080100
C731	C73	0.757300	0.608200	0.194700
C741	C74	0.697100	0.814500	0.879200
C751	C75	0.812800	0.807900	0.831300
C761	C76	0.667800	0.766400	0.925600
C771	C77	0.602000	0.865900	0.878300
C781	C78	0.840000	0.676200	0.113300
C791	C79	0.861200	0.641900	0.171500
C801	C80	0.677700	0.705700	0.013400
C811	C81	0.728400	0.900500	0.783700
C821	C82	0.828500	0.852400	0.782900
C831	C83	0.519700	0.531100	0.436400
C841	C84	0.622100	0.490200	0.454700
C851	C85	0.756000	0.480400	0.408900
C861	C86	0.992700	0.020700	0.926800
C871	C87	0.974200	0.039200	0.845600
C881	C88	0.400100	0.541100	0.483100
N11	N1	0.866700	0.609000	0.664300
N21	N2	0.883200	0.909100	0.331600
N31	N3	0.939900	0.724300	0.411700
N41	N4	0.934000	0.687100	0.466300
N51	N5	0.755300	0.755300	0.488600
N61	N6	0.633600	0.789500	0.522800
N71	N7	0.366700	0.391000	0.835700
N81	N8	0.383200	0.090900	0.168400
N91	N9	0.439900	0.275700	0.088300
N101	N10	0.434000	0.312900	0.033700
N111	N11	0.255300	0.244700	0.011400
N121	N12	0.133600	0.210500	0.977200
N131	N13	0.133300	0.391000	0.335700
N141	N14	0.116800	0.090900	0.668400
N151	N15	0.060100	0.275700	0.588300
N161	N16	0.066000	0.312900	0.533700
N171	N17	0.244700	0.244700	0.511400
N181	N18	0.366400	0.210500	0.477200
N191	N19	0.633300	0.609000	0.164300
N201	N20	0.616800	0.909100	0.831600
N211	N21	0.560100	0.724300	0.911700
N221	N22	0.566000	0.687100	0.966300
N231	N23	0.744700	0.755300	0.988600
N241	N24	0.866400	0.789500	0.022800
O11	O1	0.989900	0.518300	0.785300
O21	O2	0.242400	0.061700	0.385500
O31	O3	0.967200	0.634800	0.896000
O41	O4	0.168700	0.958800	0.392300
O51	O5	0.722000	0.505900	0.851500
O61	O6	0.655300	0.444100	0.930300
O71	O7	0.490100	0.988000	0.269800
O81	O8	0.576200	0.098600	0.353900
O91	O9	0.489900	0.481700	0.714700
O101	O10	0.742400	0.938300	0.114500
O111	O11	0.467200	0.365200	0.604000
O121	O12	0.668700	0.041200	0.107700
O131	O13	0.222000	0.494100	0.648500
O141	O14	0.155300	0.555900	0.569700
O151	O15	0.990100	0.012000	0.230200
O161	O16	0.076200	0.901400	0.146100
O171	O17	0.010100	0.481700	0.214700
O181	O18	0.757600	0.938300	0.614500
O191	O19	0.032800	0.365200	0.104000
O201	O20	0.831300	0.041200	0.607700
O211	O21	0.278000	0.494100	0.148500
O221	O22	0.344700	0.555900	0.069700
O231	O23	0.509900	0.012000	0.730200
O241	O24	0.423800	0.901400	0.646100
O251	O25	0.510100	0.518300	0.285300
O261	O26	0.257600	0.061700	0.885500
O271	O27	0.532800	0.634800	0.396000
O281	O28	0.331300	0.958800	0.892300
O291	O29	0.778000	0.505900	0.351500
O301	O30	0.844700	0.444100	0.430300
O311	O31	0.009900	0.988000	0.769800
O321	O32	0.923800	0.098600	0.853900
