data_LUSHOX02_clean_PM
_symmetry_space_group_name_H-M	'P1'
_cell_length_a	10.189800
_cell_length_b	13.579200
_cell_length_c	17.622300
_cell_angle_alpha	90.738000
_cell_angle_beta	90.000000
_cell_angle_gamma	90.000000
_symmetry_Int_Tables_number 1

loop_
_symmetry_equiv_pos_as_xyz
'x,y,z'

loop_
_atom_site_label
_atom_site_type_symbol
_atom_site_fract_x
_atom_site_fract_y
_atom_site_fract_z
Mn11	Mn1	0.579700	0.389960	0.465720
Mn21	Mn2	0.429940	0.152400	0.480310
Mn31	Mn3	0.079700	0.610040	0.034280
Mn41	Mn4	0.929940	0.847600	0.019690
Mn51	Mn5	0.420300	0.610040	0.534280
Mn61	Mn6	0.570060	0.847600	0.519690
Mn71	Mn7	0.920300	0.389960	0.965720
Mn81	Mn8	0.070060	0.152400	0.980310
H11	H1	0.615000	0.231300	0.650500
H21	H2	0.372000	0.215600	0.666200
H31	H3	0.709000	0.304000	0.756700
H41	H4	0.810000	0.044000	0.833400
H51	H5	0.186000	0.483000	0.787400
H61	H6	0.271000	0.199000	0.779700
H71	H7	0.299000	0.504400	0.672500
H81	H8	0.721000	0.970000	0.731600
H91	H9	0.115000	0.768700	0.849500
H101	H10	0.872000	0.784400	0.833800
H111	H11	0.209000	0.696000	0.743300
H121	H12	0.310000	0.956000	0.666600
H131	H13	0.686000	0.517000	0.712600
H141	H14	0.771000	0.801000	0.720300
H151	H15	0.799000	0.495600	0.827500
H161	H16	0.221000	0.030000	0.768400
H171	H17	0.385000	0.768700	0.349500
H181	H18	0.628000	0.784400	0.333800
H191	H19	0.291000	0.696000	0.243300
H201	H20	0.190000	0.956000	0.166600
H211	H21	0.814000	0.517000	0.212600
H221	H22	0.729000	0.801000	0.220300
H231	H23	0.701000	0.495600	0.327500
H241	H24	0.279000	0.030000	0.268400
H251	H25	0.885000	0.231300	0.150500
H261	H26	0.128000	0.215600	0.166200
H271	H27	0.791000	0.304000	0.256700
H281	H28	0.690000	0.044000	0.333400
H291	H29	0.314000	0.483000	0.287400
H301	H30	0.229000	0.199000	0.279700
H311	H31	0.201000	0.504400	0.172500
H321	H32	0.779000	0.970000	0.231600
C11	C1	0.346300	0.359400	0.656310
C21	C2	0.337700	0.267510	0.688130
C31	C3	0.275500	0.256950	0.757330
C41	C4	0.219300	0.336910	0.793600
C51	C5	0.228300	0.429010	0.761300
C61	C6	0.293300	0.441000	0.693870
C71	C7	0.413560	0.372580	0.582400
C81	C8	0.146600	0.324110	0.866820
C91	C9	0.661700	0.091770	0.678930
C101	C10	0.656700	0.192400	0.687930
C111	C11	0.709300	0.236770	0.752150
C121	C12	0.767600	0.181570	0.807690
C131	C13	0.775000	0.080660	0.798070
C141	C14	0.721600	0.036520	0.734290
C151	C15	0.601800	0.043010	0.609740
C161	C16	0.823700	0.231300	0.876820
C171	C17	0.846300	0.640600	0.843690
C181	C18	0.837700	0.732490	0.811870
C191	C19	0.775500	0.743050	0.742670
C201	C20	0.719300	0.663090	0.706400
C211	C21	0.728300	0.570990	0.738700
C221	C22	0.793300	0.559000	0.806130
C231	C23	0.913560	0.627420	0.917600
C241	C24	0.646600	0.675890	0.633180
C251	C25	0.161700	0.908230	0.821070
C261	C26	0.156700	0.807600	0.812070
C271	C27	0.209300	0.763230	0.747850
C281	C28	0.267600	0.818430	0.692310
C291	C29	0.275000	0.919340	0.701930
C301	C30	0.221600	0.963480	0.765710
C311	C31	0.101800	0.956990	0.890260
C321	C32	0.323700	0.768700	0.623180
C331	C33	0.653700	0.640600	0.343690
C341	C34	0.662300	0.732490	0.311870
C351	C35	0.724500	0.743050	0.242670
C361	C36	0.780700	0.663090	0.206400
C371	C37	0.771700	0.570990	0.238700
C381	C38	0.706700	0.559000	0.306130
C391	C39	0.586440	0.627420	0.417600
C401	C40	0.853400	0.675890	0.133180
C411	C41	0.338300	0.908230	0.321070
C421	C42	0.343300	0.807600	0.312070
C431	C43	0.290700	0.763230	0.247850
C441	C44	0.232400	0.818430	0.192310
C451	C45	0.225000	0.919340	0.201930
C461	C46	0.278400	0.963480	0.265710
C471	C47	0.398200	0.956990	0.390260
C481	C48	0.176300	0.768700	0.123180
C491	C49	0.153700	0.359400	0.156310
C501	C50	0.162300	0.267510	0.188130
C511	C51	0.224500	0.256950	0.257330
C521	C52	0.280700	0.336910	0.293600
C531	C53	0.271700	0.429010	0.261300
C541	C54	0.206700	0.441000	0.193870
C551	C55	0.086440	0.372580	0.082400
C561	C56	0.353400	0.324110	0.366820
C571	C57	0.838300	0.091770	0.178930
C581	C58	0.843300	0.192400	0.187930
C591	C59	0.790700	0.236770	0.252150
C601	C60	0.732400	0.181570	0.307690
C611	C61	0.725000	0.080660	0.298070
C621	C62	0.778400	0.036520	0.234290
C631	C63	0.898200	0.043010	0.109740
C641	C64	0.676300	0.231300	0.376820
O11	O1	0.475340	0.301890	0.551810
O21	O2	0.409780	0.454500	0.551480
O31	O3	0.066510	0.390050	0.883350
O41	O4	0.172560	0.251110	0.905030
O51	O5	0.521000	0.090210	0.573560
O61	O6	0.637500	0.957920	0.594820
O71	O7	0.891750	0.182490	0.921120
O81	O8	0.796100	0.320340	0.886950
O91	O9	0.975340	0.698110	0.948190
O101	O10	0.909780	0.545500	0.948520
O111	O11	0.566510	0.609950	0.616650
O121	O12	0.672560	0.748890	0.594970
O131	O13	0.021000	0.909790	0.926440
O141	O14	0.137500	0.042080	0.905180
O151	O15	0.391750	0.817510	0.578880
O161	O16	0.296100	0.679660	0.613050
O171	O17	0.524660	0.698110	0.448190
O181	O18	0.590220	0.545500	0.448520
O191	O19	0.933490	0.609950	0.116650
O201	O20	0.827440	0.748890	0.094970
O211	O21	0.479000	0.909790	0.426440
O221	O22	0.362500	0.042080	0.405180
O231	O23	0.108250	0.817510	0.078880
O241	O24	0.203900	0.679660	0.113050
O251	O25	0.024660	0.301890	0.051810
O261	O26	0.090220	0.454500	0.051480
O271	O27	0.433490	0.390050	0.383350
O281	O28	0.327440	0.251110	0.405030
O291	O29	0.979000	0.090210	0.073560
O301	O30	0.862500	0.957920	0.094820
O311	O31	0.608250	0.182490	0.421120
O321	O32	0.703900	0.320340	0.386950
