data_LUSHOX03_clean_PM
_symmetry_space_group_name_H-M	'P1'
_cell_length_a	13.396100
_cell_length_b	10.157900
_cell_length_c	17.655500
_cell_angle_alpha	90.000000
_cell_angle_beta	90.079000
_cell_angle_gamma	90.000000
_symmetry_Int_Tables_number 1

loop_
_symmetry_equiv_pos_as_xyz
'x,y,z'

loop_
_atom_site_label
_atom_site_type_symbol
_atom_site_fract_x
_atom_site_fract_y
_atom_site_fract_z
Mn11	Mn1	0.846500	0.424180	0.015390
Mn21	Mn2	0.611170	0.581670	0.031890
C11	C1	0.628000	0.411500	0.917120
C21	C2	0.639600	0.347600	0.841980
C31	C3	0.565400	0.230100	0.737800
H11	H1	0.509000	0.190200	0.714600
C41	C4	0.658000	0.223700	0.702870
C51	C5	0.741100	0.281300	0.736700
H21	H2	0.803700	0.279500	0.711600
C61	C6	0.912700	0.663000	0.819280
C71	C7	0.670600	0.149600	0.630000
C81	C8	0.763900	0.708700	0.746400
H31	H3	0.693500	0.703300	0.740500
C91	C9	0.821300	0.768500	0.690200
C101	C10	0.924900	0.776600	0.699100
H41	H4	0.964500	0.818200	0.661500
C111	C11	0.770900	0.823900	0.621300
C121	C12	0.555300	0.294200	0.806150
H51	H5	0.491400	0.302200	0.828940
C131	C13	0.969500	0.723500	0.763200
H61	H6	0.040000	0.728500	0.768900
C141	C14	0.732600	0.341400	0.806900
H71	H7	0.789800	0.378100	0.830900
C151	C15	0.808900	0.656600	0.811100
H81	H8	0.769300	0.617000	0.849400
O11	O1	0.915400	0.514800	0.922970
O21	O2	0.700090	0.476600	0.945660
O31	O3	0.546460	0.402400	0.951990
O41	O4	0.607900	0.059600	0.618180
O51	O5	0.741100	0.181700	0.587010
O61	O6	0.819500	0.898300	0.577940
O71	O7	0.681000	0.790500	0.609820
O81	O8	0.045600	0.649300	0.906740
C161	C16	0.962000	0.604000	0.888850
Mn31	Mn3	0.153500	0.924180	0.484610
Mn41	Mn4	0.388830	0.081670	0.468110
C171	C17	0.372000	0.911500	0.582880
C181	C18	0.360400	0.847600	0.658020
C191	C19	0.434600	0.730100	0.762200
H91	H9	0.491000	0.690200	0.785400
C201	C20	0.342000	0.723700	0.797130
C211	C21	0.258900	0.781300	0.763300
H101	H10	0.196300	0.779500	0.788400
C221	C22	0.087300	0.163000	0.680720
C231	C23	0.329400	0.649600	0.870000
C241	C24	0.236100	0.208700	0.753600
H111	H11	0.306500	0.203300	0.759500
C251	C25	0.178700	0.268500	0.809800
C261	C26	0.075100	0.276600	0.800900
H121	H12	0.035500	0.318200	0.838500
C271	C27	0.229100	0.323900	0.878700
C281	C28	0.444700	0.794200	0.693850
H131	H13	0.508600	0.802200	0.671060
C291	C29	0.030500	0.223500	0.736800
H141	H14	0.960000	0.228500	0.731100
C301	C30	0.267400	0.841400	0.693100
H151	H15	0.210200	0.878100	0.669100
C311	C31	0.191100	0.156600	0.688900
H161	H16	0.230700	0.117000	0.650600
O91	O9	0.084600	0.014800	0.577030
O101	O10	0.299910	0.976600	0.554340
O111	O11	0.453540	0.902400	0.548010
O121	O12	0.392100	0.559600	0.881820
O131	O13	0.258900	0.681700	0.912990
O141	O14	0.180500	0.398300	0.922060
O151	O15	0.319000	0.290500	0.890180
O161	O16	0.954400	0.149300	0.593260
C321	C32	0.038000	0.104000	0.611150
Mn51	Mn5	0.153500	0.575820	0.984610
Mn61	Mn6	0.388830	0.418330	0.968110
C331	C33	0.372000	0.588500	0.082880
C341	C34	0.360400	0.652400	0.158020
C351	C35	0.434600	0.769900	0.262200
H171	H17	0.491000	0.809800	0.285400
C361	C36	0.342000	0.776300	0.297130
C371	C37	0.258900	0.718700	0.263300
H181	H18	0.196300	0.720500	0.288400
C381	C38	0.087300	0.337000	0.180720
C391	C39	0.329400	0.850400	0.370000
C401	C40	0.236100	0.291300	0.253600
H191	H19	0.306500	0.296700	0.259500
C411	C41	0.178700	0.231500	0.309800
C421	C42	0.075100	0.223400	0.300900
H201	H20	0.035500	0.181800	0.338500
C431	C43	0.229100	0.176100	0.378700
C441	C44	0.444700	0.705800	0.193850
H211	H21	0.508600	0.697800	0.171060
C451	C45	0.030500	0.276500	0.236800
H221	H22	0.960000	0.271500	0.231100
C461	C46	0.267400	0.658600	0.193100
H231	H23	0.210200	0.621900	0.169100
C471	C47	0.191100	0.343400	0.188900
H241	H24	0.230700	0.383000	0.150600
O171	O17	0.084600	0.485200	0.077030
O181	O18	0.299910	0.523400	0.054340
O191	O19	0.453540	0.597600	0.048010
O201	O20	0.392100	0.940400	0.381820
O211	O21	0.258900	0.818300	0.412990
O221	O22	0.180500	0.101700	0.422060
O231	O23	0.319000	0.209500	0.390180
O241	O24	0.954400	0.350700	0.093260
C481	C48	0.038000	0.396000	0.111150
Mn71	Mn7	0.846500	0.075820	0.515390
Mn81	Mn8	0.611170	0.918330	0.531890
C491	C49	0.628000	0.088500	0.417120
C501	C50	0.639600	0.152400	0.341980
C511	C51	0.565400	0.269900	0.237800
H251	H25	0.509000	0.309800	0.214600
C521	C52	0.658000	0.276300	0.202870
C531	C53	0.741100	0.218700	0.236700
H261	H26	0.803700	0.220500	0.211600
C541	C54	0.912700	0.837000	0.319280
C551	C55	0.670600	0.350400	0.130000
C561	C56	0.763900	0.791300	0.246400
H271	H27	0.693500	0.796700	0.240500
C571	C57	0.821300	0.731500	0.190200
C581	C58	0.924900	0.723400	0.199100
H281	H28	0.964500	0.681800	0.161500
C591	C59	0.770900	0.676100	0.121300
C601	C60	0.555300	0.205800	0.306150
H291	H29	0.491400	0.197800	0.328940
C611	C61	0.969500	0.776500	0.263200
H301	H30	0.040000	0.771500	0.268900
C621	C62	0.732600	0.158600	0.306900
H311	H31	0.789800	0.121900	0.330900
C631	C63	0.808900	0.843400	0.311100
H321	H32	0.769300	0.883000	0.349400
O251	O25	0.915400	0.985200	0.422970
O261	O26	0.700090	0.023400	0.445660
O271	O27	0.546460	0.097600	0.451990
O281	O28	0.607900	0.440400	0.118180
O291	O29	0.741100	0.318300	0.087010
O301	O30	0.819500	0.601700	0.077940
O311	O31	0.681000	0.709500	0.109820
O321	O32	0.045600	0.850700	0.406740
C641	C64	0.962000	0.896000	0.388850
