data_LUSHOX04_clean_PM
_symmetry_space_group_name_H-M	'P1'
_cell_length_a	13.635300
_cell_length_b	10.225900
_cell_length_c	17.692500
_cell_angle_alpha	90.000000
_cell_angle_beta	90.704000
_cell_angle_gamma	90.000000
_symmetry_Int_Tables_number 1

loop_
_symmetry_equiv_pos_as_xyz
'x,y,z'

loop_
_atom_site_label
_atom_site_type_symbol
_atom_site_fract_x
_atom_site_fract_y
_atom_site_fract_z
Mn11	Mn1	0.389980	0.920280	0.965820
Mn21	Mn2	0.152310	0.070190	0.980440
O11	O1	0.390030	0.066070	0.883390
O21	O2	0.320150	0.796100	0.887090
O31	O3	0.302070	0.475250	0.551930
O41	O4	0.251220	0.172520	0.905290
O51	O5	0.182000	0.892010	0.921250
O61	O6	0.090250	0.520680	0.573640
O71	O7	0.454540	0.410150	0.551390
O81	O8	0.957630	0.637400	0.594820
C11	C1	0.230730	0.823700	0.877020
C21	C2	0.181040	0.767600	0.807770
C31	C3	0.236360	0.709100	0.752280
H11	H1	0.304200	0.705000	0.758000
C41	C4	0.192280	0.656600	0.688340
H21	H2	0.230600	0.617900	0.651400
C51	C5	0.091240	0.661500	0.679080
C61	C6	0.036370	0.721800	0.734250
H31	H3	0.968600	0.726500	0.728400
C71	C7	0.080520	0.775300	0.798170
H41	H4	0.042500	0.816400	0.834500
C81	C8	0.324290	0.146700	0.866650
C91	C9	0.336880	0.219400	0.793650
C101	C10	0.429100	0.228200	0.761310
H51	H5	0.483000	0.190000	0.785300
C111	C11	0.440820	0.293200	0.693830
H61	H6	0.502900	0.301800	0.673300
C121	C12	0.359420	0.346300	0.656300
C131	C13	0.267320	0.337500	0.688170
H71	H7	0.212900	0.372500	0.663300
C141	C14	0.257110	0.275900	0.757610
H81	H8	0.195800	0.272700	0.780100
C151	C15	0.372610	0.413600	0.582460
C161	C16	0.042820	0.601800	0.609900
Mn31	Mn3	0.610020	0.420280	0.534180
Mn41	Mn4	0.847690	0.570190	0.519560
O91	O9	0.609970	0.566070	0.616610
O101	O10	0.679850	0.296100	0.612910
O111	O11	0.697930	0.975250	0.948070
O121	O12	0.748780	0.672520	0.594710
O131	O13	0.818000	0.392010	0.578750
O141	O14	0.909750	0.020680	0.926360
O151	O15	0.545460	0.910150	0.948610
O161	O16	0.042370	0.137400	0.905180
C171	C17	0.769270	0.323700	0.622980
C181	C18	0.818960	0.267600	0.692230
C191	C19	0.763640	0.209100	0.747720
H91	H9	0.695800	0.205000	0.742000
C201	C20	0.807720	0.156600	0.811660
H101	H10	0.769400	0.117900	0.848600
C211	C21	0.908760	0.161500	0.820920
C221	C22	0.963630	0.221800	0.765750
H111	H11	0.031400	0.226500	0.771600
C231	C23	0.919480	0.275300	0.701830
H121	H12	0.957500	0.316400	0.665500
C241	C24	0.675710	0.646700	0.633350
C251	C25	0.663120	0.719400	0.706350
C261	C26	0.570900	0.728200	0.738690
H131	H13	0.517000	0.690000	0.714700
C271	C27	0.559180	0.793200	0.806170
H141	H14	0.497100	0.801800	0.826700
C281	C28	0.640580	0.846300	0.843700
C291	C29	0.732680	0.837500	0.811830
H151	H15	0.787100	0.872500	0.836700
C301	C30	0.742890	0.775900	0.742390
H161	H16	0.804200	0.772700	0.719900
C311	C31	0.627390	0.913600	0.917540
C321	C32	0.957180	0.101800	0.890100
Mn51	Mn5	0.610020	0.079720	0.034180
Mn61	Mn6	0.847690	0.929810	0.019560
O171	O17	0.609970	0.933930	0.116610
O181	O18	0.679850	0.203900	0.112910
O191	O19	0.697930	0.524750	0.448070
O201	O20	0.748780	0.827480	0.094710
O211	O21	0.818000	0.107990	0.078750
O221	O22	0.909750	0.479320	0.426360
O231	O23	0.545460	0.589850	0.448610
O241	O24	0.042370	0.362600	0.405180
C331	C33	0.769270	0.176300	0.122980
C341	C34	0.818960	0.232400	0.192230
C351	C35	0.763640	0.290900	0.247720
H171	H17	0.695800	0.295000	0.242000
C361	C36	0.807720	0.343400	0.311660
H181	H18	0.769400	0.382100	0.348600
C371	C37	0.908760	0.338500	0.320920
C381	C38	0.963630	0.278200	0.265750
H191	H19	0.031400	0.273500	0.271600
C391	C39	0.919480	0.224700	0.201830
H201	H20	0.957500	0.183600	0.165500
C401	C40	0.675710	0.853300	0.133350
C411	C41	0.663120	0.780600	0.206350
C421	C42	0.570900	0.771800	0.238690
H211	H21	0.517000	0.810000	0.214700
C431	C43	0.559180	0.706800	0.306170
H221	H22	0.497100	0.698200	0.326700
C441	C44	0.640580	0.653700	0.343700
C451	C45	0.732680	0.662500	0.311830
H231	H23	0.787100	0.627500	0.336700
C461	C46	0.742890	0.724100	0.242390
H241	H24	0.804200	0.727300	0.219900
C471	C47	0.627390	0.586400	0.417540
C481	C48	0.957180	0.398200	0.390100
Mn71	Mn7	0.389980	0.579720	0.465820
Mn81	Mn8	0.152310	0.429810	0.480440
O251	O25	0.390030	0.433930	0.383390
O261	O26	0.320150	0.703900	0.387090
O271	O27	0.302070	0.024750	0.051930
O281	O28	0.251220	0.327480	0.405290
O291	O29	0.182000	0.607990	0.421250
O301	O30	0.090250	0.979320	0.073640
O311	O31	0.454540	0.089850	0.051390
O321	O32	0.957630	0.862600	0.094820
C491	C49	0.230730	0.676300	0.377020
C501	C50	0.181040	0.732400	0.307770
C511	C51	0.236360	0.790900	0.252280
H251	H25	0.304200	0.795000	0.258000
C521	C52	0.192280	0.843400	0.188340
H261	H26	0.230600	0.882100	0.151400
C531	C53	0.091240	0.838500	0.179080
C541	C54	0.036370	0.778200	0.234250
H271	H27	0.968600	0.773500	0.228400
C551	C55	0.080520	0.724700	0.298170
H281	H28	0.042500	0.683600	0.334500
C561	C56	0.324290	0.353300	0.366650
C571	C57	0.336880	0.280600	0.293650
C581	C58	0.429100	0.271800	0.261310
H291	H29	0.483000	0.310000	0.285300
C591	C59	0.440820	0.206800	0.193830
H301	H30	0.502900	0.198200	0.173300
C601	C60	0.359420	0.153700	0.156300
C611	C61	0.267320	0.162500	0.188170
H311	H31	0.212900	0.127500	0.163300
C621	C62	0.257110	0.224100	0.257610
H321	H32	0.195800	0.227300	0.280100
C631	C63	0.372610	0.086400	0.082460
C641	C64	0.042820	0.898200	0.109900
