data_LUSHOX01_clean_PM
_symmetry_space_group_name_H-M	'P1'
_cell_length_a	10.162000
_cell_length_b	13.414000
_cell_length_c	17.653000
_cell_angle_alpha	90.210000
_cell_angle_beta	90.000000
_cell_angle_gamma	90.000000
_symmetry_Int_Tables_number 1

loop_
_symmetry_equiv_pos_as_xyz
'x,y,z'

loop_
_atom_site_label
_atom_site_type_symbol
_atom_site_fract_x
_atom_site_fract_y
_atom_site_fract_z
Mn11	Mn1	0.081580	0.388870	0.467980
Mn21	Mn2	0.924450	0.153500	0.484570
Mn31	Mn3	0.581580	0.611130	0.032020
Mn41	Mn4	0.424450	0.846500	0.015430
Mn51	Mn5	0.918420	0.611130	0.532020
Mn61	Mn6	0.075550	0.846500	0.515430
Mn71	Mn7	0.418420	0.388870	0.967980
Mn81	Mn8	0.575550	0.153500	0.984570
H11	H1	0.877800	0.210300	0.668200
H21	H2	0.802400	0.508400	0.670700
H31	H3	0.779800	0.196000	0.788100
H41	H4	0.690100	0.491000	0.785800
H51	H5	0.296100	0.306300	0.258900
H61	H6	0.181200	0.036100	0.338400
H71	H7	0.382800	0.230500	0.150700
H81	H8	0.271800	0.960300	0.230800
H91	H9	0.377800	0.789700	0.831800
H101	H10	0.302400	0.491600	0.829300
H111	H11	0.279800	0.804000	0.711900
H121	H12	0.190100	0.509000	0.714200
H131	H13	0.796100	0.693700	0.241100
H141	H14	0.681200	0.963900	0.161600
H151	H15	0.882800	0.769500	0.349300
H161	H16	0.771800	0.039700	0.269200
H171	H17	0.122200	0.789700	0.331800
H181	H18	0.197600	0.491600	0.329300
H191	H19	0.220200	0.804000	0.211900
H201	H20	0.309900	0.509000	0.214200
H211	H21	0.703900	0.693700	0.741100
H221	H22	0.818800	0.963900	0.661600
H231	H23	0.617200	0.769500	0.849300
H241	H24	0.728200	0.039700	0.769200
H251	H25	0.622200	0.210300	0.168200
H261	H26	0.697600	0.508400	0.170700
H271	H27	0.720200	0.196000	0.288100
H281	H28	0.809900	0.491000	0.285800
H291	H29	0.203900	0.306300	0.758900
H301	H30	0.318800	0.036100	0.838400
H311	H31	0.117200	0.230500	0.650700
H321	H32	0.228200	0.960300	0.730800
C11	C1	0.911360	0.371590	0.582720
C21	C2	0.847470	0.360570	0.657960
C31	C3	0.841390	0.267200	0.692530
C41	C4	0.794350	0.444650	0.693550
C51	C5	0.781250	0.258600	0.763070
C61	C6	0.729740	0.434630	0.762350
C71	C7	0.723370	0.341320	0.796950
C81	C8	0.648950	0.329490	0.870200
C91	C9	0.176170	0.228990	0.378700
C101	C10	0.231260	0.178900	0.309610
C111	C11	0.291040	0.235900	0.253170
C121	C12	0.223010	0.075480	0.300840
C131	C13	0.343070	0.190920	0.188940
C141	C14	0.276520	0.030660	0.236580
C151	C15	0.337020	0.087610	0.180490
C161	C16	0.395820	0.038440	0.111190
C171	C17	0.411360	0.628410	0.917280
C181	C18	0.347470	0.639430	0.842040
C191	C19	0.341390	0.732800	0.807470
C201	C20	0.294350	0.555350	0.806450
C211	C21	0.281250	0.741400	0.736930
C221	C22	0.229740	0.565370	0.737650
C231	C23	0.223370	0.658680	0.703050
C241	C24	0.148950	0.670510	0.629800
C251	C25	0.676170	0.771010	0.121300
C261	C26	0.731260	0.821100	0.190390
C271	C27	0.791040	0.764100	0.246830
C281	C28	0.723010	0.924520	0.199160
C291	C29	0.843070	0.809080	0.311060
C301	C30	0.776520	0.969340	0.263420
C311	C31	0.837020	0.912390	0.319510
C321	C32	0.895820	0.961560	0.388810
C331	C33	0.088640	0.628410	0.417280
C341	C34	0.152530	0.639430	0.342040
C351	C35	0.158610	0.732800	0.307470
C361	C36	0.205650	0.555350	0.306450
C371	C37	0.218750	0.741400	0.236930
C381	C38	0.270260	0.565370	0.237650
C391	C39	0.276630	0.658680	0.203050
C401	C40	0.351050	0.670510	0.129800
C411	C41	0.823830	0.771010	0.621300
C421	C42	0.768740	0.821100	0.690390
C431	C43	0.708960	0.764100	0.746830
C441	C44	0.776990	0.924520	0.699160
C451	C45	0.656930	0.809080	0.811060
C461	C46	0.723480	0.969340	0.763420
C471	C47	0.662980	0.912390	0.819510
C481	C48	0.604180	0.961560	0.888810
C491	C49	0.588640	0.371590	0.082720
C501	C50	0.652530	0.360570	0.157960
C511	C51	0.658610	0.267200	0.192530
C521	C52	0.705650	0.444650	0.193550
C531	C53	0.718750	0.258600	0.263070
C541	C54	0.770260	0.434630	0.262350
C551	C55	0.776630	0.341320	0.296950
C561	C56	0.851050	0.329490	0.370200
C571	C57	0.323830	0.228990	0.878700
C581	C58	0.268740	0.178900	0.809610
C591	C59	0.208960	0.235900	0.753170
C601	C60	0.276990	0.075480	0.800840
C611	C61	0.156930	0.190920	0.688940
C621	C62	0.223480	0.030660	0.736580
C631	C63	0.162980	0.087610	0.680490
C641	C64	0.104180	0.038440	0.611190
O11	O1	0.976750	0.300000	0.554360
O21	O2	0.902900	0.453440	0.548140
O31	O3	0.559870	0.392030	0.881930
O41	O4	0.681200	0.258820	0.912710
O51	O5	0.209170	0.318930	0.390080
O61	O6	0.102040	0.180640	0.421880
O71	O7	0.351450	0.954270	0.093300
O81	O8	0.485010	0.084570	0.077080
O91	O9	0.476750	0.700000	0.945640
O101	O10	0.402900	0.546560	0.951860
O111	O11	0.059870	0.607970	0.618070
O121	O12	0.181200	0.741180	0.587290
O131	O13	0.709170	0.681070	0.109920
O141	O14	0.602040	0.819360	0.078120
O151	O15	0.851450	0.045730	0.406700
O161	O16	0.985010	0.915430	0.422920
O171	O17	0.023250	0.700000	0.445640
O181	O18	0.097100	0.546560	0.451860
O191	O19	0.440130	0.607970	0.118070
O201	O20	0.318800	0.741180	0.087290
O211	O21	0.790830	0.681070	0.609920
O221	O22	0.897960	0.819360	0.578120
O231	O23	0.648550	0.045730	0.906700
O241	O24	0.514990	0.915430	0.922920
O251	O25	0.523250	0.300000	0.054360
O261	O26	0.597100	0.453440	0.048140
O271	O27	0.940130	0.392030	0.381930
O281	O28	0.818800	0.258820	0.412710
O291	O29	0.290830	0.318930	0.890080
O301	O30	0.397960	0.180640	0.921880
O311	O31	0.148550	0.954270	0.593300
O321	O32	0.014990	0.084570	0.577080
