data_LUSYEF_clean_PM
_symmetry_space_group_name_H-M	'P1'
_cell_length_a	18.428400
_cell_length_b	18.428400
_cell_length_c	40.081000
_cell_angle_alpha	90.000000
_cell_angle_beta	90.000000
_cell_angle_gamma	120.000000
_symmetry_Int_Tables_number 1

loop_
_symmetry_equiv_pos_as_xyz
'x,y,z'

loop_
_atom_site_label
_atom_site_type_symbol
_atom_site_fract_x
_atom_site_fract_y
_atom_site_fract_z
O11	O1	0.972400	0.561200	0.043050
O21	O2	0.891500	0.520000	0.998070
C11	C1	0.874600	0.619600	0.073180
H11	H1	0.924500	0.632000	0.083700
C21	C2	0.855000	0.578600	0.042230
C31	C3	0.909700	0.550400	0.026860
O31	O3	0.639070	0.894530	0.376380
O41	O4	0.558170	0.853330	0.331400
C41	C4	0.541270	0.952930	0.406510
H21	H2	0.591170	0.965330	0.417030
C51	C5	0.521670	0.911930	0.375560
C61	C6	0.576370	0.883730	0.360190
O51	O5	0.305730	0.227870	0.709720
O61	O6	0.224830	0.186670	0.664740
C71	C7	0.207930	0.286270	0.739850
H31	H3	0.257830	0.298670	0.750370
C81	C8	0.188330	0.245270	0.708900
C91	C9	0.243030	0.217070	0.693530
O71	O7	0.438800	0.411200	0.043050
O81	O8	0.480000	0.371500	0.998070
C101	C10	0.380400	0.255000	0.073180
H41	H4	0.368000	0.292500	0.083700
C111	C11	0.421400	0.276400	0.042230
C121	C12	0.449600	0.359300	0.026860
O91	O9	0.105470	0.744530	0.376380
O101	O10	0.146670	0.704830	0.331400
C131	C13	0.047070	0.588330	0.406510
H51	H5	0.034670	0.625830	0.417030
C141	C14	0.088070	0.609730	0.375560
C151	C15	0.116270	0.692630	0.360190
O111	O11	0.772130	0.077870	0.709720
O121	O12	0.813330	0.038170	0.664740
C161	C16	0.713730	0.921670	0.739850
H61	H6	0.701330	0.959170	0.750370
C171	C17	0.754730	0.943070	0.708900
C181	C18	0.782930	0.025970	0.693530
O131	O13	0.588800	0.027600	0.043050
O141	O14	0.628500	0.108500	0.998070
C191	C19	0.745000	0.125400	0.073180
H71	H7	0.707500	0.075500	0.083700
C201	C20	0.723600	0.145000	0.042230
C211	C21	0.640700	0.090300	0.026860
O151	O15	0.255470	0.360930	0.376380
O161	O16	0.295170	0.441830	0.331400
C221	C22	0.411670	0.458730	0.406510
H81	H8	0.374170	0.408830	0.417030
C231	C23	0.390270	0.478330	0.375560
C241	C24	0.307370	0.423630	0.360190
O171	O17	0.922130	0.694270	0.709720
O181	O18	0.961830	0.775170	0.664740
C251	C25	0.078330	0.792070	0.739850
H91	H9	0.040830	0.742170	0.750370
C261	C26	0.056930	0.811670	0.708900
C271	C27	0.974030	0.756970	0.693530
O191	O19	0.561200	0.972400	0.956950
O201	O20	0.520000	0.891500	0.001930
C281	C28	0.619600	0.874600	0.926820
H101	H10	0.632000	0.924500	0.916300
C291	C29	0.578600	0.855000	0.957770
C301	C30	0.550400	0.909700	0.973140
O211	O21	0.227870	0.305730	0.290280
O221	O22	0.186670	0.224830	0.335260
C311	C31	0.286270	0.207930	0.260150
H111	H11	0.298670	0.257830	0.249630
C321	C32	0.245270	0.188330	0.291100
C331	C33	0.217070	0.243030	0.306470
O231	O23	0.894530	0.639070	0.623620
O241	O24	0.853330	0.558170	0.668600
C341	C34	0.952930	0.541270	0.593490
H121	H12	0.965330	0.591170	0.582970
C351	C35	0.911930	0.521670	0.624440
C361	C36	0.883730	0.576370	0.639810
O251	O25	0.411200	0.438800	0.956950
O261	O26	0.371500	0.480000	0.001930
C371	C37	0.255000	0.380400	0.926820
H131	H13	0.292500	0.368000	0.916300
C381	C38	0.276400	0.421400	0.957770
C391	C39	0.359300	0.449600	0.973140
O271	O27	0.077870	0.772130	0.290280
O281	O28	0.038170	0.813330	0.335260
C401	C40	0.921670	0.713730	0.260150
H141	H14	0.959170	0.701330	0.249630
C411	C41	0.943070	0.754730	0.291100
C421	C42	0.025970	0.782930	0.306470
O291	O29	0.744530	0.105470	0.623620
O301	O30	0.704830	0.146670	0.668600
C431	C43	0.588330	0.047070	0.593490
H151	H15	0.625830	0.034670	0.582970
C441	C44	0.609730	0.088070	0.624440
C451	C45	0.692630	0.116270	0.639810
O311	O31	0.027600	0.588800	0.956950
O321	O32	0.108500	0.628500	0.001930
C461	C46	0.125400	0.745000	0.926820
H161	H16	0.075500	0.707500	0.916300
C471	C47	0.145000	0.723600	0.957770
C481	C48	0.090300	0.640700	0.973140
O331	O33	0.694270	0.922130	0.290280
O341	O34	0.775170	0.961830	0.335260
C491	C49	0.792070	0.078330	0.260150
H171	H17	0.742170	0.040830	0.249630
C501	C50	0.811670	0.056930	0.291100
C511	C51	0.756970	0.974030	0.306470
O351	O35	0.360930	0.255470	0.623620
O361	O36	0.441830	0.295170	0.668600
C521	C52	0.458730	0.411670	0.593490
H181	H18	0.408830	0.374170	0.582970
C531	C53	0.478330	0.390270	0.624440
C541	C54	0.423630	0.307370	0.639810
O371	O37	0.027600	0.438800	0.956950
O381	O38	0.108500	0.480000	0.001930
C551	C55	0.125400	0.380400	0.926820
H191	H19	0.075500	0.368000	0.916300
C561	C56	0.145000	0.421400	0.957770
C571	C57	0.090300	0.449600	0.973140
O391	O39	0.694270	0.772130	0.290280
O401	O40	0.775170	0.813330	0.335260
C581	C58	0.792070	0.713730	0.260150
H201	H20	0.742170	0.701330	0.249630
C591	C59	0.811670	0.754730	0.291100
C601	C60	0.756970	0.782930	0.306470
O411	O41	0.360930	0.105470	0.623620
O421	O42	0.441830	0.146670	0.668600
C611	C61	0.458730	0.047070	0.593490
H211	H21	0.408830	0.034670	0.582970
C621	C62	0.478330	0.088070	0.624440
C631	C63	0.423630	0.116270	0.639810
O431	O43	0.561200	0.588800	0.956950
O441	O44	0.520000	0.628500	0.001930
C641	C64	0.619600	0.745000	0.926820
H221	H22	0.632000	0.707500	0.916300
C651	C65	0.578600	0.723600	0.957770
C661	C66	0.550400	0.640700	0.973140
O451	O45	0.227870	0.922130	0.290280
O461	O46	0.186670	0.961830	0.335260
C671	C67	0.286270	0.078330	0.260150
H231	H23	0.298670	0.040830	0.249630
C681	C68	0.245270	0.056930	0.291100
C691	C69	0.217070	0.974030	0.306470
O471	O47	0.894530	0.255470	0.623620
O481	O48	0.853330	0.295170	0.668600
C701	C70	0.952930	0.411670	0.593490
H241	H24	0.965330	0.374170	0.582970
C711	C71	0.911930	0.390270	0.624440
C721	C72	0.883730	0.307370	0.639810
O491	O49	0.411200	0.972400	0.956950
O501	O50	0.371500	0.891500	0.001930
C731	C73	0.255000	0.874600	0.926820
H251	H25	0.292500	0.924500	0.916300
C741	C74	0.276400	0.855000	0.957770
C751	C75	0.359300	0.909700	0.973140
O511	O51	0.077870	0.305730	0.290280
O521	O52	0.038170	0.224830	0.335260
C761	C76	0.921670	0.207930	0.260150
H261	H26	0.959170	0.257830	0.249630
C771	C77	0.943070	0.188330	0.291100
C781	C78	0.025970	0.243030	0.306470
O531	O53	0.744530	0.639070	0.623620
O541	O54	0.704830	0.558170	0.668600
C791	C79	0.588330	0.541270	0.593490
H271	H27	0.625830	0.591170	0.582970
C801	C80	0.609730	0.521670	0.624440
C811	C81	0.692630	0.576370	0.639810
O551	O55	0.438800	0.027600	0.043050
O561	O56	0.480000	0.108500	0.998070
C821	C82	0.380400	0.125400	0.073180
H281	H28	0.368000	0.075500	0.083700
C831	C83	0.421400	0.145000	0.042230
C841	C84	0.449600	0.090300	0.026860
O571	O57	0.105470	0.360930	0.376380
O581	O58	0.146670	0.441830	0.331400
C851	C85	0.047070	0.458730	0.406510
H291	H29	0.034670	0.408830	0.417030
C861	C86	0.088070	0.478330	0.375560
C871	C87	0.116270	0.423630	0.360190
O591	O59	0.772130	0.694270	0.709720
O601	O60	0.813330	0.775170	0.664740
C881	C88	0.713730	0.792070	0.739850
H301	H30	0.701330	0.742170	0.750370
C891	C89	0.754730	0.811670	0.708900
C901	C90	0.782930	0.756970	0.693530
O611	O61	0.588800	0.561200	0.043050
O621	O62	0.628500	0.520000	0.998070
C911	C91	0.745000	0.619600	0.073180
H311	H31	0.707500	0.632000	0.083700
C921	C92	0.723600	0.578600	0.042230
C931	C93	0.640700	0.550400	0.026860
O631	O63	0.255470	0.894530	0.376380
O641	O64	0.295170	0.853330	0.331400
C941	C94	0.411670	0.952930	0.406510
H321	H32	0.374170	0.965330	0.417030
C951	C95	0.390270	0.911930	0.375560
C961	C96	0.307370	0.883730	0.360190
O651	O65	0.922130	0.227870	0.709720
O661	O66	0.961830	0.186670	0.664740
C971	C97	0.078330	0.286270	0.739850
H331	H33	0.040830	0.298670	0.750370
C981	C98	0.056930	0.245270	0.708900
C991	C99	0.974030	0.217070	0.693530
O671	O67	0.972400	0.411200	0.043050
O681	O68	0.891500	0.371500	0.998070
C1001	C100	0.874600	0.255000	0.073180
H341	H34	0.924500	0.292500	0.083700
C1011	C101	0.855000	0.276400	0.042230
C1021	C102	0.909700	0.359300	0.026860
O691	O69	0.639070	0.744530	0.376380
O701	O70	0.558170	0.704830	0.331400
C1031	C103	0.541270	0.588330	0.406510
H351	H35	0.591170	0.625830	0.417030
C1041	C104	0.521670	0.609730	0.375560
C1051	C105	0.576370	0.692630	0.360190
O711	O71	0.305730	0.077870	0.709720
O721	O72	0.224830	0.038170	0.664740
C1061	C106	0.207930	0.921670	0.739850
H361	H36	0.257830	0.959170	0.750370
C1071	C107	0.188330	0.943070	0.708900
C1081	C108	0.243030	0.025970	0.693530
Cu11	Cu1	0.048810	0.524410	0.026670
Cu21	Cu2	0.715480	0.857740	0.360000
Cu31	Cu3	0.382140	0.191070	0.693340
Cu41	Cu4	0.475590	0.524410	0.026670
Cu51	Cu5	0.142260	0.857740	0.360000
Cu61	Cu6	0.808930	0.191070	0.693340
Cu71	Cu7	0.475590	0.951190	0.026670
Cu81	Cu8	0.142260	0.284520	0.360000
Cu91	Cu9	0.808930	0.617860	0.693340
Cu101	Cu10	0.524410	0.048810	0.973330
Cu111	Cu11	0.191070	0.382140	0.306660
Cu121	Cu12	0.857740	0.715480	0.640000
Cu131	Cu13	0.524410	0.475590	0.973330
Cu141	Cu14	0.191070	0.808930	0.306660
Cu151	Cu15	0.857740	0.142260	0.640000
Cu161	Cu16	0.951190	0.475600	0.973330
Cu171	Cu17	0.617860	0.808930	0.306660
Cu181	Cu18	0.284520	0.142260	0.640000
C1091	C109	0.822850	0.645700	0.151400
C1101	C110	0.843250	0.686500	0.121600
C1111	C111	0.885750	0.771500	0.120800
H371	H37	0.900200	0.800400	0.100700
C1121	C112	0.907750	0.815500	0.152100
H381	H38	0.936900	0.873800	0.152200
C1131	C113	0.779550	0.559100	0.027410
H391	H39	0.766000	0.532000	0.006900
C1141	C114	0.779650	0.559300	0.152100
H401	H40	0.764750	0.529500	0.132200
C1151	C115	0.820900	0.641800	0.088200
C1161	C116	0.489520	0.979030	0.484730
C1171	C117	0.509920	0.019830	0.454930
C1181	C118	0.552420	0.104830	0.454130
H411	H41	0.566870	0.133730	0.434030
C1191	C119	0.574420	0.148830	0.485430
H421	H42	0.603570	0.207130	0.485530
C1201	C120	0.446220	0.892430	0.360740
H431	H43	0.432670	0.865330	0.340230
C1211	C121	0.446320	0.892630	0.485430
H441	H44	0.431420	0.862830	0.465530
C1221	C122	0.487570	0.975130	0.421530
C1231	C123	0.156180	0.312370	0.818070
C1241	C124	0.176580	0.353170	0.788270
C1251	C125	0.219080	0.438170	0.787470
H451	H45	0.233530	0.467070	0.767370
C1261	C126	0.241080	0.482170	0.818770
H461	H46	0.270230	0.540470	0.818870
C1271	C127	0.112880	0.225770	0.694080
H471	H47	0.099330	0.198670	0.673570
C1281	C128	0.112980	0.225970	0.818770
H481	H48	0.098080	0.196170	0.798870
C1291	C129	0.154230	0.308470	0.754870
C1301	C130	0.354300	0.177150	0.151400
C1311	C131	0.313500	0.156750	0.121600
C1321	C132	0.228500	0.114250	0.120800
H491	H49	0.199600	0.099800	0.100700
C1331	C133	0.184500	0.092250	0.152100
H501	H50	0.126200	0.063100	0.152200
C1341	C134	0.440900	0.220450	0.027410
H511	H51	0.468000	0.234000	0.006900
C1351	C135	0.440700	0.220350	0.152100
H521	H52	0.470500	0.235250	0.132200
C1361	C136	0.358200	0.179100	0.088200
C1371	C137	0.020970	0.510480	0.484730
C1381	C138	0.980170	0.490080	0.454930
C1391	C139	0.895170	0.447580	0.454130
H531	H53	0.866270	0.433130	0.434030
C1401	C140	0.851170	0.425580	0.485430
H541	H54	0.792870	0.396430	0.485530
C1411	C141	0.107570	0.553780	0.360740
H551	H55	0.134670	0.567330	0.340230
C1421	C142	0.107370	0.553680	0.485430
H561	H56	0.137170	0.568580	0.465530
C1431	C143	0.024870	0.512430	0.421530
C1441	C144	0.687630	0.843820	0.818070
C1451	C145	0.646830	0.823420	0.788270
C1461	C146	0.561830	0.780920	0.787470
H571	H57	0.532930	0.766470	0.767370
C1471	C147	0.517830	0.758920	0.818770
H581	H58	0.459530	0.729770	0.818870
C1481	C148	0.774230	0.887120	0.694080
H591	H59	0.801330	0.900670	0.673570
C1491	C149	0.774030	0.887020	0.818770
H601	H60	0.803830	0.901920	0.798870
C1501	C150	0.691530	0.845770	0.754870
C1511	C151	0.822850	0.177150	0.151400
C1521	C152	0.843250	0.156750	0.121600
C1531	C153	0.885750	0.114250	0.120800
H611	H61	0.900200	0.099800	0.100700
C1541	C154	0.907750	0.092250	0.152100
H621	H62	0.936900	0.063100	0.152200
C1551	C155	0.779550	0.220450	0.027410
H631	H63	0.766000	0.234000	0.006900
C1561	C156	0.779650	0.220350	0.152100
H641	H64	0.764750	0.235250	0.132200
C1571	C157	0.820900	0.179100	0.088200
C1581	C158	0.489520	0.510480	0.484730
C1591	C159	0.509920	0.490080	0.454930
C1601	C160	0.552420	0.447580	0.454130
H651	H65	0.566870	0.433130	0.434030
C1611	C161	0.574420	0.425580	0.485430
H661	H66	0.603570	0.396430	0.485530
C1621	C162	0.446220	0.553780	0.360740
H671	H67	0.432670	0.567330	0.340230
C1631	C163	0.446320	0.553680	0.485430
H681	H68	0.431420	0.568580	0.465530
C1641	C164	0.487570	0.512430	0.421530
C1651	C165	0.156180	0.843820	0.818070
C1661	C166	0.176580	0.823420	0.788270
C1671	C167	0.219080	0.780920	0.787470
H691	H69	0.233530	0.766470	0.767370
C1681	C168	0.241080	0.758920	0.818770
H701	H70	0.270230	0.729770	0.818870
C1691	C169	0.112880	0.887120	0.694080
H711	H71	0.099330	0.900670	0.673570
C1701	C170	0.112980	0.887020	0.818770
H721	H72	0.098080	0.901920	0.798870
C1711	C171	0.154230	0.845770	0.754870
C1721	C172	0.645700	0.822850	0.848600
C1731	C173	0.686500	0.843250	0.878400
C1741	C174	0.771500	0.885750	0.879200
H731	H73	0.800400	0.900200	0.899300
C1751	C175	0.815500	0.907750	0.847900
H741	H74	0.873800	0.936900	0.847800
C1761	C176	0.559100	0.779550	0.972590
H751	H75	0.532000	0.766000	0.993100
C1771	C177	0.559300	0.779650	0.847900
H761	H76	0.529500	0.764750	0.867800
C1781	C178	0.641800	0.820900	0.911800
C1791	C179	0.312370	0.156180	0.181930
C1801	C180	0.353170	0.176580	0.211730
C1811	C181	0.438170	0.219080	0.212530
H771	H77	0.467070	0.233530	0.232630
C1821	C182	0.482170	0.241080	0.181230
H781	H78	0.540470	0.270230	0.181130
C1831	C183	0.225770	0.112880	0.305920
H791	H79	0.198670	0.099330	0.326430
C1841	C184	0.225970	0.112980	0.181230
H801	H80	0.196170	0.098080	0.201130
C1851	C185	0.308470	0.154230	0.245130
C1861	C186	0.979030	0.489520	0.515270
C1871	C187	0.019830	0.509920	0.545070
C1881	C188	0.104830	0.552420	0.545870
H811	H81	0.133730	0.566870	0.565970
C1891	C189	0.148830	0.574420	0.514570
H821	H82	0.207130	0.603570	0.514470
C1901	C190	0.892430	0.446220	0.639260
H831	H83	0.865330	0.432670	0.659770
C1911	C191	0.892630	0.446320	0.514570
H841	H84	0.862830	0.431420	0.534470
C1921	C192	0.975130	0.487570	0.578470
C1931	C193	0.177150	0.354300	0.848600
C1941	C194	0.156750	0.313500	0.878400
C1951	C195	0.114250	0.228500	0.879200
H851	H85	0.099800	0.199600	0.899300
C1961	C196	0.092250	0.184500	0.847900
H861	H86	0.063100	0.126200	0.847800
C1971	C197	0.220450	0.440900	0.972590
H871	H87	0.234000	0.468000	0.993100
C1981	C198	0.220350	0.440700	0.847900
H881	H88	0.235250	0.470500	0.867800
C1991	C199	0.179100	0.358200	0.911800
C2001	C200	0.843820	0.687630	0.181930
C2011	C201	0.823420	0.646830	0.211730
C2021	C202	0.780920	0.561830	0.212530
H891	H89	0.766470	0.532930	0.232630
C2031	C203	0.758920	0.517830	0.181230
H901	H90	0.729770	0.459530	0.181130
C2041	C204	0.887120	0.774230	0.305920
H911	H91	0.900670	0.801330	0.326430
C2051	C205	0.887020	0.774030	0.181230
H921	H92	0.901920	0.803830	0.201130
C2061	C206	0.845770	0.691530	0.245130
C2071	C207	0.510480	0.020970	0.515270
C2081	C208	0.490080	0.980170	0.545070
C2091	C209	0.447580	0.895170	0.545870
H931	H93	0.433130	0.866270	0.565970
C2101	C210	0.425580	0.851170	0.514570
H941	H94	0.396430	0.792870	0.514470
C2111	C211	0.553780	0.107570	0.639260
H951	H95	0.567330	0.134670	0.659770
C2121	C212	0.553680	0.107370	0.514570
H961	H96	0.568580	0.137170	0.534470
C2131	C213	0.512430	0.024870	0.578470
C2141	C214	0.177150	0.822850	0.848600
C2151	C215	0.156750	0.843250	0.878400
C2161	C216	0.114250	0.885750	0.879200
H971	H97	0.099800	0.900200	0.899300
C2171	C217	0.092250	0.907750	0.847900
H981	H98	0.063100	0.936900	0.847800
C2181	C218	0.220450	0.779550	0.972590
H991	H99	0.234000	0.766000	0.993100
C2191	C219	0.220350	0.779650	0.847900
H1001	H100	0.235250	0.764750	0.867800
C2201	C220	0.179100	0.820900	0.911800
C2211	C221	0.843820	0.156180	0.181930
C2221	C222	0.823420	0.176580	0.211730
C2231	C223	0.780920	0.219080	0.212530
H1011	H101	0.766470	0.233530	0.232630
C2241	C224	0.758920	0.241080	0.181230
H1021	H102	0.729770	0.270230	0.181130
C2251	C225	0.887120	0.112880	0.305920
H1031	H103	0.900670	0.099330	0.326430
C2261	C226	0.887020	0.112980	0.181230
H1041	H104	0.901920	0.098080	0.201130
C2271	C227	0.845770	0.154230	0.245130
C2281	C228	0.510480	0.489520	0.515270
C2291	C229	0.490080	0.509920	0.545070
C2301	C230	0.447580	0.552420	0.545870
H1051	H105	0.433130	0.566870	0.565970
C2311	C231	0.425580	0.574420	0.514570
H1061	H106	0.396430	0.603570	0.514470
C2321	C232	0.553780	0.446220	0.639260
H1071	H107	0.567330	0.432670	0.659770
C2331	C233	0.553680	0.446320	0.514570
H1081	H108	0.568580	0.431420	0.534470
C2341	C234	0.512430	0.487570	0.578470
