data_LUTBEI_clean_PM
_symmetry_space_group_name_H-M	'P1'
_cell_length_a	7.301000
_cell_length_b	10.210000
_cell_length_c	18.048000
_cell_angle_alpha	90.000000
_cell_angle_beta	90.000000
_cell_angle_gamma	94.334000
_symmetry_Int_Tables_number 1

loop_
_symmetry_equiv_pos_as_xyz
'x,y,z'

loop_
_atom_site_label
_atom_site_type_symbol
_atom_site_fract_x
_atom_site_fract_y
_atom_site_fract_z
Cu11	Cu1	0.865040	0.215930	0.905340
Cu21	Cu2	0.040000	0.930010	0.931590
Cu31	Cu3	0.634960	0.284070	0.405340
Cu41	Cu4	0.460000	0.569990	0.431590
Cu51	Cu5	0.134960	0.784070	0.094660
Cu61	Cu6	0.960000	0.069990	0.068410
Cu71	Cu7	0.365040	0.715930	0.594660
Cu81	Cu8	0.540000	0.430010	0.568410
H11	H1	0.778500	0.164300	0.692200
H21	H2	0.936000	0.798800	0.707700
H31	H3	0.772200	0.935400	0.510700
H41	H4	0.721500	0.335700	0.192200
H51	H5	0.564000	0.701200	0.207700
H61	H6	0.727800	0.564600	0.010700
H71	H7	0.221500	0.835700	0.307800
H81	H8	0.064000	0.201200	0.292300
H91	H9	0.227800	0.064600	0.489300
H101	H10	0.278500	0.664300	0.807800
H111	H11	0.436000	0.298800	0.792300
H121	H12	0.272200	0.435400	0.989300
C11	C1	0.856300	0.848700	0.603600
C21	C2	0.768300	0.070100	0.594900
C31	C3	0.800600	0.085100	0.669600
C41	C4	0.864600	0.986600	0.711900
C51	C5	0.898600	0.011600	0.793000
C61	C6	0.893200	0.866500	0.679500
C71	C7	0.795300	0.948100	0.561000
C81	C8	0.694300	0.180800	0.552900
C91	C9	0.643700	0.651300	0.103600
C101	C10	0.731700	0.429900	0.094900
C111	C11	0.699400	0.414900	0.169600
C121	C12	0.635400	0.513400	0.211900
C131	C13	0.601400	0.488400	0.293000
C141	C14	0.606800	0.633500	0.179500
C151	C15	0.704700	0.551900	0.061000
C161	C16	0.805700	0.319200	0.052900
C171	C17	0.143700	0.151300	0.396400
C181	C18	0.231700	0.929900	0.405100
C191	C19	0.199400	0.914900	0.330400
C201	C20	0.135400	0.013400	0.288100
C211	C21	0.101400	0.988400	0.207000
C221	C22	0.106800	0.133500	0.320500
C231	C23	0.204700	0.051900	0.439000
C241	C24	0.305700	0.819200	0.447100
C251	C25	0.356300	0.348700	0.896400
C261	C26	0.268300	0.570100	0.905100
C271	C27	0.300600	0.585100	0.830400
C281	C28	0.364600	0.486600	0.788100
C291	C29	0.398600	0.511600	0.707000
C301	C30	0.393200	0.366500	0.820500
C311	C31	0.295300	0.448100	0.939000
C321	C32	0.194300	0.680800	0.947100
S11	S1	0.876700	0.690390	0.565190
S21	S2	0.623300	0.809610	0.065190
S31	S3	0.123300	0.309610	0.434810
S41	S4	0.376700	0.190390	0.934810
O11	O1	0.943400	0.915100	0.832200
O21	O2	0.871200	0.056700	0.965200
O31	O3	0.656000	0.162700	0.486200
O41	O4	0.877700	0.124300	0.813800
O51	O5	0.861400	0.700500	0.487100
O61	O6	0.680200	0.282800	0.589400
O71	O7	0.726400	0.612100	0.598500
O81	O8	0.047800	0.647600	0.591800
O91	O9	0.556600	0.584900	0.332200
O101	O10	0.628800	0.443300	0.465200
O111	O11	0.844000	0.337300	0.986200
O121	O12	0.622300	0.375700	0.313800
O131	O13	0.638600	0.799500	0.987100
O141	O14	0.819800	0.217200	0.089400
O151	O15	0.773600	0.887900	0.098500
O161	O16	0.452200	0.852400	0.091800
O171	O17	0.056600	0.084900	0.167800
O181	O18	0.128800	0.943300	0.034800
O191	O19	0.344000	0.837300	0.513800
O201	O20	0.122300	0.875700	0.186200
O211	O21	0.138600	0.299500	0.512900
O221	O22	0.319800	0.717200	0.410600
O231	O23	0.273600	0.387900	0.401500
O241	O24	0.952200	0.352400	0.408200
O251	O25	0.443400	0.415100	0.667800
O261	O26	0.371200	0.556700	0.534800
O271	O27	0.156000	0.662700	0.013800
O281	O28	0.377700	0.624300	0.686200
O291	O29	0.361400	0.200500	0.012900
O301	O30	0.180200	0.782800	0.910600
O311	O31	0.226400	0.112100	0.901500
O321	O32	0.547800	0.147600	0.908200
