data_LUTDAG_clean_PM
_symmetry_space_group_name_H-M	'P1'
_cell_length_a	7.301000
_cell_length_b	10.133000
_cell_length_c	18.032000
_cell_angle_alpha	90.000000
_cell_angle_beta	90.000000
_cell_angle_gamma	94.307000
_symmetry_Int_Tables_number 1

loop_
_symmetry_equiv_pos_as_xyz
'x,y,z'

loop_
_atom_site_label
_atom_site_type_symbol
_atom_site_fract_x
_atom_site_fract_y
_atom_site_fract_z
Cu11	Cu1	0.865070	0.216390	0.905360
Cu21	Cu2	0.458690	0.569520	0.431520
Cu31	Cu3	0.634930	0.283610	0.405360
Cu41	Cu4	0.041310	0.930480	0.931520
Cu51	Cu5	0.134930	0.783610	0.094640
Cu61	Cu6	0.541310	0.430480	0.568480
Cu71	Cu7	0.365070	0.716390	0.594640
Cu81	Cu8	0.958690	0.069520	0.068480
H11	H1	0.717300	0.334200	0.192000
H21	H2	0.559200	0.702800	0.207000
H31	H3	0.725900	0.564400	0.011400
H41	H4	0.782700	0.165800	0.692000
H51	H5	0.940800	0.797200	0.707000
H61	H6	0.774100	0.935600	0.511400
H71	H7	0.282700	0.665800	0.808000
H81	H8	0.440800	0.297200	0.793000
H91	H9	0.274100	0.435600	0.988600
H101	H10	0.217300	0.834200	0.308000
H111	H11	0.059200	0.202800	0.293000
H121	H12	0.225900	0.064400	0.488600
C11	C1	0.640900	0.649600	0.103700
C21	C2	0.729900	0.430300	0.095400
C31	C3	0.697100	0.414500	0.169600
C41	C4	0.634900	0.515100	0.212100
C51	C5	0.598900	0.491100	0.293000
C61	C6	0.603700	0.634400	0.179500
C71	C7	0.702400	0.551500	0.061700
C81	C8	0.802500	0.319700	0.052700
C91	C9	0.859100	0.850400	0.603700
C101	C10	0.770100	0.069700	0.595400
C111	C11	0.802900	0.085500	0.669600
C121	C12	0.865100	0.984900	0.712100
C131	C13	0.901100	0.008900	0.793000
C141	C14	0.896300	0.865600	0.679500
C151	C15	0.797600	0.948500	0.561700
C161	C16	0.697500	0.180300	0.552700
C171	C17	0.359100	0.350400	0.896300
C181	C18	0.270100	0.569700	0.904600
C191	C19	0.302900	0.585500	0.830400
C201	C20	0.365100	0.484900	0.787900
C211	C21	0.401100	0.508900	0.707000
C221	C22	0.396300	0.365600	0.820500
C231	C23	0.297600	0.448500	0.938300
C241	C24	0.197500	0.680300	0.947300
C251	C25	0.140900	0.149600	0.396300
C261	C26	0.229900	0.930300	0.404600
C271	C27	0.197100	0.914500	0.330400
C281	C28	0.134900	0.015100	0.287900
C291	C29	0.098900	0.991100	0.207000
C301	C30	0.103700	0.134400	0.320500
C311	C31	0.202400	0.051500	0.438300
C321	C32	0.302500	0.819700	0.447300
S11	S1	0.622300	0.809270	0.065160
S21	S2	0.877700	0.690730	0.565160
S31	S3	0.377700	0.190730	0.934840
S41	S4	0.122300	0.309270	0.434840
O11	O1	0.553800	0.585200	0.331600
O21	O2	0.870900	0.056600	0.965000
O31	O3	0.841300	0.336800	0.986300
O41	O4	0.619900	0.375200	0.313800
O51	O5	0.634000	0.800200	0.987600
O61	O6	0.817700	0.216400	0.089500
O71	O7	0.773000	0.888700	0.098000
O81	O8	0.452100	0.853300	0.091800
O91	O9	0.946200	0.914800	0.831600
O101	O10	0.629100	0.443400	0.465000
O111	O11	0.658700	0.163200	0.486300
O121	O12	0.880100	0.124800	0.813800
O131	O13	0.866000	0.699800	0.487600
O141	O14	0.682300	0.283600	0.589500
O151	O15	0.727000	0.611300	0.598000
O161	O16	0.047900	0.646700	0.591800
O171	O17	0.446200	0.414800	0.668400
O181	O18	0.129100	0.943400	0.035000
O191	O19	0.158700	0.663200	0.013700
O201	O20	0.380100	0.624800	0.686200
O211	O21	0.366000	0.199800	0.012400
O221	O22	0.182300	0.783600	0.910500
O231	O23	0.227000	0.111300	0.902000
O241	O24	0.547900	0.146700	0.908200
O251	O25	0.053800	0.085200	0.168400
O261	O26	0.370900	0.556600	0.535000
O271	O27	0.341300	0.836800	0.513700
O281	O28	0.119900	0.875200	0.186200
O291	O29	0.134000	0.300200	0.512400
O301	O30	0.317700	0.716400	0.410500
O311	O31	0.273000	0.388700	0.402000
O321	O32	0.952100	0.353300	0.408200
