data_LUVWUU_clean_PM
_symmetry_space_group_name_H-M	'P1'
_cell_length_a	31.301400
_cell_length_b	31.301400
_cell_length_c	12.792100
_cell_angle_alpha	90.000000
_cell_angle_beta	90.000000
_cell_angle_gamma	120.000000
_symmetry_Int_Tables_number 1

loop_
_symmetry_equiv_pos_as_xyz
'x,y,z'

loop_
_atom_site_label
_atom_site_type_symbol
_atom_site_fract_x
_atom_site_fract_y
_atom_site_fract_z
Ag11	Ag1	0.132680	0.538320	0.140920
C11	C1	0.122630	0.622020	0.304300
C21	C2	0.070500	0.556200	0.436600
H11	H1	0.066400	0.576200	0.487000
C31	C3	0.053400	0.506700	0.444200
H21	H2	0.035500	0.485500	0.500600
C41	C4	0.067700	0.494180	0.351700
H31	H3	0.060300	0.461700	0.334300
C51	C5	0.102500	0.614480	0.033300
H41	H4	0.106600	0.606100	0.964100
C61	C6	0.072900	0.634910	0.060400
H51	H5	0.053700	0.642500	0.014700
C71	C7	0.077570	0.641440	0.165000
H61	H6	0.062000	0.654600	0.207600
C81	C8	0.252200	0.679700	0.281400
H71	H7	0.283500	0.704700	0.256900
C91	C9	0.245200	0.641200	0.348600
H81	H8	0.269800	0.635700	0.378600
C101	C10	0.195400	0.613700	0.361500
H91	H9	0.178400	0.584700	0.402600
C111	C11	0.113310	0.655140	0.378000
H101	H10	0.077400	0.642000	0.384800
H111	H11	0.126600	0.655100	0.448200
C121	C12	0.127400	0.733870	0.413000
H121	H12	0.143400	0.735100	0.480700
H131	H13	0.091600	0.719300	0.425200
C131	C13	0.148470	0.785190	0.369300
C141	C14	0.171610	0.824790	0.439000
H141	H14	0.174700	0.819100	0.510800
C151	C15	0.143120	0.793540	0.265600
H151	H15	0.126700	0.766400	0.219200
N11	N1	0.123920	0.608520	0.116600
N21	N2	0.108670	0.625610	0.198000
N31	N3	0.094100	0.571320	0.344700
N41	N4	0.092760	0.532930	0.291200
N51	N5	0.209550	0.676490	0.256300
N61	N6	0.174650	0.635180	0.305300
O11	O1	0.136000	0.703670	0.339500
Ag21	Ag2	0.799350	0.871650	0.474250
C161	C16	0.789300	0.955350	0.637630
C171	C17	0.737170	0.889530	0.769930
H161	H16	0.733070	0.909530	0.820330
C181	C18	0.720070	0.840030	0.777530
H171	H17	0.702170	0.818830	0.833930
C191	C19	0.734370	0.827510	0.685030
H181	H18	0.726970	0.795030	0.667630
C201	C20	0.769170	0.947810	0.366630
H191	H19	0.773270	0.939430	0.297430
C211	C21	0.739570	0.968240	0.393730
H201	H20	0.720370	0.975830	0.348030
C221	C22	0.744240	0.974770	0.498330
H211	H21	0.728670	0.987930	0.540930
C231	C23	0.918870	0.013030	0.614730
H221	H22	0.950170	0.038030	0.590230
C241	C24	0.911870	0.974530	0.681930
H231	H23	0.936470	0.969030	0.711930
C251	C25	0.862070	0.947030	0.694830
H241	H24	0.845070	0.918030	0.735930
C261	C26	0.779980	0.988470	0.711330
H251	H25	0.744070	0.975330	0.718130
H261	H26	0.793270	0.988430	0.781530
C271	C27	0.794070	0.067200	0.746330
H271	H27	0.810070	0.068430	0.814030
H281	H28	0.758270	0.052630	0.758530
C281	C28	0.815140	0.118520	0.702630
C291	C29	0.838280	0.158120	0.772330
H291	H29	0.841370	0.152430	0.844130
C301	C30	0.809790	0.126870	0.598930
H301	H30	0.793370	0.099730	0.552530
N71	N7	0.790590	0.941850	0.449930
N81	N8	0.775340	0.958940	0.531330
N91	N9	0.760770	0.904650	0.678030
N101	N10	0.759430	0.866260	0.624530
N111	N11	0.876220	0.009820	0.589630
N121	N12	0.841320	0.968510	0.638630
O21	O2	0.802670	0.037000	0.672830
Ag31	Ag3	0.466020	0.204980	0.807590
C311	C31	0.455960	0.288690	0.970970
C321	C32	0.403830	0.222870	0.103270
H311	H31	0.399730	0.242870	0.153670
C331	C33	0.386730	0.173370	0.110870
H321	H32	0.368830	0.152170	0.167270
C341	C34	0.401030	0.160850	0.018370
H331	H33	0.393630	0.128370	0.000970
C351	C35	0.435830	0.281150	0.699970
H341	H34	0.439930	0.272770	0.630770
C361	C36	0.406230	0.301580	0.727070
H351	H35	0.387030	0.309170	0.681370
C371	C37	0.410900	0.308110	0.831670
H361	H36	0.395330	0.321270	0.874270
C381	C38	0.585530	0.346370	0.948070
H371	H37	0.616830	0.371370	0.923570
C391	C39	0.578530	0.307870	0.015270
H381	H38	0.603130	0.302370	0.045270
C401	C40	0.528730	0.280370	0.028170
H391	H39	0.511730	0.251370	0.069270
C411	C41	0.446640	0.321810	0.044670
H401	H40	0.410730	0.308670	0.051470
H411	H41	0.459930	0.321770	0.114870
C421	C42	0.460730	0.400540	0.079670
H421	H42	0.476730	0.401770	0.147370
H431	H43	0.424930	0.385970	0.091870
C431	C43	0.481800	0.451860	0.035970
C441	C44	0.504940	0.491460	0.105670
H441	H44	0.508030	0.485770	0.177470
C451	C45	0.476450	0.460210	0.932270
H451	H45	0.460030	0.433070	0.885870
N131	N13	0.457250	0.275190	0.783270
N141	N14	0.442000	0.292280	0.864670
N151	N15	0.427430	0.237990	0.011370
N161	N16	0.426090	0.199600	0.957870
N171	N17	0.542880	0.343160	0.922970
N181	N18	0.507980	0.301850	0.971970
O31	O3	0.469330	0.370340	0.006170
Ag41	Ag4	0.461680	0.594370	0.140920
C461	C46	0.377980	0.500610	0.304300
C471	C47	0.443800	0.514300	0.436600
H461	H46	0.423800	0.490200	0.487000
C481	C48	0.493300	0.546700	0.444200
H471	H47	0.514500	0.550000	0.500600
C491	C49	0.505820	0.573520	0.351700
H481	H48	0.538300	0.598600	0.334300
C501	C50	0.385520	0.488020	0.033300
H491	H49	0.393900	0.500500	0.964100
C511	C51	0.365090	0.437990	0.060400
H501	H50	0.357500	0.411200	0.014700
C521	C52	0.358560	0.436130	0.165000
H511	H51	0.345400	0.407400	0.207600
C531	C53	0.320300	0.572500	0.281400
H521	H52	0.295300	0.578800	0.256900
C541	C54	0.358800	0.604000	0.348600
H531	H53	0.364300	0.634100	0.378600
C551	C55	0.386300	0.581700	0.361500
H541	H54	0.415300	0.593700	0.402600
C561	C56	0.344860	0.458170	0.378000
H551	H55	0.358000	0.435400	0.384800
H561	H56	0.344900	0.471500	0.448200
C571	C57	0.266130	0.393530	0.413000
H571	H57	0.264900	0.408300	0.480700
H581	H58	0.280700	0.372300	0.425200
C581	C58	0.214810	0.363280	0.369300
C591	C59	0.175210	0.346820	0.439000
H591	H59	0.180900	0.355600	0.510800
C601	C60	0.206460	0.349580	0.265600
H601	H60	0.233600	0.360300	0.219200
N191	N19	0.391480	0.515400	0.116600
N201	N20	0.374390	0.483060	0.198000
N211	N21	0.428680	0.522780	0.344700
N221	N22	0.467070	0.559830	0.291200
N231	N23	0.323510	0.533060	0.256300
N241	N24	0.364820	0.539470	0.305300
O41	O4	0.296330	0.432330	0.339500
Ag51	Ag5	0.128350	0.927700	0.474250
C611	C61	0.044650	0.833940	0.637630
C621	C62	0.110470	0.847630	0.769930
H611	H61	0.090470	0.823530	0.820330
C631	C63	0.159970	0.880030	0.777530
H621	H62	0.181170	0.883330	0.833930
C641	C64	0.172490	0.906850	0.685030
H631	H63	0.204970	0.931930	0.667630
C651	C65	0.052190	0.821350	0.366630
H641	H64	0.060570	0.833830	0.297430
C661	C66	0.031760	0.771320	0.393730
H651	H65	0.024170	0.744530	0.348030
C671	C67	0.025230	0.769460	0.498330
H661	H66	0.012070	0.740730	0.540930
C681	C68	0.986970	0.905830	0.614730
H671	H67	0.961970	0.912130	0.590230
C691	C69	0.025470	0.937330	0.681930
H681	H68	0.030970	0.967430	0.711930
C701	C70	0.052970	0.915030	0.694830
H691	H69	0.081970	0.927030	0.735930
C711	C71	0.011530	0.791500	0.711330
H701	H70	0.024670	0.768730	0.718130
H711	H71	0.011570	0.804830	0.781530
C721	C72	0.932800	0.726860	0.746330
H721	H72	0.931570	0.741630	0.814030
H731	H73	0.947370	0.705630	0.758530
C731	C73	0.881480	0.696610	0.702630
C741	C74	0.841880	0.680150	0.772330
H741	H74	0.847570	0.688930	0.844130
C751	C75	0.873130	0.682910	0.598930
H751	H75	0.900270	0.693630	0.552530
N251	N25	0.058150	0.848730	0.449930
N261	N26	0.041060	0.816390	0.531330
N271	N27	0.095350	0.856110	0.678030
N281	N28	0.133740	0.893160	0.624530
N291	N29	0.990180	0.866390	0.589630
N301	N30	0.031490	0.872800	0.638630
O51	O5	0.963000	0.765660	0.672830
Ag61	Ag6	0.795020	0.261030	0.807590
C761	C76	0.711310	0.167280	0.970970
C771	C77	0.777130	0.180970	0.103270
H761	H76	0.757130	0.156870	0.153670
C781	C78	0.826630	0.213370	0.110870
H771	H77	0.847830	0.216670	0.167270
C791	C79	0.839150	0.240190	0.018370
H781	H78	0.871630	0.265270	0.000970
C801	C80	0.718850	0.154690	0.699970
H791	H79	0.727230	0.167170	0.630770
C811	C81	0.698420	0.104660	0.727070
H801	H80	0.690830	0.077870	0.681370
C821	C82	0.691890	0.102800	0.831670
H811	H81	0.678730	0.074070	0.874270
C831	C83	0.653630	0.239170	0.948070
H821	H82	0.628630	0.245470	0.923570
C841	C84	0.692130	0.270670	0.015270
H831	H83	0.697630	0.300770	0.045270
C851	C85	0.719630	0.248370	0.028170
H841	H84	0.748630	0.260370	0.069270
C861	C86	0.678190	0.124840	0.044670
H851	H85	0.691330	0.102070	0.051470
H861	H86	0.678230	0.138170	0.114870
C871	C87	0.599460	0.060200	0.079670
H871	H87	0.598230	0.074970	0.147370
H881	H88	0.614030	0.038970	0.091870
C881	C88	0.548140	0.029950	0.035970
C891	C89	0.508540	0.013490	0.105670
H891	H89	0.514230	0.022270	0.177470
C901	C90	0.539790	0.016250	0.932270
H901	H90	0.566930	0.026970	0.885870
N311	N31	0.724810	0.182070	0.783270
N321	N32	0.707720	0.149730	0.864670
N331	N33	0.762010	0.189450	0.011370
N341	N34	0.800400	0.226500	0.957870
N351	N35	0.656840	0.199730	0.922970
N361	N36	0.698150	0.206140	0.971970
O61	O6	0.629660	0.099000	0.006170
Ag71	Ag7	0.405630	0.867320	0.140920
C911	C91	0.499390	0.877370	0.304300
C921	C92	0.485700	0.929500	0.436600
H911	H91	0.509800	0.933600	0.487000
C931	C93	0.453300	0.946600	0.444200
H921	H92	0.450000	0.964500	0.500600
C941	C94	0.426480	0.932300	0.351700
H931	H93	0.401400	0.939700	0.334300
C951	C95	0.511980	0.897500	0.033300
H941	H94	0.499500	0.893400	0.964100
C961	C96	0.562010	0.927100	0.060400
H951	H95	0.588800	0.946300	0.014700
C971	C97	0.563870	0.922430	0.165000
H961	H96	0.592600	0.938000	0.207600
C981	C98	0.427500	0.747800	0.281400
H971	H97	0.421200	0.716500	0.256900
C991	C99	0.396000	0.754800	0.348600
H981	H98	0.365900	0.730200	0.378600
C1001	C100	0.418300	0.804600	0.361500
H991	H99	0.406300	0.821600	0.402600
C1011	C101	0.541830	0.886690	0.378000
H1001	H100	0.564600	0.922600	0.384800
H1011	H101	0.528500	0.873400	0.448200
C1021	C102	0.606470	0.872600	0.413000
H1021	H102	0.591700	0.856600	0.480700
H1031	H103	0.627700	0.908400	0.425200
C1031	C103	0.636720	0.851530	0.369300
C1041	C104	0.653180	0.828390	0.439000
H1041	H104	0.644400	0.825300	0.510800
C1051	C105	0.650420	0.856880	0.265600
H1051	H105	0.639700	0.873300	0.219200
N371	N37	0.484600	0.876080	0.116600
N381	N38	0.516940	0.891330	0.198000
N391	N39	0.477220	0.905900	0.344700
N401	N40	0.440170	0.907240	0.291200
N411	N41	0.466940	0.790450	0.256300
N421	N42	0.460530	0.825350	0.305300
O71	O7	0.567670	0.864000	0.339500
Ag81	Ag8	0.072300	0.200650	0.474250
C1061	C106	0.166060	0.210700	0.637630
C1071	C107	0.152370	0.262830	0.769930
H1061	H106	0.176470	0.266930	0.820330
C1081	C108	0.119970	0.279930	0.777530
H1071	H107	0.116670	0.297830	0.833930
C1091	C109	0.093150	0.265630	0.685030
H1081	H108	0.068070	0.273030	0.667630
C1101	C110	0.178650	0.230830	0.366630
H1091	H109	0.166170	0.226730	0.297430
C1111	C111	0.228680	0.260430	0.393730
H1101	H110	0.255470	0.279630	0.348030
C1121	C112	0.230540	0.255760	0.498330
H1111	H111	0.259270	0.271330	0.540930
C1131	C113	0.094170	0.081130	0.614730
H1121	H112	0.087870	0.049830	0.590230
C1141	C114	0.062670	0.088130	0.681930
H1131	H113	0.032570	0.063530	0.711930
C1151	C115	0.084970	0.137930	0.694830
H1141	H114	0.072970	0.154930	0.735930
C1161	C116	0.208500	0.220020	0.711330
H1151	H115	0.231270	0.255930	0.718130
H1161	H116	0.195170	0.206730	0.781530
C1171	C117	0.273140	0.205930	0.746330
H1171	H117	0.258370	0.189930	0.814030
H1181	H118	0.294370	0.241730	0.758530
C1181	C118	0.303390	0.184860	0.702630
C1191	C119	0.319850	0.161720	0.772330
H1191	H119	0.311070	0.158630	0.844130
C1201	C120	0.317090	0.190210	0.598930
H1201	H120	0.306370	0.206630	0.552530
N431	N43	0.151270	0.209410	0.449930
N441	N44	0.183610	0.224660	0.531330
N451	N45	0.143890	0.239230	0.678030
N461	N46	0.106840	0.240570	0.624530
N471	N47	0.133610	0.123780	0.589630
N481	N48	0.127200	0.158680	0.638630
O81	O8	0.234340	0.197330	0.672830
Ag91	Ag9	0.738970	0.533980	0.807590
C1211	C121	0.832720	0.544040	0.970970
C1221	C122	0.819030	0.596170	0.103270
H1211	H121	0.843130	0.600270	0.153670
C1231	C123	0.786630	0.613270	0.110870
H1221	H122	0.783330	0.631170	0.167270
C1241	C124	0.759810	0.598970	0.018370
H1231	H123	0.734730	0.606370	0.000970
C1251	C125	0.845310	0.564170	0.699970
H1241	H124	0.832830	0.560070	0.630770
C1261	C126	0.895340	0.593770	0.727070
H1251	H125	0.922130	0.612970	0.681370
C1271	C127	0.897200	0.589100	0.831670
H1261	H126	0.925930	0.604670	0.874270
C1281	C128	0.760830	0.414470	0.948070
H1271	H127	0.754530	0.383170	0.923570
C1291	C129	0.729330	0.421470	0.015270
H1281	H128	0.699230	0.396870	0.045270
C1301	C130	0.751630	0.471270	0.028170
H1291	H129	0.739630	0.488270	0.069270
C1311	C131	0.875160	0.553360	0.044670
H1301	H130	0.897930	0.589270	0.051470
H1311	H131	0.861830	0.540070	0.114870
C1321	C132	0.939800	0.539270	0.079670
H1321	H132	0.925030	0.523270	0.147370
H1331	H133	0.961030	0.575070	0.091870
C1331	C133	0.970050	0.518200	0.035970
C1341	C134	0.986510	0.495060	0.105670
H1341	H134	0.977730	0.491970	0.177470
C1351	C135	0.983750	0.523550	0.932270
H1351	H135	0.973030	0.539970	0.885870
N491	N49	0.817930	0.542750	0.783270
N501	N50	0.850270	0.558000	0.864670
N511	N51	0.810550	0.572570	0.011370
N521	N52	0.773500	0.573910	0.957870
N531	N53	0.800270	0.457120	0.922970
N541	N54	0.793860	0.492020	0.971970
O91	O9	0.901000	0.530670	0.006170
Ag101	Ag10	0.867320	0.461680	0.859080
C1361	C136	0.877370	0.377980	0.695700
C1371	C137	0.929500	0.443800	0.563400
H1361	H136	0.933600	0.423800	0.513000
C1381	C138	0.946600	0.493300	0.555800
H1371	H137	0.964500	0.514500	0.499400
C1391	C139	0.932300	0.505820	0.648300
H1381	H138	0.939700	0.538300	0.665700
C1401	C140	0.897500	0.385520	0.966700
H1391	H139	0.893400	0.393900	0.035900
C1411	C141	0.927100	0.365090	0.939600
H1401	H140	0.946300	0.357500	0.985300
C1421	C142	0.922430	0.358560	0.835000
H1411	H141	0.938000	0.345400	0.792400
C1431	C143	0.747800	0.320300	0.718600
H1421	H142	0.716500	0.295300	0.743100
C1441	C144	0.754800	0.358800	0.651400
H1431	H143	0.730200	0.364300	0.621400
C1451	C145	0.804600	0.386300	0.638500
H1441	H144	0.821600	0.415300	0.597400
C1461	C146	0.886690	0.344860	0.622000
H1451	H145	0.922600	0.358000	0.615200
H1461	H146	0.873400	0.344900	0.551800
C1471	C147	0.872600	0.266130	0.587000
H1471	H147	0.856600	0.264900	0.519300
H1481	H148	0.908400	0.280700	0.574800
C1481	C148	0.851530	0.214810	0.630700
C1491	C149	0.828390	0.175210	0.561000
H1491	H149	0.825300	0.180900	0.489200
C1501	C150	0.856880	0.206460	0.734400
H1501	H150	0.873300	0.233600	0.780800
N551	N55	0.876080	0.391480	0.883400
N561	N56	0.891330	0.374390	0.802000
N571	N57	0.905900	0.428680	0.655300
N581	N58	0.907240	0.467070	0.708800
N591	N59	0.790450	0.323510	0.743700
N601	N60	0.825350	0.364820	0.694700
O101	O10	0.864000	0.296330	0.660500
Ag111	Ag11	0.533980	0.795020	0.192410
C1511	C151	0.544040	0.711310	0.029030
C1521	C152	0.596170	0.777130	0.896730
H1511	H151	0.600270	0.757130	0.846330
C1531	C153	0.613270	0.826630	0.889130
H1521	H152	0.631170	0.847830	0.832730
C1541	C154	0.598970	0.839150	0.981630
H1531	H153	0.606370	0.871630	0.999030
C1551	C155	0.564170	0.718850	0.300030
H1541	H154	0.560070	0.727230	0.369230
C1561	C156	0.593770	0.698420	0.272930
H1551	H155	0.612970	0.690830	0.318630
C1571	C157	0.589100	0.691890	0.168330
H1561	H156	0.604670	0.678730	0.125730
C1581	C158	0.414470	0.653630	0.051930
H1571	H157	0.383170	0.628630	0.076430
C1591	C159	0.421470	0.692130	0.984730
H1581	H158	0.396870	0.697630	0.954730
C1601	C160	0.471270	0.719630	0.971830
H1591	H159	0.488270	0.748630	0.930730
C1611	C161	0.553360	0.678190	0.955330
H1601	H160	0.589270	0.691330	0.948530
H1611	H161	0.540070	0.678230	0.885130
C1621	C162	0.539270	0.599460	0.920330
H1621	H162	0.523270	0.598230	0.852630
H1631	H163	0.575070	0.614030	0.908130
C1631	C163	0.518200	0.548140	0.964030
C1641	C164	0.495060	0.508540	0.894330
H1641	H164	0.491970	0.514230	0.822530
C1651	C165	0.523550	0.539790	0.067730
H1651	H165	0.539970	0.566930	0.114130
N611	N61	0.542750	0.724810	0.216730
N621	N62	0.558000	0.707720	0.135330
N631	N63	0.572570	0.762010	0.988630
N641	N64	0.573910	0.800400	0.042130
N651	N65	0.457120	0.656840	0.077030
N661	N66	0.492020	0.698150	0.028030
O111	O11	0.530670	0.629660	0.993830
Ag121	Ag12	0.200650	0.128350	0.525750
C1661	C166	0.210700	0.044650	0.362370
C1671	C167	0.262830	0.110470	0.230070
H1661	H166	0.266930	0.090470	0.179670
C1681	C168	0.279930	0.159970	0.222470
H1671	H167	0.297830	0.181170	0.166070
C1691	C169	0.265630	0.172490	0.314970
H1681	H168	0.273030	0.204970	0.332370
C1701	C170	0.230830	0.052190	0.633370
H1691	H169	0.226730	0.060570	0.702570
C1711	C171	0.260430	0.031760	0.606270
H1701	H170	0.279630	0.024170	0.651970
C1721	C172	0.255760	0.025230	0.501670
H1711	H171	0.271330	0.012070	0.459070
C1731	C173	0.081130	0.986970	0.385270
H1721	H172	0.049830	0.961970	0.409770
C1741	C174	0.088130	0.025470	0.318070
H1731	H173	0.063530	0.030970	0.288070
C1751	C175	0.137930	0.052970	0.305170
H1741	H174	0.154930	0.081970	0.264070
C1761	C176	0.220020	0.011530	0.288670
H1751	H175	0.255930	0.024670	0.281870
H1761	H176	0.206730	0.011570	0.218470
C1771	C177	0.205930	0.932800	0.253670
H1771	H177	0.189930	0.931570	0.185970
H1781	H178	0.241730	0.947370	0.241470
C1781	C178	0.184860	0.881480	0.297370
C1791	C179	0.161720	0.841880	0.227670
H1791	H179	0.158630	0.847570	0.155870
C1801	C180	0.190210	0.873130	0.401070
H1801	H180	0.206630	0.900270	0.447470
N671	N67	0.209410	0.058150	0.550070
N681	N68	0.224660	0.041060	0.468670
N691	N69	0.239230	0.095350	0.321970
N701	N70	0.240570	0.133740	0.375470
N711	N71	0.123780	0.990180	0.410370
N721	N72	0.158680	0.031490	0.361370
O121	O12	0.197330	0.963000	0.327170
Ag131	Ag13	0.538320	0.405630	0.859080
C1811	C181	0.622020	0.499390	0.695700
C1821	C182	0.556200	0.485700	0.563400
H1811	H181	0.576200	0.509800	0.513000
C1831	C183	0.506700	0.453300	0.555800
H1821	H182	0.485500	0.450000	0.499400
C1841	C184	0.494180	0.426480	0.648300
H1831	H183	0.461700	0.401400	0.665700
C1851	C185	0.614480	0.511980	0.966700
H1841	H184	0.606100	0.499500	0.035900
C1861	C186	0.634910	0.562010	0.939600
H1851	H185	0.642500	0.588800	0.985300
C1871	C187	0.641440	0.563870	0.835000
H1861	H186	0.654600	0.592600	0.792400
C1881	C188	0.679700	0.427500	0.718600
H1871	H187	0.704700	0.421200	0.743100
C1891	C189	0.641200	0.396000	0.651400
H1881	H188	0.635700	0.365900	0.621400
C1901	C190	0.613700	0.418300	0.638500
H1891	H189	0.584700	0.406300	0.597400
C1911	C191	0.655140	0.541830	0.622000
H1901	H190	0.642000	0.564600	0.615200
H1911	H191	0.655100	0.528500	0.551800
C1921	C192	0.733870	0.606470	0.587000
H1921	H192	0.735100	0.591700	0.519300
H1931	H193	0.719300	0.627700	0.574800
C1931	C193	0.785190	0.636720	0.630700
C1941	C194	0.824790	0.653180	0.561000
H1941	H194	0.819100	0.644400	0.489200
C1951	C195	0.793540	0.650420	0.734400
H1951	H195	0.766400	0.639700	0.780800
N731	N73	0.608520	0.484600	0.883400
N741	N74	0.625610	0.516940	0.802000
N751	N75	0.571320	0.477220	0.655300
N761	N76	0.532930	0.440170	0.708800
N771	N77	0.676490	0.466940	0.743700
N781	N78	0.635180	0.460530	0.694700
O131	O13	0.703670	0.567670	0.660500
Ag141	Ag14	0.204980	0.738970	0.192410
C1961	C196	0.288690	0.832720	0.029030
C1971	C197	0.222870	0.819030	0.896730
H1961	H196	0.242870	0.843130	0.846330
C1981	C198	0.173370	0.786630	0.889130
H1971	H197	0.152170	0.783330	0.832730
C1991	C199	0.160850	0.759810	0.981630
H1981	H198	0.128370	0.734730	0.999030
C2001	C200	0.281150	0.845310	0.300030
H1991	H199	0.272770	0.832830	0.369230
C2011	C201	0.301580	0.895340	0.272930
H2001	H200	0.309170	0.922130	0.318630
C2021	C202	0.308110	0.897200	0.168330
H2011	H201	0.321270	0.925930	0.125730
C2031	C203	0.346370	0.760830	0.051930
H2021	H202	0.371370	0.754530	0.076430
C2041	C204	0.307870	0.729330	0.984730
H2031	H203	0.302370	0.699230	0.954730
C2051	C205	0.280370	0.751630	0.971830
H2041	H204	0.251370	0.739630	0.930730
C2061	C206	0.321810	0.875160	0.955330
H2051	H205	0.308670	0.897930	0.948530
H2061	H206	0.321770	0.861830	0.885130
C2071	C207	0.400540	0.939800	0.920330
H2071	H207	0.401770	0.925030	0.852630
H2081	H208	0.385970	0.961030	0.908130
C2081	C208	0.451860	0.970050	0.964030
C2091	C209	0.491460	0.986510	0.894330
H2091	H209	0.485770	0.977730	0.822530
C2101	C210	0.460210	0.983750	0.067730
H2101	H210	0.433070	0.973030	0.114130
N791	N79	0.275190	0.817930	0.216730
N801	N80	0.292280	0.850270	0.135330
N811	N81	0.237990	0.810550	0.988630
N821	N82	0.199600	0.773500	0.042130
N831	N83	0.343160	0.800270	0.077030
N841	N84	0.301850	0.793860	0.028030
O141	O14	0.370340	0.901000	0.993830
Ag151	Ag15	0.871650	0.072300	0.525750
C2111	C211	0.955350	0.166060	0.362370
C2121	C212	0.889530	0.152370	0.230070
H2111	H211	0.909530	0.176470	0.179670
C2131	C213	0.840030	0.119970	0.222470
H2121	H212	0.818830	0.116670	0.166070
C2141	C214	0.827510	0.093150	0.314970
H2131	H213	0.795030	0.068070	0.332370
C2151	C215	0.947810	0.178650	0.633370
H2141	H214	0.939430	0.166170	0.702570
C2161	C216	0.968240	0.228680	0.606270
H2151	H215	0.975830	0.255470	0.651970
C2171	C217	0.974770	0.230540	0.501670
H2161	H216	0.987930	0.259270	0.459070
C2181	C218	0.013030	0.094170	0.385270
H2171	H217	0.038030	0.087870	0.409770
C2191	C219	0.974530	0.062670	0.318070
H2181	H218	0.969030	0.032570	0.288070
C2201	C220	0.947030	0.084970	0.305170
H2191	H219	0.918030	0.072970	0.264070
C2211	C221	0.988470	0.208500	0.288670
H2201	H220	0.975330	0.231270	0.281870
H2211	H221	0.988430	0.195170	0.218470
C2221	C222	0.067200	0.273140	0.253670
H2221	H222	0.068430	0.258370	0.185970
H2231	H223	0.052630	0.294370	0.241470
C2231	C223	0.118520	0.303390	0.297370
C2241	C224	0.158120	0.319850	0.227670
H2241	H224	0.152430	0.311070	0.155870
C2251	C225	0.126870	0.317090	0.401070
H2251	H225	0.099730	0.306370	0.447470
N851	N85	0.941850	0.151270	0.550070
N861	N86	0.958940	0.183610	0.468670
N871	N87	0.904650	0.143890	0.321970
N881	N88	0.866260	0.106840	0.375470
N891	N89	0.009820	0.133610	0.410370
N901	N90	0.968510	0.127200	0.361370
O151	O15	0.037000	0.234340	0.327170
Ag161	Ag16	0.594370	0.132680	0.859080
C2261	C226	0.500610	0.122630	0.695700
C2271	C227	0.514300	0.070500	0.563400
H2261	H226	0.490200	0.066400	0.513000
C2281	C228	0.546700	0.053400	0.555800
H2271	H227	0.550000	0.035500	0.499400
C2291	C229	0.573520	0.067700	0.648300
H2281	H228	0.598600	0.060300	0.665700
C2301	C230	0.488020	0.102500	0.966700
H2291	H229	0.500500	0.106600	0.035900
C2311	C231	0.437990	0.072900	0.939600
H2301	H230	0.411200	0.053700	0.985300
C2321	C232	0.436130	0.077570	0.835000
H2311	H231	0.407400	0.062000	0.792400
C2331	C233	0.572500	0.252200	0.718600
H2321	H232	0.578800	0.283500	0.743100
C2341	C234	0.604000	0.245200	0.651400
H2331	H233	0.634100	0.269800	0.621400
C2351	C235	0.581700	0.195400	0.638500
H2341	H234	0.593700	0.178400	0.597400
C2361	C236	0.458170	0.113310	0.622000
H2351	H235	0.435400	0.077400	0.615200
H2361	H236	0.471500	0.126600	0.551800
C2371	C237	0.393530	0.127400	0.587000
H2371	H237	0.408300	0.143400	0.519300
H2381	H238	0.372300	0.091600	0.574800
C2381	C238	0.363280	0.148470	0.630700
C2391	C239	0.346820	0.171610	0.561000
H2391	H239	0.355600	0.174700	0.489200
C2401	C240	0.349580	0.143120	0.734400
H2401	H240	0.360300	0.126700	0.780800
N911	N91	0.515400	0.123920	0.883400
N921	N92	0.483060	0.108670	0.802000
N931	N93	0.522780	0.094100	0.655300
N941	N94	0.559830	0.092760	0.708800
N951	N95	0.533060	0.209550	0.743700
N961	N96	0.539470	0.174650	0.694700
O161	O16	0.432330	0.136000	0.660500
Ag171	Ag17	0.261030	0.466020	0.192410
C2411	C241	0.167280	0.455960	0.029030
C2421	C242	0.180970	0.403830	0.896730
H2411	H241	0.156870	0.399730	0.846330
C2431	C243	0.213370	0.386730	0.889130
H2421	H242	0.216670	0.368830	0.832730
C2441	C244	0.240190	0.401030	0.981630
H2431	H243	0.265270	0.393630	0.999030
C2451	C245	0.154690	0.435830	0.300030
H2441	H244	0.167170	0.439930	0.369230
C2461	C246	0.104660	0.406230	0.272930
H2451	H245	0.077870	0.387030	0.318630
C2471	C247	0.102800	0.410900	0.168330
H2461	H246	0.074070	0.395330	0.125730
C2481	C248	0.239170	0.585530	0.051930
H2471	H247	0.245470	0.616830	0.076430
C2491	C249	0.270670	0.578530	0.984730
H2481	H248	0.300770	0.603130	0.954730
C2501	C250	0.248370	0.528730	0.971830
H2491	H249	0.260370	0.511730	0.930730
C2511	C251	0.124840	0.446640	0.955330
H2501	H250	0.102070	0.410730	0.948530
H2511	H251	0.138170	0.459930	0.885130
C2521	C252	0.060200	0.460730	0.920330
H2521	H252	0.074970	0.476730	0.852630
H2531	H253	0.038970	0.424930	0.908130
C2531	C253	0.029950	0.481800	0.964030
C2541	C254	0.013490	0.504940	0.894330
H2541	H254	0.022270	0.508030	0.822530
C2551	C255	0.016250	0.476450	0.067730
H2551	H255	0.026970	0.460030	0.114130
N971	N97	0.182070	0.457250	0.216730
N981	N98	0.149730	0.442000	0.135330
N991	N99	0.189450	0.427430	0.988630
N1001	N100	0.226500	0.426090	0.042130
N1011	N101	0.199730	0.542880	0.077030
N1021	N102	0.206140	0.507980	0.028030
O171	O17	0.099000	0.469330	0.993830
Ag181	Ag18	0.927700	0.799350	0.525750
C2561	C256	0.833940	0.789300	0.362370
C2571	C257	0.847630	0.737170	0.230070
H2561	H256	0.823530	0.733070	0.179670
C2581	C258	0.880030	0.720070	0.222470
H2571	H257	0.883330	0.702170	0.166070
C2591	C259	0.906850	0.734370	0.314970
H2581	H258	0.931930	0.726970	0.332370
C2601	C260	0.821350	0.769170	0.633370
H2591	H259	0.833830	0.773270	0.702570
C2611	C261	0.771320	0.739570	0.606270
H2601	H260	0.744530	0.720370	0.651970
C2621	C262	0.769460	0.744240	0.501670
H2611	H261	0.740730	0.728670	0.459070
C2631	C263	0.905830	0.918870	0.385270
H2621	H262	0.912130	0.950170	0.409770
C2641	C264	0.937330	0.911870	0.318070
H2631	H263	0.967430	0.936470	0.288070
C2651	C265	0.915030	0.862070	0.305170
H2641	H264	0.927030	0.845070	0.264070
C2661	C266	0.791500	0.779980	0.288670
H2651	H265	0.768730	0.744070	0.281870
H2661	H266	0.804830	0.793270	0.218470
C2671	C267	0.726860	0.794070	0.253670
H2671	H267	0.741630	0.810070	0.185970
H2681	H268	0.705630	0.758270	0.241470
C2681	C268	0.696610	0.815140	0.297370
C2691	C269	0.680150	0.838280	0.227670
H2691	H269	0.688930	0.841370	0.155870
C2701	C270	0.682910	0.809790	0.401070
H2701	H270	0.693630	0.793370	0.447470
N1031	N103	0.848730	0.790590	0.550070
N1041	N104	0.816390	0.775340	0.468670
N1051	N105	0.856110	0.760770	0.321970
N1061	N106	0.893160	0.759430	0.375470
N1071	N107	0.866390	0.876220	0.410370
N1081	N108	0.872800	0.841320	0.361370
O181	O18	0.765660	0.802670	0.327170
