data_LUWMIB_clean_PM
_symmetry_space_group_name_H-M	'P1'
_cell_length_a	24.591000
_cell_length_b	13.804000
_cell_length_c	14.752000
_cell_angle_alpha	90.000000
_cell_angle_beta	97.135000
_cell_angle_gamma	90.000000
_symmetry_Int_Tables_number 1

loop_
_symmetry_equiv_pos_as_xyz
'x,y,z'

loop_
_atom_site_label
_atom_site_type_symbol
_atom_site_fract_x
_atom_site_fract_y
_atom_site_fract_z
Ce11	Ce1	0.169060	0.211310	0.470520
O11	O1	0.083310	0.192070	0.547700
O21	O2	0.098180	0.339390	0.502760
O31	O3	0.274160	0.145100	0.543270
O41	O4	0.199780	0.065290	0.567300
O51	O5	0.223290	0.148130	0.349540
O61	O6	0.198200	0.271100	0.624130
C11	C1	0.249660	0.424600	0.421650
C21	C2	0.215100	0.498000	0.365300
C31	C3	0.162210	0.518500	0.382200
C41	C4	0.237780	0.548400	0.296900
C51	C5	0.131810	0.591100	0.333600
H11	H1	0.146800	0.483500	0.426500
C61	C6	0.206890	0.616000	0.244300
H21	H2	0.273800	0.536400	0.286900
C71	C7	0.077190	0.622500	0.358700
C81	C8	0.154360	0.637600	0.263600
C91	C9	0.228880	0.668800	0.166500
C101	C10	0.041640	0.557400	0.391100
C111	C11	0.062450	0.719000	0.354500
H31	H3	0.133900	0.684300	0.229000
H41	H4	0.050200	0.491800	0.393500
C121	C12	0.993000	0.589300	0.420200
H51	H5	0.085600	0.763800	0.332000
C131	C13	0.013920	0.750400	0.383100
C141	C14	0.979380	0.685800	0.418300
H61	H6	0.969300	0.544500	0.441200
H71	H7	0.004600	0.815600	0.378500
C151	C15	0.929220	0.719300	0.457800
Ce21	Ce2	0.669060	0.711310	0.470520
O71	O7	0.583310	0.692070	0.547700
O81	O8	0.598180	0.839390	0.502760
O91	O9	0.774160	0.645100	0.543270
O101	O10	0.699780	0.565290	0.567300
O111	O11	0.723290	0.648130	0.349540
O121	O12	0.698200	0.771100	0.624130
C161	C16	0.749660	0.924600	0.421650
C171	C17	0.715100	0.998000	0.365300
C181	C18	0.662210	0.018500	0.382200
C191	C19	0.737780	0.048400	0.296900
C201	C20	0.631810	0.091100	0.333600
H81	H8	0.646800	0.983500	0.426500
C211	C21	0.706890	0.116000	0.244300
H91	H9	0.773800	0.036400	0.286900
C221	C22	0.577190	0.122500	0.358700
C231	C23	0.654360	0.137600	0.263600
C241	C24	0.728880	0.168800	0.166500
C251	C25	0.541640	0.057400	0.391100
C261	C26	0.562450	0.219000	0.354500
H101	H10	0.633900	0.184300	0.229000
H111	H11	0.550200	0.991800	0.393500
C271	C27	0.493000	0.089300	0.420200
H121	H12	0.585600	0.263800	0.332000
C281	C28	0.513920	0.250400	0.383100
C291	C29	0.479380	0.185800	0.418300
H131	H13	0.469300	0.044500	0.441200
H141	H14	0.504600	0.315600	0.378500
C301	C30	0.429220	0.219300	0.457800
Ce31	Ce3	0.830940	0.211310	0.029480
O131	O13	0.916690	0.192070	0.952300
O141	O14	0.901820	0.339390	0.997240
O151	O15	0.725840	0.145100	0.956730
O161	O16	0.800220	0.065290	0.932700
O171	O17	0.776710	0.148130	0.150460
O181	O18	0.801800	0.271100	0.875870
C311	C31	0.750340	0.424600	0.078350
C321	C32	0.784900	0.498000	0.134700
C331	C33	0.837790	0.518500	0.117800
C341	C34	0.762220	0.548400	0.203100
C351	C35	0.868190	0.591100	0.166400
H151	H15	0.853200	0.483500	0.073500
C361	C36	0.793110	0.616000	0.255700
H161	H16	0.726200	0.536400	0.213100
C371	C37	0.922810	0.622500	0.141300
C381	C38	0.845640	0.637600	0.236400
C391	C39	0.771120	0.668800	0.333500
C401	C40	0.958360	0.557400	0.108900
C411	C41	0.937550	0.719000	0.145500
H171	H17	0.866100	0.684300	0.271000
H181	H18	0.949800	0.491800	0.106500
C421	C42	0.007000	0.589300	0.079800
H191	H19	0.914400	0.763800	0.168000
C431	C43	0.986080	0.750400	0.116900
C441	C44	0.020620	0.685800	0.081700
H201	H20	0.030700	0.544500	0.058800
H211	H21	0.995400	0.815600	0.121500
C451	C45	0.070780	0.719300	0.042200
Ce41	Ce4	0.330940	0.711310	0.029480
O191	O19	0.416690	0.692070	0.952300
O201	O20	0.401820	0.839390	0.997240
O211	O21	0.225840	0.645100	0.956730
O221	O22	0.300220	0.565290	0.932700
O231	O23	0.276710	0.648130	0.150460
O241	O24	0.301800	0.771100	0.875870
C461	C46	0.250340	0.924600	0.078350
C471	C47	0.284900	0.998000	0.134700
C481	C48	0.337790	0.018500	0.117800
C491	C49	0.262220	0.048400	0.203100
C501	C50	0.368190	0.091100	0.166400
H221	H22	0.353200	0.983500	0.073500
C511	C51	0.293110	0.116000	0.255700
H231	H23	0.226200	0.036400	0.213100
C521	C52	0.422810	0.122500	0.141300
C531	C53	0.345640	0.137600	0.236400
C541	C54	0.271120	0.168800	0.333500
C551	C55	0.458360	0.057400	0.108900
C561	C56	0.437550	0.219000	0.145500
H241	H24	0.366100	0.184300	0.271000
H251	H25	0.449800	0.991800	0.106500
C571	C57	0.507000	0.089300	0.079800
H261	H26	0.414400	0.263800	0.168000
C581	C58	0.486080	0.250400	0.116900
C591	C59	0.520620	0.185800	0.081700
H271	H27	0.530700	0.044500	0.058800
H281	H28	0.495400	0.315600	0.121500
C601	C60	0.570780	0.219300	0.042200
Ce51	Ce5	0.830940	0.788690	0.529480
O251	O25	0.916690	0.807930	0.452300
O261	O26	0.901820	0.660610	0.497240
O271	O27	0.725840	0.854900	0.456730
O281	O28	0.800220	0.934710	0.432700
O291	O29	0.776710	0.851870	0.650460
O301	O30	0.801800	0.728900	0.375870
C611	C61	0.750340	0.575400	0.578350
C621	C62	0.784900	0.502000	0.634700
C631	C63	0.837790	0.481500	0.617800
C641	C64	0.762220	0.451600	0.703100
C651	C65	0.868190	0.408900	0.666400
H291	H29	0.853200	0.516500	0.573500
C661	C66	0.793110	0.384000	0.755700
H301	H30	0.726200	0.463600	0.713100
C671	C67	0.922810	0.377500	0.641300
C681	C68	0.845640	0.362400	0.736400
C691	C69	0.771120	0.331200	0.833500
C701	C70	0.958360	0.442600	0.608900
C711	C71	0.937550	0.281000	0.645500
H311	H31	0.866100	0.315700	0.771000
H321	H32	0.949800	0.508200	0.606500
C721	C72	0.007000	0.410700	0.579800
H331	H33	0.914400	0.236200	0.668000
C731	C73	0.986080	0.249600	0.616900
C741	C74	0.020620	0.314200	0.581700
H341	H34	0.030700	0.455500	0.558800
H351	H35	0.995400	0.184400	0.621500
C751	C75	0.070780	0.280700	0.542200
Ce61	Ce6	0.330940	0.288690	0.529480
O311	O31	0.416690	0.307930	0.452300
O321	O32	0.401820	0.160610	0.497240
O331	O33	0.225840	0.354900	0.456730
O341	O34	0.300220	0.434710	0.432700
O351	O35	0.276710	0.351870	0.650460
O361	O36	0.301800	0.228900	0.375870
C761	C76	0.250340	0.075400	0.578350
C771	C77	0.284900	0.002000	0.634700
C781	C78	0.337790	0.981500	0.617800
C791	C79	0.262220	0.951600	0.703100
C801	C80	0.368190	0.908900	0.666400
H361	H36	0.353200	0.016500	0.573500
C811	C81	0.293110	0.884000	0.755700
H371	H37	0.226200	0.963600	0.713100
C821	C82	0.422810	0.877500	0.641300
C831	C83	0.345640	0.862400	0.736400
C841	C84	0.271120	0.831200	0.833500
C851	C85	0.458360	0.942600	0.608900
C861	C86	0.437550	0.781000	0.645500
H381	H38	0.366100	0.815700	0.771000
H391	H39	0.449800	0.008200	0.606500
C871	C87	0.507000	0.910700	0.579800
H401	H40	0.414400	0.736200	0.668000
C881	C88	0.486080	0.749600	0.616900
C891	C89	0.520620	0.814200	0.581700
H411	H41	0.530700	0.955500	0.558800
H421	H42	0.495400	0.684400	0.621500
C901	C90	0.570780	0.780700	0.542200
Ce71	Ce7	0.169060	0.788690	0.970520
O371	O37	0.083310	0.807930	0.047700
O381	O38	0.098180	0.660610	0.002760
O391	O39	0.274160	0.854900	0.043270
O401	O40	0.199780	0.934710	0.067300
O411	O41	0.223290	0.851870	0.849540
O421	O42	0.198200	0.728900	0.124130
C911	C91	0.249660	0.575400	0.921650
C921	C92	0.215100	0.502000	0.865300
C931	C93	0.162210	0.481500	0.882200
C941	C94	0.237780	0.451600	0.796900
C951	C95	0.131810	0.408900	0.833600
H431	H43	0.146800	0.516500	0.926500
C961	C96	0.206890	0.384000	0.744300
H441	H44	0.273800	0.463600	0.786900
C971	C97	0.077190	0.377500	0.858700
C981	C98	0.154360	0.362400	0.763600
C991	C99	0.228880	0.331200	0.666500
C1001	C100	0.041640	0.442600	0.891100
C1011	C101	0.062450	0.281000	0.854500
H451	H45	0.133900	0.315700	0.729000
H461	H46	0.050200	0.508200	0.893500
C1021	C102	0.993000	0.410700	0.920200
H471	H47	0.085600	0.236200	0.832000
C1031	C103	0.013920	0.249600	0.883100
C1041	C104	0.979380	0.314200	0.918300
H481	H48	0.969300	0.455500	0.941200
H491	H49	0.004600	0.184400	0.878500
C1051	C105	0.929220	0.280700	0.957800
Ce81	Ce8	0.669060	0.288690	0.970520
O431	O43	0.583310	0.307930	0.047700
O441	O44	0.598180	0.160610	0.002760
O451	O45	0.774160	0.354900	0.043270
O461	O46	0.699780	0.434710	0.067300
O471	O47	0.723290	0.351870	0.849540
O481	O48	0.698200	0.228900	0.124130
C1061	C106	0.749660	0.075400	0.921650
C1071	C107	0.715100	0.002000	0.865300
C1081	C108	0.662210	0.981500	0.882200
C1091	C109	0.737780	0.951600	0.796900
C1101	C110	0.631810	0.908900	0.833600
H501	H50	0.646800	0.016500	0.926500
C1111	C111	0.706890	0.884000	0.744300
H511	H51	0.773800	0.963600	0.786900
C1121	C112	0.577190	0.877500	0.858700
C1131	C113	0.654360	0.862400	0.763600
C1141	C114	0.728880	0.831200	0.666500
C1151	C115	0.541640	0.942600	0.891100
C1161	C116	0.562450	0.781000	0.854500
H521	H52	0.633900	0.815700	0.729000
H531	H53	0.550200	0.008200	0.893500
C1171	C117	0.493000	0.910700	0.920200
H541	H54	0.585600	0.736200	0.832000
C1181	C118	0.513920	0.749600	0.883100
C1191	C119	0.479380	0.814200	0.918300
H551	H55	0.469300	0.955500	0.941200
H561	H56	0.504600	0.684400	0.878500
C1201	C120	0.429220	0.780700	0.957800
