data_LUZJAT_clean_PM
_symmetry_space_group_name_H-M	'P1'
_cell_length_a	20.513800
_cell_length_b	20.513800
_cell_length_c	17.810000
_cell_angle_alpha	90.000000
_cell_angle_beta	90.000000
_cell_angle_gamma	90.000000
_symmetry_Int_Tables_number 1

loop_
_symmetry_equiv_pos_as_xyz
'x,y,z'

loop_
_atom_site_label
_atom_site_type_symbol
_atom_site_fract_x
_atom_site_fract_y
_atom_site_fract_z
Zn11	Zn1	0.257480	0.119450	0.332390
O11	O1	0.235200	0.129500	0.226900
O21	O2	0.312900	0.056200	0.214200
O31	O3	0.337070	0.945110	0.969200
O41	O4	0.257400	0.965300	0.884300
O51	O5	0.173300	0.191840	0.884380
O61	O6	0.160300	0.242050	0.993910
C11	C1	0.271300	0.093100	0.187300
C21	C2	0.260700	0.093200	0.104000
C31	C3	0.283600	0.040540	0.062100
H11	H1	0.307400	0.007700	0.085400
C41	C4	0.270900	0.037110	0.985200
C51	C5	0.237400	0.087500	0.951300
H21	H2	0.228900	0.085500	0.900100
C61	C6	0.216000	0.141200	0.992100
C71	C7	0.226700	0.143400	0.069200
H31	H3	0.211300	0.178300	0.097400
C81	C8	0.291400	0.978100	0.942400
C91	C9	0.181100	0.196500	0.954500
Zn21	Zn2	0.343200	0.080590	0.309640
Zn31	Zn3	0.757480	0.619450	0.832390
O71	O7	0.735200	0.629500	0.726900
O81	O8	0.812900	0.556200	0.714200
O91	O9	0.837070	0.445110	0.469200
O101	O10	0.757400	0.465300	0.384300
O111	O11	0.673300	0.691840	0.384380
O121	O12	0.660300	0.742050	0.493910
C101	C10	0.771300	0.593100	0.687300
C111	C11	0.760700	0.593200	0.604000
C121	C12	0.783600	0.540540	0.562100
H41	H4	0.807400	0.507700	0.585400
C131	C13	0.770900	0.537110	0.485200
C141	C14	0.737400	0.587500	0.451300
H51	H5	0.728900	0.585500	0.400100
C151	C15	0.716000	0.641200	0.492100
C161	C16	0.726700	0.643400	0.569200
H61	H6	0.711300	0.678300	0.597400
C171	C17	0.791400	0.478100	0.442400
C181	C18	0.681100	0.696500	0.454500
Zn41	Zn4	0.843200	0.580590	0.809640
Zn51	Zn5	0.742520	0.880550	0.332390
O131	O13	0.764800	0.870500	0.226900
O141	O14	0.687100	0.943800	0.214200
O151	O15	0.662930	0.054890	0.969200
O161	O16	0.742600	0.034700	0.884300
O171	O17	0.826700	0.808160	0.884380
O181	O18	0.839700	0.757950	0.993910
C191	C19	0.728700	0.906900	0.187300
C201	C20	0.739300	0.906800	0.104000
C211	C21	0.716400	0.959460	0.062100
H71	H7	0.692600	0.992300	0.085400
C221	C22	0.729100	0.962890	0.985200
C231	C23	0.762600	0.912500	0.951300
H81	H8	0.771100	0.914500	0.900100
C241	C24	0.784000	0.858800	0.992100
C251	C25	0.773300	0.856600	0.069200
H91	H9	0.788700	0.821700	0.097400
C261	C26	0.708600	0.021900	0.942400
C271	C27	0.818900	0.803500	0.954500
Zn61	Zn6	0.656800	0.919410	0.309640
Zn71	Zn7	0.242520	0.380550	0.832390
O191	O19	0.264800	0.370500	0.726900
O201	O20	0.187100	0.443800	0.714200
O211	O21	0.162930	0.554890	0.469200
O221	O22	0.242600	0.534700	0.384300
O231	O23	0.326700	0.308160	0.384380
O241	O24	0.339700	0.257950	0.493910
C281	C28	0.228700	0.406900	0.687300
C291	C29	0.239300	0.406800	0.604000
C301	C30	0.216400	0.459460	0.562100
H101	H10	0.192600	0.492300	0.585400
C311	C31	0.229100	0.462890	0.485200
C321	C32	0.262600	0.412500	0.451300
H111	H11	0.271100	0.414500	0.400100
C331	C33	0.284000	0.358800	0.492100
C341	C34	0.273300	0.356600	0.569200
H121	H12	0.288700	0.321700	0.597400
C351	C35	0.208600	0.521900	0.442400
C361	C36	0.318900	0.303500	0.454500
Zn81	Zn8	0.156800	0.419410	0.809640
Zn91	Zn9	0.880550	0.257480	0.332390
O251	O25	0.870500	0.235200	0.226900
O261	O26	0.943800	0.312900	0.214200
O271	O27	0.054890	0.337070	0.969200
O281	O28	0.034700	0.257400	0.884300
O291	O29	0.808160	0.173300	0.884380
O301	O30	0.757950	0.160300	0.993910
C371	C37	0.906900	0.271300	0.187300
C381	C38	0.906800	0.260700	0.104000
C391	C39	0.959460	0.283600	0.062100
H131	H13	0.992300	0.307400	0.085400
C401	C40	0.962890	0.270900	0.985200
C411	C41	0.912500	0.237400	0.951300
H141	H14	0.914500	0.228900	0.900100
C421	C42	0.858800	0.216000	0.992100
C431	C43	0.856600	0.226700	0.069200
H151	H15	0.821700	0.211300	0.097400
C441	C44	0.021900	0.291400	0.942400
C451	C45	0.803500	0.181100	0.954500
Zn101	Zn10	0.919410	0.343200	0.309640
Zn111	Zn11	0.380550	0.757480	0.832390
O311	O31	0.370500	0.735200	0.726900
O321	O32	0.443800	0.812900	0.714200
O331	O33	0.554890	0.837070	0.469200
O341	O34	0.534700	0.757400	0.384300
O351	O35	0.308160	0.673300	0.384380
O361	O36	0.257950	0.660300	0.493910
C461	C46	0.406900	0.771300	0.687300
C471	C47	0.406800	0.760700	0.604000
C481	C48	0.459460	0.783600	0.562100
H161	H16	0.492300	0.807400	0.585400
C491	C49	0.462890	0.770900	0.485200
C501	C50	0.412500	0.737400	0.451300
H171	H17	0.414500	0.728900	0.400100
C511	C51	0.358800	0.716000	0.492100
C521	C52	0.356600	0.726700	0.569200
H181	H18	0.321700	0.711300	0.597400
C531	C53	0.521900	0.791400	0.442400
C541	C54	0.303500	0.681100	0.454500
Zn121	Zn12	0.419410	0.843200	0.809640
Zn131	Zn13	0.119450	0.742520	0.332390
O371	O37	0.129500	0.764800	0.226900
O381	O38	0.056200	0.687100	0.214200
O391	O39	0.945110	0.662930	0.969200
O401	O40	0.965300	0.742600	0.884300
O411	O41	0.191840	0.826700	0.884380
O421	O42	0.242050	0.839700	0.993910
C551	C55	0.093100	0.728700	0.187300
C561	C56	0.093200	0.739300	0.104000
C571	C57	0.040540	0.716400	0.062100
H191	H19	0.007700	0.692600	0.085400
C581	C58	0.037110	0.729100	0.985200
C591	C59	0.087500	0.762600	0.951300
H201	H20	0.085500	0.771100	0.900100
C601	C60	0.141200	0.784000	0.992100
C611	C61	0.143400	0.773300	0.069200
H211	H21	0.178300	0.788700	0.097400
C621	C62	0.978100	0.708600	0.942400
C631	C63	0.196500	0.818900	0.954500
Zn141	Zn14	0.080590	0.656800	0.309640
Zn151	Zn15	0.619450	0.242520	0.832390
O431	O43	0.629500	0.264800	0.726900
O441	O44	0.556200	0.187100	0.714200
O451	O45	0.445110	0.162930	0.469200
O461	O46	0.465300	0.242600	0.384300
O471	O47	0.691840	0.326700	0.384380
O481	O48	0.742050	0.339700	0.493910
C641	C64	0.593100	0.228700	0.687300
C651	C65	0.593200	0.239300	0.604000
C661	C66	0.540540	0.216400	0.562100
H221	H22	0.507700	0.192600	0.585400
C671	C67	0.537110	0.229100	0.485200
C681	C68	0.587500	0.262600	0.451300
H231	H23	0.585500	0.271100	0.400100
C691	C69	0.641200	0.284000	0.492100
C701	C70	0.643400	0.273300	0.569200
H241	H24	0.678300	0.288700	0.597400
C711	C71	0.478100	0.208600	0.442400
C721	C72	0.696500	0.318900	0.454500
Zn161	Zn16	0.580590	0.156800	0.809640
Zn171	Zn17	0.257480	0.880550	0.832390
O491	O49	0.235200	0.870500	0.726900
O501	O50	0.312900	0.943800	0.714200
O511	O51	0.337070	0.054890	0.469200
O521	O52	0.257400	0.034700	0.384300
O531	O53	0.173300	0.808160	0.384380
O541	O54	0.160300	0.757950	0.493910
C731	C73	0.271300	0.906900	0.687300
C741	C74	0.260700	0.906800	0.604000
C751	C75	0.283600	0.959460	0.562100
H251	H25	0.307400	0.992300	0.585400
C761	C76	0.270900	0.962890	0.485200
C771	C77	0.237400	0.912500	0.451300
H261	H26	0.228900	0.914500	0.400100
C781	C78	0.216000	0.858800	0.492100
C791	C79	0.226700	0.856600	0.569200
H271	H27	0.211300	0.821700	0.597400
C801	C80	0.291400	0.021900	0.442400
C811	C81	0.181100	0.803500	0.454500
Zn181	Zn18	0.343200	0.919410	0.809640
Zn191	Zn19	0.757480	0.380550	0.332390
O551	O55	0.735200	0.370500	0.226900
O561	O56	0.812900	0.443800	0.214200
O571	O57	0.837070	0.554890	0.969200
O581	O58	0.757400	0.534700	0.884300
O591	O59	0.673300	0.308160	0.884380
O601	O60	0.660300	0.257950	0.993910
C821	C82	0.771300	0.406900	0.187300
C831	C83	0.760700	0.406800	0.104000
C841	C84	0.783600	0.459460	0.062100
H281	H28	0.807400	0.492300	0.085400
C851	C85	0.770900	0.462890	0.985200
C861	C86	0.737400	0.412500	0.951300
H291	H29	0.728900	0.414500	0.900100
C871	C87	0.716000	0.358800	0.992100
C881	C88	0.726700	0.356600	0.069200
H301	H30	0.711300	0.321700	0.097400
C891	C89	0.791400	0.521900	0.942400
C901	C90	0.681100	0.303500	0.954500
Zn201	Zn20	0.843200	0.419410	0.309640
Zn211	Zn21	0.742520	0.119450	0.832390
O611	O61	0.764800	0.129500	0.726900
O621	O62	0.687100	0.056200	0.714200
O631	O63	0.662930	0.945110	0.469200
O641	O64	0.742600	0.965300	0.384300
O651	O65	0.826700	0.191840	0.384380
O661	O66	0.839700	0.242050	0.493910
C911	C91	0.728700	0.093100	0.687300
C921	C92	0.739300	0.093200	0.604000
C931	C93	0.716400	0.040540	0.562100
H311	H31	0.692600	0.007700	0.585400
C941	C94	0.729100	0.037110	0.485200
C951	C95	0.762600	0.087500	0.451300
H321	H32	0.771100	0.085500	0.400100
C961	C96	0.784000	0.141200	0.492100
C971	C97	0.773300	0.143400	0.569200
H331	H33	0.788700	0.178300	0.597400
C981	C98	0.708600	0.978100	0.442400
C991	C99	0.818900	0.196500	0.454500
Zn221	Zn22	0.656800	0.080590	0.809640
Zn231	Zn23	0.242520	0.619450	0.332390
O671	O67	0.264800	0.629500	0.226900
O681	O68	0.187100	0.556200	0.214200
O691	O69	0.162930	0.445110	0.969200
O701	O70	0.242600	0.465300	0.884300
O711	O71	0.326700	0.691840	0.884380
O721	O72	0.339700	0.742050	0.993910
C1001	C100	0.228700	0.593100	0.187300
C1011	C101	0.239300	0.593200	0.104000
C1021	C102	0.216400	0.540540	0.062100
H341	H34	0.192600	0.507700	0.085400
C1031	C103	0.229100	0.537110	0.985200
C1041	C104	0.262600	0.587500	0.951300
H351	H35	0.271100	0.585500	0.900100
C1051	C105	0.284000	0.641200	0.992100
C1061	C106	0.273300	0.643400	0.069200
H361	H36	0.288700	0.678300	0.097400
C1071	C107	0.208600	0.478100	0.942400
C1081	C108	0.318900	0.696500	0.954500
Zn241	Zn24	0.156800	0.580590	0.309640
Zn251	Zn25	0.880550	0.742520	0.832390
O731	O73	0.870500	0.764800	0.726900
O741	O74	0.943800	0.687100	0.714200
O751	O75	0.054890	0.662930	0.469200
O761	O76	0.034700	0.742600	0.384300
O771	O77	0.808160	0.826700	0.384380
O781	O78	0.757950	0.839700	0.493910
C1091	C109	0.906900	0.728700	0.687300
C1101	C110	0.906800	0.739300	0.604000
C1111	C111	0.959460	0.716400	0.562100
H371	H37	0.992300	0.692600	0.585400
C1121	C112	0.962890	0.729100	0.485200
C1131	C113	0.912500	0.762600	0.451300
H381	H38	0.914500	0.771100	0.400100
C1141	C114	0.858800	0.784000	0.492100
C1151	C115	0.856600	0.773300	0.569200
H391	H39	0.821700	0.788700	0.597400
C1161	C116	0.021900	0.708600	0.442400
C1171	C117	0.803500	0.818900	0.454500
Zn261	Zn26	0.919410	0.656800	0.809640
Zn271	Zn27	0.380550	0.242520	0.332390
O791	O79	0.370500	0.264800	0.226900
O801	O80	0.443800	0.187100	0.214200
O811	O81	0.554890	0.162930	0.969200
O821	O82	0.534700	0.242600	0.884300
O831	O83	0.308160	0.326700	0.884380
O841	O84	0.257950	0.339700	0.993910
C1181	C118	0.406900	0.228700	0.187300
C1191	C119	0.406800	0.239300	0.104000
C1201	C120	0.459460	0.216400	0.062100
H401	H40	0.492300	0.192600	0.085400
C1211	C121	0.462890	0.229100	0.985200
C1221	C122	0.412500	0.262600	0.951300
H411	H41	0.414500	0.271100	0.900100
C1231	C123	0.358800	0.284000	0.992100
C1241	C124	0.356600	0.273300	0.069200
H421	H42	0.321700	0.288700	0.097400
C1251	C125	0.521900	0.208600	0.942400
C1261	C126	0.303500	0.318900	0.954500
Zn281	Zn28	0.419410	0.156800	0.309640
Zn291	Zn29	0.119450	0.257480	0.832390
O851	O85	0.129500	0.235200	0.726900
O861	O86	0.056200	0.312900	0.714200
O871	O87	0.945110	0.337070	0.469200
O881	O88	0.965300	0.257400	0.384300
O891	O89	0.191840	0.173300	0.384380
O901	O90	0.242050	0.160300	0.493910
C1271	C127	0.093100	0.271300	0.687300
C1281	C128	0.093200	0.260700	0.604000
C1291	C129	0.040540	0.283600	0.562100
H431	H43	0.007700	0.307400	0.585400
C1301	C130	0.037110	0.270900	0.485200
C1311	C131	0.087500	0.237400	0.451300
H441	H44	0.085500	0.228900	0.400100
C1321	C132	0.141200	0.216000	0.492100
C1331	C133	0.143400	0.226700	0.569200
H451	H45	0.178300	0.211300	0.597400
C1341	C134	0.978100	0.291400	0.442400
C1351	C135	0.196500	0.181100	0.454500
Zn301	Zn30	0.080590	0.343200	0.809640
Zn311	Zn31	0.619450	0.757480	0.332390
O911	O91	0.629500	0.735200	0.226900
O921	O92	0.556200	0.812900	0.214200
O931	O93	0.445110	0.837070	0.969200
O941	O94	0.465300	0.757400	0.884300
O951	O95	0.691840	0.673300	0.884380
O961	O96	0.742050	0.660300	0.993910
C1361	C136	0.593100	0.771300	0.187300
C1371	C137	0.593200	0.760700	0.104000
C1381	C138	0.540540	0.783600	0.062100
H461	H46	0.507700	0.807400	0.085400
C1391	C139	0.537110	0.770900	0.985200
C1401	C140	0.587500	0.737400	0.951300
H471	H47	0.585500	0.728900	0.900100
C1411	C141	0.641200	0.716000	0.992100
C1421	C142	0.643400	0.726700	0.069200
H481	H48	0.678300	0.711300	0.097400
C1431	C143	0.478100	0.791400	0.942400
C1441	C144	0.696500	0.681100	0.954500
Zn321	Zn32	0.580590	0.843200	0.309640
Zn331	Zn33	0.343690	0.156310	0.478020
O971	O97	0.339560	0.160440	0.360100
O981	O98	0.430300	0.069700	0.293800
H491	H49	0.441200	0.058800	0.250100
H501	H50	0.450700	0.049300	0.327200
Zn341	Zn34	0.656310	0.843690	0.478020
O991	O99	0.660440	0.839560	0.360100
O1001	O100	0.569700	0.930300	0.293800
H511	H51	0.558800	0.941200	0.250100
H521	H52	0.549300	0.950700	0.327200
Zn351	Zn35	0.156310	0.343690	0.978020
O1011	O101	0.160440	0.339560	0.860100
O1021	O102	0.069700	0.430300	0.793800
H531	H53	0.058800	0.441200	0.750100
H541	H54	0.049300	0.450700	0.827200
Zn361	Zn36	0.843690	0.343690	0.478020
O1031	O103	0.839560	0.339560	0.360100
O1041	O104	0.930300	0.430300	0.293800
H551	H55	0.941200	0.441200	0.250100
H561	H56	0.950700	0.450700	0.327200
Zn371	Zn37	0.156310	0.656310	0.478020
O1051	O105	0.160440	0.660440	0.360100
O1061	O106	0.069700	0.569700	0.293800
H571	H57	0.058800	0.558800	0.250100
H581	H58	0.049300	0.549300	0.327200
Zn381	Zn38	0.343690	0.843690	0.978020
O1071	O107	0.339560	0.839560	0.860100
O1081	O108	0.430300	0.930300	0.793800
H591	H59	0.441200	0.941200	0.750100
H601	H60	0.450700	0.950700	0.827200
Zn391	Zn39	0.656310	0.156310	0.978020
O1091	O109	0.660440	0.160440	0.860100
O1101	O110	0.569700	0.069700	0.793800
H611	H61	0.558800	0.058800	0.750100
H621	H62	0.549300	0.049300	0.827200
Zn401	Zn40	0.843690	0.656310	0.978020
O1111	O111	0.839560	0.660440	0.860100
O1121	O112	0.930300	0.569700	0.793800
H631	H63	0.941200	0.558800	0.750100
H641	H64	0.950700	0.549300	0.827200
