data_MABCUQ_clean_PM
_symmetry_space_group_name_H-M	'P1'
_cell_length_a	9.189000
_cell_length_b	14.103600
_cell_length_c	18.351800
_cell_angle_alpha	90.000000
_cell_angle_beta	117.157000
_cell_angle_gamma	90.000000
_symmetry_Int_Tables_number 1

loop_
_symmetry_equiv_pos_as_xyz
'x,y,z'

loop_
_atom_site_label
_atom_site_type_symbol
_atom_site_fract_x
_atom_site_fract_y
_atom_site_fract_z
Hg11	Hg1	0.563520	0.798100	0.580860
Fe11	Fe1	0.231510	0.651500	0.752980
S11	S1	0.711290	0.771870	0.732550
S21	S2	0.271260	0.843790	0.538800
S31	S3	0.720100	0.915030	0.539630
S41	S4	0.558480	0.652720	0.494240
N11	N1	0.389400	0.753000	0.347800
N21	N2	0.751700	0.055500	0.652900
N31	N3	0.233900	0.741600	0.660200
N41	N4	0.015500	0.717600	0.746600
C11	C1	0.460100	0.712000	0.408000
C21	C2	0.251300	0.783100	0.610900
C31	C3	0.736800	0.998600	0.607100
C41	C4	0.891200	0.740900	0.739000
Hg21	Hg2	0.436480	0.298100	0.919140
Fe21	Fe2	0.768490	0.151500	0.747020
S51	S5	0.288710	0.271870	0.767450
S61	S6	0.728740	0.343790	0.961200
S71	S7	0.279900	0.415030	0.960370
S81	S8	0.441520	0.152720	0.005760
N51	N5	0.610600	0.253000	0.152200
N61	N6	0.248300	0.555500	0.847100
N71	N7	0.766100	0.241600	0.839800
N81	N8	0.984500	0.217600	0.753400
C51	C5	0.539900	0.212000	0.092000
C61	C6	0.748700	0.283100	0.889100
C71	C7	0.263200	0.498600	0.892900
C81	C8	0.108800	0.240900	0.761000
Hg31	Hg3	0.436480	0.201900	0.419140
Fe31	Fe3	0.768490	0.348500	0.247020
S91	S9	0.288710	0.228130	0.267450
S101	S10	0.728740	0.156210	0.461200
S111	S11	0.279900	0.084970	0.460370
S121	S12	0.441520	0.347280	0.505760
N91	N9	0.610600	0.247000	0.652200
N101	N10	0.248300	0.944500	0.347100
N111	N11	0.766100	0.258400	0.339800
N121	N12	0.984500	0.282400	0.253400
C91	C9	0.539900	0.288000	0.592000
C101	C10	0.748700	0.216900	0.389100
C111	C11	0.263200	0.001400	0.392900
C121	C12	0.108800	0.259100	0.261000
Hg41	Hg4	0.563520	0.701900	0.080860
Fe41	Fe4	0.231510	0.848500	0.252980
S131	S13	0.711290	0.728130	0.232550
S141	S14	0.271260	0.656210	0.038800
S151	S15	0.720100	0.584970	0.039630
S161	S16	0.558480	0.847280	0.994240
N131	N13	0.389400	0.747000	0.847800
N141	N14	0.751700	0.444500	0.152900
N151	N15	0.233900	0.758400	0.160200
N161	N16	0.015500	0.782400	0.246600
C131	C13	0.460100	0.788000	0.908000
C141	C14	0.251300	0.716900	0.110900
C151	C15	0.736800	0.501400	0.107100
C161	C16	0.891200	0.759100	0.239000
