data_MABJUV_clean_PM
_symmetry_space_group_name_H-M	'P1'
_cell_length_a	8.569900
_cell_length_b	12.534700
_cell_length_c	12.534700
_cell_angle_alpha	116.789000
_cell_angle_beta	99.358400
_cell_angle_gamma	80.641600
_symmetry_Int_Tables_number 1

loop_
_symmetry_equiv_pos_as_xyz
'x,y,z'

loop_
_atom_site_label
_atom_site_type_symbol
_atom_site_fract_x
_atom_site_fract_y
_atom_site_fract_z
Cu11	Cu1	0.924320	0.596740	0.992380
Cu21	Cu2	0.575680	0.992380	0.596740
Cu31	Cu3	0.075680	0.403260	0.007620
Cu41	Cu4	0.424320	0.007620	0.403260
H11	H1	0.747800	0.266600	0.655000
H21	H2	0.804900	0.355600	0.613200
H31	H3	0.047600	0.236500	0.567300
H41	H4	0.003000	0.151100	0.619500
H51	H5	0.958800	0.056700	0.407900
H61	H6	0.843900	0.170900	0.407900
H71	H7	0.823600	0.857700	0.163100
H81	H8	0.647900	0.021500	0.172700
H91	H9	0.504400	0.833900	0.823900
H101	H10	0.682500	0.675000	0.825000
H111	H11	0.752200	0.655000	0.266600
H121	H12	0.695100	0.613200	0.355600
H131	H13	0.452400	0.567300	0.236500
H141	H14	0.497000	0.619500	0.151100
H151	H15	0.541200	0.407900	0.056700
H161	H16	0.656100	0.407900	0.170900
H171	H17	0.676400	0.163100	0.857700
H181	H18	0.852100	0.172700	0.021500
H191	H19	0.995600	0.823900	0.833900
H201	H20	0.817500	0.825000	0.675000
H211	H21	0.252200	0.733400	0.345000
H221	H22	0.195100	0.644400	0.386800
H231	H23	0.952400	0.763500	0.432700
H241	H24	0.997000	0.848900	0.380500
H251	H25	0.041200	0.943300	0.592100
H261	H26	0.156100	0.829100	0.592100
H271	H27	0.176400	0.142300	0.836900
H281	H28	0.352100	0.978500	0.827300
H291	H29	0.495600	0.166100	0.176100
H301	H30	0.317500	0.325000	0.175000
H311	H31	0.247800	0.345000	0.733400
H321	H32	0.304900	0.386800	0.644400
H331	H33	0.547600	0.432700	0.763500
H341	H34	0.503000	0.380500	0.848900
H351	H35	0.458800	0.592100	0.943300
H361	H36	0.343900	0.592100	0.829100
H371	H37	0.323600	0.836900	0.142300
H381	H38	0.147900	0.827300	0.978500
H391	H39	0.004400	0.176100	0.166100
H401	H40	0.182500	0.175000	0.325000
C11	C1	0.905900	0.377540	0.780460
C21	C2	0.841700	0.302180	0.653020
C31	C3	0.958600	0.201420	0.577180
C41	C4	0.879600	0.122170	0.453030
C51	C5	0.738600	0.068390	0.461210
C61	C6	0.758100	0.852670	0.092530
C71	C7	0.653100	0.951000	0.098800
C81	C8	0.556000	0.947420	0.998580
C91	C9	0.569000	0.841920	0.895680
C101	C10	0.676700	0.747320	0.897080
C111	C11	0.594100	0.780460	0.377540
C121	C12	0.658300	0.653020	0.302180
C131	C13	0.541400	0.577180	0.201420
C141	C14	0.620400	0.453030	0.122170
C151	C15	0.761400	0.461210	0.068390
C161	C16	0.741900	0.092530	0.852670
C171	C17	0.846900	0.098800	0.951000
C181	C18	0.944000	0.998580	0.947420
C191	C19	0.931000	0.895680	0.841920
C201	C20	0.823300	0.897080	0.747320
C211	C21	0.094100	0.622460	0.219540
C221	C22	0.158300	0.697820	0.346980
C231	C23	0.041400	0.798580	0.422820
C241	C24	0.120400	0.877830	0.546970
C251	C25	0.261400	0.931610	0.538790
C261	C26	0.241900	0.147330	0.907470
C271	C27	0.346900	0.049000	0.901200
C281	C28	0.444000	0.052580	0.001420
C291	C29	0.431000	0.158080	0.104320
C301	C30	0.323300	0.252680	0.102920
C311	C31	0.405900	0.219540	0.622460
C321	C32	0.341700	0.346980	0.697820
C331	C33	0.458600	0.422820	0.798580
C341	C34	0.379600	0.546970	0.877830
C351	C35	0.238600	0.538790	0.931610
C361	C36	0.258100	0.907470	0.147330
C371	C37	0.153100	0.901200	0.049000
C381	C38	0.056000	0.001420	0.052580
C391	C39	0.069000	0.104320	0.158080
C401	C40	0.176700	0.102920	0.252680
N11	N1	0.771700	0.751880	0.992720
N21	N2	0.728300	0.992720	0.751880
N31	N3	0.228300	0.248120	0.007280
N41	N4	0.271700	0.007280	0.248120
O11	O1	0.865400	0.488390	0.823070
O21	O2	0.990900	0.324270	0.836950
O31	O3	0.748800	0.038380	0.545040
O41	O4	0.619900	0.058700	0.384740
O51	O5	0.634600	0.823070	0.488390
O61	O6	0.509100	0.836950	0.324270
O71	O7	0.751200	0.545040	0.038380
O81	O8	0.880100	0.384740	0.058700
O91	O9	0.134600	0.511610	0.176930
O101	O10	0.009100	0.675730	0.163050
O111	O11	0.251200	0.961620	0.454960
O121	O12	0.380100	0.941300	0.615260
O131	O13	0.365400	0.176930	0.511610
O141	O14	0.490900	0.163050	0.675730
O151	O15	0.248800	0.454960	0.961620
O161	O16	0.119900	0.615260	0.941300
