data_MABKIK01_clean_PM
_symmetry_space_group_name_H-M	'P1'
_cell_length_a	8.631300
_cell_length_b	13.052700
_cell_length_c	13.764600
_cell_angle_alpha	118.303000
_cell_angle_beta	91.296900
_cell_angle_gamma	90.000000
_symmetry_Int_Tables_number 1

loop_
_symmetry_equiv_pos_as_xyz
'x,y,z'

loop_
_atom_site_label
_atom_site_type_symbol
_atom_site_fract_x
_atom_site_fract_y
_atom_site_fract_z
Cu11	Cu1	0.553940	0.999050	0.589500
Cu21	Cu2	0.946060	0.409550	0.410500
Cu31	Cu3	0.446060	0.000950	0.410500
Cu41	Cu4	0.053940	0.590450	0.589500
H11	H1	0.275300	0.657000	0.394600
H21	H2	0.371000	0.627100	0.286600
H31	H3	0.585400	0.572600	0.356800
H41	H4	0.504700	0.616100	0.473400
H51	H5	0.483500	0.410400	0.367400
H61	H6	0.395200	0.423100	0.270200
H71	H7	0.717900	0.829200	0.651400
H81	H8	0.907400	0.825700	0.772000
H91	H9	0.900000	0.176000	0.936000
H101	H10	0.712100	0.170700	0.811600
H111	H11	0.108100	0.933000	0.916200
H121	H12	0.106400	0.072400	0.980600
H131	H13	0.224700	0.262400	0.605400
H141	H14	0.129000	0.340500	0.713400
H151	H15	0.914600	0.215800	0.643200
H161	H16	0.995300	0.142700	0.526600
H171	H17	0.016500	0.043000	0.632600
H181	H18	0.104800	0.152900	0.729800
H191	H19	0.782100	0.177800	0.348600
H201	H20	0.592600	0.053700	0.228000
H211	H21	0.600000	0.240000	0.064000
H221	H22	0.787900	0.359100	0.188400
H231	H23	0.391900	0.016800	0.083800
H241	H24	0.393600	0.091800	0.019400
H251	H25	0.724700	0.343000	0.605400
H261	H26	0.629000	0.372900	0.713400
H271	H27	0.414600	0.427400	0.643200
H281	H28	0.495300	0.383900	0.526600
H291	H29	0.516500	0.589600	0.632600
H301	H30	0.604800	0.576900	0.729800
H311	H31	0.282100	0.170800	0.348600
H321	H32	0.092600	0.174300	0.228000
H331	H33	0.100000	0.824000	0.064000
H341	H34	0.287900	0.829300	0.188400
H351	H35	0.891900	0.067000	0.083800
H361	H36	0.893600	0.927600	0.019400
H371	H37	0.775300	0.737600	0.394600
H381	H38	0.871000	0.659500	0.286600
H391	H39	0.085400	0.784200	0.356800
H401	H40	0.004700	0.857300	0.473400
H411	H41	0.983500	0.957000	0.367400
H421	H42	0.895200	0.847100	0.270200
H431	H43	0.217900	0.822200	0.651400
H441	H44	0.407400	0.946300	0.772000
H451	H45	0.400000	0.760000	0.936000
H461	H46	0.212100	0.640900	0.811600
H471	H47	0.608100	0.983200	0.916200
H481	H48	0.606400	0.908200	0.980600
C11	C1	0.432600	0.784620	0.417640
C21	C2	0.380000	0.659180	0.367760
C31	C3	0.484700	0.580340	0.392680
C41	C4	0.411300	0.459660	0.351320
C51	C5	0.257400	0.463830	0.404060
C61	C6	0.754800	0.900700	0.710400
C71	C7	0.868200	0.897990	0.782180
C81	C8	0.923800	0.001180	0.868560
C91	C9	0.864000	0.103240	0.878280
C101	C10	0.751600	0.099310	0.803820
C111	C11	0.040400	0.001520	0.952240
C121	C12	0.067400	0.366980	0.582360
C131	C13	0.120000	0.291420	0.632240
C141	C14	0.015300	0.187660	0.607320
C151	C15	0.088700	0.108340	0.648680
C161	C16	0.242600	0.059770	0.595940
C171	C17	0.745200	0.190300	0.289600
C181	C18	0.631800	0.115810	0.217820
C191	C19	0.576200	0.132620	0.131440
C201	C20	0.636000	0.224960	0.121720
C211	C21	0.748400	0.295490	0.196180
C221	C22	0.459600	0.049280	0.047760
C231	C23	0.567400	0.215380	0.582360
C241	C24	0.620000	0.340820	0.632240
C251	C25	0.515300	0.419660	0.607320
C261	C26	0.588700	0.540340	0.648680
C271	C27	0.742600	0.536170	0.595940
C281	C28	0.245200	0.099300	0.289600
C291	C29	0.131800	0.102010	0.217820
C301	C30	0.076200	0.998820	0.131440
C311	C31	0.136000	0.896760	0.121720
C321	C32	0.248400	0.900690	0.196180
C331	C33	0.959600	0.998480	0.047760
C341	C34	0.932600	0.633020	0.417640
C351	C35	0.880000	0.708580	0.367760
C361	C36	0.984700	0.812340	0.392680
C371	C37	0.911300	0.891660	0.351320
C381	C38	0.757400	0.940230	0.404060
C391	C39	0.254800	0.809700	0.710400
C401	C40	0.368200	0.884190	0.782180
C411	C41	0.423800	0.867380	0.868560
C421	C42	0.364000	0.775040	0.878280
C431	C43	0.251600	0.704510	0.803820
C441	C44	0.540400	0.950720	0.952240
N11	N1	0.695500	0.999860	0.720980
N21	N2	0.804500	0.278880	0.279020
N31	N3	0.304500	0.000140	0.279020
N41	N4	0.195500	0.721120	0.720980
O11	O1	0.492700	0.833080	0.513360
O21	O2	0.408400	0.834710	0.360280
O31	O3	0.153600	0.390010	0.346780
O41	O4	0.242900	0.540840	0.500900
O51	O5	0.007300	0.319720	0.486640
O61	O6	0.091600	0.474430	0.639720
O71	O7	0.346400	0.043230	0.653220
O81	O8	0.257100	0.039940	0.499100
O91	O9	0.507300	0.166920	0.486640
O101	O10	0.591600	0.165290	0.639720
O111	O11	0.846400	0.609990	0.653220
O121	O12	0.757100	0.459160	0.499100
O131	O13	0.992700	0.680280	0.513360
O141	O14	0.908400	0.525570	0.360280
O151	O15	0.653600	0.956770	0.346780
O161	O16	0.742900	0.960060	0.500900
