data_MABLAD_clean_PM
_symmetry_space_group_name_H-M	'P1'
_cell_length_a	9.523000
_cell_length_b	11.355500
_cell_length_c	25.874000
_cell_angle_alpha	87.404400
_cell_angle_beta	83.799900
_cell_angle_gamma	65.208800
_symmetry_Int_Tables_number 1

loop_
_symmetry_equiv_pos_as_xyz
'x,y,z'

loop_
_atom_site_label
_atom_site_type_symbol
_atom_site_fract_x
_atom_site_fract_y
_atom_site_fract_z
Co11	Co1	0.102530	0.605540	0.955750
Co21	Co2	0.291930	0.605540	0.544250
Co31	Co3	0.897470	0.394460	0.044250
Co41	Co4	0.708070	0.394460	0.455750
H11	H1	0.504500	0.720200	0.894500
H21	H2	0.660900	0.761800	0.832200
H31	H3	0.401500	0.763600	0.723600
H41	H4	0.235700	0.723400	0.785700
H51	H5	0.978600	0.500600	0.157100
H61	H6	0.010900	0.535800	0.242600
H71	H7	0.334500	0.656400	0.186500
H81	H8	0.279500	0.643200	0.102700
H91	H9	0.965500	0.866600	0.015500
H101	H10	0.762100	0.065800	0.018000
H111	H11	0.609800	0.957200	0.902000
H121	H12	0.813600	0.759400	0.903300
H131	H13	0.603300	0.257800	0.008100
H141	H14	0.408100	0.457800	0.001900
H151	H15	0.225600	0.342600	0.900800
H161	H16	0.421700	0.133800	0.903300
H171	H17	0.775300	0.720200	0.605500
H181	H18	0.577300	0.761800	0.667800
H191	H19	0.834900	0.763600	0.776400
H201	H20	0.040900	0.723400	0.714300
H211	H21	0.520800	0.500600	0.342900
H221	H22	0.453300	0.535800	0.257400
H231	H23	0.009100	0.656400	0.313500
H241	H24	0.077300	0.643200	0.397300
H251	H25	0.167900	0.866600	0.484500
H261	H26	0.172100	0.065800	0.482000
H271	H27	0.433000	0.957200	0.598000
H281	H28	0.427000	0.759400	0.596700
H291	H29	0.138900	0.257800	0.491900
H301	H30	0.134100	0.457800	0.498100
H311	H31	0.431800	0.342600	0.599200
H321	H32	0.444500	0.133800	0.596700
H331	H33	0.495500	0.279800	0.105500
H341	H34	0.339100	0.238200	0.167800
H351	H35	0.598500	0.236400	0.276400
H361	H36	0.764300	0.276600	0.214300
H371	H37	0.021400	0.499400	0.842900
H381	H38	0.989100	0.464200	0.757400
H391	H39	0.665500	0.343600	0.813500
H401	H40	0.720500	0.356800	0.897300
H411	H41	0.034500	0.133400	0.984500
H421	H42	0.237900	0.934200	0.982000
H431	H43	0.390200	0.042800	0.098000
H441	H44	0.186400	0.240600	0.096700
H451	H45	0.396700	0.742200	0.991900
H461	H46	0.591900	0.542200	0.998100
H471	H47	0.774400	0.657400	0.099200
H481	H48	0.578300	0.866200	0.096700
H491	H49	0.224700	0.279800	0.394500
H501	H50	0.422700	0.238200	0.332200
H511	H51	0.165100	0.236400	0.223600
H521	H52	0.959100	0.276600	0.285700
H531	H53	0.479200	0.499400	0.657100
H541	H54	0.546700	0.464200	0.742600
H551	H55	0.990900	0.343600	0.686500
H561	H56	0.922700	0.356800	0.602700
H571	H57	0.832100	0.133400	0.515500
H581	H58	0.827900	0.934200	0.518000
H591	H59	0.567000	0.042800	0.402000
H601	H60	0.573000	0.240600	0.403300
H611	H61	0.861100	0.742200	0.508100
H621	H62	0.865900	0.542200	0.501900
H631	H63	0.568200	0.657400	0.400800
H641	H64	0.555500	0.866200	0.403300
C11	C1	0.251400	0.683000	0.886800
C21	C2	0.348700	0.719200	0.847200
C31	C3	0.481400	0.728800	0.860100
C41	C4	0.576600	0.750800	0.821900
C51	C5	0.561900	0.758400	0.771000
C61	C6	0.424100	0.752600	0.758000
C71	C7	0.322800	0.730600	0.795600
C81	C8	0.091700	0.557400	0.067500
C91	C9	0.120100	0.573800	0.122000
C101	C10	0.046300	0.537200	0.163100
C111	C11	0.069900	0.553000	0.214700
C121	C12	0.183700	0.595000	0.223100
C131	C13	0.259200	0.627400	0.181200
C141	C14	0.227500	0.618400	0.130600
C151	C15	0.891400	0.885200	0.992000
C161	C16	0.773000	0.006000	0.992700
C171	C17	0.670300	0.038800	0.956100
C181	C18	0.683900	0.942200	0.925100
C191	C19	0.804900	0.822200	0.926800
C201	C20	0.542000	0.172400	0.955100
C211	C21	0.529200	0.271200	0.985200
C221	C22	0.408900	0.390600	0.982400
C231	C23	0.301700	0.324600	0.923500
C241	C24	0.422600	0.198800	0.923800
C251	C25	0.065600	0.683000	0.613200
C261	C26	0.932100	0.719200	0.652800
C271	C27	0.789800	0.728800	0.639900
C281	C28	0.672600	0.750800	0.678100
C291	C29	0.679700	0.758400	0.729000
C301	C30	0.823300	0.752600	0.742000
C311	C31	0.946600	0.730600	0.704400
C321	C32	0.350900	0.557400	0.432500
C331	C33	0.306100	0.573800	0.378000
C341	C34	0.416500	0.537200	0.336900
C351	C35	0.377100	0.553000	0.285300
C361	C36	0.221300	0.595000	0.276900
C371	C37	0.113400	0.627400	0.318800
C381	C38	0.154100	0.618400	0.369400
C391	C39	0.223400	0.885200	0.508000
C401	C40	0.221000	0.006000	0.507300
C411	C41	0.290900	0.038800	0.543900
C421	C42	0.373900	0.942200	0.574900
C431	C43	0.372900	0.822200	0.573200
C441	C44	0.285600	0.172400	0.544900
C451	C45	0.199600	0.271200	0.514800
C461	C46	0.200500	0.390600	0.517600
C471	C47	0.373700	0.324600	0.576500
C481	C48	0.378600	0.198800	0.576200
C491	C49	0.748600	0.317000	0.113200
C501	C50	0.651300	0.280800	0.152800
C511	C51	0.518600	0.271200	0.139900
C521	C52	0.423400	0.249200	0.178100
C531	C53	0.438100	0.241600	0.229000
C541	C54	0.575900	0.247400	0.242000
C551	C55	0.677200	0.269400	0.204400
C561	C56	0.908300	0.442600	0.932500
C571	C57	0.879900	0.426200	0.878000
C581	C58	0.953700	0.462800	0.836900
C591	C59	0.930100	0.447000	0.785300
C601	C60	0.816300	0.405000	0.776900
C611	C61	0.740800	0.372600	0.818800
C621	C62	0.772500	0.381600	0.869400
C631	C63	0.108600	0.114800	0.008000
C641	C64	0.227000	0.994000	0.007300
C651	C65	0.329700	0.961200	0.043900
C661	C66	0.316100	0.057800	0.074900
C671	C67	0.195100	0.177800	0.073200
C681	C68	0.458000	0.827600	0.044900
C691	C69	0.470800	0.728800	0.014800
C701	C70	0.591100	0.609400	0.017600
C711	C71	0.698300	0.675400	0.076500
C721	C72	0.577400	0.801200	0.076200
C731	C73	0.934400	0.317000	0.386800
C741	C74	0.067900	0.280800	0.347200
C751	C75	0.210200	0.271200	0.360100
C761	C76	0.327400	0.249200	0.321900
C771	C77	0.320300	0.241600	0.271000
C781	C78	0.176700	0.247400	0.258000
C791	C79	0.053400	0.269400	0.295600
C801	C80	0.649100	0.442600	0.567500
C811	C81	0.693900	0.426200	0.622000
C821	C82	0.583500	0.462800	0.663100
C831	C83	0.622900	0.447000	0.714700
C841	C84	0.778700	0.405000	0.723100
C851	C85	0.886600	0.372600	0.681200
C861	C86	0.845900	0.381600	0.630600
C871	C87	0.776600	0.114800	0.492000
C881	C88	0.779000	0.994000	0.492700
C891	C89	0.709100	0.961200	0.456100
C901	C90	0.626100	0.057800	0.425100
C911	C91	0.627100	0.177800	0.426800
C921	C92	0.714400	0.827600	0.455100
C931	C93	0.800400	0.728800	0.485200
C941	C94	0.799500	0.609400	0.482400
C951	C95	0.626300	0.675400	0.423500
C961	C96	0.621400	0.801200	0.423800
N11	N1	0.906600	0.792600	0.959300
N21	N2	0.292400	0.415600	0.953200
N31	N3	0.300800	0.792600	0.540700
N41	N4	0.292000	0.415600	0.546800
N51	N5	0.093400	0.207400	0.040700
N61	N6	0.707600	0.584400	0.046800
N71	N7	0.699200	0.207400	0.459300
N81	N8	0.708000	0.584400	0.453200
O11	O1	0.263600	0.695400	0.934400
O21	O2	0.161000	0.638800	0.873500
O31	O3	0.122300	0.621400	0.032200
O41	O4	0.044700	0.472800	0.060200
O51	O5	0.041000	0.695400	0.565600
O61	O6	0.200200	0.638800	0.626500
O71	O7	0.256300	0.621400	0.467800
O81	O8	0.482500	0.472800	0.439800
O91	O9	0.736400	0.304600	0.065600
O101	O10	0.839000	0.361200	0.126500
O111	O11	0.877700	0.378600	0.967800
O121	O12	0.955300	0.527200	0.939800
O131	O13	0.959000	0.304600	0.434400
O141	O14	0.799800	0.361200	0.373500
O151	O15	0.743700	0.378600	0.532200
O161	O16	0.517500	0.527200	0.560200
