data_MACKAE_clean_PM
_symmetry_space_group_name_H-M	'P1'
_cell_length_a	14.453700
_cell_length_b	14.453700
_cell_length_c	14.453700
_cell_angle_alpha	109.471000
_cell_angle_beta	109.471000
_cell_angle_gamma	109.471000
_symmetry_Int_Tables_number 1

loop_
_symmetry_equiv_pos_as_xyz
'x,y,z'

loop_
_atom_site_label
_atom_site_type_symbol
_atom_site_fract_x
_atom_site_fract_y
_atom_site_fract_z
U11	U1	0.615560	0.990420	0.154610
U21	U2	0.835810	0.460950	0.845390
U31	U3	0.164190	0.009580	0.625140
U41	U4	0.384440	0.539050	0.374860
U51	U5	0.625140	0.164190	0.009580
U61	U6	0.374860	0.384440	0.539050
U71	U7	0.154610	0.615560	0.990420
U81	U8	0.845390	0.835810	0.460950
U91	U9	0.460950	0.845390	0.835810
U101	U10	0.990420	0.154610	0.615560
U111	U11	0.539050	0.374860	0.384440
U121	U12	0.009580	0.625140	0.164190
C11	C1	0.728100	0.168200	0.436700
C21	C2	0.791100	0.227300	0.560000
C31	C3	0.731500	0.291400	0.563300
C41	C4	0.667300	0.231100	0.440000
C51	C5	0.268500	0.831800	0.559900
C61	C6	0.332700	0.772700	0.563800
C71	C7	0.271900	0.708600	0.440100
C81	C8	0.208900	0.768900	0.436200
C91	C9	0.559900	0.268500	0.831800
C101	C10	0.563800	0.332700	0.772700
C111	C11	0.440100	0.271900	0.708600
C121	C12	0.436200	0.208900	0.768900
C131	C13	0.436700	0.728100	0.168200
C141	C14	0.560000	0.791100	0.227300
C151	C15	0.563300	0.731500	0.291400
C161	C16	0.440000	0.667300	0.231100
C171	C17	0.291400	0.563300	0.731500
C181	C18	0.231100	0.440000	0.667300
C191	C19	0.168200	0.436700	0.728100
C201	C20	0.227300	0.560000	0.791100
C211	C21	0.708600	0.440100	0.271900
C221	C22	0.768900	0.436200	0.208900
C231	C23	0.831800	0.559900	0.268500
C241	C24	0.772700	0.563800	0.332700
O11	O1	0.490300	0.801800	0.985900
O21	O2	0.866000	0.227900	0.634700
O31	O3	0.730400	0.095400	0.360400
O41	O4	0.815900	0.504400	0.014100
O51	O5	0.593200	0.231300	0.365300
O61	O6	0.735000	0.370000	0.639600
O71	O7	0.184100	0.198200	0.688500
O81	O8	0.406800	0.772100	0.638100
O91	O9	0.265000	0.904600	0.635000
O101	O10	0.509700	0.495600	0.311500
O111	O11	0.134000	0.768700	0.361900
O121	O12	0.269600	0.630000	0.365000
O131	O13	0.688500	0.184100	0.198200
O141	O14	0.638100	0.406800	0.772100
O151	O15	0.635000	0.265000	0.904600
O161	O16	0.311500	0.509700	0.495600
O171	O17	0.361900	0.134000	0.768700
O181	O18	0.365000	0.269600	0.630000
O191	O19	0.985900	0.490300	0.801800
O201	O20	0.634700	0.866000	0.227900
O211	O21	0.360400	0.730400	0.095400
O221	O22	0.014100	0.815900	0.504400
O231	O23	0.365300	0.593200	0.231300
O241	O24	0.639600	0.735000	0.370000
O251	O25	0.504400	0.014100	0.815900
O261	O26	0.231300	0.365300	0.593200
O271	O27	0.370000	0.639600	0.735000
O281	O28	0.801800	0.985900	0.490300
O291	O29	0.227900	0.634700	0.866000
O301	O30	0.095400	0.360400	0.730400
O311	O31	0.495600	0.311500	0.509700
O321	O32	0.768700	0.361900	0.134000
O331	O33	0.630000	0.365000	0.269600
O341	O34	0.198200	0.688500	0.184100
O351	O35	0.772100	0.638100	0.406800
O361	O36	0.904600	0.635000	0.265000
O371	O37	0.540800	0.000000	0.000000
O381	O38	0.000000	0.540800	0.000000
O391	O39	0.000000	0.000000	0.540800
O401	O40	0.459200	0.459200	0.459200
