data_MADWAQ_clean_PM
_symmetry_space_group_name_H-M	'P1'
_cell_length_a	7.082000
_cell_length_b	12.357000
_cell_length_c	20.724000
_cell_angle_alpha	90.000000
_cell_angle_beta	90.000000
_cell_angle_gamma	90.000000
_symmetry_Int_Tables_number 1

loop_
_symmetry_equiv_pos_as_xyz
'x,y,z'

loop_
_atom_site_label
_atom_site_type_symbol
_atom_site_fract_x
_atom_site_fract_y
_atom_site_fract_z
Cu11	Cu1	0.244580	0.332660	0.250000
Cu21	Cu2	0.255420	0.832660	0.750000
Cu31	Cu3	0.755420	0.667340	0.750000
Cu41	Cu4	0.744580	0.167340	0.250000
H11	H1	0.489700	0.247700	0.511800
H21	H2	0.632700	0.321500	0.603600
H31	H3	0.847700	0.564000	0.494000
H41	H4	0.715100	0.486500	0.402200
H51	H5	0.368200	0.278500	0.406000
H61	H6	0.553600	0.275700	0.366200
H71	H7	0.121800	0.536900	0.354900
H81	H8	0.098800	0.431900	0.395100
H91	H9	0.010300	0.747700	0.488200
H101	H10	0.867300	0.821500	0.396400
H111	H11	0.652300	0.064000	0.506000
H121	H12	0.784900	0.986500	0.597800
H131	H13	0.131800	0.778500	0.594000
H141	H14	0.946400	0.775700	0.633800
H151	H15	0.378200	0.036900	0.645100
H161	H16	0.401200	0.931900	0.604900
H171	H17	0.510300	0.752300	0.011800
H181	H18	0.367300	0.678500	0.103600
H191	H19	0.152300	0.436000	0.994000
H201	H20	0.284900	0.513500	0.902200
H211	H21	0.631800	0.721500	0.906000
H221	H22	0.446400	0.724300	0.866200
H231	H23	0.878200	0.463100	0.854900
H241	H24	0.901200	0.568100	0.895100
H251	H25	0.989700	0.252300	0.988200
H261	H26	0.132700	0.178500	0.896400
H271	H27	0.347700	0.936000	0.006000
H281	H28	0.215100	0.013500	0.097800
H291	H29	0.868200	0.221500	0.094000
H301	H30	0.053600	0.224300	0.133800
H311	H31	0.621800	0.963100	0.145100
H321	H32	0.598800	0.068100	0.104900
H331	H33	0.510300	0.752300	0.488200
H341	H34	0.367300	0.678500	0.396400
H351	H35	0.152300	0.436000	0.506000
H361	H36	0.284900	0.513500	0.597800
H371	H37	0.631800	0.721500	0.594000
H381	H38	0.446400	0.724300	0.633800
H391	H39	0.878200	0.463100	0.645100
H401	H40	0.901200	0.568100	0.604900
H411	H41	0.989700	0.252300	0.511800
H421	H42	0.132700	0.178500	0.603600
H431	H43	0.347700	0.936000	0.494000
H441	H44	0.215100	0.013500	0.402200
H451	H45	0.868200	0.221500	0.406000
H461	H46	0.053600	0.224300	0.366200
H471	H47	0.621800	0.963100	0.354900
H481	H48	0.598800	0.068100	0.395100
H491	H49	0.489700	0.247700	0.988200
H501	H50	0.632700	0.321500	0.896400
H511	H51	0.847700	0.564000	0.006000
H521	H52	0.715100	0.486500	0.097800
H531	H53	0.368200	0.278500	0.094000
H541	H54	0.553600	0.275700	0.133800
H551	H55	0.121800	0.536900	0.145100
H561	H56	0.098800	0.431900	0.104900
H571	H57	0.010300	0.747700	0.011800
H581	H58	0.867300	0.821500	0.103600
H591	H59	0.652300	0.064000	0.994000
H601	H60	0.784900	0.986500	0.902200
H611	H61	0.131800	0.778500	0.906000
H621	H62	0.946400	0.775700	0.866200
H631	H63	0.378200	0.036900	0.854900
H641	H64	0.401200	0.931900	0.895100
C11	C1	0.560700	0.313000	0.508180
C21	C2	0.644800	0.357400	0.563010
C31	C3	0.746700	0.454100	0.558540
C41	C4	0.772700	0.499800	0.498100
C51	C5	0.692600	0.454700	0.443440
C61	C6	0.578800	0.363100	0.448160
C71	C7	0.471400	0.320600	0.390570
C81	C8	0.185400	0.487000	0.382300
C91	C9	0.939300	0.813000	0.491820
C101	C10	0.855200	0.857400	0.436990
C111	C11	0.753300	0.954100	0.441460
C121	C12	0.727300	0.999800	0.501900
C131	C13	0.807400	0.954700	0.556560
C141	C14	0.921200	0.863100	0.551840
C151	C15	0.028600	0.820600	0.609430
C161	C16	0.314600	0.987000	0.617700
C171	C17	0.439300	0.687000	0.008180
C181	C18	0.355200	0.642600	0.063010
C191	C19	0.253300	0.545900	0.058540
C201	C20	0.227300	0.500200	0.998100
C211	C21	0.307400	0.545300	0.943440
C221	C22	0.421200	0.636900	0.948160
C231	C23	0.528600	0.679400	0.890570
C241	C24	0.814600	0.513000	0.882300
C251	C25	0.060700	0.187000	0.991820
C261	C26	0.144800	0.142600	0.936990
C271	C27	0.246700	0.045900	0.941460
C281	C28	0.272700	0.000200	0.001900
C291	C29	0.192600	0.045300	0.056560
C301	C30	0.078800	0.136900	0.051840
C311	C31	0.971400	0.179400	0.109430
C321	C32	0.685400	0.013000	0.117700
C331	C33	0.439300	0.687000	0.491820
C341	C34	0.355200	0.642600	0.436990
C351	C35	0.253300	0.545900	0.441460
C361	C36	0.227300	0.500200	0.501900
C371	C37	0.307400	0.545300	0.556560
C381	C38	0.421200	0.636900	0.551840
C391	C39	0.528600	0.679400	0.609430
C401	C40	0.814600	0.513000	0.617700
C411	C41	0.060700	0.187000	0.508180
C421	C42	0.144800	0.142600	0.563010
C431	C43	0.246700	0.045900	0.558540
C441	C44	0.272700	0.000200	0.498100
C451	C45	0.192600	0.045300	0.443440
C461	C46	0.078800	0.136900	0.448160
C471	C47	0.971400	0.179400	0.390570
C481	C48	0.685400	0.013000	0.382300
C491	C49	0.560700	0.313000	0.991820
C501	C50	0.644800	0.357400	0.936990
C511	C51	0.746700	0.454100	0.941460
C521	C52	0.772700	0.499800	0.001900
C531	C53	0.692600	0.454700	0.056560
C541	C54	0.578800	0.363100	0.051840
C551	C55	0.471400	0.320600	0.109430
C561	C56	0.185400	0.487000	0.117700
C571	C57	0.939300	0.813000	0.008180
C581	C58	0.855200	0.857400	0.063010
C591	C59	0.753300	0.954100	0.058540
C601	C60	0.727300	0.999800	0.998100
C611	C61	0.807400	0.954700	0.943440
C621	C62	0.921200	0.863100	0.948160
C631	C63	0.028600	0.820600	0.890570
C641	C64	0.314600	0.987000	0.882300
S11	S1	0.377240	0.424060	0.336820
S21	S2	0.122760	0.924060	0.663180
S31	S3	0.622760	0.575940	0.836820
S41	S4	0.877240	0.075940	0.163180
S51	S5	0.622760	0.575940	0.663180
S61	S6	0.877240	0.075940	0.336820
S71	S7	0.377240	0.424060	0.163180
S81	S8	0.122760	0.924060	0.836820
Br11	Br1	0.894960	0.348290	0.250000
Br21	Br2	0.605040	0.848290	0.750000
Br31	Br3	0.105040	0.651710	0.750000
Br41	Br4	0.394960	0.151710	0.250000
