data_MAFJIO_clean_PM
_symmetry_space_group_name_H-M	'P1'
_cell_length_a	18.577300
_cell_length_b	18.577300
_cell_length_c	22.693300
_cell_angle_alpha	90.000000
_cell_angle_beta	90.000000
_cell_angle_gamma	120.000000
_symmetry_Int_Tables_number 1

loop_
_symmetry_equiv_pos_as_xyz
'x,y,z'

loop_
_atom_site_label
_atom_site_type_symbol
_atom_site_fract_x
_atom_site_fract_y
_atom_site_fract_z
Cu11	Cu1	0.045650	0.543670	0.548800
Cu21	Cu2	0.498020	0.954350	0.548800
Cu31	Cu3	0.456330	0.501980	0.548800
Cu41	Cu4	0.954350	0.456330	0.048800
Cu51	Cu5	0.501980	0.045650	0.048800
Cu61	Cu6	0.543670	0.498020	0.048800
Cu71	Cu7	0.501980	0.456330	0.451200
Cu81	Cu8	0.543670	0.045650	0.451200
Cu91	Cu9	0.954350	0.498020	0.451200
Cu101	Cu10	0.498020	0.543670	0.951200
Cu111	Cu11	0.456330	0.954350	0.951200
Cu121	Cu12	0.045650	0.501980	0.951200
H11	H1	0.692400	0.642800	0.631700
H21	H2	0.750300	0.519800	0.509900
H31	H3	0.926000	0.675100	0.627600
H41	H4	0.952100	0.808700	0.666800
H51	H5	0.934600	0.734700	0.711900
H61	H6	0.891500	0.861300	0.735300
H71	H7	0.950400	0.307600	0.631700
H81	H8	0.769500	0.249700	0.509900
H91	H9	0.749100	0.074000	0.627600
H101	H10	0.856600	0.047900	0.666800
H111	H11	0.800100	0.065400	0.711900
H121	H12	0.969800	0.108500	0.735300
H131	H13	0.357200	0.049600	0.631700
H141	H14	0.480200	0.230500	0.509900
H151	H15	0.324900	0.250900	0.627600
H161	H16	0.191300	0.143400	0.666800
H171	H17	0.265300	0.199900	0.711900
H181	H18	0.138700	0.030200	0.735300
H191	H19	0.307600	0.357200	0.131700
H201	H20	0.249700	0.480200	0.009900
H211	H21	0.074000	0.324900	0.127600
H221	H22	0.047900	0.191300	0.166800
H231	H23	0.065400	0.265300	0.211900
H241	H24	0.108500	0.138700	0.235300
H251	H25	0.049600	0.692400	0.131700
H261	H26	0.230500	0.750300	0.009900
H271	H27	0.250900	0.926000	0.127600
H281	H28	0.143400	0.952100	0.166800
H291	H29	0.199900	0.934600	0.211900
H301	H30	0.030200	0.891500	0.235300
H311	H31	0.642800	0.950400	0.131700
H321	H32	0.519800	0.769500	0.009900
H331	H33	0.675100	0.749100	0.127600
H341	H34	0.808700	0.856600	0.166800
H351	H35	0.734700	0.800100	0.211900
H361	H36	0.861300	0.969800	0.235300
H371	H37	0.049600	0.357200	0.368300
H381	H38	0.230500	0.480200	0.490100
H391	H39	0.250900	0.324900	0.372400
H401	H40	0.143400	0.191300	0.333200
H411	H41	0.199900	0.265300	0.288100
H421	H42	0.030200	0.138700	0.264700
H431	H43	0.642800	0.692400	0.368300
H441	H44	0.519800	0.750300	0.490100
H451	H45	0.675100	0.926000	0.372400
H461	H46	0.808700	0.952100	0.333200
H471	H47	0.734700	0.934600	0.288100
H481	H48	0.861300	0.891500	0.264700
H491	H49	0.307600	0.950400	0.368300
H501	H50	0.249700	0.769500	0.490100
H511	H51	0.074000	0.749100	0.372400
H521	H52	0.047900	0.856600	0.333200
H531	H53	0.065400	0.800100	0.288100
H541	H54	0.108500	0.969800	0.264700
H551	H55	0.950400	0.642800	0.868300
H561	H56	0.769500	0.519800	0.990100
H571	H57	0.749100	0.675100	0.872400
H581	H58	0.856600	0.808700	0.833200
H591	H59	0.800100	0.734700	0.788100
H601	H60	0.969800	0.861300	0.764700
H611	H61	0.357200	0.307600	0.868300
H621	H62	0.480200	0.249700	0.990100
H631	H63	0.324900	0.074000	0.872400
H641	H64	0.191300	0.047900	0.833200
H651	H65	0.265300	0.065400	0.788100
H661	H66	0.138700	0.108500	0.764700
H671	H67	0.692400	0.049600	0.868300
H681	H68	0.750300	0.230500	0.990100
H691	H69	0.926000	0.250900	0.872400
H701	H70	0.952100	0.143400	0.833200
H711	H71	0.934600	0.199900	0.788100
H721	H72	0.891500	0.030200	0.764700
C11	C1	0.621040	0.534650	0.544360
C21	C2	0.904490	0.567760	0.540230
C31	C3	0.732040	0.631330	0.614200
C41	C4	0.708050	0.574910	0.568130
C51	C5	0.765570	0.556400	0.542620
C61	C6	0.845590	0.592550	0.566120
C71	C7	0.871200	0.650530	0.612200
C81	C8	0.813270	0.671450	0.635170
C91	C9	0.915160	0.772820	0.698590
C101	C10	0.913610	0.378960	0.544360
C111	C11	0.663270	0.095510	0.540230
C121	C12	0.899290	0.267960	0.614200
C131	C13	0.866860	0.291950	0.568130
C141	C14	0.790830	0.234430	0.542620
C151	C15	0.746960	0.154410	0.566120
C161	C16	0.779330	0.128800	0.612200
C171	C17	0.858180	0.186730	0.635170
C181	C18	0.857660	0.084840	0.698590
C191	C19	0.465350	0.086390	0.544360
C201	C20	0.432240	0.336730	0.540230
C211	C21	0.368670	0.100710	0.614200
C221	C22	0.425090	0.133140	0.568130
C231	C23	0.443600	0.209170	0.542620
C241	C24	0.407450	0.253040	0.566120
C251	C25	0.349470	0.220670	0.612200
C261	C26	0.328550	0.141820	0.635170
C271	C27	0.227180	0.142340	0.698590
C281	C28	0.378960	0.465350	0.044360
C291	C29	0.095510	0.432240	0.040230
C301	C30	0.267960	0.368670	0.114200
C311	C31	0.291950	0.425090	0.068130
C321	C32	0.234430	0.443600	0.042620
C331	C33	0.154410	0.407450	0.066120
C341	C34	0.128800	0.349470	0.112200
C351	C35	0.186730	0.328550	0.135170
C361	C36	0.084840	0.227180	0.198590
C371	C37	0.086390	0.621040	0.044360
C381	C38	0.336730	0.904490	0.040230
C391	C39	0.100710	0.732040	0.114200
C401	C40	0.133140	0.708050	0.068130
C411	C41	0.209170	0.765570	0.042620
C421	C42	0.253040	0.845590	0.066120
C431	C43	0.220670	0.871200	0.112200
C441	C44	0.141820	0.813270	0.135170
C451	C45	0.142340	0.915160	0.198590
C461	C46	0.534650	0.913610	0.044360
C471	C47	0.567760	0.663270	0.040230
C481	C48	0.631330	0.899290	0.114200
C491	C49	0.574910	0.866860	0.068130
C501	C50	0.556400	0.790830	0.042620
C511	C51	0.592550	0.746960	0.066120
C521	C52	0.650530	0.779330	0.112200
C531	C53	0.671450	0.858180	0.135170
C541	C54	0.772820	0.857660	0.198590
C551	C55	0.086390	0.465350	0.455640
C561	C56	0.336730	0.432240	0.459770
C571	C57	0.100710	0.368670	0.385800
C581	C58	0.133140	0.425090	0.431870
C591	C59	0.209170	0.443600	0.457380
C601	C60	0.253040	0.407450	0.433880
C611	C61	0.220670	0.349470	0.387800
C621	C62	0.141820	0.328550	0.364830
C631	C63	0.142340	0.227180	0.301410
C641	C64	0.534650	0.621040	0.455640
C651	C65	0.567760	0.904490	0.459770
C661	C66	0.631330	0.732040	0.385800
C671	C67	0.574910	0.708050	0.431870
C681	C68	0.556400	0.765570	0.457380
C691	C69	0.592550	0.845590	0.433880
C701	C70	0.650530	0.871200	0.387800
C711	C71	0.671450	0.813270	0.364830
C721	C72	0.772820	0.915160	0.301410
C731	C73	0.378960	0.913610	0.455640
C741	C74	0.095510	0.663270	0.459770
C751	C75	0.267960	0.899290	0.385800
C761	C76	0.291950	0.866860	0.431870
C771	C77	0.234430	0.790830	0.457380
C781	C78	0.154410	0.746960	0.433880
C791	C79	0.128800	0.779330	0.387800
C801	C80	0.186730	0.858180	0.364830
C811	C81	0.084840	0.857660	0.301410
C821	C82	0.913610	0.534650	0.955640
C831	C83	0.663270	0.567760	0.959770
C841	C84	0.899290	0.631330	0.885800
C851	C85	0.866860	0.574910	0.931870
C861	C86	0.790830	0.556400	0.957380
C871	C87	0.746960	0.592550	0.933880
C881	C88	0.779330	0.650530	0.887800
C891	C89	0.858180	0.671450	0.864830
C901	C90	0.857660	0.772820	0.801410
C911	C91	0.465350	0.378960	0.955640
C921	C92	0.432240	0.095510	0.959770
C931	C93	0.368670	0.267960	0.885800
C941	C94	0.425090	0.291950	0.931870
C951	C95	0.443600	0.234430	0.957380
C961	C96	0.407450	0.154410	0.933880
C971	C97	0.349470	0.128800	0.887800
C981	C98	0.328550	0.186730	0.864830
C991	C99	0.227180	0.084840	0.801410
C1001	C100	0.621040	0.086390	0.955640
C1011	C101	0.904490	0.336730	0.959770
C1021	C102	0.732040	0.100710	0.885800
C1031	C103	0.708050	0.133140	0.931870
C1041	C104	0.765570	0.209170	0.957380
C1051	C105	0.845590	0.253040	0.933880
C1061	C106	0.871200	0.220670	0.887800
C1071	C107	0.813270	0.141820	0.864830
C1081	C108	0.915160	0.142340	0.801410
C1091	C109	0.912520	0.825040	0.750000
C1101	C110	0.912520	0.087480	0.750000
C1111	C111	0.174960	0.087480	0.750000
C1121	C112	0.087480	0.174960	0.250000
C1131	C113	0.087480	0.912520	0.250000
C1141	C114	0.825040	0.912520	0.250000
O11	O1	0.967850	0.583640	0.570340
O21	O2	0.884480	0.531960	0.490500
O31	O3	0.567190	0.535570	0.577100
O41	O4	0.609270	0.505120	0.493430
O51	O5	0.830660	0.727520	0.679150
O61	O6	0.615790	0.032150	0.570340
O71	O7	0.647480	0.115520	0.490500
O81	O8	0.968380	0.432810	0.577100
O91	O9	0.895850	0.390730	0.493430
O101	O10	0.896860	0.169340	0.679150
O111	O11	0.416360	0.384210	0.570340
O121	O12	0.468040	0.352520	0.490500
O131	O13	0.464430	0.031620	0.577100
O141	O14	0.494880	0.104150	0.493430
O151	O15	0.272480	0.103140	0.679150
O161	O16	0.032150	0.416360	0.070340
O171	O17	0.115520	0.468040	0.990500
O181	O18	0.432810	0.464430	0.077100
O191	O19	0.390730	0.494880	0.993430
O201	O20	0.169340	0.272480	0.179150
O211	O21	0.384210	0.967850	0.070340
O221	O22	0.352520	0.884480	0.990500
O231	O23	0.031620	0.567190	0.077100
O241	O24	0.104150	0.609270	0.993430
O251	O25	0.103140	0.830660	0.179150
O261	O26	0.583640	0.615790	0.070340
O271	O27	0.531960	0.647480	0.990500
O281	O28	0.535570	0.968380	0.077100
O291	O29	0.505120	0.895850	0.993430
O301	O30	0.727520	0.896860	0.179150
O311	O31	0.384210	0.416360	0.429660
O321	O32	0.352520	0.468040	0.509500
O331	O33	0.031620	0.464430	0.422900
O341	O34	0.104150	0.494880	0.506570
O351	O35	0.103140	0.272480	0.320850
O361	O36	0.583640	0.967850	0.429660
O371	O37	0.531960	0.884480	0.509500
O381	O38	0.535570	0.567190	0.422900
O391	O39	0.505120	0.609270	0.506570
O401	O40	0.727520	0.830660	0.320850
O411	O41	0.032150	0.615790	0.429660
O421	O42	0.115520	0.647480	0.509500
O431	O43	0.432810	0.968380	0.422900
O441	O44	0.390730	0.895850	0.506570
O451	O45	0.169340	0.896860	0.320850
O461	O46	0.615790	0.583640	0.929660
O471	O47	0.647480	0.531960	0.009500
O481	O48	0.968380	0.535570	0.922900
O491	O49	0.895850	0.505120	0.006570
O501	O50	0.896860	0.727520	0.820850
O511	O51	0.416360	0.032150	0.929660
O521	O52	0.468040	0.115520	0.009500
O531	O53	0.464430	0.432810	0.922900
O541	O54	0.494880	0.390730	0.006570
O551	O55	0.272480	0.169340	0.820850
O561	O56	0.967850	0.384210	0.929660
O571	O57	0.884480	0.352520	0.009500
O581	O58	0.567190	0.031620	0.922900
O591	O59	0.609270	0.104150	0.006570
O601	O60	0.830660	0.103140	0.820850
