data_MAFZIE_charged_PM
_symmetry_space_group_name_H-M	'P1'
_cell_length_a	13.707000
_cell_length_b	17.121000
_cell_length_c	36.018000
_cell_angle_alpha	90.000000
_cell_angle_beta	90.000000
_cell_angle_gamma	90.000000
_symmetry_Int_Tables_number 1

loop_
_symmetry_equiv_pos_as_xyz
'x,y,z'

loop_
_atom_site_label
_atom_site_type_symbol
_atom_site_fract_x
_atom_site_fract_y
_atom_site_fract_z
Zn11	Zn1	0.135360	0.364940	0.153100
Zn21	Zn2	0.986590	0.352770	0.072170
Zn31	Zn3	0.926310	0.158340	0.127950
Zn41	Zn4	0.364640	0.635060	0.653100
Zn51	Zn5	0.513410	0.647230	0.572170
Zn61	Zn6	0.573690	0.841660	0.627950
Zn71	Zn7	0.864640	0.864940	0.346900
Zn81	Zn8	0.013410	0.852770	0.427830
Zn91	Zn9	0.073690	0.658340	0.372050
Zn101	Zn10	0.635360	0.135060	0.846900
Zn111	Zn11	0.486590	0.147230	0.927830
Zn121	Zn12	0.426310	0.341660	0.872050
Zn131	Zn13	0.864640	0.635060	0.846900
Zn141	Zn14	0.013410	0.647230	0.927830
Zn151	Zn15	0.073690	0.841660	0.872050
Zn161	Zn16	0.635360	0.364940	0.346900
Zn171	Zn17	0.486590	0.352770	0.427830
Zn181	Zn18	0.426310	0.158340	0.372050
Zn191	Zn19	0.135360	0.135060	0.653100
Zn201	Zn20	0.986590	0.147230	0.572170
Zn211	Zn21	0.926310	0.341660	0.627950
Zn221	Zn22	0.364640	0.864940	0.153100
Zn231	Zn23	0.513410	0.852770	0.072170
Zn241	Zn24	0.573690	0.658340	0.127950
P11	P1	0.902070	0.332600	0.148600
P21	P2	0.124990	0.217810	0.103060
P31	P3	0.597930	0.667400	0.648600
P41	P4	0.375010	0.782190	0.603060
P51	P5	0.097930	0.832600	0.351400
P61	P6	0.875010	0.717810	0.396940
P71	P7	0.402070	0.167400	0.851400
P81	P8	0.624990	0.282190	0.896940
P91	P9	0.097930	0.667400	0.851400
P101	P10	0.875010	0.782190	0.896940
P111	P11	0.402070	0.332600	0.351400
P121	P12	0.624990	0.217810	0.396940
P131	P13	0.902070	0.167400	0.648600
P141	P14	0.124990	0.282190	0.603060
P151	P15	0.597930	0.832600	0.148600
P161	P16	0.375010	0.717810	0.103060
H11	H1	0.849400	0.317700	0.223100
H21	H2	0.646600	0.479400	0.243600
H31	H3	0.762000	0.458800	0.141700
H41	H4	0.230800	0.235100	0.034400
H51	H5	0.414300	0.052300	0.031200
H61	H6	0.230600	0.076100	0.116400
H71	H7	0.650600	0.682300	0.723100
H81	H8	0.853400	0.520600	0.743600
H91	H9	0.738000	0.541200	0.641700
H101	H10	0.269200	0.764900	0.534400
H111	H11	0.085700	0.947700	0.531200
H121	H12	0.269400	0.923900	0.616400
H131	H13	0.150600	0.817700	0.276900
H141	H14	0.353400	0.979400	0.256400
H151	H15	0.238000	0.958800	0.358300
H161	H16	0.769200	0.735100	0.465600
H171	H17	0.585700	0.552300	0.468800
H181	H18	0.769400	0.576100	0.383600
H191	H19	0.349400	0.182300	0.776900
H201	H20	0.146600	0.020600	0.756400
H211	H21	0.262000	0.041200	0.858300
H221	H22	0.730800	0.264900	0.965600
H231	H23	0.914300	0.447700	0.968800
H241	H24	0.730600	0.423900	0.883600
H251	H25	0.150600	0.682300	0.776900
H261	H26	0.353400	0.520600	0.756400
H271	H27	0.238000	0.541200	0.858300
H281	H28	0.769200	0.764900	0.965600
H291	H29	0.585700	0.947700	0.968800
H301	H30	0.769400	0.923900	0.883600
H311	H31	0.349400	0.317700	0.276900
H321	H32	0.146600	0.479400	0.256400
H331	H33	0.262000	0.458800	0.358300
H341	H34	0.730800	0.235100	0.465600
H351	H35	0.914300	0.052300	0.468800
H361	H36	0.730600	0.076100	0.383600
H371	H37	0.849400	0.182300	0.723100
H381	H38	0.646600	0.020600	0.743600
H391	H39	0.762000	0.041200	0.641700
H401	H40	0.230800	0.264900	0.534400
H411	H41	0.414300	0.447700	0.531200
H421	H42	0.230600	0.423900	0.616400
H431	H43	0.650600	0.817700	0.223100
H441	H44	0.853400	0.979400	0.243600
H451	H45	0.738000	0.958800	0.141700
H461	H46	0.269200	0.735100	0.034400
H471	H47	0.085700	0.552300	0.031200
H481	H48	0.269400	0.576100	0.116400
C11	C1	0.817900	0.382400	0.178200
C21	C2	0.811100	0.359100	0.215000
C31	C3	0.749400	0.395300	0.239800
C41	C4	0.689500	0.455100	0.227200
C51	C5	0.693200	0.478900	0.190600
C61	C6	0.758500	0.442400	0.166300
C71	C7	0.745200	0.368200	0.279700
C81	C8	0.631000	0.545600	0.177800
C91	C9	0.218100	0.163100	0.079200
C101	C10	0.255400	0.189700	0.045000
C111	C11	0.329500	0.147800	0.027100
C121	C12	0.365000	0.080100	0.043000
C131	C13	0.328100	0.052900	0.076500
C141	C14	0.255400	0.094500	0.094000
C151	C15	0.370100	0.175000	0.990400
C161	C16	0.365700	0.978700	0.092200
C171	C17	0.682100	0.617600	0.678200
C181	C18	0.688900	0.640900	0.715000
C191	C19	0.750600	0.604700	0.739800
C201	C20	0.810500	0.544900	0.727200
C211	C21	0.806800	0.521100	0.690600
C221	C22	0.741500	0.557600	0.666300
C231	C23	0.754800	0.631800	0.779700
C241	C24	0.869000	0.454400	0.677800
C251	C25	0.281900	0.836900	0.579200
C261	C26	0.244600	0.810300	0.545000
C271	C27	0.170500	0.852200	0.527100
C281	C28	0.135000	0.919900	0.543000
C291	C29	0.171900	0.947100	0.576500
C301	C30	0.244600	0.905500	0.594000
C311	C31	0.129900	0.825000	0.490400
C321	C32	0.134300	0.021300	0.592200
C331	C33	0.182100	0.882400	0.321800
C341	C34	0.188900	0.859100	0.285000
C351	C35	0.250600	0.895300	0.260200
C361	C36	0.310500	0.955100	0.272800
C371	C37	0.306800	0.978900	0.309400
C381	C38	0.241500	0.942400	0.333700
C391	C39	0.254800	0.868200	0.220300
C401	C40	0.369000	0.045600	0.322200
C411	C41	0.781900	0.663100	0.420800
C421	C42	0.744600	0.689700	0.455000
C431	C43	0.670500	0.647800	0.472900
C441	C44	0.635000	0.580100	0.457000
C451	C45	0.671900	0.552900	0.423500
C461	C46	0.744600	0.594500	0.406000
C471	C47	0.629900	0.675000	0.509600
C481	C48	0.634300	0.478700	0.407800
C491	C49	0.317900	0.117600	0.821800
C501	C50	0.311100	0.140900	0.785000
C511	C51	0.249400	0.104700	0.760200
C521	C52	0.189500	0.044900	0.772800
C531	C53	0.193200	0.021100	0.809400
C541	C54	0.258500	0.057600	0.833700
C551	C55	0.245200	0.131800	0.720300
C561	C56	0.131000	0.954400	0.822200
C571	C57	0.718100	0.336900	0.920800
C581	C58	0.755400	0.310300	0.955000
C591	C59	0.829500	0.352200	0.972900
C601	C60	0.865000	0.419900	0.957000
C611	C61	0.828100	0.447100	0.923500
C621	C62	0.755400	0.405500	0.906000
C631	C63	0.870100	0.325000	0.009600
C641	C64	0.865700	0.521300	0.907800
C651	C65	0.182100	0.617600	0.821800
C661	C66	0.188900	0.640900	0.785000
C671	C67	0.250600	0.604700	0.760200
C681	C68	0.310500	0.544900	0.772800
C691	C69	0.306800	0.521100	0.809400
C701	C70	0.241500	0.557600	0.833700
C711	C71	0.254800	0.631800	0.720300
C721	C72	0.369000	0.454400	0.822200
C731	C73	0.781900	0.836900	0.920800
C741	C74	0.744600	0.810300	0.955000
C751	C75	0.670500	0.852200	0.972900
C761	C76	0.635000	0.919900	0.957000
C771	C77	0.671900	0.947100	0.923500
C781	C78	0.744600	0.905500	0.906000
C791	C79	0.629900	0.825000	0.009600
C801	C80	0.634300	0.021300	0.907800
C811	C81	0.317900	0.382400	0.321800
C821	C82	0.311100	0.359100	0.285000
C831	C83	0.249400	0.395300	0.260200
C841	C84	0.189500	0.455100	0.272800
C851	C85	0.193200	0.478900	0.309400
C861	C86	0.258500	0.442400	0.333700
C871	C87	0.245200	0.368200	0.220300
C881	C88	0.131000	0.545600	0.322200
C891	C89	0.718100	0.163100	0.420800
C901	C90	0.755400	0.189700	0.455000
C911	C91	0.829500	0.147800	0.472900
C921	C92	0.865000	0.080100	0.457000
C931	C93	0.828100	0.052900	0.423500
C941	C94	0.755400	0.094500	0.406000
C951	C95	0.870100	0.175000	0.509600
C961	C96	0.865700	0.978700	0.407800
C971	C97	0.817900	0.117600	0.678200
C981	C98	0.811100	0.140900	0.715000
C991	C99	0.749400	0.104700	0.739800
C1001	C100	0.689500	0.044900	0.727200
C1011	C101	0.693200	0.021100	0.690600
C1021	C102	0.758500	0.057600	0.666300
C1031	C103	0.745200	0.131800	0.779700
C1041	C104	0.631000	0.954400	0.677800
C1051	C105	0.218100	0.336900	0.579200
C1061	C106	0.255400	0.310300	0.545000
C1071	C107	0.329500	0.352200	0.527100
C1081	C108	0.365000	0.419900	0.543000
C1091	C109	0.328100	0.447100	0.576500
C1101	C110	0.255400	0.405500	0.594000
C1111	C111	0.370100	0.325000	0.490400
C1121	C112	0.365700	0.521300	0.592200
C1131	C113	0.682100	0.882400	0.178200
C1141	C114	0.688900	0.859100	0.215000
C1151	C115	0.750600	0.895300	0.239800
C1161	C116	0.810500	0.955100	0.227200
C1171	C117	0.806800	0.978900	0.190600
C1181	C118	0.741500	0.942400	0.166300
C1191	C119	0.754800	0.868200	0.279700
C1201	C120	0.869000	0.045600	0.177800
C1211	C121	0.281900	0.663100	0.079200
C1221	C122	0.244600	0.689700	0.045000
C1231	C123	0.170500	0.647800	0.027100
C1241	C124	0.135000	0.580100	0.043000
C1251	C125	0.171900	0.552900	0.076500
C1261	C126	0.244600	0.594500	0.094000
C1271	C127	0.129900	0.675000	0.990400
C1281	C128	0.134300	0.478700	0.092200
O11	O1	0.000800	0.347300	0.164040
O21	O2	0.873600	0.247900	0.151500
O31	O3	0.888300	0.363800	0.109960
O41	O4	0.802400	0.319200	0.289600
O51	O5	0.681500	0.398700	0.299690
O61	O6	0.578500	0.580000	0.199300
O71	O7	0.637300	0.563100	0.143670
O81	O8	0.181700	0.272700	0.128660
O91	O9	0.065300	0.261800	0.074590
O101	O10	0.065100	0.159300	0.124530
O111	O11	0.340500	0.237100	0.976900
O121	O12	0.432100	0.132300	0.976190
O131	O13	0.429000	0.944700	0.073890
O141	O14	0.334400	0.956200	0.122860
O151	O15	0.869600	0.154800	0.075900
O161	O16	0.499200	0.652700	0.664040
O171	O17	0.626400	0.752100	0.651500
O181	O18	0.611700	0.636200	0.609960
O191	O19	0.697600	0.680800	0.789600
O201	O20	0.818500	0.601300	0.799690
O211	O21	0.921500	0.420000	0.699300
O221	O22	0.862700	0.436900	0.643670
O231	O23	0.318300	0.727300	0.628660
O241	O24	0.434700	0.738200	0.574590
O251	O25	0.434900	0.840700	0.624530
O261	O26	0.159500	0.762900	0.476900
O271	O27	0.067900	0.867700	0.476190
O281	O28	0.071000	0.055300	0.573890
O291	O29	0.165600	0.043800	0.622860
O301	O30	0.630400	0.845200	0.575900
O311	O31	0.999200	0.847300	0.335960
O321	O32	0.126400	0.747900	0.348500
O331	O33	0.111700	0.863800	0.390040
O341	O34	0.197600	0.819200	0.210400
O351	O35	0.318500	0.898700	0.200310
O361	O36	0.421500	0.080000	0.300700
O371	O37	0.362700	0.063100	0.356330
O381	O38	0.818300	0.772700	0.371340
O391	O39	0.934700	0.761800	0.425410
O401	O40	0.934900	0.659300	0.375470
O411	O41	0.659500	0.737100	0.523100
O421	O42	0.567900	0.632300	0.523810
O431	O43	0.571000	0.444700	0.426110
O441	O44	0.665600	0.456200	0.377140
O451	O45	0.130400	0.654800	0.424100
O461	O46	0.500800	0.152700	0.835960
O471	O47	0.373600	0.252100	0.848500
O481	O48	0.388300	0.136200	0.890040
O491	O49	0.302400	0.180800	0.710400
O501	O50	0.181500	0.101300	0.700310
O511	O51	0.078500	0.920000	0.800700
O521	O52	0.137300	0.936900	0.856330
O531	O53	0.681700	0.227300	0.871340
O541	O54	0.565300	0.238200	0.925410
O551	O55	0.565100	0.340700	0.875470
O561	O56	0.840500	0.262900	0.023100
O571	O57	0.932100	0.367700	0.023810
O581	O58	0.929000	0.555300	0.926110
O591	O59	0.834400	0.543800	0.877140
O601	O60	0.369600	0.345200	0.924100
O611	O61	0.999200	0.652700	0.835960
O621	O62	0.126400	0.752100	0.848500
O631	O63	0.111700	0.636200	0.890040
O641	O64	0.197600	0.680800	0.710400
O651	O65	0.318500	0.601300	0.700310
O661	O66	0.421500	0.420000	0.800700
O671	O67	0.362700	0.436900	0.856330
O681	O68	0.818300	0.727300	0.871340
O691	O69	0.934700	0.738200	0.925410
O701	O70	0.934900	0.840700	0.875470
O711	O71	0.659500	0.762900	0.023100
O721	O72	0.567900	0.867700	0.023810
O731	O73	0.571000	0.055300	0.926110
O741	O74	0.665600	0.043800	0.877140
O751	O75	0.130400	0.845200	0.924100
O761	O76	0.500800	0.347300	0.335960
O771	O77	0.373600	0.247900	0.348500
O781	O78	0.388300	0.363800	0.390040
O791	O79	0.302400	0.319200	0.210400
O801	O80	0.181500	0.398700	0.200310
O811	O81	0.078500	0.580000	0.300700
O821	O82	0.137300	0.563100	0.356330
O831	O83	0.681700	0.272700	0.371340
O841	O84	0.565300	0.261800	0.425410
O851	O85	0.565100	0.159300	0.375470
O861	O86	0.840500	0.237100	0.523100
O871	O87	0.932100	0.132300	0.523810
O881	O88	0.929000	0.944700	0.426110
O891	O89	0.834400	0.956200	0.377140
O901	O90	0.369600	0.154800	0.424100
O911	O91	0.000800	0.152700	0.664040
O921	O92	0.873600	0.252100	0.651500
O931	O93	0.888300	0.136200	0.609960
O941	O94	0.802400	0.180800	0.789600
O951	O95	0.681500	0.101300	0.799690
O961	O96	0.578500	0.920000	0.699300
O971	O97	0.637300	0.936900	0.643670
O981	O98	0.181700	0.227300	0.628660
O991	O99	0.065300	0.238200	0.574590
O1001	O100	0.065100	0.340700	0.624530
O1011	O101	0.340500	0.262900	0.476900
O1021	O102	0.432100	0.367700	0.476190
O1031	O103	0.429000	0.555300	0.573890
O1041	O104	0.334400	0.543800	0.622860
O1051	O105	0.869600	0.345200	0.575900
O1061	O106	0.499200	0.847300	0.164040
O1071	O107	0.626400	0.747900	0.151500
O1081	O108	0.611700	0.863800	0.109960
O1091	O109	0.697600	0.819200	0.289600
O1101	O110	0.818500	0.898700	0.299690
O1111	O111	0.921500	0.080000	0.199300
O1121	O112	0.862700	0.063100	0.143670
O1131	O113	0.318300	0.772700	0.128660
O1141	O114	0.434700	0.761800	0.074590
O1151	O115	0.434900	0.659300	0.124530
O1161	O116	0.159500	0.737100	0.976900
O1171	O117	0.067900	0.632300	0.976190
O1181	O118	0.071000	0.444700	0.073890
O1191	O119	0.165600	0.456200	0.122860
O1201	O120	0.630400	0.654800	0.075900
H491	H49	0.540000	0.591200	0.302600
H501	H50	0.461400	0.534900	0.319400
H511	H51	0.516100	0.512000	0.282800
H521	H52	0.373900	0.630200	0.290400
H531	H53	0.363700	0.555900	0.265600
H541	H54	0.310800	0.691500	0.236600
H551	H55	0.382800	0.700100	0.202900
H561	H56	0.428000	0.749400	0.290600
H571	H57	0.514400	0.801000	0.276000
H581	H58	0.413100	0.803100	0.255800
H591	H59	0.490700	0.733200	0.221700
H601	H60	0.553800	0.699400	0.253700
H611	H61	0.276300	0.614900	0.182500
H621	H62	0.362600	0.561600	0.195700
H631	H63	0.270200	0.572100	0.220900
C1291	C129	0.489300	0.554600	0.296800
C1301	C130	0.409300	0.595700	0.273800
C1311	C131	0.358400	0.664200	0.221500
C1321	C132	0.458700	0.770500	0.268800
C1331	C133	0.487400	0.711900	0.246600
C1341	C134	0.313100	0.597600	0.203700
N11	N1	0.435300	0.637800	0.243800
H641	H64	0.960000	0.408800	0.802600
H651	H65	0.038600	0.465100	0.819400
H661	H66	0.983900	0.488000	0.782800
H671	H67	0.126100	0.369800	0.790400
H681	H68	0.136300	0.444100	0.765600
H691	H69	0.189200	0.308500	0.736600
H701	H70	0.117200	0.299900	0.702900
H711	H71	0.072000	0.250600	0.790600
H721	H72	0.985600	0.199000	0.776000
H731	H73	0.086900	0.196900	0.755800
H741	H74	0.009300	0.266800	0.721700
H751	H75	0.946200	0.300600	0.753700
H761	H76	0.223700	0.385100	0.682500
H771	H77	0.137400	0.438400	0.695700
H781	H78	0.229800	0.427900	0.720900
C1351	C135	0.010700	0.445400	0.796800
C1361	C136	0.090700	0.404300	0.773800
C1371	C137	0.141600	0.335800	0.721500
C1381	C138	0.041300	0.229500	0.768800
C1391	C139	0.012600	0.288100	0.746600
C1401	C140	0.186900	0.402400	0.703700
N21	N2	0.064700	0.362200	0.743800
H791	H79	0.460000	0.091200	0.197400
H801	H80	0.538600	0.034900	0.180600
H811	H81	0.483900	0.012000	0.217200
H821	H82	0.626100	0.130200	0.209600
H831	H83	0.636300	0.055900	0.234400
H841	H84	0.689200	0.191500	0.263400
H851	H85	0.617200	0.200100	0.297100
H861	H86	0.572000	0.249400	0.209400
H871	H87	0.485600	0.301000	0.224000
H881	H88	0.586900	0.303100	0.244200
H891	H89	0.509300	0.233200	0.278300
H901	H90	0.446200	0.199400	0.246300
H911	H91	0.723700	0.114900	0.317500
H921	H92	0.637400	0.061600	0.304300
H931	H93	0.729800	0.072100	0.279100
C1411	C141	0.510700	0.054600	0.203200
C1421	C142	0.590700	0.095700	0.226200
C1431	C143	0.641600	0.164200	0.278500
C1441	C144	0.541300	0.270500	0.231200
C1451	C145	0.512600	0.211900	0.253400
C1461	C146	0.686900	0.097600	0.296300
N31	N3	0.564700	0.137800	0.256200
H941	H94	0.040000	0.908800	0.697400
H951	H95	0.961400	0.965100	0.680600
H961	H96	0.016100	0.988000	0.717200
H971	H97	0.873900	0.869800	0.709600
H981	H98	0.863700	0.944100	0.734400
H991	H99	0.810800	0.808500	0.763400
H1001	H100	0.882800	0.799900	0.797100
H1011	H101	0.928000	0.750600	0.709400
H1021	H102	0.014400	0.699000	0.724000
H1031	H103	0.913100	0.696900	0.744200
H1041	H104	0.990700	0.766800	0.778300
H1051	H105	0.053800	0.800600	0.746300
H1061	H106	0.776300	0.885100	0.817500
H1071	H107	0.862600	0.938400	0.804300
H1081	H108	0.770200	0.927900	0.779100
C1471	C147	0.989300	0.945400	0.703200
C1481	C148	0.909300	0.904300	0.726200
C1491	C149	0.858400	0.835800	0.778500
C1501	C150	0.958700	0.729500	0.731200
C1511	C151	0.987400	0.788100	0.753400
C1521	C152	0.813100	0.902400	0.796300
N41	N4	0.935300	0.862200	0.756200
H1091	H109	0.460000	0.408800	0.697400
H1101	H110	0.538600	0.465100	0.680600
H1111	H111	0.483900	0.488000	0.717200
H1121	H112	0.626100	0.369800	0.709600
H1131	H113	0.636300	0.444100	0.734400
H1141	H114	0.689200	0.308500	0.763400
H1151	H115	0.617200	0.299900	0.797100
H1161	H116	0.572000	0.250600	0.709400
H1171	H117	0.485600	0.199000	0.724000
H1181	H118	0.586900	0.196900	0.744200
H1191	H119	0.509300	0.266800	0.778300
H1201	H120	0.446200	0.300600	0.746300
H1211	H121	0.723700	0.385100	0.817500
H1221	H122	0.637400	0.438400	0.804300
H1231	H123	0.729800	0.427900	0.779100
C1531	C153	0.510700	0.445400	0.703200
C1541	C154	0.590700	0.404300	0.726200
C1551	C155	0.641600	0.335800	0.778500
C1561	C156	0.541300	0.229500	0.731200
C1571	C157	0.512600	0.288100	0.753400
C1581	C158	0.686900	0.402400	0.796300
N51	N5	0.564700	0.362200	0.756200
H1241	H124	0.040000	0.591200	0.197400
H1251	H125	0.961400	0.534900	0.180600
H1261	H126	0.016100	0.512000	0.217200
H1271	H127	0.873900	0.630200	0.209600
H1281	H128	0.863700	0.555900	0.234400
H1291	H129	0.810800	0.691500	0.263400
H1301	H130	0.882800	0.700100	0.297100
H1311	H131	0.928000	0.749400	0.209400
H1321	H132	0.014400	0.801000	0.224000
H1331	H133	0.913100	0.803100	0.244200
H1341	H134	0.990700	0.733200	0.278300
H1351	H135	0.053800	0.699400	0.246300
H1361	H136	0.776300	0.614900	0.317500
H1371	H137	0.862600	0.561600	0.304300
H1381	H138	0.770200	0.572100	0.279100
C1591	C159	0.989300	0.554600	0.203200
C1601	C160	0.909300	0.595700	0.226200
C1611	C161	0.858400	0.664200	0.278500
C1621	C162	0.958700	0.770500	0.231200
C1631	C163	0.987400	0.711900	0.253400
C1641	C164	0.813100	0.597600	0.296300
N61	N6	0.935300	0.637800	0.256200
H1391	H139	0.540000	0.908800	0.802600
H1401	H140	0.461400	0.965100	0.819400
H1411	H141	0.516100	0.988000	0.782800
H1421	H142	0.373900	0.869800	0.790400
H1431	H143	0.363700	0.944100	0.765600
H1441	H144	0.310800	0.808500	0.736600
H1451	H145	0.382800	0.799900	0.702900
H1461	H146	0.428000	0.750600	0.790600
H1471	H147	0.514400	0.699000	0.776000
H1481	H148	0.413100	0.696900	0.755800
H1491	H149	0.490700	0.766800	0.721700
H1501	H150	0.553800	0.800600	0.753700
H1511	H151	0.276300	0.885100	0.682500
H1521	H152	0.362600	0.938400	0.695700
H1531	H153	0.270200	0.927900	0.720900
C1651	C165	0.489300	0.945400	0.796800
C1661	C166	0.409300	0.904300	0.773800
C1671	C167	0.358400	0.835800	0.721500
C1681	C168	0.458700	0.729500	0.768800
C1691	C169	0.487400	0.788100	0.746600
C1701	C170	0.313100	0.902400	0.703700
N71	N7	0.435300	0.862200	0.743800
H1541	H154	0.960000	0.091200	0.302600
H1551	H155	0.038600	0.034900	0.319400
H1561	H156	0.983900	0.012000	0.282800
H1571	H157	0.126100	0.130200	0.290400
H1581	H158	0.136300	0.055900	0.265600
H1591	H159	0.189200	0.191500	0.236600
H1601	H160	0.117200	0.200100	0.202900
H1611	H161	0.072000	0.249400	0.290600
H1621	H162	0.985600	0.301000	0.276000
H1631	H163	0.086900	0.303100	0.255800
H1641	H164	0.009300	0.233200	0.221700
H1651	H165	0.946200	0.199400	0.253700
H1661	H166	0.223700	0.114900	0.182500
H1671	H167	0.137400	0.061600	0.195700
H1681	H168	0.229800	0.072100	0.220900
C1711	C171	0.010700	0.054600	0.296800
C1721	C172	0.090700	0.095700	0.273800
C1731	C173	0.141600	0.164200	0.221500
C1741	C174	0.041300	0.270500	0.268800
C1751	C175	0.012600	0.211900	0.246600
C1761	C176	0.186900	0.097600	0.203700
N81	N8	0.064700	0.137800	0.243800
