data_MAGBIH_clean_PM
_symmetry_space_group_name_H-M	'P1'
_cell_length_a	28.540000
_cell_length_b	12.983000
_cell_length_c	15.834000
_cell_angle_alpha	90.000000
_cell_angle_beta	106.104000
_cell_angle_gamma	90.000000
_symmetry_Int_Tables_number 1

loop_
_symmetry_equiv_pos_as_xyz
'x,y,z'

loop_
_atom_site_label
_atom_site_type_symbol
_atom_site_fract_x
_atom_site_fract_y
_atom_site_fract_z
Zn11	Zn1	0.318110	0.363950	0.082440
Zn21	Zn2	0.306890	0.109050	0.067750
C11	C1	0.419650	0.211500	0.002600
C21	C2	0.430760	0.115400	0.974100
H11	H1	0.430700	0.058100	0.009300
C31	C3	0.441840	0.102600	0.895400
C41	C4	0.440200	0.186800	0.842600
H21	H2	0.447100	0.179000	0.788900
C51	C5	0.428600	0.283300	0.867700
C61	C6	0.418230	0.294500	0.947800
H31	H3	0.410200	0.359200	0.964700
C71	C7	0.455400	0.997400	0.868700
C81	C8	0.427800	0.374000	0.810400
C91	C9	0.286220	0.253100	0.797400
C101	C10	0.288400	0.167300	0.747200
H41	H4	0.283600	0.102200	0.767900
C111	C11	0.297620	0.177300	0.666000
C121	C12	0.303910	0.274500	0.634800
H51	H5	0.309500	0.281600	0.579900
C131	C13	0.301950	0.361100	0.684500
C141	C14	0.292730	0.349800	0.764800
H61	H6	0.290800	0.408000	0.797900
C151	C15	0.300830	0.083700	0.612700
C161	C16	0.309670	0.467500	0.653700
O11	O1	0.458560	0.211600	0.175700
O21	O2	0.386660	0.325300	0.117600
O31	O3	0.376230	0.129700	0.116700
O41	O4	0.449380	0.920100	0.908900
O51	O5	0.472730	0.997000	0.804200
O61	O6	0.433560	0.351800	0.733700
O71	O7	0.423100	0.460500	0.832300
O81	O8	0.298340	0.337000	0.955010
O91	O9	0.288500	0.141400	0.942770
O101	O10	0.217450	0.258300	0.884730
O111	O11	0.288760	0.998600	0.639000
O121	O12	0.315440	0.090300	0.546100
O131	O13	0.315930	0.478700	0.578000
O141	O14	0.310610	0.543600	0.701400
P11	P1	0.409040	0.219370	0.109150
P21	P2	0.273310	0.246190	0.902480
H71	H7	0.434000	0.402000	0.698000
Zn31	Zn3	0.818110	0.863950	0.082440
Zn41	Zn4	0.806890	0.609050	0.067750
C171	C17	0.919650	0.711500	0.002600
C181	C18	0.930760	0.615400	0.974100
H81	H8	0.930700	0.558100	0.009300
C191	C19	0.941840	0.602600	0.895400
C201	C20	0.940200	0.686800	0.842600
H91	H9	0.947100	0.679000	0.788900
C211	C21	0.928600	0.783300	0.867700
C221	C22	0.918230	0.794500	0.947800
H101	H10	0.910200	0.859200	0.964700
C231	C23	0.955400	0.497400	0.868700
C241	C24	0.927800	0.874000	0.810400
C251	C25	0.786220	0.753100	0.797400
C261	C26	0.788400	0.667300	0.747200
H111	H11	0.783600	0.602200	0.767900
C271	C27	0.797620	0.677300	0.666000
C281	C28	0.803910	0.774500	0.634800
H121	H12	0.809500	0.781600	0.579900
C291	C29	0.801950	0.861100	0.684500
C301	C30	0.792730	0.849800	0.764800
H131	H13	0.790800	0.908000	0.797900
C311	C31	0.800830	0.583700	0.612700
C321	C32	0.809670	0.967500	0.653700
O151	O15	0.958560	0.711600	0.175700
O161	O16	0.886660	0.825300	0.117600
O171	O17	0.876230	0.629700	0.116700
O181	O18	0.949380	0.420100	0.908900
O191	O19	0.972730	0.497000	0.804200
O201	O20	0.933560	0.851800	0.733700
O211	O21	0.923100	0.960500	0.832300
O221	O22	0.798340	0.837000	0.955010
O231	O23	0.788500	0.641400	0.942770
O241	O24	0.717450	0.758300	0.884730
O251	O25	0.788760	0.498600	0.639000
O261	O26	0.815440	0.590300	0.546100
O271	O27	0.815930	0.978700	0.578000
O281	O28	0.810610	0.043600	0.701400
P31	P3	0.909040	0.719370	0.109150
P41	P4	0.773310	0.746190	0.902480
H141	H14	0.934000	0.902000	0.698000
Zn51	Zn5	0.681890	0.363950	0.417560
Zn61	Zn6	0.693110	0.109050	0.432250
C331	C33	0.580350	0.211500	0.497400
C341	C34	0.569240	0.115400	0.525900
H151	H15	0.569300	0.058100	0.490700
C351	C35	0.558160	0.102600	0.604600
C361	C36	0.559800	0.186800	0.657400
H161	H16	0.552900	0.179000	0.711100
C371	C37	0.571400	0.283300	0.632300
C381	C38	0.581770	0.294500	0.552200
H171	H17	0.589800	0.359200	0.535300
C391	C39	0.544600	0.997400	0.631300
C401	C40	0.572200	0.374000	0.689600
C411	C41	0.713780	0.253100	0.702600
C421	C42	0.711600	0.167300	0.752800
H181	H18	0.716400	0.102200	0.732100
C431	C43	0.702380	0.177300	0.834000
C441	C44	0.696090	0.274500	0.865200
H191	H19	0.690500	0.281600	0.920100
C451	C45	0.698050	0.361100	0.815500
C461	C46	0.707270	0.349800	0.735200
H201	H20	0.709200	0.408000	0.702100
C471	C47	0.699170	0.083700	0.887300
C481	C48	0.690330	0.467500	0.846300
O291	O29	0.541440	0.211600	0.324300
O301	O30	0.613340	0.325300	0.382400
O311	O31	0.623770	0.129700	0.383300
O321	O32	0.550620	0.920100	0.591100
O331	O33	0.527270	0.997000	0.695800
O341	O34	0.566440	0.351800	0.766300
O351	O35	0.576900	0.460500	0.667700
O361	O36	0.701660	0.337000	0.544990
O371	O37	0.711500	0.141400	0.557230
O381	O38	0.782550	0.258300	0.615270
O391	O39	0.711240	0.998600	0.861000
O401	O40	0.684560	0.090300	0.953900
O411	O41	0.684070	0.478700	0.922000
O421	O42	0.689390	0.543600	0.798600
P51	P5	0.590960	0.219370	0.390850
P61	P6	0.726690	0.246190	0.597520
H211	H21	0.566000	0.402000	0.802000
Zn71	Zn7	0.181890	0.863950	0.417560
Zn81	Zn8	0.193110	0.609050	0.432250
C491	C49	0.080350	0.711500	0.497400
C501	C50	0.069240	0.615400	0.525900
H221	H22	0.069300	0.558100	0.490700
C511	C51	0.058160	0.602600	0.604600
C521	C52	0.059800	0.686800	0.657400
H231	H23	0.052900	0.679000	0.711100
C531	C53	0.071400	0.783300	0.632300
C541	C54	0.081770	0.794500	0.552200
H241	H24	0.089800	0.859200	0.535300
C551	C55	0.044600	0.497400	0.631300
C561	C56	0.072200	0.874000	0.689600
C571	C57	0.213780	0.753100	0.702600
C581	C58	0.211600	0.667300	0.752800
H251	H25	0.216400	0.602200	0.732100
C591	C59	0.202380	0.677300	0.834000
C601	C60	0.196090	0.774500	0.865200
H261	H26	0.190500	0.781600	0.920100
C611	C61	0.198050	0.861100	0.815500
C621	C62	0.207270	0.849800	0.735200
H271	H27	0.209200	0.908000	0.702100
C631	C63	0.199170	0.583700	0.887300
C641	C64	0.190330	0.967500	0.846300
O431	O43	0.041440	0.711600	0.324300
O441	O44	0.113340	0.825300	0.382400
O451	O45	0.123770	0.629700	0.383300
O461	O46	0.050620	0.420100	0.591100
O471	O47	0.027270	0.497000	0.695800
O481	O48	0.066440	0.851800	0.766300
O491	O49	0.076900	0.960500	0.667700
O501	O50	0.201660	0.837000	0.544990
O511	O51	0.211500	0.641400	0.557230
O521	O52	0.282550	0.758300	0.615270
O531	O53	0.211240	0.498600	0.861000
O541	O54	0.184560	0.590300	0.953900
O551	O55	0.184070	0.978700	0.922000
O561	O56	0.189390	0.043600	0.798600
P71	P7	0.090960	0.719370	0.390850
P81	P8	0.226690	0.746190	0.597520
H281	H28	0.066000	0.902000	0.802000
Zn91	Zn9	0.681890	0.636050	0.917560
Zn101	Zn10	0.693110	0.890950	0.932250
C651	C65	0.580350	0.788500	0.997400
C661	C66	0.569240	0.884600	0.025900
H291	H29	0.569300	0.941900	0.990700
C671	C67	0.558160	0.897400	0.104600
C681	C68	0.559800	0.813200	0.157400
H301	H30	0.552900	0.821000	0.211100
C691	C69	0.571400	0.716700	0.132300
C701	C70	0.581770	0.705500	0.052200
H311	H31	0.589800	0.640800	0.035300
C711	C71	0.544600	0.002600	0.131300
C721	C72	0.572200	0.626000	0.189600
C731	C73	0.713780	0.746900	0.202600
C741	C74	0.711600	0.832700	0.252800
H321	H32	0.716400	0.897800	0.232100
C751	C75	0.702380	0.822700	0.334000
C761	C76	0.696090	0.725500	0.365200
H331	H33	0.690500	0.718400	0.420100
C771	C77	0.698050	0.638900	0.315500
C781	C78	0.707270	0.650200	0.235200
H341	H34	0.709200	0.592000	0.202100
C791	C79	0.699170	0.916300	0.387300
C801	C80	0.690330	0.532500	0.346300
O571	O57	0.541440	0.788400	0.824300
O581	O58	0.613340	0.674700	0.882400
O591	O59	0.623770	0.870300	0.883300
O601	O60	0.550620	0.079900	0.091100
O611	O61	0.527270	0.003000	0.195800
O621	O62	0.566440	0.648200	0.266300
O631	O63	0.576900	0.539500	0.167700
O641	O64	0.701660	0.663000	0.044990
O651	O65	0.711500	0.858600	0.057230
O661	O66	0.782550	0.741700	0.115270
O671	O67	0.711240	0.001400	0.361000
O681	O68	0.684560	0.909700	0.453900
O691	O69	0.684070	0.521300	0.422000
O701	O70	0.689390	0.456400	0.298600
P91	P9	0.590960	0.780630	0.890850
P101	P10	0.726690	0.753810	0.097520
H351	H35	0.566000	0.598000	0.302000
Zn111	Zn11	0.181890	0.136050	0.917560
Zn121	Zn12	0.193110	0.390950	0.932250
C811	C81	0.080350	0.288500	0.997400
C821	C82	0.069240	0.384600	0.025900
H361	H36	0.069300	0.441900	0.990700
C831	C83	0.058160	0.397400	0.104600
C841	C84	0.059800	0.313200	0.157400
H371	H37	0.052900	0.321000	0.211100
C851	C85	0.071400	0.216700	0.132300
C861	C86	0.081770	0.205500	0.052200
H381	H38	0.089800	0.140800	0.035300
C871	C87	0.044600	0.502600	0.131300
C881	C88	0.072200	0.126000	0.189600
C891	C89	0.213780	0.246900	0.202600
C901	C90	0.211600	0.332700	0.252800
H391	H39	0.216400	0.397800	0.232100
C911	C91	0.202380	0.322700	0.334000
C921	C92	0.196090	0.225500	0.365200
H401	H40	0.190500	0.218400	0.420100
C931	C93	0.198050	0.138900	0.315500
C941	C94	0.207270	0.150200	0.235200
H411	H41	0.209200	0.092000	0.202100
C951	C95	0.199170	0.416300	0.387300
C961	C96	0.190330	0.032500	0.346300
O711	O71	0.041440	0.288400	0.824300
O721	O72	0.113340	0.174700	0.882400
O731	O73	0.123770	0.370300	0.883300
O741	O74	0.050620	0.579900	0.091100
O751	O75	0.027270	0.503000	0.195800
O761	O76	0.066440	0.148200	0.266300
O771	O77	0.076900	0.039500	0.167700
O781	O78	0.201660	0.163000	0.044990
O791	O79	0.211500	0.358600	0.057230
O801	O80	0.282550	0.241700	0.115270
O811	O81	0.211240	0.501400	0.361000
O821	O82	0.184560	0.409700	0.453900
O831	O83	0.184070	0.021300	0.422000
O841	O84	0.189390	0.956400	0.298600
P111	P11	0.090960	0.280630	0.890850
P121	P12	0.226690	0.253810	0.097520
H421	H42	0.066000	0.098000	0.302000
Zn131	Zn13	0.318110	0.636050	0.582440
Zn141	Zn14	0.306890	0.890950	0.567750
C971	C97	0.419650	0.788500	0.502600
C981	C98	0.430760	0.884600	0.474100
H431	H43	0.430700	0.941900	0.509300
C991	C99	0.441840	0.897400	0.395400
C1001	C100	0.440200	0.813200	0.342600
H441	H44	0.447100	0.821000	0.288900
C1011	C101	0.428600	0.716700	0.367700
C1021	C102	0.418230	0.705500	0.447800
H451	H45	0.410200	0.640800	0.464700
C1031	C103	0.455400	0.002600	0.368700
C1041	C104	0.427800	0.626000	0.310400
C1051	C105	0.286220	0.746900	0.297400
C1061	C106	0.288400	0.832700	0.247200
H461	H46	0.283600	0.897800	0.267900
C1071	C107	0.297620	0.822700	0.166000
C1081	C108	0.303910	0.725500	0.134800
H471	H47	0.309500	0.718400	0.079900
C1091	C109	0.301950	0.638900	0.184500
C1101	C110	0.292730	0.650200	0.264800
H481	H48	0.290800	0.592000	0.297900
C1111	C111	0.300830	0.916300	0.112700
C1121	C112	0.309670	0.532500	0.153700
O851	O85	0.458560	0.788400	0.675700
O861	O86	0.386660	0.674700	0.617600
O871	O87	0.376230	0.870300	0.616700
O881	O88	0.449380	0.079900	0.408900
O891	O89	0.472730	0.003000	0.304200
O901	O90	0.433560	0.648200	0.233700
O911	O91	0.423100	0.539500	0.332300
O921	O92	0.298340	0.663000	0.455010
O931	O93	0.288500	0.858600	0.442770
O941	O94	0.217450	0.741700	0.384730
O951	O95	0.288760	0.001400	0.139000
O961	O96	0.315440	0.909700	0.046100
O971	O97	0.315930	0.521300	0.078000
O981	O98	0.310610	0.456400	0.201400
P131	P13	0.409040	0.780630	0.609150
P141	P14	0.273310	0.753810	0.402480
H491	H49	0.434000	0.598000	0.198000
Zn151	Zn15	0.818110	0.136050	0.582440
Zn161	Zn16	0.806890	0.390950	0.567750
C1131	C113	0.919650	0.288500	0.502600
C1141	C114	0.930760	0.384600	0.474100
H501	H50	0.930700	0.441900	0.509300
C1151	C115	0.941840	0.397400	0.395400
C1161	C116	0.940200	0.313200	0.342600
H511	H51	0.947100	0.321000	0.288900
C1171	C117	0.928600	0.216700	0.367700
C1181	C118	0.918230	0.205500	0.447800
H521	H52	0.910200	0.140800	0.464700
C1191	C119	0.955400	0.502600	0.368700
C1201	C120	0.927800	0.126000	0.310400
C1211	C121	0.786220	0.246900	0.297400
C1221	C122	0.788400	0.332700	0.247200
H531	H53	0.783600	0.397800	0.267900
C1231	C123	0.797620	0.322700	0.166000
C1241	C124	0.803910	0.225500	0.134800
H541	H54	0.809500	0.218400	0.079900
C1251	C125	0.801950	0.138900	0.184500
C1261	C126	0.792730	0.150200	0.264800
H551	H55	0.790800	0.092000	0.297900
C1271	C127	0.800830	0.416300	0.112700
C1281	C128	0.809670	0.032500	0.153700
O991	O99	0.958560	0.288400	0.675700
O1001	O100	0.886660	0.174700	0.617600
O1011	O101	0.876230	0.370300	0.616700
O1021	O102	0.949380	0.579900	0.408900
O1031	O103	0.972730	0.503000	0.304200
O1041	O104	0.933560	0.148200	0.233700
O1051	O105	0.923100	0.039500	0.332300
O1061	O106	0.798340	0.163000	0.455010
O1071	O107	0.788500	0.358600	0.442770
O1081	O108	0.717450	0.241700	0.384730
O1091	O109	0.788760	0.501400	0.139000
O1101	O110	0.815440	0.409700	0.046100
O1111	O111	0.815930	0.021300	0.078000
O1121	O112	0.810610	0.956400	0.201400
P151	P15	0.909040	0.280630	0.609150
P161	P16	0.773310	0.253810	0.402480
H561	H56	0.934000	0.098000	0.198000
Zn171	Zn17	0.500000	0.113210	0.250000
Zn181	Zn18	0.000000	0.613210	0.250000
Zn191	Zn19	0.500000	0.886790	0.750000
Zn201	Zn20	0.000000	0.386790	0.750000
