data_MAGBAZ_clean_PM
_symmetry_space_group_name_H-M	'P1'
_cell_length_a	9.866000
_cell_length_b	13.963000
_cell_length_c	15.449000
_cell_angle_alpha	90.000000
_cell_angle_beta	90.000000
_cell_angle_gamma	90.000000
_symmetry_Int_Tables_number 1

loop_
_symmetry_equiv_pos_as_xyz
'x,y,z'

loop_
_atom_site_label
_atom_site_type_symbol
_atom_site_fract_x
_atom_site_fract_y
_atom_site_fract_z
Zn11	Zn1	0.597210	0.904090	0.902280
Zn21	Zn2	0.902790	0.595910	0.402280
Zn31	Zn3	0.402790	0.095910	0.097720
Zn41	Zn4	0.097210	0.404090	0.597720
P11	P1	0.380920	0.070910	0.894680
P21	P2	0.119080	0.429090	0.394680
P31	P3	0.619080	0.929090	0.105320
P41	P4	0.880920	0.570910	0.605320
H11	H1	0.123100	0.971800	0.918200
H21	H2	0.873400	0.089600	0.742100
H31	H3	0.254900	0.186100	0.768000
H41	H4	0.376900	0.528200	0.418200
H51	H5	0.626600	0.410400	0.242100
H61	H6	0.245100	0.313900	0.268000
H71	H7	0.876900	0.028200	0.081800
H81	H8	0.126600	0.910400	0.257900
H91	H9	0.745100	0.813900	0.232000
H101	H10	0.623100	0.471800	0.581800
H111	H11	0.373400	0.589600	0.757900
H121	H12	0.754900	0.686100	0.732000
C11	C1	0.212200	0.075800	0.848100
C21	C2	0.107700	0.015700	0.874000
C31	C3	0.980000	0.019600	0.835200
C41	C4	0.957600	0.086500	0.769000
C51	C5	0.061200	0.148300	0.743300
C61	C6	0.186900	0.143500	0.783900
C71	C7	0.869700	0.950400	0.861600
C81	C8	0.042000	0.219400	0.670400
C91	C9	0.287800	0.424200	0.348100
C101	C10	0.392300	0.484300	0.374000
C111	C11	0.520000	0.480400	0.335200
C121	C12	0.542400	0.413500	0.269000
C131	C13	0.438800	0.351700	0.243300
C141	C14	0.313100	0.356500	0.283900
C151	C15	0.630300	0.549600	0.361600
C161	C16	0.458000	0.280600	0.170400
C171	C17	0.787800	0.924200	0.151900
C181	C18	0.892300	0.984300	0.126000
C191	C19	0.020000	0.980400	0.164800
C201	C20	0.042400	0.913500	0.231000
C211	C21	0.938800	0.851700	0.256700
C221	C22	0.813100	0.856500	0.216100
C231	C23	0.130300	0.049600	0.138400
C241	C24	0.958000	0.780600	0.329600
C251	C25	0.712200	0.575800	0.651900
C261	C26	0.607700	0.515700	0.626000
C271	C27	0.480000	0.519600	0.664800
C281	C28	0.457600	0.586500	0.731000
C291	C29	0.561200	0.648300	0.756700
C301	C30	0.686900	0.643500	0.716100
C311	C31	0.369700	0.450400	0.638400
C321	C32	0.542000	0.719400	0.829600
O11	O1	0.417500	0.965460	0.907410
O21	O2	0.373900	0.128690	0.978230
O31	O3	0.474200	0.119050	0.829100
O41	O4	0.902600	0.868200	0.880300
O51	O5	0.750300	0.984400	0.862130
O61	O6	0.976700	0.196700	0.605790
O71	O7	0.096000	0.301120	0.683980
O81	O8	0.082500	0.534540	0.407410
O91	O9	0.126100	0.371310	0.478230
O101	O10	0.025800	0.380950	0.329100
O111	O11	0.597400	0.631800	0.380300
O121	O12	0.749700	0.515600	0.362130
O131	O13	0.523300	0.303300	0.105790
O141	O14	0.404000	0.198880	0.183980
O151	O15	0.582500	0.034540	0.092590
O161	O16	0.626100	0.871310	0.021770
O171	O17	0.525800	0.880950	0.170900
O181	O18	0.097400	0.131800	0.119700
O191	O19	0.249700	0.015600	0.137870
O201	O20	0.023300	0.803300	0.394210
O211	O21	0.904000	0.698880	0.316020
O221	O22	0.917500	0.465460	0.592590
O231	O23	0.873900	0.628690	0.521770
O241	O24	0.974200	0.619050	0.670900
O251	O25	0.402600	0.368200	0.619700
O261	O26	0.250300	0.484400	0.637870
O271	O27	0.476700	0.696700	0.894210
O281	O28	0.596000	0.801120	0.816020
