data_magnetochemistry3010001_PF290NdNO3_clean_PM
_symmetry_space_group_name_H-M	'P1'
_cell_length_a	8.076000
_cell_length_b	12.545000
_cell_length_c	15.713000
_cell_angle_alpha	71.896000
_cell_angle_beta	82.140000
_cell_angle_gamma	75.620000
_symmetry_Int_Tables_number 1

loop_
_symmetry_equiv_pos_as_xyz
'x,y,z'

loop_
_atom_site_label
_atom_site_type_symbol
_atom_site_fract_x
_atom_site_fract_y
_atom_site_fract_z
Nd11	Nd1	0.025230	0.179110	0.864690
Nd21	Nd2	0.645330	0.372140	0.614460
O11	O1	0.550100	0.449900	0.746100
O21	O2	0.525900	0.577200	0.541300
O31	O3	0.334400	0.391300	0.642100
O41	O4	0.554900	0.210800	0.735200
O51	O5	0.099100	0.107200	0.729700
O61	O6	0.118400	0.332900	0.735800
O71	O7	0.783100	0.329000	0.802100
C11	C1	0.295000	0.849700	0.854000
H11	H1	0.225700	0.889800	0.803000
H21	H2	0.400000	0.877900	0.842300
N11	N1	0.169000	0.263900	0.991200
O81	O8	0.596500	0.242800	0.524100
O91	O9	0.142600	0.982300	0.929600
O101	O10	0.818200	0.204300	0.993600
O111	O11	0.892700	0.222400	0.641700
N21	N2	0.338500	0.724200	0.862900
N31	N3	0.406000	0.829100	0.624400
O121	O12	0.343700	0.155300	0.831800
C21	C2	0.535200	0.320600	0.457700
N41	N4	0.481900	0.552000	0.879800
O131	O13	0.173900	0.159000	0.006900
C31	C3	0.026400	0.144700	0.658500
C41	C4	0.198100	0.877200	0.937900
N51	N5	0.254000	0.002800	0.600800
O141	O14	0.094000	0.336800	0.920200
C51	C5	0.400400	0.219600	0.763300
C61	C6	0.653400	0.407900	0.804600
C71	C7	0.508000	0.900000	0.624100
H31	H3	0.625300	0.878400	0.631000
C81	C8	0.493500	0.659200	0.867800
H41	H4	0.594400	0.684100	0.863500
C91	C9	0.103000	0.100600	0.581100
H51	H5	0.136800	0.163200	0.533200
H61	H6	0.015700	0.076500	0.559400
C101	C10	0.271800	0.324100	0.709100
O151	O15	0.226000	0.304300	0.038500
C111	C11	0.539000	0.294600	0.368700
H71	H7	0.425400	0.323300	0.346200
H81	H8	0.616200	0.335500	0.325500
C121	C12	0.224000	0.657000	0.869000
H91	H9	0.106400	0.682000	0.865700
C131	C13	0.628000	0.454200	0.884700
H101	H10	0.612200	0.393000	0.938700
H111	H11	0.731500	0.477900	0.889400
C141	C14	0.314000	0.548700	0.880700
H121	H12	0.270700	0.484100	0.888000
C151	C15	0.250000	0.894900	0.607500
H131	H13	0.154100	0.869800	0.601500
C161	C16	0.412000	0.006400	0.612300
H141	H14	0.449600	0.070900	0.612200
Nd31	Nd3	0.974770	0.820890	0.135310
Nd41	Nd4	0.354670	0.627860	0.385540
O161	O16	0.449900	0.550100	0.253900
O171	O17	0.474100	0.422800	0.458700
O181	O18	0.665600	0.608700	0.357900
O191	O19	0.445100	0.789200	0.264800
O201	O20	0.900900	0.892800	0.270300
O211	O21	0.881600	0.667100	0.264200
O221	O22	0.216900	0.671000	0.197900
C171	C17	0.705000	0.150300	0.146000
H151	H15	0.774300	0.110200	0.197000
H161	H16	0.600000	0.122100	0.157700
N61	N6	0.831000	0.736100	0.008800
O231	O23	0.403500	0.757200	0.475900
O241	O24	0.857400	0.017700	0.070400
O251	O25	0.181800	0.795700	0.006400
O261	O26	0.107300	0.777600	0.358300
N71	N7	0.661500	0.275800	0.137100
N81	N8	0.594000	0.170900	0.375600
O271	O27	0.656300	0.844700	0.168200
C181	C18	0.464800	0.679400	0.542300
N91	N9	0.518100	0.448000	0.120200
O281	O28	0.826100	0.841000	0.993100
C191	C19	0.973600	0.855300	0.341500
C201	C20	0.801900	0.122800	0.062100
N101	N10	0.746000	0.997200	0.399200
O291	O29	0.906000	0.663200	0.079800
C211	C21	0.599600	0.780400	0.236700
C221	C22	0.346600	0.592100	0.195400
C231	C23	0.492000	0.100000	0.375900
H171	H17	0.374700	0.121600	0.369000
C241	C24	0.506500	0.340800	0.132200
H181	H18	0.405600	0.315900	0.136500
C251	C25	0.897000	0.899400	0.418900
H191	H19	0.863200	0.836800	0.466800
H201	H20	0.984300	0.923500	0.440600
C261	C26	0.728200	0.675900	0.290900
O301	O30	0.774000	0.695700	0.961500
C271	C27	0.461000	0.705400	0.631300
H211	H21	0.574600	0.676700	0.653800
H221	H22	0.383800	0.664500	0.674500
C281	C28	0.776000	0.343000	0.131000
H231	H23	0.893600	0.318000	0.134300
C291	C29	0.372000	0.545800	0.115300
H241	H24	0.387800	0.607000	0.061300
H251	H25	0.268500	0.522100	0.110600
C301	C30	0.686000	0.451300	0.119300
H261	H26	0.729300	0.515900	0.112000
C311	C31	0.750000	0.105100	0.392500
H271	H27	0.845900	0.130200	0.398500
C321	C32	0.588000	0.993600	0.387700
H281	H28	0.550400	0.929100	0.387800
