data_MAGVOG25_clean_PM
_symmetry_space_group_name_H-M	'P1'
_cell_length_a	10.236300
_cell_length_b	10.650400
_cell_length_c	6.222500
_cell_angle_alpha	90.000000
_cell_angle_beta	114.522000
_cell_angle_gamma	90.000000
_symmetry_Int_Tables_number 1

loop_
_symmetry_equiv_pos_as_xyz
'x,y,z'

loop_
_atom_site_label
_atom_site_type_symbol
_atom_site_fract_x
_atom_site_fract_y
_atom_site_fract_z
C11	C1	0.317900	0.210900	0.545500
H11	H1	0.400900	0.265700	0.569600
H21	H2	0.333000	0.174200	0.700200
N11	N1	0.310700	0.109100	0.380100
H31	H3	0.294900	0.143500	0.235800
H41	H4	0.234000	0.057800	0.359500
C21	C2	0.817900	0.710900	0.545500
H51	H5	0.900900	0.765700	0.569600
H61	H6	0.833000	0.674200	0.700200
N21	N2	0.810700	0.609100	0.380100
H71	H7	0.794900	0.643500	0.235800
H81	H8	0.734000	0.557800	0.359500
C31	C3	0.682100	0.210900	0.954500
H91	H9	0.599100	0.265700	0.930400
H101	H10	0.667000	0.174200	0.799800
N31	N3	0.689300	0.109100	0.119900
H111	H11	0.705100	0.143500	0.264200
H121	H12	0.766000	0.057800	0.140500
C41	C4	0.182100	0.710900	0.954500
H131	H13	0.099100	0.765700	0.930400
H141	H14	0.167000	0.674200	0.799800
N41	N4	0.189300	0.609100	0.119900
H151	H15	0.205100	0.643500	0.264200
H161	H16	0.266000	0.557800	0.140500
C51	C5	0.682100	0.789100	0.454500
H171	H17	0.599100	0.734300	0.430400
H181	H18	0.667000	0.825800	0.299800
N51	N5	0.689300	0.890900	0.619900
H191	H19	0.705100	0.856500	0.764200
H201	H20	0.766000	0.942200	0.640500
C61	C6	0.182100	0.289100	0.454500
H211	H21	0.099100	0.234300	0.430400
H221	H22	0.167000	0.325800	0.299800
N61	N6	0.189300	0.390900	0.619900
H231	H23	0.205100	0.356500	0.764200
H241	H24	0.266000	0.442200	0.640500
C71	C7	0.317900	0.789100	0.045500
H251	H25	0.400900	0.734300	0.069600
H261	H26	0.333000	0.825800	0.200200
N71	N7	0.310700	0.890900	0.880100
H271	H27	0.294900	0.856500	0.735800
H281	H28	0.234000	0.942200	0.859500
C81	C8	0.817900	0.289100	0.045500
H291	H29	0.900900	0.234300	0.069600
H301	H30	0.833000	0.325800	0.200200
N81	N8	0.810700	0.390900	0.880100
H311	H31	0.794900	0.356500	0.735800
H321	H32	0.734000	0.442200	0.859500
Ag11	Ag1	0.500000	0.000000	0.500000
Ag21	Ag2	0.000000	0.500000	0.500000
Ag31	Ag3	0.500000	0.000000	0.000000
Ag41	Ag4	0.000000	0.500000	0.000000
