data_MAGVOG22_clean_PM
_symmetry_space_group_name_H-M	'P1'
_cell_length_a	10.164500
_cell_length_b	10.704800
_cell_length_c	6.204900
_cell_angle_alpha	90.000000
_cell_angle_beta	114.277000
_cell_angle_gamma	90.000000
_symmetry_Int_Tables_number 1

loop_
_symmetry_equiv_pos_as_xyz
'x,y,z'

loop_
_atom_site_label
_atom_site_type_symbol
_atom_site_fract_x
_atom_site_fract_y
_atom_site_fract_z
C11	C1	0.318000	0.211300	0.544000
H11	H1	0.401000	0.265800	0.565200
H21	H2	0.334400	0.175500	0.700100
N11	N1	0.310500	0.108800	0.379700
H31	H3	0.294800	0.142200	0.234500
H41	H4	0.233300	0.058200	0.360300
C21	C2	0.818000	0.711300	0.544000
H51	H5	0.901000	0.765800	0.565200
H61	H6	0.834400	0.675500	0.700100
N21	N2	0.810500	0.608800	0.379700
H71	H7	0.794800	0.642200	0.234500
H81	H8	0.733300	0.558200	0.360300
C31	C3	0.682000	0.211300	0.956000
H91	H9	0.599000	0.265800	0.934800
H101	H10	0.665600	0.175500	0.799900
N31	N3	0.689500	0.108800	0.120300
H111	H11	0.705200	0.142200	0.265500
H121	H12	0.766700	0.058200	0.139700
C41	C4	0.182000	0.711300	0.956000
H131	H13	0.099000	0.765800	0.934800
H141	H14	0.165600	0.675500	0.799900
N41	N4	0.189500	0.608800	0.120300
H151	H15	0.205200	0.642200	0.265500
H161	H16	0.266700	0.558200	0.139700
C51	C5	0.682000	0.788700	0.456000
H171	H17	0.599000	0.734200	0.434800
H181	H18	0.665600	0.824500	0.299900
N51	N5	0.689500	0.891200	0.620300
H191	H19	0.705200	0.857800	0.765500
H201	H20	0.766700	0.941800	0.639700
C61	C6	0.182000	0.288700	0.456000
H211	H21	0.099000	0.234200	0.434800
H221	H22	0.165600	0.324500	0.299900
N61	N6	0.189500	0.391200	0.620300
H231	H23	0.205200	0.357800	0.765500
H241	H24	0.266700	0.441800	0.639700
C71	C7	0.318000	0.788700	0.044000
H251	H25	0.401000	0.734200	0.065200
H261	H26	0.334400	0.824500	0.200100
N71	N7	0.310500	0.891200	0.879700
H271	H27	0.294800	0.857800	0.734500
H281	H28	0.233300	0.941800	0.860300
C81	C8	0.818000	0.288700	0.044000
H291	H29	0.901000	0.234200	0.065200
H301	H30	0.834400	0.324500	0.200100
N81	N8	0.810500	0.391200	0.879700
H311	H31	0.794800	0.357800	0.734500
H321	H32	0.733300	0.441800	0.860300
Ag11	Ag1	0.500000	0.000000	0.500000
Ag21	Ag2	0.000000	0.500000	0.500000
Ag31	Ag3	0.500000	0.000000	0.000000
Ag41	Ag4	0.000000	0.500000	0.000000
