data_MAGVOG02_clean_PM
_symmetry_space_group_name_H-M	'P1'
_cell_length_a	10.451000
_cell_length_b	10.510000
_cell_length_c	6.268000
_cell_angle_alpha	90.000000
_cell_angle_beta	115.080000
_cell_angle_gamma	90.000000
_symmetry_Int_Tables_number 1

loop_
_symmetry_equiv_pos_as_xyz
'x,y,z'

loop_
_atom_site_label
_atom_site_type_symbol
_atom_site_fract_x
_atom_site_fract_y
_atom_site_fract_z
C11	C1	0.313000	0.208500	0.544000
H11	H1	0.396000	0.261100	0.580100
H21	H2	0.322200	0.168900	0.689200
N11	N1	0.311100	0.108700	0.379600
H31	H3	0.296300	0.144700	0.240900
H41	H4	0.238100	0.056000	0.354400
C21	C2	0.813000	0.708500	0.544000
H51	H5	0.896000	0.761100	0.580100
H61	H6	0.822200	0.668900	0.689200
N21	N2	0.811100	0.608700	0.379600
H71	H7	0.796300	0.644700	0.240900
H81	H8	0.738100	0.556000	0.354400
C31	C3	0.687000	0.208500	0.956000
H91	H9	0.604000	0.261100	0.919900
H101	H10	0.677800	0.168900	0.810800
N31	N3	0.688900	0.108700	0.120400
H111	H11	0.703700	0.144700	0.259100
H121	H12	0.761900	0.056000	0.145600
C41	C4	0.187000	0.708500	0.956000
H131	H13	0.104000	0.761100	0.919900
H141	H14	0.177800	0.668900	0.810800
N41	N4	0.188900	0.608700	0.120400
H151	H15	0.203700	0.644700	0.259100
H161	H16	0.261900	0.556000	0.145600
C51	C5	0.687000	0.791500	0.456000
H171	H17	0.604000	0.738900	0.419900
H181	H18	0.677800	0.831100	0.310800
N51	N5	0.688900	0.891300	0.620400
H191	H19	0.703700	0.855300	0.759100
H201	H20	0.761900	0.944000	0.645600
C61	C6	0.187000	0.291500	0.456000
H211	H21	0.104000	0.238900	0.419900
H221	H22	0.177800	0.331100	0.310800
N61	N6	0.188900	0.391300	0.620400
H231	H23	0.203700	0.355300	0.759100
H241	H24	0.261900	0.444000	0.645600
C71	C7	0.313000	0.791500	0.044000
H251	H25	0.396000	0.738900	0.080100
H261	H26	0.322200	0.831100	0.189200
N71	N7	0.311100	0.891300	0.879600
H271	H27	0.296300	0.855300	0.740900
H281	H28	0.238100	0.944000	0.854400
C81	C8	0.813000	0.291500	0.044000
H291	H29	0.896000	0.238900	0.080100
H301	H30	0.822200	0.331100	0.189200
N81	N8	0.811100	0.391300	0.879600
H311	H31	0.796300	0.355300	0.740900
H321	H32	0.738100	0.444000	0.854400
Ag11	Ag1	0.500000	0.000000	0.500000
Ag21	Ag2	0.000000	0.500000	0.500000
Ag31	Ag3	0.500000	0.000000	0.000000
Ag41	Ag4	0.000000	0.500000	0.000000
