data_MAGVOG16_clean_PM
_symmetry_space_group_name_H-M	'P1'
_cell_length_a	10.440200
_cell_length_b	10.513000
_cell_length_c	6.302100
_cell_angle_alpha	90.000000
_cell_angle_beta	115.217000
_cell_angle_gamma	90.000000
_symmetry_Int_Tables_number 1

loop_
_symmetry_equiv_pos_as_xyz
'x,y,z'

loop_
_atom_site_label
_atom_site_type_symbol
_atom_site_fract_x
_atom_site_fract_y
_atom_site_fract_z
C11	C1	0.316000	0.210300	0.546000
H11	H1	0.397000	0.265100	0.578700
H21	H2	0.327600	0.171200	0.692500
N11	N1	0.313600	0.110600	0.381700
H31	H3	0.299700	0.147100	0.244400
H41	H4	0.239600	0.058700	0.354800
C21	C2	0.816000	0.710300	0.546000
H51	H5	0.897000	0.765100	0.578700
H61	H6	0.827600	0.671200	0.692500
N21	N2	0.813600	0.610600	0.381700
H71	H7	0.799700	0.647100	0.244400
H81	H8	0.739600	0.558700	0.354800
C31	C3	0.684000	0.210300	0.954000
H91	H9	0.603000	0.265100	0.921300
H101	H10	0.672400	0.171200	0.807500
N31	N3	0.686400	0.110600	0.118300
H111	H11	0.700300	0.147100	0.255600
H121	H12	0.760400	0.058700	0.145200
C41	C4	0.184000	0.710300	0.954000
H131	H13	0.103000	0.765100	0.921300
H141	H14	0.172400	0.671200	0.807500
N41	N4	0.186400	0.610600	0.118300
H151	H15	0.200300	0.647100	0.255600
H161	H16	0.260400	0.558700	0.145200
C51	C5	0.684000	0.789700	0.454000
H171	H17	0.603000	0.734900	0.421300
H181	H18	0.672400	0.828800	0.307500
N51	N5	0.686400	0.889400	0.618300
H191	H19	0.700300	0.852900	0.755600
H201	H20	0.760400	0.941300	0.645200
C61	C6	0.184000	0.289700	0.454000
H211	H21	0.103000	0.234900	0.421300
H221	H22	0.172400	0.328800	0.307500
N61	N6	0.186400	0.389400	0.618300
H231	H23	0.200300	0.352900	0.755600
H241	H24	0.260400	0.441300	0.645200
C71	C7	0.316000	0.789700	0.046000
H251	H25	0.397000	0.734900	0.078700
H261	H26	0.327600	0.828800	0.192500
N71	N7	0.313600	0.889400	0.881700
H271	H27	0.299700	0.852900	0.744400
H281	H28	0.239600	0.941300	0.854800
C81	C8	0.816000	0.289700	0.046000
H291	H29	0.897000	0.234900	0.078700
H301	H30	0.827600	0.328800	0.192500
N81	N8	0.813600	0.389400	0.881700
H311	H31	0.799700	0.352900	0.744400
H321	H32	0.739600	0.441300	0.854800
Ag11	Ag1	0.500000	0.000000	0.500000
Ag21	Ag2	0.000000	0.500000	0.500000
Ag31	Ag3	0.500000	0.000000	0.000000
Ag41	Ag4	0.000000	0.500000	0.000000
