data_MAGVOG17_clean_PM
_symmetry_space_group_name_H-M	'P1'
_cell_length_a	10.448800
_cell_length_b	10.504100
_cell_length_c	6.306500
_cell_angle_alpha	90.000000
_cell_angle_beta	115.272000
_cell_angle_gamma	90.000000
_symmetry_Int_Tables_number 1

loop_
_symmetry_equiv_pos_as_xyz
'x,y,z'

loop_
_atom_site_label
_atom_site_type_symbol
_atom_site_fract_x
_atom_site_fract_y
_atom_site_fract_z
C11	C1	0.315900	0.209900	0.546300
H11	H1	0.397200	0.264500	0.580800
H21	H2	0.326700	0.170200	0.691900
N11	N1	0.313800	0.110800	0.381600
H31	H3	0.300200	0.147800	0.244900
H41	H4	0.239700	0.058900	0.353600
C21	C2	0.815900	0.709900	0.546300
H51	H5	0.897200	0.764500	0.580800
H61	H6	0.826700	0.670200	0.691900
N21	N2	0.813800	0.610800	0.381600
H71	H7	0.800200	0.647800	0.244900
H81	H8	0.739700	0.558900	0.353600
C31	C3	0.684100	0.209900	0.953700
H91	H9	0.602800	0.264500	0.919200
H101	H10	0.673300	0.170200	0.808100
N31	N3	0.686200	0.110800	0.118400
H111	H11	0.699800	0.147800	0.255100
H121	H12	0.760300	0.058900	0.146400
C41	C4	0.184100	0.709900	0.953700
H131	H13	0.102800	0.764500	0.919200
H141	H14	0.173300	0.670200	0.808100
N41	N4	0.186200	0.610800	0.118400
H151	H15	0.199800	0.647800	0.255100
H161	H16	0.260300	0.558900	0.146400
C51	C5	0.684100	0.790100	0.453700
H171	H17	0.602800	0.735500	0.419200
H181	H18	0.673300	0.829800	0.308100
N51	N5	0.686200	0.889200	0.618400
H191	H19	0.699800	0.852200	0.755100
H201	H20	0.760300	0.941100	0.646400
C61	C6	0.184100	0.290100	0.453700
H211	H21	0.102800	0.235500	0.419200
H221	H22	0.173300	0.329800	0.308100
N61	N6	0.186200	0.389200	0.618400
H231	H23	0.199800	0.352200	0.755100
H241	H24	0.260300	0.441100	0.646400
C71	C7	0.315900	0.790100	0.046300
H251	H25	0.397200	0.735500	0.080800
H261	H26	0.326700	0.829800	0.191900
N71	N7	0.313800	0.889200	0.881600
H271	H27	0.300200	0.852200	0.744900
H281	H28	0.239700	0.941100	0.853600
C81	C8	0.815900	0.290100	0.046300
H291	H29	0.897200	0.235500	0.080800
H301	H30	0.826700	0.329800	0.191900
N81	N8	0.813800	0.389200	0.881600
H311	H31	0.800200	0.352200	0.744900
H321	H32	0.739700	0.441100	0.853600
Ag11	Ag1	0.500000	0.000000	0.500000
Ag21	Ag2	0.000000	0.500000	0.500000
Ag31	Ag3	0.500000	0.000000	0.000000
Ag41	Ag4	0.000000	0.500000	0.000000
