data_MAGVOG26_clean_PM
_symmetry_space_group_name_H-M	'P1'
_cell_length_a	10.255100
_cell_length_b	10.634200
_cell_length_c	6.229600
_cell_angle_alpha	90.000000
_cell_angle_beta	114.568000
_cell_angle_gamma	90.000000
_symmetry_Int_Tables_number 1

loop_
_symmetry_equiv_pos_as_xyz
'x,y,z'

loop_
_atom_site_label
_atom_site_type_symbol
_atom_site_fract_x
_atom_site_fract_y
_atom_site_fract_z
C11	C1	0.317700	0.211000	0.545400
H11	H1	0.400600	0.266000	0.569600
H21	H2	0.332900	0.174100	0.699900
N11	N1	0.310800	0.109100	0.380200
H31	H3	0.295000	0.143600	0.236000
H41	H4	0.234400	0.057600	0.359500
C21	C2	0.817700	0.711000	0.545400
H51	H5	0.900600	0.766000	0.569600
H61	H6	0.832900	0.674100	0.699900
N21	N2	0.810800	0.609100	0.380200
H71	H7	0.795000	0.643600	0.236000
H81	H8	0.734400	0.557600	0.359500
C31	C3	0.682300	0.211000	0.954600
H91	H9	0.599400	0.266000	0.930400
H101	H10	0.667100	0.174100	0.800100
N31	N3	0.689200	0.109100	0.119800
H111	H11	0.705000	0.143600	0.264000
H121	H12	0.765600	0.057600	0.140500
C41	C4	0.182300	0.711000	0.954600
H131	H13	0.099400	0.766000	0.930400
H141	H14	0.167100	0.674100	0.800100
N41	N4	0.189200	0.609100	0.119800
H151	H15	0.205000	0.643600	0.264000
H161	H16	0.265600	0.557600	0.140500
C51	C5	0.682300	0.789000	0.454600
H171	H17	0.599400	0.734000	0.430400
H181	H18	0.667100	0.825900	0.300100
N51	N5	0.689200	0.890900	0.619800
H191	H19	0.705000	0.856400	0.764000
H201	H20	0.765600	0.942400	0.640500
C61	C6	0.182300	0.289000	0.454600
H211	H21	0.099400	0.234000	0.430400
H221	H22	0.167100	0.325900	0.300100
N61	N6	0.189200	0.390900	0.619800
H231	H23	0.205000	0.356400	0.764000
H241	H24	0.265600	0.442400	0.640500
C71	C7	0.317700	0.789000	0.045400
H251	H25	0.400600	0.734000	0.069600
H261	H26	0.332900	0.825900	0.199900
N71	N7	0.310800	0.890900	0.880200
H271	H27	0.295000	0.856400	0.736000
H281	H28	0.234400	0.942400	0.859500
C81	C8	0.817700	0.289000	0.045400
H291	H29	0.900600	0.234000	0.069600
H301	H30	0.832900	0.325900	0.199900
N81	N8	0.810800	0.390900	0.880200
H311	H31	0.795000	0.356400	0.736000
H321	H32	0.734400	0.442400	0.859500
Ag11	Ag1	0.500000	0.000000	0.500000
Ag21	Ag2	0.000000	0.500000	0.500000
Ag31	Ag3	0.500000	0.000000	0.000000
Ag41	Ag4	0.000000	0.500000	0.000000
