data_MAGVOG23_clean_PM
_symmetry_space_group_name_H-M	'P1'
_cell_length_a	10.189500
_cell_length_b	10.683800
_cell_length_c	6.209600
_cell_angle_alpha	90.000000
_cell_angle_beta	114.389000
_cell_angle_gamma	90.000000
_symmetry_Int_Tables_number 1

loop_
_symmetry_equiv_pos_as_xyz
'x,y,z'

loop_
_atom_site_label
_atom_site_type_symbol
_atom_site_fract_x
_atom_site_fract_y
_atom_site_fract_z
N11	N1	0.310400	0.109200	0.379600
C11	C1	0.318100	0.211000	0.545000
H11	H1	0.294900	0.143200	0.235000
H21	H2	0.233300	0.058400	0.359200
H31	H3	0.401400	0.265500	0.568000
H41	H4	0.333600	0.174600	0.700300
N21	N2	0.810400	0.609200	0.379600
C21	C2	0.818100	0.711000	0.545000
H51	H5	0.794900	0.643200	0.235000
H61	H6	0.733300	0.558400	0.359200
H71	H7	0.901400	0.765500	0.568000
H81	H8	0.833600	0.674600	0.700300
N31	N3	0.689600	0.109200	0.120400
C31	C3	0.681900	0.211000	0.955000
H91	H9	0.705100	0.143200	0.265000
H101	H10	0.766700	0.058400	0.140800
H111	H11	0.598600	0.265500	0.932000
H121	H12	0.666400	0.174600	0.799700
N41	N4	0.189600	0.609200	0.120400
C41	C4	0.181900	0.711000	0.955000
H131	H13	0.205100	0.643200	0.265000
H141	H14	0.266700	0.558400	0.140800
H151	H15	0.098600	0.765500	0.932000
H161	H16	0.166400	0.674600	0.799700
N51	N5	0.689600	0.890800	0.620400
C51	C5	0.681900	0.789000	0.455000
H171	H17	0.705100	0.856800	0.765000
H181	H18	0.766700	0.941600	0.640800
H191	H19	0.598600	0.734500	0.432000
H201	H20	0.666400	0.825400	0.299700
N61	N6	0.189600	0.390800	0.620400
C61	C6	0.181900	0.289000	0.455000
H211	H21	0.205100	0.356800	0.765000
H221	H22	0.266700	0.441600	0.640800
H231	H23	0.098600	0.234500	0.432000
H241	H24	0.166400	0.325400	0.299700
N71	N7	0.310400	0.890800	0.879600
C71	C7	0.318100	0.789000	0.045000
H251	H25	0.294900	0.856800	0.735000
H261	H26	0.233300	0.941600	0.859200
H271	H27	0.401400	0.734500	0.068000
H281	H28	0.333600	0.825400	0.200300
N81	N8	0.810400	0.390800	0.879600
C81	C8	0.818100	0.289000	0.045000
H291	H29	0.794900	0.356800	0.735000
H301	H30	0.733300	0.441600	0.859200
H311	H31	0.901400	0.234500	0.068000
H321	H32	0.833600	0.325400	0.200300
Ag11	Ag1	0.500000	0.000000	0.500000
Ag21	Ag2	0.000000	0.500000	0.500000
Ag31	Ag3	0.500000	0.000000	0.000000
Ag41	Ag4	0.000000	0.500000	0.000000
