data_MAGVOG07_clean_PM
_symmetry_space_group_name_H-M	'P1'
_cell_length_a	20.862000
_cell_length_b	19.931000
_cell_length_c	6.189500
_cell_angle_alpha	90.000000
_cell_angle_beta	114.550000
_cell_angle_gamma	90.000000
_symmetry_Int_Tables_number 1

loop_
_symmetry_equiv_pos_as_xyz
'x,y,z'

loop_
_atom_site_label
_atom_site_type_symbol
_atom_site_fract_x
_atom_site_fract_y
_atom_site_fract_z
N11	N1	0.592300	0.049200	0.104000
H11	H1	0.605900	0.063900	0.253600
H21	H2	0.625700	0.021100	0.100000
N21	N2	0.647300	0.202600	0.865000
H31	H3	0.614600	0.231900	0.866200
H41	H4	0.634900	0.188500	0.715200
N31	N3	0.847800	0.196000	0.617000
H51	H5	0.883100	0.223600	0.626700
H61	H6	0.858700	0.177600	0.760700
N41	N4	0.900100	0.057500	0.358000
H71	H7	0.893200	0.076600	0.218000
H81	H8	0.863400	0.030400	0.335300
C11	C1	0.584500	0.105900	0.946000
H91	H9	0.547500	0.135200	0.946700
H101	H10	0.570900	0.089700	0.785200
C21	C2	0.652400	0.144900	0.023000
H111	H11	0.665600	0.161200	0.183400
H121	H12	0.689400	0.115000	0.025200
C31	C3	0.836900	0.144200	0.440000
H131	H13	0.826200	0.163500	0.284700
H141	H14	0.799400	0.113800	0.428900
C41	C4	0.907500	0.109500	0.538000
H151	H15	0.945000	0.140700	0.555400
H161	H16	0.917300	0.089300	0.691100
N51	N5	0.092300	0.549200	0.104000
H171	H17	0.105900	0.563900	0.253600
H181	H18	0.125700	0.521100	0.100000
N61	N6	0.147300	0.702600	0.865000
H191	H19	0.114600	0.731900	0.866200
H201	H20	0.134900	0.688500	0.715200
N71	N7	0.347800	0.696000	0.617000
H211	H21	0.383100	0.723600	0.626700
H221	H22	0.358700	0.677600	0.760700
N81	N8	0.400100	0.557500	0.358000
H231	H23	0.393200	0.576600	0.218000
H241	H24	0.363400	0.530400	0.335300
C51	C5	0.084500	0.605900	0.946000
H251	H25	0.047500	0.635200	0.946700
H261	H26	0.070900	0.589700	0.785200
C61	C6	0.152400	0.644900	0.023000
H271	H27	0.165600	0.661200	0.183400
H281	H28	0.189400	0.615000	0.025200
C71	C7	0.336900	0.644200	0.440000
H291	H29	0.326200	0.663500	0.284700
H301	H30	0.299400	0.613800	0.428900
C81	C8	0.407500	0.609500	0.538000
H311	H31	0.445000	0.640700	0.555400
H321	H32	0.417300	0.589300	0.691100
N91	N9	0.407700	0.049200	0.396000
H331	H33	0.394100	0.063900	0.246400
H341	H34	0.374300	0.021100	0.400000
N101	N10	0.352700	0.202600	0.635000
H351	H35	0.385400	0.231900	0.633800
H361	H36	0.365100	0.188500	0.784800
N111	N11	0.152200	0.196000	0.883000
H371	H37	0.116900	0.223600	0.873300
H381	H38	0.141300	0.177600	0.739300
N121	N12	0.099900	0.057500	0.142000
H391	H39	0.106800	0.076600	0.282000
H401	H40	0.136600	0.030400	0.164700
C91	C9	0.415500	0.105900	0.554000
H411	H41	0.452500	0.135200	0.553300
H421	H42	0.429100	0.089700	0.714800
C101	C10	0.347600	0.144900	0.477000
H431	H43	0.334400	0.161200	0.316600
H441	H44	0.310600	0.115000	0.474800
C111	C11	0.163100	0.144200	0.060000
H451	H45	0.173800	0.163500	0.215300
H461	H46	0.200600	0.113800	0.071100
C121	C12	0.092500	0.109500	0.962000
H471	H47	0.055000	0.140700	0.944600
H481	H48	0.082700	0.089300	0.808900
N131	N13	0.907700	0.549200	0.396000
H491	H49	0.894100	0.563900	0.246400
H501	H50	0.874300	0.521100	0.400000
N141	N14	0.852700	0.702600	0.635000
H511	H51	0.885400	0.731900	0.633800
H521	H52	0.865100	0.688500	0.784800
N151	N15	0.652200	0.696000	0.883000
H531	H53	0.616900	0.723600	0.873300
H541	H54	0.641300	0.677600	0.739300
N161	N16	0.599900	0.557500	0.142000
H551	H55	0.606800	0.576600	0.282000
H561	H56	0.636600	0.530400	0.164700
C131	C13	0.915500	0.605900	0.554000
H571	H57	0.952500	0.635200	0.553300
H581	H58	0.929100	0.589700	0.714800
C141	C14	0.847600	0.644900	0.477000
H591	H59	0.834400	0.661200	0.316600
H601	H60	0.810600	0.615000	0.474800
C151	C15	0.663100	0.644200	0.060000
H611	H61	0.673800	0.663500	0.215300
H621	H62	0.700600	0.613800	0.071100
C161	C16	0.592500	0.609500	0.962000
H631	H63	0.555000	0.640700	0.944600
H641	H64	0.582700	0.589300	0.808900
N171	N17	0.407700	0.950800	0.896000
H651	H65	0.394100	0.936100	0.746400
H661	H66	0.374300	0.978900	0.900000
N181	N18	0.352700	0.797400	0.135000
H671	H67	0.385400	0.768100	0.133800
H681	H68	0.365100	0.811500	0.284800
N191	N19	0.152200	0.804000	0.383000
H691	H69	0.116900	0.776400	0.373300
H701	H70	0.141300	0.822400	0.239300
N201	N20	0.099900	0.942500	0.642000
H711	H71	0.106800	0.923400	0.782000
H721	H72	0.136600	0.969600	0.664700
C171	C17	0.415500	0.894100	0.054000
H731	H73	0.452500	0.864800	0.053300
H741	H74	0.429100	0.910300	0.214800
C181	C18	0.347600	0.855100	0.977000
H751	H75	0.334400	0.838800	0.816600
H761	H76	0.310600	0.885000	0.974800
C191	C19	0.163100	0.855800	0.560000
H771	H77	0.173800	0.836500	0.715300
H781	H78	0.200600	0.886200	0.571100
C201	C20	0.092500	0.890500	0.462000
H791	H79	0.055000	0.859300	0.444600
H801	H80	0.082700	0.910700	0.308900
N211	N21	0.907700	0.450800	0.896000
H811	H81	0.894100	0.436100	0.746400
H821	H82	0.874300	0.478900	0.900000
N221	N22	0.852700	0.297400	0.135000
H831	H83	0.885400	0.268100	0.133800
H841	H84	0.865100	0.311500	0.284800
N231	N23	0.652200	0.304000	0.383000
H851	H85	0.616900	0.276400	0.373300
H861	H86	0.641300	0.322400	0.239300
N241	N24	0.599900	0.442500	0.642000
H871	H87	0.606800	0.423400	0.782000
H881	H88	0.636600	0.469600	0.664700
C211	C21	0.915500	0.394100	0.054000
H891	H89	0.952500	0.364800	0.053300
H901	H90	0.929100	0.410300	0.214800
C221	C22	0.847600	0.355100	0.977000
H911	H91	0.834400	0.338800	0.816600
H921	H92	0.810600	0.385000	0.974800
C231	C23	0.663100	0.355800	0.560000
H931	H93	0.673800	0.336500	0.715300
H941	H94	0.700600	0.386200	0.571100
C241	C24	0.592500	0.390500	0.462000
H951	H95	0.555000	0.359300	0.444600
H961	H96	0.582700	0.410700	0.308900
N251	N25	0.592300	0.950800	0.604000
H971	H97	0.605900	0.936100	0.753600
H981	H98	0.625700	0.978900	0.600000
N261	N26	0.647300	0.797400	0.365000
H991	H99	0.614600	0.768100	0.366200
H1001	H100	0.634900	0.811500	0.215200
N271	N27	0.847800	0.804000	0.117000
H1011	H101	0.883100	0.776400	0.126700
H1021	H102	0.858700	0.822400	0.260700
N281	N28	0.900100	0.942500	0.858000
H1031	H103	0.893200	0.923400	0.718000
H1041	H104	0.863400	0.969600	0.835300
C251	C25	0.584500	0.894100	0.446000
H1051	H105	0.547500	0.864800	0.446700
H1061	H106	0.570900	0.910300	0.285200
C261	C26	0.652400	0.855100	0.523000
H1071	H107	0.665600	0.838800	0.683400
H1081	H108	0.689400	0.885000	0.525200
C271	C27	0.836900	0.855800	0.940000
H1091	H109	0.826200	0.836500	0.784700
H1101	H110	0.799400	0.886200	0.928900
C281	C28	0.907500	0.890500	0.038000
H1111	H111	0.945000	0.859300	0.055400
H1121	H112	0.917300	0.910700	0.191100
N291	N29	0.092300	0.450800	0.604000
H1131	H113	0.105900	0.436100	0.753600
H1141	H114	0.125700	0.478900	0.600000
N301	N30	0.147300	0.297400	0.365000
H1151	H115	0.114600	0.268100	0.366200
H1161	H116	0.134900	0.311500	0.215200
N311	N31	0.347800	0.304000	0.117000
H1171	H117	0.383100	0.276400	0.126700
H1181	H118	0.358700	0.322400	0.260700
N321	N32	0.400100	0.442500	0.858000
H1191	H119	0.393200	0.423400	0.718000
H1201	H120	0.363400	0.469600	0.835300
C291	C29	0.084500	0.394100	0.446000
H1211	H121	0.047500	0.364800	0.446700
H1221	H122	0.070900	0.410300	0.285200
C301	C30	0.152400	0.355100	0.523000
H1231	H123	0.165600	0.338800	0.683400
H1241	H124	0.189400	0.385000	0.525200
C311	C31	0.336900	0.355800	0.940000
H1251	H125	0.326200	0.336500	0.784700
H1261	H126	0.299400	0.386200	0.928900
C321	C32	0.407500	0.390500	0.038000
H1271	H127	0.445000	0.359300	0.055400
H1281	H128	0.417300	0.410700	0.191100
Ag11	Ag1	0.500000	0.000000	0.000000
Ag21	Ag2	0.000000	0.500000	0.000000
Ag31	Ag3	0.500000	0.000000	0.500000
Ag41	Ag4	0.000000	0.500000	0.500000
Ag51	Ag5	0.750000	0.250000	0.000000
Ag61	Ag6	0.250000	0.250000	0.500000
Ag71	Ag7	0.250000	0.750000	0.000000
Ag81	Ag8	0.750000	0.750000	0.500000
Ag91	Ag9	0.750000	0.250000	0.500000
Ag101	Ag10	0.250000	0.250000	0.000000
Ag111	Ag11	0.250000	0.750000	0.500000
Ag121	Ag12	0.750000	0.750000	0.000000
Ag131	Ag13	0.000000	0.000000	0.500000
Ag141	Ag14	0.500000	0.500000	0.500000
Ag151	Ag15	0.000000	0.000000	0.000000
Ag161	Ag16	0.500000	0.500000	0.000000
