data_MAHTAR01_clean_PM
_symmetry_space_group_name_H-M	'P1'
_cell_length_a	9.534700
_cell_length_b	13.377800
_cell_length_c	14.474400
_cell_angle_alpha	79.947700
_cell_angle_beta	70.769700
_cell_angle_gamma	69.123000
_symmetry_Int_Tables_number 1

loop_
_symmetry_equiv_pos_as_xyz
'x,y,z'

loop_
_atom_site_label
_atom_site_type_symbol
_atom_site_fract_x
_atom_site_fract_y
_atom_site_fract_z
Mn11	Mn1	0.520410	0.467520	0.884560
Mn21	Mn2	0.872490	0.032480	0.615440
Mn31	Mn3	0.479590	0.532480	0.115440
Mn41	Mn4	0.127510	0.967520	0.384560
Mn51	Mn5	0.788880	0.250000	0.750000
Mn61	Mn6	0.211120	0.750000	0.250000
H11	H1	0.776300	0.092100	0.979300
H21	H2	0.886400	0.956200	0.081000
H31	H3	0.799800	0.168900	0.270700
H41	H4	0.676400	0.304600	0.173400
H51	H5	0.443100	0.643300	0.589700
H61	H6	0.570200	0.327200	0.569200
H71	H7	0.847700	0.407900	0.520700
H81	H8	0.923600	0.543800	0.419000
H91	H9	0.239400	0.331100	0.229300
H101	H10	0.154400	0.195400	0.326600
H111	H11	0.676100	0.856700	0.910300
H121	H12	0.466600	0.172800	0.930800
H131	H13	0.223700	0.907900	0.020700
H141	H14	0.113600	0.043800	0.919000
H151	H15	0.200200	0.831100	0.729300
H161	H16	0.323600	0.695400	0.826600
H171	H17	0.556900	0.356700	0.410300
H181	H18	0.429800	0.672800	0.430800
H191	H19	0.152300	0.592100	0.479300
H201	H20	0.076400	0.456200	0.581000
H211	H21	0.760600	0.668900	0.770700
H221	H22	0.845600	0.804600	0.673400
H231	H23	0.323900	0.143300	0.089700
H241	H24	0.533400	0.827200	0.069200
C11	C1	0.650100	0.301000	0.998000
C21	C2	0.717400	0.212300	0.065300
C31	C3	0.779800	0.107700	0.038500
C41	C4	0.847100	0.026600	0.099000
C51	C5	0.856900	0.048800	0.186200
C61	C6	0.794000	0.152800	0.212400
C71	C7	0.721800	0.234700	0.153500
C81	C8	0.945800	0.962700	0.247700
C91	C9	0.516200	0.463400	0.699000
C101	C10	0.506000	0.481500	0.596100
C111	C11	0.465500	0.585600	0.553600
C121	C12	0.541300	0.397000	0.541600
C131	C13	0.949100	0.199000	0.502000
C141	C14	0.995000	0.287700	0.434700
C151	C15	0.926000	0.392300	0.461500
C161	C16	0.972700	0.473400	0.401000
C171	C17	0.091900	0.451200	0.313800
C181	C18	0.159200	0.347200	0.287600
C191	C19	0.110000	0.265300	0.346500
C201	C20	0.156200	0.537300	0.252300
C211	C21	0.678600	0.036600	0.801000
C221	C22	0.583600	0.018500	0.903900
C231	C23	0.604700	0.914400	0.946400
C241	C24	0.479900	0.103000	0.958400
C251	C25	0.349900	0.699000	0.002000
C261	C26	0.282600	0.787700	0.934700
C271	C27	0.220200	0.892300	0.961500
C281	C28	0.152900	0.973400	0.901000
C291	C29	0.143100	0.951200	0.813800
C301	C30	0.206000	0.847200	0.787600
C311	C31	0.278200	0.765300	0.846500
C321	C32	0.054200	0.037300	0.752300
C331	C33	0.483800	0.536600	0.301000
C341	C34	0.494000	0.518500	0.403900
C351	C35	0.534500	0.414400	0.446400
C361	C36	0.458700	0.603000	0.458400
C371	C37	0.050900	0.801000	0.498000
C381	C38	0.005000	0.712300	0.565300
C391	C39	0.074000	0.607700	0.538500
C401	C40	0.027300	0.526600	0.599000
C411	C41	0.908100	0.548800	0.686200
C421	C42	0.840800	0.652800	0.712400
C431	C43	0.890000	0.734700	0.653500
C441	C44	0.843800	0.462700	0.747700
C451	C45	0.321400	0.963400	0.199000
C461	C46	0.416400	0.981500	0.096100
C471	C47	0.395300	0.085600	0.053600
C481	C48	0.520100	0.897000	0.041600
O11	O1	0.577580	0.393940	0.028300
O21	O2	0.466700	0.541800	0.749800
O31	O3	0.575980	0.369440	0.731800
O41	O4	0.666200	0.284000	0.912200
O51	O5	0.017650	0.872200	0.214900
O61	O6	0.941320	0.989360	0.328000
O71	O7	0.999820	0.106060	0.471700
O81	O8	0.758300	0.958200	0.750200
O91	O9	0.677220	0.130560	0.768200
O101	O10	0.862400	0.216000	0.587800
O111	O11	0.104750	0.627800	0.285100
O121	O12	0.258680	0.510640	0.172000
O131	O13	0.422420	0.606060	0.971700
O141	O14	0.533300	0.458200	0.250200
O151	O15	0.424020	0.630560	0.268200
O161	O16	0.333800	0.716000	0.087800
O171	O17	0.982350	0.127800	0.785100
O181	O18	0.058680	0.010640	0.672000
O191	O19	0.000180	0.893940	0.528300
O201	O20	0.241700	0.041800	0.249800
O211	O21	0.322780	0.869440	0.231800
O221	O22	0.137600	0.784000	0.412200
O231	O23	0.895250	0.372200	0.714900
O241	O24	0.741320	0.489360	0.828000
