data_MAHTAR_clean_PM
_symmetry_space_group_name_H-M	'P1'
_cell_length_a	9.534000
_cell_length_b	13.388400
_cell_length_c	14.481700
_cell_angle_alpha	79.940100
_cell_angle_beta	70.781400
_cell_angle_gamma	69.141900
_symmetry_Int_Tables_number 1

loop_
_symmetry_equiv_pos_as_xyz
'x,y,z'

loop_
_atom_site_label
_atom_site_type_symbol
_atom_site_fract_x
_atom_site_fract_y
_atom_site_fract_z
Mn11	Mn1	0.372300	0.532440	0.115500
Mn21	Mn2	0.020240	0.967560	0.384500
Mn31	Mn3	0.627700	0.467560	0.884500
Mn41	Mn4	0.979760	0.032440	0.615500
Mn51	Mn5	0.288740	0.750000	0.250000
Mn61	Mn6	0.711260	0.250000	0.750000
H11	H1	0.614800	0.544200	0.417800
H21	H2	0.723100	0.408300	0.520700
H31	H3	0.822200	0.196100	0.326500
H41	H4	0.701500	0.331000	0.228800
H51	H5	0.965500	0.673000	0.430400
H61	H6	0.174700	0.357000	0.409400
H71	H7	0.576800	0.955800	0.082200
H81	H8	0.652100	0.091700	0.979300
H91	H9	0.344800	0.303900	0.173500
H101	H10	0.261300	0.169000	0.271200
H111	H11	0.068900	0.827000	0.069600
H121	H12	0.941100	0.143000	0.090600
H131	H13	0.385200	0.455800	0.582200
H141	H14	0.276900	0.591700	0.479300
H151	H15	0.177800	0.803900	0.673500
H161	H16	0.298500	0.669000	0.771200
H171	H17	0.034500	0.327000	0.569600
H181	H18	0.825300	0.643000	0.590600
H191	H19	0.423200	0.044200	0.917800
H201	H20	0.347900	0.908300	0.020700
H211	H21	0.655200	0.696100	0.826500
H221	H22	0.738700	0.831000	0.728800
H231	H23	0.931100	0.173000	0.930400
H241	H24	0.058900	0.857000	0.909400
C11	C1	0.555060	0.537080	0.252200
C21	C2	0.642760	0.451080	0.314000
C31	C3	0.653170	0.473660	0.400400
C41	C4	0.720100	0.392500	0.461500
C51	C5	0.782420	0.287910	0.434850
C61	C6	0.777410	0.265880	0.346300
C71	C7	0.706570	0.346860	0.287400
C81	C8	0.849090	0.198970	0.502450
C91	C9	0.178190	0.537340	0.300880
C101	C10	0.083720	0.517980	0.403980
C111	C11	0.979500	0.603320	0.458280
C121	C12	0.104230	0.414740	0.445800
C131	C13	0.344340	0.962920	0.247800
C141	C14	0.407840	0.048920	0.186000
C151	C15	0.527230	0.026340	0.099600
C161	C16	0.574100	0.107500	0.038500
C171	C17	0.505180	0.212090	0.065150
C181	C18	0.389590	0.234120	0.153700
C191	C19	0.340830	0.153140	0.212600
C201	C20	0.550510	0.301030	0.997550
C211	C21	0.016410	0.962660	0.199120
C221	C22	0.005680	0.982020	0.096020
C231	C23	0.041100	0.896680	0.041720
C241	C24	0.964770	0.085260	0.054200
C251	C25	0.444940	0.462920	0.747800
C261	C26	0.357240	0.548920	0.686000
C271	C27	0.346830	0.526340	0.599600
C281	C28	0.279900	0.607500	0.538500
C291	C29	0.217580	0.712090	0.565150
C301	C30	0.222590	0.734120	0.653700
C311	C31	0.293430	0.653140	0.712600
C321	C32	0.150910	0.801030	0.497550
C331	C33	0.821810	0.462660	0.699120
C341	C34	0.916280	0.482020	0.596020
C351	C35	0.020500	0.396680	0.541720
C361	C36	0.895770	0.585260	0.554200
C371	C37	0.655660	0.037080	0.752200
C381	C38	0.592160	0.951080	0.814000
C391	C39	0.472770	0.973660	0.900400
C401	C40	0.425900	0.892500	0.961500
C411	C41	0.494820	0.787910	0.934850
C421	C42	0.610410	0.765880	0.846300
C431	C43	0.659170	0.846860	0.787400
C441	C44	0.449490	0.698970	0.002450
C451	C45	0.983590	0.037340	0.800880
C461	C46	0.994320	0.017980	0.903980
C471	C47	0.958900	0.103320	0.958280
C481	C48	0.035230	0.914740	0.945800
O11	O1	0.482760	0.627930	0.285150
O21	O2	0.558820	0.510460	0.172500
O31	O3	0.833240	0.216120	0.588200
O41	O4	0.922200	0.106150	0.472050
O51	O5	0.176920	0.630210	0.268350
O61	O6	0.257070	0.458440	0.250420
O71	O7	0.395840	0.872070	0.214850
O81	O8	0.241780	0.989540	0.327500
O91	O9	0.637560	0.283880	0.911800
O101	O10	0.500400	0.393850	0.027950
O111	O11	0.075480	0.869790	0.231650
O121	O12	0.965930	0.041560	0.249580
O131	O13	0.517240	0.372070	0.714850
O141	O14	0.441180	0.489540	0.827500
O151	O15	0.166760	0.783880	0.411800
O161	O16	0.077800	0.893850	0.527950
O171	O17	0.823080	0.369790	0.731650
O181	O18	0.742930	0.541560	0.749580
O191	O19	0.604160	0.127930	0.785150
O201	O20	0.758220	0.010460	0.672500
O211	O21	0.362440	0.716120	0.088200
O221	O22	0.499600	0.606150	0.972050
O231	O23	0.924520	0.130210	0.768350
O241	O24	0.034070	0.958440	0.750420
