data_MAJHUC_clean_PM
_symmetry_space_group_name_H-M	'P1'
_cell_length_a	11.347500
_cell_length_b	11.786000
_cell_length_c	21.203000
_cell_angle_alpha	96.259000
_cell_angle_beta	90.978000
_cell_angle_gamma	108.258000
_symmetry_Int_Tables_number 1

loop_
_symmetry_equiv_pos_as_xyz
'x,y,z'

loop_
_atom_site_label
_atom_site_type_symbol
_atom_site_fract_x
_atom_site_fract_y
_atom_site_fract_z
Mn11	Mn1	0.137150	0.477700	0.240590
Mn21	Mn2	0.862850	0.522300	0.759410
Mn31	Mn3	0.000000	0.000000	0.500000
Mn41	Mn4	0.500000	0.500000	0.000000
H11	H1	0.029300	0.660900	0.320800
H21	H2	0.601500	0.601000	0.870600
H31	H3	0.545700	0.607400	0.766900
H41	H4	0.341400	0.646300	0.158100
H51	H5	0.263200	0.412100	0.902000
H61	H6	0.198200	0.412700	0.799800
H71	H7	0.544500	0.769100	0.162200
H81	H8	0.562400	0.742800	0.348600
H91	H9	0.095400	0.122300	0.377100
H101	H10	0.963700	0.826000	0.317600
H111	H11	0.361400	0.620200	0.339500
H121	H12	0.760800	0.792100	0.280800
H131	H13	0.727100	0.910800	0.293900
H141	H14	0.886300	0.384400	0.152200
H151	H15	0.688500	0.251000	0.139500
H161	H16	0.748500	0.136800	0.305100
H171	H17	0.018000	0.809500	0.131100
H181	H18	0.763200	0.819200	0.170100
H191	H19	0.751900	0.947300	0.190400
H201	H20	0.206900	0.882600	0.451000
H211	H21	0.327300	0.865900	0.367000
H221	H22	0.287000	0.425700	0.682500
H231	H23	0.248200	0.539700	0.703500
H241	H24	0.447500	0.662000	0.679500
H251	H25	0.478700	0.545200	0.654300
H261	H26	0.086000	0.647500	0.139300
H271	H27	0.211900	0.112200	0.290600
H281	H28	0.319000	0.993900	0.223500
H291	H29	0.369900	0.901400	0.253500
H301	H30	0.945800	0.269500	0.311500
H311	H31	0.570100	0.006800	0.197400
H321	H32	0.518200	0.107900	0.179300
H331	H33	0.341100	0.759500	0.527500
H341	H34	0.592600	0.598400	0.563800
H351	H35	0.900200	0.355300	0.563300
H361	H36	0.944000	0.991700	0.256200
H371	H37	0.962200	0.981300	0.182800
H381	H38	0.327000	0.501100	0.572000
H391	H39	0.285200	0.610900	0.598700
H401	H40	0.877200	0.326100	0.036700
H411	H41	0.535700	0.054000	0.304100
H421	H42	0.480300	0.152200	0.284800
H431	H43	0.727300	0.724000	0.503000
H441	H44	0.483700	0.879500	0.467200
H451	H45	0.970700	0.339100	0.679200
H461	H46	0.398500	0.399000	0.129400
H471	H47	0.454300	0.392600	0.233100
H481	H48	0.658600	0.353700	0.841900
H491	H49	0.736800	0.587900	0.098000
H501	H50	0.801800	0.587300	0.200200
H511	H51	0.455500	0.230900	0.837800
H521	H52	0.437600	0.257200	0.651400
H531	H53	0.904600	0.877700	0.622900
H541	H54	0.036300	0.174000	0.682400
H551	H55	0.638600	0.379800	0.660500
H561	H56	0.239200	0.207900	0.719200
H571	H57	0.272900	0.089200	0.706100
H581	H58	0.113700	0.615600	0.847800
H591	H59	0.311500	0.749000	0.860500
H601	H60	0.251500	0.863200	0.694900
H611	H61	0.982000	0.190500	0.868900
H621	H62	0.236800	0.180800	0.829900
H631	H63	0.248100	0.052700	0.809600
H641	H64	0.793100	0.117400	0.549000
H651	H65	0.672700	0.134100	0.633000
H661	H66	0.713000	0.574300	0.317500
H671	H67	0.751800	0.460300	0.296500
H681	H68	0.552500	0.338000	0.320500
H691	H69	0.521300	0.454800	0.345700
H701	H70	0.914000	0.352500	0.860700
H711	H71	0.788100	0.887800	0.709400
H721	H72	0.681000	0.006100	0.776500
H731	H73	0.630100	0.098600	0.746500
H741	H74	0.054200	0.730500	0.688500
H751	H75	0.429900	0.993200	0.802600
H761	H76	0.481800	0.892100	0.820700
H771	H77	0.658900	0.240500	0.472500
H781	H78	0.407400	0.401600	0.436200
H791	H79	0.099800	0.644700	0.436700
H801	H80	0.056000	0.008300	0.743800
H811	H81	0.037800	0.018700	0.817200
H821	H82	0.673000	0.498900	0.428000
H831	H83	0.714800	0.389100	0.401300
H841	H84	0.122800	0.673900	0.963300
H851	H85	0.464300	0.946000	0.695900
H861	H86	0.519700	0.847800	0.715200
H871	H87	0.272700	0.276000	0.497000
H881	H88	0.516300	0.120500	0.532800
C11	C1	0.967900	0.243130	0.464860
C21	C2	0.115400	0.437100	0.385130
C31	C3	0.992300	0.377870	0.482660
C41	C4	0.026900	0.690900	0.282180
C51	C5	0.519200	0.562800	0.856230
C61	C6	0.486300	0.566700	0.793280
C71	C7	0.053900	0.466690	0.444530
C81	C8	0.386900	0.665100	0.196860
C91	C9	0.320800	0.451900	0.874650
C101	C10	0.281000	0.451700	0.812880
C111	C11	0.509700	0.739400	0.198790
C121	C12	0.579500	0.768600	0.255930
C131	C13	0.519800	0.723300	0.309070
C141	C14	0.141500	0.069300	0.374760
C151	C15	0.103600	0.377900	0.088510
C161	C16	0.986400	0.790300	0.280520
C171	C17	0.979600	0.836700	0.223010
C181	C18	0.364200	0.509600	0.769670
C191	C19	0.398400	0.650000	0.303320
C201	C20	0.717200	0.841100	0.262990
C211	C21	0.858800	0.332900	0.182990
C221	C22	0.738700	0.252800	0.175000
C231	C23	0.693700	0.175000	0.220640
C241	C24	0.774600	0.184900	0.272770
C251	C25	0.019000	0.780900	0.170240
C261	C26	0.782500	0.885300	0.204160
C271	C27	0.207200	0.928600	0.417980
C281	C28	0.280600	0.918300	0.367590
C291	C29	0.284000	0.987400	0.317600
C301	C30	0.318000	0.508700	0.701980
C311	C31	0.411900	0.580000	0.659210
C321	C32	0.059700	0.682700	0.175460
C331	C33	0.212300	0.064100	0.322540
C341	C34	0.361300	0.981000	0.260870
C351	C35	0.893500	0.266100	0.276620
C361	C36	0.563800	0.085400	0.212290
C371	C37	0.269100	0.584800	0.027790
C381	C38	0.418800	0.749500	0.523260
C391	C39	0.567400	0.654900	0.544590
C401	C40	0.940200	0.413300	0.537660
C411	C41	0.925100	0.936700	0.217230
C421	C42	0.356300	0.582400	0.593810
C431	C43	0.926600	0.396400	0.022130
C441	C44	0.489600	0.074500	0.270620
C451	C45	0.648500	0.731200	0.507510
C461	C46	0.505900	0.821800	0.486820
C471	C47	0.448900	0.662800	0.553020
C481	C48	0.128300	0.543100	0.016120
C491	C49	0.053700	0.438200	0.039260
C501	C50	0.032100	0.756870	0.535140
C511	C51	0.884600	0.562900	0.614870
C521	C52	0.007700	0.622130	0.517340
C531	C53	0.973100	0.309100	0.717820
C541	C54	0.480800	0.437200	0.143770
C551	C55	0.513700	0.433300	0.206720
C561	C56	0.946100	0.533310	0.555470
C571	C57	0.613100	0.334900	0.803140
C581	C58	0.679200	0.548100	0.125350
C591	C59	0.719000	0.548300	0.187120
C601	C60	0.490300	0.260600	0.801210
C611	C61	0.420500	0.231400	0.744070
C621	C62	0.480200	0.276700	0.690930
C631	C63	0.858500	0.930700	0.625240
C641	C64	0.896400	0.622100	0.911490
C651	C65	0.013600	0.209700	0.719480
C661	C66	0.020400	0.163300	0.776990
C671	C67	0.635800	0.490400	0.230330
C681	C68	0.601600	0.350000	0.696680
C691	C69	0.282800	0.158900	0.737010
C701	C70	0.141200	0.667100	0.817010
C711	C71	0.261300	0.747200	0.825000
C721	C72	0.306300	0.825000	0.779360
C731	C73	0.225400	0.815100	0.727230
C741	C74	0.981000	0.219100	0.829760
C751	C75	0.217500	0.114700	0.795840
C761	C76	0.792800	0.071400	0.582020
C771	C77	0.719400	0.081700	0.632410
C781	C78	0.716000	0.012600	0.682400
C791	C79	0.682000	0.491300	0.298020
C801	C80	0.588100	0.420000	0.340790
C811	C81	0.940300	0.317300	0.824540
C821	C82	0.787700	0.935900	0.677460
C831	C83	0.638700	0.019000	0.739130
C841	C84	0.106500	0.733900	0.723380
C851	C85	0.436200	0.914600	0.787710
C861	C86	0.730900	0.415200	0.972210
C871	C87	0.581200	0.250500	0.476740
C881	C88	0.432600	0.345100	0.455410
C891	C89	0.059800	0.586700	0.462340
C901	C90	0.074900	0.063300	0.782770
C911	C91	0.643700	0.417600	0.406190
C921	C92	0.073400	0.603600	0.977870
C931	C93	0.510400	0.925500	0.729380
C941	C94	0.351500	0.268800	0.492490
C951	C95	0.494100	0.178200	0.513180
C961	C96	0.551100	0.337200	0.446980
C971	C97	0.871700	0.456900	0.983880
C981	C98	0.946300	0.561800	0.960740
N11	N1	0.439100	0.507000	0.897410
N21	N2	0.136480	0.001260	0.421980
N31	N3	0.062900	0.636130	0.230590
N41	N4	0.937790	0.340700	0.232370
N51	N5	0.620000	0.813300	0.478290
N61	N6	0.330220	0.618990	0.247480
N71	N7	0.560900	0.493000	0.102590
N81	N8	0.863520	0.998740	0.578020
N91	N9	0.937100	0.363870	0.769410
N101	N10	0.062210	0.659300	0.767630
N111	N11	0.380000	0.186700	0.521710
N121	N12	0.669780	0.381010	0.752520
O11	O1	0.123680	0.506550	0.342140
O21	O2	0.025600	0.191910	0.497970
O31	O3	0.153220	0.347960	0.381380
O41	O4	0.886310	0.191870	0.421590
O51	O5	0.150440	0.443960	0.139540
O61	O6	0.089600	0.267400	0.077210
O71	O7	0.318870	0.503490	0.027650
O81	O8	0.325520	0.695300	0.035000
O91	O9	0.876320	0.493450	0.657860
O101	O10	0.974400	0.808090	0.502030
O111	O11	0.846780	0.652040	0.618620
O121	O12	0.113690	0.808130	0.578410
O131	O13	0.849560	0.556040	0.860460
O141	O14	0.910400	0.732600	0.922790
O151	O15	0.681130	0.496510	0.972350
O161	O16	0.674480	0.304700	0.965000
