data_MAKGOX_clean_PM
_symmetry_space_group_name_H-M	'P1'
_cell_length_a	11.548600
_cell_length_b	40.863500
_cell_length_c	16.777700
_cell_angle_alpha	90.000000
_cell_angle_beta	90.000000
_cell_angle_gamma	90.000000
_symmetry_Int_Tables_number 1

loop_
_symmetry_equiv_pos_as_xyz
'x,y,z'

loop_
_atom_site_label
_atom_site_type_symbol
_atom_site_fract_x
_atom_site_fract_y
_atom_site_fract_z
Gd11	Gd1	0.731390	0.514450	0.712800
O11	O1	0.710300	0.652200	0.750600
O21	O2	0.558100	0.540770	0.727100
C11	C1	0.442800	0.587700	0.710200
C21	C2	0.207200	0.648900	0.660500
O31	O3	0.537400	0.685160	0.531600
O41	O4	0.789300	0.551650	0.613500
N11	N1	0.113400	0.631390	0.637300
O51	O5	0.682300	0.717710	0.502800
C31	C3	0.535100	0.608700	0.723100
H11	H1	0.608800	0.600200	0.737400
O61	O6	0.601900	0.695580	0.725000
O71	O7	0.635500	0.563280	0.539600
N21	N2	0.185900	0.680100	0.665300
C41	C4	0.727100	0.571510	0.574700
O81	O8	0.367100	0.534690	0.730900
C51	C5	0.518800	0.642400	0.715000
C61	C6	0.839300	0.671420	0.574800
H21	H2	0.865300	0.693500	0.573300
C71	C7	0.877200	0.614220	0.598400
H31	H3	0.928800	0.597200	0.613500
C81	C8	0.031800	0.654680	0.625600
C91	C9	0.412300	0.654730	0.692800
H41	H4	0.402800	0.677700	0.686300
N31	N3	0.069900	0.684390	0.643100
C101	C10	0.643700	0.690430	0.527300
C111	C11	0.727200	0.663990	0.551900
C121	C12	0.318800	0.633920	0.679900
C131	C13	0.689400	0.631740	0.551700
H51	H5	0.612500	0.626600	0.535900
C141	C14	0.613700	0.666350	0.731000
C151	C15	0.333100	0.600030	0.689500
H61	H6	0.269500	0.585600	0.682000
C161	C16	0.765100	0.606920	0.574800
C171	C17	0.456300	0.551340	0.723400
C181	C18	0.913800	0.646940	0.599700
H71	H7	0.752000	0.665900	0.774000
H81	H8	0.048000	0.692000	0.596000
Gd21	Gd2	0.731390	0.014450	0.212800
O91	O9	0.710300	0.152200	0.250600
O101	O10	0.558100	0.040770	0.227100
C191	C19	0.442800	0.087700	0.210200
C201	C20	0.207200	0.148900	0.160500
O111	O11	0.537400	0.185160	0.031600
O121	O12	0.789300	0.051650	0.113500
N41	N4	0.113400	0.131390	0.137300
O131	O13	0.682300	0.217710	0.002800
C211	C21	0.535100	0.108700	0.223100
H91	H9	0.608800	0.100200	0.237400
O141	O14	0.601900	0.195580	0.225000
O151	O15	0.635500	0.063280	0.039600
N51	N5	0.185900	0.180100	0.165300
C221	C22	0.727100	0.071510	0.074700
O161	O16	0.367100	0.034690	0.230900
C231	C23	0.518800	0.142400	0.215000
C241	C24	0.839300	0.171420	0.074800
H101	H10	0.865300	0.193500	0.073300
C251	C25	0.877200	0.114220	0.098400
H111	H11	0.928800	0.097200	0.113500
C261	C26	0.031800	0.154680	0.125600
C271	C27	0.412300	0.154730	0.192800
H121	H12	0.402800	0.177700	0.186300
N61	N6	0.069900	0.184390	0.143100
C281	C28	0.643700	0.190430	0.027300
C291	C29	0.727200	0.163990	0.051900
C301	C30	0.318800	0.133920	0.179900
C311	C31	0.689400	0.131740	0.051700
H131	H13	0.612500	0.126600	0.035900
C321	C32	0.613700	0.166350	0.231000
C331	C33	0.333100	0.100030	0.189500
H141	H14	0.269500	0.085600	0.182000
C341	C34	0.765100	0.106920	0.074800
C351	C35	0.456300	0.051340	0.223400
C361	C36	0.913800	0.146940	0.099700
H151	H15	0.752000	0.165900	0.274000
H161	H16	0.048000	0.192000	0.096000
Gd31	Gd3	0.231390	0.514450	0.212800
O171	O17	0.210300	0.652200	0.250600
O181	O18	0.058100	0.540770	0.227100
C371	C37	0.942800	0.587700	0.210200
C381	C38	0.707200	0.648900	0.160500
O191	O19	0.037400	0.685160	0.031600
O201	O20	0.289300	0.551650	0.113500
N71	N7	0.613400	0.631390	0.137300
O211	O21	0.182300	0.717710	0.002800
C391	C39	0.035100	0.608700	0.223100
H171	H17	0.108800	0.600200	0.237400
O221	O22	0.101900	0.695580	0.225000
O231	O23	0.135500	0.563280	0.039600
N81	N8	0.685900	0.680100	0.165300
C401	C40	0.227100	0.571510	0.074700
O241	O24	0.867100	0.534690	0.230900
C411	C41	0.018800	0.642400	0.215000
C421	C42	0.339300	0.671420	0.074800
H181	H18	0.365300	0.693500	0.073300
C431	C43	0.377200	0.614220	0.098400
H191	H19	0.428800	0.597200	0.113500
C441	C44	0.531800	0.654680	0.125600
C451	C45	0.912300	0.654730	0.192800
H201	H20	0.902800	0.677700	0.186300
N91	N9	0.569900	0.684390	0.143100
C461	C46	0.143700	0.690430	0.027300
C471	C47	0.227200	0.663990	0.051900
C481	C48	0.818800	0.633920	0.179900
C491	C49	0.189400	0.631740	0.051700
H211	H21	0.112500	0.626600	0.035900
C501	C50	0.113700	0.666350	0.231000
C511	C51	0.833100	0.600030	0.189500
H221	H22	0.769500	0.585600	0.182000
C521	C52	0.265100	0.606920	0.074800
C531	C53	0.956300	0.551340	0.223400
C541	C54	0.413800	0.646940	0.099700
H231	H23	0.252000	0.665900	0.274000
H241	H24	0.548000	0.692000	0.096000
Gd41	Gd4	0.231390	0.014450	0.712800
O251	O25	0.210300	0.152200	0.750600
O261	O26	0.058100	0.040770	0.727100
C551	C55	0.942800	0.087700	0.710200
C561	C56	0.707200	0.148900	0.660500
O271	O27	0.037400	0.185160	0.531600
O281	O28	0.289300	0.051650	0.613500
N101	N10	0.613400	0.131390	0.637300
O291	O29	0.182300	0.217710	0.502800
C571	C57	0.035100	0.108700	0.723100
H251	H25	0.108800	0.100200	0.737400
O301	O30	0.101900	0.195580	0.725000
O311	O31	0.135500	0.063280	0.539600
N111	N11	0.685900	0.180100	0.665300
C581	C58	0.227100	0.071510	0.574700
O321	O32	0.867100	0.034690	0.730900
C591	C59	0.018800	0.142400	0.715000
C601	C60	0.339300	0.171420	0.574800
H261	H26	0.365300	0.193500	0.573300
C611	C61	0.377200	0.114220	0.598400
H271	H27	0.428800	0.097200	0.613500
C621	C62	0.531800	0.154680	0.625600
C631	C63	0.912300	0.154730	0.692800
H281	H28	0.902800	0.177700	0.686300
N121	N12	0.569900	0.184390	0.643100
C641	C64	0.143700	0.190430	0.527300
C651	C65	0.227200	0.163990	0.551900
C661	C66	0.818800	0.133920	0.679900
C671	C67	0.189400	0.131740	0.551700
H291	H29	0.112500	0.126600	0.535900
C681	C68	0.113700	0.166350	0.731000
C691	C69	0.833100	0.100030	0.689500
H301	H30	0.769500	0.085600	0.682000
C701	C70	0.265100	0.106920	0.574800
C711	C71	0.956300	0.051340	0.723400
C721	C72	0.413800	0.146940	0.599700
H311	H31	0.252000	0.165900	0.774000
H321	H32	0.548000	0.192000	0.596000
Gd51	Gd5	0.268610	0.485550	0.712800
O331	O33	0.289700	0.347800	0.750600
O341	O34	0.441900	0.459230	0.727100
C731	C73	0.557200	0.412300	0.710200
C741	C74	0.792800	0.351100	0.660500
O351	O35	0.462600	0.314840	0.531600
O361	O36	0.210700	0.448350	0.613500
N131	N13	0.886600	0.368610	0.637300
O371	O37	0.317700	0.282290	0.502800
C751	C75	0.464900	0.391300	0.723100
H331	H33	0.391200	0.399800	0.737400
O381	O38	0.398100	0.304420	0.725000
O391	O39	0.364500	0.436720	0.539600
N141	N14	0.814100	0.319900	0.665300
C761	C76	0.272900	0.428490	0.574700
O401	O40	0.632900	0.465310	0.730900
C771	C77	0.481200	0.357600	0.715000
C781	C78	0.160700	0.328580	0.574800
H341	H34	0.134700	0.306500	0.573300
C791	C79	0.122800	0.385780	0.598400
H351	H35	0.071200	0.402800	0.613500
C801	C80	0.968200	0.345320	0.625600
C811	C81	0.587700	0.345270	0.692800
H361	H36	0.597200	0.322300	0.686300
N151	N15	0.930100	0.315610	0.643100
C821	C82	0.356300	0.309570	0.527300
C831	C83	0.272800	0.336010	0.551900
C841	C84	0.681200	0.366080	0.679900
C851	C85	0.310600	0.368260	0.551700
H371	H37	0.387500	0.373400	0.535900
C861	C86	0.386300	0.333650	0.731000
C871	C87	0.666900	0.399970	0.689500
H381	H38	0.730500	0.414400	0.682000
C881	C88	0.234900	0.393080	0.574800
C891	C89	0.543700	0.448660	0.723400
C901	C90	0.086200	0.353060	0.599700
H391	H39	0.248000	0.334100	0.774000
H401	H40	0.952000	0.308000	0.596000
Gd61	Gd6	0.268610	0.985550	0.212800
O411	O41	0.289700	0.847800	0.250600
O421	O42	0.441900	0.959230	0.227100
C911	C91	0.557200	0.912300	0.210200
C921	C92	0.792800	0.851100	0.160500
O431	O43	0.462600	0.814840	0.031600
O441	O44	0.210700	0.948350	0.113500
N161	N16	0.886600	0.868610	0.137300
O451	O45	0.317700	0.782290	0.002800
C931	C93	0.464900	0.891300	0.223100
H411	H41	0.391200	0.899800	0.237400
O461	O46	0.398100	0.804420	0.225000
O471	O47	0.364500	0.936720	0.039600
N171	N17	0.814100	0.819900	0.165300
C941	C94	0.272900	0.928490	0.074700
O481	O48	0.632900	0.965310	0.230900
C951	C95	0.481200	0.857600	0.215000
C961	C96	0.160700	0.828580	0.074800
H421	H42	0.134700	0.806500	0.073300
C971	C97	0.122800	0.885780	0.098400
H431	H43	0.071200	0.902800	0.113500
C981	C98	0.968200	0.845320	0.125600
C991	C99	0.587700	0.845270	0.192800
H441	H44	0.597200	0.822300	0.186300
N181	N18	0.930100	0.815610	0.143100
C1001	C100	0.356300	0.809570	0.027300
C1011	C101	0.272800	0.836010	0.051900
C1021	C102	0.681200	0.866080	0.179900
C1031	C103	0.310600	0.868260	0.051700
H451	H45	0.387500	0.873400	0.035900
C1041	C104	0.386300	0.833650	0.231000
C1051	C105	0.666900	0.899970	0.189500
H461	H46	0.730500	0.914400	0.182000
C1061	C106	0.234900	0.893080	0.074800
C1071	C107	0.543700	0.948660	0.223400
C1081	C108	0.086200	0.853060	0.099700
H471	H47	0.248000	0.834100	0.274000
H481	H48	0.952000	0.808000	0.096000
Gd71	Gd7	0.768610	0.485550	0.212800
O491	O49	0.789700	0.347800	0.250600
O501	O50	0.941900	0.459230	0.227100
C1091	C109	0.057200	0.412300	0.210200
C1101	C110	0.292800	0.351100	0.160500
O511	O51	0.962600	0.314840	0.031600
O521	O52	0.710700	0.448350	0.113500
N191	N19	0.386600	0.368610	0.137300
O531	O53	0.817700	0.282290	0.002800
C1111	C111	0.964900	0.391300	0.223100
H491	H49	0.891200	0.399800	0.237400
O541	O54	0.898100	0.304420	0.225000
O551	O55	0.864500	0.436720	0.039600
N201	N20	0.314100	0.319900	0.165300
C1121	C112	0.772900	0.428490	0.074700
O561	O56	0.132900	0.465310	0.230900
C1131	C113	0.981200	0.357600	0.215000
C1141	C114	0.660700	0.328580	0.074800
H501	H50	0.634700	0.306500	0.073300
C1151	C115	0.622800	0.385780	0.098400
H511	H51	0.571200	0.402800	0.113500
C1161	C116	0.468200	0.345320	0.125600
C1171	C117	0.087700	0.345270	0.192800
H521	H52	0.097200	0.322300	0.186300
N211	N21	0.430100	0.315610	0.143100
C1181	C118	0.856300	0.309570	0.027300
C1191	C119	0.772800	0.336010	0.051900
C1201	C120	0.181200	0.366080	0.179900
C1211	C121	0.810600	0.368260	0.051700
H531	H53	0.887500	0.373400	0.035900
C1221	C122	0.886300	0.333650	0.231000
C1231	C123	0.166900	0.399970	0.189500
H541	H54	0.230500	0.414400	0.182000
C1241	C124	0.734900	0.393080	0.074800
C1251	C125	0.043700	0.448660	0.223400
C1261	C126	0.586200	0.353060	0.099700
H551	H55	0.748000	0.334100	0.274000
H561	H56	0.452000	0.308000	0.096000
Gd81	Gd8	0.768610	0.985550	0.712800
O571	O57	0.789700	0.847800	0.750600
O581	O58	0.941900	0.959230	0.727100
C1271	C127	0.057200	0.912300	0.710200
C1281	C128	0.292800	0.851100	0.660500
O591	O59	0.962600	0.814840	0.531600
O601	O60	0.710700	0.948350	0.613500
N221	N22	0.386600	0.868610	0.637300
O611	O61	0.817700	0.782290	0.502800
C1291	C129	0.964900	0.891300	0.723100
H571	H57	0.891200	0.899800	0.737400
O621	O62	0.898100	0.804420	0.725000
O631	O63	0.864500	0.936720	0.539600
N231	N23	0.314100	0.819900	0.665300
C1301	C130	0.772900	0.928490	0.574700
O641	O64	0.132900	0.965310	0.730900
C1311	C131	0.981200	0.857600	0.715000
C1321	C132	0.660700	0.828580	0.574800
H581	H58	0.634700	0.806500	0.573300
C1331	C133	0.622800	0.885780	0.598400
H591	H59	0.571200	0.902800	0.613500
C1341	C134	0.468200	0.845320	0.625600
C1351	C135	0.087700	0.845270	0.692800
H601	H60	0.097200	0.822300	0.686300
N241	N24	0.430100	0.815610	0.643100
C1361	C136	0.856300	0.809570	0.527300
C1371	C137	0.772800	0.836010	0.551900
C1381	C138	0.181200	0.866080	0.679900
C1391	C139	0.810600	0.868260	0.551700
H611	H61	0.887500	0.873400	0.535900
C1401	C140	0.886300	0.833650	0.731000
C1411	C141	0.166900	0.899970	0.689500
H621	H62	0.230500	0.914400	0.682000
C1421	C142	0.734900	0.893080	0.574800
C1431	C143	0.043700	0.948660	0.723400
C1441	C144	0.586200	0.853060	0.599700
H631	H63	0.748000	0.834100	0.774000
H641	H64	0.452000	0.808000	0.596000
Gd91	Gd9	0.981390	0.735550	0.962800
O651	O65	0.960300	0.597800	0.000600
O661	O66	0.808100	0.709230	0.977100
C1451	C145	0.692800	0.662300	0.960200
C1461	C146	0.457200	0.601100	0.910500
O671	O67	0.787400	0.564840	0.781600
O681	O68	0.039300	0.698350	0.863500
N251	N25	0.363400	0.618610	0.887300
O691	O69	0.932300	0.532290	0.752800
C1471	C147	0.785100	0.641300	0.973100
H651	H65	0.858800	0.649800	0.987400
O701	O70	0.851900	0.554420	0.975000
O711	O71	0.885500	0.686720	0.789600
N261	N26	0.435900	0.569900	0.915300
C1481	C148	0.977100	0.678490	0.824700
O721	O72	0.617100	0.715310	0.980900
C1491	C149	0.768800	0.607600	0.965000
C1501	C150	0.089300	0.578580	0.824800
H661	H66	0.115300	0.556500	0.823300
C1511	C151	0.127200	0.635780	0.848400
H671	H67	0.178800	0.652800	0.863500
C1521	C152	0.281800	0.595320	0.875600
C1531	C153	0.662300	0.595270	0.942800
H681	H68	0.652800	0.572300	0.936300
N271	N27	0.319900	0.565610	0.893100
C1541	C154	0.893700	0.559570	0.777300
C1551	C155	0.977200	0.586010	0.801900
C1561	C156	0.568800	0.616080	0.929900
C1571	C157	0.939400	0.618260	0.801700
H691	H69	0.862500	0.623400	0.785900
C1581	C158	0.863700	0.583650	0.981000
C1591	C159	0.583100	0.649970	0.939500
H701	H70	0.519500	0.664400	0.932000
C1601	C160	0.015100	0.643080	0.824800
C1611	C161	0.706300	0.698660	0.973400
C1621	C162	0.163800	0.603060	0.849700
H711	H71	0.002000	0.584100	0.024000
H721	H72	0.298000	0.558000	0.846000
Gd101	Gd10	0.981390	0.235550	0.462800
O731	O73	0.960300	0.097800	0.500600
O741	O74	0.808100	0.209230	0.477100
C1631	C163	0.692800	0.162300	0.460200
C1641	C164	0.457200	0.101100	0.410500
O751	O75	0.787400	0.064840	0.281600
O761	O76	0.039300	0.198350	0.363500
N281	N28	0.363400	0.118610	0.387300
O771	O77	0.932300	0.032290	0.252800
C1651	C165	0.785100	0.141300	0.473100
H731	H73	0.858800	0.149800	0.487400
O781	O78	0.851900	0.054420	0.475000
O791	O79	0.885500	0.186720	0.289600
N291	N29	0.435900	0.069900	0.415300
C1661	C166	0.977100	0.178490	0.324700
O801	O80	0.617100	0.215310	0.480900
C1671	C167	0.768800	0.107600	0.465000
C1681	C168	0.089300	0.078580	0.324800
H741	H74	0.115300	0.056500	0.323300
C1691	C169	0.127200	0.135780	0.348400
H751	H75	0.178800	0.152800	0.363500
C1701	C170	0.281800	0.095320	0.375600
C1711	C171	0.662300	0.095270	0.442800
H761	H76	0.652800	0.072300	0.436300
N301	N30	0.319900	0.065610	0.393100
C1721	C172	0.893700	0.059570	0.277300
C1731	C173	0.977200	0.086010	0.301900
C1741	C174	0.568800	0.116080	0.429900
C1751	C175	0.939400	0.118260	0.301700
H771	H77	0.862500	0.123400	0.285900
C1761	C176	0.863700	0.083650	0.481000
C1771	C177	0.583100	0.149970	0.439500
H781	H78	0.519500	0.164400	0.432000
C1781	C178	0.015100	0.143080	0.324800
C1791	C179	0.706300	0.198660	0.473400
C1801	C180	0.163800	0.103060	0.349700
H791	H79	0.002000	0.084100	0.524000
H801	H80	0.298000	0.058000	0.346000
Gd111	Gd11	0.481390	0.735550	0.462800
O811	O81	0.460300	0.597800	0.500600
O821	O82	0.308100	0.709230	0.477100
C1811	C181	0.192800	0.662300	0.460200
C1821	C182	0.957200	0.601100	0.410500
O831	O83	0.287400	0.564840	0.281600
O841	O84	0.539300	0.698350	0.363500
N311	N31	0.863400	0.618610	0.387300
O851	O85	0.432300	0.532290	0.252800
C1831	C183	0.285100	0.641300	0.473100
H811	H81	0.358800	0.649800	0.487400
O861	O86	0.351900	0.554420	0.475000
O871	O87	0.385500	0.686720	0.289600
N321	N32	0.935900	0.569900	0.415300
C1841	C184	0.477100	0.678490	0.324700
O881	O88	0.117100	0.715310	0.480900
C1851	C185	0.268800	0.607600	0.465000
C1861	C186	0.589300	0.578580	0.324800
H821	H82	0.615300	0.556500	0.323300
C1871	C187	0.627200	0.635780	0.348400
H831	H83	0.678800	0.652800	0.363500
C1881	C188	0.781800	0.595320	0.375600
C1891	C189	0.162300	0.595270	0.442800
H841	H84	0.152800	0.572300	0.436300
N331	N33	0.819900	0.565610	0.393100
C1901	C190	0.393700	0.559570	0.277300
C1911	C191	0.477200	0.586010	0.301900
C1921	C192	0.068800	0.616080	0.429900
C1931	C193	0.439400	0.618260	0.301700
H851	H85	0.362500	0.623400	0.285900
C1941	C194	0.363700	0.583650	0.481000
C1951	C195	0.083100	0.649970	0.439500
H861	H86	0.019500	0.664400	0.432000
C1961	C196	0.515100	0.643080	0.324800
C1971	C197	0.206300	0.698660	0.473400
C1981	C198	0.663800	0.603060	0.349700
H871	H87	0.502000	0.584100	0.524000
H881	H88	0.798000	0.558000	0.346000
Gd121	Gd12	0.481390	0.235550	0.962800
O891	O89	0.460300	0.097800	0.000600
O901	O90	0.308100	0.209230	0.977100
C1991	C199	0.192800	0.162300	0.960200
C2001	C200	0.957200	0.101100	0.910500
O911	O91	0.287400	0.064840	0.781600
O921	O92	0.539300	0.198350	0.863500
N341	N34	0.863400	0.118610	0.887300
O931	O93	0.432300	0.032290	0.752800
C2011	C201	0.285100	0.141300	0.973100
H891	H89	0.358800	0.149800	0.987400
O941	O94	0.351900	0.054420	0.975000
O951	O95	0.385500	0.186720	0.789600
N351	N35	0.935900	0.069900	0.915300
C2021	C202	0.477100	0.178490	0.824700
O961	O96	0.117100	0.215310	0.980900
C2031	C203	0.268800	0.107600	0.965000
C2041	C204	0.589300	0.078580	0.824800
H901	H90	0.615300	0.056500	0.823300
C2051	C205	0.627200	0.135780	0.848400
H911	H91	0.678800	0.152800	0.863500
C2061	C206	0.781800	0.095320	0.875600
C2071	C207	0.162300	0.095270	0.942800
H921	H92	0.152800	0.072300	0.936300
N361	N36	0.819900	0.065610	0.893100
C2081	C208	0.393700	0.059570	0.777300
C2091	C209	0.477200	0.086010	0.801900
C2101	C210	0.068800	0.116080	0.929900
C2111	C211	0.439400	0.118260	0.801700
H931	H93	0.362500	0.123400	0.785900
C2121	C212	0.363700	0.083650	0.981000
C2131	C213	0.083100	0.149970	0.939500
H941	H94	0.019500	0.164400	0.932000
C2141	C214	0.515100	0.143080	0.824800
C2151	C215	0.206300	0.198660	0.973400
C2161	C216	0.663800	0.103060	0.849700
H951	H95	0.502000	0.084100	0.024000
H961	H96	0.798000	0.058000	0.846000
Gd131	Gd13	0.518610	0.764450	0.962800
O971	O97	0.539700	0.902200	0.000600
O981	O98	0.691900	0.790770	0.977100
C2171	C217	0.807200	0.837700	0.960200
C2181	C218	0.042800	0.898900	0.910500
O991	O99	0.712600	0.935160	0.781600
O1001	O100	0.460700	0.801650	0.863500
N371	N37	0.136600	0.881390	0.887300
O1011	O101	0.567700	0.967710	0.752800
C2191	C219	0.714900	0.858700	0.973100
H971	H97	0.641200	0.850200	0.987400
O1021	O102	0.648100	0.945580	0.975000
O1031	O103	0.614500	0.813280	0.789600
N381	N38	0.064100	0.930100	0.915300
C2201	C220	0.522900	0.821510	0.824700
O1041	O104	0.882900	0.784690	0.980900
C2211	C221	0.731200	0.892400	0.965000
C2221	C222	0.410700	0.921420	0.824800
H981	H98	0.384700	0.943500	0.823300
C2231	C223	0.372800	0.864220	0.848400
H991	H99	0.321200	0.847200	0.863500
C2241	C224	0.218200	0.904680	0.875600
C2251	C225	0.837700	0.904730	0.942800
H1001	H100	0.847200	0.927700	0.936300
N391	N39	0.180100	0.934390	0.893100
C2261	C226	0.606300	0.940430	0.777300
C2271	C227	0.522800	0.913990	0.801900
C2281	C228	0.931200	0.883920	0.929900
C2291	C229	0.560600	0.881740	0.801700
H1011	H101	0.637500	0.876600	0.785900
C2301	C230	0.636300	0.916350	0.981000
C2311	C231	0.916900	0.850030	0.939500
H1021	H102	0.980500	0.835600	0.932000
C2321	C232	0.484900	0.856920	0.824800
C2331	C233	0.793700	0.801340	0.973400
C2341	C234	0.336200	0.896940	0.849700
H1031	H103	0.498000	0.915900	0.024000
H1041	H104	0.202000	0.942000	0.846000
Gd141	Gd14	0.518610	0.264450	0.462800
O1051	O105	0.539700	0.402200	0.500600
O1061	O106	0.691900	0.290770	0.477100
C2351	C235	0.807200	0.337700	0.460200
C2361	C236	0.042800	0.398900	0.410500
O1071	O107	0.712600	0.435160	0.281600
O1081	O108	0.460700	0.301650	0.363500
N401	N40	0.136600	0.381390	0.387300
O1091	O109	0.567700	0.467710	0.252800
C2371	C237	0.714900	0.358700	0.473100
H1051	H105	0.641200	0.350200	0.487400
O1101	O110	0.648100	0.445580	0.475000
O1111	O111	0.614500	0.313280	0.289600
N411	N41	0.064100	0.430100	0.415300
C2381	C238	0.522900	0.321510	0.324700
O1121	O112	0.882900	0.284690	0.480900
C2391	C239	0.731200	0.392400	0.465000
C2401	C240	0.410700	0.421420	0.324800
H1061	H106	0.384700	0.443500	0.323300
C2411	C241	0.372800	0.364220	0.348400
H1071	H107	0.321200	0.347200	0.363500
C2421	C242	0.218200	0.404680	0.375600
C2431	C243	0.837700	0.404730	0.442800
H1081	H108	0.847200	0.427700	0.436300
N421	N42	0.180100	0.434390	0.393100
C2441	C244	0.606300	0.440430	0.277300
C2451	C245	0.522800	0.413990	0.301900
C2461	C246	0.931200	0.383920	0.429900
C2471	C247	0.560600	0.381740	0.301700
H1091	H109	0.637500	0.376600	0.285900
C2481	C248	0.636300	0.416350	0.481000
C2491	C249	0.916900	0.350030	0.439500
H1101	H110	0.980500	0.335600	0.432000
C2501	C250	0.484900	0.356920	0.324800
C2511	C251	0.793700	0.301340	0.473400
C2521	C252	0.336200	0.396940	0.349700
H1111	H111	0.498000	0.415900	0.524000
H1121	H112	0.202000	0.442000	0.346000
Gd151	Gd15	0.018610	0.764450	0.462800
O1131	O113	0.039700	0.902200	0.500600
O1141	O114	0.191900	0.790770	0.477100
C2531	C253	0.307200	0.837700	0.460200
C2541	C254	0.542800	0.898900	0.410500
O1151	O115	0.212600	0.935160	0.281600
O1161	O116	0.960700	0.801650	0.363500
N431	N43	0.636600	0.881390	0.387300
O1171	O117	0.067700	0.967710	0.252800
C2551	C255	0.214900	0.858700	0.473100
H1131	H113	0.141200	0.850200	0.487400
O1181	O118	0.148100	0.945580	0.475000
O1191	O119	0.114500	0.813280	0.289600
N441	N44	0.564100	0.930100	0.415300
C2561	C256	0.022900	0.821510	0.324700
O1201	O120	0.382900	0.784690	0.480900
C2571	C257	0.231200	0.892400	0.465000
C2581	C258	0.910700	0.921420	0.324800
H1141	H114	0.884700	0.943500	0.323300
C2591	C259	0.872800	0.864220	0.348400
H1151	H115	0.821200	0.847200	0.363500
C2601	C260	0.718200	0.904680	0.375600
C2611	C261	0.337700	0.904730	0.442800
H1161	H116	0.347200	0.927700	0.436300
N451	N45	0.680100	0.934390	0.393100
C2621	C262	0.106300	0.940430	0.277300
C2631	C263	0.022800	0.913990	0.301900
C2641	C264	0.431200	0.883920	0.429900
C2651	C265	0.060600	0.881740	0.301700
H1171	H117	0.137500	0.876600	0.285900
C2661	C266	0.136300	0.916350	0.481000
C2671	C267	0.416900	0.850030	0.439500
H1181	H118	0.480500	0.835600	0.432000
C2681	C268	0.984900	0.856920	0.324800
C2691	C269	0.293700	0.801340	0.473400
C2701	C270	0.836200	0.896940	0.349700
H1191	H119	0.998000	0.915900	0.524000
H1201	H120	0.702000	0.942000	0.346000
Gd161	Gd16	0.018610	0.264450	0.962800
O1211	O121	0.039700	0.402200	0.000600
O1221	O122	0.191900	0.290770	0.977100
C2711	C271	0.307200	0.337700	0.960200
C2721	C272	0.542800	0.398900	0.910500
O1231	O123	0.212600	0.435160	0.781600
O1241	O124	0.960700	0.301650	0.863500
N461	N46	0.636600	0.381390	0.887300
O1251	O125	0.067700	0.467710	0.752800
C2731	C273	0.214900	0.358700	0.973100
H1211	H121	0.141200	0.350200	0.987400
O1261	O126	0.148100	0.445580	0.975000
O1271	O127	0.114500	0.313280	0.789600
N471	N47	0.564100	0.430100	0.915300
C2741	C274	0.022900	0.321510	0.824700
O1281	O128	0.382900	0.284690	0.980900
C2751	C275	0.231200	0.392400	0.965000
C2761	C276	0.910700	0.421420	0.824800
H1221	H122	0.884700	0.443500	0.823300
C2771	C277	0.872800	0.364220	0.848400
H1231	H123	0.821200	0.347200	0.863500
C2781	C278	0.718200	0.404680	0.875600
C2791	C279	0.337700	0.404730	0.942800
H1241	H124	0.347200	0.427700	0.936300
N481	N48	0.680100	0.434390	0.893100
C2801	C280	0.106300	0.440430	0.777300
C2811	C281	0.022800	0.413990	0.801900
C2821	C282	0.431200	0.383920	0.929900
C2831	C283	0.060600	0.381740	0.801700
H1251	H125	0.137500	0.376600	0.785900
C2841	C284	0.136300	0.416350	0.981000
C2851	C285	0.416900	0.350030	0.939500
H1261	H126	0.480500	0.335600	0.932000
C2861	C286	0.984900	0.356920	0.824800
C2871	C287	0.293700	0.301340	0.973400
C2881	C288	0.836200	0.396940	0.849700
H1271	H127	0.998000	0.415900	0.024000
H1281	H128	0.702000	0.442000	0.846000
