data_MAKRIC_clean_PM
_symmetry_space_group_name_H-M	'P1'
_cell_length_a	8.447000
_cell_length_b	11.125100
_cell_length_c	17.581000
_cell_angle_alpha	77.882000
_cell_angle_beta	88.741000
_cell_angle_gamma	79.060000
_symmetry_Int_Tables_number 1

loop_
_symmetry_equiv_pos_as_xyz
'x,y,z'

loop_
_atom_site_label
_atom_site_type_symbol
_atom_site_fract_x
_atom_site_fract_y
_atom_site_fract_z
C11	C1	0.793500	0.486300	0.365200
C21	C2	0.796000	0.427900	0.301200
H11	H1	0.711800	0.437400	0.266000
C31	C3	0.944200	0.355300	0.300600
H21	H2	0.981100	0.305900	0.264900
C41	C4	0.034300	0.369700	0.366700
C51	C5	0.188500	0.307500	0.384800
C61	C6	0.268600	0.317100	0.448000
C71	C7	0.428400	0.250800	0.471700
H31	H3	0.493900	0.196700	0.445200
C81	C8	0.466700	0.278200	0.535800
H41	H4	0.561000	0.243300	0.565000
C91	C9	0.336800	0.373200	0.554700
C101	C10	0.339500	0.423700	0.617800
C111	C11	0.270700	0.225500	0.331200
C121	C12	0.356900	0.278100	0.268500
H51	H5	0.368100	0.361300	0.261400
C131	C13	0.428100	0.202800	0.215200
H61	H6	0.485100	0.238000	0.173200
C141	C14	0.414100	0.084300	0.224700
C151	C15	0.328800	0.029200	0.286900
H71	H7	0.317800	0.946100	0.293100
C161	C16	0.259700	0.101400	0.340200
H81	H8	0.205300	0.064400	0.382600
C171	C17	0.582200	0.039200	0.117900
H91	H9	0.648200	0.963700	0.106800
H101	H10	0.653000	0.083700	0.139200
C181	C18	0.508200	0.121200	0.041600
C191	C19	0.478700	0.386800	0.674100
C201	C20	0.453900	0.324200	0.750000
H111	H11	0.352400	0.306900	0.763900
C211	C21	0.578300	0.288000	0.804300
H121	H12	0.560500	0.246400	0.854500
C221	C22	0.730200	0.313700	0.784200
C231	C23	0.755600	0.374600	0.709400
H131	H13	0.857200	0.391300	0.695300
C241	C24	0.629300	0.411200	0.654800
H141	H14	0.647400	0.452700	0.604600
C251	C25	0.998600	0.298000	0.833200
H151	H15	0.993800	0.387500	0.826200
H161	H16	0.047400	0.270800	0.787700
C261	C26	0.095000	0.230500	0.904300
K11	K1	0.843680	0.007720	0.908290
N11	N1	0.939700	0.449400	0.406800
N21	N2	0.212300	0.392900	0.500600
O11	O1	0.469600	0.004200	0.175600
O21	O2	0.356600	0.165300	0.039700
O31	O3	0.600800	0.137000	0.986700
O41	O4	0.843300	0.270500	0.843100
O51	O5	0.225400	0.273000	0.912300
H171	H17	0.255500	0.252700	0.958000
O61	O6	0.058300	0.144400	0.948400
C271	C27	0.206500	0.513700	0.634800
C281	C28	0.204000	0.572100	0.698800
H181	H18	0.288200	0.562600	0.734000
C291	C29	0.055800	0.644700	0.699400
H191	H19	0.018900	0.694100	0.735100
C301	C30	0.965700	0.630300	0.633300
C311	C31	0.811500	0.692500	0.615200
C321	C32	0.731400	0.682900	0.552000
C331	C33	0.571600	0.749200	0.528300
H201	H20	0.506100	0.803300	0.554800
C341	C34	0.533300	0.721800	0.464200
H211	H21	0.439000	0.756700	0.435000
C351	C35	0.663200	0.626800	0.445300
C361	C36	0.660500	0.576300	0.382200
C371	C37	0.729300	0.774500	0.668800
C381	C38	0.643100	0.721900	0.731500
H221	H22	0.631900	0.638700	0.738600
C391	C39	0.571900	0.797200	0.784800
H231	H23	0.514900	0.762000	0.826800
C401	C40	0.585900	0.915700	0.775300
C411	C41	0.671200	0.970800	0.713100
H241	H24	0.682200	0.053900	0.706900
C421	C42	0.740300	0.898600	0.659800
H251	H25	0.794700	0.935600	0.617400
C431	C43	0.417800	0.960800	0.882100
H261	H26	0.351800	0.036300	0.893200
H271	H27	0.347000	0.916300	0.860800
C441	C44	0.491800	0.878800	0.958400
C451	C45	0.521300	0.613200	0.325900
C461	C46	0.546100	0.675800	0.250000
H281	H28	0.647600	0.693100	0.236100
C471	C47	0.421700	0.712000	0.195700
H291	H29	0.439500	0.753600	0.145500
C481	C48	0.269800	0.686300	0.215800
C491	C49	0.244400	0.625400	0.290600
H301	H30	0.142800	0.608700	0.304700
C501	C50	0.370700	0.588800	0.345200
H311	H31	0.352600	0.547300	0.395400
C511	C51	0.001400	0.702000	0.166800
H321	H32	0.006200	0.612500	0.173800
H331	H33	0.952600	0.729200	0.212300
C521	C52	0.905000	0.769500	0.095700
K21	K2	0.156320	0.992280	0.091710
N31	N3	0.060300	0.550600	0.593200
N41	N4	0.787700	0.607100	0.499400
O71	O7	0.530400	0.995800	0.824400
O81	O8	0.643400	0.834700	0.960300
O91	O9	0.399200	0.863000	0.013300
O101	O10	0.156700	0.729500	0.156900
O111	O11	0.774600	0.727000	0.087700
H341	H34	0.744500	0.747300	0.042000
O121	O12	0.941700	0.855600	0.051600
Ni11	Ni1	0.000000	0.500000	0.500000
