data_MAKSUO_clean_PM
_symmetry_space_group_name_H-M	'P1'
_cell_length_a	10.058000
_cell_length_b	16.679000
_cell_length_c	18.527100
_cell_angle_alpha	106.227000
_cell_angle_beta	105.750000
_cell_angle_gamma	90.000000
_symmetry_Int_Tables_number 1

loop_
_symmetry_equiv_pos_as_xyz
'x,y,z'

loop_
_atom_site_label
_atom_site_type_symbol
_atom_site_fract_x
_atom_site_fract_y
_atom_site_fract_z
Cd11	Cd1	0.410940	0.877570	0.418380
Cd21	Cd2	0.812340	0.782060	0.693760
Cd31	Cd3	0.992560	0.622430	0.581620
Cd41	Cd4	0.118580	0.717940	0.306240
Cd51	Cd5	0.589060	0.122430	0.581620
Cd61	Cd6	0.187660	0.217940	0.306240
Cd71	Cd7	0.007440	0.377570	0.418380
Cd81	Cd8	0.881420	0.282060	0.693760
H11	H1	0.516500	0.854100	0.225800
H21	H2	0.197500	0.862400	0.993000
H31	H3	0.126500	0.820700	0.086800
H41	H4	0.787200	0.830000	0.171400
H51	H5	0.716600	0.882700	0.233600
H61	H6	0.021500	0.892400	0.197200
H71	H7	0.175500	0.006300	0.234600
H81	H8	0.882600	0.155600	0.259200
H91	H9	0.724400	0.045100	0.225600
H101	H10	0.326600	0.914900	0.908600
H111	H11	0.328200	0.820200	0.907000
H121	H12	0.341200	0.801800	0.768600
H131	H13	0.488800	0.780200	0.689600
H141	H14	0.803600	0.873600	0.873800
H151	H15	0.661500	0.907000	0.952000
H161	H16	0.834300	0.906500	0.393000
H171	H17	0.132500	0.079900	0.415600
H181	H18	0.761900	0.148500	0.441600
H191	H19	0.290700	0.645900	0.774200
H201	H20	0.204500	0.637600	0.007000
H211	H21	0.039700	0.679300	0.913200
H221	H22	0.615800	0.670000	0.828600
H231	H23	0.483000	0.617300	0.766400
H241	H24	0.824300	0.607600	0.802800
H251	H25	0.940900	0.493700	0.765400
H261	H26	0.623400	0.344400	0.740800
H271	H27	0.498800	0.454900	0.774400
H281	H28	0.418000	0.585100	0.091400
H291	H29	0.421200	0.679800	0.093000
H301	H30	0.572600	0.698200	0.231400
H311	H31	0.799200	0.719800	0.310400
H321	H32	0.929800	0.626400	0.126200
H331	H33	0.709500	0.593000	0.048000
H341	H34	0.441300	0.593500	0.607000
H351	H35	0.716900	0.420100	0.584400
H361	H36	0.320300	0.351500	0.558400
H371	H37	0.483500	0.145900	0.774200
H381	H38	0.802500	0.137600	0.007000
H391	H39	0.873500	0.179300	0.913200
H401	H40	0.212800	0.170000	0.828600
H411	H41	0.283400	0.117300	0.766400
H421	H42	0.978500	0.107600	0.802800
H431	H43	0.824500	0.993700	0.765400
H441	H44	0.117400	0.844400	0.740800
H451	H45	0.275600	0.954900	0.774400
H461	H46	0.673400	0.085100	0.091400
H471	H47	0.671800	0.179800	0.093000
H481	H48	0.658800	0.198200	0.231400
H491	H49	0.511200	0.219800	0.310400
H501	H50	0.196400	0.126400	0.126200
H511	H51	0.338500	0.093000	0.048000
H521	H52	0.165700	0.093500	0.607000
H531	H53	0.867500	0.920100	0.584400
H541	H54	0.238100	0.851500	0.558400
H551	H55	0.709300	0.354100	0.225800
H561	H56	0.795500	0.362400	0.993000
H571	H57	0.960300	0.320700	0.086800
H581	H58	0.384200	0.330000	0.171400
H591	H59	0.517000	0.382700	0.233600
H601	H60	0.175700	0.392400	0.197200
H611	H61	0.059100	0.506300	0.234600
H621	H62	0.376600	0.655600	0.259200
H631	H63	0.501200	0.545100	0.225600
H641	H64	0.582000	0.414900	0.908600
H651	H65	0.578800	0.320200	0.907000
H661	H66	0.427400	0.301800	0.768600
H671	H67	0.200800	0.280200	0.689600
H681	H68	0.070200	0.373600	0.873800
H691	H69	0.290500	0.407000	0.952000
H701	H70	0.558700	0.406500	0.393000
H711	H71	0.283100	0.579900	0.415600
H721	H72	0.679700	0.648500	0.441600
C11	C1	0.263200	0.797800	0.222200
C21	C2	0.310400	0.831500	0.165400
C31	C3	0.452900	0.853500	0.178600
C41	C4	0.497000	0.874100	0.121200
C51	C5	0.403900	0.875600	0.052000
C61	C6	0.261500	0.858400	0.038400
C71	C7	0.220200	0.834900	0.095800
C81	C8	0.747600	0.882600	0.188400
C91	C9	0.852000	0.954700	0.208200
C101	C10	0.991000	0.945700	0.210200
C111	C11	0.082700	0.014200	0.231200
C121	C12	0.910700	0.101600	0.246000
C131	C13	0.815700	0.035300	0.226400
C141	C14	0.386200	0.871300	0.919200
C151	C15	0.485100	0.857600	0.868600
C161	C16	0.435100	0.818800	0.790600
C171	C17	0.525000	0.804600	0.743400
C181	C18	0.708700	0.861000	0.851600
C191	C19	0.624600	0.879500	0.898800
C201	C20	0.635200	0.001100	0.422600
C211	C21	0.776100	0.024700	0.419600
C221	C22	0.864300	0.962300	0.402800
C231	C23	0.999700	0.982900	0.400800
C241	C24	0.042800	0.065800	0.415200
C251	C25	0.955000	0.128200	0.428600
C261	C26	0.821000	0.106500	0.431600
C271	C27	0.093500	0.913800	0.384000
C281	C28	0.991300	0.216500	0.432400
C291	C29	0.041000	0.702200	0.777800
C301	C30	0.145000	0.668500	0.834600
C311	C31	0.274300	0.646500	0.821400
C321	C32	0.375800	0.625900	0.878800
C331	C33	0.351900	0.624400	0.948000
C341	C34	0.223100	0.641600	0.961600
C351	C35	0.124400	0.665100	0.904200
C361	C36	0.559200	0.617400	0.811600
C371	C37	0.643800	0.545300	0.791800
C381	C38	0.780800	0.554300	0.789800
C391	C39	0.851500	0.485800	0.768800
C401	C40	0.664700	0.398400	0.754000
C411	C41	0.589300	0.464700	0.773600
C421	C42	0.467000	0.628700	0.080800
C431	C43	0.616500	0.642400	0.131400
C441	C44	0.644500	0.681200	0.209400
C451	C45	0.781600	0.695400	0.256600
C461	C46	0.857100	0.639000	0.148400
C471	C47	0.725800	0.620500	0.101200
C481	C48	0.212600	0.498900	0.577400
C491	C49	0.356500	0.475300	0.580400
C501	C50	0.461500	0.537700	0.597200
C511	C51	0.598900	0.517100	0.599200
C521	C52	0.627600	0.434200	0.584800
C531	C53	0.526400	0.371800	0.571400
C541	C54	0.389400	0.393500	0.568400
C551	C55	0.709500	0.586200	0.616000
C561	C56	0.558900	0.283500	0.567600
C571	C57	0.736800	0.202200	0.777800
C581	C58	0.689600	0.168500	0.834600
C591	C59	0.547100	0.146500	0.821400
C601	C60	0.503000	0.125900	0.878800
C611	C61	0.596100	0.124400	0.948000
C621	C62	0.738500	0.141600	0.961600
C631	C63	0.779800	0.165100	0.904200
C641	C64	0.252400	0.117400	0.811600
C651	C65	0.148000	0.045300	0.791800
C661	C66	0.009000	0.054300	0.789800
C671	C67	0.917300	0.985800	0.768800
C681	C68	0.089300	0.898400	0.754000
C691	C69	0.184300	0.964700	0.773600
C701	C70	0.613800	0.128700	0.080800
C711	C71	0.514900	0.142400	0.131400
C721	C72	0.564900	0.181200	0.209400
C731	C73	0.475000	0.195400	0.256600
C741	C74	0.291300	0.139000	0.148400
C751	C75	0.375400	0.120500	0.101200
C761	C76	0.364800	0.998900	0.577400
C771	C77	0.223900	0.975300	0.580400
C781	C78	0.135700	0.037700	0.597200
C791	C79	0.000300	0.017100	0.599200
C801	C80	0.957200	0.934200	0.584800
C811	C81	0.045000	0.871800	0.571400
C821	C82	0.179000	0.893500	0.568400
C831	C83	0.906500	0.086200	0.616000
C841	C84	0.008700	0.783500	0.567600
C851	C85	0.959000	0.297800	0.222200
C861	C86	0.855000	0.331500	0.165400
C871	C87	0.725700	0.353500	0.178600
C881	C88	0.624200	0.374100	0.121200
C891	C89	0.648100	0.375600	0.052000
C901	C90	0.776900	0.358400	0.038400
C911	C91	0.875600	0.334900	0.095800
C921	C92	0.440800	0.382600	0.188400
C931	C93	0.356200	0.454700	0.208200
C941	C94	0.219200	0.445700	0.210200
C951	C95	0.148500	0.514200	0.231200
C961	C96	0.335300	0.601600	0.246000
C971	C97	0.410700	0.535300	0.226400
C981	C98	0.533000	0.371300	0.919200
C991	C99	0.383500	0.357600	0.868600
C1001	C100	0.355500	0.318800	0.790600
C1011	C101	0.218400	0.304600	0.743400
C1021	C102	0.142900	0.361000	0.851600
C1031	C103	0.274200	0.379500	0.898800
C1041	C104	0.787400	0.501100	0.422600
C1051	C105	0.643500	0.524700	0.419600
C1061	C106	0.538500	0.462300	0.402800
C1071	C107	0.401100	0.482900	0.400800
C1081	C108	0.372400	0.565800	0.415200
C1091	C109	0.473600	0.628200	0.428600
C1101	C110	0.610600	0.606500	0.431600
C1111	C111	0.290500	0.413800	0.384000
C1121	C112	0.441100	0.716500	0.432400
N11	N1	0.660800	0.824900	0.773000
N21	N2	0.043300	0.091700	0.246800
N31	N3	0.887800	0.675100	0.227000
N41	N4	0.796500	0.408300	0.753200
N51	N5	0.339200	0.175100	0.227000
N61	N6	0.956700	0.908300	0.753200
N71	N7	0.112200	0.324900	0.773000
N81	N8	0.203500	0.591700	0.246800
O11	O1	0.353000	0.797600	0.285200
O21	O2	0.139700	0.768000	0.202800
O31	O3	0.634400	0.893300	0.126400
O41	O4	0.462700	0.894900	0.998400
O51	O5	0.593300	0.924900	0.395000
O61	O6	0.561800	0.057000	0.449600
O71	O7	0.047200	0.840100	0.364200
O81	O8	0.218200	0.938500	0.392400
O91	O9	0.101600	0.236000	0.418200
O101	O10	0.911100	0.271800	0.449400
O111	O11	0.067800	0.702400	0.714800
O121	O12	0.936900	0.732000	0.797200
O131	O13	0.508000	0.606700	0.873600
O141	O14	0.464300	0.605100	0.001600
O151	O15	0.198300	0.575100	0.605000
O161	O16	0.112200	0.443000	0.550400
O171	O17	0.683000	0.659900	0.635800
O181	O18	0.825800	0.561500	0.607600
O191	O19	0.683400	0.264000	0.581800
O201	O20	0.461700	0.228200	0.550600
O211	O21	0.647000	0.202400	0.714800
O221	O22	0.860300	0.232000	0.797200
O231	O23	0.365600	0.106700	0.873600
O241	O24	0.537300	0.105100	0.001600
O251	O25	0.406700	0.075100	0.605000
O261	O26	0.438200	0.943000	0.550400
O271	O27	0.952800	0.159900	0.635800
O281	O28	0.781800	0.061500	0.607600
O291	O29	0.898400	0.764000	0.581800
O301	O30	0.088900	0.728200	0.550600
O311	O31	0.932200	0.297600	0.285200
O321	O32	0.063100	0.268000	0.202800
O331	O33	0.492000	0.393300	0.126400
O341	O34	0.535700	0.394900	0.998400
O351	O35	0.801700	0.424900	0.395000
O361	O36	0.887800	0.557000	0.449600
O371	O37	0.317000	0.340100	0.364200
O381	O38	0.174200	0.438500	0.392400
O391	O39	0.316600	0.736000	0.418200
O401	O40	0.538300	0.771800	0.449400
