data_MALFUD_clean_PM
_symmetry_space_group_name_H-M	'P1'
_cell_length_a	17.254400
_cell_length_b	17.254400
_cell_length_c	15.351700
_cell_angle_alpha	90.000000
_cell_angle_beta	90.000000
_cell_angle_gamma	90.000000
_symmetry_Int_Tables_number 1

loop_
_symmetry_equiv_pos_as_xyz
'x,y,z'

loop_
_atom_site_label
_atom_site_type_symbol
_atom_site_fract_x
_atom_site_fract_y
_atom_site_fract_z
C11	C1	0.305200	0.568700	0.301300
C21	C2	0.255600	0.619400	0.246600
C31	C3	0.194500	0.591100	0.198300
H11	H1	0.183900	0.537700	0.200100
C41	C4	0.148300	0.637900	0.147300
H21	H2	0.109200	0.616700	0.112000
C51	C5	0.161300	0.716800	0.149800
C61	C6	0.219300	0.747000	0.196300
H31	H3	0.227600	0.800900	0.195900
C71	C7	0.267700	0.699100	0.245600
H41	H4	0.308400	0.720700	0.278100
C81	C8	0.990900	0.751800	0.194300
H51	H5	0.025600	0.741000	0.242500
H61	H6	0.966500	0.704100	0.175400
H71	H7	0.951500	0.788300	0.212900
C91	C9	0.036100	0.786000	0.120300
C101	C10	0.130900	0.813500	0.033600
C111	C11	0.207500	0.815800	0.992000
H81	H8	0.208800	0.857500	0.949600
H91	H9	0.217200	0.766800	0.962900
H101	H10	0.247000	0.824600	0.035900
N11	N1	0.010800	0.838200	0.067900
N21	N2	0.071300	0.854600	0.011300
N31	N3	0.110800	0.767900	0.102900
O11	O1	0.366100	0.598600	0.328400
O21	O2	0.283900	0.501400	0.317800
Cu11	Cu1	0.432180	0.549970	0.416920
C121	C12	0.694800	0.431300	0.301300
C131	C13	0.744400	0.380600	0.246600
C141	C14	0.805500	0.408900	0.198300
H111	H11	0.816100	0.462300	0.200100
C151	C15	0.851700	0.362100	0.147300
H121	H12	0.890800	0.383300	0.112000
C161	C16	0.838700	0.283200	0.149800
C171	C17	0.780700	0.253000	0.196300
H131	H13	0.772400	0.199100	0.195900
C181	C18	0.732300	0.300900	0.245600
H141	H14	0.691600	0.279300	0.278100
C191	C19	0.009100	0.248200	0.194300
H151	H15	0.974400	0.259000	0.242500
H161	H16	0.033500	0.295900	0.175400
H171	H17	0.048500	0.211700	0.212900
C201	C20	0.963900	0.214000	0.120300
C211	C21	0.869100	0.186500	0.033600
C221	C22	0.792500	0.184200	0.992000
H181	H18	0.791200	0.142500	0.949600
H191	H19	0.782800	0.233200	0.962900
H201	H20	0.753000	0.175400	0.035900
N41	N4	0.989200	0.161800	0.067900
N51	N5	0.928700	0.145400	0.011300
N61	N6	0.889200	0.232100	0.102900
O31	O3	0.633900	0.401400	0.328400
O41	O4	0.716100	0.498600	0.317800
Cu21	Cu2	0.567820	0.450030	0.416920
C231	C23	0.568700	0.694800	0.698700
C241	C24	0.619400	0.744400	0.753400
C251	C25	0.591100	0.805500	0.801700
H211	H21	0.537700	0.816100	0.799900
C261	C26	0.637900	0.851700	0.852700
H221	H22	0.616700	0.890800	0.888000
C271	C27	0.716800	0.838700	0.850200
C281	C28	0.747000	0.780700	0.803700
H231	H23	0.800900	0.772400	0.804100
C291	C29	0.699100	0.732300	0.754400
H241	H24	0.720700	0.691600	0.721900
C301	C30	0.751800	0.009100	0.805700
H251	H25	0.741000	0.974400	0.757500
H261	H26	0.704100	0.033500	0.824600
H271	H27	0.788300	0.048500	0.787100
C311	C31	0.786000	0.963900	0.879700
C321	C32	0.813500	0.869100	0.966400
C331	C33	0.815800	0.792500	0.008000
H281	H28	0.857500	0.791200	0.050400
H291	H29	0.766800	0.782800	0.037100
H301	H30	0.824600	0.753000	0.964100
N71	N7	0.838200	0.989200	0.932100
N81	N8	0.854600	0.928700	0.988700
N91	N9	0.767900	0.889200	0.897100
O51	O5	0.598600	0.633900	0.671600
O61	O6	0.501400	0.716100	0.682200
Cu31	Cu3	0.549970	0.567820	0.583080
C341	C34	0.431300	0.305200	0.698700
C351	C35	0.380600	0.255600	0.753400
C361	C36	0.408900	0.194500	0.801700
H311	H31	0.462300	0.183900	0.799900
C371	C37	0.362100	0.148300	0.852700
H321	H32	0.383300	0.109200	0.888000
C381	C38	0.283200	0.161300	0.850200
C391	C39	0.253000	0.219300	0.803700
H331	H33	0.199100	0.227600	0.804100
C401	C40	0.300900	0.267700	0.754400
H341	H34	0.279300	0.308400	0.721900
C411	C41	0.248200	0.990900	0.805700
H351	H35	0.259000	0.025600	0.757500
H361	H36	0.295900	0.966500	0.824600
H371	H37	0.211700	0.951500	0.787100
C421	C42	0.214000	0.036100	0.879700
C431	C43	0.186500	0.130900	0.966400
C441	C44	0.184200	0.207500	0.008000
H381	H38	0.142500	0.208800	0.050400
H391	H39	0.233200	0.217200	0.037100
H401	H40	0.175400	0.247000	0.964100
N101	N10	0.161800	0.010800	0.932100
N111	N11	0.145400	0.071300	0.988700
N121	N12	0.232100	0.110800	0.897100
O71	O7	0.401400	0.366100	0.671600
O81	O8	0.498600	0.283900	0.682200
Cu41	Cu4	0.450030	0.432180	0.583080
C451	C45	0.194800	0.068700	0.198700
C461	C46	0.244400	0.119400	0.253400
C471	C47	0.305500	0.091100	0.301700
H411	H41	0.316100	0.037700	0.299900
C481	C48	0.351700	0.137900	0.352700
H421	H42	0.390800	0.116700	0.388000
C491	C49	0.338700	0.216800	0.350200
C501	C50	0.280700	0.247000	0.303700
H431	H43	0.272400	0.300900	0.304100
C511	C51	0.232300	0.199100	0.254400
H441	H44	0.191600	0.220700	0.221900
C521	C52	0.509100	0.251800	0.305700
H451	H45	0.474400	0.241000	0.257500
H461	H46	0.533500	0.204100	0.324600
H471	H47	0.548500	0.288300	0.287100
C531	C53	0.463900	0.286000	0.379700
C541	C54	0.369100	0.313500	0.466400
C551	C55	0.292500	0.315800	0.508000
H481	H48	0.291200	0.357500	0.550400
H491	H49	0.282800	0.266800	0.537100
H501	H50	0.253000	0.324600	0.464100
N131	N13	0.489200	0.338200	0.432100
N141	N14	0.428700	0.354600	0.488700
N151	N15	0.389200	0.267900	0.397100
O91	O9	0.133900	0.098600	0.171600
O101	O10	0.216100	0.001400	0.182200
Cu51	Cu5	0.067820	0.049970	0.083080
C561	C56	0.805200	0.931300	0.198700
C571	C57	0.755600	0.880600	0.253400
C581	C58	0.694500	0.908900	0.301700
H511	H51	0.683900	0.962300	0.299900
C591	C59	0.648300	0.862100	0.352700
H521	H52	0.609200	0.883300	0.388000
C601	C60	0.661300	0.783200	0.350200
C611	C61	0.719300	0.753000	0.303700
H531	H53	0.727600	0.699100	0.304100
C621	C62	0.767700	0.800900	0.254400
H541	H54	0.808400	0.779300	0.221900
C631	C63	0.490900	0.748200	0.305700
H551	H55	0.525600	0.759000	0.257500
H561	H56	0.466500	0.795900	0.324600
H571	H57	0.451500	0.711700	0.287100
C641	C64	0.536100	0.714000	0.379700
C651	C65	0.630900	0.686500	0.466400
C661	C66	0.707500	0.684200	0.508000
H581	H58	0.708800	0.642500	0.550400
H591	H59	0.717200	0.733200	0.537100
H601	H60	0.747000	0.675400	0.464100
N161	N16	0.510800	0.661800	0.432100
N171	N17	0.571300	0.645400	0.488700
N181	N18	0.610800	0.732100	0.397100
O111	O11	0.866100	0.901400	0.171600
O121	O12	0.783900	0.998600	0.182200
Cu61	Cu6	0.932180	0.950030	0.083080
C671	C67	0.931300	0.194800	0.801300
C681	C68	0.880600	0.244400	0.746600
C691	C69	0.908900	0.305500	0.698300
H611	H61	0.962300	0.316100	0.700100
C701	C70	0.862100	0.351700	0.647300
H621	H62	0.883300	0.390800	0.612000
C711	C71	0.783200	0.338700	0.649800
C721	C72	0.753000	0.280700	0.696300
H631	H63	0.699100	0.272400	0.695900
C731	C73	0.800900	0.232300	0.745600
H641	H64	0.779300	0.191600	0.778100
C741	C74	0.748200	0.509100	0.694300
H651	H65	0.759000	0.474400	0.742500
H661	H66	0.795900	0.533500	0.675400
H671	H67	0.711700	0.548500	0.712900
C751	C75	0.714000	0.463900	0.620300
C761	C76	0.686500	0.369100	0.533600
C771	C77	0.684200	0.292500	0.492000
H681	H68	0.642500	0.291200	0.449600
H691	H69	0.733200	0.282800	0.462900
H701	H70	0.675400	0.253000	0.535900
N191	N19	0.661800	0.489200	0.567900
N201	N20	0.645400	0.428700	0.511300
N211	N21	0.732100	0.389200	0.602900
O131	O13	0.901400	0.133900	0.828400
O141	O14	0.998600	0.216100	0.817800
Cu71	Cu7	0.950030	0.067820	0.916920
C781	C78	0.068700	0.805200	0.801300
C791	C79	0.119400	0.755600	0.746600
C801	C80	0.091100	0.694500	0.698300
H711	H71	0.037700	0.683900	0.700100
C811	C81	0.137900	0.648300	0.647300
H721	H72	0.116700	0.609200	0.612000
C821	C82	0.216800	0.661300	0.649800
C831	C83	0.247000	0.719300	0.696300
H731	H73	0.300900	0.727600	0.695900
C841	C84	0.199100	0.767700	0.745600
H741	H74	0.220700	0.808400	0.778100
C851	C85	0.251800	0.490900	0.694300
H751	H75	0.241000	0.525600	0.742500
H761	H76	0.204100	0.466500	0.675400
H771	H77	0.288300	0.451500	0.712900
C861	C86	0.286000	0.536100	0.620300
C871	C87	0.313500	0.630900	0.533600
C881	C88	0.315800	0.707500	0.492000
H781	H78	0.357500	0.708800	0.449600
H791	H79	0.266800	0.717200	0.462900
H801	H80	0.324600	0.747000	0.535900
N221	N22	0.338200	0.510800	0.567900
N231	N23	0.354600	0.571300	0.511300
N241	N24	0.267900	0.610800	0.602900
O151	O15	0.098600	0.866100	0.828400
O161	O16	0.001400	0.783900	0.817800
Cu81	Cu8	0.049970	0.932180	0.916920
O171	O17	0.500000	0.500000	0.500000
O181	O18	0.000000	0.000000	0.000000
O191	O19	0.500000	0.500000	0.330700
O201	O20	0.500000	0.500000	0.669300
O211	O21	0.000000	0.000000	0.169300
O221	O22	0.000000	0.000000	0.830700
