data_MALROJ_clean_PM
_symmetry_space_group_name_H-M	'P1'
_cell_length_a	21.703600
_cell_length_b	21.703600
_cell_length_c	6.844000
_cell_angle_alpha	90.000000
_cell_angle_beta	90.000000
_cell_angle_gamma	120.000000
_symmetry_Int_Tables_number 1

loop_
_symmetry_equiv_pos_as_xyz
'x,y,z'

loop_
_atom_site_label
_atom_site_type_symbol
_atom_site_fract_x
_atom_site_fract_y
_atom_site_fract_z
Co11	Co1	0.281760	0.608290	0.339080
O11	O1	0.419900	0.628800	0.786500
O21	O2	0.362400	0.650100	0.549500
O31	O3	0.352500	0.589100	0.193200
C11	C1	0.395500	0.619700	0.615400
C21	C2	0.405700	0.518100	0.174400
H11	H1	0.395100	0.512300	0.038700
C31	C3	0.438100	0.483400	0.255200
H21	H2	0.448000	0.453400	0.176100
C41	C4	0.408000	0.572300	0.482900
C51	C5	0.387800	0.561200	0.281500
C61	C6	0.441200	0.537600	0.561200
H31	H3	0.454100	0.545300	0.695300
C71	C7	0.456800	0.492200	0.455700
Co21	Co2	0.391710	0.673470	0.005750
O41	O4	0.371200	0.791100	0.453170
O51	O5	0.349900	0.712300	0.216170
O61	O6	0.410900	0.763400	0.859870
C81	C8	0.380300	0.775800	0.282070
C91	C9	0.481900	0.887600	0.841070
H41	H4	0.487700	0.882800	0.705370
C101	C10	0.516600	0.954700	0.921870
H51	H5	0.546600	0.994600	0.842770
C111	C11	0.427700	0.835700	0.149570
C121	C12	0.438800	0.826600	0.948170
C131	C13	0.462400	0.903600	0.227870
H61	H6	0.454700	0.908800	0.361970
C141	C14	0.507800	0.964600	0.122370
Co31	Co3	0.326530	0.718240	0.672410
O71	O7	0.208900	0.580100	0.119830
O81	O8	0.287700	0.637600	0.882830
O91	O9	0.236600	0.647500	0.526530
C151	C15	0.224200	0.604500	0.948730
C161	C16	0.112400	0.594300	0.507730
H71	H7	0.117200	0.604900	0.372030
C171	C17	0.045300	0.561900	0.588530
H81	H8	0.005400	0.552000	0.509430
C181	C18	0.164300	0.592000	0.816230
C191	C19	0.173400	0.612200	0.614830
C201	C20	0.096400	0.558800	0.894530
H91	H9	0.091200	0.545900	0.028630
C211	C21	0.035400	0.543200	0.789030
Co41	Co4	0.608290	0.281760	0.660920
O101	O10	0.628800	0.419900	0.213500
O111	O11	0.650100	0.362400	0.450500
O121	O12	0.589100	0.352500	0.806800
C221	C22	0.619700	0.395500	0.384600
C231	C23	0.518100	0.405700	0.825600
H101	H10	0.512300	0.395100	0.961300
C241	C24	0.483400	0.438100	0.744800
H111	H11	0.453400	0.448000	0.823900
C251	C25	0.572300	0.408000	0.517100
C261	C26	0.561200	0.387800	0.718500
C271	C27	0.537600	0.441200	0.438800
H121	H12	0.545300	0.454100	0.304700
C281	C28	0.492200	0.456800	0.544300
Co51	Co5	0.673470	0.391710	0.994250
O131	O13	0.791100	0.371200	0.546830
O141	O14	0.712300	0.349900	0.783830
O151	O15	0.763400	0.410900	0.140130
C291	C29	0.775800	0.380300	0.717930
C301	C30	0.887600	0.481900	0.158930
H131	H13	0.882800	0.487700	0.294630
C311	C31	0.954700	0.516600	0.078130
H141	H14	0.994600	0.546600	0.157230
C321	C32	0.835700	0.427700	0.850430
C331	C33	0.826600	0.438800	0.051830
C341	C34	0.903600	0.462400	0.772130
H151	H15	0.908800	0.454700	0.638030
C351	C35	0.964600	0.507800	0.877630
Co61	Co6	0.718240	0.326530	0.327590
O161	O16	0.580100	0.208900	0.880170
O171	O17	0.637600	0.287700	0.117170
O181	O18	0.647500	0.236600	0.473470
C361	C36	0.604500	0.224200	0.051270
C371	C37	0.594300	0.112400	0.492270
H161	H16	0.604900	0.117200	0.627970
C381	C38	0.561900	0.045300	0.411470
H171	H17	0.552000	0.005400	0.490570
C391	C39	0.592000	0.164300	0.183770
C401	C40	0.612200	0.173400	0.385170
C411	C41	0.558800	0.096400	0.105470
H181	H18	0.545900	0.091200	0.971370
C421	C42	0.543200	0.035400	0.210970
