data_MALWOM_clean_PM
_symmetry_space_group_name_H-M	'P1'
_cell_length_a	10.051700
_cell_length_b	10.429300
_cell_length_c	14.905000
_cell_angle_alpha	90.000000
_cell_angle_beta	90.000000
_cell_angle_gamma	90.000000
_symmetry_Int_Tables_number 1

loop_
_symmetry_equiv_pos_as_xyz
'x,y,z'

loop_
_atom_site_label
_atom_site_type_symbol
_atom_site_fract_x
_atom_site_fract_y
_atom_site_fract_z
Zn11	Zn1	0.866510	0.805720	0.676590
Zn21	Zn2	0.629390	0.142760	0.763250
P11	P1	0.598500	0.840800	0.778180
P21	P2	0.936640	0.109430	0.704090
P31	P3	0.925280	0.851430	0.468990
O11	O1	0.884400	0.770900	0.549620
O21	O2	0.678600	0.779600	0.702450
O31	O3	0.941100	0.964700	0.720070
O41	O4	0.034100	0.171400	0.765720
O51	O5	0.553500	0.974400	0.754950
O61	O6	0.800100	0.163300	0.708400
O71	O7	0.859300	0.798500	0.386400
O81	O8	0.482500	0.757600	0.804790
O91	O9	0.696300	0.849000	0.861620
O101	O10	0.988500	0.138800	0.605990
O111	O11	0.901000	0.993100	0.484040
O121	O12	0.081400	0.833000	0.456900
H11	H1	0.658000	0.908000	0.908000
H21	H2	0.943000	0.083000	0.561000
H31	H3	0.106000	0.787000	0.401000
Zn31	Zn3	0.633490	0.194280	0.176590
Zn41	Zn4	0.870610	0.857240	0.263250
P41	P4	0.901500	0.159200	0.278180
P51	P5	0.563360	0.890570	0.204090
P61	P6	0.574720	0.148570	0.968990
O131	O13	0.615600	0.229100	0.049620
O141	O14	0.821400	0.220400	0.202450
O151	O15	0.558900	0.035300	0.220070
O161	O16	0.465900	0.828600	0.265720
O171	O17	0.946500	0.025600	0.254950
O181	O18	0.699900	0.836700	0.208400
O191	O19	0.640700	0.201500	0.886400
O201	O20	0.017500	0.242400	0.304790
O211	O21	0.803700	0.151000	0.361620
O221	O22	0.511500	0.861200	0.105990
O231	O23	0.599000	0.006900	0.984040
O241	O24	0.418600	0.167000	0.956900
H41	H4	0.842000	0.092000	0.408000
H51	H5	0.557000	0.917000	0.061000
H61	H6	0.394000	0.213000	0.901000
Zn51	Zn5	0.133490	0.305720	0.823410
Zn61	Zn6	0.370610	0.642760	0.736750
P71	P7	0.401500	0.340800	0.721820
P81	P8	0.063360	0.609430	0.795910
P91	P9	0.074720	0.351430	0.031010
O251	O25	0.115600	0.270900	0.950380
O261	O26	0.321400	0.279600	0.797550
O271	O27	0.058900	0.464700	0.779930
O281	O28	0.965900	0.671400	0.734280
O291	O29	0.446500	0.474400	0.745050
O301	O30	0.199900	0.663300	0.791600
O311	O31	0.140700	0.298500	0.113600
O321	O32	0.517500	0.257600	0.695210
O331	O33	0.303700	0.349000	0.638380
O341	O34	0.011500	0.638800	0.894010
O351	O35	0.099000	0.493100	0.015960
O361	O36	0.918600	0.333000	0.043100
H71	H7	0.342000	0.408000	0.592000
H81	H8	0.057000	0.583000	0.939000
H91	H9	0.894000	0.287000	0.099000
Zn71	Zn7	0.366510	0.694280	0.323410
Zn81	Zn8	0.129390	0.357240	0.236750
P101	P10	0.098500	0.659200	0.221820
P111	P11	0.436640	0.390570	0.295910
P121	P12	0.425280	0.648570	0.531010
O371	O37	0.384400	0.729100	0.450380
O381	O38	0.178600	0.720400	0.297550
O391	O39	0.441100	0.535300	0.279930
O401	O40	0.534100	0.328600	0.234280
O411	O41	0.053500	0.525600	0.245050
O421	O42	0.300100	0.336700	0.291600
O431	O43	0.359300	0.701500	0.613600
O441	O44	0.982500	0.742400	0.195210
O451	O45	0.196300	0.651000	0.138380
O461	O46	0.488500	0.361200	0.394010
O471	O47	0.401000	0.506900	0.515960
O481	O48	0.581400	0.667000	0.543100
H101	H10	0.158000	0.592000	0.092000
H111	H11	0.443000	0.417000	0.439000
H121	H12	0.606000	0.713000	0.599000
