data_MALWUU_clean_PM
_symmetry_space_group_name_H-M	'P1'
_cell_length_a	20.780300
_cell_length_b	7.915400
_cell_length_c	17.299000
_cell_angle_alpha	90.000000
_cell_angle_beta	90.000000
_cell_angle_gamma	90.000000
_symmetry_Int_Tables_number 1

loop_
_symmetry_equiv_pos_as_xyz
'x,y,z'

loop_
_atom_site_label
_atom_site_type_symbol
_atom_site_fract_x
_atom_site_fract_y
_atom_site_fract_z
O11	O1	0.245400	0.431000	0.360000
O21	O2	0.315200	0.279700	0.292400
O31	O3	0.393100	0.975600	0.330400
O41	O4	0.462400	0.186100	0.338900
C11	C1	0.323300	0.275700	0.429900
C21	C2	0.378400	0.174200	0.430100
C31	C3	0.293500	0.333000	0.355400
C41	C4	0.412500	0.109500	0.359700
O51	O5	0.745400	0.931000	0.860000
O61	O6	0.815200	0.779700	0.792400
O71	O7	0.893100	0.475600	0.830400
O81	O8	0.962400	0.686100	0.838900
C51	C5	0.823300	0.775700	0.929900
C61	C6	0.878400	0.674200	0.930100
C71	C7	0.793500	0.833000	0.855400
C81	C8	0.912500	0.609500	0.859700
O91	O9	0.754600	0.569000	0.360000
O101	O10	0.684800	0.720300	0.292400
O111	O11	0.606900	0.024400	0.330400
O121	O12	0.537600	0.813900	0.338900
C91	C9	0.676700	0.724300	0.429900
C101	C10	0.621600	0.825800	0.430100
C111	C11	0.706500	0.667000	0.355400
C121	C12	0.587500	0.890500	0.359700
O131	O13	0.254600	0.069000	0.860000
O141	O14	0.184800	0.220300	0.792400
O151	O15	0.106900	0.524400	0.830400
O161	O16	0.037600	0.313900	0.838900
C131	C13	0.176700	0.224300	0.929900
C141	C14	0.121600	0.325800	0.930100
C151	C15	0.206500	0.167000	0.855400
C161	C16	0.087500	0.390500	0.859700
O171	O17	0.254600	0.931000	0.640000
O181	O18	0.184800	0.779700	0.707600
O191	O19	0.106900	0.475600	0.669600
O201	O20	0.037600	0.686100	0.661100
C171	C17	0.176700	0.775700	0.570100
C181	C18	0.121600	0.674200	0.569900
C191	C19	0.206500	0.833000	0.644600
C201	C20	0.087500	0.609500	0.640300
O211	O21	0.754600	0.431000	0.140000
O221	O22	0.684800	0.279700	0.207600
O231	O23	0.606900	0.975600	0.169600
O241	O24	0.537600	0.186100	0.161100
C211	C21	0.676700	0.275700	0.070100
C221	C22	0.621600	0.174200	0.069900
C231	C23	0.706500	0.333000	0.144600
C241	C24	0.587500	0.109500	0.140300
O251	O25	0.745400	0.069000	0.640000
O261	O26	0.815200	0.220300	0.707600
O271	O27	0.893100	0.524400	0.669600
O281	O28	0.962400	0.313900	0.661100
C251	C25	0.823300	0.224300	0.570100
C261	C26	0.878400	0.325800	0.569900
C271	C27	0.793500	0.167000	0.644600
C281	C28	0.912500	0.390500	0.640300
O291	O29	0.245400	0.569000	0.140000
O301	O30	0.315200	0.720300	0.207600
O311	O31	0.393100	0.024400	0.169600
O321	O32	0.462400	0.813900	0.161100
C291	C29	0.323300	0.724300	0.070100
C301	C30	0.378400	0.825800	0.069900
C311	C31	0.293500	0.667000	0.144600
C321	C32	0.412500	0.890500	0.140300
O331	O33	0.754600	0.569000	0.640000
O341	O34	0.684800	0.720300	0.707600
O351	O35	0.606900	0.024400	0.669600
O361	O36	0.537600	0.813900	0.661100
C331	C33	0.676700	0.724300	0.570100
C341	C34	0.621600	0.825800	0.569900
C351	C35	0.706500	0.667000	0.644600
C361	C36	0.587500	0.890500	0.640300
O371	O37	0.254600	0.069000	0.140000
O381	O38	0.184800	0.220300	0.207600
O391	O39	0.106900	0.524400	0.169600
O401	O40	0.037600	0.313900	0.161100
C371	C37	0.176700	0.224300	0.070100
C381	C38	0.121600	0.325800	0.069900
C391	C39	0.206500	0.167000	0.144600
C401	C40	0.087500	0.390500	0.140300
O411	O41	0.245400	0.431000	0.640000
O421	O42	0.315200	0.279700	0.707600
O431	O43	0.393100	0.975600	0.669600
O441	O44	0.462400	0.186100	0.661100
C411	C41	0.323300	0.275700	0.570100
C421	C42	0.378400	0.174200	0.569900
C431	C43	0.293500	0.333000	0.644600
C441	C44	0.412500	0.109500	0.640300
O451	O45	0.745400	0.931000	0.140000
O461	O46	0.815200	0.779700	0.207600
O471	O47	0.893100	0.475600	0.169600
O481	O48	0.962400	0.686100	0.161100
C451	C45	0.823300	0.775700	0.070100
C461	C46	0.878400	0.674200	0.069900
C471	C47	0.793500	0.833000	0.144600
C481	C48	0.912500	0.609500	0.140300
O491	O49	0.745400	0.069000	0.360000
O501	O50	0.815200	0.220300	0.292400
O511	O51	0.893100	0.524400	0.330400
O521	O52	0.962400	0.313900	0.338900
C491	C49	0.823300	0.224300	0.429900
C501	C50	0.878400	0.325800	0.430100
C511	C51	0.793500	0.167000	0.355400
C521	C52	0.912500	0.390500	0.359700
O531	O53	0.245400	0.569000	0.860000
O541	O54	0.315200	0.720300	0.792400
O551	O55	0.393100	0.024400	0.830400
O561	O56	0.462400	0.813900	0.838900
C531	C53	0.323300	0.724300	0.929900
C541	C54	0.378400	0.825800	0.930100
C551	C55	0.293500	0.667000	0.855400
C561	C56	0.412500	0.890500	0.859700
O571	O57	0.254600	0.931000	0.360000
O581	O58	0.184800	0.779700	0.292400
O591	O59	0.106900	0.475600	0.330400
O601	O60	0.037600	0.686100	0.338900
C571	C57	0.176700	0.775700	0.429900
C581	C58	0.121600	0.674200	0.430100
C591	C59	0.206500	0.833000	0.355400
C601	C60	0.087500	0.609500	0.359700
O611	O61	0.754600	0.431000	0.860000
O621	O62	0.684800	0.279700	0.792400
O631	O63	0.606900	0.975600	0.830400
O641	O64	0.537600	0.186100	0.838900
C611	C61	0.676700	0.275700	0.929900
C621	C62	0.621600	0.174200	0.930100
C631	C63	0.706500	0.333000	0.855400
C641	C64	0.587500	0.109500	0.859700
Cd11	Cd1	0.500000	0.000000	0.250000
Cd21	Cd2	0.000000	0.500000	0.750000
Cd31	Cd3	0.500000	0.000000	0.750000
Cd41	Cd4	0.000000	0.500000	0.250000
Cd51	Cd5	0.301820	0.000000	0.250000
Cd61	Cd6	0.698180	0.000000	0.250000
Cd71	Cd7	0.198180	0.500000	0.750000
Cd81	Cd8	0.801820	0.500000	0.750000
Cd91	Cd9	0.698180	0.000000	0.750000
Cd101	Cd10	0.198180	0.500000	0.250000
Cd111	Cd11	0.301820	0.000000	0.750000
Cd121	Cd12	0.801820	0.500000	0.250000
C651	C65	0.297400	0.329600	0.500000
H11	H1	0.262300	0.402600	0.500000
C661	C66	0.405100	0.129900	0.500000
H21	H2	0.442900	0.067200	0.500000
C671	C67	0.797400	0.829600	0.000000
H31	H3	0.762300	0.902600	0.000000
C681	C68	0.905100	0.629900	0.000000
H41	H4	0.942900	0.567200	0.000000
C691	C69	0.702600	0.670400	0.500000
H51	H5	0.737700	0.597400	0.500000
C701	C70	0.594900	0.870100	0.500000
H61	H6	0.557100	0.932800	0.500000
C711	C71	0.202600	0.170400	0.000000
H71	H7	0.237700	0.097400	0.000000
C721	C72	0.094900	0.370100	0.000000
H81	H8	0.057100	0.432800	0.000000
C731	C73	0.202600	0.829600	0.500000
H91	H9	0.237700	0.902600	0.500000
C741	C74	0.094900	0.629900	0.500000
H101	H10	0.057100	0.567200	0.500000
C751	C75	0.702600	0.329600	0.000000
H111	H11	0.737700	0.402600	0.000000
C761	C76	0.594900	0.129900	0.000000
H121	H12	0.557100	0.067200	0.000000
C771	C77	0.797400	0.170400	0.500000
H131	H13	0.762300	0.097400	0.500000
C781	C78	0.905100	0.370100	0.500000
H141	H14	0.942900	0.432800	0.500000
C791	C79	0.297400	0.670400	0.000000
H151	H15	0.262300	0.597400	0.000000
C801	C80	0.405100	0.870100	0.000000
H161	H16	0.442900	0.932800	0.000000
