data_MAPFOY_clean_PM
_symmetry_space_group_name_H-M	'P1'
_cell_length_a	11.095000
_cell_length_b	17.970000
_cell_length_c	19.484000
_cell_angle_alpha	90.000000
_cell_angle_beta	90.000000
_cell_angle_gamma	90.000000
_symmetry_Int_Tables_number 1

loop_
_symmetry_equiv_pos_as_xyz
'x,y,z'

loop_
_atom_site_label
_atom_site_type_symbol
_atom_site_fract_x
_atom_site_fract_y
_atom_site_fract_z
Ti11	Ti1	0.099700	0.458500	0.553800
Ti21	Ti2	0.400300	0.541500	0.053800
Ti31	Ti3	0.900300	0.958500	0.946200
Ti41	Ti4	0.599700	0.041500	0.446200
Ti51	Ti5	0.900300	0.541500	0.446200
Ti61	Ti6	0.599700	0.458500	0.946200
Ti71	Ti7	0.099700	0.041500	0.053800
Ti81	Ti8	0.400300	0.958500	0.553800
H11	H1	0.232100	0.801600	0.498100
H21	H2	0.127200	0.676200	0.508500
H31	H3	0.240800	0.505700	0.392500
H41	H4	0.391900	0.576500	0.347900
H51	H5	0.499100	0.697300	0.340500
H61	H6	0.517500	0.819300	0.371900
H71	H7	0.699300	0.610000	0.804500
H81	H8	0.682900	0.635700	0.689000
H91	H9	0.573900	0.620400	0.577700
H101	H10	0.427600	0.565600	0.514300
H111	H11	0.305600	0.458300	0.681800
H121	H12	0.407700	0.477900	0.794800
H131	H13	0.267900	0.198400	0.998100
H141	H14	0.372800	0.323800	0.008500
H151	H15	0.259200	0.494300	0.892500
H161	H16	0.108100	0.423500	0.847900
H171	H17	0.000900	0.302700	0.840500
H181	H18	0.982500	0.180700	0.871900
H191	H19	0.800700	0.390000	0.304500
H201	H20	0.817100	0.364300	0.189000
H211	H21	0.926100	0.379600	0.077700
H221	H22	0.072400	0.434400	0.014300
H231	H23	0.194400	0.541700	0.181800
H241	H24	0.092300	0.522100	0.294800
H251	H25	0.767900	0.301600	0.001900
H261	H26	0.872800	0.176200	0.991500
H271	H27	0.759200	0.005700	0.107500
H281	H28	0.608100	0.076500	0.152100
H291	H29	0.500900	0.197300	0.159500
H301	H30	0.482500	0.319300	0.128100
H311	H31	0.300700	0.110000	0.695500
H321	H32	0.317100	0.135700	0.811000
H331	H33	0.426100	0.120400	0.922300
H341	H34	0.572400	0.065600	0.985700
H351	H35	0.694400	0.958300	0.818200
H361	H36	0.592300	0.977900	0.705200
H371	H37	0.732100	0.698400	0.501900
H381	H38	0.627200	0.823800	0.491500
H391	H39	0.740800	0.994300	0.607500
H401	H40	0.891900	0.923500	0.652100
H411	H41	0.999100	0.802700	0.659500
H421	H42	0.017500	0.680700	0.628100
H431	H43	0.199300	0.890000	0.195500
H441	H44	0.182900	0.864300	0.311000
H451	H45	0.073900	0.879600	0.422300
H461	H46	0.927600	0.934400	0.485700
H471	H47	0.805600	0.041700	0.318200
H481	H48	0.907700	0.022100	0.205200
H491	H49	0.767900	0.198400	0.501900
H501	H50	0.872800	0.323800	0.491500
H511	H51	0.759200	0.494300	0.607500
H521	H52	0.608100	0.423500	0.652100
H531	H53	0.500900	0.302700	0.659500
H541	H54	0.482500	0.180700	0.628100
H551	H55	0.300700	0.390000	0.195500
H561	H56	0.317100	0.364300	0.311000
H571	H57	0.426100	0.379600	0.422300
H581	H58	0.572400	0.434400	0.485700
H591	H59	0.694400	0.541700	0.318200
H601	H60	0.592300	0.522100	0.205200
H611	H61	0.732100	0.801600	0.001900
H621	H62	0.627200	0.676200	0.991500
H631	H63	0.740800	0.505700	0.107500
H641	H64	0.891900	0.576500	0.152100
H651	H65	0.999100	0.697300	0.159500
H661	H66	0.017500	0.819300	0.128100
H671	H67	0.199300	0.610000	0.695500
H681	H68	0.182900	0.635700	0.811000
H691	H69	0.073900	0.620400	0.922300
H701	H70	0.927600	0.565600	0.985700
H711	H71	0.805600	0.458300	0.818200
H721	H72	0.907700	0.477900	0.705200
H731	H73	0.232100	0.698400	0.998100
H741	H74	0.127200	0.823800	0.008500
H751	H75	0.240800	0.994300	0.892500
H761	H76	0.391900	0.923500	0.847900
H771	H77	0.499100	0.802700	0.840500
H781	H78	0.517500	0.680700	0.871900
H791	H79	0.699300	0.890000	0.304500
H801	H80	0.682900	0.864300	0.189000
H811	H81	0.573900	0.879600	0.077700
H821	H82	0.427600	0.934400	0.014300
H831	H83	0.305600	0.041700	0.181800
H841	H84	0.407700	0.022100	0.294800
H851	H85	0.267900	0.301600	0.498100
H861	H86	0.372800	0.176200	0.508500
H871	H87	0.259200	0.005700	0.392500
H881	H88	0.108100	0.076500	0.347900
H891	H89	0.000900	0.197300	0.340500
H901	H90	0.982500	0.319300	0.371900
H911	H91	0.800700	0.110000	0.804500
H921	H92	0.817100	0.135700	0.689000
H931	H93	0.926100	0.120400	0.577700
H941	H94	0.072400	0.065600	0.514300
H951	H95	0.194400	0.958300	0.681800
H961	H96	0.092300	0.977900	0.794800
C11	C1	0.374700	0.821500	0.437600
C21	C2	0.284700	0.780100	0.466600
C31	C3	0.272300	0.703900	0.448200
C41	C4	0.179900	0.657300	0.475800
C51	C5	0.168100	0.585200	0.454600
C61	C6	0.249000	0.555000	0.406100
C71	C7	0.338800	0.597400	0.379300
C81	C8	0.352700	0.673600	0.398700
C91	C9	0.444900	0.717700	0.371700
C101	C10	0.456100	0.790300	0.390400
C111	C11	0.552000	0.541200	0.810400
C121	C12	0.637400	0.589000	0.778800
C131	C13	0.627500	0.604000	0.709600
C141	C14	0.535000	0.572300	0.669700
C151	C15	0.521300	0.587300	0.598800
C161	C16	0.434000	0.554900	0.560900
C171	C17	0.351200	0.504300	0.592100
C181	C18	0.360600	0.490300	0.661200
C191	C19	0.450800	0.523100	0.701800
C201	C20	0.462400	0.509300	0.773200
C211	C21	0.125300	0.178500	0.937600
C221	C22	0.215300	0.219900	0.966600
C231	C23	0.227700	0.296100	0.948200
C241	C24	0.320100	0.342700	0.975800
C251	C25	0.331900	0.414800	0.954600
C261	C26	0.251000	0.445000	0.906100
C271	C27	0.161200	0.402600	0.879300
C281	C28	0.147300	0.326400	0.898700
C291	C29	0.055100	0.282300	0.871700
C301	C30	0.043900	0.209700	0.890400
C311	C31	0.948000	0.458800	0.310400
C321	C32	0.862600	0.411000	0.278800
C331	C33	0.872500	0.396000	0.209600
C341	C34	0.965000	0.427700	0.169700
C351	C35	0.978700	0.412700	0.098800
C361	C36	0.066000	0.445100	0.060900
C371	C37	0.148800	0.495700	0.092100
C381	C38	0.139400	0.509700	0.161200
C391	C39	0.049200	0.476900	0.201800
C401	C40	0.037600	0.490700	0.273200
C411	C41	0.625300	0.321500	0.062400
C421	C42	0.715300	0.280100	0.033400
C431	C43	0.727700	0.203900	0.051800
C441	C44	0.820100	0.157300	0.024200
C451	C45	0.831900	0.085200	0.045400
C461	C46	0.751000	0.055000	0.093900
C471	C47	0.661200	0.097400	0.120700
C481	C48	0.647300	0.173600	0.101300
C491	C49	0.555100	0.217700	0.128300
C501	C50	0.543900	0.290300	0.109600
C511	C51	0.448000	0.041200	0.689600
C521	C52	0.362600	0.089000	0.721200
C531	C53	0.372500	0.104000	0.790400
C541	C54	0.465000	0.072300	0.830300
C551	C55	0.478700	0.087300	0.901200
C561	C56	0.566000	0.054900	0.939100
C571	C57	0.648800	0.004300	0.907900
C581	C58	0.639400	0.990300	0.838800
C591	C59	0.549200	0.023100	0.798200
C601	C60	0.537600	0.009300	0.726800
C611	C61	0.874700	0.678500	0.562400
C621	C62	0.784700	0.719900	0.533400
C631	C63	0.772300	0.796100	0.551800
C641	C64	0.679900	0.842700	0.524200
C651	C65	0.668100	0.914800	0.545400
C661	C66	0.749000	0.945000	0.593900
C671	C67	0.838800	0.902600	0.620700
C681	C68	0.852700	0.826400	0.601300
C691	C69	0.944900	0.782300	0.628300
C701	C70	0.956100	0.709700	0.609600
C711	C71	0.052000	0.958800	0.189600
C721	C72	0.137400	0.911000	0.221200
C731	C73	0.127500	0.896000	0.290400
C741	C74	0.035000	0.927700	0.330300
C751	C75	0.021300	0.912700	0.401200
C761	C76	0.934000	0.945100	0.439100
C771	C77	0.851200	0.995700	0.407900
C781	C78	0.860600	0.009700	0.338800
C791	C79	0.950800	0.976900	0.298200
C801	C80	0.962400	0.990700	0.226800
C811	C81	0.625300	0.178500	0.562400
C821	C82	0.715300	0.219900	0.533400
C831	C83	0.727700	0.296100	0.551800
C841	C84	0.820100	0.342700	0.524200
C851	C85	0.831900	0.414800	0.545400
C861	C86	0.751000	0.445000	0.593900
C871	C87	0.661200	0.402600	0.620700
C881	C88	0.647300	0.326400	0.601300
C891	C89	0.555100	0.282300	0.628300
C901	C90	0.543900	0.209700	0.609600
C911	C91	0.448000	0.458800	0.189600
C921	C92	0.362600	0.411000	0.221200
C931	C93	0.372500	0.396000	0.290400
C941	C94	0.465000	0.427700	0.330300
C951	C95	0.478700	0.412700	0.401200
C961	C96	0.566000	0.445100	0.439100
C971	C97	0.648800	0.495700	0.407900
C981	C98	0.639400	0.509700	0.338800
C991	C99	0.549200	0.476900	0.298200
C1001	C100	0.537600	0.490700	0.226800
C1011	C101	0.874700	0.821500	0.062400
C1021	C102	0.784700	0.780100	0.033400
C1031	C103	0.772300	0.703900	0.051800
C1041	C104	0.679900	0.657300	0.024200
C1051	C105	0.668100	0.585200	0.045400
C1061	C106	0.749000	0.555000	0.093900
C1071	C107	0.838800	0.597400	0.120700
C1081	C108	0.852700	0.673600	0.101300
C1091	C109	0.944900	0.717700	0.128300
C1101	C110	0.956100	0.790300	0.109600
C1111	C111	0.052000	0.541200	0.689600
C1121	C112	0.137400	0.589000	0.721200
C1131	C113	0.127500	0.604000	0.790400
C1141	C114	0.035000	0.572300	0.830300
C1151	C115	0.021300	0.587300	0.901200
C1161	C116	0.934000	0.554900	0.939100
C1171	C117	0.851200	0.504300	0.907900
C1181	C118	0.860600	0.490300	0.838800
C1191	C119	0.950800	0.523100	0.798200
C1201	C120	0.962400	0.509300	0.726800
C1211	C121	0.374700	0.678500	0.937600
C1221	C122	0.284700	0.719900	0.966600
C1231	C123	0.272300	0.796100	0.948200
C1241	C124	0.179900	0.842700	0.975800
C1251	C125	0.168100	0.914800	0.954600
C1261	C126	0.249000	0.945000	0.906100
C1271	C127	0.338800	0.902600	0.879300
C1281	C128	0.352700	0.826400	0.898700
C1291	C129	0.444900	0.782300	0.871700
C1301	C130	0.456100	0.709700	0.890400
C1311	C131	0.552000	0.958800	0.310400
C1321	C132	0.637400	0.911000	0.278800
C1331	C133	0.627500	0.896000	0.209600
C1341	C134	0.535000	0.927700	0.169700
C1351	C135	0.521300	0.912700	0.098800
C1361	C136	0.434000	0.945100	0.060900
C1371	C137	0.351200	0.995700	0.092100
C1381	C138	0.360600	0.009700	0.161200
C1391	C139	0.450800	0.976900	0.201800
C1401	C140	0.462400	0.990700	0.273200
C1411	C141	0.125300	0.321500	0.437600
C1421	C142	0.215300	0.280100	0.466600
C1431	C143	0.227700	0.203900	0.448200
C1441	C144	0.320100	0.157300	0.475800
C1451	C145	0.331900	0.085200	0.454600
C1461	C146	0.251000	0.055000	0.406100
C1471	C147	0.161200	0.097400	0.379300
C1481	C148	0.147300	0.173600	0.398700
C1491	C149	0.055100	0.217700	0.371700
C1501	C150	0.043900	0.290300	0.390400
C1511	C151	0.948000	0.041200	0.810400
C1521	C152	0.862600	0.089000	0.778800
C1531	C153	0.872500	0.104000	0.709600
C1541	C154	0.965000	0.072300	0.669700
C1551	C155	0.978700	0.087300	0.598800
C1561	C156	0.066000	0.054900	0.560900
C1571	C157	0.148800	0.004300	0.592100
C1581	C158	0.139400	0.990300	0.661200
C1591	C159	0.049200	0.023100	0.701800
C1601	C160	0.037600	0.009300	0.773200
O11	O1	0.383800	0.896300	0.453600
O21	O2	0.077100	0.541300	0.480100
O31	O3	0.560100	0.531600	0.880000
O41	O4	0.263400	0.472700	0.553300
O51	O5	0.116200	0.103700	0.953600
O61	O6	0.422900	0.458700	0.980100
O71	O7	0.939900	0.468400	0.380000
O81	O8	0.236600	0.527300	0.053300
O91	O9	0.616200	0.396300	0.046400
O101	O10	0.922900	0.041300	0.019900
O111	O11	0.439900	0.031600	0.620000
O121	O12	0.736600	0.972700	0.946700
O131	O13	0.883800	0.603700	0.546400
O141	O14	0.577100	0.958700	0.519900
O151	O15	0.060100	0.968400	0.120000
O161	O16	0.763400	0.027300	0.446700
O171	O17	0.616200	0.103700	0.546400
O181	O18	0.922900	0.458700	0.519900
O191	O19	0.439900	0.468400	0.120000
O201	O20	0.736600	0.527300	0.446700
O211	O21	0.883800	0.896300	0.046400
O221	O22	0.577100	0.541300	0.019900
O231	O23	0.060100	0.531600	0.620000
O241	O24	0.763400	0.472700	0.946700
O251	O25	0.383800	0.603700	0.953600
O261	O26	0.077100	0.958700	0.980100
O271	O27	0.560100	0.968400	0.380000
O281	O28	0.263400	0.027300	0.053300
O291	O29	0.116200	0.396300	0.453600
O301	O30	0.422900	0.041300	0.480100
O311	O31	0.939900	0.031600	0.880000
O321	O32	0.236600	0.972700	0.553300
