data_MAPHAP_clean_PM
_symmetry_space_group_name_H-M	'P1'
_cell_length_a	8.451500
_cell_length_b	12.397200
_cell_length_c	12.568000
_cell_angle_alpha	110.453000
_cell_angle_beta	102.132000
_cell_angle_gamma	109.619000
_symmetry_Int_Tables_number 1

loop_
_symmetry_equiv_pos_as_xyz
'x,y,z'

loop_
_atom_site_label
_atom_site_type_symbol
_atom_site_fract_x
_atom_site_fract_y
_atom_site_fract_z
Yb11	Yb1	0.705970	0.541470	0.403610
O11	O1	0.861000	0.733900	0.392700
O21	O2	0.028200	0.671700	0.493200
C11	C1	0.014300	0.748900	0.450000
C21	C2	0.182300	0.852900	0.463800
C31	C3	0.169400	0.952100	0.435600
H11	H1	0.055100	0.951100	0.408100
C41	C4	0.323000	0.049200	0.448400
H21	H2	0.314900	0.116700	0.431800
C51	C5	0.493400	0.049400	0.486300
C61	C6	0.653400	0.146600	0.496900
H31	H3	0.646400	0.212200	0.476400
O31	O3	0.550300	0.491500	0.201000
O41	O4	0.440800	0.566600	0.338900
C71	C7	0.430100	0.521300	0.227500
C81	C8	0.275900	0.503500	0.128200
C91	C9	0.261700	0.444900	0.005700
H41	H4	0.348900	0.416700	0.987800
C101	C10	0.123400	0.428300	0.912400
H51	H5	0.114900	0.388600	0.830300
C111	C11	0.992600	0.470500	0.938300
C121	C12	0.849300	0.454500	0.844200
H61	H6	0.838600	0.414800	0.761600
O51	O5	0.716500	0.673000	0.578400
O61	O6	0.516000	0.658500	0.667800
C131	C13	0.671500	0.708600	0.668500
C141	C14	0.817900	0.821000	0.785100
C151	C15	0.999700	0.865800	0.796100
H71	H7	0.030000	0.828300	0.728300
C161	C16	0.131900	0.962200	0.903200
H81	H8	0.254600	0.989200	0.910300
C171	C17	0.091300	0.023500	0.004400
C181	C18	0.226500	0.127000	0.116700
H91	H9	0.349200	0.160800	0.123900
Yb21	Yb2	0.294030	0.458530	0.596390
O71	O7	0.139000	0.266100	0.607300
O81	O8	0.971800	0.328300	0.506800
C191	C19	0.985700	0.251100	0.550000
C201	C20	0.817700	0.147100	0.536200
C211	C21	0.830600	0.047900	0.564400
H101	H10	0.944900	0.048900	0.591900
C221	C22	0.677000	0.950800	0.551600
H111	H11	0.685100	0.883300	0.568200
C231	C23	0.506600	0.950600	0.513700
C241	C24	0.346600	0.853400	0.503100
H121	H12	0.353600	0.787800	0.523600
O91	O9	0.449700	0.508500	0.799000
O101	O10	0.559200	0.433400	0.661100
C251	C25	0.569900	0.478700	0.772500
C261	C26	0.724100	0.496500	0.871800
C271	C27	0.738300	0.555100	0.994300
H131	H13	0.651100	0.583300	0.012200
C281	C28	0.876600	0.571700	0.087600
H141	H14	0.885100	0.611400	0.169700
C291	C29	0.007400	0.529500	0.061700
C301	C30	0.150700	0.545500	0.155800
H151	H15	0.161400	0.585200	0.238400
O111	O11	0.283500	0.327000	0.421600
O121	O12	0.484000	0.341500	0.332200
C311	C31	0.328500	0.291400	0.331500
C321	C32	0.182100	0.179000	0.214900
C331	C33	0.000300	0.134200	0.203900
H161	H16	0.970000	0.171700	0.271700
C341	C34	0.868100	0.037800	0.096800
H171	H17	0.745400	0.010800	0.089700
C351	C35	0.908700	0.976500	0.995600
C361	C36	0.773500	0.873000	0.883300
H181	H18	0.650800	0.839200	0.876100
