data_MARJAQ_clean_PM
_symmetry_space_group_name_H-M	'P1'
_cell_length_a	17.494100
_cell_length_b	32.393000
_cell_length_c	10.074900
_cell_angle_alpha	90.000000
_cell_angle_beta	90.000000
_cell_angle_gamma	90.000000
_symmetry_Int_Tables_number 1

loop_
_symmetry_equiv_pos_as_xyz
'x,y,z'

loop_
_atom_site_label
_atom_site_type_symbol
_atom_site_fract_x
_atom_site_fract_y
_atom_site_fract_z
Ga11	Ga1	0.425960	0.920550	0.060590
Ga21	Ga2	0.486080	0.025600	0.035380
Ga31	Ga3	0.159860	0.992500	0.875550
Ga41	Ga4	0.343070	0.506100	0.594140
Ga51	Ga5	0.080200	0.581250	0.417990
Ga61	Ga6	0.016090	0.475610	0.441410
Ga71	Ga7	0.341140	0.667660	0.598850
Ga81	Ga8	0.156260	0.821910	0.874230
Ga91	Ga9	0.300310	0.758870	0.920930
P11	P1	0.313100	0.996370	0.060500
P21	P2	0.521400	0.953340	0.834400
P31	P3	0.067900	0.907070	0.854400
P41	P4	0.981400	0.548120	0.641300
P51	P5	0.188600	0.503690	0.408900
P61	P6	0.437000	0.590570	0.625800
P71	P7	0.350250	0.758670	0.614600
P81	P8	0.318500	0.840550	0.047300
P91	P9	0.309800	0.662740	0.911500
O11	O1	0.367100	0.561400	0.638200
O21	O2	0.134300	0.937700	0.834300
O31	O3	0.127700	0.472400	0.440600
O41	O4	0.360200	0.771200	0.759800
O51	O5	0.023000	0.508200	0.602500
O61	O6	0.208600	0.770200	0.826500
O71	O7	0.375700	0.029500	0.037200
O81	O8	0.480500	0.993000	0.875300
O91	O9	0.264800	0.751100	0.585000
O101	O10	0.244100	0.843500	0.968900
O111	O11	0.258700	0.492400	0.495300
O121	O12	0.341600	0.705600	0.941100
O131	O13	0.246700	0.007000	0.970600
O141	O14	0.000700	0.925400	0.929100
O151	O15	0.354800	0.797200	0.026200
O161	O16	0.506700	0.572700	0.556200
O171	O17	0.495600	0.916900	0.922700
O181	O18	0.012000	0.585700	0.559500
O191	O19	0.608200	0.958200	0.848000
O201	O20	0.339300	0.952000	0.024900
O211	O21	0.166300	0.548800	0.448800
O221	O22	0.895000	0.543900	0.616200
O231	O23	0.297800	0.655400	0.758900
O241	O24	0.500100	0.941400	0.692400
O251	O25	0.283900	0.997100	0.205600
O261	O26	0.212300	0.502400	0.261700
O271	O27	0.305300	0.846800	0.196100
O281	O28	0.457600	0.605800	0.766300
O291	O29	0.996200	0.558600	0.788500
O301	O30	0.411800	0.629300	0.542900
O311	O31	0.041100	0.892900	0.712100
O321	O32	0.096200	0.868200	0.925500
O331	O33	0.375200	0.872200	0.992100
O341	O34	0.363600	0.630900	0.972900
O351	O35	0.387200	0.791900	0.526300
O361	O36	0.228400	0.658400	0.967600
O371	O37	0.392300	0.716600	0.591000
F11	F1	0.600300	0.015900	0.041600
F21	F2	0.025800	0.529500	0.349400
F31	F3	0.477600	0.971700	0.131300
F41	F4	0.404000	0.515200	0.429000
Ga101	Ga10	0.574040	0.079450	0.560590
Ga111	Ga11	0.513920	0.974400	0.535380
Ga121	Ga12	0.840140	0.007500	0.375550
Ga131	Ga13	0.656930	0.493900	0.094140
Ga141	Ga14	0.919800	0.418750	0.917990
Ga151	Ga15	0.983910	0.524390	0.941410
Ga161	Ga16	0.658860	0.332340	0.098850
Ga171	Ga17	0.843740	0.178090	0.374230
Ga181	Ga18	0.699690	0.241130	0.420930
P101	P10	0.686900	0.003630	0.560500
P111	P11	0.478600	0.046660	0.334400
P121	P12	0.932100	0.092930	0.354400
P131	P13	0.018600	0.451880	0.141300
P141	P14	0.811400	0.496310	0.908900
P151	P15	0.563000	0.409430	0.125800
P161	P16	0.649750	0.241330	0.114600
P171	P17	0.681500	0.159450	0.547300
P181	P18	0.690200	0.337260	0.411500
O381	O38	0.632900	0.438600	0.138200
O391	O39	0.865700	0.062300	0.334300
O401	O40	0.872300	0.527600	0.940600
O411	O41	0.639800	0.228800	0.259800
O421	O42	0.977000	0.491800	0.102500
O431	O43	0.791400	0.229800	0.326500
O441	O44	0.624300	0.970500	0.537200
O451	O45	0.519500	0.007000	0.375300
O461	O46	0.735200	0.248900	0.085000
O471	O47	0.755900	0.156500	0.468900
O481	O48	0.741300	0.507600	0.995300
O491	O49	0.658400	0.294400	0.441100
O501	O50	0.753300	0.993000	0.470600
O511	O51	0.999300	0.074600	0.429100
O521	O52	0.645200	0.202800	0.526200
O531	O53	0.493300	0.427300	0.056200
O541	O54	0.504400	0.083100	0.422700
O551	O55	0.988000	0.414300	0.059500
O561	O56	0.391800	0.041800	0.348000
O571	O57	0.660700	0.048000	0.524900
O581	O58	0.833700	0.451200	0.948800
O591	O59	0.105000	0.456100	0.116200
O601	O60	0.702200	0.344600	0.258900
O611	O61	0.499900	0.058600	0.192400
O621	O62	0.716100	0.002900	0.705600
O631	O63	0.787700	0.497600	0.761700
O641	O64	0.694700	0.153200	0.696100
O651	O65	0.542400	0.394200	0.266300
O661	O66	0.003800	0.441400	0.288500
O671	O67	0.588200	0.370700	0.042900
O681	O68	0.958900	0.107100	0.212100
O691	O69	0.903800	0.131800	0.425500
O701	O70	0.624800	0.127800	0.492100
O711	O71	0.636400	0.369100	0.472900
O721	O72	0.612800	0.208100	0.026300
O731	O73	0.771600	0.341600	0.467600
O741	O74	0.607700	0.283400	0.091000
F51	F5	0.399700	0.984100	0.541600
F61	F6	0.974200	0.470500	0.849400
F71	F7	0.522400	0.028300	0.631300
F81	F8	0.596000	0.484800	0.929000
Ga191	Ga19	0.925960	0.079450	0.060590
Ga201	Ga20	0.986080	0.974400	0.035380
Ga211	Ga21	0.659860	0.007500	0.875550
Ga221	Ga22	0.843070	0.493900	0.594140
Ga231	Ga23	0.580200	0.418750	0.417990
Ga241	Ga24	0.516090	0.524390	0.441410
Ga251	Ga25	0.841140	0.332340	0.598850
Ga261	Ga26	0.656260	0.178090	0.874230
Ga271	Ga27	0.800310	0.241130	0.920930
P191	P19	0.813100	0.003630	0.060500
P201	P20	0.021400	0.046660	0.834400
P211	P21	0.567900	0.092930	0.854400
P221	P22	0.481400	0.451880	0.641300
P231	P23	0.688600	0.496310	0.408900
P241	P24	0.937000	0.409430	0.625800
P251	P25	0.850250	0.241330	0.614600
P261	P26	0.818500	0.159450	0.047300
P271	P27	0.809800	0.337260	0.911500
O751	O75	0.867100	0.438600	0.638200
O761	O76	0.634300	0.062300	0.834300
O771	O77	0.627700	0.527600	0.440600
O781	O78	0.860200	0.228800	0.759800
O791	O79	0.523000	0.491800	0.602500
O801	O80	0.708600	0.229800	0.826500
O811	O81	0.875700	0.970500	0.037200
O821	O82	0.980500	0.007000	0.875300
O831	O83	0.764800	0.248900	0.585000
O841	O84	0.744100	0.156500	0.968900
O851	O85	0.758700	0.507600	0.495300
O861	O86	0.841600	0.294400	0.941100
O871	O87	0.746700	0.993000	0.970600
O881	O88	0.500700	0.074600	0.929100
O891	O89	0.854800	0.202800	0.026200
O901	O90	0.006700	0.427300	0.556200
O911	O91	0.995600	0.083100	0.922700
O921	O92	0.512000	0.414300	0.559500
O931	O93	0.108200	0.041800	0.848000
O941	O94	0.839300	0.048000	0.024900
O951	O95	0.666300	0.451200	0.448800
O961	O96	0.395000	0.456100	0.616200
O971	O97	0.797800	0.344600	0.758900
O981	O98	0.000100	0.058600	0.692400
O991	O99	0.783900	0.002900	0.205600
O1001	O100	0.712300	0.497600	0.261700
O1011	O101	0.805300	0.153200	0.196100
O1021	O102	0.957600	0.394200	0.766300
O1031	O103	0.496200	0.441400	0.788500
O1041	O104	0.911800	0.370700	0.542900
O1051	O105	0.541100	0.107100	0.712100
O1061	O106	0.596200	0.131800	0.925500
O1071	O107	0.875200	0.127800	0.992100
O1081	O108	0.863600	0.369100	0.972900
O1091	O109	0.887200	0.208100	0.526300
O1101	O110	0.728400	0.341600	0.967600
O1111	O111	0.892300	0.283400	0.591000
F91	F9	0.100300	0.984100	0.041600
F101	F10	0.525800	0.470500	0.349400
F111	F11	0.977600	0.028300	0.131300
F121	F12	0.904000	0.484800	0.429000
Ga281	Ga28	0.074040	0.920550	0.560590
Ga291	Ga29	0.013920	0.025600	0.535380
Ga301	Ga30	0.340140	0.992500	0.375550
Ga311	Ga31	0.156930	0.506100	0.094140
Ga321	Ga32	0.419800	0.581250	0.917990
Ga331	Ga33	0.483910	0.475610	0.941410
Ga341	Ga34	0.158860	0.667660	0.098850
Ga351	Ga35	0.343740	0.821910	0.374230
Ga361	Ga36	0.199690	0.758870	0.420930
P281	P28	0.186900	0.996370	0.560500
P291	P29	0.978600	0.953340	0.334400
P301	P30	0.432100	0.907070	0.354400
P311	P31	0.518600	0.548120	0.141300
P321	P32	0.311400	0.503690	0.908900
P331	P33	0.063000	0.590570	0.125800
P341	P34	0.149750	0.758670	0.114600
P351	P35	0.181500	0.840550	0.547300
P361	P36	0.190200	0.662740	0.411500
O1121	O112	0.132900	0.561400	0.138200
O1131	O113	0.365700	0.937700	0.334300
O1141	O114	0.372300	0.472400	0.940600
O1151	O115	0.139800	0.771200	0.259800
O1161	O116	0.477000	0.508200	0.102500
O1171	O117	0.291400	0.770200	0.326500
O1181	O118	0.124300	0.029500	0.537200
O1191	O119	0.019500	0.993000	0.375300
O1201	O120	0.235200	0.751100	0.085000
O1211	O121	0.255900	0.843500	0.468900
O1221	O122	0.241300	0.492400	0.995300
O1231	O123	0.158400	0.705600	0.441100
O1241	O124	0.253300	0.007000	0.470600
O1251	O125	0.499300	0.925400	0.429100
O1261	O126	0.145200	0.797200	0.526200
O1271	O127	0.993300	0.572700	0.056200
O1281	O128	0.004400	0.916900	0.422700
O1291	O129	0.488000	0.585700	0.059500
O1301	O130	0.891800	0.958200	0.348000
O1311	O131	0.160700	0.952000	0.524900
O1321	O132	0.333700	0.548800	0.948800
O1331	O133	0.605000	0.543900	0.116200
O1341	O134	0.202200	0.655400	0.258900
O1351	O135	0.999900	0.941400	0.192400
O1361	O136	0.216100	0.997100	0.705600
O1371	O137	0.287700	0.502400	0.761700
O1381	O138	0.194700	0.846800	0.696100
O1391	O139	0.042400	0.605800	0.266300
O1401	O140	0.503800	0.558600	0.288500
O1411	O141	0.088200	0.629300	0.042900
O1421	O142	0.458900	0.892900	0.212100
O1431	O143	0.403800	0.868200	0.425500
O1441	O144	0.124800	0.872200	0.492100
O1451	O145	0.136400	0.630900	0.472900
O1461	O146	0.112800	0.791900	0.026300
O1471	O147	0.271600	0.658400	0.467600
O1481	O148	0.107700	0.716600	0.091000
F131	F13	0.899700	0.015900	0.541600
F141	F14	0.474200	0.529500	0.849400
F151	F15	0.022400	0.971700	0.631300
F161	F16	0.096000	0.515200	0.929000
