data_MARNUR_clean_PM
_symmetry_space_group_name_H-M	'P1'
_cell_length_a	18.910000
_cell_length_b	11.795000
_cell_length_c	21.010000
_cell_angle_alpha	90.000000
_cell_angle_beta	115.200000
_cell_angle_gamma	90.000000
_symmetry_Int_Tables_number 1

loop_
_symmetry_equiv_pos_as_xyz
'x,y,z'

loop_
_atom_site_label
_atom_site_type_symbol
_atom_site_fract_x
_atom_site_fract_y
_atom_site_fract_z
Zn11	Zn1	0.470900	0.649400	0.377900
O11	O1	0.598600	0.548600	0.347500
O21	O2	0.585900	0.651000	0.431400
O31	O3	0.925100	0.592000	0.680100
O41	O4	0.818800	0.691200	0.663300
O51	O5	0.947100	0.932900	0.285200
O61	O6	0.942900	0.993200	0.384900
O71	O7	0.449300	0.690900	0.281500
H11	H1	0.394200	0.699000	0.254000
N11	N1	0.874700	0.406900	0.450800
N21	N2	0.944900	0.374700	0.391800
N31	N3	0.928800	0.273000	0.415600
C11	C1	0.911800	0.454700	0.413000
C21	C2	0.886600	0.293000	0.450600
C31	C3	0.826400	0.466900	0.478300
C41	C4	0.751100	0.493800	0.432800
H21	H2	0.729800	0.467900	0.386600
C51	C5	0.707100	0.560700	0.457200
C61	C6	0.740100	0.600500	0.526100
H31	H3	0.711100	0.646800	0.542000
C71	C7	0.816400	0.571200	0.571400
C81	C8	0.859800	0.502600	0.547300
H41	H4	0.910500	0.481100	0.577300
C91	C9	0.624000	0.589000	0.407500
C101	C10	0.855000	0.622500	0.644300
C111	C11	0.915800	0.575200	0.396100
C121	C12	0.929600	0.597900	0.337400
H51	H5	0.933100	0.538500	0.309800
C131	C13	0.938000	0.708600	0.319800
H61	H6	0.948800	0.723100	0.281300
C141	C14	0.930700	0.797700	0.359400
C151	C15	0.917300	0.774400	0.418500
H71	H7	0.913500	0.833800	0.445900
C161	C16	0.909800	0.664200	0.436500
H81	H8	0.900700	0.649600	0.475900
C171	C17	0.940800	0.917600	0.341100
C181	C18	0.856400	0.206800	0.484500
H91	H9	0.800400	0.209000	0.463400
H101	H10	0.875900	0.222800	0.533800
H111	H11	0.873600	0.132800	0.478100
Zn21	Zn2	0.970900	0.149400	0.377900
O81	O8	0.098600	0.048600	0.347500
O91	O9	0.085900	0.151000	0.431400
O101	O10	0.425100	0.092000	0.680100
O111	O11	0.318800	0.191200	0.663300
O121	O12	0.447100	0.432900	0.285200
O131	O13	0.442900	0.493200	0.384900
O141	O14	0.949300	0.190900	0.281500
H121	H12	0.894200	0.199000	0.254000
N41	N4	0.374700	0.906900	0.450800
N51	N5	0.444900	0.874700	0.391800
N61	N6	0.428800	0.773000	0.415600
C191	C19	0.411800	0.954700	0.413000
C201	C20	0.386600	0.793000	0.450600
C211	C21	0.326400	0.966900	0.478300
C221	C22	0.251100	0.993800	0.432800
H131	H13	0.229800	0.967900	0.386600
C231	C23	0.207100	0.060700	0.457200
C241	C24	0.240100	0.100500	0.526100
H141	H14	0.211100	0.146800	0.542000
C251	C25	0.316400	0.071200	0.571400
C261	C26	0.359800	0.002600	0.547300
H151	H15	0.410500	0.981100	0.577300
C271	C27	0.124000	0.089000	0.407500
C281	C28	0.355000	0.122500	0.644300
C291	C29	0.415800	0.075200	0.396100
C301	C30	0.429600	0.097900	0.337400
H161	H16	0.433100	0.038500	0.309800
C311	C31	0.438000	0.208600	0.319800
H171	H17	0.448800	0.223100	0.281300
C321	C32	0.430700	0.297700	0.359400
C331	C33	0.417300	0.274400	0.418500
H181	H18	0.413500	0.333800	0.445900
C341	C34	0.409800	0.164200	0.436500
H191	H19	0.400700	0.149600	0.475900
C351	C35	0.440800	0.417600	0.341100
C361	C36	0.356400	0.706800	0.484500
H201	H20	0.300400	0.709000	0.463400
H211	H21	0.375900	0.722800	0.533800
H221	H22	0.373600	0.632800	0.478100
Zn31	Zn3	0.529100	0.649400	0.122100
O151	O15	0.401400	0.548600	0.152500
O161	O16	0.414100	0.651000	0.068600
O171	O17	0.074900	0.592000	0.819900
O181	O18	0.181200	0.691200	0.836700
O191	O19	0.052900	0.932900	0.214800
O201	O20	0.057100	0.993200	0.115100
O211	O21	0.550700	0.690900	0.218500
H231	H23	0.605800	0.699000	0.246000
N71	N7	0.125300	0.406900	0.049200
N81	N8	0.055100	0.374700	0.108200
N91	N9	0.071200	0.273000	0.084400
C371	C37	0.088200	0.454700	0.087000
C381	C38	0.113400	0.293000	0.049400
C391	C39	0.173600	0.466900	0.021700
C401	C40	0.248900	0.493800	0.067200
H241	H24	0.270200	0.467900	0.113400
C411	C41	0.292900	0.560700	0.042800
C421	C42	0.259900	0.600500	0.973900
H251	H25	0.288900	0.646800	0.958000
C431	C43	0.183600	0.571200	0.928600
C441	C44	0.140200	0.502600	0.952700
H261	H26	0.089500	0.481100	0.922700
C451	C45	0.376000	0.589000	0.092500
C461	C46	0.145000	0.622500	0.855700
C471	C47	0.084200	0.575200	0.103900
C481	C48	0.070400	0.597900	0.162600
H271	H27	0.066900	0.538500	0.190200
C491	C49	0.062000	0.708600	0.180200
H281	H28	0.051200	0.723100	0.218700
C501	C50	0.069300	0.797700	0.140600
C511	C51	0.082700	0.774400	0.081500
H291	H29	0.086500	0.833800	0.054100
C521	C52	0.090200	0.664200	0.063500
H301	H30	0.099300	0.649600	0.024100
C531	C53	0.059200	0.917600	0.158900
C541	C54	0.143600	0.206800	0.015500
H311	H31	0.199600	0.209000	0.036600
H321	H32	0.124100	0.222800	0.966200
H331	H33	0.126400	0.132800	0.021900
Zn41	Zn4	0.029100	0.149400	0.122100
O221	O22	0.901400	0.048600	0.152500
O231	O23	0.914100	0.151000	0.068600
O241	O24	0.574900	0.092000	0.819900
O251	O25	0.681200	0.191200	0.836700
O261	O26	0.552900	0.432900	0.214800
O271	O27	0.557100	0.493200	0.115100
O281	O28	0.050700	0.190900	0.218500
H341	H34	0.105800	0.199000	0.246000
N101	N10	0.625300	0.906900	0.049200
N111	N11	0.555100	0.874700	0.108200
N121	N12	0.571200	0.773000	0.084400
C551	C55	0.588200	0.954700	0.087000
C561	C56	0.613400	0.793000	0.049400
C571	C57	0.673600	0.966900	0.021700
C581	C58	0.748900	0.993800	0.067200
H351	H35	0.770200	0.967900	0.113400
C591	C59	0.792900	0.060700	0.042800
C601	C60	0.759900	0.100500	0.973900
H361	H36	0.788900	0.146800	0.958000
C611	C61	0.683600	0.071200	0.928600
C621	C62	0.640200	0.002600	0.952700
H371	H37	0.589500	0.981100	0.922700
C631	C63	0.876000	0.089000	0.092500
C641	C64	0.645000	0.122500	0.855700
C651	C65	0.584200	0.075200	0.103900
C661	C66	0.570400	0.097900	0.162600
H381	H38	0.566900	0.038500	0.190200
C671	C67	0.562000	0.208600	0.180200
H391	H39	0.551200	0.223100	0.218700
C681	C68	0.569300	0.297700	0.140600
C691	C69	0.582700	0.274400	0.081500
H401	H40	0.586500	0.333800	0.054100
C701	C70	0.590200	0.164200	0.063500
H411	H41	0.599300	0.149600	0.024100
C711	C71	0.559200	0.417600	0.158900
C721	C72	0.643600	0.706800	0.015500
H421	H42	0.699600	0.709000	0.036600
H431	H43	0.624100	0.722800	0.966200
H441	H44	0.626400	0.632800	0.021900
Zn51	Zn5	0.529100	0.350600	0.622100
O291	O29	0.401400	0.451400	0.652500
O301	O30	0.414100	0.349000	0.568600
O311	O31	0.074900	0.408000	0.319900
O321	O32	0.181200	0.308800	0.336700
O331	O33	0.052900	0.067100	0.714800
O341	O34	0.057100	0.006800	0.615100
O351	O35	0.550700	0.309100	0.718500
H451	H45	0.605800	0.301000	0.746000
N131	N13	0.125300	0.593100	0.549200
N141	N14	0.055100	0.625300	0.608200
N151	N15	0.071200	0.727000	0.584400
C731	C73	0.088200	0.545300	0.587000
C741	C74	0.113400	0.707000	0.549400
C751	C75	0.173600	0.533100	0.521700
C761	C76	0.248900	0.506200	0.567200
H461	H46	0.270200	0.532100	0.613400
C771	C77	0.292900	0.439300	0.542800
C781	C78	0.259900	0.399500	0.473900
H471	H47	0.288900	0.353200	0.458000
C791	C79	0.183600	0.428800	0.428600
C801	C80	0.140200	0.497400	0.452700
H481	H48	0.089500	0.518900	0.422700
C811	C81	0.376000	0.411000	0.592500
C821	C82	0.145000	0.377500	0.355700
C831	C83	0.084200	0.424800	0.603900
C841	C84	0.070400	0.402100	0.662600
H491	H49	0.066900	0.461500	0.690200
C851	C85	0.062000	0.291400	0.680200
H501	H50	0.051200	0.276900	0.718700
C861	C86	0.069300	0.202300	0.640600
C871	C87	0.082700	0.225600	0.581500
H511	H51	0.086500	0.166200	0.554100
C881	C88	0.090200	0.335800	0.563500
H521	H52	0.099300	0.350400	0.524100
C891	C89	0.059200	0.082400	0.658900
C901	C90	0.143600	0.793200	0.515500
H531	H53	0.199600	0.791000	0.536600
H541	H54	0.124100	0.777200	0.466200
H551	H55	0.126400	0.867200	0.521900
Zn61	Zn6	0.029100	0.850600	0.622100
O361	O36	0.901400	0.951400	0.652500
O371	O37	0.914100	0.849000	0.568600
O381	O38	0.574900	0.908000	0.319900
O391	O39	0.681200	0.808800	0.336700
O401	O40	0.552900	0.567100	0.714800
O411	O41	0.557100	0.506800	0.615100
O421	O42	0.050700	0.809100	0.718500
H561	H56	0.105800	0.801000	0.746000
N161	N16	0.625300	0.093100	0.549200
N171	N17	0.555100	0.125300	0.608200
N181	N18	0.571200	0.227000	0.584400
C911	C91	0.588200	0.045300	0.587000
C921	C92	0.613400	0.207000	0.549400
C931	C93	0.673600	0.033100	0.521700
C941	C94	0.748900	0.006200	0.567200
H571	H57	0.770200	0.032100	0.613400
C951	C95	0.792900	0.939300	0.542800
C961	C96	0.759900	0.899500	0.473900
H581	H58	0.788900	0.853200	0.458000
C971	C97	0.683600	0.928800	0.428600
C981	C98	0.640200	0.997400	0.452700
H591	H59	0.589500	0.018900	0.422700
C991	C99	0.876000	0.911000	0.592500
C1001	C100	0.645000	0.877500	0.355700
C1011	C101	0.584200	0.924800	0.603900
C1021	C102	0.570400	0.902100	0.662600
H601	H60	0.566900	0.961500	0.690200
C1031	C103	0.562000	0.791400	0.680200
H611	H61	0.551200	0.776900	0.718700
C1041	C104	0.569300	0.702300	0.640600
C1051	C105	0.582700	0.725600	0.581500
H621	H62	0.586500	0.666200	0.554100
C1061	C106	0.590200	0.835800	0.563500
H631	H63	0.599300	0.850400	0.524100
C1071	C107	0.559200	0.582400	0.658900
C1081	C108	0.643600	0.293200	0.515500
H641	H64	0.699600	0.291000	0.536600
H651	H65	0.624100	0.277200	0.466200
H661	H66	0.626400	0.367200	0.521900
Zn71	Zn7	0.470900	0.350600	0.877900
O431	O43	0.598600	0.451400	0.847500
O441	O44	0.585900	0.349000	0.931400
O451	O45	0.925100	0.408000	0.180100
O461	O46	0.818800	0.308800	0.163300
O471	O47	0.947100	0.067100	0.785200
O481	O48	0.942900	0.006800	0.884900
O491	O49	0.449300	0.309100	0.781500
H671	H67	0.394200	0.301000	0.754000
N191	N19	0.874700	0.593100	0.950800
N201	N20	0.944900	0.625300	0.891800
N211	N21	0.928800	0.727000	0.915600
C1091	C109	0.911800	0.545300	0.913000
C1101	C110	0.886600	0.707000	0.950600
C1111	C111	0.826400	0.533100	0.978300
C1121	C112	0.751100	0.506200	0.932800
H681	H68	0.729800	0.532100	0.886600
C1131	C113	0.707100	0.439300	0.957200
C1141	C114	0.740100	0.399500	0.026100
H691	H69	0.711100	0.353200	0.042000
C1151	C115	0.816400	0.428800	0.071400
C1161	C116	0.859800	0.497400	0.047300
H701	H70	0.910500	0.518900	0.077300
C1171	C117	0.624000	0.411000	0.907500
C1181	C118	0.855000	0.377500	0.144300
C1191	C119	0.915800	0.424800	0.896100
C1201	C120	0.929600	0.402100	0.837400
H711	H71	0.933100	0.461500	0.809800
C1211	C121	0.938000	0.291400	0.819800
H721	H72	0.948800	0.276900	0.781300
C1221	C122	0.930700	0.202300	0.859400
C1231	C123	0.917300	0.225600	0.918500
H731	H73	0.913500	0.166200	0.945900
C1241	C124	0.909800	0.335800	0.936500
H741	H74	0.900700	0.350400	0.975900
C1251	C125	0.940800	0.082400	0.841100
C1261	C126	0.856400	0.793200	0.984500
H751	H75	0.800400	0.791000	0.963400
H761	H76	0.875900	0.777200	0.033800
H771	H77	0.873600	0.867200	0.978100
Zn81	Zn8	0.970900	0.850600	0.877900
O501	O50	0.098600	0.951400	0.847500
O511	O51	0.085900	0.849000	0.931400
O521	O52	0.425100	0.908000	0.180100
O531	O53	0.318800	0.808800	0.163300
O541	O54	0.447100	0.567100	0.785200
O551	O55	0.442900	0.506800	0.884900
O561	O56	0.949300	0.809100	0.781500
H781	H78	0.894200	0.801000	0.754000
N221	N22	0.374700	0.093100	0.950800
N231	N23	0.444900	0.125300	0.891800
N241	N24	0.428800	0.227000	0.915600
C1271	C127	0.411800	0.045300	0.913000
C1281	C128	0.386600	0.207000	0.950600
C1291	C129	0.326400	0.033100	0.978300
C1301	C130	0.251100	0.006200	0.932800
H791	H79	0.229800	0.032100	0.886600
C1311	C131	0.207100	0.939300	0.957200
C1321	C132	0.240100	0.899500	0.026100
H801	H80	0.211100	0.853200	0.042000
C1331	C133	0.316400	0.928800	0.071400
C1341	C134	0.359800	0.997400	0.047300
H811	H81	0.410500	0.018900	0.077300
C1351	C135	0.124000	0.911000	0.907500
C1361	C136	0.355000	0.877500	0.144300
C1371	C137	0.415800	0.924800	0.896100
C1381	C138	0.429600	0.902100	0.837400
H821	H82	0.433100	0.961500	0.809800
C1391	C139	0.438000	0.791400	0.819800
H831	H83	0.448800	0.776900	0.781300
C1401	C140	0.430700	0.702300	0.859400
C1411	C141	0.417300	0.725600	0.918500
H841	H84	0.413500	0.666200	0.945900
C1421	C142	0.409800	0.835800	0.936500
H851	H85	0.400700	0.850400	0.975900
C1431	C143	0.440800	0.582400	0.841100
C1441	C144	0.356400	0.293200	0.984500
H861	H86	0.300400	0.291000	0.963400
H871	H87	0.375900	0.277200	0.033800
H881	H88	0.373600	0.367200	0.978100
Zn91	Zn9	0.500000	0.552700	0.250000
Zn101	Zn10	0.500000	0.813500	0.250000
Zn111	Zn11	0.000000	0.052700	0.250000
Zn121	Zn12	0.000000	0.313500	0.250000
Zn131	Zn13	0.500000	0.447300	0.750000
Zn141	Zn14	0.500000	0.186500	0.750000
Zn151	Zn15	0.000000	0.947300	0.750000
Zn161	Zn16	0.000000	0.686500	0.750000
