data_MARXEK_clean_PM
_symmetry_space_group_name_H-M	'P1'
_cell_length_a	10.224500
_cell_length_b	10.224500
_cell_length_c	14.369000
_cell_angle_alpha	90.000000
_cell_angle_beta	90.000000
_cell_angle_gamma	90.000000
_symmetry_Int_Tables_number 1

loop_
_symmetry_equiv_pos_as_xyz
'x,y,z'

loop_
_atom_site_label
_atom_site_type_symbol
_atom_site_fract_x
_atom_site_fract_y
_atom_site_fract_z
Lu11	Lu1	0.851810	0.148190	0.875000
Lu21	Lu2	0.148190	0.851810	0.375000
Lu31	Lu3	0.851810	0.851810	0.625000
Lu41	Lu4	0.148190	0.148190	0.125000
H11	H1	0.921000	0.558500	0.871000
H21	H2	0.079000	0.441500	0.371000
H31	H3	0.441500	0.921000	0.621000
H41	H4	0.558500	0.079000	0.121000
H51	H5	0.079000	0.558500	0.129000
H61	H6	0.921000	0.441500	0.629000
H71	H7	0.558500	0.921000	0.379000
H81	H8	0.441500	0.079000	0.879000
H91	H9	0.000000	0.900000	0.000000
H101	H10	0.000000	0.100000	0.500000
H111	H11	0.100000	0.000000	0.750000
H121	H12	0.900000	0.000000	0.250000
C11	C1	0.953400	0.604100	0.922100
C21	C2	0.955900	0.740700	0.921900
C31	C3	0.911400	0.819100	0.838700
C41	C4	0.046600	0.395900	0.422100
C51	C5	0.044100	0.259300	0.421900
C61	C6	0.088600	0.180900	0.338700
C71	C7	0.395900	0.953400	0.672100
C81	C8	0.259300	0.955900	0.671900
C91	C9	0.180900	0.911400	0.588700
C101	C10	0.604100	0.046600	0.172100
C111	C11	0.740700	0.044100	0.171900
C121	C12	0.819100	0.088600	0.088700
C131	C13	0.046600	0.604100	0.077900
C141	C14	0.044100	0.740700	0.078100
C151	C15	0.088600	0.819100	0.161300
C161	C16	0.953400	0.395900	0.577900
C171	C17	0.955900	0.259300	0.578100
C181	C18	0.911400	0.180900	0.661300
C191	C19	0.604100	0.953400	0.327900
C201	C20	0.740700	0.955900	0.328100
C211	C21	0.819100	0.911400	0.411300
C221	C22	0.395900	0.046600	0.827900
C231	C23	0.259300	0.044100	0.828100
C241	C24	0.180900	0.088600	0.911300
C251	C25	0.000000	0.387200	0.000000
C261	C26	0.000000	0.536800	0.000000
C271	C27	0.000000	0.809100	0.000000
C281	C28	0.000000	0.612800	0.500000
C291	C29	0.000000	0.463200	0.500000
C301	C30	0.000000	0.190900	0.500000
C311	C31	0.612800	0.000000	0.750000
C321	C32	0.463200	0.000000	0.750000
C331	C33	0.190900	0.000000	0.750000
C341	C34	0.387200	0.000000	0.250000
C351	C35	0.536800	0.000000	0.250000
C361	C36	0.809100	0.000000	0.250000
O11	O1	0.926800	0.333500	0.941900
O21	O2	0.886100	0.935800	0.850200
O31	O3	0.904100	0.760100	0.762100
O41	O4	0.073200	0.666500	0.441900
O51	O5	0.113900	0.064200	0.350200
O61	O6	0.095900	0.239900	0.262100
O71	O7	0.666500	0.926800	0.691900
O81	O8	0.064200	0.886100	0.600200
O91	O9	0.239900	0.904100	0.512100
O101	O10	0.333500	0.073200	0.191900
O111	O11	0.935800	0.113900	0.100200
O121	O12	0.760100	0.095900	0.012100
O131	O13	0.073200	0.333500	0.058100
O141	O14	0.113900	0.935800	0.149800
O151	O15	0.095900	0.760100	0.237900
O161	O16	0.926800	0.666500	0.558100
O171	O17	0.886100	0.064200	0.649800
O181	O18	0.904100	0.239900	0.737900
O191	O19	0.333500	0.926800	0.308100
O201	O20	0.935800	0.886100	0.399800
O211	O21	0.760100	0.904100	0.487900
O221	O22	0.666500	0.073200	0.808100
O231	O23	0.064200	0.113900	0.899800
O241	O24	0.239900	0.095900	0.987900
