data_MASMIC_clean_PM
_symmetry_space_group_name_H-M	'P1'
_cell_length_a	9.489000
_cell_length_b	12.760000
_cell_length_c	13.117000
_cell_angle_alpha	75.880000
_cell_angle_beta	72.930000
_cell_angle_gamma	69.650000
_symmetry_Int_Tables_number 1

loop_
_symmetry_equiv_pos_as_xyz
'x,y,z'

loop_
_atom_site_label
_atom_site_type_symbol
_atom_site_fract_x
_atom_site_fract_y
_atom_site_fract_z
Cu11	Cu1	0.746260	0.462850	0.054260
N11	N1	0.341600	0.524100	0.777300
C11	C1	0.254100	0.562800	0.705700
H11	H1	0.149100	0.597600	0.729600
C21	C2	0.311900	0.553900	0.596900
H21	H2	0.245800	0.582100	0.549800
C31	C3	0.465500	0.503900	0.558900
C41	C4	0.555400	0.464300	0.631700
H31	H3	0.661000	0.429900	0.609700
C51	C5	0.489000	0.475400	0.738700
H41	H4	0.553000	0.446300	0.787100
C61	C6	0.964500	0.057300	0.014800
C71	C7	0.035900	0.105800	0.059400
H51	H5	0.869400	0.935300	0.923600
C81	C8	0.965800	0.216600	0.078800
H61	H6	0.983000	0.752200	0.891600
N21	N2	0.830000	0.281000	0.057900
C91	C9	0.238700	0.766600	0.984800
H71	H7	0.334600	0.724400	0.999300
C101	C10	0.175400	0.875700	0.008800
H81	H8	0.227100	0.903900	0.040800
C111	C11	0.556500	0.496900	0.009100
N31	N3	0.061200	0.503700	0.987600
Cu21	Cu2	0.253740	0.537150	0.945740
N41	N4	0.658400	0.475900	0.222700
C121	C12	0.745900	0.437200	0.294300
H91	H9	0.850900	0.402400	0.270400
C131	C13	0.688100	0.446100	0.403100
H101	H10	0.754200	0.417900	0.450200
C141	C14	0.534500	0.496100	0.441100
C151	C15	0.444600	0.535700	0.368300
H111	H11	0.339000	0.570100	0.390300
C161	C16	0.511000	0.524600	0.261300
H121	H12	0.447000	0.553700	0.212900
C171	C17	0.035500	0.942700	0.985200
C181	C18	0.964100	0.894200	0.940600
H131	H13	0.130600	0.064700	0.076400
C191	C19	0.034200	0.783400	0.921200
H141	H14	0.017000	0.247800	0.108400
N51	N5	0.170000	0.719000	0.942100
C201	C20	0.761300	0.233400	0.015200
H151	H15	0.665400	0.275600	0.000700
C211	C21	0.824600	0.124300	0.991200
H161	H16	0.772900	0.096100	0.959200
C221	C22	0.443500	0.503100	0.990900
N61	N6	0.938800	0.496300	0.012400
