data_MATBEQ_clean_PM
_symmetry_space_group_name_H-M	'P1'
_cell_length_a	21.263000
_cell_length_b	21.287000
_cell_length_c	18.028700
_cell_angle_alpha	90.000000
_cell_angle_beta	96.213000
_cell_angle_gamma	90.000000
_symmetry_Int_Tables_number 1

loop_
_symmetry_equiv_pos_as_xyz
'x,y,z'

loop_
_atom_site_label
_atom_site_type_symbol
_atom_site_fract_x
_atom_site_fract_y
_atom_site_fract_z
Mo11	Mo1	0.714000	0.518900	0.995290
Br11	Br1	0.881510	0.364400	0.069870
Cu11	Cu1	0.737440	0.545610	0.140950
Cu21	Cu2	0.817560	0.588080	0.972310
Cu31	Cu3	0.784970	0.413050	0.012490
S11	S1	0.715500	0.448410	0.089810
S21	S2	0.740220	0.615100	0.045080
S31	S3	0.789940	0.490480	0.924190
N11	N1	0.811800	0.553400	0.219700
N21	N2	0.092600	0.584800	0.471200
N31	N3	0.652700	0.559000	0.190000
N41	N4	0.681100	0.147200	0.619700
N51	N5	0.742800	0.339000	0.939900
C11	C1	0.859300	0.512000	0.224000
H11	H1	0.855400	0.477700	0.192000
C21	C2	0.913500	0.516700	0.272500
H21	H2	0.944700	0.486100	0.272500
C31	C3	0.921700	0.566700	0.321300
C41	C4	0.872400	0.610200	0.319100
H31	H3	0.874800	0.644300	0.351500
C51	C5	0.819900	0.601500	0.267800
H41	H4	0.787700	0.631200	0.266600
C61	C6	0.069600	0.529300	0.449000
H51	H5	0.091800	0.493500	0.466000
C71	C7	0.014200	0.521600	0.401800
H61	H6	0.000200	0.481400	0.388000
C81	C8	0.979800	0.573300	0.375300
C91	C9	0.002700	0.630400	0.401000
H71	H7	0.980400	0.666800	0.386900
C101	C10	0.058100	0.634300	0.447200
H81	H8	0.072500	0.674000	0.462700
C111	C11	0.643600	0.536200	0.257300
H91	H9	0.678100	0.521200	0.288200
C121	C12	0.584300	0.534400	0.282000
H101	H10	0.579800	0.518700	0.329300
C131	C13	0.532100	0.555500	0.237600
C141	C14	0.541600	0.577400	0.167400
H111	H11	0.507500	0.590500	0.134400
C151	C15	0.602100	0.579500	0.147000
H121	H12	0.607900	0.596200	0.100500
C161	C16	0.671300	0.208900	0.616400
H131	H13	0.658300	0.227100	0.570300
C171	C17	0.679700	0.247200	0.679200
H141	H14	0.674300	0.290400	0.674100
C181	C18	0.695900	0.222000	0.748700
C191	C19	0.703600	0.156500	0.751500
H151	H15	0.713700	0.136500	0.797100
C201	C20	0.696200	0.122500	0.687400
H161	H16	0.702000	0.079300	0.690800
C211	C21	0.692300	0.350800	0.891100
H171	H17	0.668100	0.386100	0.899000
C221	C22	0.673700	0.313400	0.828800
H181	H18	0.638200	0.323600	0.796200
C231	C23	0.709400	0.261000	0.817100
C241	C24	0.760700	0.247500	0.869000
H191	H19	0.784800	0.211700	0.863800
C251	C25	0.775700	0.287600	0.928500
H201	H20	0.810700	0.278200	0.962300
Mo21	Mo2	0.214000	0.018900	0.995290
Br21	Br2	0.381510	0.864400	0.069870
Cu41	Cu4	0.237440	0.045610	0.140950
Cu51	Cu5	0.317560	0.088080	0.972310
Cu61	Cu6	0.284970	0.913050	0.012490
S41	S4	0.215500	0.948410	0.089810
S51	S5	0.240220	0.115100	0.045080
S61	S6	0.289940	0.990480	0.924190
N61	N6	0.311800	0.053400	0.219700
N71	N7	0.592600	0.084800	0.471200
N81	N8	0.152700	0.059000	0.190000
N91	N9	0.181100	0.647200	0.619700
N101	N10	0.242800	0.839000	0.939900
C261	C26	0.359300	0.012000	0.224000
H211	H21	0.355400	0.977700	0.192000
C271	C27	0.413500	0.016700	0.272500
H221	H22	0.444700	0.986100	0.272500
C281	C28	0.421700	0.066700	0.321300
C291	C29	0.372400	0.110200	0.319100
H231	H23	0.374800	0.144300	0.351500
C301	C30	0.319900	0.101500	0.267800
H241	H24	0.287700	0.131200	0.266600
C311	C31	0.569600	0.029300	0.449000
H251	H25	0.591800	0.993500	0.466000
C321	C32	0.514200	0.021600	0.401800
H261	H26	0.500200	0.981400	0.388000
C331	C33	0.479800	0.073300	0.375300
C341	C34	0.502700	0.130400	0.401000
H271	H27	0.480400	0.166800	0.386900
C351	C35	0.558100	0.134300	0.447200
H281	H28	0.572500	0.174000	0.462700
C361	C36	0.143600	0.036200	0.257300
H291	H29	0.178100	0.021200	0.288200
C371	C37	0.084300	0.034400	0.282000
H301	H30	0.079800	0.018700	0.329300
C381	C38	0.032100	0.055500	0.237600
C391	C39	0.041600	0.077400	0.167400
H311	H31	0.007500	0.090500	0.134400
C401	C40	0.102100	0.079500	0.147000
H321	H32	0.107900	0.096200	0.100500
C411	C41	0.171300	0.708900	0.616400
H331	H33	0.158300	0.727100	0.570300
C421	C42	0.179700	0.747200	0.679200
H341	H34	0.174300	0.790400	0.674100
C431	C43	0.195900	0.722000	0.748700
C441	C44	0.203600	0.656500	0.751500
H351	H35	0.213700	0.636500	0.797100
C451	C45	0.196200	0.622500	0.687400
H361	H36	0.202000	0.579300	0.690800
C461	C46	0.192300	0.850800	0.891100
H371	H37	0.168100	0.886100	0.899000
C471	C47	0.173700	0.813400	0.828800
H381	H38	0.138200	0.823600	0.796200
C481	C48	0.209400	0.761000	0.817100
C491	C49	0.260700	0.747500	0.869000
H391	H39	0.284800	0.711700	0.863800
C501	C50	0.275700	0.787600	0.928500
H401	H40	0.310700	0.778200	0.962300
Mo31	Mo3	0.286000	0.518900	0.504710
Br31	Br3	0.118490	0.364400	0.430130
Cu71	Cu7	0.262560	0.545610	0.359050
Cu81	Cu8	0.182440	0.588080	0.527690
Cu91	Cu9	0.215030	0.413050	0.487510
S71	S7	0.284500	0.448410	0.410190
S81	S8	0.259780	0.615100	0.454920
S91	S9	0.210060	0.490480	0.575810
N111	N11	0.188200	0.553400	0.280300
N121	N12	0.907400	0.584800	0.028800
N131	N13	0.347300	0.559000	0.310000
N141	N14	0.318900	0.147200	0.880300
N151	N15	0.257200	0.339000	0.560100
C511	C51	0.140700	0.512000	0.276000
H411	H41	0.144600	0.477700	0.308000
C521	C52	0.086500	0.516700	0.227500
H421	H42	0.055300	0.486100	0.227500
C531	C53	0.078300	0.566700	0.178700
C541	C54	0.127600	0.610200	0.180900
H431	H43	0.125200	0.644300	0.148500
C551	C55	0.180100	0.601500	0.232200
H441	H44	0.212300	0.631200	0.233400
C561	C56	0.930400	0.529300	0.051000
H451	H45	0.908200	0.493500	0.034000
C571	C57	0.985800	0.521600	0.098200
H461	H46	0.999800	0.481400	0.112000
C581	C58	0.020200	0.573300	0.124700
C591	C59	0.997300	0.630400	0.099000
H471	H47	0.019600	0.666800	0.113100
C601	C60	0.941900	0.634300	0.052800
H481	H48	0.927500	0.674000	0.037300
C611	C61	0.356400	0.536200	0.242700
H491	H49	0.321900	0.521200	0.211800
C621	C62	0.415700	0.534400	0.218000
H501	H50	0.420200	0.518700	0.170700
C631	C63	0.467900	0.555500	0.262400
C641	C64	0.458400	0.577400	0.332600
H511	H51	0.492500	0.590500	0.365600
C651	C65	0.397900	0.579500	0.353000
H521	H52	0.392100	0.596200	0.399500
C661	C66	0.328700	0.208900	0.883600
H531	H53	0.341700	0.227100	0.929700
C671	C67	0.320300	0.247200	0.820800
H541	H54	0.325700	0.290400	0.825900
C681	C68	0.304100	0.222000	0.751300
C691	C69	0.296400	0.156500	0.748500
H551	H55	0.286300	0.136500	0.702900
C701	C70	0.303800	0.122500	0.812600
H561	H56	0.298000	0.079300	0.809200
C711	C71	0.307700	0.350800	0.608900
H571	H57	0.331900	0.386100	0.601000
C721	C72	0.326300	0.313400	0.671200
H581	H58	0.361800	0.323600	0.703800
C731	C73	0.290600	0.261000	0.682900
C741	C74	0.239300	0.247500	0.631000
H591	H59	0.215200	0.211700	0.636200
C751	C75	0.224300	0.287600	0.571500
H601	H60	0.189300	0.278200	0.537700
Mo41	Mo4	0.786000	0.018900	0.504710
Br41	Br4	0.618490	0.864400	0.430130
Cu101	Cu10	0.762560	0.045610	0.359050
Cu111	Cu11	0.682440	0.088080	0.527690
Cu121	Cu12	0.715030	0.913050	0.487510
S101	S10	0.784500	0.948410	0.410190
S111	S11	0.759780	0.115100	0.454920
S121	S12	0.710060	0.990480	0.575810
N161	N16	0.688200	0.053400	0.280300
N171	N17	0.407400	0.084800	0.028800
N181	N18	0.847300	0.059000	0.310000
N191	N19	0.818900	0.647200	0.880300
N201	N20	0.757200	0.839000	0.560100
C761	C76	0.640700	0.012000	0.276000
H611	H61	0.644600	0.977700	0.308000
C771	C77	0.586500	0.016700	0.227500
H621	H62	0.555300	0.986100	0.227500
C781	C78	0.578300	0.066700	0.178700
C791	C79	0.627600	0.110200	0.180900
H631	H63	0.625200	0.144300	0.148500
C801	C80	0.680100	0.101500	0.232200
H641	H64	0.712300	0.131200	0.233400
C811	C81	0.430400	0.029300	0.051000
H651	H65	0.408200	0.993500	0.034000
C821	C82	0.485800	0.021600	0.098200
H661	H66	0.499800	0.981400	0.112000
C831	C83	0.520200	0.073300	0.124700
C841	C84	0.497300	0.130400	0.099000
H671	H67	0.519600	0.166800	0.113100
C851	C85	0.441900	0.134300	0.052800
H681	H68	0.427500	0.174000	0.037300
C861	C86	0.856400	0.036200	0.242700
H691	H69	0.821900	0.021200	0.211800
C871	C87	0.915700	0.034400	0.218000
H701	H70	0.920200	0.018700	0.170700
C881	C88	0.967900	0.055500	0.262400
C891	C89	0.958400	0.077400	0.332600
H711	H71	0.992500	0.090500	0.365600
C901	C90	0.897900	0.079500	0.353000
H721	H72	0.892100	0.096200	0.399500
C911	C91	0.828700	0.708900	0.883600
H731	H73	0.841700	0.727100	0.929700
C921	C92	0.820300	0.747200	0.820800
H741	H74	0.825700	0.790400	0.825900
C931	C93	0.804100	0.722000	0.751300
C941	C94	0.796400	0.656500	0.748500
H751	H75	0.786300	0.636500	0.702900
C951	C95	0.803800	0.622500	0.812600
H761	H76	0.798000	0.579300	0.809200
C961	C96	0.807700	0.850800	0.608900
H771	H77	0.831900	0.886100	0.601000
C971	C97	0.826300	0.813400	0.671200
H781	H78	0.861800	0.823600	0.703800
C981	C98	0.790600	0.761000	0.682900
C991	C99	0.739300	0.747500	0.631000
H791	H79	0.715200	0.711700	0.636200
C1001	C100	0.724300	0.787600	0.571500
H801	H80	0.689300	0.778200	0.537700
Mo51	Mo5	0.286000	0.481100	0.004710
Br51	Br5	0.118490	0.635600	0.930130
Cu131	Cu13	0.262560	0.454390	0.859050
Cu141	Cu14	0.182440	0.411920	0.027690
Cu151	Cu15	0.215030	0.586950	0.987510
S131	S13	0.284500	0.551590	0.910190
S141	S14	0.259780	0.384900	0.954920
S151	S15	0.210060	0.509520	0.075810
N211	N21	0.188200	0.446600	0.780300
N221	N22	0.907400	0.415200	0.528800
N231	N23	0.347300	0.441000	0.810000
N241	N24	0.318900	0.852800	0.380300
N251	N25	0.257200	0.661000	0.060100
C1011	C101	0.140700	0.488000	0.776000
H811	H81	0.144600	0.522300	0.808000
C1021	C102	0.086500	0.483300	0.727500
H821	H82	0.055300	0.513900	0.727500
C1031	C103	0.078300	0.433300	0.678700
C1041	C104	0.127600	0.389800	0.680900
H831	H83	0.125200	0.355700	0.648500
C1051	C105	0.180100	0.398500	0.732200
H841	H84	0.212300	0.368800	0.733400
C1061	C106	0.930400	0.470700	0.551000
H851	H85	0.908200	0.506500	0.534000
C1071	C107	0.985800	0.478400	0.598200
H861	H86	0.999800	0.518600	0.612000
C1081	C108	0.020200	0.426700	0.624700
C1091	C109	0.997300	0.369600	0.599000
H871	H87	0.019600	0.333200	0.613100
C1101	C110	0.941900	0.365700	0.552800
H881	H88	0.927500	0.326000	0.537300
C1111	C111	0.356400	0.463800	0.742700
H891	H89	0.321900	0.478800	0.711800
C1121	C112	0.415700	0.465600	0.718000
H901	H90	0.420200	0.481300	0.670700
C1131	C113	0.467900	0.444500	0.762400
C1141	C114	0.458400	0.422600	0.832600
H911	H91	0.492500	0.409500	0.865600
C1151	C115	0.397900	0.420500	0.853000
H921	H92	0.392100	0.403800	0.899500
C1161	C116	0.328700	0.791100	0.383600
H931	H93	0.341700	0.772900	0.429700
C1171	C117	0.320300	0.752800	0.320800
H941	H94	0.325700	0.709600	0.325900
C1181	C118	0.304100	0.778000	0.251300
C1191	C119	0.296400	0.843500	0.248500
H951	H95	0.286300	0.863500	0.202900
C1201	C120	0.303800	0.877500	0.312600
H961	H96	0.298000	0.920700	0.309200
C1211	C121	0.307700	0.649200	0.108900
H971	H97	0.331900	0.613900	0.101000
C1221	C122	0.326300	0.686600	0.171200
H981	H98	0.361800	0.676400	0.203800
C1231	C123	0.290600	0.739000	0.182900
C1241	C124	0.239300	0.752500	0.131000
H991	H99	0.215200	0.788300	0.136200
C1251	C125	0.224300	0.712400	0.071500
H1001	H100	0.189300	0.721800	0.037700
Mo61	Mo6	0.786000	0.981100	0.004710
Br61	Br6	0.618490	0.135600	0.930130
Cu161	Cu16	0.762560	0.954390	0.859050
Cu171	Cu17	0.682440	0.911920	0.027690
Cu181	Cu18	0.715030	0.086950	0.987510
S161	S16	0.784500	0.051590	0.910190
S171	S17	0.759780	0.884900	0.954920
S181	S18	0.710060	0.009520	0.075810
N261	N26	0.688200	0.946600	0.780300
N271	N27	0.407400	0.915200	0.528800
N281	N28	0.847300	0.941000	0.810000
N291	N29	0.818900	0.352800	0.380300
N301	N30	0.757200	0.161000	0.060100
C1261	C126	0.640700	0.988000	0.776000
H1011	H101	0.644600	0.022300	0.808000
C1271	C127	0.586500	0.983300	0.727500
H1021	H102	0.555300	0.013900	0.727500
C1281	C128	0.578300	0.933300	0.678700
C1291	C129	0.627600	0.889800	0.680900
H1031	H103	0.625200	0.855700	0.648500
C1301	C130	0.680100	0.898500	0.732200
H1041	H104	0.712300	0.868800	0.733400
C1311	C131	0.430400	0.970700	0.551000
H1051	H105	0.408200	0.006500	0.534000
C1321	C132	0.485800	0.978400	0.598200
H1061	H106	0.499800	0.018600	0.612000
C1331	C133	0.520200	0.926700	0.624700
C1341	C134	0.497300	0.869600	0.599000
H1071	H107	0.519600	0.833200	0.613100
C1351	C135	0.441900	0.865700	0.552800
H1081	H108	0.427500	0.826000	0.537300
C1361	C136	0.856400	0.963800	0.742700
H1091	H109	0.821900	0.978800	0.711800
C1371	C137	0.915700	0.965600	0.718000
H1101	H110	0.920200	0.981300	0.670700
C1381	C138	0.967900	0.944500	0.762400
C1391	C139	0.958400	0.922600	0.832600
H1111	H111	0.992500	0.909500	0.865600
C1401	C140	0.897900	0.920500	0.853000
H1121	H112	0.892100	0.903800	0.899500
C1411	C141	0.828700	0.291100	0.383600
H1131	H113	0.841700	0.272900	0.429700
C1421	C142	0.820300	0.252800	0.320800
H1141	H114	0.825700	0.209600	0.325900
C1431	C143	0.804100	0.278000	0.251300
C1441	C144	0.796400	0.343500	0.248500
H1151	H115	0.786300	0.363500	0.202900
C1451	C145	0.803800	0.377500	0.312600
H1161	H116	0.798000	0.420700	0.309200
C1461	C146	0.807700	0.149200	0.108900
H1171	H117	0.831900	0.113900	0.101000
C1471	C147	0.826300	0.186600	0.171200
H1181	H118	0.861800	0.176400	0.203800
C1481	C148	0.790600	0.239000	0.182900
C1491	C149	0.739300	0.252500	0.131000
H1191	H119	0.715200	0.288300	0.136200
C1501	C150	0.724300	0.212400	0.071500
H1201	H120	0.689300	0.221800	0.037700
Mo71	Mo7	0.714000	0.481100	0.495290
Br71	Br7	0.881510	0.635600	0.569870
Cu191	Cu19	0.737440	0.454390	0.640950
Cu201	Cu20	0.817560	0.411920	0.472310
Cu211	Cu21	0.784970	0.586950	0.512490
S191	S19	0.715500	0.551590	0.589810
S201	S20	0.740220	0.384900	0.545080
S211	S21	0.789940	0.509520	0.424190
N311	N31	0.811800	0.446600	0.719700
N321	N32	0.092600	0.415200	0.971200
N331	N33	0.652700	0.441000	0.690000
N341	N34	0.681100	0.852800	0.119700
N351	N35	0.742800	0.661000	0.439900
C1511	C151	0.859300	0.488000	0.724000
H1211	H121	0.855400	0.522300	0.692000
C1521	C152	0.913500	0.483300	0.772500
H1221	H122	0.944700	0.513900	0.772500
C1531	C153	0.921700	0.433300	0.821300
C1541	C154	0.872400	0.389800	0.819100
H1231	H123	0.874800	0.355700	0.851500
C1551	C155	0.819900	0.398500	0.767800
H1241	H124	0.787700	0.368800	0.766600
C1561	C156	0.069600	0.470700	0.949000
H1251	H125	0.091800	0.506500	0.966000
C1571	C157	0.014200	0.478400	0.901800
H1261	H126	0.000200	0.518600	0.888000
C1581	C158	0.979800	0.426700	0.875300
C1591	C159	0.002700	0.369600	0.901000
H1271	H127	0.980400	0.333200	0.886900
C1601	C160	0.058100	0.365700	0.947200
H1281	H128	0.072500	0.326000	0.962700
C1611	C161	0.643600	0.463800	0.757300
H1291	H129	0.678100	0.478800	0.788200
C1621	C162	0.584300	0.465600	0.782000
H1301	H130	0.579800	0.481300	0.829300
C1631	C163	0.532100	0.444500	0.737600
C1641	C164	0.541600	0.422600	0.667400
H1311	H131	0.507500	0.409500	0.634400
C1651	C165	0.602100	0.420500	0.647000
H1321	H132	0.607900	0.403800	0.600500
C1661	C166	0.671300	0.791100	0.116400
H1331	H133	0.658300	0.772900	0.070300
C1671	C167	0.679700	0.752800	0.179200
H1341	H134	0.674300	0.709600	0.174100
C1681	C168	0.695900	0.778000	0.248700
C1691	C169	0.703600	0.843500	0.251500
H1351	H135	0.713700	0.863500	0.297100
C1701	C170	0.696200	0.877500	0.187400
H1361	H136	0.702000	0.920700	0.190800
C1711	C171	0.692300	0.649200	0.391100
H1371	H137	0.668100	0.613900	0.399000
C1721	C172	0.673700	0.686600	0.328800
H1381	H138	0.638200	0.676400	0.296200
C1731	C173	0.709400	0.739000	0.317100
C1741	C174	0.760700	0.752500	0.369000
H1391	H139	0.784800	0.788300	0.363800
C1751	C175	0.775700	0.712400	0.428500
H1401	H140	0.810700	0.721800	0.462300
Mo81	Mo8	0.214000	0.981100	0.495290
Br81	Br8	0.381510	0.135600	0.569870
Cu221	Cu22	0.237440	0.954390	0.640950
Cu231	Cu23	0.317560	0.911920	0.472310
Cu241	Cu24	0.284970	0.086950	0.512490
S221	S22	0.215500	0.051590	0.589810
S231	S23	0.240220	0.884900	0.545080
S241	S24	0.289940	0.009520	0.424190
N361	N36	0.311800	0.946600	0.719700
N371	N37	0.592600	0.915200	0.971200
N381	N38	0.152700	0.941000	0.690000
N391	N39	0.181100	0.352800	0.119700
N401	N40	0.242800	0.161000	0.439900
C1761	C176	0.359300	0.988000	0.724000
H1411	H141	0.355400	0.022300	0.692000
C1771	C177	0.413500	0.983300	0.772500
H1421	H142	0.444700	0.013900	0.772500
C1781	C178	0.421700	0.933300	0.821300
C1791	C179	0.372400	0.889800	0.819100
H1431	H143	0.374800	0.855700	0.851500
C1801	C180	0.319900	0.898500	0.767800
H1441	H144	0.287700	0.868800	0.766600
C1811	C181	0.569600	0.970700	0.949000
H1451	H145	0.591800	0.006500	0.966000
C1821	C182	0.514200	0.978400	0.901800
H1461	H146	0.500200	0.018600	0.888000
C1831	C183	0.479800	0.926700	0.875300
C1841	C184	0.502700	0.869600	0.901000
H1471	H147	0.480400	0.833200	0.886900
C1851	C185	0.558100	0.865700	0.947200
H1481	H148	0.572500	0.826000	0.962700
C1861	C186	0.143600	0.963800	0.757300
H1491	H149	0.178100	0.978800	0.788200
C1871	C187	0.084300	0.965600	0.782000
H1501	H150	0.079800	0.981300	0.829300
C1881	C188	0.032100	0.944500	0.737600
C1891	C189	0.041600	0.922600	0.667400
H1511	H151	0.007500	0.909500	0.634400
C1901	C190	0.102100	0.920500	0.647000
H1521	H152	0.107900	0.903800	0.600500
C1911	C191	0.171300	0.291100	0.116400
H1531	H153	0.158300	0.272900	0.070300
C1921	C192	0.179700	0.252800	0.179200
H1541	H154	0.174300	0.209600	0.174100
C1931	C193	0.195900	0.278000	0.248700
C1941	C194	0.203600	0.343500	0.251500
H1551	H155	0.213700	0.363500	0.297100
C1951	C195	0.196200	0.377500	0.187400
H1561	H156	0.202000	0.420700	0.190800
C1961	C196	0.192300	0.149200	0.391100
H1571	H157	0.168100	0.113900	0.399000
C1971	C197	0.173700	0.186600	0.328800
H1581	H158	0.138200	0.176400	0.296200
C1981	C198	0.209400	0.239000	0.317100
C1991	C199	0.260700	0.252500	0.369000
H1591	H159	0.284800	0.288300	0.363800
C2001	C200	0.275700	0.212400	0.428500
H1601	H160	0.310700	0.221800	0.462300
