data_MATFIY_clean_PM
_symmetry_space_group_name_H-M	'P1'
_cell_length_a	12.068000
_cell_length_b	13.909000
_cell_length_c	22.742000
_cell_angle_alpha	95.902000
_cell_angle_beta	104.964000
_cell_angle_gamma	103.970000
_symmetry_Int_Tables_number 1

loop_
_symmetry_equiv_pos_as_xyz
'x,y,z'

loop_
_atom_site_label
_atom_site_type_symbol
_atom_site_fract_x
_atom_site_fract_y
_atom_site_fract_z
Ag11	Ag1	0.311300	0.832250	0.933530
N11	N1	0.531200	0.689900	0.576400
Ag21	Ag2	0.512640	0.942780	0.079470
C11	C1	0.244000	0.059000	0.522600
H11	H1	0.290900	0.068900	0.495700
Ag31	Ag3	0.817360	0.575720	0.440310
C21	C2	0.773400	0.272100	0.348000
H21	H2	0.801600	0.219100	0.361200
Ag41	Ag4	0.143280	0.016340	0.854130
N21	N2	0.975900	0.789900	0.498000
C31	C3	0.215200	0.080300	0.010100
Ag51	Ag5	0.970150	0.157060	0.300070
N31	N3	0.904200	0.716400	0.569000
Ag61	Ag6	0.397420	0.121210	0.172980
N41	N4	0.253000	0.130000	0.565300
C41	C4	0.683100	0.173600	0.243100
C51	C5	0.105000	0.027300	0.604100
H31	H3	0.058900	0.017500	0.631400
N51	N5	0.966000	0.248700	0.011800
C61	C6	0.657000	0.338000	0.274800
H41	H4	0.604000	0.331700	0.235800
N61	N6	0.525500	0.805000	0.027200
C71	C7	0.130900	0.139500	0.015500
N71	N7	0.459000	0.767400	0.968300
C81	C8	0.070000	0.273000	0.052600
H51	H5	0.087600	0.331500	0.081200
N81	N8	0.727500	0.059400	0.189800
N91	N9	0.619500	0.059100	0.164000
N101	N10	0.775200	0.128200	0.241800
N111	N11	0.863100	0.928900	0.836100
N121	N12	0.307800	0.078900	0.057500
C91	C9	0.504000	0.755000	0.614700
H61	H6	0.430500	0.768700	0.603100
N131	N13	0.356500	0.010700	0.037600
C101	C10	0.637000	0.672800	0.591200
H71	H7	0.653300	0.626300	0.564600
N141	N14	0.948200	0.918500	0.811600
C111	C11	0.686000	0.427000	0.315600
H81	H8	0.654700	0.479500	0.303500
C121	C12	0.581900	0.799700	0.668700
H91	H9	0.557400	0.837300	0.696600
N151	N15	0.761400	0.438800	0.374200
N161	N16	0.589300	0.131200	0.195000
C131	C13	0.725500	0.723100	0.646200
H101	H10	0.799600	0.710200	0.656200
N171	N17	0.759700	0.883400	0.793600
C141	C14	0.156000	0.225100	0.059200
H111	H11	0.227300	0.247900	0.091000
N181	N18	0.907300	0.709900	0.509500
C151	C15	0.938900	0.163100	0.972100
H121	H12	0.862600	0.140500	0.944300
N191	N19	0.301600	0.977700	0.979400
C161	C16	0.700900	0.258700	0.288400
N201	N20	0.900900	0.862900	0.754000
C171	C17	0.805300	0.360400	0.388400
H131	H13	0.859100	0.367100	0.427100
N211	N21	0.207200	0.017500	0.961600
C181	C18	0.098200	0.953000	0.557200
N221	N22	0.978100	0.807400	0.595500
C191	C19	0.015800	0.848900	0.552100
C201	C20	0.016300	0.106700	0.970100
H141	H14	0.995500	0.049200	0.940300
C211	C21	0.161000	0.966400	0.517900
H151	H15	0.150300	0.913600	0.486500
C221	C22	0.190000	0.122000	0.606700
H161	H16	0.201500	0.177500	0.636600
C231	C23	0.700300	0.793200	0.686000
C241	C24	0.783500	0.841900	0.743800
N231	N23	0.602200	0.749800	0.045500
N241	N24	0.488200	0.688000	0.949300
C251	C25	0.571000	0.677000	0.996400
C261	C26	0.628000	0.598000	0.994300
C271	C27	0.597000	0.519700	0.947100
H171	H17	0.538600	0.520300	0.911600
C281	C28	0.719000	0.597000	0.045400
H181	H18	0.744200	0.646600	0.080600
C291	C29	0.645000	0.440100	0.947000
H191	H19	0.615500	0.386600	0.913900
C301	C30	0.770000	0.518000	0.040700
H201	H20	0.836700	0.522300	0.073500
N251	N25	0.740000	0.441100	0.997700
Ag71	Ag7	0.846070	0.339040	0.003320
Ag81	Ag8	0.688700	0.167750	0.066470
N261	N26	0.468800	0.310100	0.423600
Ag91	Ag9	0.487360	0.057220	0.920530
C311	C31	0.756000	0.941000	0.477400
H211	H21	0.709100	0.931100	0.504300
Ag101	Ag10	0.182640	0.424280	0.559690
C321	C32	0.226600	0.727900	0.652000
H221	H22	0.198400	0.780900	0.638800
Ag111	Ag11	0.856720	0.983660	0.145870
N271	N27	0.024100	0.210100	0.502000
C331	C33	0.784800	0.919700	0.989900
Ag121	Ag12	0.029850	0.842940	0.699930
N281	N28	0.095800	0.283600	0.431000
Ag131	Ag13	0.602580	0.878790	0.827020
N291	N29	0.747000	0.870000	0.434700
C341	C34	0.316900	0.826400	0.756900
C351	C35	0.895000	0.972700	0.395900
H231	H23	0.941100	0.982500	0.368600
N301	N30	0.034000	0.751300	0.988200
C361	C36	0.343000	0.662000	0.725200
H241	H24	0.396000	0.668300	0.764200
N311	N31	0.474500	0.195000	0.972800
C371	C37	0.869100	0.860500	0.984500
N321	N32	0.541000	0.232600	0.031700
C381	C38	0.930000	0.727000	0.947400
H251	H25	0.912400	0.668500	0.918800
N331	N33	0.272500	0.940600	0.810200
N341	N34	0.380500	0.940900	0.836000
N351	N35	0.224800	0.871800	0.758200
N361	N36	0.136900	0.071100	0.163900
N371	N37	0.692200	0.921100	0.942500
C391	C39	0.496000	0.245000	0.385300
H261	H26	0.569500	0.231300	0.396900
N381	N38	0.643500	0.989300	0.962400
C401	C40	0.363000	0.327200	0.408800
H271	H27	0.346700	0.373700	0.435400
N391	N39	0.051800	0.081500	0.188400
C411	C41	0.314000	0.573000	0.684400
H281	H28	0.345300	0.520500	0.696500
C421	C42	0.418100	0.200300	0.331300
H291	H29	0.442600	0.162700	0.303400
N401	N40	0.238600	0.561200	0.625800
N411	N41	0.410700	0.868800	0.805000
C431	C43	0.274500	0.276900	0.353800
H301	H30	0.200400	0.289800	0.343800
N421	N42	0.240300	0.116600	0.206400
C441	C44	0.844000	0.774900	0.940800
H311	H31	0.772700	0.752100	0.909000
N431	N43	0.092700	0.290100	0.490500
C451	C45	0.061100	0.836900	0.027900
H321	H32	0.137400	0.859500	0.055700
N441	N44	0.698400	0.022300	0.020600
C461	C46	0.299100	0.741300	0.711600
N451	N45	0.099100	0.137100	0.246000
C471	C47	0.194700	0.639600	0.611600
H331	H33	0.140900	0.632900	0.572900
N461	N46	0.792800	0.982500	0.038400
C481	C48	0.901800	0.047000	0.442800
N471	N47	0.021900	0.192600	0.404500
C491	C49	0.984200	0.151100	0.447900
C501	C50	0.983700	0.893300	0.029900
H341	H34	0.004500	0.950800	0.059700
C511	C51	0.839000	0.033600	0.482100
H351	H35	0.849700	0.086400	0.513500
C521	C52	0.810000	0.878000	0.393300
H361	H36	0.798500	0.822500	0.363400
C531	C53	0.299700	0.206800	0.314000
C541	C54	0.216500	0.158100	0.256200
N481	N48	0.397800	0.250200	0.954500
N491	N49	0.511800	0.312000	0.050700
C551	C55	0.429000	0.323000	0.003600
C561	C56	0.372000	0.402000	0.005700
C571	C57	0.403000	0.480300	0.052900
H371	H37	0.461400	0.479700	0.088400
C581	C58	0.281000	0.403000	0.954600
H381	H38	0.255800	0.353400	0.919400
C591	C59	0.355000	0.559900	0.053000
H391	H39	0.384500	0.613400	0.086100
C601	C60	0.230000	0.482000	0.959300
H401	H40	0.163300	0.477700	0.926500
N501	N50	0.260000	0.558900	0.002300
Ag141	Ag14	0.153930	0.660960	0.996680
