data_MATHEV_clean_PM
_symmetry_space_group_name_H-M	'P1'
_cell_length_a	7.614600
_cell_length_b	7.514400
_cell_length_c	17.750000
_cell_angle_alpha	90.000000
_cell_angle_beta	97.351000
_cell_angle_gamma	90.000000
_symmetry_Int_Tables_number 1

loop_
_symmetry_equiv_pos_as_xyz
'x,y,z'

loop_
_atom_site_label
_atom_site_type_symbol
_atom_site_fract_x
_atom_site_fract_y
_atom_site_fract_z
Co11	Co1	0.379270	0.442640	0.138090
Co21	Co2	0.725320	0.680160	0.193380
P11	P1	0.550990	0.067590	0.188330
H11	H1	0.662800	0.132900	0.199100
O11	O1	0.428200	0.180300	0.133650
O21	O2	0.208800	0.653900	0.122220
O31	O3	0.598800	0.534200	0.093150
O41	O4	0.476000	0.044900	0.264350
O51	O5	0.702500	0.590100	0.983240
O61	O6	0.162800	0.356600	0.202230
O71	O7	0.592600	0.892900	0.153360
O81	O8	0.943000	0.748300	0.141100
O91	O9	0.899300	0.465100	0.226070
C11	C1	0.588600	0.536800	0.021280
C21	C2	0.040100	0.471100	0.197150
C31	C3	0.066700	0.638300	0.149280
Co31	Co3	0.620730	0.942640	0.361910
Co41	Co4	0.274680	0.180160	0.306620
P21	P2	0.449010	0.567590	0.311670
H21	H2	0.337200	0.632900	0.300900
O101	O10	0.571800	0.680300	0.366350
O111	O11	0.791200	0.153900	0.377780
O121	O12	0.401200	0.034200	0.406850
O131	O13	0.524000	0.544900	0.235650
O141	O14	0.297500	0.090100	0.516760
O151	O15	0.837200	0.856600	0.297770
O161	O16	0.407400	0.392900	0.346640
O171	O17	0.057000	0.248300	0.358900
O181	O18	0.100700	0.965100	0.273930
C41	C4	0.411400	0.036800	0.478720
C51	C5	0.959900	0.971100	0.302850
C61	C6	0.933300	0.138300	0.350720
Co51	Co5	0.620730	0.557360	0.861910
Co61	Co6	0.274680	0.319840	0.806620
P31	P3	0.449010	0.932410	0.811670
H31	H3	0.337200	0.867100	0.800900
O191	O19	0.571800	0.819700	0.866350
O201	O20	0.791200	0.346100	0.877780
O211	O21	0.401200	0.465800	0.906850
O221	O22	0.524000	0.955100	0.735650
O231	O23	0.297500	0.409900	0.016760
O241	O24	0.837200	0.643400	0.797770
O251	O25	0.407400	0.107100	0.846640
O261	O26	0.057000	0.251700	0.858900
O271	O27	0.100700	0.534900	0.773930
C71	C7	0.411400	0.463200	0.978720
C81	C8	0.959900	0.528900	0.802850
C91	C9	0.933300	0.361700	0.850720
Co71	Co7	0.379270	0.057360	0.638090
Co81	Co8	0.725320	0.819840	0.693380
P41	P4	0.550990	0.432410	0.688330
H41	H4	0.662800	0.367100	0.699100
O281	O28	0.428200	0.319700	0.633650
O291	O29	0.208800	0.846100	0.622220
O301	O30	0.598800	0.965800	0.593150
O311	O31	0.476000	0.455100	0.764350
O321	O32	0.702500	0.909900	0.483240
O331	O33	0.162800	0.143400	0.702230
O341	O34	0.592600	0.607100	0.653360
O351	O35	0.943000	0.751700	0.641100
O361	O36	0.899300	0.034900	0.726070
C101	C10	0.588600	0.963200	0.521280
C111	C11	0.040100	0.028900	0.697150
C121	C12	0.066700	0.861700	0.649280
