data_MATTUX_clean_PM
_symmetry_space_group_name_H-M	'P1'
_cell_length_a	12.975800
_cell_length_b	13.109500
_cell_length_c	13.925800
_cell_angle_alpha	85.310000
_cell_angle_beta	70.710000
_cell_angle_gamma	84.193000
_symmetry_Int_Tables_number 1

loop_
_symmetry_equiv_pos_as_xyz
'x,y,z'

loop_
_atom_site_label
_atom_site_type_symbol
_atom_site_fract_x
_atom_site_fract_y
_atom_site_fract_z
Zn11	Zn1	0.192480	0.318910	0.663230
Zn21	Zn2	0.128930	0.325620	0.886450
H11	H1	0.760000	0.347400	0.970700
H21	H2	0.582000	0.349800	0.972100
H31	H3	0.872100	0.305100	0.668300
H41	H4	0.449000	0.329400	0.880500
H51	H5	0.560600	0.286400	0.578500
H61	H6	0.737200	0.287900	0.576500
H71	H7	0.201000	0.988600	0.650800
H81	H8	0.105600	0.823400	0.976500
H91	H9	0.117100	0.998900	0.957200
H101	H10	0.124700	0.655500	0.898400
H111	H11	0.170400	0.649700	0.601000
H121	H12	0.184100	0.820000	0.573400
H131	H13	0.119600	0.174900	0.058300
H141	H14	0.135300	0.167200	0.217500
H151	H15	0.099000	0.467600	0.216300
H161	H16	0.081600	0.466300	0.060400
H171	H17	0.196200	0.168000	0.342600
H181	H18	0.209000	0.170600	0.504100
H191	H19	0.090900	0.448300	0.528600
H201	H20	0.065200	0.450200	0.373100
C11	C1	0.948390	0.328320	0.815270
C21	C2	0.832980	0.326940	0.817090
C31	C3	0.745390	0.339220	0.909340
C41	C4	0.640240	0.339280	0.910160
C51	C5	0.615710	0.324080	0.821330
C61	C6	0.704350	0.310940	0.728310
C71	C7	0.812520	0.313270	0.729710
C81	C8	0.508660	0.321750	0.818990
C91	C9	0.487390	0.308860	0.731000
C101	C10	0.574880	0.295860	0.639690
C111	C11	0.679070	0.296860	0.638790
C121	C12	0.370240	0.311860	0.733140
C131	C13	0.162800	0.125640	0.790670
C141	C14	0.159910	0.011210	0.801090
C151	C15	0.181660	0.954840	0.716650
C161	C16	0.175580	0.847510	0.726620
C171	C17	0.147660	0.797460	0.824170
C181	C18	0.125250	0.856210	0.910270
C191	C19	0.131740	0.960210	0.898720
C201	C20	0.142180	0.689760	0.832840
C211	C21	0.161330	0.634100	0.749720
C221	C22	0.170000	0.688250	0.656040
C231	C23	0.177600	0.787690	0.638480
C241	C24	0.157460	0.519220	0.760330
C251	C25	0.129500	0.235950	0.085450
C261	C26	0.138600	0.231200	0.179750
C271	C27	0.153260	0.322220	0.223500
C281	C28	0.163990	0.320670	0.325880
C291	C29	0.117980	0.405910	0.180940
C301	C30	0.108620	0.404400	0.087290
C311	C31	0.186600	0.231330	0.374230
C321	C32	0.195400	0.234000	0.470460
C331	C33	0.125800	0.393990	0.485130
C341	C34	0.111100	0.396800	0.391980
N11	N1	0.133990	0.323780	0.029640
N21	N2	0.186010	0.320080	0.519200
O11	O1	0.966100	0.334850	0.898230
O21	O2	0.022600	0.326300	0.728780
O31	O3	0.296850	0.314560	0.817600
O41	O4	0.354380	0.311950	0.648600
O51	O5	0.191990	0.166320	0.700960
O61	O6	0.133470	0.172740	0.871440
O71	O7	0.181000	0.472800	0.678590
O81	O8	0.131210	0.478040	0.848950
Zn31	Zn3	0.807520	0.681090	0.336770
Zn41	Zn4	0.871070	0.674380	0.113550
H211	H21	0.240000	0.652600	0.029300
H221	H22	0.418000	0.650200	0.027900
H231	H23	0.127900	0.694900	0.331700
H241	H24	0.551000	0.670600	0.119500
H251	H25	0.439400	0.713600	0.421500
H261	H26	0.262800	0.712100	0.423500
H271	H27	0.799000	0.011400	0.349200
H281	H28	0.894400	0.176600	0.023500
H291	H29	0.882900	0.001100	0.042800
H301	H30	0.875300	0.344500	0.101600
H311	H31	0.829600	0.350300	0.399000
H321	H32	0.815900	0.180000	0.426600
H331	H33	0.880400	0.825100	0.941700
H341	H34	0.864700	0.832800	0.782500
H351	H35	0.901000	0.532400	0.783700
H361	H36	0.918400	0.533700	0.939600
H371	H37	0.803800	0.832000	0.657400
H381	H38	0.791000	0.829400	0.495900
H391	H39	0.909100	0.551700	0.471400
H401	H40	0.934800	0.549800	0.626900
C351	C35	0.051610	0.671680	0.184730
C361	C36	0.167020	0.673060	0.182910
C371	C37	0.254610	0.660780	0.090660
C381	C38	0.359760	0.660720	0.089840
C391	C39	0.384290	0.675920	0.178670
C401	C40	0.295650	0.689060	0.271690
C411	C41	0.187480	0.686730	0.270290
C421	C42	0.491340	0.678250	0.181010
C431	C43	0.512610	0.691140	0.269000
C441	C44	0.425120	0.704140	0.360310
C451	C45	0.320930	0.703140	0.361210
C461	C46	0.629760	0.688140	0.266860
C471	C47	0.837200	0.874360	0.209330
C481	C48	0.840090	0.988790	0.198910
C491	C49	0.818340	0.045160	0.283350
C501	C50	0.824420	0.152490	0.273380
C511	C51	0.852340	0.202540	0.175830
C521	C52	0.874750	0.143790	0.089730
C531	C53	0.868260	0.039790	0.101280
C541	C54	0.857820	0.310240	0.167160
C551	C55	0.838670	0.365900	0.250280
C561	C56	0.830000	0.311750	0.343960
C571	C57	0.822400	0.212310	0.361520
C581	C58	0.842540	0.480780	0.239670
C591	C59	0.870500	0.764050	0.914550
C601	C60	0.861400	0.768800	0.820250
C611	C61	0.846740	0.677780	0.776500
C621	C62	0.836010	0.679330	0.674120
C631	C63	0.882020	0.594090	0.819060
C641	C64	0.891380	0.595600	0.912710
C651	C65	0.813400	0.768670	0.625770
C661	C66	0.804600	0.766000	0.529540
C671	C67	0.874200	0.606010	0.514870
C681	C68	0.888900	0.603200	0.608020
N31	N3	0.866010	0.676220	0.970360
N41	N4	0.813990	0.679920	0.480800
O91	O9	0.033900	0.665150	0.101770
O101	O10	0.977400	0.673700	0.271220
O111	O11	0.703150	0.685440	0.182400
O121	O12	0.645620	0.688050	0.351400
O131	O13	0.808010	0.833680	0.299040
O141	O14	0.866530	0.827260	0.128560
O151	O15	0.819000	0.527200	0.321410
O161	O16	0.868790	0.521960	0.151050
