data_MAVNUU_manual_PM
_symmetry_space_group_name_H-M	'P1'
_cell_length_a	7.230900
_cell_length_b	26.984200
_cell_length_c	31.262600
_cell_angle_alpha	90.000000
_cell_angle_beta	90.000000
_cell_angle_gamma	90.000000
_symmetry_Int_Tables_number 1

loop_
_symmetry_equiv_pos_as_xyz
'x,y,z'

loop_
_atom_site_label
_atom_site_type_symbol
_atom_site_fract_x
_atom_site_fract_y
_atom_site_fract_z
Zn11	Zn1	0.000200	0.032000	0.762140
Zn21	Zn2	0.692700	0.453260	0.730940
Zn31	Zn3	0.000200	0.968000	0.237860
Zn41	Zn4	0.692700	0.546740	0.269060
Zn51	Zn5	0.999800	0.468000	0.262140
Zn61	Zn6	0.307300	0.046740	0.230940
Zn71	Zn7	0.999800	0.532000	0.737860
Zn81	Zn8	0.307300	0.953260	0.769060
C11	C1	0.347000	0.048900	0.344400
C21	C2	0.165000	0.064000	0.338500
C31	C3	0.095500	0.103500	0.362000
C41	C4	0.208000	0.128000	0.391300
C51	C5	0.390000	0.112800	0.397200
C61	C6	0.459400	0.073300	0.373800
C71	C7	0.055000	0.039400	0.306800
C81	C8	0.022300	0.201600	0.535900
C91	C9	0.159000	0.172500	0.517100
C101	C10	0.279400	0.145500	0.542700
C111	C11	0.263900	0.147600	0.587000
C121	C12	0.128000	0.176700	0.605700
C131	C13	0.006800	0.203700	0.580200
C141	C14	0.402000	0.122900	0.617300
C151	C15	0.590000	0.120600	0.608500
C161	C16	0.712400	0.102500	0.639000
C171	C17	0.646000	0.086600	0.678400
C181	C18	0.458000	0.088800	0.687300
C191	C19	0.336000	0.107000	0.656800
C201	C20	0.785000	0.071400	0.709300
C211	C21	0.026700	0.261000	0.472100
C221	C22	0.995100	0.264600	0.428400
C231	C23	0.110000	0.293700	0.403100
C241	C24	0.257200	0.319100	0.421600
C251	C25	0.288800	0.315500	0.465400
C261	C26	0.174000	0.286400	0.490600
C271	C27	0.901000	0.229800	0.504800
C281	C28	0.762200	0.197100	0.476900
C291	C29	0.783100	0.146000	0.473200
C301	C30	0.661000	0.118900	0.448000
C311	C31	0.519000	0.142900	0.426400
C321	C32	0.498100	0.193900	0.430100
C331	C33	0.620000	0.221000	0.455400
C341	C34	0.723000	0.437100	0.311000
C351	C35	0.766700	0.266700	0.529800
C361	C36	0.791500	0.317800	0.529300
C371	C37	0.672000	0.348200	0.552300
C381	C38	0.528200	0.327500	0.575700
C391	C39	0.503400	0.276400	0.576200
C401	C40	0.623000	0.246000	0.553200
C411	C41	0.087600	0.375200	0.630300
C421	C42	0.204000	0.345400	0.606000
C431	C43	0.387000	0.359500	0.599300
C441	C44	0.452900	0.403300	0.617000
C451	C45	0.336000	0.433100	0.641300
C461	C46	0.154000	0.419000	0.648000
C471	C47	0.021000	0.456600	0.676800
C481	C48	0.412000	0.414000	0.338300
C491	C49	0.304900	0.386100	0.366300
C501	C50	0.389000	0.353000	0.394200
C511	C51	0.580000	0.347700	0.394200
C521	C52	0.687400	0.375700	0.366300
C531	C53	0.603000	0.408800	0.338300
C541	C54	0.347000	0.951100	0.655600
C551	C55	0.165000	0.936000	0.661500
C561	C56	0.095500	0.896500	0.638000
C571	C57	0.208000	0.872000	0.608700
C581	C58	0.390000	0.887200	0.602800
C591	C59	0.459400	0.926700	0.626200
C601	C60	0.055000	0.960600	0.693200
C611	C61	0.022300	0.798400	0.464100
C621	C62	0.159000	0.827500	0.482900
C631	C63	0.279400	0.854500	0.457300
C641	C64	0.263900	0.852400	0.413000
C651	C65	0.128000	0.823300	0.394300
C661	C66	0.006800	0.796300	0.419800
C671	C67	0.402000	0.877100	0.382700
C681	C68	0.590000	0.879400	0.391500
C691	C69	0.712400	0.897500	0.361000
C701	C70	0.646000	0.913400	0.321600
C711	C71	0.458000	0.911200	0.312700
C721	C72	0.336000	0.893000	0.343200
C731	C73	0.785000	0.928600	0.290700
C741	C74	0.026700	0.739000	0.527900
C751	C75	0.995100	0.735400	0.571600
C761	C76	0.110000	0.706300	0.596900
C771	C77	0.257200	0.680900	0.578400
C781	C78	0.288800	0.684500	0.534600
C791	C79	0.174000	0.713600	0.509400
C801	C80	0.901000	0.770200	0.495200
C811	C81	0.762200	0.802900	0.523100
C821	C82	0.783100	0.854000	0.526800
C831	C83	0.661000	0.881100	0.552000
C841	C84	0.519000	0.857100	0.573600
C851	C85	0.498100	0.806100	0.569900
C861	C86	0.620000	0.779000	0.544600
C871	C87	0.723000	0.562900	0.689000
C881	C88	0.766700	0.733300	0.470200
C891	C89	0.791500	0.682200	0.470700
C901	C90	0.672000	0.651800	0.447700
C911	C91	0.528200	0.672500	0.424300
C921	C92	0.503400	0.723600	0.423800
C931	C93	0.623000	0.754000	0.446800
C941	C94	0.087600	0.624800	0.369700
C951	C95	0.204000	0.654600	0.394000
C961	C96	0.387000	0.640500	0.400700
C971	C97	0.452900	0.596700	0.383000
C981	C98	0.336000	0.566900	0.358700
C991	C99	0.154000	0.581000	0.352000
C1001	C100	0.021000	0.543400	0.323200
C1011	C101	0.412000	0.586000	0.661700
C1021	C102	0.304900	0.613900	0.633700
C1031	C103	0.389000	0.647000	0.605800
C1041	C104	0.580000	0.652300	0.605800
C1051	C105	0.687400	0.624300	0.633700
C1061	C106	0.603000	0.591200	0.661700
C1071	C107	0.653000	0.451100	0.844400
C1081	C108	0.835000	0.436000	0.838500
C1091	C109	0.904500	0.396500	0.862000
C1101	C110	0.792000	0.372000	0.891300
C1111	C111	0.610000	0.387200	0.897200
C1121	C112	0.540600	0.426700	0.873800
C1131	C113	0.945000	0.460600	0.806800
C1141	C114	0.977700	0.298400	0.035900
C1151	C115	0.841000	0.327500	0.017100
C1161	C116	0.720600	0.354500	0.042700
C1171	C117	0.736100	0.352400	0.087000
C1181	C118	0.872000	0.323300	0.105700
C1191	C119	0.993200	0.296300	0.080200
C1201	C120	0.598000	0.377100	0.117300
C1211	C121	0.410000	0.379400	0.108500
C1221	C122	0.287600	0.397500	0.139000
C1231	C123	0.354000	0.413400	0.178400
C1241	C124	0.542000	0.411200	0.187300
C1251	C125	0.664000	0.393000	0.156800
C1261	C126	0.215000	0.428600	0.209300
C1271	C127	0.973300	0.239000	0.972100
C1281	C128	0.004900	0.235400	0.928400
C1291	C129	0.890000	0.206300	0.903100
C1301	C130	0.742800	0.180900	0.921600
C1311	C131	0.711200	0.184500	0.965400
C1321	C132	0.826000	0.213600	0.990600
C1331	C133	0.099000	0.270200	0.004800
C1341	C134	0.237800	0.302900	0.976900
C1351	C135	0.216900	0.354000	0.973200
C1361	C136	0.339000	0.381100	0.948000
C1371	C137	0.481000	0.357100	0.926400
C1381	C138	0.501900	0.306100	0.930100
C1391	C139	0.380000	0.279000	0.955400
C1401	C140	0.277000	0.062900	0.811000
C1411	C141	0.233300	0.233300	0.029800
C1421	C142	0.208500	0.182200	0.029300
C1431	C143	0.328000	0.151800	0.052300
C1441	C144	0.471800	0.172500	0.075700
C1451	C145	0.496600	0.223600	0.076200
C1461	C146	0.377000	0.254000	0.053200
C1471	C147	0.912400	0.124800	0.130300
C1481	C148	0.796000	0.154600	0.106000
C1491	C149	0.613000	0.140500	0.099300
C1501	C150	0.547100	0.096700	0.117000
C1511	C151	0.664000	0.066900	0.141300
C1521	C152	0.846000	0.081000	0.148000
C1531	C153	0.979000	0.043400	0.176800
C1541	C154	0.588000	0.086000	0.838300
C1551	C155	0.695100	0.113900	0.866300
C1561	C156	0.611000	0.147000	0.894200
C1571	C157	0.420000	0.152300	0.894200
C1581	C158	0.312600	0.124300	0.866300
C1591	C159	0.397000	0.091200	0.838300
C1601	C160	0.653000	0.548900	0.155600
C1611	C161	0.835000	0.564000	0.161500
C1621	C162	0.904500	0.603500	0.138000
C1631	C163	0.792000	0.628000	0.108700
C1641	C164	0.610000	0.612800	0.102800
C1651	C165	0.540600	0.573300	0.126200
C1661	C166	0.945000	0.539400	0.193200
C1671	C167	0.977700	0.701600	0.964100
C1681	C168	0.841000	0.672500	0.982900
C1691	C169	0.720600	0.645500	0.957300
C1701	C170	0.736100	0.647600	0.913000
C1711	C171	0.872000	0.676700	0.894300
C1721	C172	0.993200	0.703700	0.919800
C1731	C173	0.598000	0.622900	0.882700
C1741	C174	0.410000	0.620600	0.891500
C1751	C175	0.287600	0.602500	0.861000
C1761	C176	0.354000	0.586600	0.821600
C1771	C177	0.542000	0.588800	0.812700
C1781	C178	0.664000	0.607000	0.843200
C1791	C179	0.215000	0.571400	0.790700
C1801	C180	0.973300	0.761000	0.027900
C1811	C181	0.004900	0.764600	0.071600
C1821	C182	0.890000	0.793700	0.096900
C1831	C183	0.742800	0.819100	0.078400
C1841	C184	0.711200	0.815500	0.034600
C1851	C185	0.826000	0.786400	0.009400
C1861	C186	0.099000	0.729800	0.995200
C1871	C187	0.237800	0.697100	0.023100
C1881	C188	0.216900	0.646000	0.026800
C1891	C189	0.339000	0.618900	0.052000
C1901	C190	0.481000	0.642900	0.073600
C1911	C191	0.501900	0.693900	0.069900
C1921	C192	0.380000	0.721000	0.044600
C1931	C193	0.277000	0.937100	0.189000
C1941	C194	0.233300	0.766700	0.970200
C1951	C195	0.208500	0.817800	0.970700
C1961	C196	0.328000	0.848200	0.947700
C1971	C197	0.471800	0.827500	0.924300
C1981	C198	0.496600	0.776400	0.923800
C1991	C199	0.377000	0.746000	0.946800
C2001	C200	0.912400	0.875200	0.869700
C2011	C201	0.796000	0.845400	0.894000
C2021	C202	0.613000	0.859500	0.900700
C2031	C203	0.547100	0.903300	0.883000
C2041	C204	0.664000	0.933100	0.858700
C2051	C205	0.846000	0.919000	0.852000
C2061	C206	0.979000	0.956600	0.823200
C2071	C207	0.588000	0.914000	0.161700
C2081	C208	0.695100	0.886100	0.133700
C2091	C209	0.611000	0.853000	0.105800
C2101	C210	0.420000	0.847700	0.105800
C2111	C211	0.312600	0.875700	0.133700
C2121	C212	0.397000	0.908800	0.161700
O11	O1	0.860000	0.434900	0.679600
O21	O2	0.887000	0.046800	0.306500
O31	O3	0.733000	0.049100	0.741200
O41	O4	0.949000	0.078900	0.703300
O51	O5	0.862000	0.425300	0.298200
O61	O6	0.644000	0.479000	0.300900
O71	O7	0.127500	0.016900	0.275100
O81	O8	0.096000	0.486500	0.694100
O91	O9	0.860000	0.565100	0.320400
O101	O10	0.887000	0.953200	0.693500
O111	O11	0.733000	0.950900	0.258800
O121	O12	0.949000	0.921100	0.296700
O131	O13	0.862000	0.574700	0.701800
O141	O14	0.644000	0.521000	0.699100
O151	O15	0.127500	0.983100	0.724900
O161	O16	0.096000	0.513500	0.305900
O171	O17	0.140000	0.065100	0.179600
O181	O18	0.113000	0.453200	0.806500
O191	O19	0.267000	0.450900	0.241200
O201	O20	0.051000	0.421100	0.203300
O211	O21	0.138000	0.074700	0.798200
O221	O22	0.356000	0.021000	0.800900
O231	O23	0.872500	0.483100	0.775100
O241	O24	0.904000	0.013500	0.194100
O251	O25	0.140000	0.934900	0.820400
O261	O26	0.113000	0.546800	0.193500
O271	O27	0.267000	0.549100	0.758800
O281	O28	0.051000	0.578900	0.796700
O291	O29	0.138000	0.925300	0.201800
O301	O30	0.356000	0.979000	0.199100
O311	O31	0.872500	0.516900	0.224900
O321	O32	0.904000	0.986500	0.805900
H11	H1	0.404470	0.016490	0.325150
H21	H2	0.946160	0.115900	0.357310
H31	H3	0.150950	0.160530	0.410460
H41	H4	0.608530	0.060790	0.378630
H51	H5	0.171890	0.170880	0.480780
H61	H6	0.391200	0.121560	0.527400
H71	H7	0.115540	0.178510	0.642020
H81	H8	0.894860	0.227530	0.595570
H91	H9	0.644430	0.133590	0.576160
H101	H10	0.866690	0.100730	0.631660
H111	H11	0.403930	0.075670	0.719620
H121	H12	0.181710	0.108920	0.664110
H131	H13	0.874840	0.243680	0.413240
H141	H14	0.083600	0.296740	0.367250
H151	H15	0.408960	0.336450	0.480580
H161	H16	0.200330	0.283300	0.526450
H171	H17	0.900190	0.126400	0.490810
H181	H18	0.677500	0.077020	0.445080
H191	H19	0.381210	0.213510	0.412430
H201	H20	0.602960	0.262850	0.458450
H211	H21	0.909600	0.334730	0.510070
H221	H22	0.692160	0.390100	0.551930
H231	H23	0.385270	0.259470	0.595420
H241	H24	0.602940	0.204100	0.553580
H251	H25	0.937680	0.363730	0.635720
H261	H26	0.149650	0.309440	0.591570
H271	H27	0.602760	0.414850	0.611630
H281	H28	0.389980	0.469120	0.655700
H291	H29	0.342970	0.441130	0.315360
H301	H30	0.148060	0.390400	0.366350
H311	H31	0.648710	0.320410	0.417060
H321	H32	0.844280	0.371510	0.366400
H331	H33	0.404470	0.983510	0.674850
H341	H34	0.946160	0.884100	0.642690
H351	H35	0.150950	0.839470	0.589540
H361	H36	0.608540	0.939190	0.621360
H371	H37	0.171890	0.829120	0.519220
H381	H38	0.391200	0.878440	0.472600
H391	H39	0.115540	0.821490	0.357980
H401	H40	0.894930	0.772490	0.404380
H411	H41	0.644430	0.866410	0.423840
H421	H42	0.866690	0.899270	0.368340
H431	H43	0.403930	0.924330	0.280380
H441	H44	0.181710	0.891080	0.335890
H451	H45	0.874840	0.756320	0.586760
H461	H46	0.083600	0.703260	0.632750
H471	H47	0.408960	0.663550	0.519420
H481	H48	0.200330	0.716700	0.473550
H491	H49	0.900190	0.873600	0.509190
H501	H50	0.677500	0.922980	0.554920
H511	H51	0.381210	0.786490	0.587570
H521	H52	0.603020	0.737150	0.541540
H531	H53	0.909600	0.665270	0.489930
H541	H54	0.692160	0.609900	0.448070
H551	H55	0.385270	0.740530	0.404580
H561	H56	0.602920	0.795900	0.446420
H571	H57	0.937680	0.636270	0.364280
H581	H58	0.149650	0.690560	0.408430
H591	H59	0.602760	0.585150	0.388370
H601	H60	0.389980	0.530880	0.344300
H611	H61	0.342970	0.558870	0.684640
H621	H62	0.148060	0.609600	0.633650
H631	H63	0.648710	0.679590	0.582940
H641	H64	0.844280	0.628490	0.633600
H651	H65	0.595530	0.483510	0.825150
H661	H66	0.053840	0.384100	0.857310
H671	H67	0.849050	0.339470	0.910460
H681	H68	0.391460	0.439190	0.878640
H691	H69	0.828110	0.329120	0.980780
H701	H70	0.608800	0.378440	0.027400
H711	H71	0.884460	0.321490	0.142020
H721	H72	0.105140	0.272470	0.095570
H731	H73	0.355570	0.366410	0.076160
H741	H74	0.133310	0.399270	0.131660
H751	H75	0.596070	0.424330	0.219620
H761	H76	0.818270	0.391090	0.164130
H771	H77	0.125160	0.256320	0.913240
H781	H78	0.916400	0.203260	0.867250
H791	H79	0.591040	0.163550	0.980580
H801	H80	0.799670	0.216700	0.026450
H811	H81	0.099810	0.373600	0.990810
H821	H82	0.322500	0.422980	0.945080
H831	H83	0.618790	0.286490	0.912430
H841	H84	0.397040	0.237150	0.958450
H851	H85	0.090400	0.165270	0.010070
H861	H86	0.307840	0.109900	0.051930
H871	H87	0.614730	0.240530	0.095420
H881	H88	0.397080	0.295900	0.053580
H891	H89	0.062320	0.136270	0.135720
H901	H90	0.850350	0.190560	0.091570
H911	H91	0.397240	0.085150	0.111630
H921	H92	0.610020	0.030880	0.155700
H931	H93	0.657030	0.058870	0.815360
H941	H94	0.851940	0.109600	0.866350
H951	H95	0.351290	0.179590	0.917060
H961	H96	0.155720	0.128490	0.866400
H971	H97	0.595530	0.516490	0.174850
H981	H98	0.053840	0.615900	0.142690
H991	H99	0.849050	0.660530	0.089540
H1001	H100	0.391460	0.560810	0.121360
H1011	H101	0.355570	0.633590	0.923840
H1021	H102	0.133310	0.600730	0.868340
H1031	H103	0.596070	0.575670	0.780380
H1041	H104	0.818290	0.608920	0.835890
H1051	H105	0.125160	0.743680	0.086760
H1061	H106	0.916400	0.796740	0.132750
H1071	H107	0.591040	0.836450	0.019420
H1081	H108	0.799670	0.783300	0.973550
H1091	H109	0.099810	0.626400	0.009190
H1101	H110	0.322500	0.577020	0.054920
H1111	H111	0.618790	0.713510	0.087570
H1121	H112	0.397040	0.762850	0.041550
H1131	H113	0.090400	0.834730	0.989930
H1141	H114	0.307840	0.890100	0.948070
H1151	H115	0.614730	0.759470	0.904580
H1161	H116	0.397080	0.704100	0.946420
H1171	H117	0.062320	0.863730	0.864280
H1181	H118	0.850350	0.809440	0.908430
H1191	H119	0.397240	0.914850	0.888370
H1201	H120	0.610020	0.969120	0.844300
H1211	H121	0.657030	0.941130	0.184640
H1221	H122	0.851940	0.890400	0.133650
H1231	H123	0.351290	0.820410	0.082940
H1241	H124	0.155720	0.871510	0.133600
