data_MAWTUC_clean_PM
_symmetry_space_group_name_H-M	'P1'
_cell_length_a	12.487000
_cell_length_b	12.487000
_cell_length_c	9.776000
_cell_angle_alpha	90.000000
_cell_angle_beta	90.000000
_cell_angle_gamma	90.000000
_symmetry_Int_Tables_number 1

loop_
_symmetry_equiv_pos_as_xyz
'x,y,z'

loop_
_atom_site_label
_atom_site_type_symbol
_atom_site_fract_x
_atom_site_fract_y
_atom_site_fract_z
N11	N1	0.941000	0.563100	0.251000
H11	H1	0.972400	0.579300	0.162600
N21	N2	0.670600	0.856400	0.101000
C11	C1	0.752300	0.808200	0.026000
H21	H2	0.774600	0.837900	0.943900
C21	C2	0.800700	0.715600	0.075000
H31	H3	0.855400	0.683300	0.025600
C31	C3	0.767400	0.671200	0.199000
C41	C4	0.685700	0.719400	0.273000
H41	H4	0.663400	0.689700	0.355300
C51	C5	0.637300	0.812000	0.224000
H51	H5	0.582600	0.844300	0.273600
C61	C6	0.812000	0.576000	0.242000
H61	H6	0.786900	0.519800	0.181000
H71	H7	0.783800	0.560100	0.331800
C71	C7	0.985000	0.640000	0.358000
H81	H8	0.930100	0.691000	0.387300
C81	C8	0.079000	0.697000	0.305000
H91	H9	0.103200	0.740300	0.361900
H101	H10	0.060600	0.733700	0.222100
H111	H11	0.135400	0.646200	0.286100
C91	C9	0.017000	0.566000	0.476000
O11	O1	0.052500	0.626900	0.577000
O21	O2	0.020700	0.474700	0.469000
Zn11	Zn1	0.590200	0.984200	0.027900
N31	N3	0.059000	0.436900	0.751000
H121	H12	0.027600	0.420700	0.662600
N41	N4	0.329400	0.143600	0.601000
C101	C10	0.247700	0.191800	0.526000
H131	H13	0.225400	0.162100	0.443900
C111	C11	0.199300	0.284400	0.575000
H141	H14	0.144600	0.316700	0.525600
C121	C12	0.232600	0.328800	0.699000
C131	C13	0.314300	0.280600	0.773000
H151	H15	0.336600	0.310300	0.855300
C141	C14	0.362700	0.188000	0.724000
H161	H16	0.417400	0.155700	0.773600
C151	C15	0.188000	0.424000	0.742000
H171	H17	0.213100	0.480200	0.681000
H181	H18	0.216200	0.439900	0.831800
C161	C16	0.015000	0.360000	0.858000
H191	H19	0.069900	0.309000	0.887300
C171	C17	0.921000	0.303000	0.805000
H201	H20	0.896800	0.259700	0.861900
H211	H21	0.939400	0.266300	0.722100
H221	H22	0.864600	0.353800	0.786100
C181	C18	0.983000	0.434000	0.976000
O31	O3	0.947500	0.373100	0.077000
O41	O4	0.979300	0.525300	0.969000
Zn21	Zn2	0.409800	0.015800	0.527900
N51	N5	0.436900	0.941000	0.001000
H231	H23	0.420700	0.972400	0.912600
N61	N6	0.143600	0.670600	0.851000
C191	C19	0.191800	0.752300	0.776000
H241	H24	0.162100	0.774600	0.693900
C201	C20	0.284400	0.800700	0.825000
H251	H25	0.316700	0.855400	0.775600
C211	C21	0.328800	0.767400	0.949000
C221	C22	0.280600	0.685700	0.023000
H261	H26	0.310300	0.663400	0.105300
C231	C23	0.188000	0.637300	0.974000
H271	H27	0.155700	0.582600	0.023600
C241	C24	0.424000	0.812000	0.992000
H281	H28	0.480200	0.786900	0.931000
H291	H29	0.439900	0.783800	0.081800
C251	C25	0.360000	0.985000	0.108000
H301	H30	0.309000	0.930100	0.137300
C261	C26	0.303000	0.079000	0.055000
H311	H31	0.259700	0.103200	0.111900
H321	H32	0.266300	0.060600	0.972100
H331	H33	0.353800	0.135400	0.036100
C271	C27	0.434000	0.017000	0.226000
O51	O5	0.373100	0.052500	0.327000
O61	O6	0.525300	0.020700	0.219000
Zn31	Zn3	0.015800	0.590200	0.777900
N71	N7	0.563100	0.059000	0.501000
H341	H34	0.579300	0.027600	0.412600
N81	N8	0.856400	0.329400	0.351000
C281	C28	0.808200	0.247700	0.276000
H351	H35	0.837900	0.225400	0.193900
C291	C29	0.715600	0.199300	0.325000
H361	H36	0.683300	0.144600	0.275600
C301	C30	0.671200	0.232600	0.449000
C311	C31	0.719400	0.314300	0.523000
H371	H37	0.689700	0.336600	0.605300
C321	C32	0.812000	0.362700	0.474000
H381	H38	0.844300	0.417400	0.523600
C331	C33	0.576000	0.188000	0.492000
H391	H39	0.519800	0.213100	0.431000
H401	H40	0.560100	0.216200	0.581800
C341	C34	0.640000	0.015000	0.608000
H411	H41	0.691000	0.069900	0.637300
C351	C35	0.697000	0.921000	0.555000
H421	H42	0.740300	0.896800	0.611900
H431	H43	0.733700	0.939400	0.472100
H441	H44	0.646200	0.864600	0.536100
C361	C36	0.566000	0.983000	0.726000
O71	O7	0.626900	0.947500	0.827000
O81	O8	0.474700	0.979300	0.719000
Zn41	Zn4	0.984200	0.409800	0.277900
