data_MAWVAK_clean_PM
_symmetry_space_group_name_H-M	'P1'
_cell_length_a	12.800000
_cell_length_b	12.800000
_cell_length_c	9.984000
_cell_angle_alpha	90.000000
_cell_angle_beta	90.000000
_cell_angle_gamma	90.000000
_symmetry_Int_Tables_number 1

loop_
_symmetry_equiv_pos_as_xyz
'x,y,z'

loop_
_atom_site_label
_atom_site_type_symbol
_atom_site_fract_x
_atom_site_fract_y
_atom_site_fract_z
C11	C1	0.751800	0.694000	0.036300
H11	H1	0.733200	0.667100	0.119500
C21	C2	0.700800	0.781800	0.992000
H21	H2	0.649700	0.812800	0.045000
C31	C3	0.725600	0.824600	0.867500
C41	C4	0.804400	0.775300	0.796100
H31	H3	0.824200	0.800400	0.712400
C51	C5	0.852600	0.689600	0.849400
H41	H4	0.907300	0.659900	0.801300
C61	C6	0.681600	0.925900	0.821600
H51	H5	0.709000	0.940500	0.733000
H61	H6	0.706800	0.980300	0.880900
C71	C7	0.515400	0.864500	0.714000
H71	H7	0.565700	0.811800	0.683600
C81	C8	0.419100	0.809400	0.776200
H81	H8	0.442100	0.755100	0.835600
H91	H9	0.377200	0.779700	0.706200
H101	H10	0.378400	0.859400	0.825400
C91	C9	0.478000	0.928900	0.594300
N11	N1	0.826100	0.645000	0.968000
N21	N2	0.565500	0.932900	0.815600
H111	H11	0.541600	0.911500	0.895900
O11	O1	0.478000	0.026100	0.599600
O21	O2	0.445500	0.875300	0.495400
Zn11	Zn1	0.909720	0.517230	0.041610
C101	C10	0.248200	0.306000	0.536300
H121	H12	0.266800	0.332900	0.619500
C111	C11	0.299200	0.218200	0.492000
H131	H13	0.350300	0.187200	0.545000
C121	C12	0.274400	0.175400	0.367500
C131	C13	0.195600	0.224700	0.296100
H141	H14	0.175800	0.199600	0.212400
C141	C14	0.147400	0.310400	0.349400
H151	H15	0.092700	0.340100	0.301300
C151	C15	0.318400	0.074100	0.321600
H161	H16	0.291000	0.059500	0.233000
H171	H17	0.293200	0.019700	0.380900
C161	C16	0.484600	0.135500	0.214000
H181	H18	0.434300	0.188200	0.183600
C171	C17	0.580900	0.190600	0.276200
H191	H19	0.557900	0.244900	0.335600
H201	H20	0.622800	0.220300	0.206200
H211	H21	0.621600	0.140600	0.325400
C181	C18	0.522000	0.071100	0.094300
N31	N3	0.173900	0.355000	0.468000
N41	N4	0.434500	0.067100	0.315600
H221	H22	0.458400	0.088500	0.395900
O31	O3	0.522000	0.973900	0.099600
O41	O4	0.554500	0.124700	0.995400
Zn21	Zn2	0.090280	0.482770	0.541610
C191	C19	0.306000	0.751800	0.286300
H231	H23	0.332900	0.733200	0.369500
C201	C20	0.218200	0.700800	0.242000
H241	H24	0.187200	0.649700	0.295000
C211	C21	0.175400	0.725600	0.117500
C221	C22	0.224700	0.804400	0.046100
H251	H25	0.199600	0.824200	0.962400
C231	C23	0.310400	0.852600	0.099400
H261	H26	0.340100	0.907300	0.051300
C241	C24	0.074100	0.681600	0.071600
H271	H27	0.059500	0.709000	0.983000
H281	H28	0.019700	0.706800	0.130900
C251	C25	0.135500	0.515400	0.964000
H291	H29	0.188200	0.565700	0.933600
C261	C26	0.190600	0.419100	0.026200
H301	H30	0.244900	0.442100	0.085600
H311	H31	0.220300	0.377200	0.956200
H321	H32	0.140600	0.378400	0.075400
C271	C27	0.071100	0.478000	0.844300
N51	N5	0.355000	0.826100	0.218000
N61	N6	0.067100	0.565500	0.065600
H331	H33	0.088500	0.541600	0.145900
O51	O5	0.973900	0.478000	0.849600
O61	O6	0.124700	0.445500	0.745400
Zn31	Zn3	0.482770	0.909720	0.291610
C281	C28	0.694000	0.248200	0.786300
H341	H34	0.667100	0.266800	0.869500
C291	C29	0.781800	0.299200	0.742000
H351	H35	0.812800	0.350300	0.795000
C301	C30	0.824600	0.274400	0.617500
C311	C31	0.775300	0.195600	0.546100
H361	H36	0.800400	0.175800	0.462400
C321	C32	0.689600	0.147400	0.599400
H371	H37	0.659900	0.092700	0.551300
C331	C33	0.925900	0.318400	0.571600
H381	H38	0.940500	0.291000	0.483000
H391	H39	0.980300	0.293200	0.630900
C341	C34	0.864500	0.484600	0.464000
H401	H40	0.811800	0.434300	0.433600
C351	C35	0.809400	0.580900	0.526200
H411	H41	0.755100	0.557900	0.585600
H421	H42	0.779700	0.622800	0.456200
H431	H43	0.859400	0.621600	0.575400
C361	C36	0.928900	0.522000	0.344300
N71	N7	0.645000	0.173900	0.718000
N81	N8	0.932900	0.434500	0.565600
H441	H44	0.911500	0.458400	0.645900
O71	O7	0.026100	0.522000	0.349600
O81	O8	0.875300	0.554500	0.245400
Zn41	Zn4	0.517230	0.090280	0.791610
