data_MAXHEA_clean_PM
_symmetry_space_group_name_H-M	'P1'
_cell_length_a	8.691200
_cell_length_b	10.393500
_cell_length_c	10.818000
_cell_angle_alpha	90.000000
_cell_angle_beta	90.000000
_cell_angle_gamma	90.000000
_symmetry_Int_Tables_number 1

loop_
_symmetry_equiv_pos_as_xyz
'x,y,z'

loop_
_atom_site_label
_atom_site_type_symbol
_atom_site_fract_x
_atom_site_fract_y
_atom_site_fract_z
Ce11	Ce1	0.992350	0.601310	0.387330
P11	P1	0.843700	0.416000	0.106610
P21	P2	0.194000	0.418400	0.138980
O11	O1	0.846500	0.504000	0.219100
O21	O2	0.721200	0.458300	0.015300
O31	O3	0.824500	0.274500	0.141000
O41	O4	0.178600	0.529900	0.230400
O51	O5	0.174300	0.285100	0.199200
O61	O6	0.341700	0.429400	0.064900
O71	O7	0.047500	0.306800	0.955400
H11	H1	0.979500	0.305300	0.898900
C11	C1	0.031900	0.425200	0.029600
C21	C2	0.042200	0.543400	0.945900
H21	H2	0.956200	0.544300	0.890200
H31	H3	0.136200	0.540300	0.899300
H41	H4	0.040700	0.620000	0.995600
Ce21	Ce2	0.507650	0.398690	0.887330
P31	P3	0.656300	0.584000	0.606610
P41	P4	0.306000	0.581600	0.638980
O81	O8	0.653500	0.496000	0.719100
O91	O9	0.778800	0.541700	0.515300
O101	O10	0.675500	0.725500	0.641000
O111	O11	0.321400	0.470100	0.730400
O121	O12	0.325700	0.714900	0.699200
O131	O13	0.158300	0.570600	0.564900
O141	O14	0.452500	0.693200	0.455400
H51	H5	0.520500	0.694700	0.398900
C31	C3	0.468100	0.574800	0.529600
C41	C4	0.457800	0.456600	0.445900
H61	H6	0.543800	0.455700	0.390200
H71	H7	0.363800	0.459700	0.399300
H81	H8	0.459300	0.380000	0.495600
Ce31	Ce3	0.007650	0.101310	0.112670
P51	P5	0.156300	0.916000	0.393390
P61	P6	0.806000	0.918400	0.361020
O151	O15	0.153500	0.004000	0.280900
O161	O16	0.278800	0.958300	0.484700
O171	O17	0.175500	0.774500	0.359000
O181	O18	0.821400	0.029900	0.269600
O191	O19	0.825700	0.785100	0.300800
O201	O20	0.658300	0.929400	0.435100
O211	O21	0.952500	0.806800	0.544600
H91	H9	0.020500	0.805300	0.601100
C51	C5	0.968100	0.925200	0.470400
C61	C6	0.957800	0.043400	0.554100
H101	H10	0.043800	0.044300	0.609800
H111	H11	0.863800	0.040300	0.600700
H121	H12	0.959300	0.120000	0.504400
Ce41	Ce4	0.492350	0.898690	0.612670
P71	P7	0.343700	0.084000	0.893390
P81	P8	0.694000	0.081600	0.861020
O221	O22	0.346500	0.996000	0.780900
O231	O23	0.221200	0.041700	0.984700
O241	O24	0.324500	0.225500	0.859000
O251	O25	0.678600	0.970100	0.769600
O261	O26	0.674300	0.214900	0.800800
O271	O27	0.841700	0.070600	0.935100
O281	O28	0.547500	0.193200	0.044600
H131	H13	0.479500	0.194700	0.101100
C71	C7	0.531900	0.074800	0.970400
C81	C8	0.542200	0.956600	0.054100
H141	H14	0.456200	0.955700	0.109800
H151	H15	0.636200	0.959700	0.100700
H161	H16	0.540700	0.880000	0.004400
