data_MAXHIE_clean_PM
_symmetry_space_group_name_H-M	'P1'
_cell_length_a	8.654400
_cell_length_b	10.380900
_cell_length_c	10.764600
_cell_angle_alpha	90.000000
_cell_angle_beta	90.000000
_cell_angle_gamma	90.000000
_symmetry_Int_Tables_number 1

loop_
_symmetry_equiv_pos_as_xyz
'x,y,z'

loop_
_atom_site_label
_atom_site_type_symbol
_atom_site_fract_x
_atom_site_fract_y
_atom_site_fract_z
Pr11	Pr1	0.492800	0.398470	0.613460
P11	P1	0.693400	0.581600	0.861800
P21	P2	0.342400	0.585700	0.892500
O11	O1	0.677200	0.472100	0.769300
O21	O2	0.670900	0.715300	0.802600
O31	O3	0.841600	0.570800	0.936500
O41	O4	0.219500	0.544800	0.984400
O51	O5	0.324900	0.725600	0.856800
O61	O6	0.345400	0.497100	0.779200
O71	O7	0.542800	0.695100	0.045000
H11	H1	0.631000	0.698200	0.078700
C11	C1	0.532200	0.574700	0.969600
C21	C2	0.540600	0.457500	0.054900
H21	H2	0.640100	0.454500	0.094100
H31	H3	0.525400	0.380600	0.006900
H41	H4	0.461600	0.463700	0.117200
Pr21	Pr2	0.007200	0.601530	0.113460
P31	P3	0.806600	0.418400	0.361800
P41	P4	0.157600	0.414300	0.392500
O81	O8	0.822800	0.527900	0.269300
O91	O9	0.829100	0.284700	0.302600
O101	O10	0.658400	0.429200	0.436500
O111	O11	0.280500	0.455200	0.484400
O121	O12	0.175100	0.274400	0.356800
O131	O13	0.154600	0.502900	0.279200
O141	O14	0.957200	0.304900	0.545000
H51	H5	0.869000	0.301800	0.578700
C31	C3	0.967800	0.425300	0.469600
C41	C4	0.959400	0.542500	0.554900
H61	H6	0.859900	0.545500	0.594100
H71	H7	0.974600	0.619400	0.506900
H81	H8	0.038400	0.536300	0.617200
Pr31	Pr3	0.507200	0.898470	0.886540
P51	P5	0.306600	0.081600	0.638200
P61	P6	0.657600	0.085700	0.607500
O151	O15	0.322800	0.972100	0.730700
O161	O16	0.329100	0.215300	0.697400
O171	O17	0.158400	0.070800	0.563500
O181	O18	0.780500	0.044800	0.515600
O191	O19	0.675100	0.225600	0.643200
O201	O20	0.654600	0.997100	0.720800
O211	O21	0.457200	0.195100	0.455000
H91	H9	0.369000	0.198200	0.421300
C51	C5	0.467800	0.074700	0.530400
C61	C6	0.459400	0.957500	0.445100
H101	H10	0.359900	0.954500	0.405900
H111	H11	0.474600	0.880600	0.493100
H121	H12	0.538400	0.963700	0.382800
Pr41	Pr4	0.992800	0.101530	0.386540
P71	P7	0.193400	0.918400	0.138200
P81	P8	0.842400	0.914300	0.107500
O221	O22	0.177200	0.027900	0.230700
O231	O23	0.170900	0.784700	0.197400
O241	O24	0.341600	0.929200	0.063500
O251	O25	0.719500	0.955200	0.015600
O261	O26	0.824900	0.774400	0.143200
O271	O27	0.845400	0.002900	0.220800
O281	O28	0.042800	0.804900	0.955000
H131	H13	0.131000	0.801800	0.921300
C71	C7	0.032200	0.925300	0.030400
C81	C8	0.040600	0.042500	0.945100
H141	H14	0.140100	0.045500	0.905900
H151	H15	0.025400	0.119400	0.993100
H161	H16	0.961600	0.036300	0.882800
