data_MAXHAW_clean_PM
_symmetry_space_group_name_H-M	'P1'
_cell_length_a	8.711500
_cell_length_b	10.431600
_cell_length_c	10.883800
_cell_angle_alpha	90.000000
_cell_angle_beta	90.000000
_cell_angle_gamma	90.000000
_symmetry_Int_Tables_number 1

loop_
_symmetry_equiv_pos_as_xyz
'x,y,z'

loop_
_atom_site_label
_atom_site_type_symbol
_atom_site_fract_x
_atom_site_fract_y
_atom_site_fract_z
La11	La1	0.992130	0.101520	0.112640
P11	P1	0.844400	0.916700	0.394200
P21	P2	0.194400	0.918700	0.360690
O11	O1	0.847200	0.004400	0.282700
O21	O2	0.824200	0.775900	0.359600
O31	O3	0.723600	0.959100	0.485900
O41	O4	0.172100	0.786600	0.299700
O51	O5	0.179500	0.028800	0.269500
O61	O6	0.342800	0.930000	0.434500
O71	O7	0.045700	0.808700	0.544700
H11	H1	0.134800	0.796900	0.566100
C11	C1	0.036000	0.928000	0.470600
C21	C2	0.045200	0.044200	0.552100
H21	H2	0.144600	0.048000	0.589900
H31	H3	0.967700	0.038700	0.614700
H41	H4	0.028900	0.120000	0.503900
La21	La2	0.507870	0.898480	0.612640
P31	P3	0.655600	0.083300	0.894200
P41	P4	0.305600	0.081300	0.860690
O81	O8	0.652800	0.995600	0.782700
O91	O9	0.675800	0.224100	0.859600
O101	O10	0.776400	0.040900	0.985900
O111	O11	0.327900	0.213400	0.799700
O121	O12	0.320500	0.971200	0.769500
O131	O13	0.157200	0.070000	0.934500
O141	O14	0.454300	0.191300	0.044700
H51	H5	0.365200	0.203100	0.066100
C31	C3	0.464000	0.072000	0.970600
C41	C4	0.454800	0.955800	0.052100
H61	H6	0.355400	0.952000	0.089900
H71	H7	0.532300	0.961300	0.114700
H81	H8	0.471100	0.880000	0.003900
La31	La3	0.007870	0.601520	0.387360
P51	P5	0.155600	0.416700	0.105800
P61	P6	0.805600	0.418700	0.139310
O151	O15	0.152800	0.504400	0.217300
O161	O16	0.175800	0.275900	0.140400
O171	O17	0.276400	0.459100	0.014100
O181	O18	0.827900	0.286600	0.200300
O191	O19	0.820500	0.528800	0.230500
O201	O20	0.657200	0.430000	0.065500
O211	O21	0.954300	0.308700	0.955300
H91	H9	0.865200	0.296900	0.933900
C51	C5	0.964000	0.428000	0.029400
C61	C6	0.954800	0.544200	0.947900
H101	H10	0.855400	0.548000	0.910100
H111	H11	0.032300	0.538700	0.885300
H121	H12	0.971100	0.620000	0.996100
La41	La4	0.492130	0.398480	0.887360
P71	P7	0.344400	0.583300	0.605800
P81	P8	0.694400	0.581300	0.639310
O221	O22	0.347200	0.495600	0.717300
O231	O23	0.324200	0.724100	0.640400
O241	O24	0.223600	0.540900	0.514100
O251	O25	0.672100	0.713400	0.700300
O261	O26	0.679500	0.471200	0.730500
O271	O27	0.842800	0.570000	0.565500
O281	O28	0.545700	0.691300	0.455300
H131	H13	0.634800	0.703100	0.433900
C71	C7	0.536000	0.572000	0.529400
C81	C8	0.545200	0.455800	0.447900
H141	H14	0.644600	0.452000	0.410100
H151	H15	0.467700	0.461300	0.385300
H161	H16	0.528900	0.380000	0.496100
