data_MAXHUQ_clean_PM
_symmetry_space_group_name_H-M	'P1'
_cell_length_a	10.384800
_cell_length_b	8.342000
_cell_length_c	10.577400
_cell_angle_alpha	90.000000
_cell_angle_beta	90.000000
_cell_angle_gamma	90.000000
_symmetry_Int_Tables_number 1

loop_
_symmetry_equiv_pos_as_xyz
'x,y,z'

loop_
_atom_site_label
_atom_site_type_symbol
_atom_site_fract_x
_atom_site_fract_y
_atom_site_fract_z
P11	P1	0.167800	0.067300	0.373100
O11	O1	0.270800	0.072700	0.271000
O21	O2	0.188400	0.930600	0.463000
O31	O3	0.031700	0.068800	0.317200
H11	H1	0.556300	0.332800	0.910700
H21	H2	0.300600	0.152400	0.599600
P21	P2	0.332200	0.932700	0.873100
O41	O4	0.229200	0.927300	0.771000
O51	O5	0.311600	0.069400	0.963000
O61	O6	0.468300	0.931200	0.817200
H31	H3	0.943700	0.667200	0.410700
H41	H4	0.199400	0.847600	0.099600
P31	P3	0.832200	0.567300	0.626900
O71	O7	0.729200	0.572700	0.729000
O81	O8	0.811600	0.430600	0.537000
O91	O9	0.968300	0.568800	0.682800
H51	H5	0.443700	0.832800	0.089300
H61	H6	0.699400	0.652400	0.400400
P41	P4	0.667800	0.432700	0.126900
O101	O10	0.770800	0.427300	0.229000
O111	O11	0.688400	0.569400	0.037000
O121	O12	0.531700	0.431200	0.182800
H71	H7	0.056300	0.167200	0.589300
H81	H8	0.800600	0.347600	0.900400
P51	P5	0.832200	0.932700	0.626900
O131	O13	0.729200	0.927300	0.729000
O141	O14	0.811600	0.069400	0.537000
O151	O15	0.968300	0.931200	0.682800
H91	H9	0.443700	0.667200	0.089300
H101	H10	0.699400	0.847600	0.400400
P61	P6	0.667800	0.067300	0.126900
O161	O16	0.770800	0.072700	0.229000
O171	O17	0.688400	0.930600	0.037000
O181	O18	0.531700	0.068800	0.182800
H111	H11	0.056300	0.332800	0.589300
H121	H12	0.800600	0.152400	0.900400
P71	P7	0.167800	0.432700	0.373100
O191	O19	0.270800	0.427300	0.271000
O201	O20	0.188400	0.569400	0.463000
O211	O21	0.031700	0.431200	0.317200
H131	H13	0.556300	0.167200	0.910700
H141	H14	0.300600	0.347600	0.599600
P81	P8	0.332200	0.567300	0.873100
O221	O22	0.229200	0.572700	0.771000
O231	O23	0.311600	0.430600	0.963000
O241	O24	0.468300	0.568800	0.817200
H151	H15	0.943700	0.832800	0.410700
H161	H16	0.199400	0.652400	0.099600
Sm11	Sm1	0.360750	0.250000	0.120590
O251	O25	0.057700	0.250000	0.542400
C11	C1	0.179400	0.250000	0.467000
C21	C2	0.298000	0.250000	0.552000
H171	H17	0.374100	0.250000	0.500200
Sm21	Sm2	0.139250	0.750000	0.620590
O261	O26	0.442300	0.750000	0.042400
C31	C3	0.320600	0.750000	0.967000
C41	C4	0.202000	0.750000	0.052000
H181	H18	0.125900	0.750000	0.000200
Sm31	Sm3	0.639250	0.750000	0.879410
O271	O27	0.942300	0.750000	0.457600
C51	C5	0.820600	0.750000	0.533000
C61	C6	0.702000	0.750000	0.448000
H191	H19	0.625900	0.750000	0.499800
Sm41	Sm4	0.860750	0.250000	0.379410
O281	O28	0.557700	0.250000	0.957600
C71	C7	0.679400	0.250000	0.033000
C81	C8	0.798000	0.250000	0.948000
H201	H20	0.874100	0.250000	0.999800
