data_MAYKOO_clean_PM
_symmetry_space_group_name_H-M	'P1'
_cell_length_a	19.156000
_cell_length_b	19.156000
_cell_length_c	33.506000
_cell_angle_alpha	73.389800
_cell_angle_beta	73.389800
_cell_angle_gamma	89.999900
_symmetry_Int_Tables_number 1

loop_
_symmetry_equiv_pos_as_xyz
'x,y,z'

loop_
_atom_site_label
_atom_site_type_symbol
_atom_site_fract_x
_atom_site_fract_y
_atom_site_fract_z
Cu11	Cu1	0.002230	0.070930	0.495540
Cu21	Cu2	0.002230	0.433530	0.495540
Cu31	Cu3	0.570930	0.502230	0.995540
Cu41	Cu4	0.933530	0.502230	0.995540
Cu51	Cu5	0.997770	0.929070	0.504460
Cu61	Cu6	0.997770	0.566470	0.504460
Cu71	Cu7	0.066470	0.497770	0.004460
Cu81	Cu8	0.429070	0.497770	0.004460
Cu91	Cu9	0.396430	0.146430	0.707140
Cu101	Cu10	0.646430	0.896430	0.207140
Cu111	Cu11	0.603570	0.853570	0.292860
Cu121	Cu12	0.353570	0.103570	0.792860
H11	H1	0.801800	0.854800	0.614400
H21	H2	0.703300	0.837200	0.676200
H31	H3	0.708000	0.053000	0.656400
H41	H4	0.807000	0.071000	0.595200
H51	H5	0.583400	0.021700	0.687400
H61	H6	0.968600	0.221300	0.443000
H71	H7	0.905700	0.199100	0.487400
H81	H8	0.014600	0.166200	0.552000
H91	H9	0.083800	0.530800	0.614400
H101	H10	0.120500	0.486600	0.676200
H111	H11	0.135600	0.290600	0.656400
H121	H12	0.097800	0.333800	0.595200
H131	H13	0.229200	0.290900	0.687400
H141	H14	0.088400	0.335700	0.443000
H151	H15	0.106900	0.313500	0.487400
H161	H16	0.933400	0.281800	0.552000
H171	H17	0.354800	0.583800	0.114400
H181	H18	0.337200	0.620500	0.176200
H191	H19	0.553000	0.635600	0.156400
H201	H20	0.571000	0.597800	0.095200
H211	H21	0.521700	0.729200	0.187400
H221	H22	0.721300	0.588400	0.943000
H231	H23	0.699100	0.606900	0.987400
H241	H24	0.666200	0.433400	0.052000
H251	H25	0.030800	0.301800	0.114400
H261	H26	0.986600	0.203300	0.176200
H271	H27	0.790600	0.208000	0.156400
H281	H28	0.833800	0.307000	0.095200
H291	H29	0.790900	0.083400	0.187400
H301	H30	0.835700	0.468600	0.943000
H311	H31	0.813500	0.405700	0.987400
H321	H32	0.781800	0.514600	0.052000
H331	H33	0.916200	0.145200	0.385600
H341	H34	0.879500	0.162800	0.323800
H351	H35	0.864400	0.947000	0.343600
H361	H36	0.902200	0.929000	0.404800
H371	H37	0.770800	0.978300	0.312600
H381	H38	0.911600	0.778700	0.557000
H391	H39	0.893100	0.800900	0.512600
H401	H40	0.066600	0.833800	0.448000
H411	H41	0.198200	0.469200	0.385600
H421	H42	0.296700	0.513400	0.323800
H431	H43	0.292000	0.709400	0.343600
H441	H44	0.193000	0.666200	0.404800
H451	H45	0.416600	0.709100	0.312600
H461	H46	0.031400	0.664300	0.557000
H471	H47	0.094300	0.686500	0.512600
H481	H48	0.985400	0.718200	0.448000
H491	H49	0.969200	0.416200	0.885600
H501	H50	0.013400	0.379500	0.823800
H511	H51	0.209400	0.364400	0.843600
H521	H52	0.166200	0.402200	0.904800
H531	H53	0.209100	0.270800	0.812600
H541	H54	0.164300	0.411600	0.057000
H551	H55	0.186500	0.393100	0.012600
H561	H56	0.218200	0.566600	0.948000
H571	H57	0.645200	0.698200	0.885600
H581	H58	0.662800	0.796700	0.823800
H591	H59	0.447000	0.792000	0.843600
H601	H60	0.429000	0.693000	0.904800
H611	H61	0.478300	0.916600	0.812600
H621	H62	0.278700	0.531400	0.057000
H631	H63	0.300900	0.594300	0.012600
H641	H64	0.333800	0.485400	0.948000
H651	H65	0.198200	0.145200	0.385600
H661	H66	0.296700	0.162800	0.323800
H671	H67	0.292000	0.947000	0.343600
H681	H68	0.193000	0.929000	0.404800
H691	H69	0.416600	0.978300	0.312600
H701	H70	0.031400	0.778700	0.557000
H711	H71	0.094300	0.800900	0.512600
H721	H72	0.985400	0.833800	0.448000
H731	H73	0.916200	0.469200	0.385600
H741	H74	0.879500	0.513400	0.323800
H751	H75	0.864400	0.709400	0.343600
H761	H76	0.902200	0.666200	0.404800
H771	H77	0.770800	0.709100	0.312600
H781	H78	0.911600	0.664300	0.557000
H791	H79	0.893100	0.686500	0.512600
H801	H80	0.066600	0.718200	0.448000
H811	H81	0.645200	0.416200	0.885600
H821	H82	0.662800	0.379500	0.823800
H831	H83	0.447000	0.364400	0.843600
H841	H84	0.429000	0.402200	0.904800
H851	H85	0.478300	0.270800	0.812600
H861	H86	0.278700	0.411600	0.057000
H871	H87	0.300900	0.393100	0.012600
H881	H88	0.333800	0.566600	0.948000
H891	H89	0.969200	0.698200	0.885600
H901	H90	0.013400	0.796700	0.823800
H911	H91	0.209400	0.792000	0.843600
H921	H92	0.166200	0.693000	0.904800
H931	H93	0.209100	0.916600	0.812600
H941	H94	0.164300	0.531400	0.057000
H951	H95	0.186500	0.594300	0.012600
H961	H96	0.218200	0.485400	0.948000
H971	H97	0.083800	0.854800	0.614400
H981	H98	0.120500	0.837200	0.676200
H991	H99	0.135600	0.053000	0.656400
H1001	H100	0.097800	0.071000	0.595200
H1011	H101	0.229200	0.021700	0.687400
H1021	H102	0.088400	0.221300	0.443000
H1031	H103	0.106900	0.199100	0.487400
H1041	H104	0.933400	0.166200	0.552000
H1051	H105	0.801800	0.530800	0.614400
H1061	H106	0.703300	0.486600	0.676200
H1071	H107	0.708000	0.290600	0.656400
H1081	H108	0.807000	0.333800	0.595200
H1091	H109	0.583400	0.290900	0.687400
H1101	H110	0.968600	0.335700	0.443000
H1111	H111	0.905700	0.313500	0.487400
H1121	H112	0.014600	0.281800	0.552000
H1131	H113	0.030800	0.583800	0.114400
H1141	H114	0.986600	0.620500	0.176200
H1151	H115	0.790600	0.635600	0.156400
H1161	H116	0.833800	0.597800	0.095200
H1171	H117	0.790900	0.729200	0.187400
H1181	H118	0.835700	0.588400	0.943000
H1191	H119	0.813500	0.606900	0.987400
H1201	H120	0.781800	0.433400	0.052000
H1211	H121	0.354800	0.301800	0.114400
H1221	H122	0.337200	0.203300	0.176200
H1231	H123	0.553000	0.208000	0.156400
H1241	H124	0.571000	0.307000	0.095200
H1251	H125	0.521700	0.083400	0.187400
H1261	H126	0.721300	0.468600	0.943000
H1271	H127	0.699100	0.405700	0.987400
H1281	H128	0.666200	0.514600	0.052000
H1291	H129	0.658900	0.841100	0.750000
H1301	H130	0.091100	0.408900	0.750000
H1311	H131	0.341100	0.591100	0.250000
H1321	H132	0.908900	0.158900	0.250000
H1331	H133	0.341100	0.158900	0.250000
H1341	H134	0.908900	0.591100	0.250000
H1351	H135	0.658900	0.408900	0.750000
H1361	H136	0.091100	0.841100	0.750000
C11	C1	0.880500	0.976370	0.559840
C21	C2	0.814740	0.964670	0.598560
C31	C3	0.783160	0.894900	0.622900
C41	C4	0.723880	0.884370	0.659880
C51	C5	0.694940	0.943350	0.672840
C61	C6	0.726850	0.012800	0.648120
C71	C7	0.786220	0.023830	0.611360
C81	C8	0.632170	0.933750	0.712400
C91	C9	0.580000	0.983620	0.712580
C101	C10	0.954710	0.223200	0.472780
C111	C11	0.059660	0.463790	0.559840
C121	C12	0.086700	0.436770	0.598560
C131	C13	0.093940	0.482200	0.622900
C141	C14	0.116240	0.455750	0.659880
C151	C15	0.132220	0.383810	0.672840
C161	C16	0.125030	0.339080	0.648120
C171	C17	0.102420	0.364810	0.611360
C181	C18	0.155430	0.353850	0.712400
C191	C19	0.207420	0.303800	0.712580
C201	C20	0.072510	0.304020	0.472780
C211	C21	0.476370	0.559660	0.059840
C221	C22	0.464670	0.586700	0.098560
C231	C23	0.394900	0.593940	0.122900
C241	C24	0.384370	0.616240	0.159880
C251	C25	0.443350	0.632220	0.172840
C261	C26	0.512800	0.625030	0.148120
C271	C27	0.523830	0.602420	0.111360
C281	C28	0.433750	0.655430	0.212400
C291	C29	0.483620	0.707420	0.212580
C301	C30	0.723200	0.572510	0.972780
C311	C31	0.963790	0.380500	0.059840
C321	C32	0.936770	0.314740	0.098560
C331	C33	0.982200	0.283160	0.122900
C341	C34	0.955750	0.223880	0.159880
C351	C35	0.883810	0.194940	0.172840
C361	C36	0.839080	0.226850	0.148120
C371	C37	0.864810	0.286220	0.111360
C381	C38	0.853850	0.132170	0.212400
C391	C39	0.803800	0.080000	0.212580
C401	C40	0.804020	0.454710	0.972780
C411	C41	0.940340	0.023630	0.440160
C421	C42	0.913300	0.035330	0.401440
C431	C43	0.906060	0.105100	0.377100
C441	C44	0.883760	0.115630	0.340120
C451	C45	0.867780	0.056650	0.327160
C461	C46	0.874970	0.987200	0.351880
C471	C47	0.897580	0.976170	0.388640
C481	C48	0.844570	0.066250	0.287600
C491	C49	0.792580	0.016380	0.287420
C501	C50	0.927490	0.776800	0.527220
C511	C51	0.119500	0.536210	0.440160
C521	C52	0.185260	0.563230	0.401440
C531	C53	0.216840	0.517800	0.377100
C541	C54	0.276120	0.544250	0.340120
C551	C55	0.305060	0.616190	0.327160
C561	C56	0.273150	0.660920	0.351880
C571	C57	0.213780	0.635190	0.388640
C581	C58	0.367830	0.646150	0.287600
C591	C59	0.420000	0.696200	0.287420
C601	C60	0.045290	0.695980	0.527220
C611	C61	0.036210	0.440340	0.940160
C621	C62	0.063230	0.413300	0.901440
C631	C63	0.017800	0.406060	0.877100
C641	C64	0.044250	0.383760	0.840120
C651	C65	0.116190	0.367780	0.827160
C661	C66	0.160920	0.374970	0.851880
C671	C67	0.135190	0.397580	0.888640
C681	C68	0.146150	0.344570	0.787600
C691	C69	0.196200	0.292580	0.787420
C701	C70	0.195980	0.427490	0.027220
C711	C71	0.523630	0.619500	0.940160
C721	C72	0.535330	0.685260	0.901440
C731	C73	0.605100	0.716840	0.877100
C741	C74	0.615630	0.776120	0.840120
C751	C75	0.556650	0.805060	0.827160
C761	C76	0.487200	0.773150	0.851880
C771	C77	0.476170	0.713780	0.888640
C781	C78	0.566250	0.867830	0.787600
C791	C79	0.516380	0.920000	0.787420
C801	C80	0.276800	0.545290	0.027220
C811	C81	0.119500	0.023630	0.440160
C821	C82	0.185260	0.035330	0.401440
C831	C83	0.216840	0.105100	0.377100
C841	C84	0.276120	0.115630	0.340120
C851	C85	0.305060	0.056650	0.327160
C861	C86	0.273150	0.987200	0.351880
C871	C87	0.213780	0.976170	0.388640
C881	C88	0.367830	0.066250	0.287600
C891	C89	0.420000	0.016380	0.287420
C901	C90	0.045290	0.776800	0.527220
C911	C91	0.940340	0.536210	0.440160
C921	C92	0.913300	0.563230	0.401440
C931	C93	0.906060	0.517800	0.377100
C941	C94	0.883760	0.544250	0.340120
C951	C95	0.867780	0.616190	0.327160
C961	C96	0.874970	0.660920	0.351880
C971	C97	0.897580	0.635190	0.388640
C981	C98	0.844570	0.646150	0.287600
C991	C99	0.792580	0.696200	0.287420
C1001	C100	0.927490	0.695980	0.527220
C1011	C101	0.523630	0.440340	0.940160
C1021	C102	0.535330	0.413300	0.901440
C1031	C103	0.605100	0.406060	0.877100
C1041	C104	0.615630	0.383760	0.840120
C1051	C105	0.556650	0.367780	0.827160
C1061	C106	0.487200	0.374970	0.851880
C1071	C107	0.476170	0.397580	0.888640
C1081	C108	0.566250	0.344570	0.787600
C1091	C109	0.516380	0.292580	0.787420
C1101	C110	0.276800	0.427490	0.027220
C1111	C111	0.036210	0.619500	0.940160
C1121	C112	0.063230	0.685260	0.901440
C1131	C113	0.017800	0.716840	0.877100
C1141	C114	0.044250	0.776120	0.840120
C1151	C115	0.116190	0.805060	0.827160
C1161	C116	0.160920	0.773150	0.851880
C1171	C117	0.135190	0.713780	0.888640
C1181	C118	0.146150	0.867830	0.787600
C1191	C119	0.196200	0.920000	0.787420
C1201	C120	0.195980	0.545290	0.027220
C1211	C121	0.059660	0.976370	0.559840
C1221	C122	0.086700	0.964670	0.598560
C1231	C123	0.093940	0.894900	0.622900
C1241	C124	0.116240	0.884370	0.659880
C1251	C125	0.132220	0.943350	0.672840
C1261	C126	0.125030	0.012800	0.648120
C1271	C127	0.102420	0.023830	0.611360
C1281	C128	0.155430	0.933750	0.712400
C1291	C129	0.207420	0.983620	0.712580
C1301	C130	0.072510	0.223200	0.472780
C1311	C131	0.880500	0.463790	0.559840
C1321	C132	0.814740	0.436770	0.598560
C1331	C133	0.783160	0.482200	0.622900
C1341	C134	0.723880	0.455750	0.659880
C1351	C135	0.694940	0.383810	0.672840
C1361	C136	0.726850	0.339080	0.648120
C1371	C137	0.786220	0.364810	0.611360
C1381	C138	0.632170	0.353850	0.712400
C1391	C139	0.580000	0.303800	0.712580
C1401	C140	0.954710	0.304020	0.472780
C1411	C141	0.963790	0.559660	0.059840
C1421	C142	0.936770	0.586700	0.098560
C1431	C143	0.982200	0.593940	0.122900
C1441	C144	0.955750	0.616240	0.159880
C1451	C145	0.883810	0.632220	0.172840
C1461	C146	0.839080	0.625030	0.148120
C1471	C147	0.864810	0.602420	0.111360
C1481	C148	0.853850	0.655430	0.212400
C1491	C149	0.803800	0.707420	0.212580
C1501	C150	0.804020	0.572510	0.972780
C1511	C151	0.476370	0.380500	0.059840
C1521	C152	0.464670	0.314740	0.098560
C1531	C153	0.394900	0.283160	0.122900
C1541	C154	0.384370	0.223880	0.159880
C1551	C155	0.443350	0.194940	0.172840
C1561	C156	0.512800	0.226850	0.148120
C1571	C157	0.523830	0.286220	0.111360
C1581	C158	0.433750	0.132170	0.212400
C1591	C159	0.483620	0.080000	0.212580
C1601	C160	0.723200	0.454710	0.972780
C1611	C161	0.981640	0.190640	0.536720
C1621	C162	0.981640	0.272640	0.536720
C1631	C163	0.690640	0.481640	0.036720
C1641	C164	0.772640	0.481640	0.036720
C1651	C165	0.018360	0.809360	0.463280
C1661	C166	0.018360	0.727360	0.463280
C1671	C167	0.227360	0.518360	0.963280
C1681	C168	0.309360	0.518360	0.963280
C1691	C169	0.624610	0.875390	0.750000
C1701	C170	0.522710	0.977290	0.750000
C1711	C171	0.467470	0.032530	0.750000
C1721	C172	0.125390	0.374610	0.750000
C1731	C173	0.227290	0.272710	0.750000
C1741	C174	0.282530	0.217470	0.750000
C1751	C175	0.375390	0.625390	0.250000
C1761	C176	0.477290	0.727290	0.250000
C1771	C177	0.532530	0.782530	0.250000
C1781	C178	0.874610	0.124610	0.250000
C1791	C179	0.772710	0.022710	0.250000
C1801	C180	0.717470	0.967470	0.250000
C1811	C181	0.375390	0.124610	0.250000
C1821	C182	0.477290	0.022710	0.250000
C1831	C183	0.532530	0.967470	0.250000
C1841	C184	0.874610	0.625390	0.250000
C1851	C185	0.772710	0.727290	0.250000
C1861	C186	0.717470	0.782530	0.250000
C1871	C187	0.624610	0.374610	0.750000
C1881	C188	0.522710	0.272710	0.750000
C1891	C189	0.467470	0.217470	0.750000
C1901	C190	0.125390	0.875390	0.750000
C1911	C191	0.227290	0.977290	0.750000
C1921	C192	0.282530	0.032530	0.750000
N11	N1	0.003060	0.185860	0.493880
N21	N2	0.003060	0.320260	0.493880
N31	N3	0.685860	0.503060	0.993880
N41	N4	0.820260	0.503060	0.993880
N51	N5	0.996940	0.814140	0.506120
N61	N6	0.996940	0.679740	0.506120
N71	N7	0.179740	0.496940	0.006120
N81	N8	0.314140	0.496940	0.006120
O11	O1	0.908140	0.040870	0.540960
O21	O2	0.904460	0.921060	0.549580
O31	O3	0.465050	0.072100	0.713460
O41	O4	0.050900	0.418170	0.540960
O51	O5	0.045960	0.529360	0.549580
O61	O6	0.321490	0.214440	0.713460
O71	O7	0.540870	0.550900	0.040960
O81	O8	0.421060	0.545960	0.049580
O91	O9	0.572100	0.821490	0.213460
O101	O10	0.918170	0.408140	0.040960
O111	O11	0.029360	0.404460	0.049580
O121	O12	0.714440	0.965050	0.213460
O131	O13	0.949100	0.959130	0.459040
O141	O14	0.954040	0.078940	0.450420
O151	O15	0.678510	0.927900	0.286540
O161	O16	0.091860	0.581830	0.459040
O171	O17	0.095540	0.470640	0.450420
O181	O18	0.534950	0.785560	0.286540
O191	O19	0.081830	0.449100	0.959040
O201	O20	0.970640	0.454040	0.950420
O211	O21	0.285560	0.178510	0.786540
O221	O22	0.459130	0.591860	0.959040
O231	O23	0.578940	0.595540	0.950420
O241	O24	0.427900	0.034950	0.786540
O251	O25	0.091860	0.959130	0.459040
O261	O26	0.095540	0.078940	0.450420
O271	O27	0.534950	0.927900	0.286540
O281	O28	0.949100	0.581830	0.459040
O291	O29	0.954040	0.470640	0.450420
O301	O30	0.678510	0.785560	0.286540
O311	O31	0.459130	0.449100	0.959040
O321	O32	0.578940	0.454040	0.950420
O331	O33	0.427900	0.178510	0.786540
O341	O34	0.081830	0.591860	0.959040
O351	O35	0.970640	0.595540	0.950420
O361	O36	0.285560	0.034950	0.786540
O371	O37	0.050900	0.040870	0.540960
O381	O38	0.045960	0.921060	0.549580
O391	O39	0.321490	0.072100	0.713460
O401	O40	0.908140	0.418170	0.540960
O411	O41	0.904460	0.529360	0.549580
O421	O42	0.465050	0.214440	0.713460
O431	O43	0.918170	0.550900	0.040960
O441	O44	0.029360	0.545960	0.049580
O451	O45	0.714440	0.821490	0.213460
O461	O46	0.540870	0.408140	0.040960
O471	O47	0.421060	0.404460	0.049580
O481	O48	0.572100	0.965050	0.213460
