data_MAYXUG_clean_PM
_symmetry_space_group_name_H-M	'P1'
_cell_length_a	5.956500
_cell_length_b	7.371600
_cell_length_c	13.176900
_cell_angle_alpha	102.925000
_cell_angle_beta	101.637000
_cell_angle_gamma	90.785000
_symmetry_Int_Tables_number 1

loop_
_symmetry_equiv_pos_as_xyz
'x,y,z'

loop_
_atom_site_label
_atom_site_type_symbol
_atom_site_fract_x
_atom_site_fract_y
_atom_site_fract_z
Er11	Er1	0.979610	0.180800	0.320990
Er21	Er2	0.020350	0.819430	0.678950
H11	H1	0.647200	0.042300	0.942700
H21	H2	0.348500	0.102400	0.042800
H31	H3	0.506100	0.680400	0.434300
H41	H4	0.528300	0.721200	0.270000
H51	H5	0.488300	0.245300	0.566500
H61	H6	0.449400	0.402900	0.733200
H71	H7	0.796400	0.780400	0.934300
H81	H8	0.230100	0.891400	0.104100
H91	H9	0.759700	0.990600	0.512800
H101	H10	0.833600	0.795900	0.243900
H111	H11	0.234000	0.489000	0.492100
H121	H12	0.144100	0.501700	0.752900
C11	C1	0.788000	0.056700	0.102700
C21	C2	0.628800	0.969500	0.996400
C31	C3	0.379000	0.971200	0.010800
C41	C4	0.220000	0.911000	0.899400
C51	C5	0.842400	0.610900	0.431700
C61	C6	0.651600	0.748400	0.433100
C71	C7	0.615900	0.821000	0.329900
C81	C8	0.484800	0.995100	0.335800
C91	C9	0.150700	0.166100	0.565700
C101	C10	0.341800	0.309700	0.567700
C111	C11	0.370900	0.457200	0.673300
C121	C12	0.508900	0.629000	0.671400
O11	O1	0.743300	0.219200	0.151600
O21	O2	0.956600	0.980200	0.141400
O31	O3	0.675600	0.783500	0.959600
O41	O4	0.352100	0.862700	0.081700
O51	O5	0.251200	0.011900	0.836100
O61	O6	0.079400	0.784200	0.876500
O71	O7	0.821700	0.473300	0.355500
O81	O8	0.016600	0.652700	0.507500
O91	O9	0.712100	0.893700	0.528900
O101	O10	0.836200	0.856600	0.307100
O111	O11	0.592700	0.143200	0.329400
O121	O12	0.282400	0.989000	0.344400
O131	O13	0.975400	0.146300	0.491600
O141	O14	0.176300	0.083100	0.640400
O151	O15	0.283600	0.381300	0.474600
O161	O16	0.149500	0.513400	0.690700
O171	O17	0.405100	0.777100	0.672900
O181	O18	0.717400	0.615400	0.668500
