data_MAZSUD_clean_PM
_symmetry_space_group_name_H-M	'P1'
_cell_length_a	9.178900
_cell_length_b	10.926700
_cell_length_c	11.371000
_cell_angle_alpha	117.844000
_cell_angle_beta	100.861000
_cell_angle_gamma	99.344000
_symmetry_Int_Tables_number 1

loop_
_symmetry_equiv_pos_as_xyz
'x,y,z'

loop_
_atom_site_label
_atom_site_type_symbol
_atom_site_fract_x
_atom_site_fract_y
_atom_site_fract_z
Zn11	Zn1	0.190950	0.623550	0.122110
Zn21	Zn2	0.809050	0.376450	0.877890
Zn31	Zn3	0.500000	0.500000	0.000000
H11	H1	0.625300	0.827800	0.976700
H21	H2	0.294200	0.009700	0.088500
H31	H3	0.694200	0.390800	0.507100
H41	H4	0.386400	0.573300	0.676500
H51	H5	0.249600	0.231000	0.703800
H61	H6	0.967700	0.177600	0.654000
H71	H7	0.374700	0.172200	0.023300
H81	H8	0.705800	0.990300	0.911500
H91	H9	0.305800	0.609200	0.492900
H101	H10	0.613600	0.426700	0.323500
H111	H11	0.750400	0.769000	0.296200
H121	H12	0.032300	0.822400	0.346000
C11	C1	0.448400	0.900500	0.037400
C21	C2	0.574000	0.897000	0.985700
C31	C3	0.377200	0.005000	0.052100
C41	C4	0.391900	0.790100	0.073100
C51	C5	0.546700	0.474200	0.607200
C61	C6	0.615300	0.434000	0.504200
C71	C7	0.431500	0.543000	0.604800
C81	C8	0.598100	0.455100	0.730100
C91	C9	0.197600	0.283800	0.763300
C101	C10	0.041600	0.253900	0.734700
C111	C11	0.551600	0.099500	0.962600
C121	C12	0.426000	0.103000	0.014300
C131	C13	0.622800	0.995000	0.947900
C141	C14	0.608100	0.209900	0.926900
C151	C15	0.453300	0.525800	0.392800
C161	C16	0.384700	0.566000	0.495800
C171	C17	0.568500	0.457000	0.395200
C181	C18	0.401900	0.544900	0.269900
C191	C19	0.802400	0.716200	0.236700
C201	C20	0.958400	0.746100	0.265300
N11	N1	0.264300	0.399300	0.888500
N21	N2	0.151400	0.443200	0.938200
N31	N3	0.015100	0.356100	0.845700
N41	N4	0.735700	0.600700	0.111500
N51	N5	0.848600	0.556800	0.061800
N61	N6	0.984900	0.643900	0.154300
O11	O1	0.270100	0.790800	0.105600
O21	O2	0.466900	0.705100	0.072000
O31	O3	0.536200	0.501800	0.823800
O41	O4	0.702500	0.391000	0.724900
O51	O5	0.729900	0.209200	0.894400
O61	O6	0.533100	0.294900	0.928000
O71	O7	0.463800	0.498200	0.176200
O81	O8	0.297500	0.609000	0.275100
