data_MAZYER_clean_PM
_symmetry_space_group_name_H-M	'P1'
_cell_length_a	13.016000
_cell_length_b	11.291000
_cell_length_c	15.754300
_cell_angle_alpha	90.000000
_cell_angle_beta	105.039000
_cell_angle_gamma	90.000000
_symmetry_Int_Tables_number 1

loop_
_symmetry_equiv_pos_as_xyz
'x,y,z'

loop_
_atom_site_label
_atom_site_type_symbol
_atom_site_fract_x
_atom_site_fract_y
_atom_site_fract_z
Cd11	Cd1	0.697900	0.177120	0.674360
O11	O1	0.637200	0.151100	0.799600
O21	O2	0.640800	0.375600	0.670600
O31	O3	0.836700	0.473400	0.853900
O41	O4	0.632900	0.188500	0.516400
O51	O5	0.835800	0.235000	0.604700
O61	O6	0.819900	0.298900	0.785900
O71	O7	0.654500	0.548400	0.741600
O81	O8	0.498500	0.149700	0.638400
C11	C1	0.539800	0.151400	0.796700
C21	C2	0.685600	0.446300	0.729700
C31	C3	0.790900	0.402100	0.795600
C41	C4	0.691300	0.236600	0.474200
Cd21	Cd2	0.197900	0.677120	0.674360
O91	O9	0.137200	0.651100	0.799600
O101	O10	0.140800	0.875600	0.670600
O111	O11	0.336700	0.973400	0.853900
O121	O12	0.132900	0.688500	0.516400
O131	O13	0.335800	0.735000	0.604700
O141	O14	0.319900	0.798900	0.785900
O151	O15	0.154500	0.048400	0.741600
O161	O16	0.998500	0.649700	0.638400
C51	C5	0.039800	0.651400	0.796700
C61	C6	0.185600	0.946300	0.729700
C71	C7	0.290900	0.902100	0.795600
C81	C8	0.191300	0.736600	0.474200
Cd31	Cd3	0.302100	0.177120	0.825640
O171	O17	0.362800	0.151100	0.700400
O181	O18	0.359200	0.375600	0.829400
O191	O19	0.163300	0.473400	0.646100
O201	O20	0.367100	0.188500	0.983600
O211	O21	0.164200	0.235000	0.895300
O221	O22	0.180100	0.298900	0.714100
O231	O23	0.345500	0.548400	0.758400
O241	O24	0.501500	0.149700	0.861600
C91	C9	0.460200	0.151400	0.703300
C101	C10	0.314400	0.446300	0.770300
C111	C11	0.209100	0.402100	0.704400
C121	C12	0.308700	0.236600	0.025800
Cd41	Cd4	0.802100	0.677120	0.825640
O251	O25	0.862800	0.651100	0.700400
O261	O26	0.859200	0.875600	0.829400
O271	O27	0.663300	0.973400	0.646100
O281	O28	0.867100	0.688500	0.983600
O291	O29	0.664200	0.735000	0.895300
O301	O30	0.680100	0.798900	0.714100
O311	O31	0.845500	0.048400	0.758400
O321	O32	0.001500	0.649700	0.861600
C131	C13	0.960200	0.651400	0.703300
C141	C14	0.814400	0.946300	0.770300
C151	C15	0.709100	0.902100	0.704400
C161	C16	0.808700	0.736600	0.025800
Cd51	Cd5	0.302100	0.822880	0.325640
O331	O33	0.362800	0.848900	0.200400
O341	O34	0.359200	0.624400	0.329400
O351	O35	0.163300	0.526600	0.146100
O361	O36	0.367100	0.811500	0.483600
O371	O37	0.164200	0.765000	0.395300
O381	O38	0.180100	0.701100	0.214100
O391	O39	0.345500	0.451600	0.258400
O401	O40	0.501500	0.850300	0.361600
C171	C17	0.460200	0.848600	0.203300
C181	C18	0.314400	0.553700	0.270300
C191	C19	0.209100	0.597900	0.204400
C201	C20	0.308700	0.763400	0.525800
Cd61	Cd6	0.802100	0.322880	0.325640
O411	O41	0.862800	0.348900	0.200400
O421	O42	0.859200	0.124400	0.329400
O431	O43	0.663300	0.026600	0.146100
O441	O44	0.867100	0.311500	0.483600
O451	O45	0.664200	0.265000	0.395300
O461	O46	0.680100	0.201100	0.214100
O471	O47	0.845500	0.951600	0.258400
O481	O48	0.001500	0.350300	0.361600
C211	C21	0.960200	0.348600	0.203300
C221	C22	0.814400	0.053700	0.270300
C231	C23	0.709100	0.097900	0.204400
C241	C24	0.808700	0.263400	0.525800
Cd71	Cd7	0.697900	0.822880	0.174360
O491	O49	0.637200	0.848900	0.299600
O501	O50	0.640800	0.624400	0.170600
O511	O51	0.836700	0.526600	0.353900
O521	O52	0.632900	0.811500	0.016400
O531	O53	0.835800	0.765000	0.104700
O541	O54	0.819900	0.701100	0.285900
O551	O55	0.654500	0.451600	0.241600
O561	O56	0.498500	0.850300	0.138400
C251	C25	0.539800	0.848600	0.296700
C261	C26	0.685600	0.553700	0.229700
C271	C27	0.790900	0.597900	0.295600
C281	C28	0.691300	0.763400	0.974200
Cd81	Cd8	0.197900	0.322880	0.174360
O571	O57	0.137200	0.348900	0.299600
O581	O58	0.140800	0.124400	0.170600
O591	O59	0.336700	0.026600	0.353900
O601	O60	0.132900	0.311500	0.016400
O611	O61	0.335800	0.265000	0.104700
O621	O62	0.319900	0.201100	0.285900
O631	O63	0.154500	0.951600	0.241600
O641	O64	0.998500	0.350300	0.138400
C291	C29	0.039800	0.348600	0.296700
C301	C30	0.185600	0.053700	0.229700
C311	C31	0.290900	0.097900	0.295600
C321	C32	0.191300	0.263400	0.974200
K11	K1	0.500000	0.000000	0.500000
K21	K2	0.000000	0.500000	0.500000
K31	K3	0.500000	0.000000	0.000000
K41	K4	0.000000	0.500000	0.000000
K51	K5	0.000000	0.211970	0.750000
K61	K6	0.500000	0.711970	0.750000
K71	K7	0.000000	0.788030	0.250000
K81	K8	0.500000	0.288030	0.250000
