data_MEFYUT_clean_PM
_symmetry_space_group_name_H-M	'P1'
_cell_length_a	10.161000
_cell_length_b	13.019000
_cell_length_c	18.705000
_cell_angle_alpha	90.000000
_cell_angle_beta	90.000000
_cell_angle_gamma	98.670000
_symmetry_Int_Tables_number 1

loop_
_symmetry_equiv_pos_as_xyz
'x,y,z'

loop_
_atom_site_label
_atom_site_type_symbol
_atom_site_fract_x
_atom_site_fract_y
_atom_site_fract_z
Zn11	Zn1	0.819720	0.145100	0.638820
Zn21	Zn2	0.647190	0.326640	0.575850
Zn31	Zn3	0.680280	0.354900	0.138820
Zn41	Zn4	0.852810	0.173360	0.075850
Zn51	Zn5	0.180280	0.854900	0.361180
Zn61	Zn6	0.352810	0.673360	0.424150
Zn71	Zn7	0.319720	0.645100	0.861180
Zn81	Zn8	0.147190	0.826640	0.924150
H11	H1	0.288300	0.137900	0.687600
H21	H2	0.281900	0.136600	0.602000
H31	H3	0.157300	0.992900	0.758700
H41	H4	0.068100	0.898700	0.717900
H51	H5	0.179200	0.767300	0.649500
H61	H6	0.338500	0.779800	0.645800
H71	H7	0.390500	0.005100	0.531900
H81	H8	0.466800	0.924200	0.573900
H91	H9	0.478500	0.928800	0.709000
H101	H10	0.408600	0.011400	0.753000
H111	H11	0.057200	0.894800	0.584000
H121	H12	0.138900	0.986900	0.537700
H131	H13	0.211700	0.362100	0.187600
H141	H14	0.218100	0.363400	0.102000
H151	H15	0.342700	0.507100	0.258700
H161	H16	0.431900	0.601300	0.217900
H171	H17	0.320800	0.732700	0.149500
H181	H18	0.161500	0.720200	0.145800
H191	H19	0.109500	0.494900	0.031900
H201	H20	0.033200	0.575800	0.073900
H211	H21	0.021500	0.571200	0.209000
H221	H22	0.091400	0.488600	0.253000
H231	H23	0.442800	0.605200	0.084000
H241	H24	0.361100	0.513100	0.037700
H251	H25	0.711700	0.862100	0.312400
H261	H26	0.718100	0.863400	0.398000
H271	H27	0.842700	0.007100	0.241300
H281	H28	0.931900	0.101300	0.282100
H291	H29	0.820800	0.232700	0.350500
H301	H30	0.661500	0.220200	0.354200
H311	H31	0.609500	0.994900	0.468100
H321	H32	0.533200	0.075800	0.426100
H331	H33	0.521500	0.071200	0.291000
H341	H34	0.591400	0.988600	0.247000
H351	H35	0.942800	0.105200	0.416000
H361	H36	0.861100	0.013100	0.462300
H371	H37	0.788300	0.637900	0.812400
H381	H38	0.781900	0.636600	0.898000
H391	H39	0.657300	0.492900	0.741300
H401	H40	0.568100	0.398700	0.782100
H411	H41	0.679200	0.267300	0.850500
H421	H42	0.838500	0.279800	0.854200
H431	H43	0.890500	0.505100	0.968100
H441	H44	0.966800	0.424200	0.926100
H451	H45	0.978500	0.428800	0.791000
H461	H46	0.908600	0.511400	0.747000
H471	H47	0.557200	0.394800	0.916000
H481	H48	0.638900	0.486900	0.962300
C11	C1	0.532800	0.107300	0.636400
C21	C2	0.032000	0.074000	0.648000
C31	C3	0.276700	0.825600	0.782000
C41	C4	0.259200	0.816100	0.513600
C51	C5	0.402000	0.034600	0.642600
C61	C6	0.152700	0.016100	0.648000
C71	C7	0.271600	0.888700	0.713400
C81	C8	0.260800	0.885700	0.579500
C91	C9	0.281900	0.092300	0.645000
C101	C10	0.152000	0.948400	0.715600
C111	C11	0.261700	0.818400	0.647300
C121	C12	0.389800	0.962600	0.575800
C131	C13	0.401100	0.966700	0.710000
C141	C14	0.140900	0.944700	0.581600
C151	C15	0.967200	0.392700	0.136400
C161	C16	0.468000	0.426000	0.148000
C171	C17	0.223300	0.674400	0.282000
C181	C18	0.240800	0.683900	0.013600
C191	C19	0.098000	0.465400	0.142600
C201	C20	0.347300	0.483900	0.148000
C211	C21	0.228400	0.611300	0.213400
C221	C22	0.239200	0.614300	0.079500
C231	C23	0.218100	0.407700	0.145000
C241	C24	0.348000	0.551600	0.215600
C251	C25	0.238300	0.681600	0.147300
C261	C26	0.110200	0.537400	0.075800
C271	C27	0.098900	0.533300	0.210000
C281	C28	0.359100	0.555300	0.081600
C291	C29	0.467200	0.892700	0.363600
C301	C30	0.968000	0.926000	0.352000
C311	C31	0.723300	0.174400	0.218000
C321	C32	0.740800	0.183900	0.486400
C331	C33	0.598000	0.965400	0.357400
C341	C34	0.847300	0.983900	0.352000
C351	C35	0.728400	0.111300	0.286600
C361	C36	0.739200	0.114300	0.420500
C371	C37	0.718100	0.907700	0.355000
C381	C38	0.848000	0.051600	0.284400
C391	C39	0.738300	0.181600	0.352700
C401	C40	0.610200	0.037400	0.424200
C411	C41	0.598900	0.033300	0.290000
C421	C42	0.859100	0.055300	0.418400
C431	C43	0.032800	0.607300	0.863600
C441	C44	0.532000	0.574000	0.852000
C451	C45	0.776700	0.325600	0.718000
C461	C46	0.759200	0.316100	0.986400
C471	C47	0.902000	0.534600	0.857400
C481	C48	0.652700	0.516100	0.852000
C491	C49	0.771600	0.388700	0.786600
C501	C50	0.760800	0.385700	0.920500
C511	C51	0.781900	0.592300	0.855000
C521	C52	0.652000	0.448400	0.784400
C531	C53	0.761700	0.318400	0.852700
C541	C54	0.889800	0.462600	0.924200
C551	C55	0.901100	0.466700	0.790000
C561	C56	0.640900	0.444700	0.918400
O11	O1	0.637100	0.065300	0.638900
O21	O2	0.531700	0.202800	0.628500
O31	O3	0.307800	0.736500	0.778600
O41	O4	0.256900	0.870700	0.840000
O51	O5	0.046700	0.170200	0.636700
O61	O6	0.919000	0.023800	0.657500
O71	O7	0.175200	0.821000	0.465000
O81	O8	0.348400	0.758500	0.510200
O91	O9	0.862900	0.434700	0.138900
O101	O10	0.968300	0.297200	0.128500
O111	O11	0.192200	0.763500	0.278600
O121	O12	0.243100	0.629300	0.340000
O131	O13	0.453300	0.329800	0.136700
O141	O14	0.581000	0.476200	0.157500
O151	O15	0.324800	0.679000	0.965000
O161	O16	0.151600	0.741500	0.010200
O171	O17	0.362900	0.934700	0.361100
O181	O18	0.468300	0.797200	0.371500
O191	O19	0.692200	0.263500	0.221400
O201	O20	0.743100	0.129300	0.160000
O211	O21	0.953300	0.829800	0.363300
O221	O22	0.081000	0.976200	0.342500
O231	O23	0.824800	0.179000	0.535000
O241	O24	0.651600	0.241500	0.489800
O251	O25	0.137100	0.565300	0.861100
O261	O26	0.031700	0.702800	0.871500
O271	O27	0.807800	0.236500	0.721400
O281	O28	0.756900	0.370700	0.660000
O291	O29	0.546700	0.670200	0.863300
O301	O30	0.419000	0.523800	0.842500
O311	O31	0.675200	0.321000	0.035000
O321	O32	0.848400	0.258500	0.989800
