data_MEJZUY_clean_PM
_symmetry_space_group_name_H-M	'P1'
_cell_length_a	15.040000
_cell_length_b	15.090000
_cell_length_c	15.179000
_cell_angle_alpha	105.689000
_cell_angle_beta	103.559000
_cell_angle_gamma	117.111000
_symmetry_Int_Tables_number 1

loop_
_symmetry_equiv_pos_as_xyz
'x,y,z'

loop_
_atom_site_label
_atom_site_type_symbol
_atom_site_fract_x
_atom_site_fract_y
_atom_site_fract_z
Sm11	Sm1	0.817530	0.112680	0.680930
Sm21	Sm2	0.557240	0.866810	0.697830
Sm31	Sm3	0.415700	0.062290	0.642940
Sm41	Sm4	0.182470	0.887320	0.319070
Sm51	Sm5	0.442760	0.133190	0.302170
Sm61	Sm6	0.584300	0.937710	0.357060
P11	P1	0.616900	0.141700	0.522600
P21	P2	0.694600	0.171900	0.800900
P31	P3	0.625000	0.810500	0.521200
P41	P4	0.383100	0.858300	0.477400
P51	P5	0.305400	0.828100	0.199100
P61	P6	0.375000	0.189500	0.478800
H11	H1	0.798400	0.625200	0.067300
H21	H2	0.749800	0.320300	0.709700
H31	H3	0.657100	0.093600	0.936800
H41	H4	0.836600	0.890300	0.556800
H51	H5	0.674900	0.314800	0.528600
H61	H6	0.775200	0.304600	0.557100
H71	H7	0.848200	0.509400	0.688900
H81	H8	0.908400	0.449900	0.703900
H91	H9	0.964000	0.591900	0.861300
H101	H10	0.902400	0.476900	0.862700
H111	H11	0.807300	0.594900	0.838300
H121	H12	0.640300	0.453400	0.814200
H131	H13	0.693100	0.387900	0.832200
H141	H14	0.587500	0.313900	0.658600
H151	H15	0.660500	0.431500	0.665400
H161	H16	0.835800	0.219700	0.944300
H171	H17	0.800100	0.301700	0.969100
H181	H18	0.717900	0.290000	0.078200
H191	H19	0.613800	0.219900	0.976000
H201	H20	0.564300	0.194500	0.107600
H211	H21	0.528400	0.083700	0.024600
H221	H22	0.714500	0.207000	0.207300
H231	H23	0.765600	0.086400	0.162900
H241	H24	0.662200	0.010900	0.060300
H251	H25	0.812800	0.117800	0.033300
H261	H26	0.840400	0.226500	0.113000
H271	H27	0.669000	0.681000	0.488200
H281	H28	0.717700	0.747400	0.604300
H291	H29	0.888900	0.755900	0.601300
H301	H30	0.906000	0.855800	0.684300
H311	H31	0.072400	0.899500	0.674100
H321	H32	0.037200	0.973500	0.644000
H331	H33	0.008800	0.789900	0.506200
H341	H34	0.924900	0.811900	0.375500
H351	H35	0.943400	0.917600	0.451400
H361	H36	0.761600	0.771900	0.389500
H371	H37	0.800000	0.701800	0.423700
H381	H38	0.001300	0.167800	0.025300
H391	H39	0.130900	0.175100	0.158600
H401	H40	0.238500	0.067800	0.960100
H411	H41	0.110900	0.058600	0.830100
H421	H42	0.010600	0.406800	0.578100
H431	H43	0.161800	0.550000	0.572500
H441	H44	0.366200	0.580100	0.820100
H451	H45	0.217700	0.446500	0.832800
H461	H46	0.201600	0.374800	0.932700
H471	H47	0.250200	0.679700	0.290300
H481	H48	0.342900	0.906400	0.063200
H491	H49	0.163400	0.109700	0.443200
H501	H50	0.325100	0.685200	0.471400
H511	H51	0.224800	0.695400	0.442900
H521	H52	0.151800	0.490600	0.311100
H531	H53	0.091600	0.550100	0.296100
H541	H54	0.036000	0.408100	0.138700
H551	H55	0.097600	0.523100	0.137300
H561	H56	0.192700	0.405100	0.161700
H571	H57	0.359700	0.546600	0.185800
H581	H58	0.306900	0.612100	0.167800
H591	H59	0.412500	0.686100	0.341400
H601	H60	0.339500	0.568500	0.334600
H611	H61	0.164200	0.780300	0.055700
H621	H62	0.199900	0.698300	0.030900
H631	H63	0.282100	0.710000	0.921800
H641	H64	0.386200	0.780100	0.024000
H651	H65	0.435700	0.805500	0.892400
H661	H66	0.471600	0.916300	0.975400
H671	H67	0.285500	0.793000	0.792700
H681	H68	0.234400	0.913600	0.837100
H691	H69	0.337800	0.989100	0.939700
H701	H70	0.187200	0.882200	0.966700
H711	H71	0.159600	0.773500	0.887000
H721	H72	0.331000	0.319000	0.511800
H731	H73	0.282300	0.252600	0.395700
H741	H74	0.111100	0.244100	0.398700
H751	H75	0.094000	0.144200	0.315700
H761	H76	0.927600	0.100500	0.325900
H771	H77	0.962800	0.026500	0.356000
H781	H78	0.991200	0.210100	0.493800
H791	H79	0.075100	0.188100	0.624500
H801	H80	0.056600	0.082400	0.548600
H811	H81	0.238400	0.228100	0.610500
H821	H82	0.200000	0.298200	0.576300
H831	H83	0.998700	0.832200	0.974700
H841	H84	0.869100	0.824900	0.841400
H851	H85	0.761500	0.932200	0.039900
H861	H86	0.889100	0.941400	0.169900
H871	H87	0.989400	0.593200	0.421900
H881	H88	0.838200	0.450000	0.427500
H891	H89	0.633800	0.419900	0.179900
H901	H90	0.782300	0.553500	0.167200
C11	C1	0.710200	0.290100	0.568100
C21	C2	0.855300	0.462600	0.718600
C31	C3	0.893600	0.522800	0.832800
C41	C4	0.809500	0.541900	0.861100
C51	C5	0.693500	0.438100	0.803900
C61	C6	0.660300	0.380900	0.693000
C71	C7	0.842000	0.589000	0.974000
C81	C8	0.773100	0.225000	0.935600
C91	C9	0.660400	0.215900	0.028700
C101	C10	0.591300	0.154400	0.076000
C111	C11	0.658300	0.135300	0.152900
C121	C12	0.715900	0.086300	0.109200
C131	C13	0.781100	0.153400	0.062700
C141	C14	0.589000	0.063500	0.197300
C151	C15	0.708100	0.753800	0.541700
C161	C16	0.906300	0.829700	0.619300
C171	C17	0.018400	0.899100	0.624400
C181	C18	0.023000	0.862300	0.521800
C191	C19	0.927700	0.845300	0.440400
C201	C20	0.818300	0.775600	0.439300
C211	C21	0.134400	0.933300	0.523400
C221	C22	0.952000	0.095600	0.831800
C231	C23	0.040300	0.106800	0.914800
C241	C24	0.048800	0.144800	0.012400
C251	C25	0.127100	0.151600	0.091600
C261	C26	0.198500	0.119200	0.072400
C271	C27	0.189100	0.088000	0.972700
C281	C28	0.111800	0.078700	0.896200
C291	C29	0.278900	0.126700	0.152600
C301	C30	0.001800	0.319800	0.706000
C311	C31	0.102200	0.414000	0.704100
C321	C32	0.084500	0.443800	0.628100
C331	C33	0.173500	0.526800	0.625100
C341	C34	0.280200	0.580500	0.697700
C351	C35	0.292600	0.545800	0.770900
C361	C36	0.207400	0.465600	0.777100
C371	C37	0.372400	0.669300	0.691000
C381	C38	0.289800	0.709900	0.431900
C391	C39	0.144700	0.537400	0.281400
C401	C40	0.106400	0.477200	0.167200
C411	C41	0.190500	0.458100	0.138900
C421	C42	0.306500	0.561900	0.196100
C431	C43	0.339700	0.619100	0.307000
C441	C44	0.158000	0.411000	0.026000
C451	C45	0.226900	0.775000	0.064400
C461	C46	0.339600	0.784100	0.971300
C471	C47	0.408700	0.845600	0.924000
C481	C48	0.341700	0.864700	0.847100
C491	C49	0.284100	0.913700	0.890800
C501	C50	0.218900	0.846600	0.937300
C511	C51	0.411000	0.936500	0.802700
C521	C52	0.291900	0.246200	0.458300
C531	C53	0.093700	0.170300	0.380700
C541	C54	0.981600	0.100900	0.375600
C551	C55	0.977000	0.137700	0.478200
C561	C56	0.072300	0.154700	0.559600
C571	C57	0.181700	0.224400	0.560700
C581	C58	0.865600	0.066700	0.476600
C591	C59	0.048000	0.904400	0.168200
C601	C60	0.959700	0.893200	0.085200
C611	C61	0.951200	0.855200	0.987600
C621	C62	0.872900	0.848400	0.908400
C631	C63	0.801500	0.880800	0.927600
C641	C64	0.810900	0.912000	0.027300
C651	C65	0.888200	0.921300	0.103800
C661	C66	0.721100	0.873300	0.847400
C671	C67	0.998200	0.680200	0.294000
C681	C68	0.897800	0.586000	0.295900
C691	C69	0.915500	0.556200	0.371900
C701	C70	0.826500	0.473200	0.374900
C711	C71	0.719800	0.419500	0.302300
C721	C72	0.707400	0.454200	0.229100
C731	C73	0.792600	0.534400	0.222900
C741	C74	0.627600	0.330700	0.309000
N11	N1	0.743900	0.359700	0.675900
N21	N2	0.711500	0.162300	0.984300
N31	N3	0.819300	0.821000	0.541900
N41	N4	0.256100	0.640300	0.324100
N51	N5	0.288500	0.837700	0.015700
N61	N6	0.180700	0.179000	0.458100
O11	O1	0.554000	0.094300	0.408700
O21	O2	0.546200	0.126600	0.579200
O31	O3	0.681600	0.089300	0.536800
O41	O4	0.927200	0.612400	0.028600
O51	O5	0.773500	0.601200	0.003500
O61	O6	0.779200	0.247600	0.771100
O71	O7	0.670100	0.055500	0.749500
O81	O8	0.593800	0.172900	0.785600
O91	O9	0.496200	0.052000	0.182600
O101	O10	0.629200	0.025200	0.246500
O111	O11	0.612700	0.820700	0.423000
O121	O12	0.687800	0.922800	0.611900
O131	O13	0.522600	0.737800	0.532400
O141	O14	0.217500	0.964300	0.597900
O151	O15	0.140300	0.961200	0.452900
O161	O16	0.912200	0.271100	0.637600
O171	O17	0.019000	0.289200	0.774500
O181	O18	0.354500	0.719400	0.642900
O191	O19	0.469900	0.698600	0.738300
O201	O20	0.943600	0.052000	0.742600
O211	O21	0.898900	0.133100	0.851500
O221	O22	0.301700	0.179700	0.243700
O231	O23	0.319100	0.072300	0.126900
O241	O24	0.446000	0.905700	0.591300
O251	O25	0.453800	0.873400	0.420800
O261	O26	0.318400	0.910700	0.463200
O271	O27	0.072800	0.387600	0.971400
O281	O28	0.226500	0.398800	0.996500
O291	O29	0.220800	0.752400	0.228900
O301	O30	0.329900	0.944500	0.250500
O311	O31	0.406200	0.827100	0.214400
O321	O32	0.503800	0.948000	0.817400
O331	O33	0.370800	0.974800	0.753500
O341	O34	0.387300	0.179300	0.577000
O351	O35	0.312200	0.077200	0.388100
O361	O36	0.477400	0.262200	0.467600
O371	O37	0.782500	0.035700	0.402100
O381	O38	0.859700	0.038800	0.547100
O391	O39	0.087800	0.728900	0.362400
O401	O40	0.981000	0.710800	0.225500
O411	O41	0.645500	0.280600	0.357100
O421	O42	0.530100	0.301400	0.261700
O431	O43	0.056400	0.948000	0.257400
O441	O44	0.101100	0.866900	0.148500
O451	O45	0.698300	0.820300	0.756300
O461	O46	0.680900	0.927700	0.873100
