data_MEJZIM_clean_PM
_symmetry_space_group_name_H-M	'P1'
_cell_length_a	15.209500
_cell_length_b	15.304900
_cell_length_c	15.369800
_cell_angle_alpha	106.485000
_cell_angle_beta	117.143000
_cell_angle_gamma	103.236000
_symmetry_Int_Tables_number 1

loop_
_symmetry_equiv_pos_as_xyz
'x,y,z'

loop_
_atom_site_label
_atom_site_type_symbol
_atom_site_fract_x
_atom_site_fract_y
_atom_site_fract_z
Ce11	Ce1	0.943140	0.802420	0.633890
Ce21	Ce2	0.679480	0.817250	0.384870
Ce31	Ce3	0.915370	0.145700	0.562720
Ce41	Ce4	0.056860	0.197580	0.366110
Ce51	Ce5	0.320520	0.182750	0.615130
Ce61	Ce6	0.084630	0.854300	0.437280
P11	P1	0.874250	0.982350	0.689900
P21	P2	0.803580	0.694950	0.326100
P31	P3	0.117170	0.024550	0.642700
P41	P4	0.125750	0.017650	0.310100
P51	P5	0.196420	0.305050	0.673900
P61	P6	0.882830	0.975450	0.357300
H11	H1	0.294800	0.525400	0.176900
H21	H2	0.663300	0.944500	0.609000
H31	H3	0.841100	0.562100	0.403600
H41	H4	0.254200	0.213700	0.819600
H51	H5	0.828000	0.009700	0.816300
H61	H6	0.778700	0.894300	0.742300
H71	H7	0.595100	0.816600	0.636500
H81	H8	0.611300	0.894600	0.740400
H91	H9	0.429400	0.827100	0.597500
H101	H10	0.461900	0.855000	0.522400
H111	H11	0.492500	0.992500	0.710900
H121	H12	0.576500	0.126200	0.694100
H131	H13	0.558700	0.054900	0.585800
H141	H14	0.703200	0.079800	0.796600
H151	H15	0.736000	0.108300	0.722100
H161	H16	0.700100	0.526800	0.196800
H171	H17	0.660600	0.551600	0.275100
H181	H18	0.786200	0.421000	0.211200
H191	H19	0.888900	0.524100	0.284400
H201	H20	0.971500	0.475800	0.416100
H211	H21	0.931300	0.389100	0.304400
H221	H22	0.786300	0.292400	0.295100
H231	H23	0.836800	0.441800	0.487200
H241	H24	0.735200	0.337800	0.412000
H251	H25	0.688700	0.469500	0.383400
H261	H26	0.658500	0.385500	0.274700
H271	H27	0.275200	0.059700	0.804600
H281	H28	0.176400	0.033700	0.815700
H291	H29	0.094700	0.166500	0.813500
H301	H30	0.163200	0.170500	0.929100
H311	H31	0.194400	0.337200	0.884200
H321	H32	0.144800	0.320300	0.951200
H331	H33	0.309300	0.341500	0.092600
H341	H34	0.406800	0.369700	0.977800
H351	H35	0.464000	0.367100	0.091100
H361	H36	0.352100	0.196500	0.009400
H371	H37	0.408800	0.212300	0.948100
H381	H38	0.279100	0.677400	0.057500
H391	H39	0.135200	0.687500	0.921200
H401	H40	0.341300	0.919700	0.944700
H411	H41	0.486300	0.916900	0.086700
H421	H42	0.503900	0.532100	0.665600
H431	H43	0.631200	0.657000	0.677300
H441	H44	0.732700	0.459500	0.564300
H451	H45	0.601300	0.331500	0.548300
H461	H46	0.705200	0.474600	0.823100
H471	H47	0.336700	0.055500	0.391000
H481	H48	0.158900	0.437900	0.596400
H491	H49	0.745800	0.786300	0.180400
H501	H50	0.172000	0.990300	0.183700
H511	H51	0.221300	0.105700	0.257700
H521	H52	0.404900	0.183400	0.363500
H531	H53	0.388700	0.105400	0.259600
H541	H54	0.570600	0.172900	0.402500
H551	H55	0.538100	0.145000	0.477600
H561	H56	0.507500	0.007500	0.289100
H571	H57	0.423500	0.873800	0.305900
H581	H58	0.441300	0.945100	0.414200
H591	H59	0.296800	0.920200	0.203400
H601	H60	0.264000	0.891700	0.277900
H611	H61	0.299900	0.473200	0.803200
H621	H62	0.339400	0.448400	0.724900
H631	H63	0.213800	0.579000	0.788800
H641	H64	0.111100	0.475900	0.715600
H651	H65	0.028500	0.524200	0.583900
H661	H66	0.068700	0.610900	0.695600
H671	H67	0.213700	0.707600	0.704900
H681	H68	0.163200	0.558200	0.512800
H691	H69	0.264800	0.662200	0.588000
H701	H70	0.311300	0.530500	0.616600
H711	H71	0.341500	0.614500	0.725300
H721	H72	0.724800	0.940300	0.195400
H731	H73	0.823600	0.966300	0.184300
H741	H74	0.905300	0.833500	0.186500
H751	H75	0.836800	0.829500	0.070900
H761	H76	0.805600	0.662800	0.115800
H771	H77	0.855200	0.679700	0.048800
H781	H78	0.690700	0.658500	0.907400
H791	H79	0.593200	0.630300	0.022200
H801	H80	0.536000	0.632900	0.908900
H811	H81	0.647900	0.803500	0.990600
H821	H82	0.591200	0.787700	0.051900
H831	H83	0.720900	0.322600	0.942500
H841	H84	0.864800	0.312500	0.078800
H851	H85	0.658700	0.080300	0.055300
H861	H86	0.513700	0.083100	0.913300
H871	H87	0.496100	0.467900	0.334400
H881	H88	0.368800	0.343000	0.322700
H891	H89	0.267300	0.540500	0.435700
H901	H90	0.398700	0.668500	0.451700
C11	C1	0.789400	0.958900	0.741400
C21	C2	0.595000	0.881300	0.667900
C31	C3	0.482200	0.876400	0.597200
C41	C4	0.479800	0.977600	0.638800
C51	C5	0.573400	0.061800	0.656400
C61	C6	0.681800	0.059800	0.721600
C71	C7	0.367500	0.975300	0.566800
C81	C8	0.724600	0.560800	0.272700
C91	C9	0.841500	0.471000	0.286100
C101	C10	0.907200	0.423600	0.346500
C111	C11	0.843000	0.349000	0.367000
C121	C12	0.784000	0.391100	0.412000
C131	C13	0.718700	0.437700	0.346800
C141	C14	0.909900	0.305400	0.434600
C151	C15	0.211400	0.072000	0.791000
C161	C16	0.166200	0.199200	0.881300
C171	C17	0.197000	0.309800	0.934600
C181	C18	0.311700	0.365000	0.040300
C191	C19	0.395100	0.339300	0.021300
C201	C20	0.356700	0.226300	0.962900
C211	C21	0.337300	0.479600	0.088300
C221	C22	0.492300	0.792400	0.177900
C231	C23	0.397400	0.795500	0.086500
C241	C24	0.292400	0.727500	0.036400
C251	C25	0.206100	0.733500	0.954300
C261	C26	0.224400	0.805400	0.922400
C271	C27	0.329000	0.872300	0.969400
C281	C28	0.415900	0.869600	0.052900
C291	C29	0.128900	0.810000	0.830600
C301	C30	0.458100	0.336600	0.598500
C311	C31	0.540100	0.419200	0.608100
C321	C32	0.549500	0.517200	0.645000
C331	C33	0.625200	0.591700	0.651300
C341	C34	0.694700	0.571300	0.618800
C351	C35	0.685800	0.473900	0.583200
C361	C36	0.608100	0.397000	0.575200
C371	C37	0.774700	0.650700	0.622500
C381	C38	0.210600	0.041100	0.258600
C391	C39	0.405000	0.118700	0.332100
C401	C40	0.517800	0.123600	0.402800
C411	C41	0.520200	0.022400	0.361200
C421	C42	0.426600	0.938200	0.343600
C431	C43	0.318200	0.940200	0.278400
C441	C44	0.632500	0.024700	0.433200
C451	C45	0.275400	0.439200	0.727300
C461	C46	0.158500	0.529000	0.713900
C471	C47	0.092800	0.576400	0.653500
C481	C48	0.157000	0.651000	0.633000
C491	C49	0.216000	0.608900	0.588000
C501	C50	0.281300	0.562300	0.653200
C511	C51	0.090100	0.694600	0.565400
C521	C52	0.788600	0.928000	0.209000
C531	C53	0.833800	0.800800	0.118700
C541	C54	0.803000	0.690200	0.065400
C551	C55	0.688300	0.635000	0.959700
C561	C56	0.604900	0.660700	0.978700
C571	C57	0.643300	0.773700	0.037100
C581	C58	0.662700	0.520400	0.911700
C591	C59	0.507700	0.207600	0.822100
C601	C60	0.602600	0.204500	0.913500
C611	C61	0.707600	0.272500	0.963600
C621	C62	0.793900	0.266500	0.045700
C631	C63	0.775600	0.194600	0.077600
C641	C64	0.671000	0.127700	0.030600
C651	C65	0.584100	0.130400	0.947100
C661	C66	0.871100	0.190000	0.169400
C671	C67	0.541900	0.663400	0.401500
C681	C68	0.459900	0.580800	0.391900
C691	C69	0.450500	0.482800	0.355000
C701	C70	0.374800	0.408300	0.348700
C711	C71	0.305300	0.428700	0.381200
C721	C72	0.314200	0.526100	0.416800
C731	C73	0.391900	0.603000	0.424800
C741	C74	0.225300	0.349300	0.377500
N11	N1	0.680000	0.959000	0.677100
N21	N2	0.788200	0.513500	0.335600
N31	N3	0.248000	0.181300	0.858200
N41	N4	0.320000	0.041000	0.322900
N51	N5	0.211800	0.486500	0.664400
N61	N6	0.752000	0.818700	0.141800
O11	O1	0.976800	0.973100	0.764500
O21	O2	0.813700	0.891900	0.579200
O31	O3	0.887300	0.079700	0.683500
O41	O4	0.286500	0.902500	0.538900
O51	O5	0.363600	0.044600	0.538600
O61	O6	0.720900	0.724300	0.252700
O71	O7	0.825500	0.745200	0.439100
O81	O8	0.904700	0.709700	0.325800
O91	O9	0.870300	0.256500	0.470800
O101	O10	0.002800	0.319900	0.450200
O111	O11	0.056400	0.910300	0.596700
O121	O12	0.046100	0.080600	0.627700
O131	O13	0.181300	0.038400	0.591400
O141	O14	0.278100	0.507900	0.111800
O151	O15	0.422800	0.531800	0.106500
O161	O16	0.476200	0.727900	0.209100
O171	O17	0.585100	0.861100	0.227000
O181	O18	0.033800	0.763700	0.801900
O191	O19	0.148900	0.860100	0.782900
O201	O20	0.405200	0.358500	0.639000
O211	O21	0.443300	0.247700	0.555100
O221	O22	0.799700	0.742600	0.677300
O231	O23	0.817400	0.625200	0.572700
O241	O24	0.023200	0.026900	0.235500
O251	O25	0.186300	0.108100	0.420800
O261	O26	0.112700	0.920300	0.316500
O271	O27	0.713500	0.097500	0.461100
O281	O28	0.636400	0.955400	0.461400
O291	O29	0.279100	0.275700	0.747300
O301	O30	0.174500	0.254800	0.560900
O311	O31	0.095300	0.290300	0.674200
O321	O32	0.129700	0.743500	0.529200
O331	O33	0.997200	0.680100	0.549800
O341	O34	0.943600	0.089700	0.403300
O351	O35	0.953900	0.919400	0.372300
O361	O36	0.818700	0.961600	0.408600
O371	O37	0.721900	0.492100	0.888200
O381	O38	0.577200	0.468200	0.893500
O391	O39	0.523800	0.272100	0.790900
O401	O40	0.414900	0.138900	0.773000
O411	O41	0.966200	0.236300	0.198100
O421	O42	0.851100	0.139900	0.217100
O431	O43	0.594800	0.641500	0.361000
O441	O44	0.556700	0.752300	0.444900
O451	O45	0.200300	0.257400	0.322700
O461	O46	0.182600	0.374800	0.427300
