data_MEQHUL01_clean_PM
_symmetry_space_group_name_H-M	'P1'
_cell_length_a	15.123000
_cell_length_b	12.305000
_cell_length_c	19.264000
_cell_angle_alpha	90.000000
_cell_angle_beta	98.620000
_cell_angle_gamma	90.000000
_symmetry_Int_Tables_number 1

loop_
_symmetry_equiv_pos_as_xyz
'x,y,z'

loop_
_atom_site_label
_atom_site_type_symbol
_atom_site_fract_x
_atom_site_fract_y
_atom_site_fract_z
Mo11	Mo1	0.016400	0.146400	0.823900
Mo21	Mo2	0.119300	0.246200	0.924600
Mo31	Mo3	0.246600	0.091000	0.059000
Mo41	Mo4	0.236500	0.880500	0.057600
Mo51	Mo5	0.096700	0.745600	0.920100
Mo61	Mo6	0.004400	0.859100	0.820600
P11	P1	0.197700	0.989600	0.892400
P21	P2	0.034200	0.003400	0.677400
P31	P3	0.338700	0.268400	0.960100
P41	P4	0.313600	0.698000	0.955700
O11	O1	0.129000	0.221800	0.826700
O21	O2	0.022200	0.139000	0.926500
O31	O3	0.024000	0.104600	0.720300
O41	O4	0.934700	0.008800	0.819700
O51	O5	0.108400	0.995400	0.842000
O61	O6	0.151100	0.217200	0.033100
O71	O7	0.246500	0.312100	0.933200
O81	O8	0.202900	0.091000	0.940300
O91	O9	0.142800	0.992400	0.057400
O101	O10	0.327700	0.979800	0.036500
O111	O11	0.335700	0.200800	0.026600
O121	O12	0.193300	0.889200	0.940100
O131	O13	0.316800	0.757700	0.025700
O141	O14	0.132300	0.768200	0.030400
O151	O15	0.108700	0.768600	0.821300
O161	O16	0.217600	0.666300	0.926400
O171	O17	0.009000	0.862400	0.923500
O181	O18	0.023400	0.900800	0.720700
O191	O19	0.279600	0.980800	0.856500
O201	O20	0.970800	0.006900	0.610100
O211	O21	0.134800	0.000800	0.662200
O221	O22	0.363700	0.188000	0.902200
O231	O23	0.412100	0.349100	0.970400
O241	O24	0.373400	0.601000	0.960300
O251	O25	0.348800	0.777900	0.900000
Mo71	Mo7	0.483600	0.646400	0.676100
Mo81	Mo8	0.380700	0.746200	0.575400
Mo91	Mo9	0.253400	0.591000	0.441000
Mo101	Mo10	0.263500	0.380500	0.442400
Mo111	Mo11	0.403300	0.245600	0.579900
Mo121	Mo12	0.495600	0.359100	0.679400
P51	P5	0.302300	0.489600	0.607600
P61	P6	0.465800	0.503400	0.822600
P71	P7	0.161300	0.768400	0.539900
P81	P8	0.186400	0.198000	0.544300
O261	O26	0.371000	0.721800	0.673300
O271	O27	0.477800	0.639000	0.573500
O281	O28	0.476000	0.604600	0.779700
O291	O29	0.565300	0.508800	0.680300
O301	O30	0.391600	0.495400	0.658000
O311	O31	0.348900	0.717200	0.466900
O321	O32	0.253500	0.812100	0.566800
O331	O33	0.297100	0.591000	0.559700
O341	O34	0.357200	0.492400	0.442600
O351	O35	0.172300	0.479800	0.463500
O361	O36	0.164300	0.700800	0.473400
O371	O37	0.306700	0.389200	0.559900
O381	O38	0.183200	0.257700	0.474300
O391	O39	0.367700	0.268200	0.469600
O401	O40	0.391300	0.268600	0.678700
O411	O41	0.282400	0.166300	0.573600
O421	O42	0.491000	0.362400	0.576500
O431	O43	0.476600	0.400800	0.779300
O441	O44	0.220400	0.480800	0.643500
O451	O45	0.529200	0.506900	0.889900
O461	O46	0.365200	0.500800	0.837800
O471	O47	0.136300	0.688000	0.597800
O481	O48	0.087900	0.849100	0.529600
O491	O49	0.126600	0.101000	0.539700
O501	O50	0.151200	0.277900	0.600000
Mo131	Mo13	0.983600	0.853600	0.176100
Mo141	Mo14	0.880700	0.753800	0.075400
Mo151	Mo15	0.753400	0.909000	0.941000
Mo161	Mo16	0.763500	0.119500	0.942400
Mo171	Mo17	0.903300	0.254400	0.079900
Mo181	Mo18	0.995600	0.140900	0.179400
P91	P9	0.802300	0.010400	0.107600
P101	P10	0.965800	0.996600	0.322600
P111	P11	0.661300	0.731600	0.039900
P121	P12	0.686400	0.302000	0.044300
O511	O51	0.871000	0.778200	0.173300
O521	O52	0.977800	0.861000	0.073500
O531	O53	0.976000	0.895400	0.279700
O541	O54	0.065300	0.991200	0.180300
O551	O55	0.891600	0.004600	0.158000
O561	O56	0.848900	0.782800	0.966900
O571	O57	0.753500	0.687900	0.066800
O581	O58	0.797100	0.909000	0.059700
O591	O59	0.857200	0.007600	0.942600
O601	O60	0.672300	0.020200	0.963500
O611	O61	0.664300	0.799200	0.973400
O621	O62	0.806700	0.110800	0.059900
O631	O63	0.683200	0.242300	0.974300
O641	O64	0.867700	0.231800	0.969600
O651	O65	0.891300	0.231400	0.178700
O661	O66	0.782400	0.333700	0.073600
O671	O67	0.991000	0.137600	0.076500
O681	O68	0.976600	0.099200	0.279300
O691	O69	0.720400	0.019200	0.143500
O701	O70	0.029200	0.993100	0.389900
O711	O71	0.865200	0.999200	0.337800
O721	O72	0.636300	0.812000	0.097800
O731	O73	0.587900	0.650900	0.029600
O741	O74	0.626600	0.399000	0.039700
O751	O75	0.651200	0.222100	0.100000
Mo191	Mo19	0.516400	0.353600	0.323900
Mo201	Mo20	0.619300	0.253800	0.424600
Mo211	Mo21	0.746600	0.409000	0.559000
Mo221	Mo22	0.736500	0.619500	0.557600
Mo231	Mo23	0.596700	0.754400	0.420100
Mo241	Mo24	0.504400	0.640900	0.320600
P131	P13	0.697700	0.510400	0.392400
P141	P14	0.534200	0.496600	0.177400
P151	P15	0.838700	0.231600	0.460100
P161	P16	0.813600	0.802000	0.455700
O761	O76	0.629000	0.278200	0.326700
O771	O77	0.522200	0.361000	0.426500
O781	O78	0.524000	0.395400	0.220300
O791	O79	0.434700	0.491200	0.319700
O801	O80	0.608400	0.504600	0.342000
O811	O81	0.651100	0.282800	0.533100
O821	O82	0.746500	0.187900	0.433200
O831	O83	0.702900	0.409000	0.440300
O841	O84	0.642800	0.507600	0.557400
O851	O85	0.827700	0.520200	0.536500
O861	O86	0.835700	0.299200	0.526600
O871	O87	0.693300	0.610800	0.440100
O881	O88	0.816800	0.742300	0.525700
O891	O89	0.632300	0.731800	0.530400
O901	O90	0.608700	0.731400	0.321300
O911	O91	0.717600	0.833700	0.426400
O921	O92	0.509000	0.637600	0.423500
O931	O93	0.523400	0.599200	0.220700
O941	O94	0.779600	0.519200	0.356500
O951	O95	0.470800	0.493100	0.110100
O961	O96	0.634800	0.499200	0.162200
O971	O97	0.863700	0.312000	0.402200
O981	O98	0.912100	0.150900	0.470400
O991	O99	0.873400	0.899000	0.460300
O1001	O100	0.848800	0.722100	0.400000
Cd11	Cd1	0.000000	0.000000	0.000000
Cd21	Cd2	0.500000	0.500000	0.500000
Cd31	Cd3	0.000000	0.000000	0.500000
Cd41	Cd4	0.500000	0.500000	0.000000
