data_MEWNEH_clean_PM
_symmetry_space_group_name_H-M	'P1'
_cell_length_a	10.374000
_cell_length_b	18.443000
_cell_length_c	18.443000
_cell_angle_alpha	90.000000
_cell_angle_beta	90.000000
_cell_angle_gamma	90.000000
_symmetry_Int_Tables_number 1

loop_
_symmetry_equiv_pos_as_xyz
'x,y,z'

loop_
_atom_site_label
_atom_site_type_symbol
_atom_site_fract_x
_atom_site_fract_y
_atom_site_fract_z
Tm11	Tm1	0.652250	0.973680	0.254570
Tm21	Tm2	0.652250	0.526320	0.245430
Tm31	Tm3	0.652250	0.245430	0.973680
Tm41	Tm4	0.652250	0.254570	0.526320
Tm51	Tm5	0.847750	0.026320	0.754570
Tm61	Tm6	0.847750	0.473680	0.745430
Tm71	Tm7	0.847750	0.754570	0.473680
Tm81	Tm8	0.847750	0.745430	0.026320
Tm91	Tm9	0.347750	0.026320	0.745430
Tm101	Tm10	0.347750	0.473680	0.754570
Tm111	Tm11	0.347750	0.754570	0.026320
Tm121	Tm12	0.347750	0.745430	0.473680
Tm131	Tm13	0.152250	0.973680	0.245430
Tm141	Tm14	0.152250	0.526320	0.254570
Tm151	Tm15	0.152250	0.245430	0.526320
Tm161	Tm16	0.152250	0.254570	0.973680
C11	C1	0.928200	0.021400	0.439100
C21	C2	0.979700	0.951600	0.442500
C31	C3	0.950700	0.070100	0.495900
C41	C4	0.840100	0.045000	0.378400
C51	C5	0.972200	0.898500	0.379700
C61	C6	0.898700	0.147000	0.495400
C71	C7	0.928200	0.478600	0.060900
C81	C8	0.979700	0.548400	0.057500
C91	C9	0.950700	0.429900	0.004100
C101	C10	0.840100	0.455000	0.121600
C111	C11	0.972200	0.601500	0.120300
C121	C12	0.898700	0.353000	0.004600
C131	C13	0.928200	0.060900	0.021400
C141	C14	0.979700	0.057500	0.951600
C151	C15	0.950700	0.004100	0.070100
C161	C16	0.840100	0.121600	0.045000
C171	C17	0.972200	0.120300	0.898500
C181	C18	0.898700	0.004600	0.147000
C191	C19	0.928200	0.439100	0.478600
C201	C20	0.979700	0.442500	0.548400
C211	C21	0.950700	0.495900	0.429900
C221	C22	0.840100	0.378400	0.455000
C231	C23	0.972200	0.379700	0.601500
C241	C24	0.898700	0.495400	0.353000
C251	C25	0.571800	0.978600	0.939100
C261	C26	0.520300	0.048400	0.942500
C271	C27	0.549300	0.929900	0.995900
C281	C28	0.659900	0.955000	0.878400
C291	C29	0.527800	0.101500	0.879700
C301	C30	0.601300	0.853000	0.995400
C311	C31	0.571800	0.521400	0.560900
C321	C32	0.520300	0.451600	0.557500
C331	C33	0.549300	0.570100	0.504100
C341	C34	0.659900	0.545000	0.621600
C351	C35	0.527800	0.398500	0.620300
C361	C36	0.601300	0.647000	0.504600
C371	C37	0.571800	0.939100	0.521400
C381	C38	0.520300	0.942500	0.451600
C391	C39	0.549300	0.995900	0.570100
C401	C40	0.659900	0.878400	0.545000
C411	C41	0.527800	0.879700	0.398500
C421	C42	0.601300	0.995400	0.647000
C431	C43	0.571800	0.560900	0.978600
C441	C44	0.520300	0.557500	0.048400
C451	C45	0.549300	0.504100	0.929900
C461	C46	0.659900	0.621600	0.955000
C471	C47	0.527800	0.620300	0.101500
C481	C48	0.601300	0.504600	0.853000
C491	C49	0.071800	0.978600	0.560900
C501	C50	0.020300	0.048400	0.557500
C511	C51	0.049300	0.929900	0.504100
C521	C52	0.159900	0.955000	0.621600
C531	C53	0.027800	0.101500	0.620300
C541	C54	0.101300	0.853000	0.504600
C551	C55	0.071800	0.521400	0.939100
C561	C56	0.020300	0.451600	0.942500
C571	C57	0.049300	0.570100	0.995900
C581	C58	0.159900	0.545000	0.878400
C591	C59	0.027800	0.398500	0.879700
C601	C60	0.101300	0.647000	0.995400
C611	C61	0.071800	0.939100	0.978600
C621	C62	0.020300	0.942500	0.048400
C631	C63	0.049300	0.995900	0.929900
C641	C64	0.159900	0.878400	0.955000
C651	C65	0.027800	0.879700	0.101500
C661	C66	0.101300	0.995400	0.853000
C671	C67	0.071800	0.560900	0.521400
C681	C68	0.020300	0.557500	0.451600
C691	C69	0.049300	0.504100	0.570100
C701	C70	0.159900	0.621600	0.545000
C711	C71	0.027800	0.620300	0.398500
C721	C72	0.101300	0.504600	0.647000
C731	C73	0.428200	0.021400	0.060900
C741	C74	0.479700	0.951600	0.057500
C751	C75	0.450700	0.070100	0.004100
C761	C76	0.340100	0.045000	0.121600
C771	C77	0.472200	0.898500	0.120300
C781	C78	0.398700	0.147000	0.004600
C791	C79	0.428200	0.478600	0.439100
C801	C80	0.479700	0.548400	0.442500
C811	C81	0.450700	0.429900	0.495900
C821	C82	0.340100	0.455000	0.378400
C831	C83	0.472200	0.601500	0.379700
C841	C84	0.398700	0.353000	0.495400
C851	C85	0.428200	0.060900	0.478600
C861	C86	0.479700	0.057500	0.548400
C871	C87	0.450700	0.004100	0.429900
C881	C88	0.340100	0.121600	0.455000
C891	C89	0.472200	0.120300	0.601500
C901	C90	0.398700	0.004600	0.353000
C911	C91	0.428200	0.439100	0.021400
C921	C92	0.479700	0.442500	0.951600
C931	C93	0.450700	0.495900	0.070100
C941	C94	0.340100	0.378400	0.045000
C951	C95	0.472200	0.379700	0.898500
C961	C96	0.398700	0.495400	0.147000
O11	O1	0.823600	0.111000	0.366500
O21	O2	0.784500	0.994400	0.344000
O31	O3	0.926800	0.837010	0.389950
O41	O4	0.019800	0.917200	0.320390
O51	O5	0.974200	0.196590	0.475600
O61	O6	0.786200	0.157000	0.517500
O71	O7	0.823600	0.389000	0.133500
O81	O8	0.784500	0.505600	0.156000
O91	O9	0.926800	0.662990	0.110050
O101	O10	0.019800	0.582800	0.179610
O111	O11	0.974200	0.303410	0.024400
O121	O12	0.786200	0.343000	0.982500
O131	O13	0.823600	0.133500	0.111000
O141	O14	0.784500	0.156000	0.994400
O151	O15	0.926800	0.110050	0.837010
O161	O16	0.019800	0.179610	0.917200
O171	O17	0.974200	0.024400	0.196590
O181	O18	0.786200	0.982500	0.157000
O191	O19	0.823600	0.366500	0.389000
O201	O20	0.784500	0.344000	0.505600
O211	O21	0.926800	0.389950	0.662990
O221	O22	0.019800	0.320390	0.582800
O231	O23	0.974200	0.475600	0.303410
O241	O24	0.786200	0.517500	0.343000
O251	O25	0.676400	0.889000	0.866500
O261	O26	0.715500	0.005600	0.844000
O271	O27	0.573200	0.162990	0.889950
O281	O28	0.480200	0.082800	0.820390
O291	O29	0.525800	0.803410	0.975600
O301	O30	0.713800	0.843000	0.017500
O311	O31	0.676400	0.611000	0.633500
O321	O32	0.715500	0.494400	0.656000
O331	O33	0.573200	0.337010	0.610050
O341	O34	0.480200	0.417200	0.679610
O351	O35	0.525800	0.696590	0.524400
O361	O36	0.713800	0.657000	0.482500
O371	O37	0.676400	0.866500	0.611000
O381	O38	0.715500	0.844000	0.494400
O391	O39	0.573200	0.889950	0.337010
O401	O40	0.480200	0.820390	0.417200
O411	O41	0.525800	0.975600	0.696590
O421	O42	0.713800	0.017500	0.657000
O431	O43	0.676400	0.633500	0.889000
O441	O44	0.715500	0.656000	0.005600
O451	O45	0.573200	0.610050	0.162990
O461	O46	0.480200	0.679610	0.082800
O471	O47	0.525800	0.524400	0.803410
O481	O48	0.713800	0.482500	0.843000
O491	O49	0.176400	0.889000	0.633500
O501	O50	0.215500	0.005600	0.656000
O511	O51	0.073200	0.162990	0.610050
O521	O52	0.980200	0.082800	0.679610
O531	O53	0.025800	0.803410	0.524400
O541	O54	0.213800	0.843000	0.482500
O551	O55	0.176400	0.611000	0.866500
O561	O56	0.215500	0.494400	0.844000
O571	O57	0.073200	0.337010	0.889950
O581	O58	0.980200	0.417200	0.820390
O591	O59	0.025800	0.696590	0.975600
O601	O60	0.213800	0.657000	0.017500
O611	O61	0.176400	0.866500	0.889000
O621	O62	0.215500	0.844000	0.005600
O631	O63	0.073200	0.889950	0.162990
O641	O64	0.980200	0.820390	0.082800
O651	O65	0.025800	0.975600	0.803410
O661	O66	0.213800	0.017500	0.843000
O671	O67	0.176400	0.633500	0.611000
O681	O68	0.215500	0.656000	0.494400
O691	O69	0.073200	0.610050	0.337010
O701	O70	0.980200	0.679610	0.417200
O711	O71	0.025800	0.524400	0.696590
O721	O72	0.213800	0.482500	0.657000
O731	O73	0.323600	0.111000	0.133500
O741	O74	0.284500	0.994400	0.156000
O751	O75	0.426800	0.837010	0.110050
O761	O76	0.519800	0.917200	0.179610
O771	O77	0.474200	0.196590	0.024400
O781	O78	0.286200	0.157000	0.982500
O791	O79	0.323600	0.389000	0.366500
O801	O80	0.284500	0.505600	0.344000
O811	O81	0.426800	0.662990	0.389950
O821	O82	0.519800	0.582800	0.320390
O831	O83	0.474200	0.303410	0.475600
O841	O84	0.286200	0.343000	0.517500
O851	O85	0.323600	0.133500	0.389000
O861	O86	0.284500	0.156000	0.505600
O871	O87	0.426800	0.110050	0.662990
O881	O88	0.519800	0.179610	0.582800
O891	O89	0.474200	0.024400	0.303410
O901	O90	0.286200	0.982500	0.343000
O911	O91	0.323600	0.366500	0.111000
O921	O92	0.284500	0.344000	0.994400
O931	O93	0.426800	0.389950	0.837010
O941	O94	0.519800	0.320390	0.917200
O951	O95	0.474200	0.475600	0.196590
O961	O96	0.286200	0.517500	0.157000
