data_MEXJAC_clean_PM
_symmetry_space_group_name_H-M	'P1'
_cell_length_a	14.134100
_cell_length_b	14.134100
_cell_length_c	14.134100
_cell_angle_alpha	90.000000
_cell_angle_beta	90.000000
_cell_angle_gamma	90.000000
_symmetry_Int_Tables_number 1

loop_
_symmetry_equiv_pos_as_xyz
'x,y,z'

loop_
_atom_site_label
_atom_site_type_symbol
_atom_site_fract_x
_atom_site_fract_y
_atom_site_fract_z
Sm11	Sm1	0.000490	0.999510	0.499510
Sm21	Sm2	0.499510	0.000490	0.999510
Sm31	Sm3	0.999510	0.499510	0.000490
Sm41	Sm4	0.500490	0.500490	0.500490
C11	C1	0.090100	0.164000	0.573200
C21	C2	0.129000	0.253600	0.620400
C31	C3	0.084900	0.291400	0.700400
C41	C4	0.409900	0.836000	0.073200
C51	C5	0.371000	0.746400	0.120400
C61	C6	0.415100	0.708600	0.200400
C71	C7	0.909900	0.664000	0.926800
C81	C8	0.871000	0.753600	0.879600
C91	C9	0.915100	0.791400	0.799600
C101	C10	0.590100	0.336000	0.426800
C111	C11	0.629000	0.246400	0.379600
C121	C12	0.584900	0.208600	0.299600
C131	C13	0.573200	0.090100	0.164000
C141	C14	0.620400	0.129000	0.253600
C151	C15	0.700400	0.084900	0.291400
C161	C16	0.073200	0.409900	0.836000
C171	C17	0.120400	0.371000	0.746400
C181	C18	0.200400	0.415100	0.708600
C191	C19	0.926800	0.909900	0.664000
C201	C20	0.879600	0.871000	0.753600
C211	C21	0.799600	0.915100	0.791400
C221	C22	0.426800	0.590100	0.336000
C231	C23	0.379600	0.629000	0.246400
C241	C24	0.299600	0.584900	0.208600
C251	C25	0.164000	0.573200	0.090100
C261	C26	0.253600	0.620400	0.129000
C271	C27	0.291400	0.700400	0.084900
C281	C28	0.836000	0.073200	0.409900
C291	C29	0.746400	0.120400	0.371000
C301	C30	0.708600	0.200400	0.415100
C311	C31	0.664000	0.926800	0.909900
C321	C32	0.753600	0.879600	0.871000
C331	C33	0.791400	0.799600	0.915100
C341	C34	0.336000	0.426800	0.590100
C351	C35	0.246400	0.379600	0.629000
C361	C36	0.208600	0.299600	0.584900
I11	I1	0.961940	0.225090	0.751310
I21	I2	0.538060	0.774910	0.251310
I31	I3	0.038060	0.725090	0.748690
I41	I4	0.461940	0.274910	0.248690
I51	I5	0.751310	0.961940	0.225090
I61	I6	0.251310	0.538060	0.774910
I71	I7	0.748690	0.038060	0.725090
I81	I8	0.248690	0.461940	0.274910
I91	I9	0.225090	0.751310	0.961940
I101	I10	0.774910	0.251310	0.538060
I111	I11	0.725090	0.748690	0.038060
I121	I12	0.274910	0.248690	0.461940
O11	O1	0.016300	0.171850	0.525600
O21	O2	0.132600	0.088340	0.586100
O31	O3	0.483700	0.828150	0.025600
O41	O4	0.367400	0.911660	0.086100
O51	O5	0.983700	0.671850	0.974400
O61	O6	0.867400	0.588340	0.913900
O71	O7	0.516300	0.328150	0.474400
O81	O8	0.632600	0.411660	0.413900
O91	O9	0.525600	0.016300	0.171850
O101	O10	0.586100	0.132600	0.088340
O111	O11	0.025600	0.483700	0.828150
O121	O12	0.086100	0.367400	0.911660
O131	O13	0.974400	0.983700	0.671850
O141	O14	0.913900	0.867400	0.588340
O151	O15	0.474400	0.516300	0.328150
O161	O16	0.413900	0.632600	0.411660
O171	O17	0.171850	0.525600	0.016300
O181	O18	0.088340	0.586100	0.132600
O191	O19	0.828150	0.025600	0.483700
O201	O20	0.911660	0.086100	0.367400
O211	O21	0.671850	0.974400	0.983700
O221	O22	0.588340	0.913900	0.867400
O231	O23	0.328150	0.474400	0.516300
O241	O24	0.411660	0.413900	0.632600
