data_MIDCAF_clean_PM
_symmetry_space_group_name_H-M	'P1'
_cell_length_a	12.783300
_cell_length_b	25.559900
_cell_length_c	25.559900
_cell_angle_alpha	90.000000
_cell_angle_beta	90.000000
_cell_angle_gamma	90.000000
_symmetry_Int_Tables_number 1

loop_
_symmetry_equiv_pos_as_xyz
'x,y,z'

loop_
_atom_site_label
_atom_site_type_symbol
_atom_site_fract_x
_atom_site_fract_y
_atom_site_fract_z
Zn11	Zn1	0.839500	0.955580	0.794850
Zn21	Zn2	0.839500	0.044420	0.205150
Zn31	Zn3	0.339500	0.705150	0.455580
Zn41	Zn4	0.339500	0.294850	0.544420
Zn51	Zn5	0.660500	0.544420	0.294850
Zn61	Zn6	0.660500	0.455580	0.705150
Zn71	Zn7	0.160500	0.794850	0.955580
Zn81	Zn8	0.160500	0.205150	0.044420
Zn91	Zn9	0.000000	0.874860	0.874860
Zn101	Zn10	0.000000	0.125140	0.125140
Zn111	Zn11	0.500000	0.625140	0.374860
Zn121	Zn12	0.500000	0.374860	0.625140
H11	H1	0.900700	0.771400	0.613100
H21	H2	0.850100	0.833700	0.675400
H31	H3	0.120100	0.812500	0.753400
H41	H4	0.166800	0.747500	0.694800
H51	H5	0.275900	0.632000	0.678000
H61	H6	0.418800	0.576600	0.698500
H71	H7	0.375900	0.501000	0.561000
H81	H8	0.236800	0.556900	0.539500
H91	H9	0.009900	0.571600	0.485000
H101	H10	0.905000	0.551900	0.413100
H111	H11	0.739600	0.683300	0.437500
H121	H12	0.855800	0.709000	0.502700
H131	H13	0.900700	0.228600	0.386900
H141	H14	0.850100	0.166300	0.324600
H151	H15	0.120100	0.187500	0.246600
H161	H16	0.166800	0.252500	0.305200
H171	H17	0.275900	0.368000	0.322000
H181	H18	0.418800	0.423400	0.301500
H191	H19	0.375900	0.499000	0.439000
H201	H20	0.236800	0.443100	0.460500
H211	H21	0.009900	0.428400	0.515000
H221	H22	0.905000	0.448100	0.586900
H231	H23	0.739600	0.316700	0.562500
H241	H24	0.855800	0.291000	0.497300
H251	H25	0.400700	0.886900	0.271400
H261	H26	0.350100	0.824600	0.333700
H271	H27	0.620100	0.746600	0.312500
H281	H28	0.666800	0.805200	0.247500
H291	H29	0.775900	0.822000	0.132000
H301	H30	0.918800	0.801500	0.076600
H311	H31	0.875900	0.939000	0.001000
H321	H32	0.736800	0.960500	0.056900
H331	H33	0.509900	0.015000	0.071600
H341	H34	0.405000	0.086900	0.051900
H351	H35	0.239600	0.062500	0.183300
H361	H36	0.355800	0.997300	0.209000
H371	H37	0.400700	0.113100	0.728600
H381	H38	0.350100	0.175400	0.666300
H391	H39	0.620100	0.253400	0.687500
H401	H40	0.666800	0.194800	0.752500
H411	H41	0.775900	0.178000	0.868000
H421	H42	0.918800	0.198500	0.923400
H431	H43	0.875900	0.061000	0.999000
H441	H44	0.736800	0.039500	0.943100
H451	H45	0.509900	0.985000	0.928400
H461	H46	0.405000	0.913100	0.948100
H471	H47	0.239600	0.937500	0.816700
H481	H48	0.355800	0.002700	0.791000
H491	H49	0.599300	0.728600	0.113100
H501	H50	0.649900	0.666300	0.175400
H511	H51	0.379900	0.687500	0.253400
H521	H52	0.333200	0.752500	0.194800
H531	H53	0.224100	0.868000	0.178000
H541	H54	0.081200	0.923400	0.198500
H551	H55	0.124100	0.999000	0.061000
H561	H56	0.263200	0.943100	0.039500
H571	H57	0.490100	0.928400	0.985000
H581	H58	0.595000	0.948100	0.913100
H591	H59	0.760400	0.816700	0.937500
H601	H60	0.644200	0.791000	0.002700
H611	H61	0.599300	0.271400	0.886900
H621	H62	0.649900	0.333700	0.824600
H631	H63	0.379900	0.312500	0.746600
H641	H64	0.333200	0.247500	0.805200
H651	H65	0.224100	0.132000	0.822000
H661	H66	0.081200	0.076600	0.801500
H671	H67	0.124100	0.001000	0.939000
H681	H68	0.263200	0.056900	0.960500
H691	H69	0.490100	0.071600	0.015000
H701	H70	0.595000	0.051900	0.086900
H711	H71	0.760400	0.183300	0.062500
H721	H72	0.644200	0.209000	0.997300
H731	H73	0.099300	0.613100	0.771400
H741	H74	0.149900	0.675400	0.833700
H751	H75	0.879900	0.753400	0.812500
H761	H76	0.833200	0.694800	0.747500
H771	H77	0.724100	0.678000	0.632000
H781	H78	0.581200	0.698500	0.576600
H791	H79	0.624100	0.561000	0.501000
H801	H80	0.763200	0.539500	0.556900
H811	H81	0.990100	0.485000	0.571600
H821	H82	0.095000	0.413100	0.551900
H831	H83	0.260400	0.437500	0.683300
H841	H84	0.144200	0.502700	0.709000
H851	H85	0.099300	0.386900	0.228600
H861	H86	0.149900	0.324600	0.166300
H871	H87	0.879900	0.246600	0.187500
H881	H88	0.833200	0.305200	0.252500
H891	H89	0.724100	0.322000	0.368000
H901	H90	0.581200	0.301500	0.423400
H911	H91	0.624100	0.439000	0.499000
H921	H92	0.763200	0.460500	0.443100
H931	H93	0.990100	0.515000	0.428400
H941	H94	0.095000	0.586900	0.448100
H951	H95	0.260400	0.562500	0.316700
H961	H96	0.144200	0.497300	0.291000
C11	C1	0.945000	0.873400	0.753400
C21	C2	0.502000	0.492400	0.651700
C31	C3	0.742000	0.596600	0.376300
C41	C4	0.057000	0.705600	0.616400
C51	C5	0.167000	0.635400	0.595800
C61	C6	0.020000	0.653000	0.542800
C71	C7	0.034000	0.750100	0.651600
C81	C8	0.943000	0.778000	0.642800
C91	C9	0.916000	0.817100	0.678000
C101	C10	0.984000	0.832000	0.717400
C111	C11	0.075000	0.804200	0.724900
C121	C12	0.102000	0.764900	0.691100
C131	C13	0.254000	0.600000	0.606000
C141	C14	0.300000	0.606100	0.654100
C151	C15	0.382000	0.572700	0.666500
C161	C16	0.408000	0.533800	0.631000
C171	C17	0.356000	0.528100	0.584400
C181	C18	0.275000	0.561100	0.571000
C191	C19	0.941000	0.641900	0.502000
C201	C20	0.956000	0.595100	0.474700
C211	C21	0.893000	0.582900	0.432500
C221	C22	0.811000	0.615400	0.418600
C231	C23	0.797000	0.661200	0.446200
C241	C24	0.863000	0.675900	0.486200
C251	C25	0.945000	0.126600	0.246600
C261	C26	0.502000	0.507600	0.348300
C271	C27	0.742000	0.403400	0.623700
C281	C28	0.057000	0.294400	0.383600
C291	C29	0.167000	0.364600	0.404200
C301	C30	0.020000	0.347000	0.457200
C311	C31	0.034000	0.249900	0.348400
C321	C32	0.943000	0.222000	0.357200
C331	C33	0.916000	0.182900	0.322000
C341	C34	0.984000	0.168000	0.282600
C351	C35	0.075000	0.195800	0.275100
C361	C36	0.102000	0.235100	0.308900
C371	C37	0.254000	0.400000	0.394000
C381	C38	0.300000	0.393900	0.345900
C391	C39	0.382000	0.427300	0.333500
C401	C40	0.408000	0.466200	0.369000
C411	C41	0.356000	0.471900	0.415600
C421	C42	0.275000	0.438900	0.429000
C431	C43	0.941000	0.358100	0.498000
C441	C44	0.956000	0.404900	0.525300
C451	C45	0.893000	0.417100	0.567500
C461	C46	0.811000	0.384600	0.581400
C471	C47	0.797000	0.338800	0.553800
C481	C48	0.863000	0.324100	0.513800
C491	C49	0.445000	0.746600	0.373400
C501	C50	0.002000	0.848300	0.992400
C511	C51	0.242000	0.123700	0.096600
C521	C52	0.557000	0.883600	0.205600
C531	C53	0.667000	0.904200	0.135400
C541	C54	0.520000	0.957200	0.153000
C551	C55	0.534000	0.848400	0.250100
C561	C56	0.443000	0.857200	0.278000
C571	C57	0.416000	0.822000	0.317100
C581	C58	0.484000	0.782600	0.332000
C591	C59	0.575000	0.775100	0.304200
C601	C60	0.602000	0.808900	0.264900
C611	C61	0.754000	0.894000	0.100000
C621	C62	0.800000	0.845900	0.106100
C631	C63	0.882000	0.833500	0.072700
C641	C64	0.908000	0.869000	0.033800
C651	C65	0.856000	0.915600	0.028100
C661	C66	0.775000	0.929000	0.061100
C671	C67	0.441000	0.998000	0.141900
C681	C68	0.456000	0.025300	0.095100
C691	C69	0.393000	0.067500	0.082900
C701	C70	0.311000	0.081400	0.115400
C711	C71	0.297000	0.053800	0.161200
C721	C72	0.363000	0.013800	0.175900
C731	C73	0.445000	0.253400	0.626600
C741	C74	0.002000	0.151700	0.007600
C751	C75	0.242000	0.876300	0.903400
C761	C76	0.557000	0.116400	0.794400
C771	C77	0.667000	0.095800	0.864600
C781	C78	0.520000	0.042800	0.847000
C791	C79	0.534000	0.151600	0.749900
C801	C80	0.443000	0.142800	0.722000
C811	C81	0.416000	0.178000	0.682900
C821	C82	0.484000	0.217400	0.668000
C831	C83	0.575000	0.224900	0.695800
C841	C84	0.602000	0.191100	0.735100
C851	C85	0.754000	0.106000	0.900000
C861	C86	0.800000	0.154100	0.893900
C871	C87	0.882000	0.166500	0.927300
C881	C88	0.908000	0.131000	0.966200
C891	C89	0.856000	0.084400	0.971900
C901	C90	0.775000	0.071000	0.938900
C911	C91	0.441000	0.002000	0.858100
C921	C92	0.456000	0.974700	0.904900
C931	C93	0.393000	0.932500	0.917100
C941	C94	0.311000	0.918600	0.884600
C951	C95	0.297000	0.946200	0.838800
C961	C96	0.363000	0.986200	0.824100
C971	C97	0.555000	0.626600	0.253400
C981	C98	0.998000	0.007600	0.151700
C991	C99	0.758000	0.903400	0.876300
C1001	C100	0.443000	0.794400	0.116400
C1011	C101	0.333000	0.864600	0.095800
C1021	C102	0.480000	0.847000	0.042800
C1031	C103	0.466000	0.749900	0.151600
C1041	C104	0.557000	0.722000	0.142800
C1051	C105	0.584000	0.682900	0.178000
C1061	C106	0.516000	0.668000	0.217400
C1071	C107	0.425000	0.695800	0.224900
C1081	C108	0.398000	0.735100	0.191100
C1091	C109	0.246000	0.900000	0.106000
C1101	C110	0.200000	0.893900	0.154100
C1111	C111	0.118000	0.927300	0.166500
C1121	C112	0.092000	0.966200	0.131000
C1131	C113	0.144000	0.971900	0.084400
C1141	C114	0.225000	0.938900	0.071000
C1151	C115	0.559000	0.858100	0.002000
C1161	C116	0.544000	0.904900	0.974700
C1171	C117	0.607000	0.917100	0.932500
C1181	C118	0.689000	0.884600	0.918600
C1191	C119	0.703000	0.838800	0.946200
C1201	C120	0.637000	0.824100	0.986200
C1211	C121	0.555000	0.373400	0.746600
C1221	C122	0.998000	0.992400	0.848300
C1231	C123	0.758000	0.096600	0.123700
C1241	C124	0.443000	0.205600	0.883600
C1251	C125	0.333000	0.135400	0.904200
C1261	C126	0.480000	0.153000	0.957200
C1271	C127	0.466000	0.250100	0.848400
C1281	C128	0.557000	0.278000	0.857200
C1291	C129	0.584000	0.317100	0.822000
C1301	C130	0.516000	0.332000	0.782600
C1311	C131	0.425000	0.304200	0.775100
C1321	C132	0.398000	0.264900	0.808900
C1331	C133	0.246000	0.100000	0.894000
C1341	C134	0.200000	0.106100	0.845900
C1351	C135	0.118000	0.072700	0.833500
C1361	C136	0.092000	0.033800	0.869000
C1371	C137	0.144000	0.028100	0.915600
C1381	C138	0.225000	0.061100	0.929000
C1391	C139	0.559000	0.141900	0.998000
C1401	C140	0.544000	0.095100	0.025300
C1411	C141	0.607000	0.082900	0.067500
C1421	C142	0.689000	0.115400	0.081400
C1431	C143	0.703000	0.161200	0.053800
C1441	C144	0.637000	0.175900	0.013800
C1451	C145	0.055000	0.753400	0.873400
C1461	C146	0.498000	0.651700	0.492400
C1471	C147	0.258000	0.376300	0.596600
C1481	C148	0.943000	0.616400	0.705600
C1491	C149	0.833000	0.595800	0.635400
C1501	C150	0.980000	0.542800	0.653000
C1511	C151	0.966000	0.651600	0.750100
C1521	C152	0.057000	0.642800	0.778000
C1531	C153	0.084000	0.678000	0.817100
C1541	C154	0.016000	0.717400	0.832000
C1551	C155	0.925000	0.724900	0.804200
C1561	C156	0.898000	0.691100	0.764900
C1571	C157	0.746000	0.606000	0.600000
C1581	C158	0.700000	0.654100	0.606100
C1591	C159	0.618000	0.666500	0.572700
C1601	C160	0.592000	0.631000	0.533800
C1611	C161	0.644000	0.584400	0.528100
C1621	C162	0.725000	0.571000	0.561100
C1631	C163	0.059000	0.502000	0.641900
C1641	C164	0.044000	0.474700	0.595100
C1651	C165	0.107000	0.432500	0.582900
C1661	C166	0.189000	0.418600	0.615400
C1671	C167	0.203000	0.446200	0.661200
C1681	C168	0.137000	0.486200	0.675900
C1691	C169	0.055000	0.246600	0.126600
C1701	C170	0.498000	0.348300	0.507600
C1711	C171	0.258000	0.623700	0.403400
C1721	C172	0.943000	0.383600	0.294400
C1731	C173	0.833000	0.404200	0.364600
C1741	C174	0.980000	0.457200	0.347000
C1751	C175	0.966000	0.348400	0.249900
C1761	C176	0.057000	0.357200	0.222000
C1771	C177	0.084000	0.322000	0.182900
C1781	C178	0.016000	0.282600	0.168000
C1791	C179	0.925000	0.275100	0.195800
C1801	C180	0.898000	0.308900	0.235100
C1811	C181	0.746000	0.394000	0.400000
C1821	C182	0.700000	0.345900	0.393900
C1831	C183	0.618000	0.333500	0.427300
C1841	C184	0.592000	0.369000	0.466200
C1851	C185	0.644000	0.415600	0.471900
C1861	C186	0.725000	0.429000	0.438900
C1871	C187	0.059000	0.498000	0.358100
C1881	C188	0.044000	0.525300	0.404900
C1891	C189	0.107000	0.567500	0.417100
C1901	C190	0.189000	0.581400	0.384600
C1911	C191	0.203000	0.553800	0.338800
C1921	C192	0.137000	0.513800	0.324100
N11	N1	0.993300	0.693900	0.574300
N21	N2	0.138000	0.673500	0.630700
N31	N3	0.103000	0.621200	0.555700
N41	N4	0.993300	0.306100	0.425700
N51	N5	0.138000	0.326500	0.369300
N61	N6	0.103000	0.378800	0.444300
N71	N7	0.493300	0.925700	0.193900
N81	N8	0.638000	0.869300	0.173500
N91	N9	0.603000	0.944300	0.121200
N101	N10	0.493300	0.074300	0.806100
N111	N11	0.638000	0.130700	0.826500
N121	N12	0.603000	0.055700	0.878800
N131	N13	0.506700	0.806100	0.074300
N141	N14	0.362000	0.826500	0.130700
N151	N15	0.397000	0.878800	0.055700
N161	N16	0.506700	0.193900	0.925700
N171	N17	0.362000	0.173500	0.869300
N181	N18	0.397000	0.121200	0.944300
N191	N19	0.006700	0.574300	0.693900
N201	N20	0.862000	0.630700	0.673500
N211	N21	0.897000	0.555700	0.621200
N221	N22	0.006700	0.425700	0.306100
N231	N23	0.862000	0.369300	0.326500
N241	N24	0.897000	0.444300	0.378800
O11	O1	0.007300	0.877700	0.793600
O21	O2	0.869500	0.902100	0.744300
O31	O3	0.502800	0.457500	0.622300
O41	O4	0.554600	0.505000	0.687600
O51	O5	0.758600	0.561900	0.347800
O61	O6	0.665500	0.629800	0.372400
O71	O7	0.007300	0.122300	0.206400
O81	O8	0.869500	0.097900	0.255700
O91	O9	0.502800	0.542500	0.377700
O101	O10	0.554600	0.495000	0.312400
O111	O11	0.758600	0.438100	0.652200
O121	O12	0.665500	0.370200	0.627600
O131	O13	0.507300	0.706400	0.377700
O141	O14	0.369500	0.755700	0.402100
O151	O15	0.002800	0.877700	0.957500
O161	O16	0.054600	0.812400	0.005000
O171	O17	0.258600	0.152200	0.061900
O181	O18	0.165500	0.127600	0.129800
O191	O19	0.507300	0.293600	0.622300
O201	O20	0.369500	0.244300	0.597900
O211	O21	0.002800	0.122300	0.042500
O221	O22	0.054600	0.187600	0.995000
O231	O23	0.258600	0.847800	0.938100
O241	O24	0.165500	0.872400	0.870200
O251	O25	0.492700	0.622300	0.293600
O261	O26	0.630500	0.597900	0.244300
O271	O27	0.997200	0.042500	0.122300
O281	O28	0.945400	0.995000	0.187600
O291	O29	0.741400	0.938100	0.847800
O301	O30	0.834500	0.870200	0.872400
O311	O31	0.492700	0.377700	0.706400
O321	O32	0.630500	0.402100	0.755700
O331	O33	0.997200	0.957500	0.877700
O341	O34	0.945400	0.005000	0.812400
O351	O35	0.741400	0.061900	0.152200
O361	O36	0.834500	0.129800	0.127600
O371	O37	0.992700	0.793600	0.877700
O381	O38	0.130500	0.744300	0.902100
O391	O39	0.497200	0.622300	0.457500
O401	O40	0.445400	0.687600	0.505000
O411	O41	0.241400	0.347800	0.561900
O421	O42	0.334500	0.372400	0.629800
O431	O43	0.992700	0.206400	0.122300
O441	O44	0.130500	0.255700	0.097900
O451	O45	0.497200	0.377700	0.542500
O461	O46	0.445400	0.312400	0.495000
O471	O47	0.241400	0.652200	0.438100
O481	O48	0.334500	0.627600	0.370200
