data_MIDSEZ_clean_PM
_symmetry_space_group_name_H-M	'P1'
_cell_length_a	9.011600
_cell_length_b	9.340100
_cell_length_c	23.211000
_cell_angle_alpha	93.927100
_cell_angle_beta	95.296800
_cell_angle_gamma	105.618000
_symmetry_Int_Tables_number 1

loop_
_symmetry_equiv_pos_as_xyz
'x,y,z'

loop_
_atom_site_label
_atom_site_type_symbol
_atom_site_fract_x
_atom_site_fract_y
_atom_site_fract_z
Ni11	Ni1	0.196960	0.295710	0.780900
Ni21	Ni2	0.198180	0.555550	0.786870
Ni31	Ni3	0.802850	0.491290	0.296550
Ni41	Ni4	0.791140	0.747820	0.309980
H11	H1	0.221650	0.780150	0.690880
H21	H2	0.574540	0.364180	0.441010
H31	H3	0.984500	0.743320	0.820820
H41	H4	0.011020	0.179130	0.625250
H51	H5	0.205000	0.041420	0.685280
H61	H6	0.021890	0.318030	0.365990
H71	H7	0.722520	0.428710	0.118530
H81	H8	0.999680	0.383310	0.170650
H91	H9	0.434730	0.115360	0.759930
H101	H10	0.109940	0.879520	0.167660
H111	H11	0.855870	0.860890	0.512220
H121	H12	0.413080	0.792800	0.045950
H131	H13	0.408330	0.872290	0.843950
H141	H14	0.580630	0.187720	0.256860
H151	H15	0.595510	0.937710	0.341270
H161	H16	0.153970	0.851540	0.056780
H171	H17	0.675600	0.340750	0.901000
H181	H18	0.585240	0.912000	0.259300
H191	H19	0.235350	0.625530	0.597750
H201	H20	0.012860	0.258660	0.519190
H211	H21	0.563940	0.261410	0.541010
H221	H22	0.406170	0.126360	0.836400
H231	H23	0.115030	0.703980	0.966290
H241	H24	0.131900	0.228670	0.970200
H251	H25	0.026900	0.054040	0.370900
H261	H26	0.996200	0.982810	0.704710
H271	H27	0.794800	0.227780	0.215560
H281	H28	0.128740	0.077290	0.866430
H291	H29	0.779620	0.958960	0.214230
H301	H30	0.455080	0.271550	0.644420
H311	H31	0.813860	0.560060	0.675800
H321	H32	0.757940	0.347890	0.009960
H331	H33	0.003640	0.268860	0.252650
H341	H34	0.795580	0.741790	0.609810
H351	H35	0.066280	0.227330	0.078000
H361	H36	0.990490	0.014280	0.247450
H371	H37	0.434480	0.851240	0.761960
H381	H38	0.252010	0.727930	0.497060
H391	H39	0.467350	0.760690	0.157010
H401	H40	0.152660	0.821610	0.875520
H411	H41	0.577390	0.191480	0.336740
H421	H42	0.845680	0.264820	0.404820
H431	H43	0.989150	0.453190	0.452450
H441	H44	0.376820	0.733710	0.397190
H451	H45	0.416300	0.684890	0.938460
H461	H46	0.022480	0.724960	0.709390
H471	H47	0.966800	0.001810	0.805070
H481	H48	0.836590	0.007780	0.398740
C11	C1	0.354040	0.054110	0.792480
C21	C2	0.952370	0.366410	0.721660
C31	C3	0.084550	0.475610	0.086690
C41	C4	0.644680	0.160790	0.298850
C51	C5	0.666350	0.512020	0.098530
C61	C6	0.138770	0.813350	0.721290
C71	C7	0.842340	0.482180	0.640900
C81	C8	0.658920	0.605880	0.203220
C91	C9	0.055040	0.487560	0.147470
C101	C10	0.135000	0.434700	0.894670
C111	C11	0.695850	0.435300	0.993300
C121	C12	0.343060	0.446530	0.622160
C131	C13	0.899010	0.234140	0.363970
C141	C14	0.915090	0.649870	0.471170
C151	C15	0.309380	0.547190	0.584010
C161	C16	0.326970	0.648580	0.485310
C171	C17	0.956110	0.312160	0.554910
C181	C18	0.503930	0.441750	0.456830
C191	C19	0.066510	0.630950	0.176270
C201	C20	0.100180	0.761450	0.144210
C211	C21	0.626590	0.512480	0.037240
C221	C22	0.292590	0.447130	0.684070
C231	C23	0.486900	0.712590	0.061920
C241	C24	0.116940	0.455070	0.960340
C251	C25	0.870800	0.743530	0.518930
C261	C26	0.844980	0.527920	0.582620
C271	C27	0.101610	0.836820	0.829370
C281	C28	0.925930	0.672240	0.407100
C291	C29	0.012350	0.645780	0.235980
C301	C30	0.530810	0.511260	0.913620
C311	C31	0.491390	0.609770	0.956340
C321	C32	0.433120	0.344430	0.609470
C331	C33	0.362740	0.887550	0.796820
C341	C34	0.952840	0.272080	0.611790
C351	C35	0.453070	0.437590	0.514950
C361	C36	0.646760	0.986830	0.300790
C371	C37	0.467990	0.538050	0.416210
C381	C38	0.938530	0.511500	0.485860
C391	C39	0.874120	0.203940	0.254130
C401	C40	0.915550	0.451820	0.540470
C411	C41	0.089500	0.337740	0.055950
C421	C42	0.444980	0.491690	0.848780
C431	C43	0.556480	0.565090	0.362190
C441	C44	0.912290	0.365350	0.656770
C451	C45	0.102520	0.601530	0.051990
C461	C46	0.830370	0.677080	0.570030
C471	C47	0.870040	0.035230	0.250330
C481	C48	0.123890	0.978440	0.717020
C491	C49	0.091270	0.001580	0.822930
C501	C50	0.105650	0.594010	0.988140
C511	C51	0.358450	0.541890	0.526850
C521	C52	0.635720	0.416770	0.934430
C531	C53	0.119840	0.746130	0.084330
C541	C54	0.617910	0.609540	0.139410
C551	C55	0.536990	0.617230	0.018960
C561	C56	0.120660	0.333590	0.996720
C571	C57	0.523150	0.708250	0.121410
C581	C58	0.387130	0.651110	0.431110
C591	C59	0.902430	0.065810	0.363270
C601	C60	0.492850	0.341460	0.556210
N11	N1	0.189730	0.071120	0.777180
N21	N2	0.809550	0.260840	0.307310
N31	N3	0.816450	0.976160	0.305650
N41	N4	0.197340	0.786540	0.783280
O11	O1	0.418720	0.361150	0.818330
O21	O2	0.292580	0.577950	0.709860
O31	O3	0.897910	0.791300	0.382950
O41	O4	0.974980	0.504410	0.252690
O51	O5	0.662780	0.477210	0.221710
O61	O6	0.670270	0.730850	0.237130
O71	O7	0.403530	0.611820	0.829570
O81	O8	0.940240	0.556860	0.376370
O91	O9	0.165930	0.308960	0.873100
O101	O10	0.978090	0.497310	0.754270
O111	O11	0.983680	0.762450	0.259040
O121	O12	0.577800	0.700570	0.345820
O131	O13	0.273700	0.315900	0.705010
O141	O14	0.130840	0.549610	0.865860
O151	O15	0.617350	0.459820	0.339800
O161	O16	0.976960	0.246400	0.746320
