data_MIDSUP01_clean_PM
_symmetry_space_group_name_H-M	'P1'
_cell_length_a	9.434400
_cell_length_b	18.517400
_cell_length_c	18.517400
_cell_angle_alpha	90.000000
_cell_angle_beta	90.000000
_cell_angle_gamma	90.000000
_symmetry_Int_Tables_number 1

loop_
_symmetry_equiv_pos_as_xyz
'x,y,z'

loop_
_atom_site_label
_atom_site_type_symbol
_atom_site_fract_x
_atom_site_fract_y
_atom_site_fract_z
Ni11	Ni1	0.692200	0.248370	0.252490
Ni21	Ni2	0.433850	0.247330	0.253400
Ni31	Ni3	0.308200	0.748580	0.752570
Ni41	Ni4	0.566810	0.747170	0.753500
H11	H1	0.190500	0.498210	0.489730
H21	H2	0.811510	0.999470	0.517800
H31	H3	0.183770	0.216540	0.139280
H41	H4	0.331290	0.092310	0.094490
H51	H5	0.795780	0.399140	0.092070
H61	H6	0.053060	0.832430	0.672810
H71	H7	0.056830	0.772090	0.863800
H81	H8	0.059060	0.636150	0.715840
H91	H9	0.197630	0.001010	0.492330
H101	H10	0.803490	0.099560	0.416980
H111	H11	0.797300	0.794140	0.857970
H121	H12	0.816990	0.715280	0.639180
H131	H13	0.190130	0.499340	0.018160
H141	H14	0.919580	0.149600	0.314710
H151	H15	0.206200	0.899270	0.592780
H161	H16	0.794480	0.814160	0.656770
H171	H17	0.202790	0.293210	0.358940
H181	H18	0.817610	0.858120	0.780230
H191	H19	0.326310	0.414120	0.103700
H201	H20	0.333350	0.086870	0.407630
H211	H21	0.197600	0.599660	0.917540
H221	H22	0.203800	0.129610	0.239310
H231	H23	0.921210	0.241340	0.133870
H241	H24	0.804560	0.504910	0.511160
H251	H25	0.810010	0.997970	0.990160
H261	H26	0.821980	0.664710	0.833720
H271	H27	0.178210	0.164410	0.333540
H281	H28	0.195650	0.004830	0.010980
H291	H29	0.803810	0.500870	0.992020
H301	H30	0.801390	0.097290	0.092480
H311	H31	0.673500	0.908970	0.907570
H321	H32	0.183240	0.358020	0.281860
H331	H33	0.796730	0.629330	0.739700
H341	H34	0.668710	0.592320	0.594750
H351	H35	0.205850	0.315290	0.157850
H361	H36	0.941750	0.136700	0.215140
H371	H37	0.201530	0.903560	0.911070
H381	H38	0.077090	0.851970	0.802370
H391	H39	0.675850	0.914570	0.603810
H401	H40	0.947370	0.333310	0.173840
H411	H41	0.667800	0.587010	0.907640
H421	H42	0.799000	0.403790	0.411240
H431	H43	0.942830	0.271740	0.364280
H441	H44	0.080720	0.650010	0.815300
H451	H45	0.327190	0.409500	0.407000
H461	H46	0.923590	0.351890	0.303120
H471	H47	0.198610	0.597200	0.592530
H481	H48	0.079530	0.740110	0.633750
C11	C1	0.434490	0.069220	0.069770
C21	C2	0.020080	0.796830	0.809220
C31	C3	0.702070	0.072560	0.439250
C41	C4	0.703350	0.018470	0.013420
C51	C5	0.978800	0.170950	0.264130
C61	C6	0.144360	0.172510	0.273910
C71	C7	0.019300	0.772480	0.678050
C81	C8	0.435770	0.653060	0.850270
C91	C9	0.856080	0.672460	0.774070
C101	C10	0.296450	0.519340	0.994100
C111	C11	0.021690	0.670830	0.764460
C121	C12	0.561960	0.344550	0.348580
C131	C13	0.562130	0.403260	0.405800
C141	C14	0.981180	0.273290	0.178560
C151	C15	0.146750	0.263540	0.176300
C161	C16	0.705030	0.019380	0.493860
C171	C17	0.428830	0.488310	0.020950
C181	C18	0.299850	0.571800	0.568000
C191	C19	0.571860	0.934300	0.577270
C201	C20	0.429920	0.434120	0.077100
C211	C21	0.569510	0.931780	0.931530
C221	C22	0.560860	0.345050	0.158130
C231	C23	0.565140	0.097010	0.096330
C241	C24	0.697820	0.481370	0.016800
C251	C25	0.440240	0.845170	0.658290
C261	C26	0.565140	0.153010	0.350140
C271	C27	0.433830	0.596420	0.909430
C281	C28	0.854640	0.802800	0.803180
C291	C29	0.572730	0.988440	0.521010
C301	C30	0.145740	0.302520	0.304170
C311	C31	0.853770	0.762670	0.675740
C321	C32	0.429680	0.488200	0.485600
C331	C33	0.567370	0.096150	0.409050
C341	C34	0.436100	0.012900	0.490670
C351	C35	0.564380	0.566900	0.934440
C361	C36	0.437130	0.653570	0.655540
C371	C37	0.698790	0.483820	0.487470
C381	C38	0.441200	0.904010	0.601310
C391	C39	0.560580	0.403890	0.101150
C401	C40	0.565590	0.569330	0.569900
C411	C41	0.980220	0.296660	0.309890
C421	C42	0.303640	0.981550	0.517110
C431	C43	0.695080	0.427480	0.070690
C441	C44	0.562910	0.153350	0.155580
C451	C45	0.306590	0.927640	0.571020
C461	C46	0.570740	0.987920	0.985850
C471	C47	0.303740	0.929170	0.934110
C481	C48	0.433940	0.014010	0.014680
C491	C49	0.438370	0.844180	0.848880
C501	C50	0.301440	0.983640	0.987410
C511	C51	0.297050	0.518690	0.513210
C521	C52	0.438480	0.902790	0.906160
C531	C53	0.700300	0.071710	0.068060
C541	C54	0.299250	0.572810	0.939770
C551	C55	0.696710	0.429480	0.434010
C561	C56	0.431080	0.432240	0.431070
C571	C57	0.436900	0.066680	0.434230
C581	C58	0.565360	0.512870	0.990640
C591	C59	0.434840	0.597170	0.596360
C601	C60	0.566230	0.514200	0.514710
N11	N1	0.078070	0.747040	0.750600
N21	N2	0.922370	0.247190	0.250850
N31	N3	0.203370	0.246050	0.251720
N41	N4	0.797090	0.745830	0.751300
O11	O1	0.686850	0.166440	0.187170
O21	O2	0.440820	0.164580	0.318350
O31	O3	0.437960	0.183520	0.170060
O41	O4	0.562290	0.683430	0.670150
O51	O5	0.688150	0.185680	0.336580
O61	O6	0.561110	0.811050	0.836730
O71	O7	0.313050	0.666960	0.686950
O81	O8	0.312720	0.685490	0.836500
O91	O9	0.437900	0.331630	0.190810
O101	O10	0.685190	0.331720	0.316090
O111	O11	0.684610	0.312560	0.169400
O121	O12	0.560060	0.664580	0.818430
O131	O13	0.438860	0.311690	0.336490
O141	O14	0.315120	0.831890	0.816220
O151	O15	0.316120	0.813030	0.669580
O161	O16	0.563150	0.831480	0.690940
