data_MIFGEP01_clean_PM
_symmetry_space_group_name_H-M	'P1'
_cell_length_a	8.986000
_cell_length_b	14.915000
_cell_length_c	26.759000
_cell_angle_alpha	96.272000
_cell_angle_beta	90.000000
_cell_angle_gamma	90.000000
_symmetry_Int_Tables_number 1

loop_
_symmetry_equiv_pos_as_xyz
'x,y,z'

loop_
_atom_site_label
_atom_site_type_symbol
_atom_site_fract_x
_atom_site_fract_y
_atom_site_fract_z
Cd11	Cd1	0.812240	0.558840	0.858520
Cd21	Cd2	0.687760	0.058840	0.358520
H11	H1	0.402100	0.682300	0.975000
H21	H2	0.257500	0.798200	0.012500
H31	H3	0.465200	0.970900	0.930800
H41	H4	0.608400	0.853800	0.893200
H51	H5	0.231600	0.921600	0.068200
H61	H6	0.031900	0.161600	0.065800
H71	H7	0.255600	0.051200	0.944700
H81	H8	0.229700	0.971200	0.156400
H91	H9	0.125200	0.964900	0.234500
H101	H10	0.758700	0.086800	0.190700
H111	H11	0.863200	0.095900	0.113300
H121	H12	0.091500	0.291000	0.035500
H131	H13	0.076800	0.131600	0.904900
H141	H14	0.997000	0.408800	0.995900
H151	H15	0.982200	0.249100	0.865500
H161	H16	0.097900	0.182300	0.475000
H171	H17	0.242500	0.298200	0.512500
H181	H18	0.034800	0.470900	0.430800
H191	H19	0.891600	0.353800	0.393200
H201	H20	0.268400	0.421600	0.568200
H211	H21	0.468100	0.661600	0.565800
H221	H22	0.244400	0.551200	0.444700
H231	H23	0.270300	0.471200	0.656400
H241	H24	0.374800	0.464900	0.734500
H251	H25	0.741300	0.586800	0.690700
H261	H26	0.636800	0.595900	0.613300
H271	H27	0.408500	0.791000	0.535500
H281	H28	0.423200	0.631600	0.404900
H291	H29	0.503000	0.908800	0.495900
H301	H30	0.517800	0.749100	0.365500
C11	C1	0.521700	0.756250	0.930960
C21	C2	0.415500	0.740500	0.966300
C31	C3	0.328800	0.810070	0.988910
C41	C4	0.347500	0.897830	0.976590
C51	C5	0.452700	0.913070	0.940080
C61	C6	0.538800	0.842810	0.917490
C71	C7	0.257800	0.973990	0.002410
C81	C8	0.207700	0.970960	0.051240
C91	C9	0.121500	0.041010	0.075480
C101	C10	0.088500	0.114700	0.049920
C111	C11	0.138200	0.120040	0.001000
C121	C12	0.222500	0.048810	0.977440
C131	C13	0.058600	0.035600	0.126140
C141	C14	0.135500	0.995310	0.163200
C151	C15	0.072200	0.991060	0.210030
C161	C16	0.931100	0.025190	0.220950
C171	C17	0.853900	0.064050	0.184020
C181	C18	0.916600	0.069330	0.137600
C191	C19	0.091300	0.197590	0.974700
C201	C20	0.068600	0.282040	0.001420
C211	C21	0.059700	0.187020	0.923510
C221	C22	0.012000	0.352870	0.977570
C231	C23	0.977800	0.341160	0.926840
C241	C24	0.003200	0.257570	0.899680
C251	C25	0.918200	0.417150	0.901300
C261	C26	0.861000	0.023790	0.272090
C271	C27	0.619900	0.682000	0.907040
C281	C28	0.978300	0.256250	0.430960
C291	C29	0.084500	0.240500	0.466300
C301	C30	0.171200	0.310070	0.488910
C311	C31	0.152500	0.397830	0.476590
C321	C32	0.047300	0.413070	0.440080
C331	C33	0.961200	0.342810	0.417490
C341	C34	0.242200	0.473990	0.502410
C351	C35	0.292300	0.470960	0.551240
C361	C36	0.378500	0.541010	0.575480
C371	C37	0.411500	0.614700	0.549920
C381	C38	0.361800	0.620040	0.501000
C391	C39	0.277500	0.548810	0.477440
C401	C40	0.441400	0.535600	0.626140
C411	C41	0.364500	0.495310	0.663200
C421	C42	0.427800	0.491060	0.710030
C431	C43	0.568900	0.525190	0.720950
C441	C44	0.646100	0.564050	0.684020
C451	C45	0.583400	0.569330	0.637600
C461	C46	0.408700	0.697590	0.474700
C471	C47	0.431400	0.782040	0.501420
C481	C48	0.440300	0.687020	0.423510
C491	C49	0.488000	0.852870	0.477570
C501	C50	0.522200	0.841160	0.426840
C511	C51	0.496800	0.757570	0.399680
C521	C52	0.581800	0.917150	0.401300
C531	C53	0.639000	0.523790	0.772090
C541	C54	0.880100	0.182000	0.407040
O11	O1	0.721400	0.700720	0.878320
O21	O2	0.597000	0.601820	0.917190
O31	O3	0.931900	0.995820	0.306370
O41	O4	0.730300	0.054060	0.276930
O51	O5	0.883600	0.404980	0.856150
O61	O6	0.903700	0.493420	0.926250
O71	O7	0.778600	0.200720	0.378320
O81	O8	0.903000	0.101820	0.417190
O91	O9	0.568100	0.495820	0.806370
O101	O10	0.769700	0.554060	0.776930
O111	O11	0.616400	0.904980	0.356150
O121	O12	0.596300	0.993420	0.426250
Cd31	Cd3	0.312240	0.941160	0.641480
Cd41	Cd4	0.187760	0.441160	0.141490
H311	H31	0.902100	0.817700	0.525000
H321	H32	0.757500	0.701800	0.487500
H331	H33	0.965200	0.529100	0.569200
H341	H34	0.108400	0.646200	0.606800
H351	H35	0.731600	0.578400	0.431800
H361	H36	0.531900	0.338400	0.434200
H371	H37	0.755600	0.448800	0.555300
H381	H38	0.729700	0.528800	0.343600
H391	H39	0.625200	0.535100	0.265500
H401	H40	0.258700	0.413200	0.309300
H411	H41	0.363200	0.404100	0.386700
H421	H42	0.591500	0.209000	0.464500
H431	H43	0.576800	0.368400	0.595100
H441	H44	0.497000	0.091200	0.504100
H451	H45	0.482200	0.250900	0.634500
H461	H46	0.597900	0.317700	0.025000
H471	H47	0.742500	0.201800	0.987500
H481	H48	0.534800	0.029100	0.069200
H491	H49	0.391600	0.146200	0.106800
H501	H50	0.768400	0.078400	0.931800
H511	H51	0.968100	0.838400	0.934200
H521	H52	0.744400	0.948800	0.055300
H531	H53	0.770300	0.028800	0.843600
H541	H54	0.874800	0.035100	0.765500
H551	H55	0.241300	0.913200	0.809300
H561	H56	0.136800	0.904100	0.886700
H571	H57	0.908500	0.709000	0.964500
H581	H58	0.923200	0.868400	0.095100
H591	H59	0.003000	0.591200	0.004100
H601	H60	0.017800	0.750900	0.134500
C551	C55	0.021700	0.743750	0.569040
C561	C56	0.915500	0.759500	0.533700
C571	C57	0.828800	0.689930	0.511090
C581	C58	0.847500	0.602170	0.523410
C591	C59	0.952700	0.586930	0.559920
C601	C60	0.038800	0.657190	0.582510
C611	C61	0.757800	0.526010	0.497590
C621	C62	0.707700	0.529040	0.448760
C631	C63	0.621500	0.458990	0.424520
C641	C64	0.588500	0.385300	0.450080
C651	C65	0.638200	0.379960	0.499000
C661	C66	0.722500	0.451190	0.522560
C671	C67	0.558600	0.464400	0.373860
C681	C68	0.635500	0.504690	0.336800
C691	C69	0.572200	0.508940	0.289970
C701	C70	0.431100	0.474810	0.279050
C711	C71	0.353900	0.435950	0.315980
C721	C72	0.416600	0.430670	0.362400
C731	C73	0.591300	0.302410	0.525300
C741	C74	0.568600	0.217960	0.498580
C751	C75	0.559700	0.312980	0.576490
C761	C76	0.512000	0.147130	0.522430
C771	C77	0.477800	0.158840	0.573160
C781	C78	0.503200	0.242430	0.600320
C791	C79	0.418200	0.082850	0.598700
C801	C80	0.361000	0.476210	0.227910
C811	C81	0.119900	0.818000	0.592960
C821	C82	0.478300	0.243750	0.069040
C831	C83	0.584500	0.259500	0.033700
C841	C84	0.671200	0.189930	0.011090
C851	C85	0.652500	0.102170	0.023410
C861	C86	0.547300	0.086930	0.059920
C871	C87	0.461200	0.157190	0.082510
C881	C88	0.742200	0.026010	0.997590
C891	C89	0.792300	0.029040	0.948760
C901	C90	0.878500	0.958990	0.924520
C911	C91	0.911500	0.885300	0.950080
C921	C92	0.861800	0.879960	0.999000
C931	C93	0.777500	0.951190	0.022560
C941	C94	0.941400	0.964400	0.873860
C951	C95	0.864500	0.004690	0.836800
C961	C96	0.927800	0.008940	0.789970
C971	C97	0.068900	0.974810	0.779050
C981	C98	0.146100	0.935950	0.815980
C991	C99	0.083400	0.930670	0.862400
C1001	C100	0.908700	0.802410	0.025300
C1011	C101	0.931400	0.717960	0.998580
C1021	C102	0.940300	0.812980	0.076490
C1031	C103	0.988000	0.647130	0.022430
C1041	C104	0.022200	0.658840	0.073160
C1051	C105	0.996800	0.742430	0.100320
C1061	C106	0.081800	0.582850	0.098700
C1071	C107	0.139000	0.976210	0.727910
C1081	C108	0.380100	0.318000	0.092960
O131	O13	0.221400	0.799280	0.621680
O141	O14	0.097000	0.898180	0.582810
O151	O15	0.431900	0.504180	0.193630
O161	O16	0.230300	0.445940	0.223070
O171	O17	0.383600	0.095020	0.643850
O181	O18	0.403700	0.006580	0.573750
O191	O19	0.278600	0.299280	0.121680
O201	O20	0.403000	0.398180	0.082810
O211	O21	0.068100	0.004180	0.693630
O221	O22	0.269700	0.945940	0.723070
O231	O23	0.116400	0.595020	0.143850
O241	O24	0.096300	0.506580	0.073750
