data_MIFLIY_clean_PM
_symmetry_space_group_name_H-M	'P1'
_cell_length_a	10.757400
_cell_length_b	15.813500
_cell_length_c	17.495700
_cell_angle_alpha	114.107000
_cell_angle_beta	104.093000
_cell_angle_gamma	98.132000
_symmetry_Int_Tables_number 1

loop_
_symmetry_equiv_pos_as_xyz
'x,y,z'

loop_
_atom_site_label
_atom_site_type_symbol
_atom_site_fract_x
_atom_site_fract_y
_atom_site_fract_z
Mg11	Mg1	0.500000	0.000000	0.500000
Mg21	Mg2	0.500000	0.500000	0.500000
H11	H1	0.491600	0.080100	0.961800
H21	H2	0.391200	0.088000	0.833000
H31	H3	0.709700	0.042300	0.755000
H41	H4	0.809900	0.030700	0.882200
H51	H5	0.677100	0.158900	0.099400
H61	H6	0.598800	0.128600	0.240800
H71	H7	0.571900	0.247700	0.365000
H81	H8	0.949900	0.403100	0.439400
H91	H9	0.977300	0.285200	0.314800
H101	H10	0.970200	0.881700	0.961800
H111	H11	0.941800	0.745000	0.833000
H121	H12	0.545300	0.712700	0.755000
H131	H13	0.572300	0.851500	0.882200
H141	H14	0.922300	0.940500	0.099400
H151	H15	0.142000	0.112200	0.240800
H161	H16	0.293100	0.117300	0.365000
H171	H17	0.989500	0.036300	0.439400
H181	H18	0.837500	0.029600	0.314800
H191	H19	0.508400	0.919900	0.038200
H201	H20	0.608800	0.912000	0.167000
H211	H21	0.290300	0.957700	0.245000
H221	H22	0.190100	0.969300	0.117800
H231	H23	0.322900	0.841100	0.900600
H241	H24	0.401200	0.871400	0.759200
H251	H25	0.428100	0.752300	0.635000
H261	H26	0.050100	0.596900	0.560600
H271	H27	0.022700	0.714800	0.685200
H281	H28	0.029800	0.118300	0.038200
H291	H29	0.058200	0.255000	0.167000
H301	H30	0.454700	0.287300	0.245000
H311	H31	0.427700	0.148500	0.117800
H321	H32	0.077700	0.059500	0.900600
H331	H33	0.858000	0.887800	0.759200
H341	H34	0.706900	0.882700	0.635000
H351	H35	0.010500	0.963700	0.560600
H361	H36	0.162500	0.970400	0.685200
C11	C1	0.658520	0.050020	0.935040
C21	C2	0.535260	0.069760	0.918920
C31	C3	0.475540	0.074840	0.842280
C41	C4	0.537330	0.060930	0.778060
C51	C5	0.663560	0.047360	0.795920
C61	C6	0.723810	0.041110	0.872020
C71	C7	0.725440	0.044540	0.017480
C81	C8	0.727830	0.114330	0.099260
C91	C9	0.801290	0.122090	0.181180
C101	C10	0.790750	0.196950	0.264500
C111	C11	0.669880	0.184780	0.280360
C121	C12	0.654450	0.255750	0.354700
C131	C13	0.756870	0.337470	0.413540
C141	C14	0.877870	0.347870	0.398740
C151	C15	0.894140	0.277440	0.324280
C161	C16	0.469120	0.057920	0.690840
C171	C17	0.734980	0.412680	0.490560
C181	C18	0.776520	0.885020	0.935040
C191	C19	0.883660	0.849160	0.918920
C201	C20	0.866740	0.767440	0.842280
C211	C21	0.740730	0.717130	0.778060
C221	C22	0.632360	0.748560	0.795920
C231	C23	0.648210	0.830910	0.872020
C241	C24	0.792040	0.972940	0.017480
C251	C25	0.871430	0.984930	0.099260
C261	C26	0.879890	0.059090	0.181180
C271	C27	0.973750	0.067550	0.264500
C281	C28	0.110480	0.095580	0.280360
C291	C29	0.200250	0.098950	0.354700
C301	C30	0.156670	0.076070	0.413540
C311	C31	0.020870	0.050870	0.398740
C321	C32	0.930140	0.046840	0.324280
C331	C33	0.721720	0.632920	0.690840
C341	C34	0.255580	0.077880	0.490560
C351	C35	0.341480	0.949980	0.064960
C361	C36	0.464740	0.930240	0.081080
C371	C37	0.524460	0.925160	0.157720
C381	C38	0.462670	0.939070	0.221940
C391	C39	0.336440	0.952640	0.204080
C401	C40	0.276190	0.958890	0.127980
C411	C41	0.274560	0.955460	0.982520
C421	C42	0.272170	0.885670	0.900740
C431	C43	0.198710	0.877910	0.818820
C441	C44	0.209250	0.803050	0.735500
C451	C45	0.330120	0.815220	0.719640
C461	C46	0.345550	0.744250	0.645300
C471	C47	0.243130	0.662530	0.586460
C481	C48	0.122130	0.652130	0.601260
C491	C49	0.105860	0.722560	0.675720
C501	C50	0.530880	0.942080	0.309160
C511	C51	0.265020	0.587320	0.509440
C521	C52	0.223480	0.114980	0.064960
C531	C53	0.116340	0.150840	0.081080
C541	C54	0.133260	0.232560	0.157720
C551	C55	0.259270	0.282870	0.221940
C561	C56	0.367640	0.251440	0.204080
C571	C57	0.351790	0.169090	0.127980
C581	C58	0.207960	0.027060	0.982520
C591	C59	0.128570	0.015070	0.900740
C601	C60	0.120110	0.940910	0.818820
C611	C61	0.026250	0.932450	0.735500
C621	C62	0.889520	0.904420	0.719640
C631	C63	0.799750	0.901050	0.645300
C641	C64	0.843330	0.923930	0.586460
C651	C65	0.979130	0.949130	0.601260
C661	C66	0.069860	0.953160	0.675720
C671	C67	0.278280	0.367080	0.309160
C681	C68	0.744420	0.922120	0.509440
O11	O1	0.522560	0.035260	0.632720
O21	O2	0.358110	0.078710	0.683420
O31	O3	0.622530	0.408230	0.496460
O41	O4	0.839740	0.483040	0.547880
O51	O5	0.610160	0.597460	0.632720
O61	O6	0.825310	0.604710	0.683420
O71	O7	0.373930	0.088230	0.496460
O81	O8	0.208140	0.064840	0.547880
O91	O9	0.477440	0.964740	0.367280
O101	O10	0.641890	0.921290	0.316580
O111	O11	0.377470	0.591770	0.503540
O121	O12	0.160260	0.516960	0.452120
O131	O13	0.389840	0.402540	0.367280
O141	O14	0.174690	0.395290	0.316580
O151	O15	0.626070	0.911770	0.503540
O161	O16	0.791860	0.935160	0.452120
