data_MIHLOF_clean_PM
_symmetry_space_group_name_H-M	'P1'
_cell_length_a	9.618700
_cell_length_b	13.893400
_cell_length_c	17.234500
_cell_angle_alpha	98.058000
_cell_angle_beta	90.457000
_cell_angle_gamma	90.599000
_symmetry_Int_Tables_number 1

loop_
_symmetry_equiv_pos_as_xyz
'x,y,z'

loop_
_atom_site_label
_atom_site_type_symbol
_atom_site_fract_x
_atom_site_fract_y
_atom_site_fract_z
Sm11	Sm1	0.770340	0.900450	0.014280
Sm21	Sm2	0.229660	0.099550	0.985720
H11	H1	0.729000	0.751300	0.416600
H21	H2	0.608600	0.764100	0.544900
H31	H3	0.470800	0.517700	0.738200
H41	H4	0.473700	0.336600	0.729100
H51	H5	0.757200	0.056200	0.557800
H61	H6	0.925600	0.051500	0.447500
H71	H7	0.085700	0.306900	0.260600
H81	H8	0.037100	0.478400	0.251600
H91	H9	0.389900	0.706900	0.601600
H101	H10	0.304700	0.837800	0.686300
H111	H11	0.414800	0.887100	0.807800
H121	H12	0.685800	0.665700	0.762000
H131	H13	0.460700	0.107200	0.554800
H141	H14	0.305700	0.017500	0.621200
H151	H15	0.323900	0.024000	0.757300
H161	H16	0.652100	0.209900	0.760600
H171	H17	0.189600	0.138900	0.416400
H181	H18	0.330700	0.035500	0.332000
H191	H19	0.262000	0.987300	0.201500
H201	H20	0.903300	0.134700	0.241800
H211	H21	0.014500	0.733300	0.387600
H221	H22	0.041600	0.851700	0.304900
H231	H23	0.937000	0.831800	0.181800
H241	H24	0.778800	0.572200	0.221600
H251	H25	0.271000	0.248700	0.583400
H261	H26	0.391400	0.235900	0.455100
H271	H27	0.529200	0.482300	0.261800
H281	H28	0.526300	0.663400	0.270900
H291	H29	0.242800	0.943800	0.442200
H301	H30	0.074400	0.948500	0.552500
H311	H31	0.914300	0.693100	0.739400
H321	H32	0.962900	0.521600	0.748400
H331	H33	0.610100	0.293100	0.398400
H341	H34	0.695300	0.162200	0.313700
H351	H35	0.585200	0.112900	0.192200
H361	H36	0.314200	0.334300	0.238000
H371	H37	0.539300	0.892800	0.445200
H381	H38	0.694300	0.982500	0.378800
H391	H39	0.676100	0.976000	0.242700
H401	H40	0.347900	0.790100	0.239400
H411	H41	0.810400	0.861100	0.583600
H421	H42	0.669300	0.964500	0.668000
H431	H43	0.738000	0.012700	0.798500
H441	H44	0.096700	0.865300	0.758200
H451	H45	0.985500	0.266700	0.612400
H461	H46	0.958400	0.148300	0.695100
H471	H47	0.063000	0.168200	0.818200
H481	H48	0.221200	0.427800	0.778400
C11	C1	0.777800	0.604900	0.435300
C21	C2	0.721200	0.702200	0.449500
C31	C3	0.654900	0.708700	0.519000
C41	C4	0.667700	0.615200	0.546700
C51	C5	0.610200	0.593600	0.616700
C61	C6	0.603000	0.500000	0.638800
C71	C7	0.519700	0.474200	0.700800
C81	C8	0.523000	0.374600	0.696500
C91	C9	0.614200	0.338300	0.634000
C101	C10	0.647000	0.240600	0.609800
C111	C11	0.738600	0.208600	0.549000
C121	C12	0.784800	0.109200	0.531900
C131	C13	0.876000	0.106500	0.471400
C141	C14	0.881900	0.203600	0.450900
C151	C15	0.954800	0.228800	0.386100
C161	C16	0.955900	0.321000	0.361600
C171	C17	0.028700	0.348300	0.295200
C181	C18	0.002500	0.442200	0.290300
C191	C19	0.912800	0.478000	0.353900
C201	C20	0.858400	0.571900	0.370200
C211	C21	0.549200	0.674700	0.672000
C221	C22	0.434100	0.725800	0.651000
C231	C23	0.383400	0.803700	0.701300
C241	C24	0.447800	0.832400	0.774000
C251	C25	0.559900	0.780600	0.796600
C261	C26	0.609800	0.701600	0.746000
C271	C27	0.631500	0.814400	0.872700
C281	C28	0.570900	0.166980	0.651430
C291	C29	0.468100	0.109800	0.610040
C301	C30	0.376000	0.056500	0.649500
C311	C31	0.386800	0.060400	0.730350
C321	C32	0.489700	0.117500	0.771740
C331	C33	0.581800	0.170820	0.732280
C341	C34	0.503800	0.119100	0.858800
C351	C35	0.034400	0.152500	0.336100
C361	C36	0.161000	0.119200	0.363600
C371	C37	0.244900	0.057100	0.313300
C381	C38	0.203200	0.026900	0.236300
C391	C39	0.074200	0.055400	0.210800
C401	C40	0.991300	0.116600	0.260000
C411	C41	0.027000	0.018800	0.128700
C421	C42	0.888000	0.641900	0.314300
C431	C43	0.970100	0.724900	0.337600
C441	C44	0.987200	0.795100	0.288000
C451	C45	0.925800	0.783100	0.214900
C461	C46	0.847200	0.699700	0.189300
C471	C47	0.830700	0.629800	0.239400
C481	C48	0.781600	0.686100	0.108800
C491	C49	0.222200	0.395100	0.564700
C501	C50	0.278800	0.297800	0.550500
C511	C51	0.345100	0.291300	0.481000
C521	C52	0.332300	0.384800	0.453300
C531	C53	0.389800	0.406400	0.383300
C541	C54	0.397000	0.500000	0.361200
C551	C55	0.480300	0.525800	0.299200
C561	C56	0.477000	0.625400	0.303500
C571	C57	0.385800	0.661700	0.366000
C581	C58	0.353000	0.759400	0.390200
C591	C59	0.261400	0.791400	0.451000
C601	C60	0.215200	0.890800	0.468100
C611	C61	0.124000	0.893500	0.528600
C621	C62	0.118100	0.796400	0.549100
C631	C63	0.045200	0.771200	0.613900
C641	C64	0.044100	0.679000	0.638400
C651	C65	0.971300	0.651700	0.704800
C661	C66	0.997500	0.557800	0.709700
C671	C67	0.087200	0.522000	0.646100
C681	C68	0.141600	0.428100	0.629800
C691	C69	0.450800	0.325300	0.328000
C701	C70	0.565900	0.274200	0.349000
C711	C71	0.616600	0.196300	0.298700
C721	C72	0.552200	0.167600	0.226000
C731	C73	0.440100	0.219400	0.203400
C741	C74	0.390200	0.298400	0.254000
C751	C75	0.368500	0.185600	0.127300
C761	C76	0.429100	0.833020	0.348570
C771	C77	0.531900	0.890200	0.389960
C781	C78	0.624000	0.943500	0.350500
C791	C79	0.613200	0.939600	0.269650
C801	C80	0.510300	0.882500	0.228260
C811	C81	0.418200	0.829180	0.267720
C821	C82	0.496200	0.880900	0.141200
C831	C83	0.965600	0.847500	0.663900
C841	C84	0.839000	0.880800	0.636400
C851	C85	0.755100	0.942900	0.686700
C861	C86	0.796800	0.973100	0.763700
C871	C87	0.925800	0.944600	0.789200
C881	C88	0.008700	0.883400	0.740000
C891	C89	0.973000	0.981200	0.871300
C901	C90	0.112000	0.358100	0.685700
C911	C91	0.029900	0.275100	0.662400
C921	C92	0.012800	0.204900	0.712000
C931	C93	0.074200	0.216900	0.785100
C941	C94	0.152800	0.300300	0.810700
C951	C95	0.169300	0.370200	0.760600
C961	C96	0.218400	0.313900	0.891200
N11	N1	0.742400	0.552000	0.494100
N21	N2	0.660700	0.417200	0.600300
N31	N3	0.799400	0.265200	0.499300
N41	N4	0.887700	0.402900	0.396600
N51	N5	0.257600	0.448000	0.505900
N61	N6	0.339300	0.582800	0.399700
N71	N7	0.200600	0.734800	0.500700
N81	N8	0.112300	0.597100	0.603400
O11	O1	0.579300	0.883300	0.918790
O21	O2	0.743600	0.775600	0.890820
O31	O3	0.405800	0.083300	0.893840
O41	O4	0.612500	0.155400	0.892700
O51	O5	0.902000	0.996000	0.117160
O61	O6	0.118200	0.011000	0.075080
O71	O7	0.733900	0.604100	0.081000
O81	O8	0.781500	0.756800	0.070700
O91	O9	0.420700	0.116700	0.081210
O101	O10	0.256400	0.224400	0.109180
O111	O11	0.594200	0.916700	0.106160
O121	O12	0.387500	0.844600	0.107300
O131	O13	0.098000	0.004000	0.882840
O141	O14	0.881800	0.989000	0.924920
O151	O15	0.266100	0.395900	0.919000
O161	O16	0.218500	0.243200	0.929300
