data_MIHLEV_clean_PM
_symmetry_space_group_name_H-M	'P1'
_cell_length_a	7.459500
_cell_length_b	11.474000
_cell_length_c	16.476700
_cell_angle_alpha	98.951100
_cell_angle_beta	90.986300
_cell_angle_gamma	91.310900
_symmetry_Int_Tables_number 1

loop_
_symmetry_equiv_pos_as_xyz
'x,y,z'

loop_
_atom_site_label
_atom_site_type_symbol
_atom_site_fract_x
_atom_site_fract_y
_atom_site_fract_z
Pr11	Pr1	0.759150	0.576440	0.004950
Pr21	Pr2	0.240850	0.423560	0.995050
H11	H1	0.312800	0.391300	0.410700
H21	H2	0.086900	0.358800	0.513800
H31	H3	0.946900	0.006000	0.684500
H41	H4	0.100100	0.823100	0.703300
H51	H5	0.409300	0.082400	0.485100
H61	H6	0.799800	0.215800	0.530200
H71	H7	0.585400	0.331400	0.604900
H81	H8	0.632100	0.397800	0.744400
H91	H9	0.107200	0.232900	0.737400
H101	H10	0.808400	0.398400	0.415000
H111	H11	0.890400	0.541800	0.335900
H121	H12	0.754300	0.543100	0.207200
H131	H13	0.445700	0.259200	0.238900
H141	H14	0.191200	0.737000	0.942400
H151	H15	0.687200	0.608700	0.589300
H161	H16	0.913100	0.641200	0.486200
H171	H17	0.053100	0.994000	0.315500
H181	H18	0.899900	0.176900	0.296700
H191	H19	0.590700	0.917600	0.514900
H201	H20	0.200200	0.784200	0.469800
H211	H21	0.414600	0.668600	0.395100
H221	H22	0.367900	0.602200	0.255600
H231	H23	0.892800	0.767100	0.262600
H241	H24	0.191600	0.601600	0.585000
H251	H25	0.109600	0.458200	0.664100
H261	H26	0.245700	0.456900	0.792800
H271	H27	0.554300	0.740800	0.761100
H281	H28	0.808800	0.263000	0.057600
C11	C1	0.423200	0.228000	0.430600
C21	C2	0.305300	0.325600	0.439200
C31	C3	0.180900	0.307300	0.495400
C41	C4	0.216000	0.196700	0.522100
C51	C5	0.123000	0.145900	0.581000
C61	C6	0.164200	0.037100	0.605400
C71	C7	0.056000	0.978900	0.660300
C81	C8	0.138900	0.879500	0.670400
C91	C9	0.298600	0.874700	0.621700
C101	C10	0.577500	0.216600	0.383100
C111	C11	0.977500	0.214900	0.626200
C121	C12	0.819700	0.243300	0.587100
C131	C13	0.691800	0.311800	0.631700
C141	C14	0.719600	0.351100	0.714500
C151	C15	0.874800	0.322900	0.754400
C161	C16	0.002300	0.253700	0.710000
C171	C17	0.910900	0.370300	0.844000
C181	C18	0.620200	0.312800	0.334200
C191	C19	0.751900	0.398600	0.362900
C201	C20	0.800700	0.483800	0.315800
C211	C21	0.719700	0.485100	0.239700
C221	C22	0.587500	0.400900	0.211200
C231	C23	0.537500	0.315900	0.258500
C241	C24	0.495200	0.400300	0.129900
C251	C25	0.082500	0.701300	0.956800
C261	C26	0.576800	0.772000	0.569400
C271	C27	0.694700	0.674400	0.560800
C281	C28	0.819100	0.692700	0.504600
C291	C29	0.784000	0.803300	0.477900
C301	C30	0.877000	0.854100	0.419000
C311	C31	0.835800	0.962900	0.394600
C321	C32	0.944000	0.021100	0.339700
C331	C33	0.861100	0.120500	0.329600
C341	C34	0.701400	0.125300	0.378300
C351	C35	0.422500	0.783400	0.616900
C361	C36	0.022500	0.785100	0.373800
C371	C37	0.180300	0.756700	0.412900
C381	C38	0.308200	0.688200	0.368300
C391	C39	0.280400	0.648900	0.285500
C401	C40	0.125200	0.677100	0.245600
C411	C41	0.997700	0.746300	0.290000
C421	C42	0.089100	0.629700	0.156000
C431	C43	0.379800	0.687200	0.665800
C441	C44	0.248100	0.601400	0.637100
C451	C45	0.199300	0.516200	0.684200
C461	C46	0.280300	0.514900	0.760300
C471	C47	0.412500	0.599100	0.788800
C481	C48	0.462500	0.684100	0.741500
C491	C49	0.504800	0.599700	0.870100
C501	C50	0.917500	0.298700	0.043200
N11	N1	0.361900	0.150700	0.480570
N21	N2	0.310200	0.971000	0.582180
N31	N3	0.638100	0.849300	0.519430
N41	N4	0.689800	0.029000	0.417820
O11	O1	0.788700	0.426000	0.883020
O21	O2	0.063100	0.348900	0.873580
O31	O3	0.549600	0.469000	0.080660
O41	O4	0.361800	0.332900	0.111800
O51	O5	0.956600	0.765700	0.978400
O61	O6	0.075100	0.589800	0.952570
O71	O7	0.211300	0.574000	0.116980
O81	O8	0.936900	0.651100	0.126420
O91	O9	0.450400	0.531000	0.919340
O101	O10	0.638200	0.667100	0.888200
O111	O11	0.043400	0.234300	0.021600
O121	O12	0.924900	0.410200	0.047430
