data_MIHLIZ_clean_PM
_symmetry_space_group_name_H-M	'P1'
_cell_length_a	9.635700
_cell_length_b	13.920300
_cell_length_c	17.287500
_cell_angle_alpha	98.157400
_cell_angle_beta	90.248900
_cell_angle_gamma	90.893800
_symmetry_Int_Tables_number 1

loop_
_symmetry_equiv_pos_as_xyz
'x,y,z'

loop_
_atom_site_label
_atom_site_type_symbol
_atom_site_fract_x
_atom_site_fract_y
_atom_site_fract_z
Pr11	Pr1	0.270000	0.398400	0.513080
Pr21	Pr2	0.730000	0.601600	0.486920
H11	H1	0.108900	0.262100	0.042400
H21	H2	0.233500	0.250100	0.915700
H31	H3	0.536700	0.975000	0.750100
H41	H4	0.581500	0.803000	0.758400
H51	H5	0.427000	0.552000	0.948200
H61	H6	0.258800	0.556300	0.058400
H71	H7	0.972000	0.837700	0.227800
H81	H8	0.965600	0.016600	0.234000
H91	H9	0.340000	0.904500	0.937000
H101	H10	0.218400	0.914600	0.060900
H111	H11	0.516500	0.231700	0.884600
H121	H12	0.544100	0.349100	0.801200
H131	H13	0.436700	0.328100	0.678900
H141	H14	0.278200	0.069100	0.721300
H151	H15	0.212100	0.096800	0.533800
H161	H16	0.690500	0.640300	0.915400
H171	H17	0.830400	0.536400	0.832400
H181	H18	0.761400	0.486800	0.702900
H191	H19	0.402600	0.633500	0.743300
H201	H20	0.960600	0.604000	0.055800
H211	H21	0.809700	0.514700	0.123900
H221	H22	0.819400	0.530300	0.260200
H231	H23	0.158500	0.706800	0.258900
H241	H24	0.891000	0.207300	0.098000
H251	H25	0.805300	0.336800	0.183300
H261	H26	0.910500	0.383900	0.305100
H271	H27	0.184200	0.165500	0.258400
H281	H28	0.891100	0.737900	0.957600
H291	H29	0.766500	0.749900	0.084300
H301	H30	0.463300	0.025000	0.249900
H311	H31	0.418500	0.197000	0.241600
H321	H32	0.573000	0.448000	0.051800
H331	H33	0.741200	0.443700	0.941600
H341	H34	0.028000	0.162300	0.772200
H351	H35	0.034400	0.983400	0.766000
H361	H36	0.660000	0.095500	0.063000
H371	H37	0.781600	0.085400	0.939100
H381	H38	0.483500	0.768300	0.115400
H391	H39	0.455900	0.650900	0.198800
H401	H40	0.563300	0.671900	0.321100
H411	H41	0.721800	0.930900	0.278700
H421	H42	0.787900	0.903200	0.466200
H431	H43	0.309500	0.359700	0.084600
H441	H44	0.169600	0.463600	0.167600
H451	H45	0.238600	0.513200	0.297100
H461	H46	0.597400	0.366500	0.256700
H471	H47	0.039400	0.396000	0.944200
H481	H48	0.190300	0.485300	0.876100
H491	H49	0.180600	0.469700	0.739800
H501	H50	0.841500	0.293200	0.741100
H511	H51	0.109000	0.792700	0.902000
H521	H52	0.194700	0.663200	0.816700
H531	H53	0.089500	0.616100	0.694900
H541	H54	0.815800	0.834500	0.741600
C11	C1	0.170100	0.113900	0.044300
C21	C2	0.156400	0.207200	0.016900
C31	C3	0.224300	0.200900	0.948300
C41	C4	0.281200	0.102600	0.934000
C51	C5	0.360600	0.069900	0.868900
C61	C6	0.413900	0.975700	0.852300
C71	C7	0.501900	0.939200	0.788900
C81	C8	0.527000	0.845100	0.793700
C91	C9	0.457800	0.819400	0.861000
C101	C10	0.455400	0.728200	0.886000
C111	C11	0.383000	0.703500	0.951100
C121	C12	0.377100	0.606700	0.971900
C131	C13	0.286000	0.609100	0.032300
C141	C14	0.239400	0.707700	0.048500
C151	C15	0.146600	0.740400	0.108900
C161	C16	0.113000	0.838200	0.132500
C171	C17	0.020900	0.875200	0.194700
C181	C18	0.016300	0.973300	0.197600
C191	C19	0.101000	0.999800	0.136200
C201	C20	0.109900	0.092600	0.114200
C211	C21	0.390900	0.139800	0.812000
C221	C22	0.472200	0.222700	0.834800
C231	C23	0.489000	0.292600	0.785000
C241	C24	0.425900	0.280000	0.712300
C251	C25	0.346300	0.196500	0.688100
C261	C26	0.330800	0.126600	0.738200
C271	C27	0.279700	0.183000	0.608400
C281	C28	0.535600	0.651600	0.836800
C291	C29	0.661300	0.619500	0.863100
C301	C30	0.744700	0.557400	0.813700
C311	C31	0.702700	0.526400	0.737600
C321	C32	0.573600	0.553500	0.711900
C331	C33	0.490600	0.615500	0.761100
C341	C34	0.526600	0.517100	0.630000
C351	C35	0.069700	0.669700	0.150900
C361	C36	0.968100	0.609000	0.111100
C371	C37	0.878000	0.556100	0.151700
C381	C38	0.886200	0.562700	0.232400
C391	C39	0.993200	0.617200	0.272200
C401	C40	0.085000	0.670100	0.231500
C411	C41	0.008600	0.620900	0.359500
C421	C42	0.047900	0.173500	0.168200
C431	C43	0.934200	0.225300	0.147600
C441	C44	0.883200	0.302600	0.198300
C451	C45	0.945100	0.330300	0.270900
C461	C46	0.057600	0.279700	0.293400
C471	C47	0.108200	0.200900	0.242500
C481	C48	0.128600	0.312100	0.369700
C491	C49	0.829900	0.886100	0.955700
C501	C50	0.843600	0.792800	0.983100
C511	C51	0.775700	0.799100	0.051700
C521	C52	0.718800	0.897400	0.066000
C531	C53	0.639400	0.930100	0.131100
C541	C54	0.586100	0.024300	0.147700
C551	C55	0.498100	0.060800	0.211100
C561	C56	0.473000	0.154900	0.206300
C571	C57	0.542200	0.180600	0.139000
C581	C58	0.544600	0.271800	0.114000
C591	C59	0.617000	0.296500	0.048900
C601	C60	0.622900	0.393300	0.028100
C611	C61	0.714000	0.390900	0.967700
C621	C62	0.760600	0.292300	0.951500
C631	C63	0.853400	0.259600	0.891100
C641	C64	0.887000	0.161800	0.867500
C651	C65	0.979100	0.124800	0.805300
C661	C66	0.983700	0.026700	0.802400
C671	C67	0.899000	0.000200	0.863800
C681	C68	0.890100	0.907400	0.885800
C691	C69	0.609100	0.860200	0.188000
C701	C70	0.527800	0.777300	0.165200
C711	C71	0.511000	0.707400	0.215000
C721	C72	0.574100	0.720000	0.287700
C731	C73	0.653700	0.803500	0.311900
C741	C74	0.669200	0.873400	0.261800
C751	C75	0.720300	0.817000	0.391600
C761	C76	0.464400	0.348400	0.163200
C771	C77	0.338700	0.380500	0.136900
C781	C78	0.255300	0.442600	0.186300
C791	C79	0.297300	0.473600	0.262400
C801	C80	0.426400	0.446500	0.288100
C811	C81	0.509400	0.384500	0.238900
C821	C82	0.473400	0.482900	0.370000
C831	C83	0.930300	0.330300	0.849100
C841	C84	0.031900	0.391000	0.888900
C851	C85	0.122000	0.443900	0.848300
C861	C86	0.113800	0.437300	0.767600
C871	C87	0.006800	0.382800	0.727800
C881	C88	0.915000	0.329900	0.768500
C891	C89	0.991400	0.379100	0.640500
C901	C90	0.952100	0.826500	0.831800
C911	C91	0.065800	0.774700	0.852400
C921	C92	0.116800	0.697400	0.801700
C931	C93	0.054900	0.669700	0.729100
C941	C94	0.942400	0.720300	0.706600
C951	C95	0.891800	0.799100	0.757500
C961	C96	0.871400	0.687900	0.630300
N11	N1	0.243200	0.051200	0.992940
N21	N2	0.390600	0.900900	0.894530
N31	N3	0.300400	0.765100	0.999320
N41	N4	0.159400	0.917100	0.099800
N51	N5	0.756800	0.948800	0.007060
N61	N6	0.609400	0.099100	0.105470
N71	N7	0.699600	0.234900	0.000680
N81	N8	0.840600	0.082900	0.900200
O11	O1	0.233400	0.098300	0.581100
O21	O2	0.279500	0.252600	0.570530
O31	O3	0.400400	0.494300	0.619090
O41	O4	0.616500	0.510100	0.576680
O51	O5	0.911900	0.584600	0.395090
O61	O6	0.117800	0.657600	0.391520
O71	O7	0.075700	0.380600	0.415930
O81	O8	0.239600	0.272700	0.387730
O91	O9	0.766600	0.901700	0.418900
O101	O10	0.720500	0.747400	0.429470
O111	O11	0.599600	0.505700	0.380910
O121	O12	0.383500	0.489900	0.423320
O131	O13	0.088100	0.415400	0.604910
O141	O14	0.882200	0.342400	0.608480
O151	O15	0.924300	0.619400	0.584070
O161	O16	0.760400	0.727300	0.612270
