data_MIJMAU_clean_PM
_symmetry_space_group_name_H-M	'P1'
_cell_length_a	16.131200
_cell_length_b	16.131200
_cell_length_c	16.267400
_cell_angle_alpha	73.658200
_cell_angle_beta	68.198800
_cell_angle_gamma	109.983000
_symmetry_Int_Tables_number 1

loop_
_symmetry_equiv_pos_as_xyz
'x,y,z'

loop_
_atom_site_label
_atom_site_type_symbol
_atom_site_fract_x
_atom_site_fract_y
_atom_site_fract_z
Ni11	Ni1	0.500000	0.000000	0.000000
Ni21	Ni2	0.500000	0.500000	0.500000
Ni31	Ni3	0.500000	0.000000	0.500000
Ni41	Ni4	0.000000	0.000000	0.000000
H11	H1	0.441600	0.015400	0.216600
H21	H2	0.371700	0.062300	0.241400
H31	H3	0.307800	0.000900	0.144300
H41	H4	0.729600	0.141700	0.900900
H51	H5	0.755800	0.222600	0.800000
H61	H6	0.605900	0.231400	0.891700
H71	H7	0.682700	0.260800	0.930100
H81	H8	0.412700	0.220000	0.090700
H91	H9	0.392600	0.145000	0.047200
H101	H10	0.496500	0.247000	0.984100
H111	H11	0.580100	0.176200	0.161300
H121	H12	0.513400	0.228400	0.170000
H131	H13	0.613700	0.271000	0.067700
H141	H14	0.185200	0.837800	0.288600
H151	H15	0.191300	0.927100	0.311600
H161	H16	0.246400	0.870600	0.340000
H171	H17	0.253100	0.872400	0.690300
H181	H18	0.180800	0.784600	0.683600
H191	H19	0.303700	0.885400	0.499700
H201	H20	0.586400	0.938400	0.630200
H211	H21	0.646300	0.893900	0.574200
H221	H22	0.504000	0.802100	0.567900
H231	H23	0.472800	0.775200	0.679800
H241	H24	0.190000	0.663500	0.791700
H251	H25	0.252800	0.747900	0.809500
H261	H26	0.295400	0.679500	0.781900
H271	H27	0.331600	0.769400	0.536400
H281	H28	0.244600	0.671100	0.636100
H291	H29	0.360800	0.704000	0.598800
H301	H30	0.153300	0.925800	0.610100
H311	H31	0.143800	0.867000	0.549000
H321	H32	0.215000	0.983300	0.492700
H331	H33	0.597500	0.106600	0.050300
H341	H34	0.387800	0.878600	0.183400
H351	H35	0.412500	0.878300	0.677000
H361	H36	0.345600	0.021700	0.565700
H371	H37	0.732000	0.658200	0.283400
H381	H38	0.803700	0.613100	0.258600
H391	H39	0.645200	0.452100	0.355700
H401	H40	0.542600	0.630500	0.599100
H411	H41	0.522600	0.555800	0.700000
H421	H42	0.623100	0.497600	0.608300
H431	H43	0.690900	0.612800	0.569900
H441	H44	0.810700	0.503400	0.409300
H451	H45	0.692200	0.439800	0.452800
H461	H46	0.731100	0.480600	0.515900
H471	H47	0.837500	0.741400	0.338700
H481	H48	0.898400	0.683400	0.330000
H491	H49	0.838700	0.681400	0.432300
H501	H50	0.626400	0.473800	0.211400
H511	H51	0.738700	0.502900	0.188400
H521	H52	0.710600	0.586400	0.160000
H531	H53	0.062700	0.943400	0.809700
H541	H54	0.968200	0.864400	0.816400
H551	H55	0.885100	0.803400	0.000300
H561	H56	0.068600	0.216600	0.869800
H571	H57	0.968100	0.220500	0.925800
H581	H58	0.870000	0.071900	0.932100
H591	H59	0.955000	0.152600	0.820200
H601	H60	0.955200	0.981700	0.708300
H611	H61	0.057400	0.062300	0.690500
H621	H62	0.961400	0.077300	0.718100
H631	H63	0.805800	0.868000	0.963600
H641	H64	0.807200	0.880700	0.863900
H651	H65	0.802800	0.959600	0.901200
H661	H66	0.035900	0.763400	0.889900
H671	H67	0.916000	0.692800	0.951000
H681	H68	0.976000	0.707700	0.007300
H691	H69	0.656900	0.647800	0.449700
H701	H70	0.562000	0.571200	0.316600
H711	H71	0.055300	0.089500	0.823000
H721	H72	0.087400	0.911300	0.934300
H731	H73	0.558400	0.984600	0.783400
H741	H74	0.628300	0.937700	0.758600
H751	H75	0.692200	0.999100	0.855700
H761	H76	0.270400	0.858300	0.099100
H771	H77	0.244200	0.777400	0.200000
H781	H78	0.394100	0.768600	0.108300
H791	H79	0.317300	0.739200	0.069900
H801	H80	0.587300	0.780000	0.909300
H811	H81	0.607400	0.855000	0.952800
H821	H82	0.503500	0.753000	0.015900
H831	H83	0.419900	0.823800	0.838700
H841	H84	0.486600	0.771600	0.830000
H851	H85	0.386300	0.729000	0.932300
H861	H86	0.814800	0.162200	0.711400
H871	H87	0.808700	0.072900	0.688400
H881	H88	0.753600	0.129400	0.660000
H891	H89	0.746900	0.127600	0.309700
H901	H90	0.819200	0.215400	0.316400
H911	H91	0.696300	0.114600	0.500300
H921	H92	0.413600	0.061600	0.369800
H931	H93	0.353700	0.106100	0.425800
H941	H94	0.496000	0.197900	0.432100
H951	H95	0.527200	0.224800	0.320200
H961	H96	0.810000	0.336500	0.208300
H971	H97	0.747200	0.252100	0.190500
H981	H98	0.704600	0.320500	0.218100
H991	H99	0.668400	0.230600	0.463600
H1001	H100	0.755400	0.328900	0.363900
H1011	H101	0.639200	0.296000	0.401200
H1021	H102	0.846700	0.074200	0.389900
H1031	H103	0.856200	0.133000	0.451000
H1041	H104	0.785000	0.016700	0.507300
H1051	H105	0.402500	0.893400	0.949700
H1061	H106	0.612200	0.121400	0.816600
H1071	H107	0.587500	0.121700	0.323000
H1081	H108	0.654400	0.978300	0.434300
H1091	H109	0.268000	0.341800	0.716600
H1101	H110	0.196300	0.386900	0.741400
H1111	H111	0.354800	0.547900	0.644300
H1121	H112	0.457400	0.369500	0.400900
H1131	H113	0.477400	0.444200	0.300000
H1141	H114	0.376900	0.502400	0.391700
H1151	H115	0.309100	0.387200	0.430100
H1161	H116	0.189300	0.496600	0.590700
H1171	H117	0.307800	0.560200	0.547200
H1181	H118	0.268900	0.519400	0.484100
H1191	H119	0.162500	0.258600	0.661300
H1201	H120	0.101600	0.316600	0.670000
H1211	H121	0.161300	0.318600	0.567700
H1221	H122	0.373600	0.526200	0.788600
H1231	H123	0.261300	0.497100	0.811600
H1241	H124	0.289400	0.413600	0.840000
H1251	H125	0.937300	0.056600	0.190300
H1261	H126	0.031800	0.135600	0.183600
H1271	H127	0.114900	0.196600	0.999700
H1281	H128	0.931400	0.783400	0.130200
H1291	H129	0.031900	0.779500	0.074200
H1301	H130	0.130000	0.928100	0.067900
H1311	H131	0.045000	0.847400	0.179800
H1321	H132	0.044800	0.018300	0.291700
H1331	H133	0.942600	0.937700	0.309500
H1341	H134	0.038600	0.922700	0.281900
H1351	H135	0.194200	0.132000	0.036400
H1361	H136	0.192800	0.119300	0.136100
H1371	H137	0.197200	0.040400	0.098800
H1381	H138	0.964100	0.236600	0.110100
H1391	H139	0.084000	0.307200	0.049000
H1401	H140	0.024000	0.292300	0.992700
H1411	H141	0.343100	0.352200	0.550300
H1421	H142	0.438000	0.428800	0.683400
H1431	H143	0.944700	0.910500	0.177000
H1441	H144	0.912600	0.088700	0.065700
W11	W1	0.395430	0.145430	0.750000
W21	W2	0.604570	0.854570	0.250000
C11	C1	0.407200	0.081300	0.877100
C21	C2	0.468100	0.095800	0.649900
C31	C3	0.300100	0.985400	0.823100
C41	C4	0.559300	0.219400	0.698100
C51	C5	0.493100	0.144600	0.097300
C61	C6	0.407900	0.046000	0.191500
C71	C7	0.327000	0.966900	0.187900
C81	C8	0.700000	0.168500	0.865900
C91	C9	0.638400	0.207100	0.924500
C101	C10	0.444100	0.193700	0.050400
C111	C11	0.555800	0.211200	0.126800
C121	C12	0.228200	0.893800	0.291800
C131	C13	0.314300	0.785300	0.660600
C141	C14	0.251900	0.836600	0.651300
C151	C15	0.281500	0.910400	0.547300
C161	C16	0.595200	0.914600	0.580800
C171	C17	0.496200	0.827800	0.615800
C181	C18	0.257900	0.712400	0.771100
C191	C19	0.312700	0.727200	0.602700
C201	C20	0.189700	0.922800	0.550100
C211	C21	0.458400	0.284300	0.622900
C221	C22	0.245700	0.118000	0.850100
C231	C23	0.308500	0.123200	0.676900
C241	C24	0.417500	0.257400	0.801900
C251	C25	0.741900	0.590400	0.402700
C261	C26	0.737500	0.599400	0.308500
C271	C27	0.654800	0.514900	0.312100
C281	C28	0.534400	0.565900	0.634100
C291	C29	0.631600	0.562900	0.575500
C301	C30	0.744100	0.494500	0.449600
C311	C31	0.838000	0.682600	0.373200
C321	C32	0.685600	0.520000	0.208200
C331	C33	0.945900	0.974900	0.839400
C341	C34	0.987900	0.903200	0.848700
C351	C35	0.957700	0.828800	0.952700
C361	C36	0.995400	0.176000	0.919200
C371	C37	0.943600	0.112000	0.884200
C381	C38	0.983500	0.029000	0.728900
C391	C39	0.829900	0.915400	0.897300
C401	C40	0.972900	0.739800	0.949900
C411	C41	0.592800	0.918700	0.122900
C421	C42	0.531900	0.904200	0.350100
C431	C43	0.699900	0.014600	0.176900
C441	C44	0.440700	0.780600	0.301900
C451	C45	0.506900	0.855400	0.902700
C461	C46	0.592100	0.954000	0.808500
C471	C47	0.673000	0.033100	0.812100
C481	C48	0.300000	0.831500	0.134100
C491	C49	0.361600	0.792900	0.075500
C501	C50	0.555900	0.806300	0.949600
C511	C51	0.444200	0.788800	0.873200
C521	C52	0.771800	0.106200	0.708200
C531	C53	0.685700	0.214700	0.339400
C541	C54	0.748100	0.163400	0.348700
C551	C55	0.718500	0.089600	0.452700
C561	C56	0.404800	0.085400	0.419200
C571	C57	0.503800	0.172200	0.384200
C581	C58	0.742100	0.287600	0.228900
C591	C59	0.687300	0.272800	0.397300
C601	C60	0.810300	0.077200	0.449900
C611	C61	0.541600	0.715700	0.377100
C621	C62	0.754300	0.882000	0.149900
C631	C63	0.691500	0.876800	0.323100
C641	C64	0.582500	0.742600	0.198100
C651	C65	0.258100	0.409600	0.597300
C661	C66	0.262500	0.400600	0.691500
C671	C67	0.345200	0.485100	0.687900
C681	C68	0.465600	0.434100	0.365900
C691	C69	0.368400	0.437100	0.424500
C701	C70	0.255900	0.505500	0.550400
C711	C71	0.162000	0.317400	0.626800
C721	C72	0.314400	0.480000	0.791800
C731	C73	0.054100	0.025100	0.160600
C741	C74	0.012100	0.096800	0.151300
C751	C75	0.042300	0.171200	0.047300
C761	C76	0.004600	0.824000	0.080800
C771	C77	0.056400	0.888000	0.115800
C781	C78	0.016500	0.971000	0.271100
C791	C79	0.170100	0.084600	0.102700
C801	C80	0.027100	0.260200	0.050100
N11	N1	0.417300	0.048500	0.942000
N21	N2	0.496900	0.064300	0.598000
N31	N3	0.250900	0.900000	0.865300
N41	N4	0.644100	0.258300	0.672200
N51	N5	0.559700	0.120200	0.024300
N61	N6	0.368800	0.908600	0.143200
N71	N7	0.420900	0.862900	0.625800
N81	N8	0.366500	0.002100	0.518000
N91	N9	0.490500	0.359300	0.558000
N101	N10	0.162300	0.094900	0.902000
N111	N11	0.265300	0.116200	0.634700
N121	N12	0.430500	0.316300	0.827800
N131	N13	0.644500	0.584000	0.475700
N141	N14	0.551800	0.512000	0.356800
N151	N15	0.988700	0.046700	0.874200
N161	N16	0.020100	0.884500	0.982000
N171	N17	0.582700	0.951500	0.058000
N181	N18	0.503100	0.935700	0.402000
N191	N19	0.749100	0.100000	0.134700
N201	N20	0.355900	0.741700	0.327800
N211	N21	0.440300	0.879800	0.975700
N221	N22	0.631200	0.091400	0.856800
N231	N23	0.579100	0.137100	0.374200
N241	N24	0.633500	0.997900	0.482000
N251	N25	0.509500	0.640700	0.442000
N261	N26	0.837700	0.905100	0.098000
N271	N27	0.734700	0.883800	0.365300
N281	N28	0.569500	0.683700	0.172200
N291	N29	0.355500	0.416000	0.524300
N301	N30	0.448200	0.488000	0.643200
N311	N31	0.011300	0.953300	0.125800
N321	N32	0.979900	0.115500	0.018000
