data_MIJYEK_clean_PM
_symmetry_space_group_name_H-M	'P1'
_cell_length_a	6.560000
_cell_length_b	18.929000
_cell_length_c	11.411000
_cell_angle_alpha	90.000000
_cell_angle_beta	90.000000
_cell_angle_gamma	90.000000
_symmetry_Int_Tables_number 1

loop_
_symmetry_equiv_pos_as_xyz
'x,y,z'

loop_
_atom_site_label
_atom_site_type_symbol
_atom_site_fract_x
_atom_site_fract_y
_atom_site_fract_z
La11	La1	0.137520	0.752860	0.000000
La21	La2	0.862480	0.247140	0.000000
La31	La3	0.637520	0.747140	0.500000
La41	La4	0.362480	0.252860	0.500000
La51	La5	0.247530	0.919350	0.500000
La61	La6	0.752470	0.080650	0.500000
La71	La7	0.747530	0.580650	0.000000
La81	La8	0.252470	0.419350	0.000000
C11	C1	0.256800	0.794090	0.722300
C21	C2	0.145400	0.860300	0.770200
C31	C3	0.743200	0.205910	0.722300
C41	C4	0.854600	0.139700	0.770200
C51	C5	0.756800	0.705910	0.777700
C61	C6	0.645400	0.639700	0.729800
C71	C7	0.243200	0.294090	0.777700
C81	C8	0.354600	0.360300	0.729800
C91	C9	0.743200	0.205910	0.277700
C101	C10	0.854600	0.139700	0.229800
C111	C11	0.256800	0.794090	0.277700
C121	C12	0.145400	0.860300	0.229800
C131	C13	0.243200	0.294090	0.222300
C141	C14	0.354600	0.360300	0.270200
C151	C15	0.756800	0.705910	0.222300
C161	C16	0.645400	0.639700	0.270200
N11	N1	0.295200	0.607700	0.000000
N21	N2	0.704800	0.392300	0.000000
N31	N3	0.795200	0.892300	0.500000
N41	N4	0.204800	0.107700	0.500000
O11	O1	0.267800	0.742150	0.788700
O21	O2	0.325900	0.799180	0.619900
O31	O3	0.073000	0.855720	0.872500
O41	O4	0.132000	0.913120	0.706400
O51	O5	0.732200	0.257850	0.788700
O61	O6	0.674100	0.200820	0.619900
O71	O7	0.927000	0.144280	0.872500
O81	O8	0.868000	0.086880	0.706400
O91	O9	0.767800	0.757850	0.711300
O101	O10	0.825900	0.700820	0.880100
O111	O11	0.573000	0.644280	0.627500
O121	O12	0.632000	0.586880	0.793600
O131	O13	0.232200	0.242150	0.711300
O141	O14	0.174100	0.299180	0.880100
O151	O15	0.427000	0.355720	0.627500
O161	O16	0.368000	0.413120	0.793600
O171	O17	0.732200	0.257850	0.211300
O181	O18	0.674100	0.200820	0.380100
O191	O19	0.927000	0.144280	0.127500
O201	O20	0.868000	0.086880	0.293600
O211	O21	0.267800	0.742150	0.211300
O221	O22	0.325900	0.799180	0.380100
O231	O23	0.073000	0.855720	0.127500
O241	O24	0.132000	0.913120	0.293600
O251	O25	0.232200	0.242150	0.288700
O261	O26	0.174100	0.299180	0.119900
O271	O27	0.427000	0.355720	0.372500
O281	O28	0.368000	0.413120	0.206400
O291	O29	0.767800	0.757850	0.288700
O301	O30	0.825900	0.700820	0.119900
O311	O31	0.573000	0.644280	0.372500
O321	O32	0.632000	0.586880	0.206400
O331	O33	0.103900	0.621900	0.000000
O341	O34	0.420700	0.660140	0.000000
O351	O35	0.362800	0.545410	0.000000
O361	O36	0.896100	0.378100	0.000000
O371	O37	0.579300	0.339860	0.000000
O381	O38	0.637200	0.454590	0.000000
O391	O39	0.603900	0.878100	0.500000
O401	O40	0.920700	0.839860	0.500000
O411	O41	0.862800	0.954590	0.500000
O421	O42	0.396100	0.121900	0.500000
O431	O43	0.079300	0.160140	0.500000
O441	O44	0.137200	0.045410	0.500000
O451	O45	0.500000	0.000000	0.363100
O461	O46	0.000000	0.500000	0.136900
O471	O47	0.500000	0.000000	0.636900
O481	O48	0.000000	0.500000	0.863100
