data_MIKDUH_clean_PM
_symmetry_space_group_name_H-M	'P1'
_cell_length_a	9.605000
_cell_length_b	21.278000
_cell_length_c	16.747000
_cell_angle_alpha	90.000000
_cell_angle_beta	91.464000
_cell_angle_gamma	90.000000
_symmetry_Int_Tables_number 1

loop_
_symmetry_equiv_pos_as_xyz
'x,y,z'

loop_
_atom_site_label
_atom_site_type_symbol
_atom_site_fract_x
_atom_site_fract_y
_atom_site_fract_z
U11	U1	0.781010	0.241480	0.962600
U21	U2	0.708950	0.241900	0.516260
U31	U3	0.243920	0.139770	0.742960
P11	P1	0.531800	0.343700	0.056410
P21	P2	0.957500	0.347480	0.428300
P31	P3	0.500000	0.141470	0.577610
P41	P4	0.989700	0.137600	0.907170
O11	O1	0.647600	0.324200	0.002700
O21	O2	0.419300	0.292700	0.063700
O31	O3	0.588000	0.360500	0.139200
O41	O4	0.841300	0.326400	0.481300
O51	O5	0.066700	0.296000	0.417000
O61	O6	0.899800	0.367600	0.347200
O71	O7	0.656500	0.147300	0.588500
O81	O8	0.459500	0.195300	0.519900
O91	O9	0.425900	0.146800	0.656200
O101	O10	0.031300	0.196400	0.955200
O111	O11	0.834100	0.145400	0.892200
O121	O12	0.067700	0.130800	0.830400
C11	C1	0.446900	0.413000	0.017300
H11	H1	0.405600	0.403000	0.965400
H21	H2	0.371600	0.424000	0.052300
C21	C2	0.540400	0.470600	0.008300
H31	H3	0.596000	0.476100	0.057000
H41	H4	0.603600	0.463300	0.965000
C31	C3	0.044400	0.413800	0.472200
H51	H5	0.088500	0.400400	0.522100
H61	H6	0.118000	0.426500	0.437000
C41	C4	0.956000	0.471500	0.489300
H71	H7	0.898100	0.481100	0.442600
H81	H8	0.895000	0.462200	0.533000
C51	C5	0.028400	0.069500	0.965100
C61	C6	0.985000	0.010600	0.932200
C71	C7	0.455600	0.067900	0.533100
C81	C8	0.507000	0.011900	0.575800
C91	C9	0.528000	0.055700	0.462600
C101	C10	0.966000	0.056000	0.033900
U41	U4	0.718990	0.741480	0.537400
U51	U5	0.791050	0.741900	0.983740
U61	U6	0.256080	0.639770	0.757040
P51	P5	0.968200	0.843700	0.443590
P61	P6	0.542500	0.847480	0.071700
P71	P7	0.000000	0.641470	0.922390
P81	P8	0.510300	0.637600	0.592830
O131	O13	0.852400	0.824200	0.497300
O141	O14	0.080700	0.792700	0.436300
O151	O15	0.912000	0.860500	0.360800
O161	O16	0.658700	0.826400	0.018700
O171	O17	0.433300	0.796000	0.083000
O181	O18	0.600200	0.867600	0.152800
O191	O19	0.843500	0.647300	0.911500
O201	O20	0.040500	0.695300	0.980100
O211	O21	0.074100	0.646800	0.843800
O221	O22	0.468700	0.696400	0.544800
O231	O23	0.665900	0.645400	0.607800
O241	O24	0.432300	0.630800	0.669600
C111	C11	0.053100	0.913000	0.482700
H91	H9	0.094400	0.903000	0.534600
H101	H10	0.128400	0.924000	0.447700
C121	C12	0.959600	0.970600	0.491700
H111	H11	0.904000	0.976100	0.443000
H121	H12	0.896400	0.963300	0.535000
C131	C13	0.455600	0.913800	0.027800
H131	H13	0.411500	0.900400	0.977900
H141	H14	0.382000	0.926500	0.063000
C141	C14	0.544000	0.971500	0.010700
H151	H15	0.601900	0.981100	0.057400
H161	H16	0.605000	0.962200	0.967000
C151	C15	0.471600	0.569500	0.534900
C161	C16	0.515000	0.510600	0.567800
C171	C17	0.044400	0.567900	0.966900
C181	C18	0.993000	0.511900	0.924200
C191	C19	0.972000	0.555700	0.037400
C201	C20	0.534000	0.556000	0.466100
U71	U7	0.218990	0.758520	0.037400
U81	U8	0.291050	0.758100	0.483740
U91	U9	0.756080	0.860230	0.257040
P91	P9	0.468200	0.656300	0.943590
P101	P10	0.042500	0.652520	0.571700
P111	P11	0.500000	0.858530	0.422390
P121	P12	0.010300	0.862400	0.092830
O251	O25	0.352400	0.675800	0.997300
O261	O26	0.580700	0.707300	0.936300
O271	O27	0.412000	0.639500	0.860800
O281	O28	0.158700	0.673600	0.518700
O291	O29	0.933300	0.704000	0.583000
O301	O30	0.100200	0.632400	0.652800
O311	O31	0.343500	0.852700	0.411500
O321	O32	0.540500	0.804700	0.480100
O331	O33	0.574100	0.853200	0.343800
O341	O34	0.968700	0.803600	0.044800
O351	O35	0.165900	0.854600	0.107800
O361	O36	0.932300	0.869200	0.169600
C211	C21	0.553100	0.587000	0.982700
H171	H17	0.594400	0.597000	0.034600
H181	H18	0.628400	0.576000	0.947700
C221	C22	0.459600	0.529400	0.991700
H191	H19	0.404000	0.523900	0.943000
H201	H20	0.396400	0.536700	0.035000
C231	C23	0.955600	0.586200	0.527800
H211	H21	0.911500	0.599600	0.477900
H221	H22	0.882000	0.573500	0.563000
C241	C24	0.044000	0.528500	0.510700
H231	H23	0.101900	0.518900	0.557400
H241	H24	0.105000	0.537800	0.467000
C251	C25	0.971600	0.930500	0.034900
C261	C26	0.015000	0.989400	0.067800
C271	C27	0.544400	0.932100	0.466900
C281	C28	0.493000	0.988100	0.424200
C291	C29	0.472000	0.944300	0.537400
C301	C30	0.034000	0.944000	0.966100
U101	U10	0.281010	0.258520	0.462600
U111	U11	0.208950	0.258100	0.016260
U121	U12	0.743920	0.360230	0.242960
P131	P13	0.031800	0.156300	0.556410
P141	P14	0.457500	0.152520	0.928300
P151	P15	0.000000	0.358530	0.077610
P161	P16	0.489700	0.362400	0.407170
O371	O37	0.147600	0.175800	0.502700
O381	O38	0.919300	0.207300	0.563700
O391	O39	0.088000	0.139500	0.639200
O401	O40	0.341300	0.173600	0.981300
O411	O41	0.566700	0.204000	0.917000
O421	O42	0.399800	0.132400	0.847200
O431	O43	0.156500	0.352700	0.088500
O441	O44	0.959500	0.304700	0.019900
O451	O45	0.925900	0.353200	0.156200
O461	O46	0.531300	0.303600	0.455200
O471	O47	0.334100	0.354600	0.392200
O481	O48	0.567700	0.369200	0.330400
C311	C31	0.946900	0.087000	0.517300
H251	H25	0.905600	0.097000	0.465400
H261	H26	0.871600	0.076000	0.552300
C321	C32	0.040400	0.029400	0.508300
H271	H27	0.096000	0.023900	0.557000
H281	H28	0.103600	0.036700	0.465000
C331	C33	0.544400	0.086200	0.972200
H291	H29	0.588500	0.099600	0.022100
H301	H30	0.618000	0.073500	0.937000
C341	C34	0.456000	0.028500	0.989300
H311	H31	0.398100	0.018900	0.942600
H321	H32	0.395000	0.037800	0.033000
C351	C35	0.528400	0.430500	0.465100
C361	C36	0.485000	0.489400	0.432200
C371	C37	0.955600	0.432100	0.033100
C381	C38	0.007000	0.488100	0.075800
C391	C39	0.028000	0.444300	0.962600
C401	C40	0.466000	0.444000	0.533900
