data_MILQIJ_clean_PM
_symmetry_space_group_name_H-M	'P1'
_cell_length_a	6.616900
_cell_length_b	9.430000
_cell_length_c	9.464200
_cell_angle_alpha	107.577000
_cell_angle_beta	107.725000
_cell_angle_gamma	93.208800
_symmetry_Int_Tables_number 1

loop_
_symmetry_equiv_pos_as_xyz
'x,y,z'

loop_
_atom_site_label
_atom_site_type_symbol
_atom_site_fract_x
_atom_site_fract_y
_atom_site_fract_z
O11	O1	0.253300	0.932900	0.017000
O21	O2	0.494700	0.178400	0.173600
O31	O3	0.179600	0.170400	0.166400
O41	O4	0.962500	0.911500	0.167000
O51	O5	0.638300	0.895600	0.154700
C11	C1	0.363800	0.232000	0.230700
C21	C2	0.443100	0.347000	0.393300
C31	C3	0.650300	0.436700	0.391300
C41	C4	0.279400	0.438800	0.446700
C51	C5	0.827000	0.890400	0.231260
C61	C6	0.880800	0.846700	0.374700
C71	C7	0.748600	0.951100	0.449700
C81	C8	0.881800	0.092900	0.552500
O61	O6	0.746700	0.067100	0.983000
O71	O7	0.505300	0.821600	0.826400
O81	O8	0.820400	0.829600	0.833600
O91	O9	0.037500	0.088500	0.833000
O101	O10	0.361700	0.104400	0.845300
C91	C9	0.636200	0.768000	0.769300
C101	C10	0.556900	0.653000	0.606700
C111	C11	0.349700	0.563300	0.608700
C121	C12	0.720600	0.561200	0.553300
C131	C13	0.173000	0.109600	0.768740
C141	C14	0.119200	0.153300	0.625300
C151	C15	0.251400	0.048900	0.550300
C161	C16	0.118200	0.907100	0.447500
Al11	Al1	0.000000	0.000000	0.000000
Al21	Al2	0.500000	0.000000	0.000000
