data_MIQLII_clean_PM
_symmetry_space_group_name_H-M	'P1'
_cell_length_a	10.249600
_cell_length_b	13.458300
_cell_length_c	16.242200
_cell_angle_alpha	90.000000
_cell_angle_beta	95.720000
_cell_angle_gamma	90.000000
_symmetry_Int_Tables_number 1

loop_
_symmetry_equiv_pos_as_xyz
'x,y,z'

loop_
_atom_site_label
_atom_site_type_symbol
_atom_site_fract_x
_atom_site_fract_y
_atom_site_fract_z
Zn11	Zn1	0.124110	0.531530	0.455080
Zn21	Zn2	0.978330	0.706080	0.564000
Br11	Br1	0.970810	0.855210	0.491940
C11	C1	0.381270	0.683910	0.641350
C21	C2	0.384630	0.753430	0.705110
H11	H1	0.306500	0.778200	0.721400
C31	C3	0.502820	0.786110	0.744610
C41	C4	0.619850	0.749110	0.719990
H21	H2	0.699600	0.771200	0.745900
C51	C5	0.617380	0.679060	0.656620
C61	C6	0.498460	0.646220	0.618370
H31	H3	0.497000	0.598500	0.576900
C71	C7	0.252950	0.652770	0.596960
C81	C8	0.501410	0.859910	0.814530
C91	C9	0.742640	0.639490	0.627850
O11	O1	0.257850	0.596630	0.534910
O21	O2	0.151350	0.684320	0.624760
O31	O3	0.393040	0.888720	0.832770
O41	O4	0.611880	0.887700	0.850010
O51	O5	0.843220	0.693110	0.641900
O61	O6	0.735610	0.557920	0.591330
O71	O7	0.950460	0.590030	0.493130
Zn31	Zn3	0.375890	0.031530	0.044920
Zn41	Zn4	0.521670	0.206080	0.936000
Br21	Br2	0.529190	0.355210	0.008060
C101	C10	0.118730	0.183910	0.858650
C111	C11	0.115370	0.253430	0.794890
H41	H4	0.193500	0.278200	0.778600
C121	C12	0.997180	0.286110	0.755390
C131	C13	0.880150	0.249110	0.780010
H51	H5	0.800400	0.271200	0.754100
C141	C14	0.882620	0.179060	0.843380
C151	C15	0.001540	0.146220	0.881630
H61	H6	0.003000	0.098500	0.923100
C161	C16	0.247050	0.152770	0.903040
C171	C17	0.998590	0.359910	0.685470
C181	C18	0.757360	0.139490	0.872150
O81	O8	0.242150	0.096630	0.965090
O91	O9	0.348650	0.184320	0.875240
O101	O10	0.106960	0.388720	0.667230
O111	O11	0.888120	0.387700	0.649990
O121	O12	0.656780	0.193110	0.858100
O131	O13	0.764390	0.057920	0.908670
O141	O14	0.549540	0.090030	0.006870
Zn51	Zn5	0.875890	0.468470	0.544920
Zn61	Zn6	0.021670	0.293920	0.436000
Br31	Br3	0.029190	0.144790	0.508060
C191	C19	0.618730	0.316090	0.358650
C201	C20	0.615370	0.246570	0.294890
H71	H7	0.693500	0.221800	0.278600
C211	C21	0.497180	0.213890	0.255390
C221	C22	0.380150	0.250890	0.280010
H81	H8	0.300400	0.228800	0.254100
C231	C23	0.382620	0.320940	0.343380
C241	C24	0.501540	0.353780	0.381630
H91	H9	0.503000	0.401500	0.423100
C251	C25	0.747050	0.347230	0.403040
C261	C26	0.498590	0.140090	0.185470
C271	C27	0.257360	0.360510	0.372150
O151	O15	0.742150	0.403370	0.465090
O161	O16	0.848650	0.315680	0.375240
O171	O17	0.606960	0.111280	0.167230
O181	O18	0.388120	0.112300	0.149990
O191	O19	0.156780	0.306890	0.358100
O201	O20	0.264390	0.442080	0.408670
O211	O21	0.049540	0.409970	0.506870
Zn71	Zn7	0.624110	0.968470	0.955080
Zn81	Zn8	0.478330	0.793920	0.064000
Br41	Br4	0.470810	0.644790	0.991940
C281	C28	0.881270	0.816090	0.141350
C291	C29	0.884630	0.746570	0.205110
H101	H10	0.806500	0.721800	0.221400
C301	C30	0.002820	0.713890	0.244610
C311	C31	0.119850	0.750890	0.219990
H111	H11	0.199600	0.728800	0.245900
C321	C32	0.117380	0.820940	0.156620
C331	C33	0.998460	0.853780	0.118370
H121	H12	0.997000	0.901500	0.076900
C341	C34	0.752950	0.847230	0.096960
C351	C35	0.001410	0.640090	0.314530
C361	C36	0.242640	0.860510	0.127850
O221	O22	0.757850	0.903370	0.034910
O231	O23	0.651350	0.815680	0.124760
O241	O24	0.893040	0.611280	0.332770
O251	O25	0.111880	0.612300	0.350010
O261	O26	0.343220	0.806890	0.141900
O271	O27	0.235610	0.942080	0.091330
O281	O28	0.450460	0.909970	0.993130
