data_MISQIQ05_clean_PM
_symmetry_space_group_name_H-M	'P1'
_cell_length_a	9.342100
_cell_length_b	9.342100
_cell_length_c	6.996000
_cell_angle_alpha	90.000000
_cell_angle_beta	90.000000
_cell_angle_gamma	120.000000
_symmetry_Int_Tables_number 1

loop_
_symmetry_equiv_pos_as_xyz
'x,y,z'

loop_
_atom_site_label
_atom_site_type_symbol
_atom_site_fract_x
_atom_site_fract_y
_atom_site_fract_z
O11	O1	0.573400	0.721600	0.040900
O21	O2	0.434500	0.467500	0.830200
Al11	Al1	0.478920	0.838000	0.943640
O31	O3	0.270100	0.698600	0.040400
H11	H1	0.204000	0.652000	0.968000
O41	O4	0.278400	0.851800	0.374230
O51	O5	0.532500	0.967000	0.163530
Al21	Al2	0.162000	0.640920	0.276970
O61	O6	0.301400	0.571500	0.373730
H21	H2	0.348000	0.552000	0.301330
O71	O7	0.148200	0.426600	0.707570
O81	O8	0.033000	0.565500	0.496870
Al31	Al3	0.359080	0.521080	0.610310
O91	O9	0.428500	0.729900	0.707070
H31	H3	0.448000	0.796000	0.634670
O101	O10	0.721600	0.573400	0.959100
O111	O11	0.467500	0.434500	0.169800
Al41	Al4	0.838000	0.478920	0.056360
O121	O12	0.698600	0.270100	0.959600
H41	H4	0.652000	0.204000	0.032000
O131	O13	0.851800	0.278400	0.625770
O141	O14	0.967000	0.532500	0.836470
Al51	Al5	0.640920	0.162000	0.723030
O151	O15	0.571500	0.301400	0.626270
H51	H5	0.552000	0.348000	0.698670
O161	O16	0.426600	0.148200	0.292430
O171	O17	0.565500	0.033000	0.503130
Al61	Al6	0.521080	0.359080	0.389690
O181	O18	0.729900	0.428500	0.292930
H61	H6	0.796000	0.448000	0.365330
P11	P1	0.550590	0.550590	0.000000
P21	P2	0.449410	0.000000	0.333330
P31	P3	0.000000	0.449410	0.666670
F11	F1	0.681800	0.000000	0.833330
F21	F2	0.431700	0.000000	0.833330
F31	F3	0.000000	0.681800	0.166670
F41	F4	0.000000	0.431700	0.166670
F51	F5	0.318200	0.318200	0.500000
F61	F6	0.568300	0.568300	0.500000
