data_MISQIQ03_clean_PM
_symmetry_space_group_name_H-M	'P1'
_cell_length_a	9.362000
_cell_length_b	9.362000
_cell_length_c	7.004000
_cell_angle_alpha	90.000000
_cell_angle_beta	90.000000
_cell_angle_gamma	120.000000
_symmetry_Int_Tables_number 1

loop_
_symmetry_equiv_pos_as_xyz
'x,y,z'

loop_
_atom_site_label
_atom_site_type_symbol
_atom_site_fract_x
_atom_site_fract_y
_atom_site_fract_z
Al11	Al1	0.162000	0.520990	0.056330
O11	O1	0.301500	0.730000	0.960200
H11	H1	0.345700	0.812200	0.062100
O21	O2	0.278500	0.427200	0.959200
O31	O3	0.532800	0.565300	0.169400
Al21	Al2	0.479010	0.641010	0.389660
O41	O4	0.270000	0.571500	0.293530
H21	H2	0.187800	0.533500	0.395430
O51	O5	0.572800	0.851300	0.292530
O61	O6	0.434700	0.967500	0.502730
Al31	Al3	0.358990	0.838000	0.723000
O71	O7	0.428500	0.698500	0.626870
H31	H3	0.466500	0.654300	0.728770
O81	O8	0.148700	0.721500	0.625870
O91	O9	0.032500	0.467200	0.836070
Al41	Al4	0.520990	0.162000	0.943670
O101	O10	0.730000	0.301500	0.039800
H41	H4	0.812200	0.345700	0.937900
O111	O11	0.427200	0.278500	0.040800
O121	O12	0.565300	0.532800	0.830600
Al51	Al5	0.641010	0.479010	0.610340
O131	O13	0.571500	0.270000	0.706470
H51	H5	0.533500	0.187800	0.604570
O141	O14	0.851300	0.572800	0.707470
O151	O15	0.967500	0.434700	0.497270
Al61	Al6	0.838000	0.358990	0.277000
O161	O16	0.698500	0.428500	0.373130
H61	H6	0.654300	0.466500	0.271230
O171	O17	0.721500	0.148700	0.374130
O181	O18	0.467200	0.032500	0.163930
P11	P1	0.449340	0.449340	0.000000
P21	P2	0.550660	0.000000	0.333330
P31	P3	0.000000	0.550660	0.666670
F11	F1	0.000000	0.317800	0.166670
F21	F2	0.000000	0.568600	0.166670
F31	F3	0.682200	0.682200	0.500000
F41	F4	0.431400	0.431400	0.500000
F51	F5	0.317800	0.000000	0.833330
F61	F6	0.568600	0.000000	0.833330
