data_MISQIQ06_clean_PM
_symmetry_space_group_name_H-M	'P1'
_cell_length_a	9.337600
_cell_length_b	9.337600
_cell_length_c	6.991000
_cell_angle_alpha	90.000000
_cell_angle_beta	90.000000
_cell_angle_gamma	120.000000
_symmetry_Int_Tables_number 1

loop_
_symmetry_equiv_pos_as_xyz
'x,y,z'

loop_
_atom_site_label
_atom_site_type_symbol
_atom_site_fract_x
_atom_site_fract_y
_atom_site_fract_z
Al11	Al1	0.478810	0.837840	0.943820
O11	O1	0.270300	0.698700	0.040400
H11	H1	0.193600	0.641100	0.958300
O21	O2	0.572600	0.721500	0.040700
O31	O3	0.434400	0.467200	0.830700
Al21	Al2	0.162160	0.640970	0.277150
O41	O4	0.301300	0.571600	0.373730
H21	H2	0.358900	0.552500	0.291630
O51	O5	0.278500	0.851100	0.374030
O61	O6	0.532800	0.967200	0.164030
Al31	Al3	0.359030	0.521190	0.610490
O71	O7	0.428400	0.729700	0.707070
H31	H3	0.447500	0.806400	0.624970
O81	O8	0.148900	0.427400	0.707370
O91	O9	0.032800	0.565600	0.497370
Al41	Al4	0.837840	0.478810	0.056180
O101	O10	0.698700	0.270300	0.959600
H41	H4	0.641100	0.193600	0.041700
O111	O11	0.721500	0.572600	0.959300
O121	O12	0.467200	0.434400	0.169300
Al51	Al5	0.640970	0.162160	0.722850
O131	O13	0.571600	0.301300	0.626270
H51	H5	0.552500	0.358900	0.708370
O141	O14	0.851100	0.278500	0.625970
O151	O15	0.967200	0.532800	0.835970
Al61	Al6	0.521190	0.359030	0.389510
O161	O16	0.729700	0.428400	0.292930
H61	H6	0.806400	0.447500	0.375030
O171	O17	0.427400	0.148900	0.292630
O181	O18	0.565600	0.032800	0.502630
P11	P1	0.550710	0.550710	0.000000
P21	P2	0.449290	0.000000	0.333330
P31	P3	0.000000	0.449290	0.666670
F11	F1	0.682100	0.000000	0.833330
F21	F2	0.431900	0.000000	0.833330
F31	F3	0.000000	0.682100	0.166670
F41	F4	0.000000	0.431900	0.166670
F51	F5	0.317900	0.317900	0.500000
F61	F6	0.568100	0.568100	0.500000
