data_MITGOL_clean_PM
_symmetry_space_group_name_H-M	'P1'
_cell_length_a	9.673900
_cell_length_b	11.003900
_cell_length_c	11.552300
_cell_angle_alpha	104.833000
_cell_angle_beta	91.000000
_cell_angle_gamma	114.257000
_symmetry_Int_Tables_number 1

loop_
_symmetry_equiv_pos_as_xyz
'x,y,z'

loop_
_atom_site_label
_atom_site_type_symbol
_atom_site_fract_x
_atom_site_fract_y
_atom_site_fract_z
Er11	Er1	0.492270	0.992760	0.253530
Er21	Er2	0.516860	0.424470	0.329990
Er31	Er3	0.507730	0.007240	0.746470
Er41	Er4	0.483140	0.575530	0.670010
H11	H1	0.993000	0.316500	0.344700
H21	H2	0.089800	0.202200	0.159300
H31	H3	0.012600	0.217800	0.591000
H41	H4	0.007000	0.683500	0.655300
H51	H5	0.910200	0.797800	0.840700
H61	H6	0.987400	0.782200	0.409000
C11	C1	0.717500	0.250200	0.393100
C21	C2	0.859200	0.382300	0.450100
C31	C3	0.995300	0.390300	0.407200
C41	C4	0.865600	0.494800	0.545300
C51	C5	0.728100	0.498200	0.600900
C61	C6	0.314100	0.129300	0.111800
C71	C7	0.152900	0.064400	0.050900
C81	C8	0.053400	0.120800	0.095300
C91	C9	0.098900	0.941600	0.954000
C101	C10	0.209600	0.887100	0.897200
C111	C11	0.258500	0.253600	0.491100
C121	C12	0.126600	0.119300	0.496400
C131	C13	0.007700	0.130100	0.554100
C141	C14	0.120300	0.988000	0.441700
C151	C15	0.249600	0.970100	0.382400
C161	C16	0.282500	0.749800	0.606900
C171	C17	0.140800	0.617700	0.549900
C181	C18	0.004700	0.609700	0.592800
C191	C19	0.134400	0.505200	0.454700
C201	C20	0.271900	0.501800	0.399100
C211	C21	0.685900	0.870700	0.888200
C221	C22	0.847100	0.935600	0.949100
C231	C23	0.946600	0.879200	0.904700
C241	C24	0.901100	0.058400	0.046000
C251	C25	0.790400	0.112900	0.102800
C261	C26	0.741500	0.746400	0.508900
C271	C27	0.873400	0.880700	0.503600
C281	C28	0.992300	0.869900	0.445900
C291	C29	0.879700	0.012000	0.558300
C301	C30	0.750400	0.029900	0.617600
O11	O1	0.717200	0.138800	0.398500
O21	O2	0.605600	0.251000	0.333200
O31	O3	0.598800	0.446700	0.533600
O41	O4	0.742200	0.558400	0.709700
O51	O5	0.371300	0.050200	0.126500
O61	O6	0.383600	0.261200	0.149400
O71	O7	0.318800	0.971000	0.859900
O81	O8	0.183200	0.763700	0.886800
O91	O9	0.295400	0.353500	0.587600
O101	O10	0.313700	0.258200	0.394700
O111	O11	0.387700	0.048100	0.432000
O121	O12	0.223600	0.879700	0.283000
O131	O13	0.282800	0.861200	0.601500
O141	O14	0.394400	0.749000	0.666800
O151	O15	0.401200	0.553300	0.466400
O161	O16	0.257800	0.441600	0.290300
O171	O17	0.628700	0.949800	0.873500
O181	O18	0.616400	0.738800	0.850600
O191	O19	0.681200	0.029000	0.140100
O201	O20	0.816800	0.236300	0.113200
O211	O21	0.704600	0.646500	0.412400
O221	O22	0.686300	0.741800	0.605300
O231	O23	0.612300	0.951900	0.568000
O241	O24	0.776400	0.120300	0.717000
