data_MITSUE_clean_PM
_symmetry_space_group_name_H-M	'P1'
_cell_length_a	10.035500
_cell_length_b	12.819000
_cell_length_c	15.479700
_cell_angle_alpha	90.000000
_cell_angle_beta	102.486000
_cell_angle_gamma	90.000000
_symmetry_Int_Tables_number 1

loop_
_symmetry_equiv_pos_as_xyz
'x,y,z'

loop_
_atom_site_label
_atom_site_type_symbol
_atom_site_fract_x
_atom_site_fract_y
_atom_site_fract_z
Cd11	Cd1	0.178710	0.966050	0.091690
O11	O1	0.378650	0.913920	0.048330
O21	O2	0.348640	0.844790	0.172270
O31	O3	0.688340	0.599530	0.333900
O41	O4	0.874890	0.565680	0.290860
O51	O5	0.025860	0.845660	0.103730
O61	O6	0.879870	0.968750	0.045620
C11	C1	0.421260	0.861640	0.117350
C21	C2	0.563250	0.819750	0.134880
C31	C3	0.662950	0.863770	0.095040
H11	H1	0.639700	0.917400	0.054100
C41	C4	0.796710	0.827290	0.116840
C51	C5	0.829320	0.743690	0.175290
H21	H2	0.917600	0.717100	0.187500
C61	C6	0.732330	0.699900	0.215320
C71	C7	0.599540	0.738830	0.195100
H31	H3	0.534100	0.710200	0.222400
C81	C8	0.768010	0.615840	0.283730
C91	C9	0.906880	0.883570	0.084240
Cd21	Cd2	0.821290	0.466050	0.408320
O71	O7	0.621350	0.413920	0.451670
O81	O8	0.651360	0.344790	0.327730
O91	O9	0.311660	0.099530	0.166100
O101	O10	0.125110	0.065680	0.209140
O111	O11	0.974140	0.345660	0.396270
O121	O12	0.120130	0.468750	0.454380
C101	C10	0.578740	0.361640	0.382650
C111	C11	0.436750	0.319750	0.365120
C121	C12	0.337050	0.363770	0.404960
H41	H4	0.360300	0.417400	0.445900
C131	C13	0.203290	0.327290	0.383160
C141	C14	0.170680	0.243690	0.324710
H51	H5	0.082400	0.217100	0.312500
C151	C15	0.267670	0.199900	0.284680
C161	C16	0.400460	0.238830	0.304900
H61	H6	0.465900	0.210200	0.277600
C171	C17	0.231990	0.115840	0.216270
C181	C18	0.093120	0.383570	0.415760
Cd31	Cd3	0.821290	0.033950	0.908320
O131	O13	0.621350	0.086080	0.951670
O141	O14	0.651360	0.155210	0.827730
O151	O15	0.311660	0.400470	0.666100
O161	O16	0.125110	0.434320	0.709140
O171	O17	0.974140	0.154340	0.896270
O181	O18	0.120130	0.031250	0.954380
C191	C19	0.578740	0.138360	0.882650
C201	C20	0.436750	0.180250	0.865120
C211	C21	0.337050	0.136230	0.904960
H71	H7	0.360300	0.082600	0.945900
C221	C22	0.203290	0.172710	0.883160
C231	C23	0.170680	0.256310	0.824710
H81	H8	0.082400	0.282900	0.812500
C241	C24	0.267670	0.300100	0.784680
C251	C25	0.400460	0.261170	0.804900
H91	H9	0.465900	0.289800	0.777600
C261	C26	0.231990	0.384160	0.716270
C271	C27	0.093120	0.116430	0.915760
Cd41	Cd4	0.178710	0.533950	0.591690
O191	O19	0.378650	0.586080	0.548330
O201	O20	0.348640	0.655210	0.672270
O211	O21	0.688340	0.900470	0.833900
O221	O22	0.874890	0.934320	0.790860
O231	O23	0.025860	0.654340	0.603730
O241	O24	0.879870	0.531250	0.545620
C281	C28	0.421260	0.638360	0.617350
C291	C29	0.563250	0.680250	0.634880
C301	C30	0.662950	0.636230	0.595040
H101	H10	0.639700	0.582600	0.554100
C311	C31	0.796710	0.672710	0.616840
C321	C32	0.829320	0.756310	0.675290
H111	H11	0.917600	0.782900	0.687500
C331	C33	0.732330	0.800100	0.715320
C341	C34	0.599540	0.761170	0.695100
H121	H12	0.534100	0.789800	0.722400
C351	C35	0.768010	0.884160	0.783730
C361	C36	0.906880	0.616430	0.584240
