data_MITSAK_clean_PM
_symmetry_space_group_name_H-M	'P1'
_cell_length_a	16.098400
_cell_length_b	14.607000
_cell_length_c	16.125700
_cell_angle_alpha	90.000000
_cell_angle_beta	101.479000
_cell_angle_gamma	90.000000
_symmetry_Int_Tables_number 1

loop_
_symmetry_equiv_pos_as_xyz
'x,y,z'

loop_
_atom_site_label
_atom_site_type_symbol
_atom_site_fract_x
_atom_site_fract_y
_atom_site_fract_z
Cd11	Cd1	0.457720	0.931800	0.391400
Cd21	Cd2	0.042330	0.067340	0.108630
O11	O1	0.147160	0.035400	0.237290
O21	O2	0.053730	0.144900	0.235920
O31	O3	0.404120	0.034000	0.472920
O41	O4	0.405640	0.125850	0.583460
O51	O5	0.167300	0.326900	0.598540
O61	O6	0.053630	0.327400	0.496560
O71	O7	0.443700	0.827700	0.500470
O81	O8	0.330300	0.827400	0.400500
O91	O9	0.444800	0.649300	0.762900
O101	O10	0.352900	0.540500	0.764680
O111	O11	0.094400	0.623500	0.415570
O121	O12	0.094220	0.537200	0.524000
C11	C1	0.117700	0.103300	0.270900
C21	C2	0.166500	0.133600	0.360100
C31	C3	0.128900	0.200400	0.400900
H11	H1	0.076800	0.224900	0.375100
C41	C4	0.167900	0.230400	0.478500
C51	C5	0.246000	0.193900	0.515200
H21	H2	0.273800	0.215000	0.567800
C61	C6	0.283600	0.125900	0.474400
C71	C7	0.243900	0.098100	0.395700
H31	H3	0.269500	0.055200	0.366300
C81	C8	0.129100	0.298900	0.531400
C91	C9	0.369800	0.092100	0.512700
C101	C10	0.371700	0.798400	0.472100
C111	C11	0.329400	0.730700	0.514800
C121	C12	0.371800	0.699400	0.601900
H41	H4	0.423000	0.725900	0.627700
C131	C13	0.338800	0.636400	0.641800
C141	C14	0.259700	0.597600	0.606400
H51	H5	0.236200	0.552500	0.635400
C151	C15	0.214100	0.629500	0.522200
C161	C16	0.253700	0.691500	0.484400
H61	H6	0.226200	0.710100	0.430800
C171	C17	0.380600	0.603700	0.731100
C181	C18	0.128400	0.591800	0.486700
Cd31	Cd3	0.542280	0.431800	0.108600
Cd41	Cd4	0.957670	0.567340	0.391370
O131	O13	0.852840	0.535400	0.262710
O141	O14	0.946270	0.644900	0.264080
O151	O15	0.595880	0.534000	0.027080
O161	O16	0.594360	0.625850	0.916540
O171	O17	0.832700	0.826900	0.901460
O181	O18	0.946370	0.827400	0.003440
O191	O19	0.556300	0.327700	0.999530
O201	O20	0.669700	0.327400	0.099500
O211	O21	0.555200	0.149300	0.737100
O221	O22	0.647100	0.040500	0.735320
O231	O23	0.905600	0.123500	0.084430
O241	O24	0.905780	0.037200	0.976000
C191	C19	0.882300	0.603300	0.229100
C201	C20	0.833500	0.633600	0.139900
C211	C21	0.871100	0.700400	0.099100
H71	H7	0.923200	0.724900	0.124900
C221	C22	0.832100	0.730400	0.021500
C231	C23	0.754000	0.693900	0.984800
H81	H8	0.726200	0.715000	0.932200
C241	C24	0.716400	0.625900	0.025600
C251	C25	0.756100	0.598100	0.104300
H91	H9	0.730500	0.555200	0.133700
C261	C26	0.870900	0.798900	0.968600
C271	C27	0.630200	0.592100	0.987300
C281	C28	0.628300	0.298400	0.027900
C291	C29	0.670600	0.230700	0.985200
C301	C30	0.628200	0.199400	0.898100
H101	H10	0.577000	0.225900	0.872300
C311	C31	0.661200	0.136400	0.858200
C321	C32	0.740300	0.097600	0.893600
H111	H11	0.763800	0.052500	0.864600
C331	C33	0.785900	0.129500	0.977800
C341	C34	0.746300	0.191500	0.015600
H121	H12	0.773800	0.210100	0.069200
C351	C35	0.619400	0.103700	0.768900
C361	C36	0.871600	0.091800	0.013300
Cd51	Cd5	0.542280	0.068200	0.608600
Cd61	Cd6	0.957670	0.932660	0.891370
O251	O25	0.852840	0.964600	0.762710
O261	O26	0.946270	0.855100	0.764080
O271	O27	0.595880	0.966000	0.527080
O281	O28	0.594360	0.874150	0.416540
O291	O29	0.832700	0.673100	0.401460
O301	O30	0.946370	0.672600	0.503440
O311	O31	0.556300	0.172300	0.499530
O321	O32	0.669700	0.172600	0.599500
O331	O33	0.555200	0.350700	0.237100
O341	O34	0.647100	0.459500	0.235320
O351	O35	0.905600	0.376500	0.584430
O361	O36	0.905780	0.462800	0.476000
C371	C37	0.882300	0.896700	0.729100
C381	C38	0.833500	0.866400	0.639900
C391	C39	0.871100	0.799600	0.599100
H131	H13	0.923200	0.775100	0.624900
C401	C40	0.832100	0.769600	0.521500
C411	C41	0.754000	0.806100	0.484800
H141	H14	0.726200	0.785000	0.432200
C421	C42	0.716400	0.874100	0.525600
C431	C43	0.756100	0.901900	0.604300
H151	H15	0.730500	0.944800	0.633700
C441	C44	0.870900	0.701100	0.468600
C451	C45	0.630200	0.907900	0.487300
C461	C46	0.628300	0.201600	0.527900
C471	C47	0.670600	0.269300	0.485200
C481	C48	0.628200	0.300600	0.398100
H161	H16	0.577000	0.274100	0.372300
C491	C49	0.661200	0.363600	0.358200
C501	C50	0.740300	0.402400	0.393600
H171	H17	0.763800	0.447500	0.364600
C511	C51	0.785900	0.370500	0.477800
C521	C52	0.746300	0.308500	0.515600
H181	H18	0.773800	0.289900	0.569200
C531	C53	0.619400	0.396300	0.268900
C541	C54	0.871600	0.408200	0.513300
Cd71	Cd7	0.457720	0.568200	0.891400
Cd81	Cd8	0.042330	0.432660	0.608630
O371	O37	0.147160	0.464600	0.737290
O381	O38	0.053730	0.355100	0.735920
O391	O39	0.404120	0.466000	0.972920
O401	O40	0.405640	0.374150	0.083460
O411	O41	0.167300	0.173100	0.098540
O421	O42	0.053630	0.172600	0.996560
O431	O43	0.443700	0.672300	0.000470
O441	O44	0.330300	0.672600	0.900500
O451	O45	0.444800	0.850700	0.262900
O461	O46	0.352900	0.959500	0.264680
O471	O47	0.094400	0.876500	0.915570
O481	O48	0.094220	0.962800	0.024000
C551	C55	0.117700	0.396700	0.770900
C561	C56	0.166500	0.366400	0.860100
C571	C57	0.128900	0.299600	0.900900
H191	H19	0.076800	0.275100	0.875100
C581	C58	0.167900	0.269600	0.978500
C591	C59	0.246000	0.306100	0.015200
H201	H20	0.273800	0.285000	0.067800
C601	C60	0.283600	0.374100	0.974400
C611	C61	0.243900	0.401900	0.895700
H211	H21	0.269500	0.444800	0.866300
C621	C62	0.129100	0.201100	0.031400
C631	C63	0.369800	0.407900	0.012700
C641	C64	0.371700	0.701600	0.972100
C651	C65	0.329400	0.769300	0.014800
C661	C66	0.371800	0.800600	0.101900
H221	H22	0.423000	0.774100	0.127700
C671	C67	0.338800	0.863600	0.141800
C681	C68	0.259700	0.902400	0.106400
H231	H23	0.236200	0.947500	0.135400
C691	C69	0.214100	0.870500	0.022200
C701	C70	0.253700	0.808500	0.984400
H241	H24	0.226200	0.789900	0.930800
C711	C71	0.380600	0.896300	0.231100
C721	C72	0.128400	0.908200	0.986700
