data_MIVFOO_clean_PM
_symmetry_space_group_name_H-M	'P1'
_cell_length_a	18.915300
_cell_length_b	18.915300
_cell_length_c	18.915300
_cell_angle_alpha	90.000000
_cell_angle_beta	90.000000
_cell_angle_gamma	90.000000
_symmetry_Int_Tables_number 1

loop_
_symmetry_equiv_pos_as_xyz
'x,y,z'

loop_
_atom_site_label
_atom_site_type_symbol
_atom_site_fract_x
_atom_site_fract_y
_atom_site_fract_z
N11	N1	0.416770	0.367330	0.920180
N21	N2	0.406390	0.323340	0.867220
N31	N3	0.583230	0.632670	0.920180
N41	N4	0.593610	0.676660	0.867220
N51	N5	0.583230	0.367330	0.079820
N61	N6	0.593610	0.323340	0.132780
N71	N7	0.416770	0.632670	0.079820
N81	N8	0.406390	0.676660	0.132780
N91	N9	0.920180	0.416770	0.367330
N101	N10	0.867220	0.406390	0.323340
N111	N11	0.920180	0.583230	0.632670
N121	N12	0.867220	0.593610	0.676660
N131	N13	0.079820	0.583230	0.367330
N141	N14	0.132780	0.593610	0.323340
N151	N15	0.079820	0.416770	0.632670
N161	N16	0.132780	0.406390	0.676660
N171	N17	0.367330	0.920180	0.416770
N181	N18	0.323340	0.867220	0.406390
N191	N19	0.632670	0.920180	0.583230
N201	N20	0.676660	0.867220	0.593610
N211	N21	0.367330	0.079820	0.583230
N221	N22	0.323340	0.132780	0.593610
N231	N23	0.632670	0.079820	0.416770
N241	N24	0.676660	0.132780	0.406390
N251	N25	0.367330	0.416770	0.079820
N261	N26	0.323340	0.406390	0.132780
N271	N27	0.632670	0.583230	0.079820
N281	N28	0.676660	0.593610	0.132780
N291	N29	0.367330	0.583230	0.920180
N301	N30	0.323340	0.593610	0.867220
N311	N31	0.632670	0.416770	0.920180
N321	N32	0.676660	0.406390	0.867220
N331	N33	0.416770	0.920180	0.632670
N341	N34	0.406390	0.867220	0.676660
N351	N35	0.583230	0.920180	0.367330
N361	N36	0.593610	0.867220	0.323340
N371	N37	0.583230	0.079820	0.632670
N381	N38	0.593610	0.132780	0.676660
N391	N39	0.416770	0.079820	0.367330
N401	N40	0.406390	0.132780	0.323340
N411	N41	0.920180	0.367330	0.583230
N421	N42	0.867220	0.323340	0.593610
N431	N43	0.920180	0.632670	0.416770
N441	N44	0.867220	0.676660	0.406390
N451	N45	0.079820	0.367330	0.416770
N461	N46	0.132780	0.323340	0.406390
N471	N47	0.079820	0.632670	0.583230
N481	N48	0.132780	0.676660	0.593610
N491	N49	0.583230	0.632670	0.079820
N501	N50	0.593610	0.676660	0.132780
N511	N51	0.416770	0.367330	0.079820
N521	N52	0.406390	0.323340	0.132780
N531	N53	0.416770	0.632670	0.920180
N541	N54	0.406390	0.676660	0.867220
N551	N55	0.583230	0.367330	0.920180
N561	N56	0.593610	0.323340	0.867220
N571	N57	0.079820	0.583230	0.632670
N581	N58	0.132780	0.593610	0.676660
N591	N59	0.079820	0.416770	0.367330
N601	N60	0.132780	0.406390	0.323340
N611	N61	0.920180	0.416770	0.632670
N621	N62	0.867220	0.406390	0.676660
N631	N63	0.920180	0.583230	0.367330
N641	N64	0.867220	0.593610	0.323340
N651	N65	0.632670	0.079820	0.583230
N661	N66	0.676660	0.132780	0.593610
N671	N67	0.367330	0.079820	0.416770
N681	N68	0.323340	0.132780	0.406390
N691	N69	0.632670	0.920180	0.416770
N701	N70	0.676660	0.867220	0.406390
N711	N71	0.367330	0.920180	0.583230
N721	N72	0.323340	0.867220	0.593610
N731	N73	0.632670	0.583230	0.920180
N741	N74	0.676660	0.593610	0.867220
N751	N75	0.367330	0.416770	0.920180
N761	N76	0.323340	0.406390	0.867220
N771	N77	0.632670	0.416770	0.079820
N781	N78	0.676660	0.406390	0.132780
N791	N79	0.367330	0.583230	0.079820
N801	N80	0.323340	0.593610	0.132780
N811	N81	0.583230	0.079820	0.367330
N821	N82	0.593610	0.132780	0.323340
N831	N83	0.416770	0.079820	0.632670
N841	N84	0.406390	0.132780	0.676660
N851	N85	0.416770	0.920180	0.367330
N861	N86	0.406390	0.867220	0.323340
N871	N87	0.583230	0.920180	0.632670
N881	N88	0.593610	0.867220	0.676660
N891	N89	0.079820	0.632670	0.416770
N901	N90	0.132780	0.676660	0.406390
N911	N91	0.079820	0.367330	0.583230
N921	N92	0.132780	0.323340	0.593610
N931	N93	0.920180	0.632670	0.583230
N941	N94	0.867220	0.676660	0.593610
N951	N95	0.920180	0.367330	0.416770
N961	N96	0.867220	0.323340	0.406390
Cl11	Cl1	0.500000	0.500000	0.000000
Cl21	Cl2	0.000000	0.500000	0.500000
Cl31	Cl3	0.500000	0.000000	0.500000
Mn11	Mn1	0.500000	0.359580	0.000000
Mn21	Mn2	0.500000	0.640420	0.000000
Mn31	Mn3	0.000000	0.500000	0.359580
Mn41	Mn4	0.000000	0.500000	0.640420
Mn51	Mn5	0.359580	0.000000	0.500000
Mn61	Mn6	0.640420	0.000000	0.500000
Mn71	Mn7	0.359580	0.500000	0.000000
Mn81	Mn8	0.640420	0.500000	0.000000
Mn91	Mn9	0.500000	0.000000	0.640420
Mn101	Mn10	0.500000	0.000000	0.359580
Mn111	Mn11	0.000000	0.359580	0.500000
Mn121	Mn12	0.000000	0.640420	0.500000
C11	C1	0.348800	0.348800	0.834400
C21	C2	0.316900	0.316900	0.772100
C31	C3	0.651200	0.651200	0.834400
C41	C4	0.683100	0.683100	0.772100
C51	C5	0.651200	0.348800	0.165600
C61	C6	0.683100	0.316900	0.227900
C71	C7	0.348800	0.651200	0.165600
C81	C8	0.316900	0.683100	0.227900
C91	C9	0.834400	0.348800	0.348800
C101	C10	0.772100	0.316900	0.316900
C111	C11	0.834400	0.651200	0.651200
C121	C12	0.772100	0.683100	0.683100
C131	C13	0.165600	0.651200	0.348800
C141	C14	0.227900	0.683100	0.316900
C151	C15	0.165600	0.348800	0.651200
C161	C16	0.227900	0.316900	0.683100
C171	C17	0.348800	0.834400	0.348800
C181	C18	0.316900	0.772100	0.316900
C191	C19	0.651200	0.834400	0.651200
C201	C20	0.683100	0.772100	0.683100
C211	C21	0.348800	0.165600	0.651200
C221	C22	0.316900	0.227900	0.683100
C231	C23	0.651200	0.165600	0.348800
C241	C24	0.683100	0.227900	0.316900
C251	C25	0.348800	0.348800	0.165600
C261	C26	0.316900	0.316900	0.227900
C271	C27	0.651200	0.651200	0.165600
C281	C28	0.683100	0.683100	0.227900
C291	C29	0.348800	0.651200	0.834400
C301	C30	0.316900	0.683100	0.772100
C311	C31	0.651200	0.348800	0.834400
C321	C32	0.683100	0.316900	0.772100
C331	C33	0.348800	0.834400	0.651200
C341	C34	0.316900	0.772100	0.683100
C351	C35	0.651200	0.834400	0.348800
C361	C36	0.683100	0.772100	0.316900
C371	C37	0.651200	0.165600	0.651200
C381	C38	0.683100	0.227900	0.683100
C391	C39	0.348800	0.165600	0.348800
C401	C40	0.316900	0.227900	0.316900
C411	C41	0.834400	0.348800	0.651200
C421	C42	0.772100	0.316900	0.683100
C431	C43	0.834400	0.651200	0.348800
C441	C44	0.772100	0.683100	0.316900
C451	C45	0.165600	0.348800	0.348800
C461	C46	0.227900	0.316900	0.316900
C471	C47	0.165600	0.651200	0.651200
C481	C48	0.227900	0.683100	0.683100
C491	C49	0.346800	0.257600	0.742400
H11	H1	0.387100	0.237700	0.762300
C501	C50	0.653200	0.742400	0.742400
H21	H2	0.612900	0.762300	0.762300
C511	C51	0.653200	0.257600	0.257600
H31	H3	0.612900	0.237700	0.237700
C521	C52	0.346800	0.742400	0.257600
H41	H4	0.387100	0.762300	0.237700
C531	C53	0.742400	0.346800	0.257600
H51	H5	0.762300	0.387100	0.237700
C541	C54	0.742400	0.653200	0.742400
H61	H6	0.762300	0.612900	0.762300
C551	C55	0.257600	0.653200	0.257600
H71	H7	0.237700	0.612900	0.237700
C561	C56	0.257600	0.346800	0.742400
H81	H8	0.237700	0.387100	0.762300
C571	C57	0.257600	0.742400	0.346800
H91	H9	0.237700	0.762300	0.387100
C581	C58	0.742400	0.742400	0.653200
H101	H10	0.762300	0.762300	0.612900
C591	C59	0.257600	0.257600	0.653200
H111	H11	0.237700	0.237700	0.612900
C601	C60	0.742400	0.257600	0.346800
H121	H12	0.762300	0.237700	0.387100
C611	C61	0.257600	0.346800	0.257600
H131	H13	0.237700	0.387100	0.237700
C621	C62	0.742400	0.653200	0.257600
H141	H14	0.762300	0.612900	0.237700
C631	C63	0.257600	0.653200	0.742400
H151	H15	0.237700	0.612900	0.762300
C641	C64	0.742400	0.346800	0.742400
H161	H16	0.762300	0.387100	0.762300
C651	C65	0.346800	0.742400	0.742400
H171	H17	0.387100	0.762300	0.762300
C661	C66	0.653200	0.742400	0.257600
H181	H18	0.612900	0.762300	0.237700
C671	C67	0.653200	0.257600	0.742400
H191	H19	0.612900	0.237700	0.762300
C681	C68	0.346800	0.257600	0.257600
H201	H20	0.387100	0.237700	0.237700
C691	C69	0.742400	0.257600	0.653200
H211	H21	0.762300	0.237700	0.612900
C701	C70	0.742400	0.742400	0.346800
H221	H22	0.762300	0.762300	0.387100
C711	C71	0.257600	0.257600	0.346800
H231	H23	0.237700	0.237700	0.387100
C721	C72	0.257600	0.742400	0.653200
H241	H24	0.237700	0.762300	0.612900
Mn131	Mn13	0.500000	0.258400	0.857400
Mn141	Mn14	0.500000	0.741600	0.857400
Mn151	Mn15	0.500000	0.258400	0.142600
Mn161	Mn16	0.500000	0.741600	0.142600
Mn171	Mn17	0.857400	0.500000	0.258400
Mn181	Mn18	0.857400	0.500000	0.741600
Mn191	Mn19	0.142600	0.500000	0.258400
Mn201	Mn20	0.142600	0.500000	0.741600
Mn211	Mn21	0.258400	0.857400	0.500000
Mn221	Mn22	0.741600	0.857400	0.500000
Mn231	Mn23	0.258400	0.142600	0.500000
Mn241	Mn24	0.741600	0.142600	0.500000
Mn251	Mn25	0.258400	0.500000	0.142600
Mn261	Mn26	0.741600	0.500000	0.142600
Mn271	Mn27	0.258400	0.500000	0.857400
Mn281	Mn28	0.741600	0.500000	0.857400
Mn291	Mn29	0.500000	0.857400	0.741600
Mn301	Mn30	0.500000	0.857400	0.258400
Mn311	Mn31	0.500000	0.142600	0.741600
Mn321	Mn32	0.500000	0.142600	0.258400
Mn331	Mn33	0.857400	0.258400	0.500000
Mn341	Mn34	0.857400	0.741600	0.500000
Mn351	Mn35	0.142600	0.258400	0.500000
Mn361	Mn36	0.142600	0.741600	0.500000
