data_MIVPIR_clean_PM
_symmetry_space_group_name_H-M	'P1'
_cell_length_a	7.602600
_cell_length_b	9.779800
_cell_length_c	14.642300
_cell_angle_alpha	90.000000
_cell_angle_beta	98.075000
_cell_angle_gamma	90.000000
_symmetry_Int_Tables_number 1

loop_
_symmetry_equiv_pos_as_xyz
'x,y,z'

loop_
_atom_site_label
_atom_site_type_symbol
_atom_site_fract_x
_atom_site_fract_y
_atom_site_fract_z
Yb11	Yb1	0.848020	0.954380	0.638350
Yb21	Yb2	0.651980	0.454380	0.861650
Yb31	Yb3	0.151980	0.045620	0.361650
Yb41	Yb4	0.348020	0.545620	0.138350
H11	H1	0.828700	0.385000	0.637300
H21	H2	0.614200	0.698200	0.484900
H31	H3	0.801000	0.388400	0.361300
H41	H4	0.671300	0.885000	0.862700
H51	H5	0.885800	0.198200	0.015100
H61	H6	0.699000	0.888400	0.138700
H71	H7	0.171300	0.615000	0.362700
H81	H8	0.385800	0.301800	0.515100
H91	H9	0.199000	0.611600	0.638700
H101	H10	0.328700	0.115000	0.137300
H111	H11	0.114200	0.801800	0.984900
H121	H12	0.301000	0.111600	0.861300
C11	C1	0.693500	0.638100	0.658800
C21	C2	0.721700	0.557600	0.575600
C31	C3	0.543500	0.968100	0.460200
C41	C4	0.798200	0.428000	0.580700
C51	C5	0.668900	0.612900	0.488300
C61	C6	0.913200	0.224900	0.500900
C71	C7	0.828200	0.363700	0.499100
C81	C8	0.776200	0.429800	0.415200
C91	C9	0.806500	0.138100	0.841200
C101	C10	0.778300	0.057600	0.924400
C111	C11	0.956500	0.468100	0.039800
C121	C12	0.701800	0.928000	0.919300
C131	C13	0.831100	0.112900	0.011700
C141	C14	0.586800	0.724900	0.999100
C151	C15	0.671800	0.863700	0.000900
C161	C16	0.723800	0.929800	0.084800
C171	C17	0.306500	0.361900	0.341200
C181	C18	0.278300	0.442400	0.424400
C191	C19	0.456500	0.031900	0.539800
C201	C20	0.201800	0.572000	0.419300
C211	C21	0.331100	0.387100	0.511700
C221	C22	0.086800	0.775100	0.499100
C231	C23	0.171800	0.636300	0.500900
C241	C24	0.223800	0.570200	0.584800
C251	C25	0.193500	0.861900	0.158800
C261	C26	0.221700	0.942400	0.075600
C271	C27	0.043500	0.531900	0.960200
C281	C28	0.298200	0.072000	0.080700
C291	C29	0.168900	0.887100	0.988300
C301	C30	0.413200	0.275100	0.000900
C311	C31	0.328200	0.136300	0.999100
C321	C32	0.276200	0.070200	0.915200
N11	N1	0.691400	0.551600	0.409000
N21	N2	0.808600	0.051600	0.091000
N31	N3	0.308600	0.448400	0.591000
N41	N4	0.191400	0.948400	0.909000
O11	O1	0.669000	0.766400	0.647790
O21	O2	0.703900	0.935100	0.479100
O31	O3	0.695900	0.578700	0.734500
O41	O4	0.904100	0.152000	0.570700
O51	O5	0.985600	0.190700	0.432500
O61	O6	0.447000	0.955600	0.384000
O71	O7	0.831000	0.266400	0.852210
O81	O8	0.796100	0.435100	0.020900
O91	O9	0.804100	0.078700	0.765500
O101	O10	0.595900	0.652000	0.929300
O111	O11	0.514400	0.690700	0.067500
O121	O12	0.053000	0.455600	0.116000
O131	O13	0.331000	0.233600	0.352210
O141	O14	0.296100	0.064900	0.520900
O151	O15	0.304100	0.421300	0.265500
O161	O16	0.095900	0.848000	0.429300
O171	O17	0.014400	0.809300	0.567500
O181	O18	0.553000	0.044400	0.616000
O191	O19	0.169000	0.733600	0.147790
O201	O20	0.203900	0.564900	0.979100
O211	O21	0.195900	0.921300	0.234500
O221	O22	0.404100	0.348000	0.070700
O231	O23	0.485600	0.309300	0.932500
O241	O24	0.947000	0.544400	0.884000
