data_MIVPEN_clean_PM
_symmetry_space_group_name_H-M	'P1'
_cell_length_a	7.571600
_cell_length_b	9.789100
_cell_length_c	14.670200
_cell_angle_alpha	90.000000
_cell_angle_beta	97.933000
_cell_angle_gamma	90.000000
_symmetry_Int_Tables_number 1

loop_
_symmetry_equiv_pos_as_xyz
'x,y,z'

loop_
_atom_site_label
_atom_site_type_symbol
_atom_site_fract_x
_atom_site_fract_y
_atom_site_fract_z
Tm11	Tm1	0.848110	0.455710	0.638730
Tm21	Tm2	0.651890	0.955710	0.861270
Tm31	Tm3	0.151890	0.544290	0.361270
Tm41	Tm4	0.348110	0.044290	0.138730
H11	H1	0.831200	0.886800	0.636900
H21	H2	0.612600	0.198800	0.484200
H31	H3	0.797500	0.887000	0.361500
H41	H4	0.668800	0.386800	0.863100
H51	H5	0.887400	0.698800	0.015800
H61	H6	0.702500	0.387000	0.138500
H71	H7	0.168800	0.113200	0.363100
H81	H8	0.387400	0.801200	0.515800
H91	H9	0.202500	0.113000	0.638500
H101	H10	0.331200	0.613200	0.136900
H111	H11	0.112600	0.301200	0.984200
H121	H12	0.297500	0.613000	0.861500
C11	C1	0.720900	0.058800	0.574920
C21	C2	0.692900	0.139600	0.658450
C31	C3	0.799100	0.929200	0.580300
C41	C4	0.544100	0.468800	0.460120
C51	C5	0.667300	0.113600	0.487760
C61	C6	0.912700	0.725500	0.500580
C71	C7	0.827700	0.864900	0.498760
C81	C8	0.774200	0.929400	0.415400
C91	C9	0.779100	0.558800	0.925080
C101	C10	0.807100	0.639600	0.841550
C111	C11	0.700900	0.429200	0.919700
C121	C12	0.955900	0.968800	0.039880
C131	C13	0.832700	0.613600	0.012240
C141	C14	0.587300	0.225500	0.999420
C151	C15	0.672300	0.364900	0.001240
C161	C16	0.725800	0.429400	0.084600
C171	C17	0.279100	0.941200	0.425080
C181	C18	0.307100	0.860400	0.341550
C191	C19	0.200900	0.070800	0.419700
C201	C20	0.455900	0.531200	0.539880
C211	C21	0.332700	0.886400	0.512240
C221	C22	0.087300	0.274500	0.499420
C231	C23	0.172300	0.135100	0.501240
C241	C24	0.225800	0.070600	0.584600
C251	C25	0.220900	0.441200	0.074920
C261	C26	0.192900	0.360400	0.158450
C271	C27	0.299100	0.570800	0.080300
C281	C28	0.044100	0.031200	0.960120
C291	C29	0.167300	0.386400	0.987760
C301	C30	0.412700	0.774500	0.000580
C311	C31	0.327700	0.635100	0.998760
C321	C32	0.274200	0.570600	0.915400
N11	N1	0.689700	0.051400	0.409020
N21	N2	0.810300	0.551400	0.090980
N31	N3	0.310300	0.948600	0.590980
N41	N4	0.189700	0.448600	0.909020
O11	O1	0.705700	0.436100	0.479470
O21	O2	0.665700	0.267860	0.647000
O31	O3	0.905900	0.653900	0.570760
O41	O4	0.698100	0.080100	0.734050
O51	O5	0.983400	0.690500	0.431330
O61	O6	0.447100	0.453500	0.384420
O71	O7	0.794300	0.936100	0.020530
O81	O8	0.834300	0.767860	0.853000
O91	O9	0.594100	0.153900	0.929240
O101	O10	0.801900	0.580100	0.765950
O111	O11	0.516600	0.190500	0.068670
O121	O12	0.052900	0.953500	0.115580
O131	O13	0.294300	0.563900	0.520530
O141	O14	0.334300	0.732140	0.353000
O151	O15	0.094100	0.346100	0.429240
O161	O16	0.301900	0.919900	0.265950
O171	O17	0.016600	0.309500	0.568670
O181	O18	0.552900	0.546500	0.615580
O191	O19	0.205700	0.063900	0.979470
O201	O20	0.165700	0.232140	0.147000
O211	O21	0.405900	0.846100	0.070760
O221	O22	0.198100	0.419900	0.234050
O231	O23	0.483400	0.809500	0.931330
O241	O24	0.947100	0.046500	0.884420
