data_MIVWAR_clean_PM
_symmetry_space_group_name_H-M	'P1'
_cell_length_a	16.835000
_cell_length_b	9.707000
_cell_length_c	39.767000
_cell_angle_alpha	90.000000
_cell_angle_beta	90.522000
_cell_angle_gamma	90.000000
_symmetry_Int_Tables_number 1

loop_
_symmetry_equiv_pos_as_xyz
'x,y,z'

loop_
_atom_site_label
_atom_site_type_symbol
_atom_site_fract_x
_atom_site_fract_y
_atom_site_fract_z
Cu11	Cu1	0.550230	0.714870	0.666650
C11	C1	0.663500	0.879400	0.515800
C21	C2	0.636200	0.988400	0.534600
H11	H1	0.592800	0.041300	0.527900
C31	C3	0.678200	0.014300	0.564600
C41	C4	0.735900	0.932800	0.574900
H21	H2	0.759400	0.949400	0.595700
C51	C5	0.763000	0.823300	0.555800
H31	H3	0.806400	0.770900	0.562800
C61	C6	0.723500	0.795500	0.526600
H41	H4	0.737500	0.719000	0.513900
O11	O1	0.622700	0.844400	0.486680
O21	O2	0.638200	0.049000	0.464200
N11	N1	0.497300	0.786300	0.376670
C71	C7	0.538100	0.702600	0.396100
H51	H5	0.541800	0.610800	0.389600
C81	C8	0.574700	0.740600	0.424600
H61	H6	0.601800	0.676700	0.437800
C91	C9	0.571100	0.876100	0.433800
C101	C10	0.532900	0.967800	0.413100
H71	H7	0.530600	0.061300	0.418100
C111	C11	0.498200	0.914900	0.384610
H81	H8	0.473600	0.976300	0.369900
C121	C12	0.613200	0.935700	0.463700
N21	N2	0.597700	0.562100	0.640870
O31	O3	0.651900	0.128200	0.582430
O41	O4	0.739000	0.264400	0.558300
C131	C13	0.652300	0.586500	0.617000
H91	H9	0.669300	0.676600	0.613700
C141	C14	0.683800	0.484500	0.597400
H101	H10	0.725100	0.502600	0.582700
C151	C15	0.652800	0.355600	0.600350
C161	C16	0.598800	0.328300	0.623600
H111	H11	0.577800	0.240200	0.625800
C171	C17	0.574400	0.435100	0.644500
H121	H12	0.539800	0.414700	0.661900
C181	C18	0.685500	0.245700	0.578100
C191	C19	0.586500	0.219500	0.897280
C201	C20	0.596600	0.299200	0.867800
H131	H13	0.644700	0.336300	0.861000
C211	C21	0.521800	0.315700	0.849600
C221	C22	0.453800	0.267100	0.859500
H141	H14	0.408800	0.278700	0.846100
C231	C23	0.448300	0.200000	0.889200
H151	H15	0.399100	0.171300	0.897000
C241	C24	0.516400	0.174400	0.908000
H161	H16	0.513100	0.125600	0.928000
O51	O5	0.654800	0.205200	0.916560
O61	O6	0.680400	0.010700	0.891700
N31	N3	0.898900	0.069900	0.973980
C251	C25	0.846600	0.170600	0.977300
H171	H17	0.854800	0.235200	0.994200
C261	C26	0.783100	0.183700	0.957500
H181	H18	0.748800	0.258100	0.959900
C271	C27	0.769400	0.085800	0.933780
C281	C28	0.820400	0.980500	0.931000
H191	H19	0.811400	0.912100	0.915000
C291	C29	0.881800	0.974400	0.950400
H201	H20	0.916200	0.900200	0.948000
C301	C30	0.696200	0.093900	0.911950
O71	O7	0.626100	0.267000	0.797600
N41	N4	0.561800	0.605100	0.709770
O81	O8	0.526900	0.390300	0.820250
C311	C31	0.500900	0.588400	0.729400
H211	H21	0.453100	0.628300	0.722700
C321	C32	0.501600	0.518000	0.758700
H221	H22	0.457900	0.515100	0.772800
C331	C33	0.571200	0.451100	0.766200
C341	C34	0.634500	0.466700	0.745800
H231	H23	0.682600	0.424200	0.750900
C351	C35	0.627000	0.543400	0.718500
H241	H24	0.671100	0.553500	0.704700
C361	C36	0.579900	0.360400	0.796400
C371	C37	0.264400	0.255600	0.769300
C381	C38	0.229800	0.207200	0.798200
H251	H25	0.234100	0.115300	0.804500
C391	C39	0.188600	0.300900	0.817240
C401	C40	0.175500	0.429800	0.807900
H261	H26	0.145000	0.488400	0.821100
C411	C41	0.210000	0.478000	0.776500
H271	H27	0.201000	0.566500	0.768300
C421	C42	0.256400	0.384600	0.759900
H281	H28	0.283600	0.414100	0.740900
N51	N5	0.059300	0.102300	0.956670
O91	O9	0.150100	0.258300	0.846680
O101	O10	0.262700	0.177600	0.868700
C431	C43	0.120800	0.034700	0.948800
H291	H29	0.137000	0.963100	0.962800
C441	C44	0.166000	0.062700	0.919900
H301	H30	0.210800	0.010700	0.915000
C451	C45	0.143500	0.163000	0.900290
C461	C46	0.075500	0.242400	0.908900
H311	H31	0.058000	0.316100	0.895900
C471	C47	0.037600	0.203000	0.937600
H321	H32	0.992800	0.252700	0.943900
C481	C48	0.191200	0.201200	0.869900
N61	N6	0.496600	0.864200	0.692970
O111	O11	0.307100	0.162800	0.749430
O121	O12	0.418200	0.221300	0.775300
C491	C49	0.537600	0.932000	0.716200
H331	H33	0.591700	0.914700	0.718600
C501	C50	0.502200	0.028200	0.737100
H341	H34	0.531700	0.074800	0.753400
C511	C51	0.421600	0.052800	0.733000
C521	C52	0.385400	0.983800	0.709180
H351	H35	0.331400	0.000600	0.706200
C531	C53	0.418500	0.891300	0.688600
H361	H36	0.388800	0.847300	0.672000
C541	C54	0.385100	0.153800	0.754900
Cu21	Cu2	0.449770	0.714870	0.333350
C551	C55	0.336500	0.879400	0.484200
C561	C56	0.363800	0.988400	0.465400
H371	H37	0.407200	0.041300	0.472100
C571	C57	0.321800	0.014300	0.435400
C581	C58	0.264100	0.932800	0.425100
H381	H38	0.240600	0.949400	0.404300
C591	C59	0.237000	0.823300	0.444200
H391	H39	0.193600	0.770900	0.437200
C601	C60	0.276500	0.795500	0.473400
H401	H40	0.262500	0.719000	0.486100
O131	O13	0.377300	0.844400	0.513320
O141	O14	0.361800	0.049000	0.535800
N71	N7	0.502700	0.786300	0.623330
C611	C61	0.461900	0.702600	0.603900
H411	H41	0.458200	0.610800	0.610400
C621	C62	0.425300	0.740600	0.575400
H421	H42	0.398200	0.676700	0.562200
C631	C63	0.428900	0.876100	0.566200
C641	C64	0.467100	0.967800	0.586900
H431	H43	0.469400	0.061300	0.581900
C651	C65	0.501800	0.914900	0.615390
H441	H44	0.526400	0.976300	0.630100
C661	C66	0.386800	0.935700	0.536300
N81	N8	0.402300	0.562100	0.359130
O151	O15	0.348100	0.128200	0.417570
O161	O16	0.261000	0.264400	0.441700
C671	C67	0.347700	0.586500	0.383000
H451	H45	0.330700	0.676600	0.386300
C681	C68	0.316200	0.484500	0.402600
H461	H46	0.274900	0.502600	0.417300
C691	C69	0.347200	0.355600	0.399650
C701	C70	0.401200	0.328300	0.376400
H471	H47	0.422200	0.240200	0.374200
C711	C71	0.425600	0.435100	0.355500
H481	H48	0.460200	0.414700	0.338100
C721	C72	0.314500	0.245700	0.421900
C731	C73	0.413500	0.219500	0.102720
C741	C74	0.403400	0.299200	0.132200
H491	H49	0.355300	0.336300	0.139000
C751	C75	0.478200	0.315700	0.150400
C761	C76	0.546200	0.267100	0.140500
H501	H50	0.591200	0.278700	0.153900
C771	C77	0.551700	0.200000	0.110800
H511	H51	0.600900	0.171300	0.103000
C781	C78	0.483600	0.174400	0.092000
H521	H52	0.486900	0.125600	0.072000
O171	O17	0.345200	0.205200	0.083440
O181	O18	0.319600	0.010700	0.108300
N91	N9	0.101100	0.069900	0.026020
C791	C79	0.153400	0.170600	0.022700
H531	H53	0.145200	0.235200	0.005800
C801	C80	0.216900	0.183700	0.042500
H541	H54	0.251200	0.258100	0.040100
C811	C81	0.230600	0.085800	0.066220
C821	C82	0.179600	0.980500	0.069000
H551	H55	0.188600	0.912100	0.085000
C831	C83	0.118200	0.974400	0.049600
H561	H56	0.083800	0.900200	0.052000
C841	C84	0.303800	0.093900	0.088050
O191	O19	0.373900	0.267000	0.202400
N101	N10	0.438200	0.605100	0.290230
O201	O20	0.473100	0.390300	0.179750
C851	C85	0.499100	0.588400	0.270600
H571	H57	0.546900	0.628300	0.277300
C861	C86	0.498400	0.518000	0.241300
H581	H58	0.542100	0.515100	0.227200
C871	C87	0.428800	0.451100	0.233800
C881	C88	0.365500	0.466700	0.254200
H591	H59	0.317400	0.424200	0.249100
C891	C89	0.373000	0.543400	0.281500
H601	H60	0.328900	0.553500	0.295300
C901	C90	0.420100	0.360400	0.203600
C911	C91	0.735600	0.255600	0.230700
C921	C92	0.770200	0.207200	0.201800
H611	H61	0.765900	0.115300	0.195500
C931	C93	0.811400	0.300900	0.182760
C941	C94	0.824500	0.429800	0.192100
H621	H62	0.855000	0.488400	0.178900
C951	C95	0.790000	0.478000	0.223500
H631	H63	0.799000	0.566500	0.231700
C961	C96	0.743600	0.384600	0.240100
H641	H64	0.716400	0.414100	0.259100
N111	N11	0.940700	0.102300	0.043330
O211	O21	0.849900	0.258300	0.153320
O221	O22	0.737300	0.177600	0.131300
C971	C97	0.879200	0.034700	0.051200
H651	H65	0.863000	0.963100	0.037200
C981	C98	0.834000	0.062700	0.080100
H661	H66	0.789200	0.010700	0.085000
C991	C99	0.856500	0.163000	0.099710
C1001	C100	0.924500	0.242400	0.091100
H671	H67	0.942000	0.316100	0.104100
C1011	C101	0.962400	0.203000	0.062400
H681	H68	0.007200	0.252700	0.056100
C1021	C102	0.808800	0.201200	0.130100
N121	N12	0.503400	0.864200	0.307030
O231	O23	0.692900	0.162800	0.250570
O241	O24	0.581800	0.221300	0.224700
C1031	C103	0.462400	0.932000	0.283800
H691	H69	0.408300	0.914700	0.281400
C1041	C104	0.497800	0.028200	0.262900
H701	H70	0.468300	0.074800	0.246600
C1051	C105	0.578400	0.052800	0.267000
C1061	C106	0.614600	0.983800	0.290820
H711	H71	0.668600	0.000600	0.293800
C1071	C107	0.581500	0.891300	0.311400
H721	H72	0.611200	0.847300	0.328000
C1081	C108	0.614900	0.153800	0.245100
Cu31	Cu3	0.000000	0.064780	0.000000
Cu41	Cu4	0.050230	0.214870	0.666650
C1091	C109	0.163500	0.379400	0.515800
C1101	C110	0.136200	0.488400	0.534600
H731	H73	0.092800	0.541300	0.527900
C1111	C111	0.178200	0.514300	0.564600
C1121	C112	0.235900	0.432800	0.574900
H741	H74	0.259400	0.449400	0.595700
C1131	C113	0.263000	0.323300	0.555800
H751	H75	0.306400	0.270900	0.562800
C1141	C114	0.223500	0.295500	0.526600
H761	H76	0.237500	0.219000	0.513900
O251	O25	0.122700	0.344400	0.486680
O261	O26	0.138200	0.549000	0.464200
N131	N13	0.997300	0.286300	0.376670
C1151	C115	0.038100	0.202600	0.396100
H771	H77	0.041800	0.110800	0.389600
C1161	C116	0.074700	0.240600	0.424600
H781	H78	0.101800	0.176700	0.437800
C1171	C117	0.071100	0.376100	0.433800
C1181	C118	0.032900	0.467800	0.413100
H791	H79	0.030600	0.561300	0.418100
C1191	C119	0.998200	0.414900	0.384610
H801	H80	0.973600	0.476300	0.369900
C1201	C120	0.113200	0.435700	0.463700
N141	N14	0.097700	0.062100	0.640870
O271	O27	0.151900	0.628200	0.582430
O281	O28	0.239000	0.764400	0.558300
C1211	C121	0.152300	0.086500	0.617000
H811	H81	0.169300	0.176600	0.613700
C1221	C122	0.183800	0.984500	0.597400
H821	H82	0.225100	0.002600	0.582700
C1231	C123	0.152800	0.855600	0.600350
C1241	C124	0.098800	0.828300	0.623600
H831	H83	0.077800	0.740200	0.625800
C1251	C125	0.074400	0.935100	0.644500
H841	H84	0.039800	0.914700	0.661900
C1261	C126	0.185500	0.745700	0.578100
C1271	C127	0.086500	0.719500	0.897280
C1281	C128	0.096600	0.799200	0.867800
H851	H85	0.144700	0.836300	0.861000
C1291	C129	0.021800	0.815700	0.849600
C1301	C130	0.953800	0.767100	0.859500
H861	H86	0.908800	0.778700	0.846100
C1311	C131	0.948300	0.700000	0.889200
H871	H87	0.899100	0.671300	0.897000
C1321	C132	0.016400	0.674400	0.908000
H881	H88	0.013100	0.625600	0.928000
O291	O29	0.154800	0.705200	0.916560
O301	O30	0.180400	0.510700	0.891700
N151	N15	0.398900	0.569900	0.973980
C1331	C133	0.346600	0.670600	0.977300
H891	H89	0.354800	0.735200	0.994200
C1341	C134	0.283100	0.683700	0.957500
H901	H90	0.248800	0.758100	0.959900
C1351	C135	0.269400	0.585800	0.933780
C1361	C136	0.320400	0.480500	0.931000
H911	H91	0.311400	0.412100	0.915000
C1371	C137	0.381800	0.474400	0.950400
H921	H92	0.416200	0.400200	0.948000
C1381	C138	0.196200	0.593900	0.911950
O311	O31	0.126100	0.767000	0.797600
N161	N16	0.061800	0.105100	0.709770
O321	O32	0.026900	0.890300	0.820250
C1391	C139	0.000900	0.088400	0.729400
H931	H93	0.953100	0.128300	0.722700
C1401	C140	0.001600	0.018000	0.758700
H941	H94	0.957900	0.015100	0.772800
C1411	C141	0.071200	0.951100	0.766200
C1421	C142	0.134500	0.966700	0.745800
H951	H95	0.182600	0.924200	0.750900
C1431	C143	0.127000	0.043400	0.718500
H961	H96	0.171100	0.053500	0.704700
C1441	C144	0.079900	0.860400	0.796400
C1451	C145	0.764400	0.755600	0.769300
C1461	C146	0.729800	0.707200	0.798200
H971	H97	0.734100	0.615300	0.804500
C1471	C147	0.688600	0.800900	0.817240
C1481	C148	0.675500	0.929800	0.807900
H981	H98	0.645000	0.988400	0.821100
C1491	C149	0.710000	0.978000	0.776500
H991	H99	0.701000	0.066500	0.768300
C1501	C150	0.756400	0.884600	0.759900
H1001	H100	0.783600	0.914100	0.740900
N171	N17	0.559300	0.602300	0.956670
O331	O33	0.650100	0.758300	0.846680
O341	O34	0.762700	0.677600	0.868700
C1511	C151	0.620800	0.534700	0.948800
H1011	H101	0.637000	0.463100	0.962800
C1521	C152	0.666000	0.562700	0.919900
H1021	H102	0.710800	0.510700	0.915000
C1531	C153	0.643500	0.663000	0.900290
C1541	C154	0.575500	0.742400	0.908900
H1031	H103	0.558000	0.816100	0.895900
C1551	C155	0.537600	0.703000	0.937600
H1041	H104	0.492800	0.752700	0.943900
C1561	C156	0.691200	0.701200	0.869900
N181	N18	0.996600	0.364200	0.692970
O351	O35	0.807100	0.662800	0.749430
O361	O36	0.918200	0.721300	0.775300
C1571	C157	0.037600	0.432000	0.716200
H1051	H105	0.091700	0.414700	0.718600
C1581	C158	0.002200	0.528200	0.737100
H1061	H106	0.031700	0.574800	0.753400
C1591	C159	0.921600	0.552800	0.733000
C1601	C160	0.885400	0.483800	0.709180
H1071	H107	0.831400	0.500600	0.706200
C1611	C161	0.918500	0.391300	0.688600
H1081	H108	0.888800	0.347300	0.672000
C1621	C162	0.885100	0.653800	0.754900
Cu51	Cu5	0.949770	0.214870	0.333350
C1631	C163	0.836500	0.379400	0.484200
C1641	C164	0.863800	0.488400	0.465400
H1091	H109	0.907200	0.541300	0.472100
C1651	C165	0.821800	0.514300	0.435400
C1661	C166	0.764100	0.432800	0.425100
H1101	H110	0.740600	0.449400	0.404300
C1671	C167	0.737000	0.323300	0.444200
H1111	H111	0.693600	0.270900	0.437200
C1681	C168	0.776500	0.295500	0.473400
H1121	H112	0.762500	0.219000	0.486100
O371	O37	0.877300	0.344400	0.513320
O381	O38	0.861800	0.549000	0.535800
N191	N19	0.002700	0.286300	0.623330
C1691	C169	0.961900	0.202600	0.603900
H1131	H113	0.958200	0.110800	0.610400
C1701	C170	0.925300	0.240600	0.575400
H1141	H114	0.898200	0.176700	0.562200
C1711	C171	0.928900	0.376100	0.566200
C1721	C172	0.967100	0.467800	0.586900
H1151	H115	0.969400	0.561300	0.581900
C1731	C173	0.001800	0.414900	0.615390
H1161	H116	0.026400	0.476300	0.630100
C1741	C174	0.886800	0.435700	0.536300
N201	N20	0.902300	0.062100	0.359130
O391	O39	0.848100	0.628200	0.417570
O401	O40	0.761000	0.764400	0.441700
C1751	C175	0.847700	0.086500	0.383000
H1171	H117	0.830700	0.176600	0.386300
C1761	C176	0.816200	0.984500	0.402600
H1181	H118	0.774900	0.002600	0.417300
C1771	C177	0.847200	0.855600	0.399650
C1781	C178	0.901200	0.828300	0.376400
H1191	H119	0.922200	0.740200	0.374200
C1791	C179	0.925600	0.935100	0.355500
H1201	H120	0.960200	0.914700	0.338100
C1801	C180	0.814500	0.745700	0.421900
C1811	C181	0.913500	0.719500	0.102720
C1821	C182	0.903400	0.799200	0.132200
H1211	H121	0.855300	0.836300	0.139000
C1831	C183	0.978200	0.815700	0.150400
C1841	C184	0.046200	0.767100	0.140500
H1221	H122	0.091200	0.778700	0.153900
C1851	C185	0.051700	0.700000	0.110800
H1231	H123	0.100900	0.671300	0.103000
C1861	C186	0.983600	0.674400	0.092000
H1241	H124	0.986900	0.625600	0.072000
O411	O41	0.845200	0.705200	0.083440
O421	O42	0.819600	0.510700	0.108300
N211	N21	0.601100	0.569900	0.026020
C1871	C187	0.653400	0.670600	0.022700
H1251	H125	0.645200	0.735200	0.005800
C1881	C188	0.716900	0.683700	0.042500
H1261	H126	0.751200	0.758100	0.040100
C1891	C189	0.730600	0.585800	0.066220
C1901	C190	0.679600	0.480500	0.069000
H1271	H127	0.688600	0.412100	0.085000
C1911	C191	0.618200	0.474400	0.049600
H1281	H128	0.583800	0.400200	0.052000
C1921	C192	0.803800	0.593900	0.088050
O431	O43	0.873900	0.767000	0.202400
N221	N22	0.938200	0.105100	0.290230
O441	O44	0.973100	0.890300	0.179750
C1931	C193	0.999100	0.088400	0.270600
H1291	H129	0.046900	0.128300	0.277300
C1941	C194	0.998400	0.018000	0.241300
H1301	H130	0.042100	0.015100	0.227200
C1951	C195	0.928800	0.951100	0.233800
C1961	C196	0.865500	0.966700	0.254200
H1311	H131	0.817400	0.924200	0.249100
C1971	C197	0.873000	0.043400	0.281500
H1321	H132	0.828900	0.053500	0.295300
C1981	C198	0.920100	0.860400	0.203600
C1991	C199	0.235600	0.755600	0.230700
C2001	C200	0.270200	0.707200	0.201800
H1331	H133	0.265900	0.615300	0.195500
C2011	C201	0.311400	0.800900	0.182760
C2021	C202	0.324500	0.929800	0.192100
H1341	H134	0.355000	0.988400	0.178900
C2031	C203	0.290000	0.978000	0.223500
H1351	H135	0.299000	0.066500	0.231700
C2041	C204	0.243600	0.884600	0.240100
H1361	H136	0.216400	0.914100	0.259100
N231	N23	0.440700	0.602300	0.043330
O451	O45	0.349900	0.758300	0.153320
O461	O46	0.237300	0.677600	0.131300
C2051	C205	0.379200	0.534700	0.051200
H1371	H137	0.363000	0.463100	0.037200
C2061	C206	0.334000	0.562700	0.080100
H1381	H138	0.289200	0.510700	0.085000
C2071	C207	0.356500	0.663000	0.099710
C2081	C208	0.424500	0.742400	0.091100
H1391	H139	0.442000	0.816100	0.104100
C2091	C209	0.462400	0.703000	0.062400
H1401	H140	0.507200	0.752700	0.056100
C2101	C210	0.308800	0.701200	0.130100
N241	N24	0.003400	0.364200	0.307030
O471	O47	0.192900	0.662800	0.250570
O481	O48	0.081800	0.721300	0.224700
C2111	C211	0.962400	0.432000	0.283800
H1411	H141	0.908300	0.414700	0.281400
C2121	C212	0.997800	0.528200	0.262900
H1421	H142	0.968300	0.574800	0.246600
C2131	C213	0.078400	0.552800	0.267000
C2141	C214	0.114600	0.483800	0.290820
H1431	H143	0.168600	0.500600	0.293800
C2151	C215	0.081500	0.391300	0.311400
H1441	H144	0.111200	0.347300	0.328000
C2161	C216	0.114900	0.653800	0.245100
Cu61	Cu6	0.500000	0.564780	0.000000
