data_MIXBAY_clean_PM
_symmetry_space_group_name_H-M	'P1'
_cell_length_a	18.140200
_cell_length_b	18.140200
_cell_length_c	18.114000
_cell_angle_alpha	90.000000
_cell_angle_beta	90.000000
_cell_angle_gamma	120.000000
_symmetry_Int_Tables_number 1

loop_
_symmetry_equiv_pos_as_xyz
'x,y,z'

loop_
_atom_site_label
_atom_site_type_symbol
_atom_site_fract_x
_atom_site_fract_y
_atom_site_fract_z
Cu11	Cu1	0.473240	0.525520	0.058330
O11	O1	0.436100	0.413700	0.096200
O21	O2	0.477100	0.369700	0.001600
O31	O3	0.479300	0.110300	0.000000
O41	O4	0.434800	0.021900	0.101000
C11	C1	0.444200	0.355300	0.062500
C21	C2	0.417600	0.273000	0.096300
C31	C3	0.374100	0.248700	0.166000
H11	H1	0.362200	0.285900	0.191700
C41	C4	0.350500	0.169900	0.193900
C51	C5	0.371000	0.113800	0.162600
H21	H2	0.353000	0.060200	0.182600
C61	C6	0.419900	0.141900	0.099800
C71	C7	0.441900	0.220800	0.065400
H31	H3	0.473000	0.236400	0.021700
C81	C8	0.450200	0.084100	0.066100
C91	C9	0.216400	0.046800	0.436300
C101	C10	0.146500	0.028700	0.468600
H41	H4	0.114300	0.052200	0.451900
C111	C11	0.281000	0.024700	0.469000
H51	H5	0.334200	0.044000	0.447700
N11	N1	0.300700	0.141300	0.257700
N21	N2	0.282400	0.196700	0.299100
N31	N3	0.230400	0.150200	0.359800
C121	C12	0.216600	0.066100	0.356100
C131	C13	0.260000	0.060500	0.292900
H61	H6	0.261600	0.012500	0.277400
Cu21	Cu2	0.474480	0.947720	0.058330
O51	O5	0.586300	0.022400	0.096200
O61	O6	0.630300	0.107400	0.001600
O71	O7	0.889700	0.369000	0.000000
O81	O8	0.978100	0.412900	0.101000
C141	C14	0.644700	0.088900	0.062500
C151	C15	0.727000	0.144600	0.096300
C161	C16	0.751300	0.125400	0.166000
H71	H7	0.714100	0.076300	0.191700
C171	C17	0.830100	0.180600	0.193900
C181	C18	0.886200	0.257200	0.162600
H81	H8	0.939800	0.292800	0.182600
C191	C19	0.858100	0.278000	0.099800
C201	C20	0.779200	0.221100	0.065400
H91	H9	0.763600	0.236600	0.021700
C211	C21	0.915900	0.366100	0.066100
C221	C22	0.953200	0.169600	0.436300
C231	C23	0.971300	0.117800	0.468600
H101	H10	0.947800	0.062100	0.451900
C241	C24	0.975300	0.256300	0.469000
H111	H11	0.956000	0.290200	0.447700
N41	N4	0.858700	0.159400	0.257700
N51	N5	0.803300	0.085700	0.299100
N61	N6	0.849800	0.080200	0.359800
C251	C25	0.933900	0.150500	0.356100
C261	C26	0.939500	0.199500	0.292900
H121	H12	0.987500	0.249100	0.277400
Cu31	Cu3	0.052280	0.526760	0.058330
O91	O9	0.977600	0.563900	0.096200
O101	O10	0.892600	0.522900	0.001600
O111	O11	0.631000	0.520700	0.000000
O121	O12	0.587100	0.565200	0.101000
C271	C27	0.911100	0.555800	0.062500
C281	C28	0.855400	0.582400	0.096300
C291	C29	0.874600	0.625900	0.166000
H131	H13	0.923700	0.637800	0.191700
C301	C30	0.819400	0.649500	0.193900
C311	C31	0.742800	0.629000	0.162600
H141	H14	0.707200	0.647000	0.182600
C321	C32	0.722000	0.580100	0.099800
C331	C33	0.778900	0.558100	0.065400
H151	H15	0.763400	0.527000	0.021700
C341	C34	0.633900	0.549800	0.066100
C351	C35	0.830400	0.783600	0.436300
C361	C36	0.882200	0.853500	0.468600
H161	H16	0.937900	0.885700	0.451900
C371	C37	0.743700	0.719000	0.469000
H171	H17	0.709800	0.665800	0.447700
N71	N7	0.840600	0.699300	0.257700
N81	N8	0.914300	0.717600	0.299100
N91	N9	0.919800	0.769600	0.359800
C381	C38	0.849500	0.783400	0.356100
C391	C39	0.800500	0.740000	0.292900
H181	H18	0.750900	0.738400	0.277400
Cu41	Cu4	0.525520	0.473240	0.941670
O131	O13	0.413700	0.436100	0.903800
O141	O14	0.369700	0.477100	0.998400
O151	O15	0.110300	0.479300	0.000000
O161	O16	0.021900	0.434800	0.899000
C401	C40	0.355300	0.444200	0.937500
C411	C41	0.273000	0.417600	0.903700
C421	C42	0.248700	0.374100	0.834000
H191	H19	0.285900	0.362200	0.808300
C431	C43	0.169900	0.350500	0.806100
C441	C44	0.113800	0.371000	0.837400
H201	H20	0.060200	0.353000	0.817400
C451	C45	0.141900	0.419900	0.900200
C461	C46	0.220800	0.441900	0.934600
H211	H21	0.236400	0.473000	0.978300
C471	C47	0.084100	0.450200	0.933900
C481	C48	0.046800	0.216400	0.563700
C491	C49	0.028700	0.146500	0.531400
H221	H22	0.052200	0.114300	0.548100
C501	C50	0.024700	0.281000	0.531000
H231	H23	0.044000	0.334200	0.552300
N101	N10	0.141300	0.300700	0.742300
N111	N11	0.196700	0.282400	0.700900
N121	N12	0.150200	0.230400	0.640200
C511	C51	0.066100	0.216600	0.643900
C521	C52	0.060500	0.260000	0.707100
H241	H24	0.012500	0.261600	0.722600
Cu51	Cu5	0.947720	0.474480	0.941670
O171	O17	0.022400	0.586300	0.903800
O181	O18	0.107400	0.630300	0.998400
O191	O19	0.369000	0.889700	0.000000
O201	O20	0.412900	0.978100	0.899000
C531	C53	0.088900	0.644700	0.937500
C541	C54	0.144600	0.727000	0.903700
C551	C55	0.125400	0.751300	0.834000
H251	H25	0.076300	0.714100	0.808300
C561	C56	0.180600	0.830100	0.806100
C571	C57	0.257200	0.886200	0.837400
H261	H26	0.292800	0.939800	0.817400
C581	C58	0.278000	0.858100	0.900200
C591	C59	0.221100	0.779200	0.934600
H271	H27	0.236600	0.763600	0.978300
C601	C60	0.366100	0.915900	0.933900
C611	C61	0.169600	0.953200	0.563700
C621	C62	0.117800	0.971300	0.531400
H281	H28	0.062100	0.947800	0.548100
C631	C63	0.256300	0.975300	0.531000
H291	H29	0.290200	0.956000	0.552300
N131	N13	0.159400	0.858700	0.742300
N141	N14	0.085700	0.803300	0.700900
N151	N15	0.080200	0.849800	0.640200
C641	C64	0.150500	0.933900	0.643900
C651	C65	0.199500	0.939500	0.707100
H301	H30	0.249100	0.987500	0.722600
Cu61	Cu6	0.526760	0.052280	0.941670
O211	O21	0.563900	0.977600	0.903800
O221	O22	0.522900	0.892600	0.998400
O231	O23	0.520700	0.631000	0.000000
O241	O24	0.565200	0.587100	0.899000
C661	C66	0.555800	0.911100	0.937500
C671	C67	0.582400	0.855400	0.903700
C681	C68	0.625900	0.874600	0.834000
H311	H31	0.637800	0.923700	0.808300
C691	C69	0.649500	0.819400	0.806100
C701	C70	0.629000	0.742800	0.837400
H321	H32	0.647000	0.707200	0.817400
C711	C71	0.580100	0.722000	0.900200
C721	C72	0.558100	0.778900	0.934600
H331	H33	0.527000	0.763400	0.978300
C731	C73	0.549800	0.633900	0.933900
C741	C74	0.783600	0.830400	0.563700
C751	C75	0.853500	0.882200	0.531400
H341	H34	0.885700	0.937900	0.548100
C761	C76	0.719000	0.743700	0.531000
H351	H35	0.665800	0.709800	0.552300
N161	N16	0.699300	0.840600	0.742300
N171	N17	0.717600	0.914300	0.700900
N181	N18	0.769600	0.919800	0.640200
C771	C77	0.783400	0.849500	0.643900
C781	C78	0.740000	0.800500	0.707100
H361	H36	0.738400	0.750900	0.722600
