data_MIXBIG_auto_PM
_symmetry_space_group_name_H-M	'P1'
_cell_length_a	18.496600
_cell_length_b	18.466000
_cell_length_c	35.385900
_cell_angle_alpha	89.589500
_cell_angle_beta	90.274000
_cell_angle_gamma	120.097100
_symmetry_Int_Tables_number 1

loop_
_symmetry_equiv_pos_as_xyz
'x,y,z'

loop_
_atom_site_label
_atom_site_type_symbol
_atom_site_fract_x
_atom_site_fract_y
_atom_site_fract_z
C11	C1	0.292390	0.139150	0.213450
C21	C2	0.268260	0.193320	0.229240
C31	C3	0.221750	0.171140	0.263090
C41	C4	0.197530	0.093030	0.279990
C51	C5	0.218950	0.037390	0.263590
C61	C6	0.267680	0.061780	0.230780
H71	H7	0.287250	0.253000	0.215680
H81	H8	0.159870	0.074440	0.305400
H91	H9	0.285550	0.019740	0.218150
C101	C10	0.877450	0.432090	0.529500
C111	C11	0.869440	0.492720	0.549600
C121	C12	0.857860	0.486430	0.588820
C131	C13	0.854090	0.417740	0.608000
C141	C14	0.861710	0.355840	0.588280
C151	C15	0.875490	0.364650	0.548930
H161	H16	0.869930	0.544000	0.534270
H171	H17	0.842390	0.411020	0.638140
H181	H18	0.879030	0.316560	0.533060
C191	C19	0.620020	0.801910	0.879070
C201	C20	0.594560	0.724550	0.896650
C211	C21	0.543430	0.699850	0.928720
C221	C22	0.519960	0.755040	0.943890
C231	C23	0.545000	0.833120	0.926660
C241	C24	0.593940	0.855530	0.893640
H251	H25	0.614350	0.683130	0.885010
H261	H26	0.480870	0.736500	0.968850
H271	H27	0.614070	0.915420	0.880050
C281	C28	0.850580	0.108290	0.198980
C291	C29	0.784500	0.041390	0.218230
C301	C30	0.790160	0.031370	0.257480
C311	C31	0.861030	0.091560	0.277290
C321	C32	0.926690	0.159520	0.258280
C331	C33	0.920620	0.167140	0.219160
H341	H34	0.731810	0.994480	0.202280
H351	H35	0.866650	0.083820	0.307340
H361	H36	0.971910	0.217950	0.203940
C371	C37	0.474830	0.479640	0.550530
C381	C38	0.422260	0.399300	0.565320
C391	C39	0.445350	0.372790	0.598370
C401	C40	0.522870	0.426600	0.615450
C411	C41	0.577080	0.505760	0.599920
C421	C42	0.551670	0.532300	0.567970
H431	H43	0.363040	0.358630	0.551630
H441	H44	0.542260	0.405790	0.640200
H451	H45	0.592780	0.593670	0.555950
C461	C46	0.173260	0.769110	0.867140
C471	C47	0.111340	0.702400	0.887970
C481	C48	0.119600	0.695020	0.927080
C491	C49	0.190730	0.758600	0.945480
C501	C50	0.252790	0.827670	0.925050
C511	C51	0.242760	0.832880	0.885770
H521	H52	0.058710	0.653430	0.872740
H531	H53	0.199360	0.752990	0.975440
H541	H54	0.291470	0.883040	0.869210
C551	C55	0.839090	0.730080	0.199610
C561	C56	0.908350	0.734500	0.218070
C571	C57	0.919400	0.749900	0.257230
C581	C58	0.858110	0.757000	0.277820
C591	C59	0.787620	0.750740	0.259580
C601	C60	0.778870	0.736970	0.220520
H611	H61	0.955970	0.731560	0.201540
H621	H62	0.866810	0.770670	0.307750
H631	H63	0.726320	0.734830	0.205780
C641	C64	0.505020	0.059600	0.534400
C651	C65	0.571810	0.059830	0.553390
C661	C66	0.582900	0.075710	0.592570
C671	C67	0.523730	0.087370	0.612640
C681	C68	0.455600	0.085280	0.593870
C691	C69	0.447070	0.071120	0.554840
H701	H70	0.618020	0.053720	0.537200
H711	H71	0.532460	0.101390	0.642540
H721	H72	0.396200	0.071720	0.539780
C731	C73	0.167500	0.389930	0.867630
C741	C74	0.108620	0.399860	0.888150
C751	C75	0.117890	0.415370	0.927060
C761	C76	0.187430	0.420200	0.945630
C771	C77	0.247460	0.410220	0.925500
C781	C78	0.235890	0.393120	0.886430
H791	H79	0.056750	0.398690	0.873200
H801	H80	0.196560	0.435210	0.975440
H811	H81	0.282720	0.388190	0.870170
C821	C82	0.118910	0.290880	0.735090
C831	C83	0.172760	0.264940	0.720740
C841	C84	0.152760	0.219150	0.686870
C851	C85	0.077360	0.198330	0.668110
C861	C86	0.021190	0.220880	0.683130
C871	C87	0.043510	0.268020	0.716480
H881	H88	0.230920	0.282670	0.735270
H891	H89	0.061230	0.162120	0.642330
H901	H90	0.002080	0.287380	0.728450
C911	C91	0.789500	0.631430	0.067440
C921	C92	0.843520	0.605810	0.052900
C931	C93	0.821840	0.557390	0.019800
C941	C94	0.744340	0.532750	0.002320
C951	C95	0.688890	0.555830	0.017440
C961	C96	0.712730	0.606190	0.049660
H971	H97	0.902890	0.625610	0.066700
H981	H98	0.726300	0.493990	0.977310
H991	H99	0.671020	0.625370	0.061440
C1001	C100	0.456720	0.960920	0.401940
C1011	C101	0.379410	0.934550	0.384440
C1021	C102	0.356590	0.885940	0.351660
C1031	C103	0.413380	0.865540	0.335820
C1041	C104	0.491340	0.891210	0.353010
C1051	C105	0.512170	0.938050	0.386600
H1061	H106	0.336830	0.952040	0.396720
H1071	H107	0.396090	0.828170	0.310380
H1081	H108	0.571900	0.958670	0.400210
C1091	C109	0.130790	0.814180	0.732770
C1101	C110	0.182190	0.895410	0.718640
C1111	C111	0.160460	0.921160	0.684960
C1121	C112	0.085290	0.865520	0.666510
C1131	C113	0.032170	0.785290	0.681280
C1141	C114	0.056470	0.759690	0.713910
H1151	H115	0.239520	0.937470	0.733370
H1161	H116	0.066710	0.885640	0.641280
H1171	H117	0.016060	0.697650	0.725450
C1181	C118	0.797280	0.158760	0.067140
C1191	C119	0.848750	0.237110	0.050500
C1201	C120	0.824500	0.261550	0.017420
C1211	C121	0.747220	0.204920	0.000780
C1221	C122	0.693530	0.126700	0.017710
C1231	C123	0.718910	0.104300	0.051280
H1241	H124	0.908550	0.278710	0.063550
H1251	H125	0.727460	0.222680	0.975190
H1261	H126	0.679260	0.044010	0.064510
C1271	C127	0.429920	0.528570	0.417340
C1281	C128	0.491100	0.596390	0.396670
C1291	C129	0.484690	0.601350	0.357390
C1301	C130	0.415840	0.536360	0.338690
C1311	C131	0.353600	0.467360	0.358980
C1321	C132	0.362110	0.463110	0.398420
H1331	H133	0.542320	0.647200	0.411750
H1341	H134	0.409070	0.541150	0.308500
H1351	H135	0.313650	0.412200	0.414750
C1361	C136	0.726260	0.853930	0.747900
C1371	C137	0.736630	0.794630	0.728000
C1381	C138	0.750950	0.802210	0.689030
C1391	C139	0.754800	0.870830	0.669760
C1401	C140	0.744830	0.931890	0.689170
C1411	C141	0.728170	0.921330	0.728420
H1421	H142	0.735780	0.743360	0.743460
H1431	H143	0.768250	0.877870	0.639750
H1441	H144	0.722300	0.967960	0.744400
C1451	C145	0.383820	0.183420	0.079690
C1461	C146	0.392590	0.123740	0.059250
C1471	C147	0.407040	0.132130	0.020210
C1481	C148	0.412250	0.201890	0.001440
C1491	C149	0.403380	0.263040	0.021430
C1501	C150	0.386590	0.251590	0.060660
H1511	H151	0.391520	0.072090	0.074460
H1521	H152	0.426350	0.209940	0.971500
H1531	H153	0.382190	0.298560	0.077050
C1541	C154	0.977430	0.481560	0.397450
C1551	C155	0.001500	0.558510	0.379840
C1561	C156	0.053320	0.584400	0.348020
C1571	C157	0.079010	0.530830	0.333020
C1581	C158	0.055780	0.453310	0.350350
C1591	C159	0.005700	0.429520	0.383080
H1601	H160	0.980490	0.598880	0.391520
H1611	H161	0.119150	0.550650	0.308390
H1621	H162	0.987070	0.370160	0.396870
O1631	O163	0.076590	0.467200	0.979540
O1641	O164	0.940300	0.537950	0.021990
O1651	O165	0.940210	0.395420	0.019680
O1661	O166	0.075720	0.606560	0.979620
O1671	O167	0.998370	0.565980	0.928080
O1681	O168	0.859100	0.359190	0.969370
O1691	O169	0.863920	0.501380	0.970080
O1701	O170	0.995370	0.426090	0.929110
Cu1711	Cu171	0.015370	0.505480	0.005660
Cu1721	Cu172	0.921150	0.459550	0.944170
C1731	C173	0.059880	0.436000	0.946570
C1741	C174	0.878570	0.531420	0.003210
C1751	C175	0.876370	0.341220	0.001580
C1761	C176	0.062120	0.620830	0.945870
O1771	O177	0.744760	0.799810	0.312570
O1781	O178	0.612240	0.875970	0.354200
O1791	O179	0.608780	0.734210	0.354560
O1801	O180	0.743890	0.938950	0.310330
O1811	O181	0.664540	0.898500	0.259310
O1821	O182	0.528690	0.692630	0.303800
O1831	O183	0.532690	0.834410	0.303260
O1841	O184	0.664040	0.759340	0.262010
Cu1851	Cu185	0.685300	0.841040	0.338080
Cu1861	Cu186	0.589320	0.791950	0.277080
C1871	C187	0.728540	0.769340	0.279470
C1881	C188	0.548840	0.866750	0.335970
C1891	C189	0.544360	0.679170	0.337270
C1901	C190	0.728840	0.953070	0.276840
O1911	O191	0.272130	0.200860	0.689340
O1921	O192	0.411620	0.133430	0.646960
O1931	O193	0.406530	0.271210	0.647420
O1941	O194	0.275830	0.060710	0.688190
O1951	O195	0.198860	0.023640	0.636450
O1961	O196	0.328260	0.234370	0.596050
O1971	O197	0.333930	0.097430	0.595460
O1981	O198	0.195020	0.162020	0.637640
Cu1991	Cu199	0.349060	0.170240	0.673290
Cu2001	Cu200	0.256090	0.125170	0.611340
C2011	C201	0.209690	0.192910	0.670600
C2021	C202	0.397190	0.105480	0.613390
C2031	C203	0.390380	0.288720	0.614760
C2041	C204	0.214600	0.006010	0.669120
O2051	O205	0.341880	0.457130	0.977610
O2061	O206	0.551070	0.534770	0.018430
O2071	O207	0.480070	0.599430	0.978290
O2081	O208	0.412350	0.393070	0.021500
O2091	O209	0.447040	0.352670	0.969610
O2101	O210	0.522660	0.561720	0.927900
O2111	O211	0.588590	0.491750	0.968110
O2121	O212	0.381590	0.421300	0.925780
Cu2131	Cu213	0.441720	0.499200	0.004120
Cu2141	Cu214	0.488090	0.452340	0.942680
C2151	C215	0.326970	0.429000	0.944080
C2161	C216	0.605560	0.526230	0.000360
C2171	C217	0.514120	0.616330	0.945900
C2181	C218	0.420150	0.338150	0.003430
O2191	O219	0.195910	0.898730	0.260880
O2201	O220	0.116010	0.686220	0.298990
O2211	O221	0.053450	0.760400	0.257560
O2221	O222	0.258370	0.825660	0.301290
O2231	O223	0.218230	0.863440	0.352450
O2241	O224	0.013160	0.795740	0.309390
O2251	O225	0.075920	0.722810	0.350520
O2261	O226	0.153980	0.934640	0.312070
Cu2271	Cu227	0.159670	0.788700	0.274500
Cu2281	Cu228	0.111100	0.832210	0.336400
C2291	C229	0.188430	0.952910	0.279770
C2301	C230	0.082840	0.668450	0.331560
C2311	C231	0.998810	0.768430	0.275760
C2321	C232	0.273670	0.856860	0.334230
O2331	O233	0.677740	0.122120	0.644490
O2341	O234	0.888880	0.204900	0.683690
O2351	O235	0.814900	0.263460	0.641270
O2361	O236	0.752260	0.061400	0.687950
O2371	O237	0.784920	0.018330	0.636310
O2381	O238	0.855410	0.223440	0.590950
O2391	O239	0.925160	0.158490	0.634270
O2401	O240	0.715980	0.084080	0.592860
Cu2411	Cu241	0.779360	0.166520	0.669480
Cu2421	Cu242	0.823960	0.116530	0.608610
C2431	C243	0.661990	0.092960	0.611160
C2441	C244	0.942870	0.194480	0.666250
C2451	C245	0.844640	0.277680	0.607990
C2461	C246	0.759790	0.005700	0.670400
O2471	O247	0.528400	0.953490	0.925130
O2481	O248	0.454630	0.087880	0.967110
O2491	O249	0.594120	0.086550	0.967760
O2501	O250	0.387070	0.951220	0.925310
O2511	O251	0.347690	0.873690	0.977050
O2521	O252	0.556540	0.006570	0.018760
O2531	O253	0.418190	0.009540	0.018570
O2541	O254	0.487340	0.873950	0.976270
Cu2551	Cu255	0.494600	0.027730	0.941180
Cu2561	Cu256	0.448160	0.933090	0.002780
C2571	C257	0.519370	0.890010	0.943460
C2581	C258	0.426330	0.073040	0.000650
C2591	C259	0.610820	0.070090	0.000520
C2601	C260	0.332540	0.887940	0.943610
O2611	O261	0.203720	0.290170	0.261880
O2621	O262	0.120740	0.416720	0.302230
O2631	O263	0.262400	0.420810	0.305930
O2641	O264	0.060430	0.282520	0.260700
O2651	O265	0.017910	0.202430	0.311650
O2661	O266	0.220680	0.341850	0.357220
O2671	O267	0.077750	0.336530	0.353140
O2681	O268	0.161430	0.209890	0.312770
Cu2691	Cu269	0.166020	0.360680	0.277660
Cu2701	Cu270	0.115730	0.264650	0.338850
C2711	C271	0.195030	0.226980	0.280180
C2721	C272	0.085770	0.399140	0.334450
C2731	C273	0.275550	0.406180	0.339640
C2741	C274	0.005040	0.218160	0.278100
O2751	O275	0.795380	0.756290	0.635790
O2761	O276	0.851520	0.611950	0.591110
O2771	O277	0.716090	0.620330	0.596290
O2781	O278	0.930510	0.747800	0.632400
O2791	O279	0.894560	0.668400	0.683570
O2801	O280	0.680490	0.541360	0.647610
O2811	O281	0.815920	0.533510	0.642570
O2821	O282	0.759920	0.678060	0.687320
Cu2831	Cu283	0.827190	0.691670	0.608610
Cu2841	Cu284	0.784280	0.597660	0.670490
C2851	C285	0.768800	0.742160	0.669560
C2861	C286	0.841950	0.547430	0.608680
C2871	C287	0.661830	0.558810	0.615580
C2881	C288	0.948670	0.730650	0.664650
N2891	N289	0.120640	0.402370	0.771240
N2901	N290	0.132400	0.429960	0.806320
C2911	C291	0.160350	0.386250	0.826130
C2921	C292	0.166150	0.330980	0.801830
N2931	N293	0.140200	0.342920	0.767870
H2941	H294	0.179920	0.282000	0.808840
N2951	N295	0.458160	0.072320	0.437990
N2961	N296	0.469820	0.099790	0.473110
C2971	C297	0.498190	0.056370	0.492860
C2981	C298	0.504420	0.001470	0.468490
N2991	N299	0.478330	0.013340	0.434560
H3001	H300	0.518390	0.952610	0.475450
N3011	N301	0.790270	0.742480	0.103570
N3021	N302	0.802190	0.769940	0.138690
C3031	C303	0.831870	0.727330	0.158160
C3041	C304	0.838580	0.672990	0.133670
N3051	N305	0.811470	0.684280	0.099910
H3061	H306	0.853360	0.624630	0.140490
N3071	N307	0.143600	0.693820	0.808210
N3081	N308	0.132430	0.703630	0.772050
C3091	C309	0.151970	0.783910	0.767320
C3101	C310	0.175990	0.823530	0.801970
N3111	N311	0.169260	0.764660	0.826710
H3121	H312	0.188760	0.885760	0.809120
N3131	N313	0.460080	0.602290	0.476790
N3141	N314	0.471920	0.591370	0.512740
C3151	C315	0.452120	0.510870	0.516800
C3161	C316	0.427360	0.472330	0.481970
N3171	N317	0.433780	0.531940	0.457790
H3181	H318	0.414710	0.410410	0.474280
N3191	N319	0.906500	0.152900	0.102330
N3201	N320	0.923220	0.140720	0.137360
C3211	C321	0.852590	0.114310	0.157470
C3221	C322	0.791260	0.109910	0.133480
N3231	N323	0.827890	0.134940	0.099350
H3241	H324	0.729540	0.098170	0.140830
N3251	N325	0.764280	0.821530	0.808590
N3261	N326	0.737800	0.807190	0.843930
C3271	C327	0.676110	0.825580	0.846300
C3281	C328	0.665630	0.852190	0.811080
N3291	N329	0.721750	0.848190	0.788350
H3301	H330	0.616940	0.864770	0.802090
N3311	N331	0.862880	0.475460	0.432810
N3321	N332	0.834940	0.463440	0.467900
C3331	C333	0.879730	0.437200	0.487950
C3341	C334	0.936030	0.432810	0.463840
N3351	N335	0.923540	0.457640	0.429700
H3361	H336	0.986390	0.421420	0.471140
N3371	N337	0.427470	0.153330	0.139500
N3381	N338	0.405660	0.142060	0.175490
C3391	C339	0.344830	0.161340	0.179370
C3401	C340	0.329890	0.185130	0.144300
N3411	N341	0.382650	0.178680	0.120210
H3421	H342	0.280520	0.197620	0.136470
