data_MIXZOK_clean_PM
_symmetry_space_group_name_H-M	'P1'
_cell_length_a	19.178600
_cell_length_b	19.178600
_cell_length_c	27.926000
_cell_angle_alpha	90.000000
_cell_angle_beta	90.000000
_cell_angle_gamma	120.000000
_symmetry_Int_Tables_number 1

loop_
_symmetry_equiv_pos_as_xyz
'x,y,z'

loop_
_atom_site_label
_atom_site_type_symbol
_atom_site_fract_x
_atom_site_fract_y
_atom_site_fract_z
C11	C1	0.295100	0.781800	0.683900
C21	C2	0.280200	0.826500	0.644200
C31	C3	0.251800	0.909000	0.571300
C41	C4	0.328000	0.937400	0.589500
H11	H1	0.370700	0.984600	0.577300
C51	C5	0.206300	0.797900	0.625300
H21	H2	0.164400	0.749200	0.636400
C61	C6	0.190700	0.838000	0.590200
H31	H3	0.138400	0.817300	0.578900
C71	C7	0.342100	0.896600	0.626000
H41	H4	0.393900	0.917100	0.638100
O11	O1	0.365900	0.812600	0.698290
O21	O2	0.235600	0.719600	0.698660
C81	C8	0.236600	0.955000	0.534200
C91	C9	0.164300	0.954100	0.533100
H51	H5	0.124200	0.922400	0.554900
C101	C10	0.218200	0.513300	0.683900
C111	C11	0.173500	0.453700	0.644200
C121	C12	0.091000	0.342800	0.571300
C131	C13	0.062600	0.390600	0.589500
H61	H6	0.015400	0.386100	0.577300
C141	C14	0.202100	0.408400	0.625300
H71	H7	0.250800	0.415200	0.636400
C151	C15	0.162000	0.352700	0.590200
H81	H8	0.182700	0.321100	0.578900
C161	C16	0.103400	0.445500	0.626000
H91	H9	0.082900	0.476800	0.638100
O31	O3	0.187400	0.553300	0.698290
O41	O4	0.280400	0.516000	0.698660
C171	C17	0.045000	0.281600	0.534200
C181	C18	0.045900	0.210200	0.533100
H101	H10	0.077600	0.201800	0.554900
C191	C19	0.486700	0.704900	0.683900
C201	C20	0.546300	0.719800	0.644200
C211	C21	0.657200	0.748200	0.571300
C221	C22	0.609400	0.672000	0.589500
H111	H11	0.613900	0.629300	0.577300
C231	C23	0.591600	0.793700	0.625300
H121	H12	0.584800	0.835600	0.636400
C241	C24	0.647300	0.809300	0.590200
H131	H13	0.678900	0.861600	0.578900
C251	C25	0.554500	0.657900	0.626000
H141	H14	0.523200	0.606100	0.638100
O51	O5	0.446700	0.634100	0.698290
O61	O6	0.484000	0.764400	0.698660
C261	C26	0.718400	0.763400	0.534200
C271	C27	0.789800	0.835700	0.533100
H151	H15	0.798200	0.875800	0.554900
C281	C28	0.295100	0.781800	0.816100
C291	C29	0.280200	0.826500	0.855800
C301	C30	0.251800	0.909000	0.928700
C311	C31	0.328000	0.937400	0.910500
H161	H16	0.370700	0.984600	0.922700
C321	C32	0.206300	0.797900	0.874700
H171	H17	0.164400	0.749200	0.863600
C331	C33	0.190700	0.838000	0.909800
H181	H18	0.138400	0.817300	0.921100
C341	C34	0.342100	0.896600	0.874000
H191	H19	0.393900	0.917100	0.861900
O71	O7	0.365900	0.812600	0.801710
O81	O8	0.235600	0.719600	0.801340
C351	C35	0.236600	0.955000	0.965800
C361	C36	0.164300	0.954100	0.966900
H201	H20	0.124200	0.922400	0.945100
C371	C37	0.218200	0.513300	0.816100
C381	C38	0.173500	0.453700	0.855800
C391	C39	0.091000	0.342800	0.928700
C401	C40	0.062600	0.390600	0.910500
H211	H21	0.015400	0.386100	0.922700
C411	C41	0.202100	0.408400	0.874700
H221	H22	0.250800	0.415200	0.863600
C421	C42	0.162000	0.352700	0.909800
H231	H23	0.182700	0.321100	0.921100
C431	C43	0.103400	0.445500	0.874000
H241	H24	0.082900	0.476800	0.861900
O91	O9	0.187400	0.553300	0.801710
O101	O10	0.280400	0.516000	0.801340
C441	C44	0.045000	0.281600	0.965800
C451	C45	0.045900	0.210200	0.966900
H251	H25	0.077600	0.201800	0.945100
C461	C46	0.486700	0.704900	0.816100
C471	C47	0.546300	0.719800	0.855800
C481	C48	0.657200	0.748200	0.928700
C491	C49	0.609400	0.672000	0.910500
H261	H26	0.613900	0.629300	0.922700
C501	C50	0.591600	0.793700	0.874700
H271	H27	0.584800	0.835600	0.863600
C511	C51	0.647300	0.809300	0.909800
H281	H28	0.678900	0.861600	0.921100
C521	C52	0.554500	0.657900	0.874000
H291	H29	0.523200	0.606100	0.861900
O111	O11	0.446700	0.634100	0.801710
O121	O12	0.484000	0.764400	0.801340
C531	C53	0.718400	0.763400	0.965800
C541	C54	0.789800	0.835700	0.966900
H301	H30	0.798200	0.875800	0.945100
C551	C55	0.781800	0.295100	0.316100
C561	C56	0.826500	0.280200	0.355800
C571	C57	0.909000	0.251800	0.428700
C581	C58	0.937400	0.328000	0.410500
H311	H31	0.984600	0.370700	0.422700
C591	C59	0.797900	0.206300	0.374700
H321	H32	0.749200	0.164400	0.363600
C601	C60	0.838000	0.190700	0.409800
H331	H33	0.817300	0.138400	0.421100
C611	C61	0.896600	0.342100	0.374000
H341	H34	0.917100	0.393900	0.361900
O131	O13	0.812600	0.365900	0.301710
O141	O14	0.719600	0.235600	0.301340
C621	C62	0.955000	0.236600	0.465800
C631	C63	0.954100	0.164300	0.466900
H351	H35	0.922400	0.124200	0.445100
C641	C64	0.513300	0.218200	0.316100
C651	C65	0.453700	0.173500	0.355800
C661	C66	0.342800	0.091000	0.428700
C671	C67	0.390600	0.062600	0.410500
H361	H36	0.386100	0.015400	0.422700
C681	C68	0.408400	0.202100	0.374700
H371	H37	0.415200	0.250800	0.363600
C691	C69	0.352700	0.162000	0.409800
H381	H38	0.321100	0.182700	0.421100
C701	C70	0.445500	0.103400	0.374000
H391	H39	0.476800	0.082900	0.361900
O151	O15	0.553300	0.187400	0.301710
O161	O16	0.516000	0.280400	0.301340
C711	C71	0.281600	0.045000	0.465800
C721	C72	0.210200	0.045900	0.466900
H401	H40	0.201800	0.077600	0.445100
C731	C73	0.704900	0.486700	0.316100
C741	C74	0.719800	0.546300	0.355800
C751	C75	0.748200	0.657200	0.428700
C761	C76	0.672000	0.609400	0.410500
H411	H41	0.629300	0.613900	0.422700
C771	C77	0.793700	0.591600	0.374700
H421	H42	0.835600	0.584800	0.363600
C781	C78	0.809300	0.647300	0.409800
H431	H43	0.861600	0.678900	0.421100
C791	C79	0.657900	0.554500	0.374000
H441	H44	0.606100	0.523200	0.361900
O171	O17	0.634100	0.446700	0.301710
O181	O18	0.764400	0.484000	0.301340
C801	C80	0.763400	0.718400	0.465800
C811	C81	0.835700	0.789800	0.466900
H451	H45	0.875800	0.798200	0.445100
C821	C82	0.781800	0.295100	0.183900
C831	C83	0.826500	0.280200	0.144200
C841	C84	0.909000	0.251800	0.071300
C851	C85	0.937400	0.328000	0.089500
H461	H46	0.984600	0.370700	0.077300
C861	C86	0.797900	0.206300	0.125300
H471	H47	0.749200	0.164400	0.136400
C871	C87	0.838000	0.190700	0.090200
H481	H48	0.817300	0.138400	0.078900
C881	C88	0.896600	0.342100	0.126000
H491	H49	0.917100	0.393900	0.138100
O191	O19	0.812600	0.365900	0.198290
O201	O20	0.719600	0.235600	0.198660
C891	C89	0.955000	0.236600	0.034200
C901	C90	0.954100	0.164300	0.033100
H501	H50	0.922400	0.124200	0.054900
C911	C91	0.513300	0.218200	0.183900
C921	C92	0.453700	0.173500	0.144200
C931	C93	0.342800	0.091000	0.071300
C941	C94	0.390600	0.062600	0.089500
H511	H51	0.386100	0.015400	0.077300
C951	C95	0.408400	0.202100	0.125300
H521	H52	0.415200	0.250800	0.136400
C961	C96	0.352700	0.162000	0.090200
H531	H53	0.321100	0.182700	0.078900
C971	C97	0.445500	0.103400	0.126000
H541	H54	0.476800	0.082900	0.138100
O211	O21	0.553300	0.187400	0.198290
O221	O22	0.516000	0.280400	0.198660
C981	C98	0.281600	0.045000	0.034200
C991	C99	0.210200	0.045900	0.033100
H551	H55	0.201800	0.077600	0.054900
C1001	C100	0.704900	0.486700	0.183900
C1011	C101	0.719800	0.546300	0.144200
C1021	C102	0.748200	0.657200	0.071300
C1031	C103	0.672000	0.609400	0.089500
H561	H56	0.629300	0.613900	0.077300
C1041	C104	0.793700	0.591600	0.125300
H571	H57	0.835600	0.584800	0.136400
C1051	C105	0.809300	0.647300	0.090200
H581	H58	0.861600	0.678900	0.078900
C1061	C106	0.657900	0.554500	0.126000
H591	H59	0.606100	0.523200	0.138100
O231	O23	0.634100	0.446700	0.198290
O241	O24	0.764400	0.484000	0.198660
C1071	C107	0.763400	0.718400	0.034200
C1081	C108	0.835700	0.789800	0.033100
H601	H60	0.875800	0.798200	0.054900
Ni11	Ni1	0.419290	0.781020	0.750000
Ni21	Ni2	0.218980	0.638270	0.750000
Ni31	Ni3	0.361730	0.580710	0.750000
Ni41	Ni4	0.781020	0.419290	0.250000
Ni51	Ni5	0.638270	0.218980	0.250000
Ni61	Ni6	0.580710	0.361730	0.250000
O251	O25	0.333330	0.666670	0.750000
O261	O26	0.666670	0.333330	0.250000
C1091	C109	0.070800	0.000000	0.500000
C1101	C110	0.150600	0.000000	0.500000
C1111	C111	0.293200	0.000000	0.500000
H611	H61	0.341700	0.000000	0.500000
C1121	C112	0.000000	0.070800	0.500000
C1131	C113	0.000000	0.150600	0.500000
C1141	C114	0.000000	0.293200	0.500000
H621	H62	0.000000	0.341700	0.500000
C1151	C115	0.929200	0.929200	0.500000
C1161	C116	0.849400	0.849400	0.500000
C1171	C117	0.706800	0.706800	0.500000
H631	H63	0.658300	0.658300	0.500000
C1181	C118	0.070800	0.000000	0.000000
C1191	C119	0.150600	0.000000	0.000000
C1201	C120	0.293200	0.000000	0.000000
H641	H64	0.341700	0.000000	0.000000
C1211	C121	0.000000	0.070800	0.000000
C1221	C122	0.000000	0.150600	0.000000
C1231	C123	0.000000	0.293200	0.000000
H651	H65	0.000000	0.341700	0.000000
C1241	C124	0.929200	0.929200	0.000000
C1251	C125	0.849400	0.849400	0.000000
C1261	C126	0.706800	0.706800	0.000000
H661	H66	0.658300	0.658300	0.000000
C1271	C127	0.000000	0.927600	0.500000
H671	H67	0.000000	0.879100	0.500000
C1281	C128	0.072400	0.072400	0.500000
H681	H68	0.120900	0.120900	0.500000
C1291	C129	0.927600	0.000000	0.500000
H691	H69	0.879100	0.000000	0.500000
C1301	C130	0.000000	0.927600	0.000000
H701	H70	0.000000	0.879100	0.000000
C1311	C131	0.072400	0.072400	0.000000
H711	H71	0.120900	0.120900	0.000000
C1321	C132	0.927600	0.000000	0.000000
H721	H72	0.879100	0.000000	0.000000
