data_MIZKOW_clean_PM
_symmetry_space_group_name_H-M	'P1'
_cell_length_a	9.382500
_cell_length_b	9.677300
_cell_length_c	21.693900
_cell_angle_alpha	90.000000
_cell_angle_beta	90.000000
_cell_angle_gamma	115.312000
_symmetry_Int_Tables_number 1

loop_
_symmetry_equiv_pos_as_xyz
'x,y,z'

loop_
_atom_site_label
_atom_site_type_symbol
_atom_site_fract_x
_atom_site_fract_y
_atom_site_fract_z
La11	La1	0.122050	0.361680	0.991430
La21	La2	0.377950	0.638320	0.491430
La31	La3	0.877950	0.638320	0.008570
La41	La4	0.622050	0.361680	0.508570
Cu11	Cu1	0.456420	0.308740	0.856100
Cu21	Cu2	0.043580	0.691260	0.356100
Cu31	Cu3	0.543580	0.691260	0.143900
Cu41	Cu4	0.956420	0.308740	0.643900
H11	H1	0.703000	0.206800	0.846500
H21	H2	0.755900	0.007300	0.876200
H31	H3	0.563400	0.802900	0.929200
H41	H4	0.292400	0.027700	0.927400
H51	H5	0.878000	0.574400	0.655100
H61	H6	0.848700	0.721300	0.732200
H71	H7	0.896100	0.676600	0.834100
H81	H8	0.002300	0.342400	0.772800
H91	H9	0.797000	0.793200	0.346500
H101	H10	0.744100	0.992700	0.376200
H111	H11	0.936600	0.197100	0.429200
H121	H12	0.207600	0.972300	0.427400
H131	H13	0.622000	0.425600	0.155100
H141	H14	0.651300	0.278700	0.232200
H151	H15	0.603900	0.323400	0.334100
H161	H16	0.497700	0.657600	0.272800
H171	H17	0.297000	0.793200	0.153500
H181	H18	0.244100	0.992700	0.123800
H191	H19	0.436600	0.197100	0.070800
H201	H20	0.707600	0.972300	0.072600
H211	H21	0.122000	0.425600	0.344900
H221	H22	0.151300	0.278700	0.267800
H231	H23	0.103900	0.323400	0.165900
H241	H24	0.997700	0.657600	0.227200
H251	H25	0.203000	0.206800	0.653500
H261	H26	0.255900	0.007300	0.623800
H271	H27	0.063400	0.802900	0.570800
H281	H28	0.792400	0.027700	0.572600
H291	H29	0.378000	0.574400	0.844900
H301	H30	0.348700	0.721300	0.767800
H311	H31	0.396100	0.676600	0.665900
H321	H32	0.502300	0.342400	0.727200
C11	C1	0.627600	0.127900	0.869230
C21	C2	0.659700	0.007900	0.886000
C31	C3	0.545900	0.887100	0.918060
C41	C4	0.405400	0.893800	0.933140
C51	C5	0.385200	0.021700	0.916040
C61	C6	0.275900	0.763500	0.966480
C71	C7	0.896900	0.555300	0.695610
C81	C8	0.879400	0.644200	0.741600
C91	C9	0.908000	0.618200	0.802240
C101	C10	0.954600	0.503100	0.814130
C111	C11	0.969800	0.418900	0.764810
C121	C12	0.992500	0.464700	0.876970
C131	C13	0.503700	0.476800	0.966050
C141	C14	0.987300	0.992000	0.964260
C151	C15	0.872400	0.872100	0.369230
C161	C16	0.840300	0.992100	0.386000
C171	C17	0.954100	0.112900	0.418060
C181	C18	0.094600	0.106200	0.433140
C191	C19	0.114800	0.978300	0.416040
C201	C20	0.224100	0.236500	0.466480
C211	C21	0.603100	0.444700	0.195610
C221	C22	0.620600	0.355800	0.241600
C231	C23	0.592000	0.381800	0.302240
C241	C24	0.545400	0.496900	0.314130
C251	C25	0.530200	0.581100	0.264810
C261	C26	0.507500	0.535300	0.376970
C271	C27	0.996300	0.523200	0.466050
C281	C28	0.512700	0.008000	0.464260
C291	C29	0.372400	0.872100	0.130770
C301	C30	0.340300	0.992100	0.114000
C311	C31	0.454100	0.112900	0.081940
C321	C32	0.594600	0.106200	0.066860
C331	C33	0.614800	0.978300	0.083960
C341	C34	0.724100	0.236500	0.033520
C351	C35	0.103100	0.444700	0.304390
C361	C36	0.120600	0.355800	0.258400
C371	C37	0.092000	0.381800	0.197760
C381	C38	0.045400	0.496900	0.185870
C391	C39	0.030200	0.581100	0.235190
C401	C40	0.007500	0.535300	0.123030
C411	C41	0.496300	0.523200	0.033950
C421	C42	0.012700	0.008000	0.035740
C431	C43	0.127600	0.127900	0.630770
C441	C44	0.159700	0.007900	0.614000
C451	C45	0.045900	0.887100	0.581940
C461	C46	0.905400	0.893800	0.566860
C471	C47	0.885200	0.021700	0.583960
C481	C48	0.775900	0.763500	0.533520
C491	C49	0.396900	0.555300	0.804390
C501	C50	0.379400	0.644200	0.758400
C511	C51	0.408000	0.618200	0.697760
C521	C52	0.454600	0.503100	0.685870
C531	C53	0.469800	0.418900	0.735190
C541	C54	0.492500	0.464700	0.623030
C551	C55	0.003700	0.476800	0.533950
C561	C56	0.487300	0.992000	0.535740
N11	N1	0.493300	0.138100	0.883710
N21	N2	0.939900	0.442400	0.706440
N31	N3	0.006700	0.861900	0.383710
N41	N4	0.560100	0.557600	0.206440
N51	N5	0.506700	0.861900	0.116290
N61	N6	0.060100	0.557600	0.293560
N71	N7	0.993300	0.138100	0.616290
N81	N8	0.439900	0.442400	0.793560
O11	O1	0.286700	0.638900	0.967190
O21	O2	0.167500	0.788500	0.989850
O31	O3	0.062600	0.380800	0.880140
O41	O4	0.954100	0.517900	0.923650
O51	O5	0.376100	0.381800	0.942880
O61	O6	0.634100	0.535500	0.939610
O71	O7	0.050900	0.112700	0.933860
O81	O8	0.906700	0.860800	0.943380
O91	O9	0.213300	0.361100	0.467190
O101	O10	0.332500	0.211500	0.489850
O111	O11	0.437400	0.619200	0.380140
O121	O12	0.545900	0.482100	0.423650
O131	O13	0.123900	0.618200	0.442880
O141	O14	0.865900	0.464500	0.439610
O151	O15	0.449100	0.887300	0.433860
O161	O16	0.593300	0.139200	0.443380
O171	O17	0.713300	0.361100	0.032810
O181	O18	0.832500	0.211500	0.010150
O191	O19	0.937400	0.619200	0.119860
O201	O20	0.045900	0.482100	0.076350
O211	O21	0.623900	0.618200	0.057120
O221	O22	0.365900	0.464500	0.060390
O231	O23	0.949100	0.887300	0.066140
O241	O24	0.093300	0.139200	0.056620
O251	O25	0.786700	0.638900	0.532810
O261	O26	0.667500	0.788500	0.510150
O271	O27	0.562600	0.380800	0.619860
O281	O28	0.454100	0.517900	0.576350
O291	O29	0.876100	0.381800	0.557120
O301	O30	0.134100	0.535500	0.560390
O311	O31	0.550900	0.112700	0.566140
O321	O32	0.406700	0.860800	0.556620
