data_MOBBOU_clean_PM
_symmetry_space_group_name_H-M	'P1'
_cell_length_a	9.021100
_cell_length_b	9.021100
_cell_length_c	12.720000
_cell_angle_alpha	85.208900
_cell_angle_beta	85.208900
_cell_angle_gamma	79.376900
_symmetry_Int_Tables_number 1

loop_
_symmetry_equiv_pos_as_xyz
'x,y,z'

loop_
_atom_site_label
_atom_site_type_symbol
_atom_site_fract_x
_atom_site_fract_y
_atom_site_fract_z
Th11	Th1	0.265150	0.734850	0.250000
Th21	Th2	0.734850	0.265150	0.750000
C11	C1	0.054200	0.508200	0.390600
C21	C2	0.879100	0.419900	0.525600
C31	C3	0.937000	0.426600	0.421200
C41	C4	0.084000	0.003600	0.089900
C51	C5	0.965100	0.139900	0.938800
C61	C6	0.045500	0.139100	0.022900
C71	C7	0.491800	0.945800	0.109400
C81	C8	0.580100	0.120900	0.974400
C91	C9	0.573400	0.063000	0.078800
C101	C10	0.996400	0.916000	0.410100
C111	C11	0.860100	0.034900	0.561200
C121	C12	0.860900	0.954500	0.477100
C131	C13	0.945800	0.491800	0.609400
C141	C14	0.120900	0.580100	0.474400
C151	C15	0.063000	0.573400	0.578800
C161	C16	0.916000	0.996400	0.910100
C171	C17	0.034900	0.860100	0.061200
C181	C18	0.954500	0.860900	0.977100
C191	C19	0.508200	0.054200	0.890600
C201	C20	0.419900	0.879100	0.025600
C211	C21	0.426600	0.937000	0.921200
C221	C22	0.003600	0.084000	0.589900
C231	C23	0.139900	0.965100	0.438800
C241	C24	0.139100	0.045500	0.522900
Cl11	Cl1	0.868630	0.336030	0.326600
Cl21	Cl2	0.098300	0.302100	0.058600
Cl31	Cl3	0.663970	0.131370	0.173400
Cl41	Cl4	0.697900	0.901700	0.441400
Cl51	Cl5	0.131370	0.663970	0.673400
Cl61	Cl6	0.901700	0.697900	0.941400
Cl71	Cl7	0.336030	0.868630	0.826600
Cl81	Cl8	0.302100	0.098300	0.558600
O11	O1	0.107200	0.531400	0.298600
O21	O2	0.765400	0.360600	0.558700
O31	O3	0.161700	0.992100	0.168400
O41	O4	0.927300	0.255300	0.875800
O51	O5	0.468600	0.892800	0.201400
O61	O6	0.639400	0.234600	0.941300
O71	O7	0.007900	0.838300	0.331600
O81	O8	0.744700	0.072700	0.624200
O91	O9	0.892800	0.468600	0.701400
O101	O10	0.234600	0.639400	0.441300
O111	O11	0.838300	0.007900	0.831600
O121	O12	0.072700	0.744700	0.124200
O131	O13	0.531400	0.107200	0.798600
O141	O14	0.360600	0.765400	0.058700
O151	O15	0.992100	0.161700	0.668400
O161	O16	0.255300	0.927300	0.375800
