data_MOCHES_clean_PM
_symmetry_space_group_name_H-M	'P1'
_cell_length_a	6.676400
_cell_length_b	7.068400
_cell_length_c	7.810300
_cell_angle_alpha	111.141000
_cell_angle_beta	95.415000
_cell_angle_gamma	90.457000
_symmetry_Int_Tables_number 1

loop_
_symmetry_equiv_pos_as_xyz
'x,y,z'

loop_
_atom_site_label
_atom_site_type_symbol
_atom_site_fract_x
_atom_site_fract_y
_atom_site_fract_z
Pr11	Pr1	0.868200	0.777210	0.065930
Pr21	Pr2	0.131800	0.222790	0.934070
P11	P1	0.325020	0.747460	0.979270
P21	P2	0.674980	0.252540	0.020730
H11	H1	0.362200	0.720400	0.797800
H21	H2	0.637800	0.279600	0.202200
C11	C1	0.061000	0.908300	0.500600
C21	C2	0.939000	0.091700	0.499400
O11	O1	0.198500	0.937400	0.034100
O21	O2	0.519800	0.771900	0.101300
O31	O3	0.183200	0.574700	0.975000
O41	O4	0.052200	0.759900	0.352200
O51	O5	0.839700	0.076000	0.350900
O61	O6	0.801500	0.062600	0.965900
O71	O7	0.480200	0.228100	0.898700
O81	O8	0.816800	0.425300	0.025000
O91	O9	0.947800	0.240100	0.647800
O101	O10	0.160300	0.924000	0.649100
