data_MOCHIW_clean_PM
_symmetry_space_group_name_H-M	'P1'
_cell_length_a	6.654400
_cell_length_b	7.038000
_cell_length_c	7.793800
_cell_angle_alpha	111.160000
_cell_angle_beta	95.307000
_cell_angle_gamma	90.590000
_symmetry_Int_Tables_number 1

loop_
_symmetry_equiv_pos_as_xyz
'x,y,z'

loop_
_atom_site_label
_atom_site_type_symbol
_atom_site_fract_x
_atom_site_fract_y
_atom_site_fract_z
Nd11	Nd1	0.869830	0.777650	0.066520
Nd21	Nd2	0.130170	0.222350	0.933480
P11	P1	0.325930	0.747900	0.979190
P21	P2	0.674070	0.252100	0.020810
H11	H1	0.362200	0.720400	0.797800
H21	H2	0.637800	0.279600	0.202200
C11	C1	0.062000	0.907900	0.500100
C21	C2	0.938000	0.092100	0.499900
O11	O1	0.199200	0.939000	0.034700
O21	O2	0.521700	0.772400	0.102000
O31	O3	0.181500	0.573100	0.972900
O41	O4	0.052800	0.759100	0.351100
O51	O5	0.841000	0.077800	0.350500
O61	O6	0.800800	0.061000	0.965300
O71	O7	0.478300	0.227600	0.898000
O81	O8	0.818500	0.426900	0.027100
O91	O9	0.947200	0.240900	0.648900
O101	O10	0.159000	0.922200	0.649500
