data_MOCHUI_clean_PM
_symmetry_space_group_name_H-M	'P1'
_cell_length_a	6.543400
_cell_length_b	6.931100
_cell_length_c	7.746500
_cell_angle_alpha	111.487000
_cell_angle_beta	95.645000
_cell_angle_gamma	90.833000
_symmetry_Int_Tables_number 1

loop_
_symmetry_equiv_pos_as_xyz
'x,y,z'

loop_
_atom_site_label
_atom_site_type_symbol
_atom_site_fract_x
_atom_site_fract_y
_atom_site_fract_z
Gd11	Gd1	0.873970	0.779480	0.067660
Gd21	Gd2	0.126030	0.220520	0.932340
P11	P1	0.328400	0.747920	0.979940
P21	P2	0.671600	0.252080	0.020060
H11	H1	0.362200	0.720400	0.797800
H21	H2	0.637800	0.279600	0.202200
C11	C1	0.059100	0.905800	0.500900
C21	C2	0.940900	0.094200	0.499100
O11	O1	0.199400	0.941500	0.035700
O21	O2	0.528000	0.776000	0.104800
O31	O3	0.182500	0.572100	0.975800
O41	O4	0.051800	0.755400	0.348300
O51	O5	0.847500	0.083400	0.347400
O61	O6	0.800600	0.058500	0.964300
O71	O7	0.472000	0.224000	0.895200
O81	O8	0.817500	0.427900	0.024200
O91	O9	0.948200	0.244600	0.651700
O101	O10	0.152500	0.916600	0.652600
