data_MOCJAQ_clean_PM
_symmetry_space_group_name_H-M	'P1'
_cell_length_a	6.462800
_cell_length_b	6.851900
_cell_length_c	7.693600
_cell_angle_alpha	111.646000
_cell_angle_beta	95.779000
_cell_angle_gamma	91.028000
_symmetry_Int_Tables_number 1

loop_
_symmetry_equiv_pos_as_xyz
'x,y,z'

loop_
_atom_site_label
_atom_site_type_symbol
_atom_site_fract_x
_atom_site_fract_y
_atom_site_fract_z
Ho11	Ho1	0.876150	0.780550	0.068150
Ho21	Ho2	0.123850	0.219450	0.931850
P11	P1	0.329920	0.747650	0.979450
P21	P2	0.670080	0.252350	0.020550
H11	H1	0.362200	0.720400	0.797800
H21	H2	0.637800	0.279600	0.202200
C11	C1	0.057700	0.903600	0.500500
C21	C2	0.942300	0.096400	0.499500
O11	O1	0.198900	0.941800	0.035300
O21	O2	0.532600	0.777800	0.105500
O31	O3	0.182000	0.570100	0.976900
O41	O4	0.050800	0.753600	0.345500
O51	O5	0.851600	0.085600	0.344900
O61	O6	0.801100	0.058200	0.964700
O71	O7	0.467400	0.222200	0.894500
O81	O8	0.818000	0.429900	0.023100
O91	O9	0.949200	0.246400	0.654500
O101	O10	0.148400	0.914400	0.655100
