data_MOCJEU_clean_PM
_symmetry_space_group_name_H-M	'P1'
_cell_length_a	6.440000
_cell_length_b	6.832600
_cell_length_c	7.674700
_cell_angle_alpha	111.654000
_cell_angle_beta	95.757000
_cell_angle_gamma	91.096000
_symmetry_Int_Tables_number 1

loop_
_symmetry_equiv_pos_as_xyz
'x,y,z'

loop_
_atom_site_label
_atom_site_type_symbol
_atom_site_fract_x
_atom_site_fract_y
_atom_site_fract_z
Er11	Er1	0.876650	0.780780	0.068400
Er21	Er2	0.123350	0.219220	0.931600
P11	P1	0.330200	0.747600	0.979200
P21	P2	0.669800	0.252400	0.020800
H11	H1	0.362200	0.720400	0.797800
H21	H2	0.637800	0.279600	0.202200
C11	C1	0.056200	0.902800	0.500700
C21	C2	0.943800	0.097200	0.499300
O11	O1	0.197900	0.941700	0.035700
O21	O2	0.533700	0.779200	0.105500
O31	O3	0.181500	0.569900	0.976500
O41	O4	0.050900	0.752500	0.346500
O51	O5	0.853600	0.084500	0.346300
O61	O6	0.802100	0.058300	0.964300
O71	O7	0.466300	0.220800	0.894500
O81	O8	0.818500	0.430100	0.023500
O91	O9	0.949100	0.247500	0.653500
O101	O10	0.146400	0.915500	0.653700
