data_MOCKAR_clean_PM
_symmetry_space_group_name_H-M	'P1'
_cell_length_a	15.048800
_cell_length_b	15.048800
_cell_length_c	15.048800
_cell_angle_alpha	77.286400
_cell_angle_beta	77.286400
_cell_angle_gamma	77.286400
_symmetry_Int_Tables_number 1

loop_
_symmetry_equiv_pos_as_xyz
'x,y,z'

loop_
_atom_site_label
_atom_site_type_symbol
_atom_site_fract_x
_atom_site_fract_y
_atom_site_fract_z
Cu11	Cu1	0.580500	0.012940	0.012840
Cu21	Cu2	0.012840	0.580500	0.012940
Cu31	Cu3	0.012940	0.012840	0.580500
Cu41	Cu4	0.419500	0.987060	0.987160
Cu51	Cu5	0.987160	0.419500	0.987060
Cu61	Cu6	0.987060	0.987160	0.419500
H11	H1	0.289200	0.976200	0.252800
H21	H2	0.297400	0.987900	0.510700
H31	H3	0.518500	0.992300	0.325700
H41	H4	0.460700	0.985300	0.571700
H51	H5	0.252800	0.289200	0.976200
H61	H6	0.510700	0.297400	0.987900
H71	H7	0.325700	0.518500	0.992300
H81	H8	0.571700	0.460700	0.985300
H91	H9	0.976200	0.252800	0.289200
H101	H10	0.987900	0.510700	0.297400
H111	H11	0.992300	0.325700	0.518500
H121	H12	0.985300	0.571700	0.460700
H131	H13	0.710800	0.023800	0.747200
H141	H14	0.702600	0.012100	0.489300
H151	H15	0.481500	0.007700	0.674300
H161	H16	0.539300	0.014700	0.428300
H171	H17	0.747200	0.710800	0.023800
H181	H18	0.489300	0.702600	0.012100
H191	H19	0.674300	0.481500	0.007700
H201	H20	0.428300	0.539300	0.014700
H211	H21	0.023800	0.747200	0.710800
H221	H22	0.012100	0.489300	0.702600
H231	H23	0.007700	0.674300	0.481500
H241	H24	0.014700	0.428300	0.539300
C11	C1	0.439300	0.982200	0.169300
C21	C2	0.321700	0.980200	0.297300
C31	C3	0.413200	0.984300	0.274600
C41	C4	0.329200	0.987100	0.450300
C51	C5	0.455800	0.989600	0.344000
C61	C6	0.422500	0.991500	0.435100
C71	C7	0.490900	0.000700	0.476300
C81	C8	0.278000	0.981800	0.387100
C91	C9	0.824400	0.016000	0.567600
C101	C10	0.169300	0.439300	0.982200
C111	C11	0.297300	0.321700	0.980200
C121	C12	0.274600	0.413200	0.984300
C131	C13	0.450300	0.329200	0.987100
C141	C14	0.344000	0.455800	0.989600
C151	C15	0.435100	0.422500	0.991500
C161	C16	0.476300	0.490900	0.000700
C171	C17	0.387100	0.278000	0.981800
C181	C18	0.567600	0.824400	0.016000
C191	C19	0.982200	0.169300	0.439300
C201	C20	0.980200	0.297300	0.321700
C211	C21	0.984300	0.274600	0.413200
C221	C22	0.987100	0.450300	0.329200
C231	C23	0.989600	0.344000	0.455800
C241	C24	0.991500	0.435100	0.422500
C251	C25	0.000700	0.476300	0.490900
C261	C26	0.981800	0.387100	0.278000
C271	C27	0.016000	0.567600	0.824400
C281	C28	0.560700	0.017800	0.830700
C291	C29	0.678300	0.019800	0.702700
C301	C30	0.586800	0.015700	0.725400
C311	C31	0.670800	0.012900	0.549700
C321	C32	0.544200	0.010400	0.656000
C331	C33	0.577500	0.008500	0.564900
C341	C34	0.509100	0.999300	0.523700
C351	C35	0.722000	0.018200	0.612900
C361	C36	0.175600	0.984000	0.432400
C371	C37	0.830700	0.560700	0.017800
C381	C38	0.702700	0.678300	0.019800
C391	C39	0.725400	0.586800	0.015700
C401	C40	0.549700	0.670800	0.012900
C411	C41	0.656000	0.544200	0.010400
C421	C42	0.564900	0.577500	0.008500
C431	C43	0.523700	0.509100	0.999300
C441	C44	0.612900	0.722000	0.018200
C451	C45	0.432400	0.175600	0.984000
C461	C46	0.017800	0.830700	0.560700
C471	C47	0.019800	0.702700	0.678300
C481	C48	0.015700	0.725400	0.586800
C491	C49	0.012900	0.549700	0.670800
C501	C50	0.010400	0.656000	0.544200
C511	C51	0.008500	0.564900	0.577500
C521	C52	0.999300	0.523700	0.509100
C531	C53	0.018200	0.612900	0.722000
C541	C54	0.984000	0.432400	0.175600
O11	O1	0.382000	0.977500	0.123000
O21	O2	0.520700	0.997800	0.142200
O31	O3	0.877600	0.024100	0.614600
O41	O4	0.853400	0.004300	0.485800
O51	O5	0.123000	0.382000	0.977500
O61	O6	0.142200	0.520700	0.997800
O71	O7	0.614600	0.877600	0.024100
O81	O8	0.485800	0.853400	0.004300
O91	O9	0.977500	0.123000	0.382000
O101	O10	0.997800	0.142200	0.520700
O111	O11	0.024100	0.614600	0.877600
O121	O12	0.004300	0.485800	0.853400
O131	O13	0.618000	0.022500	0.877000
O141	O14	0.479300	0.002200	0.857800
O151	O15	0.122400	0.975900	0.385400
O161	O16	0.146600	0.995700	0.514200
O171	O17	0.877000	0.618000	0.022500
O181	O18	0.857800	0.479300	0.002200
O191	O19	0.385400	0.122400	0.975900
O201	O20	0.514200	0.146600	0.995700
O211	O21	0.022500	0.877000	0.618000
O221	O22	0.002200	0.857800	0.479300
O231	O23	0.975900	0.385400	0.122400
O241	O24	0.995700	0.514200	0.146600
