data_MOCKEV_clean_PM
_symmetry_space_group_name_H-M	'P1'
_cell_length_a	14.896600
_cell_length_b	14.896600
_cell_length_c	14.896600
_cell_angle_alpha	78.245300
_cell_angle_beta	78.245300
_cell_angle_gamma	78.245300
_symmetry_Int_Tables_number 1

loop_
_symmetry_equiv_pos_as_xyz
'x,y,z'

loop_
_atom_site_label
_atom_site_type_symbol
_atom_site_fract_x
_atom_site_fract_y
_atom_site_fract_z
Cu11	Cu1	0.486110	0.918730	0.486080
Cu21	Cu2	0.486080	0.486110	0.918730
Cu31	Cu3	0.918730	0.486080	0.486110
Cu41	Cu4	0.513890	0.081270	0.513920
Cu51	Cu5	0.513920	0.513890	0.081270
Cu61	Cu6	0.081270	0.513920	0.513890
H11	H1	0.771300	0.765100	0.478100
H21	H2	0.191500	0.979700	0.503300
H31	H3	0.970800	0.188000	0.515100
H41	H4	0.478100	0.771300	0.765100
H51	H5	0.503300	0.191500	0.979700
H61	H6	0.515100	0.970800	0.188000
H71	H7	0.765100	0.478100	0.771300
H81	H8	0.979700	0.503300	0.191500
H91	H9	0.188000	0.515100	0.970800
H101	H10	0.228700	0.234900	0.521900
H111	H11	0.808500	0.020300	0.496700
H121	H12	0.029200	0.812000	0.484900
H131	H13	0.521900	0.228700	0.234900
H141	H14	0.496700	0.808500	0.020300
H151	H15	0.484900	0.029200	0.812000
H161	H16	0.234900	0.521900	0.228700
H171	H17	0.020300	0.496700	0.808500
H181	H18	0.812000	0.484900	0.029200
C11	C1	0.229400	0.094100	0.519300
C21	C2	0.094200	0.230000	0.513200
C31	C3	0.189600	0.194000	0.518600
C41	C4	0.169400	0.042600	0.508100
C51	C5	0.327100	0.067800	0.519000
C61	C6	0.035500	0.168800	0.511300
C71	C7	0.078300	0.076600	0.503100
C81	C8	0.939000	0.665600	0.484300
C91	C9	0.519300	0.229400	0.094100
C101	C10	0.513200	0.094200	0.230000
C111	C11	0.518600	0.189600	0.194000
C121	C12	0.508100	0.169400	0.042600
C131	C13	0.519000	0.327100	0.067800
C141	C14	0.511300	0.035500	0.168800
C151	C15	0.503100	0.078300	0.076600
C161	C16	0.484300	0.939000	0.665600
C171	C17	0.094100	0.519300	0.229400
C181	C18	0.230000	0.513200	0.094200
C191	C19	0.194000	0.518600	0.189600
C201	C20	0.042600	0.508100	0.169400
C211	C21	0.067800	0.519000	0.327100
C221	C22	0.168800	0.511300	0.035500
C231	C23	0.076600	0.503100	0.078300
C241	C24	0.665600	0.484300	0.939000
C251	C25	0.770600	0.905900	0.480700
C261	C26	0.905800	0.770000	0.486800
C271	C27	0.810400	0.806000	0.481400
C281	C28	0.830600	0.957400	0.491900
C291	C29	0.672900	0.932200	0.481000
C301	C30	0.964500	0.831200	0.488700
C311	C31	0.921700	0.923400	0.496900
C321	C32	0.061000	0.334400	0.515700
C331	C33	0.480700	0.770600	0.905900
C341	C34	0.486800	0.905800	0.770000
C351	C35	0.481400	0.810400	0.806000
C361	C36	0.491900	0.830600	0.957400
C371	C37	0.481000	0.672900	0.932200
C381	C38	0.488700	0.964500	0.831200
C391	C39	0.496900	0.921700	0.923400
C401	C40	0.515700	0.061000	0.334400
C411	C41	0.905900	0.480700	0.770600
C421	C42	0.770000	0.486800	0.905800
C431	C43	0.806000	0.481400	0.810400
C441	C44	0.957400	0.491900	0.830600
C451	C45	0.932200	0.481000	0.672900
C461	C46	0.831200	0.488700	0.964500
C471	C47	0.923400	0.496900	0.921700
C481	C48	0.334400	0.515700	0.061000
N11	N1	0.020000	0.017000	0.504000
N21	N2	0.504000	0.020000	0.017000
N31	N3	0.017000	0.504000	0.020000
N41	N4	0.980000	0.983000	0.496000
N51	N5	0.496000	0.980000	0.983000
N61	N6	0.983000	0.496000	0.980000
O11	O1	0.383100	0.120300	0.521500
O21	O2	0.877700	0.619800	0.476800
O31	O3	0.022000	0.643000	0.500400
O41	O4	0.355300	0.978100	0.505500
O51	O5	0.521500	0.383100	0.120300
O61	O6	0.476800	0.877700	0.619800
O71	O7	0.500400	0.022000	0.643000
O81	O8	0.505500	0.355300	0.978100
O91	O9	0.120300	0.521500	0.383100
O101	O10	0.619800	0.476800	0.877700
O111	O11	0.643000	0.500400	0.022000
O121	O12	0.978100	0.505500	0.355300
O131	O13	0.616900	0.879700	0.478500
O141	O14	0.122300	0.380200	0.523200
O151	O15	0.978000	0.357000	0.499600
O161	O16	0.644700	0.021900	0.494500
O171	O17	0.478500	0.616900	0.879700
O181	O18	0.523200	0.122300	0.380200
O191	O19	0.499600	0.978000	0.357000
O201	O20	0.494500	0.644700	0.021900
O211	O21	0.879700	0.478500	0.616900
O221	O22	0.380200	0.523200	0.122300
O231	O23	0.357000	0.499600	0.978000
O241	O24	0.021900	0.494500	0.644700
