data_MODDEP_clean_PM
_symmetry_space_group_name_H-M	'P1'
_cell_length_a	8.880200
_cell_length_b	12.080000
_cell_length_c	16.615000
_cell_angle_alpha	90.000000
_cell_angle_beta	90.000000
_cell_angle_gamma	109.320000
_symmetry_Int_Tables_number 1

loop_
_symmetry_equiv_pos_as_xyz
'x,y,z'

loop_
_atom_site_label
_atom_site_type_symbol
_atom_site_fract_x
_atom_site_fract_y
_atom_site_fract_z
Dy11	Dy1	0.933150	0.952590	0.882210
Dy21	Dy2	0.566850	0.047410	0.382210
Dy31	Dy3	0.066850	0.047410	0.117790
Dy41	Dy4	0.433150	0.952590	0.617790
H11	H1	0.470100	0.280300	0.933600
H21	H2	0.377800	0.361100	0.966900
H31	H3	0.628600	0.465000	0.934000
H41	H4	0.403300	0.474200	0.726100
H51	H5	0.822200	0.641800	0.900900
H61	H6	0.596700	0.653000	0.694200
H71	H7	0.909200	0.725500	0.677100
H81	H8	0.827200	0.822200	0.668300
H91	H9	0.251000	0.794600	0.070200
H101	H10	0.381200	0.861100	0.007500
H111	H11	0.201400	0.504000	0.911300
H121	H12	0.013500	0.665800	0.073100
H131	H13	0.029900	0.719700	0.433600
H141	H14	0.122200	0.638900	0.466900
H151	H15	0.871400	0.535000	0.434000
H161	H16	0.096700	0.525800	0.226100
H171	H17	0.677800	0.358200	0.400900
H181	H18	0.903300	0.347000	0.194200
H191	H19	0.590800	0.274500	0.177100
H201	H20	0.672800	0.177800	0.168300
H211	H21	0.249000	0.205400	0.570200
H221	H22	0.118800	0.138900	0.507500
H231	H23	0.298600	0.496000	0.411300
H241	H24	0.486500	0.334200	0.573100
H251	H25	0.529900	0.719700	0.066400
H261	H26	0.622200	0.638900	0.033100
H271	H27	0.371400	0.535000	0.066000
H281	H28	0.596700	0.525800	0.273900
H291	H29	0.177800	0.358200	0.099100
H301	H30	0.403300	0.347000	0.305800
H311	H31	0.090800	0.274500	0.322900
H321	H32	0.172800	0.177800	0.331700
H331	H33	0.749000	0.205400	0.929800
H341	H34	0.618800	0.138900	0.992500
H351	H35	0.798600	0.496000	0.088700
H361	H36	0.986500	0.334200	0.926900
H371	H37	0.970100	0.280300	0.566400
H381	H38	0.877800	0.361100	0.533100
H391	H39	0.128600	0.465000	0.566000
H401	H40	0.903300	0.474200	0.773900
H411	H41	0.322200	0.641800	0.599100
H421	H42	0.096700	0.653000	0.805800
H431	H43	0.409200	0.725500	0.822900
H441	H44	0.327200	0.822200	0.831700
H451	H45	0.751000	0.794600	0.429800
H461	H46	0.881200	0.861100	0.492500
H471	H47	0.701400	0.504000	0.588700
H481	H48	0.513500	0.665800	0.426900
C11	C1	0.229800	0.194000	0.943500
C21	C2	0.374300	0.301200	0.927300
C31	C3	0.495000	0.452200	0.833400
C41	C4	0.621400	0.502300	0.886000
C51	C5	0.486600	0.508200	0.761700
C61	C6	0.736900	0.608700	0.866200
C71	C7	0.602300	0.615400	0.742400
C81	C8	0.725600	0.664800	0.796300
C91	C9	0.900200	0.796500	0.700800
C101	C10	0.062000	0.890900	0.703800
C111	C11	0.158100	0.859900	0.976100
C121	C12	0.273700	0.806300	0.013100
C131	C13	0.130000	0.602000	0.990800
C141	C14	0.120400	0.502500	0.947100
C151	C15	0.008500	0.599200	0.043700
C161	C16	0.270200	0.806000	0.443500
C171	C17	0.125700	0.698800	0.427300
C181	C18	0.005000	0.547800	0.333400
C191	C19	0.878600	0.497700	0.386000
C201	C20	0.013400	0.491800	0.261700
C211	C21	0.763100	0.391300	0.366200
C221	C22	0.897700	0.384600	0.242400
C231	C23	0.774400	0.335200	0.296300
C241	C24	0.599800	0.203500	0.200800
C251	C25	0.438000	0.109100	0.203800
C261	C26	0.341900	0.140100	0.476100
C271	C27	0.226300	0.193700	0.513100
C281	C28	0.370000	0.398000	0.490800
C291	C29	0.379600	0.497500	0.447100
C301	C30	0.491500	0.400800	0.543700
C311	C31	0.770200	0.806000	0.056500
C321	C32	0.625700	0.698800	0.072700
C331	C33	0.505000	0.547800	0.166600
C341	C34	0.378600	0.497700	0.114000
C351	C35	0.513400	0.491800	0.238300
C361	C36	0.263100	0.391300	0.133800
C371	C37	0.397700	0.384600	0.257600
C381	C38	0.274400	0.335200	0.203700
C391	C39	0.099800	0.203500	0.299200
C401	C40	0.938000	0.109100	0.296200
C411	C41	0.841900	0.140100	0.023900
C421	C42	0.726300	0.193700	0.986900
C431	C43	0.870000	0.398000	0.009200
C441	C44	0.879600	0.497500	0.052900
C451	C45	0.991500	0.400800	0.956300
C461	C46	0.729800	0.194000	0.556500
C471	C47	0.874300	0.301200	0.572700
C481	C48	0.995000	0.452200	0.666600
C491	C49	0.121400	0.502300	0.614000
C501	C50	0.986600	0.508200	0.738300
C511	C51	0.236900	0.608700	0.633800
C521	C52	0.102300	0.615400	0.757600
C531	C53	0.225600	0.664800	0.703700
C541	C54	0.400200	0.796500	0.799200
C551	C55	0.562000	0.890900	0.796200
C561	C56	0.658100	0.859900	0.523900
C571	C57	0.773700	0.806300	0.486900
C581	C58	0.630000	0.602000	0.509200
C591	C59	0.620400	0.502500	0.552900
C601	C60	0.508500	0.599200	0.456300
O11	O1	0.159300	0.129200	0.886530
O21	O2	0.197600	0.180200	0.017210
O31	O3	0.373500	0.348300	0.848980
O41	O4	0.841900	0.774200	0.782590
O51	O5	0.150000	0.899800	0.644060
O61	O6	0.095500	0.955100	0.765000
O71	O7	0.099100	0.827900	0.908910
O81	O8	0.131300	0.942000	0.013300
O91	O9	0.266900	0.698100	0.978300
O101	O10	0.340700	0.870800	0.386530
O111	O11	0.302400	0.819800	0.517210
O121	O12	0.126500	0.651700	0.348980
O131	O13	0.658100	0.225800	0.282590
O141	O14	0.350000	0.100200	0.144060
O151	O15	0.404500	0.044900	0.265000
O161	O16	0.400900	0.172100	0.408910
O171	O17	0.368700	0.058000	0.513300
O181	O18	0.233100	0.301900	0.478300
O191	O19	0.840700	0.870800	0.113470
O201	O20	0.802400	0.819800	0.982790
O211	O21	0.626500	0.651700	0.151020
O221	O22	0.158100	0.225800	0.217410
O231	O23	0.850000	0.100200	0.355940
O241	O24	0.904500	0.044900	0.235000
O251	O25	0.900900	0.172100	0.091090
O261	O26	0.868700	0.058000	0.986700
O271	O27	0.733100	0.301900	0.021700
O281	O28	0.659300	0.129200	0.613470
O291	O29	0.697600	0.180200	0.482790
O301	O30	0.873500	0.348300	0.651020
O311	O31	0.341900	0.774200	0.717410
O321	O32	0.650000	0.899800	0.855940
O331	O33	0.595500	0.955100	0.735000
O341	O34	0.599100	0.827900	0.591090
O351	O35	0.631300	0.942000	0.486700
O361	O36	0.766900	0.698100	0.521700
