data_MODMIB_clean_PM
_symmetry_space_group_name_H-M	'P1'
_cell_length_a	10.970000
_cell_length_b	23.744000
_cell_length_c	15.906000
_cell_angle_alpha	90.000000
_cell_angle_beta	90.000000
_cell_angle_gamma	90.000000
_symmetry_Int_Tables_number 1

loop_
_symmetry_equiv_pos_as_xyz
'x,y,z'

loop_
_atom_site_label
_atom_site_type_symbol
_atom_site_fract_x
_atom_site_fract_y
_atom_site_fract_z
C11	C1	0.101700	0.333100	0.348100
N11	N1	0.155900	0.307000	0.393900
C21	C2	0.749100	0.106400	0.614800
N21	N2	0.184400	0.387200	0.167300
C31	C3	0.601700	0.833100	0.348100
N31	N3	0.655900	0.807000	0.393900
C41	C4	0.249100	0.606400	0.614800
N41	N4	0.684400	0.887200	0.167300
C51	C5	0.898300	0.666900	0.348100
N51	N5	0.844100	0.693000	0.393900
C61	C6	0.250900	0.893600	0.614800
N61	N6	0.815600	0.612800	0.167300
C71	C7	0.398300	0.166900	0.348100
N71	N7	0.344100	0.193000	0.393900
C81	C8	0.750900	0.393600	0.614800
N81	N8	0.315600	0.112800	0.167300
C91	C9	0.898300	0.333100	0.151900
N91	N9	0.844100	0.307000	0.106100
C101	C10	0.250900	0.106400	0.885200
N101	N10	0.815600	0.387200	0.332700
C111	C11	0.398300	0.833100	0.151900
N111	N11	0.344100	0.807000	0.106100
C121	C12	0.750900	0.606400	0.885200
N121	N12	0.315600	0.887200	0.332700
C131	C13	0.101700	0.666900	0.151900
N131	N13	0.155900	0.693000	0.106100
C141	C14	0.749100	0.893600	0.885200
N141	N14	0.184400	0.612800	0.332700
C151	C15	0.601700	0.166900	0.151900
N151	N15	0.655900	0.193000	0.106100
C161	C16	0.249100	0.393600	0.885200
N161	N16	0.684400	0.112800	0.332700
C171	C17	0.898300	0.666900	0.651900
N171	N17	0.844100	0.693000	0.606100
C181	C18	0.250900	0.893600	0.385200
N181	N18	0.815600	0.612800	0.832700
C191	C19	0.398300	0.166900	0.651900
N191	N19	0.344100	0.193000	0.606100
C201	C20	0.750900	0.393600	0.385200
N201	N20	0.315600	0.112800	0.832700
C211	C21	0.101700	0.333100	0.651900
N211	N21	0.155900	0.307000	0.606100
C221	C22	0.749100	0.106400	0.385200
N221	N22	0.184400	0.387200	0.832700
C231	C23	0.601700	0.833100	0.651900
N231	N23	0.655900	0.807000	0.606100
C241	C24	0.249100	0.606400	0.385200
N241	N24	0.684400	0.887200	0.832700
C251	C25	0.101700	0.666900	0.848100
N251	N25	0.155900	0.693000	0.893900
C261	C26	0.749100	0.893600	0.114800
N261	N26	0.184400	0.612800	0.667300
C271	C27	0.601700	0.166900	0.848100
N271	N27	0.655900	0.193000	0.893900
C281	C28	0.249100	0.393600	0.114800
N281	N28	0.684400	0.112800	0.667300
C291	C29	0.898300	0.333100	0.848100
N291	N29	0.844100	0.307000	0.893900
C301	C30	0.250900	0.106400	0.114800
N301	N30	0.815600	0.387200	0.667300
C311	C31	0.398300	0.833100	0.848100
N311	N31	0.344100	0.807000	0.893900
C321	C32	0.750900	0.606400	0.114800
N321	N32	0.315600	0.887200	0.667300
Cd11	Cd1	0.250000	0.250000	0.500000
Cd21	Cd2	0.750000	0.750000	0.500000
Cd31	Cd3	0.750000	0.250000	0.000000
Cd41	Cd4	0.250000	0.750000	0.000000
Cd51	Cd5	0.000000	0.381800	0.250000
C331	C33	0.000000	0.476600	0.250000
Cd61	Cd6	0.500000	0.881800	0.250000
C341	C34	0.500000	0.976600	0.250000
Cd71	Cd7	0.000000	0.618200	0.250000
C351	C35	0.000000	0.523400	0.250000
Cd81	Cd8	0.500000	0.118200	0.250000
C361	C36	0.500000	0.023400	0.250000
Cd91	Cd9	0.000000	0.618200	0.750000
C371	C37	0.000000	0.523400	0.750000
Cd101	Cd10	0.500000	0.118200	0.750000
C381	C38	0.500000	0.023400	0.750000
Cd111	Cd11	0.000000	0.381800	0.750000
C391	C39	0.000000	0.476600	0.750000
Cd121	Cd12	0.500000	0.881800	0.750000
C401	C40	0.500000	0.976600	0.750000
Cd131	Cd13	0.860200	0.098510	0.500000
C411	C41	0.011400	0.161500	0.500000
N331	N33	0.087100	0.192900	0.500000
C421	C42	0.969500	0.020400	0.500000
Cd141	Cd14	0.360200	0.598510	0.500000
C431	C43	0.511400	0.661500	0.500000
N341	N34	0.587100	0.692900	0.500000
C441	C44	0.469500	0.520400	0.500000
Cd151	Cd15	0.139800	0.901490	0.500000
C451	C45	0.988600	0.838500	0.500000
N351	N35	0.912900	0.807100	0.500000
C461	C46	0.030500	0.979600	0.500000
Cd161	Cd16	0.639800	0.401490	0.500000
C471	C47	0.488600	0.338500	0.500000
N361	N36	0.412900	0.307100	0.500000
C481	C48	0.530500	0.479600	0.500000
Cd171	Cd17	0.139800	0.098510	0.000000
C491	C49	0.988600	0.161500	0.000000
N371	N37	0.912900	0.192900	0.000000
C501	C50	0.030500	0.020400	0.000000
Cd181	Cd18	0.639800	0.598510	0.000000
C511	C51	0.488600	0.661500	0.000000
N381	N38	0.412900	0.692900	0.000000
C521	C52	0.530500	0.520400	0.000000
Cd191	Cd19	0.860200	0.901490	0.000000
C531	C53	0.011400	0.838500	0.000000
N391	N39	0.087100	0.807100	0.000000
C541	C54	0.969500	0.979600	0.000000
Cd201	Cd20	0.360200	0.401490	0.000000
C551	C55	0.511400	0.338500	0.000000
N401	N40	0.587100	0.307100	0.000000
C561	C56	0.469500	0.479600	0.000000
