data_MODPEA_charged_PM
_symmetry_space_group_name_H-M	'P1'
_cell_length_a	11.400200
_cell_length_b	15.186300
_cell_length_c	15.186300
_cell_angle_alpha	62.011900
_cell_angle_beta	67.954300
_cell_angle_gamma	67.954200
_symmetry_Int_Tables_number 1

loop_
_symmetry_equiv_pos_as_xyz
'x,y,z'

loop_
_atom_site_label
_atom_site_type_symbol
_atom_site_fract_x
_atom_site_fract_y
_atom_site_fract_z
Cd11	Cd1	0.000000	0.000000	0.000000
Cd21	Cd2	0.500000	0.500000	0.500000
Cd31	Cd3	0.880900	0.619100	0.119100
Cd41	Cd4	0.119100	0.880900	0.380900
Cd51	Cd5	0.119100	0.380900	0.880900
Cd61	Cd6	0.880900	0.119100	0.619100
Cd71	Cd7	0.461470	0.134990	0.134990
Cd81	Cd8	0.231450	0.365010	0.365010
Cd91	Cd9	0.768550	0.634990	0.634990
Cd101	Cd10	0.538530	0.865010	0.865010
C11	C1	0.934710	0.766520	0.068660
C21	C2	0.364240	0.240860	0.011460
C31	C3	0.269890	0.733480	0.431340
C41	C4	0.116560	0.259140	0.488540
C51	C5	0.730110	0.568660	0.266520
C61	C6	0.883440	0.511460	0.740860
C71	C7	0.065290	0.931340	0.233480
C81	C8	0.635760	0.988540	0.759140
C91	C9	0.065290	0.233480	0.931340
C101	C10	0.635760	0.759140	0.988540
C111	C11	0.730110	0.266520	0.568660
C121	C12	0.883440	0.740860	0.511460
C131	C13	0.269890	0.431340	0.733480
C141	C14	0.116560	0.488540	0.259140
C151	C15	0.934710	0.068660	0.766520
C161	C16	0.364240	0.011460	0.240860
C171	C17	0.975870	0.524130	0.024130
C181	C18	0.024130	0.975870	0.475870
C191	C19	0.024130	0.475870	0.975870
C201	C20	0.975870	0.024130	0.524130
C211	C21	0.672780	0.086020	0.086020
C221	C22	0.422800	0.225900	0.225900
C231	C23	0.344820	0.413980	0.413980
C241	C24	0.374600	0.274100	0.274100
C251	C25	0.655180	0.586020	0.586020
C261	C26	0.625400	0.725900	0.725900
C271	C27	0.327220	0.913980	0.913980
C281	C28	0.577200	0.774100	0.774100
N11	N1	0.963630	0.838320	0.049420
N21	N2	0.700650	0.707150	0.038950
N31	N3	0.351370	0.661680	0.450580
N41	N4	0.946750	0.792850	0.461050
N51	N5	0.648630	0.549420	0.338320
N61	N6	0.053250	0.538950	0.207150
N71	N7	0.036370	0.950580	0.161680
N81	N8	0.299350	0.961050	0.292850
N91	N9	0.036370	0.161680	0.950580
N101	N10	0.299350	0.292850	0.961050
N111	N11	0.648630	0.338320	0.549420
N121	N12	0.053250	0.207150	0.538950
N131	N13	0.351370	0.450580	0.661680
N141	N14	0.946750	0.461050	0.792850
N151	N15	0.963630	0.049420	0.838320
N161	N16	0.700650	0.038950	0.707150
N171	N17	0.781320	0.060080	0.060080
N181	N18	0.401480	0.439920	0.439920
N191	N19	0.598520	0.560080	0.560080
N201	N20	0.218680	0.939920	0.939920
H11	H1	0.497700	0.572200	0.210600
H21	H2	0.603200	0.473200	0.113400
H31	H3	0.219500	0.710600	0.072200
H41	H4	0.310200	0.613400	0.973200
H51	H5	0.502300	0.427800	0.789400
H61	H6	0.396800	0.526800	0.886600
H71	H7	0.780500	0.289400	0.927800
H81	H8	0.689800	0.386600	0.026800
C291	C29	0.460850	0.580550	0.161150
C301	C30	0.524160	0.520440	0.103640
C311	C31	0.297450	0.661150	0.080550
C321	C32	0.351760	0.603640	0.020440
C331	C33	0.539150	0.419450	0.838850
C341	C34	0.475840	0.479560	0.896360
C351	C35	0.702550	0.338850	0.919450
C361	C36	0.648240	0.396360	0.979560
C371	C37	0.468820	0.531180	0.031180
C381	C38	0.288400	0.711600	0.211600
C391	C39	0.531180	0.468820	0.968820
C401	C40	0.711600	0.288400	0.788400
N211	N21	0.351660	0.648340	0.148340
N221	N22	0.648340	0.351660	0.851660
H91	H9	0.780500	0.927800	0.289400
H101	H10	0.689800	0.026800	0.386600
H111	H11	0.502300	0.789400	0.427800
H121	H12	0.396800	0.886600	0.526800
H131	H13	0.219500	0.072200	0.710600
H141	H14	0.310200	0.973200	0.613400
H151	H15	0.497700	0.210600	0.572200
H161	H16	0.603200	0.113400	0.473200
C411	C41	0.702550	0.919450	0.338850
C421	C42	0.648240	0.979560	0.396360
C431	C43	0.539150	0.838850	0.419450
C441	C44	0.475840	0.896360	0.479560
C451	C45	0.297450	0.080550	0.661150
C461	C46	0.351760	0.020440	0.603640
C471	C47	0.460850	0.161150	0.580550
C481	C48	0.524160	0.103640	0.520440
C491	C49	0.531180	0.968820	0.468820
C501	C50	0.711600	0.788400	0.288400
C511	C51	0.468820	0.031180	0.531180
C521	C52	0.288400	0.211600	0.711600
N231	N23	0.648340	0.851660	0.351660
N241	N24	0.351660	0.148340	0.648340
