data_MOFKUO_clean_PM
_symmetry_space_group_name_H-M	'P1'
_cell_length_a	14.649000
_cell_length_b	15.079400
_cell_length_c	29.960000
_cell_angle_alpha	87.278900
_cell_angle_beta	84.391100
_cell_angle_gamma	60.939700
_symmetry_Int_Tables_number 1

loop_
_symmetry_equiv_pos_as_xyz
'x,y,z'

loop_
_atom_site_label
_atom_site_type_symbol
_atom_site_fract_x
_atom_site_fract_y
_atom_site_fract_z
Cu11	Cu1	0.225060	0.082380	0.677790
Cu21	Cu2	0.692560	0.082380	0.822210
Cu31	Cu3	0.774940	0.917620	0.322210
Cu41	Cu4	0.307440	0.917620	0.177790
Cu51	Cu5	0.000000	0.500000	0.500000
Cu61	Cu6	0.500000	0.500000	0.000000
H11	H1	0.031500	0.382400	0.596000
H21	H2	0.803900	0.461000	0.519800
H31	H3	0.695400	0.418400	0.616800
H41	H4	0.694400	0.395800	0.566300
H51	H5	0.822800	0.244600	0.626700
H61	H6	0.716800	0.255200	0.613700
H71	H7	0.787400	0.178600	0.547700
H81	H8	0.862600	0.225800	0.540400
H91	H9	0.954700	0.042400	0.552700
H101	H10	0.902700	0.063000	0.602200
H111	H11	0.019700	0.079600	0.657000
H121	H12	0.188800	0.154600	0.572100
H131	H13	0.035300	0.270800	0.497900
H141	H14	0.179000	0.383600	0.418600
H151	H15	0.095800	0.103600	0.453300
H161	H16	0.167900	0.089600	0.409000
H171	H17	0.261500	0.961000	0.457300
H181	H18	0.235800	0.038000	0.495800
H191	H19	0.410800	0.968400	0.467300
H201	H20	0.352700	0.086800	0.462200
H211	H21	0.393300	0.951600	0.392300
H221	H22	0.335000	0.070200	0.387200
H231	H23	0.584700	0.878600	0.358900
H241	H24	0.634900	0.095000	0.393400
H251	H25	0.302000	0.141400	0.764800
H261	H26	0.395900	0.873800	0.717100
H271	H27	0.557500	0.838800	0.811100
H281	H28	0.475300	0.800200	0.815000
H291	H29	0.540200	0.735000	0.741800
H301	H30	0.609600	0.677200	0.780700
H311	H31	0.103300	0.039200	0.763600
H321	H32	0.040700	0.296800	0.709200
H331	H33	0.927900	0.395000	0.798800
H341	H34	0.844600	0.357200	0.804800
H351	H35	0.873700	0.410400	0.718700
H361	H36	0.826400	0.502400	0.752500
H371	H37	0.586100	0.382400	0.904000
H381	H38	0.735100	0.461000	0.980200
H391	H39	0.886200	0.418400	0.883200
H401	H40	0.909800	0.395800	0.933700
H411	H41	0.932600	0.244600	0.873300
H421	H42	0.028000	0.255200	0.886300
H431	H43	0.034000	0.178600	0.952300
H441	H44	0.911600	0.225800	0.959600
H451	H45	0.002900	0.042400	0.947300
H461	H46	0.034300	0.063000	0.897800
H471	H47	0.900700	0.079600	0.843000
H481	H48	0.656600	0.154600	0.927900
H491	H49	0.693900	0.270800	0.002100
H501	H50	0.437400	0.383600	0.081400
H511	H51	0.800600	0.103600	0.046700
H521	H52	0.742500	0.089600	0.091000
H531	H53	0.777500	0.961000	0.042700
H541	H54	0.726200	0.038000	0.004200
H551	H55	0.620800	0.968400	0.032700
H561	H56	0.560500	0.086800	0.037800
H571	H57	0.655100	0.951600	0.107700
H581	H58	0.594800	0.070200	0.112800
H591	H59	0.536700	0.878600	0.141100
H601	H60	0.270100	0.095000	0.106600
H611	H61	0.556600	0.141400	0.735200
H621	H62	0.730300	0.873800	0.782900
H631	H63	0.603700	0.838800	0.688900
H641	H64	0.724500	0.800200	0.685000
H651	H65	0.724800	0.735000	0.758200
H661	H66	0.713200	0.677200	0.719300
H671	H67	0.857500	0.039200	0.736400
H681	H68	0.662500	0.296800	0.790800
H691	H69	0.677100	0.395000	0.701200
H701	H70	0.798200	0.357200	0.695200
H711	H71	0.715900	0.410400	0.781300
H721	H72	0.671200	0.502400	0.747500
H731	H73	0.968500	0.617600	0.404000
H741	H74	0.196100	0.539000	0.480200
H751	H75	0.304600	0.581600	0.383200
H761	H76	0.305600	0.604200	0.433700
H771	H77	0.177200	0.755400	0.373300
H781	H78	0.283200	0.744800	0.386300
H791	H79	0.212600	0.821400	0.452300
H801	H80	0.137400	0.774200	0.459600
H811	H81	0.045300	0.957600	0.447300
H821	H82	0.097300	0.937000	0.397800
H831	H83	0.980300	0.920400	0.343000
H841	H84	0.811200	0.845400	0.427900
H851	H85	0.964700	0.729200	0.502100
H861	H86	0.821000	0.616400	0.581400
H871	H87	0.904200	0.896400	0.546700
H881	H88	0.832100	0.910400	0.591000
H891	H89	0.738500	0.039000	0.542700
H901	H90	0.764200	0.962000	0.504200
H911	H91	0.589200	0.031600	0.532700
H921	H92	0.647300	0.913200	0.537800
H931	H93	0.606700	0.048400	0.607700
H941	H94	0.665000	0.929800	0.612800
H951	H95	0.415300	0.121400	0.641100
H961	H96	0.365100	0.905000	0.606600
H971	H97	0.698000	0.858600	0.235200
H981	H98	0.604100	0.126200	0.282900
H991	H99	0.442500	0.161200	0.188900
H1001	H100	0.524700	0.199800	0.185000
H1011	H101	0.459800	0.265000	0.258200
H1021	H102	0.390400	0.322800	0.219300
H1031	H103	0.896700	0.960800	0.236400
H1041	H104	0.959300	0.703200	0.290800
H1051	H105	0.072100	0.605000	0.201200
H1061	H106	0.155400	0.642800	0.195200
H1071	H107	0.126300	0.589600	0.281300
H1081	H108	0.173600	0.497600	0.247500
H1091	H109	0.413900	0.617600	0.096000
H1101	H110	0.264900	0.539000	0.019800
H1111	H111	0.113800	0.581600	0.116800
H1121	H112	0.090200	0.604200	0.066300
H1131	H113	0.067400	0.755400	0.126700
H1141	H114	0.972000	0.744800	0.113700
H1151	H115	0.966000	0.821400	0.047700
H1161	H116	0.088400	0.774200	0.040400
H1171	H117	0.997100	0.957600	0.052700
H1181	H118	0.965700	0.937000	0.102200
H1191	H119	0.099300	0.920400	0.157000
H1201	H120	0.343400	0.845400	0.072100
H1211	H121	0.306100	0.729200	0.997900
H1221	H122	0.562600	0.616400	0.918600
H1231	H123	0.199400	0.896400	0.953300
H1241	H124	0.257500	0.910400	0.909000
H1251	H125	0.222500	0.039000	0.957300
H1261	H126	0.273800	0.962000	0.995800
H1271	H127	0.379200	0.031600	0.967300
H1281	H128	0.439500	0.913200	0.962200
H1291	H129	0.344900	0.048400	0.892300
H1301	H130	0.405200	0.929800	0.887200
H1311	H131	0.463300	0.121400	0.858900
H1321	H132	0.729900	0.905000	0.893400
H1331	H133	0.443400	0.858600	0.264800
H1341	H134	0.269700	0.126200	0.217100
H1351	H135	0.396300	0.161200	0.311100
H1361	H136	0.275500	0.199800	0.315000
H1371	H137	0.275200	0.265000	0.241800
H1381	H138	0.286800	0.322800	0.280700
H1391	H139	0.142500	0.960800	0.263600
H1401	H140	0.337500	0.703200	0.209200
H1411	H141	0.322900	0.605000	0.298800
H1421	H142	0.201800	0.642800	0.304800
H1431	H143	0.284100	0.589600	0.218700
H1441	H144	0.328800	0.497600	0.252500
C11	C1	0.968900	0.393400	0.585700
C21	C2	0.846400	0.436400	0.543500
C31	C3	0.737800	0.376600	0.591300
C41	C4	0.776500	0.264000	0.602800
C51	C5	0.835600	0.192600	0.562100
C61	C6	0.928100	0.090800	0.577200
C71	C7	0.047400	0.096800	0.630900
C81	C8	0.137800	0.138200	0.584100
C91	C9	0.077500	0.279800	0.474900
C101	C10	0.156700	0.339400	0.431600
C111	C11	0.157900	0.106400	0.440600
C121	C12	0.252400	0.027400	0.463700
C131	C13	0.357200	0.024600	0.451800
C141	C14	0.388200	0.013800	0.402800
C151	C15	0.576700	0.939000	0.369700
C161	C16	0.601000	0.058400	0.388400
C171	C17	0.338200	0.071200	0.761100
C181	C18	0.387000	0.927000	0.734700
C191	C19	0.514400	0.822800	0.793900
C201	C20	0.583400	0.739200	0.763300
C211	C21	0.071800	0.108600	0.758300
C221	C22	0.039400	0.246800	0.728200
C231	C23	0.893300	0.366200	0.783300
C241	C24	0.836600	0.434800	0.747900
C251	C25	0.637700	0.393400	0.914300
C261	C26	0.717200	0.436400	0.956500
C271	C27	0.885600	0.376600	0.908700
C281	C28	0.959500	0.264000	0.897200
C291	C29	0.971800	0.192600	0.937900
C301	C30	0.981100	0.090800	0.922800
C311	C31	0.855800	0.096800	0.869100
C321	C32	0.724000	0.138200	0.915900
C331	C33	0.642700	0.279800	0.025100
C341	C34	0.503900	0.339400	0.068400
C351	C35	0.735700	0.106400	0.059400
C361	C36	0.720200	0.027400	0.036300
C371	C37	0.618200	0.024600	0.048200
C381	C38	0.598000	0.013800	0.097200
C391	C39	0.484300	0.939000	0.130300
C401	C40	0.340600	0.058400	0.111600
C411	C41	0.590600	0.071200	0.738900
C421	C42	0.686000	0.927000	0.765300
C431	C43	0.662800	0.822800	0.706100
C441	C44	0.677400	0.739200	0.736700
C451	C45	0.819600	0.108600	0.741700
C461	C46	0.713800	0.246800	0.771800
C471	C47	0.740500	0.366200	0.716700
C481	C48	0.728600	0.434800	0.752100
C491	C49	0.031100	0.606600	0.414300
C501	C50	0.153600	0.563600	0.456500
C511	C51	0.262200	0.623400	0.408700
C521	C52	0.223500	0.736000	0.397200
C531	C53	0.164400	0.807400	0.437900
C541	C54	0.071900	0.909200	0.422800
C551	C55	0.952600	0.903200	0.369100
C561	C56	0.862200	0.861800	0.415900
C571	C57	0.922500	0.720200	0.525100
C581	C58	0.843300	0.660600	0.568400
C591	C59	0.842100	0.893600	0.559400
C601	C60	0.747600	0.972600	0.536300
C611	C61	0.642800	0.975400	0.548200
C621	C62	0.611800	0.986200	0.597200
C631	C63	0.423300	0.061000	0.630300
C641	C64	0.399000	0.941600	0.611600
C651	C65	0.661800	0.928800	0.238900
C661	C66	0.613000	0.073000	0.265300
C671	C67	0.485600	0.177200	0.206100
C681	C68	0.416600	0.260800	0.236700
C691	C69	0.928200	0.891400	0.241700
C701	C70	0.960600	0.753200	0.271800
C711	C71	0.106700	0.633800	0.216700
C721	C72	0.163400	0.565200	0.252100
C731	C73	0.362300	0.606600	0.085700
C741	C74	0.282800	0.563600	0.043500
C751	C75	0.114400	0.623400	0.091300
C761	C76	0.040500	0.736000	0.102800
C771	C77	0.028200	0.807400	0.062100
C781	C78	0.018900	0.909200	0.077200
C791	C79	0.144200	0.903200	0.130900
C801	C80	0.276000	0.861800	0.084100
C811	C81	0.357300	0.720200	0.974900
C821	C82	0.496100	0.660600	0.931600
C831	C83	0.264300	0.893600	0.940600
C841	C84	0.279800	0.972600	0.963700
C851	C85	0.381800	0.975400	0.951800
C861	C86	0.402000	0.986200	0.902800
C871	C87	0.515700	0.061000	0.869700
C881	C88	0.659400	0.941600	0.888400
C891	C89	0.409400	0.928800	0.261100
C901	C90	0.314000	0.073000	0.234700
C911	C91	0.337200	0.177200	0.293900
C921	C92	0.322600	0.260800	0.263300
C931	C93	0.180400	0.891400	0.258300
C941	C94	0.286200	0.753200	0.228200
C951	C95	0.259500	0.633800	0.283300
C961	C96	0.271400	0.565200	0.247900
N11	N1	0.935100	0.440000	0.545100
N21	N2	0.905100	0.365800	0.608500
N31	N3	0.826600	0.393800	0.579600
N41	N4	0.013100	0.105600	0.590800
N51	N5	0.069900	0.135000	0.559800
N61	N6	0.128000	0.115800	0.628300
N71	N7	0.082300	0.365600	0.467900
N81	N8	0.193900	0.243600	0.416900
N91	N9	0.140900	0.208400	0.445000
N101	N10	0.490800	0.011600	0.392700
N111	N11	0.504800	0.088600	0.403000
N121	N12	0.649200	0.971200	0.365500
N131	N13	0.321900	0.026000	0.728400
N141	N14	0.409600	0.010000	0.788400
N151	N15	0.437200	0.919200	0.771500
N161	N16	0.103100	0.150000	0.722900
N171	N17	0.991700	0.176600	0.784600
N181	N18	0.973400	0.265000	0.763500
N191	N19	0.624900	0.440000	0.954900
N201	N20	0.729100	0.365800	0.891500
N211	N21	0.779600	0.393800	0.920400
N221	N22	0.881300	0.105600	0.909200
N231	N23	0.795100	0.135000	0.940200
N241	N24	0.756200	0.115800	0.871700
N251	N25	0.552100	0.365600	0.032100
N261	N26	0.562500	0.243600	0.083100
N271	N27	0.650700	0.208400	0.055000
N281	N28	0.497600	0.011600	0.107300
N291	N29	0.406600	0.088600	0.097000
N301	N30	0.379600	0.971200	0.134500
N311	N31	0.652100	0.026000	0.771600
N321	N32	0.580400	0.010000	0.711600
N331	N33	0.643600	0.919200	0.728500
N341	N34	0.746900	0.150000	0.777100
N351	N35	0.831700	0.176600	0.715400
N361	N36	0.761600	0.265000	0.736500
N371	N37	0.064900	0.560000	0.454900
N381	N38	0.094900	0.634200	0.391500
N391	N39	0.173400	0.606200	0.420400
N401	N40	0.986900	0.894400	0.409200
N411	N41	0.930100	0.865000	0.440200
N421	N42	0.872000	0.884200	0.371700
N431	N43	0.917700	0.634400	0.532100
N441	N44	0.806100	0.756400	0.583100
N451	N45	0.859100	0.791600	0.555000
N461	N46	0.509200	0.988400	0.607300
N471	N47	0.495200	0.911400	0.597000
N481	N48	0.350800	0.028800	0.634500
N491	N49	0.678100	0.974000	0.271600
N501	N50	0.590400	0.990000	0.211600
N511	N51	0.562800	0.080800	0.228500
N521	N52	0.896900	0.850000	0.277100
N531	N53	0.008300	0.823400	0.215400
N541	N54	0.026600	0.735000	0.236500
N551	N55	0.375100	0.560000	0.045100
N561	N56	0.270900	0.634200	0.108500
N571	N57	0.220400	0.606200	0.079600
N581	N58	0.118700	0.894400	0.090800
N591	N59	0.204900	0.865000	0.059800
N601	N60	0.243800	0.884200	0.128300
N611	N61	0.447900	0.634400	0.967900
N621	N62	0.437500	0.756400	0.916900
N631	N63	0.349300	0.791600	0.945000
N641	N64	0.502400	0.988400	0.892700
N651	N65	0.593400	0.911400	0.903000
N661	N66	0.620400	0.028800	0.865500
N671	N67	0.347900	0.974000	0.228400
N681	N68	0.419600	0.990000	0.288400
N691	N69	0.356400	0.080800	0.271500
N701	N70	0.253100	0.850000	0.222900
N711	N71	0.168300	0.823400	0.284600
N721	N72	0.238400	0.735000	0.263500
