data_MOGMIE_clean_PM
_symmetry_space_group_name_H-M	'P1'
_cell_length_a	10.221000
_cell_length_b	10.452000
_cell_length_c	15.248000
_cell_angle_alpha	105.766000
_cell_angle_beta	101.431000
_cell_angle_gamma	101.226000
_symmetry_Int_Tables_number 1

loop_
_symmetry_equiv_pos_as_xyz
'x,y,z'

loop_
_atom_site_label
_atom_site_type_symbol
_atom_site_fract_x
_atom_site_fract_y
_atom_site_fract_z
La11	La1	0.219690	0.965600	0.804940
La21	La2	0.709700	0.992050	0.777590
La31	La3	0.780310	0.034400	0.195060
La41	La4	0.290300	0.007950	0.222410
H11	H1	0.031400	0.588600	0.700400
H21	H2	0.689900	0.371100	0.417700
H31	H3	0.918000	0.391900	0.839700
H41	H4	0.343600	0.653100	0.039600
H51	H5	0.292700	0.307300	0.792000
H61	H6	0.619800	0.634700	0.747400
H71	H7	0.968600	0.411400	0.299600
H81	H8	0.310100	0.628900	0.582300
H91	H9	0.082000	0.608100	0.160300
H101	H10	0.656400	0.346900	0.960400
H111	H11	0.707300	0.692700	0.208000
H121	H12	0.380200	0.365300	0.252600
C11	C1	0.874200	0.750500	0.681400
C21	C2	0.862200	0.611100	0.616600
C31	C3	0.962400	0.544500	0.644100
C41	C4	0.960200	0.412400	0.588200
C51	C5	0.856600	0.351600	0.503800
C61	C6	0.757100	0.414800	0.474900
C71	C7	0.758100	0.546100	0.532700
C81	C8	0.857800	0.212600	0.438000
C91	C9	0.054500	0.221900	0.883100
C101	C10	0.099000	0.378000	0.913400
C111	C11	0.004900	0.444400	0.878600
C121	C12	0.037700	0.587200	0.900400
C131	C13	0.166300	0.665300	0.961700
C141	C14	0.258800	0.600000	0.998000
C151	C15	0.228300	0.454800	0.973700
C161	C16	0.207600	0.819700	0.985200
C171	C17	0.500100	0.203500	0.765600
C181	C18	0.476800	0.339100	0.763300
C191	C19	0.359200	0.372800	0.782400
C201	C20	0.336700	0.500000	0.787600
C211	C21	0.438600	0.601000	0.779500
C221	C22	0.553300	0.567800	0.755700
C231	C23	0.572500	0.435900	0.743600
C241	C24	0.426000	0.745800	0.801000
C251	C25	0.125800	0.249500	0.318600
C261	C26	0.137800	0.388900	0.383400
C271	C27	0.037600	0.455500	0.355900
C281	C28	0.039800	0.587600	0.411800
C291	C29	0.143400	0.648400	0.496200
C301	C30	0.242900	0.585200	0.525100
C311	C31	0.241900	0.453900	0.467300
C321	C32	0.142200	0.787400	0.562000
C331	C33	0.945500	0.778100	0.116900
C341	C34	0.901000	0.622000	0.086600
C351	C35	0.995100	0.555600	0.121400
C361	C36	0.962300	0.412800	0.099600
C371	C37	0.833700	0.334700	0.038300
C381	C38	0.741200	0.400000	0.002000
C391	C39	0.771700	0.545200	0.026300
C401	C40	0.792400	0.180300	0.014800
C411	C41	0.499900	0.796500	0.234400
C421	C42	0.523200	0.660900	0.236700
C431	C43	0.640800	0.627200	0.217600
C441	C44	0.663300	0.500000	0.212400
C451	C45	0.561400	0.399000	0.220500
C461	C46	0.446700	0.432200	0.244300
C471	C47	0.427500	0.564100	0.256400
C481	C48	0.574000	0.254200	0.199000
N11	N1	0.655400	0.604900	0.503400
N21	N2	0.330500	0.398700	0.007700
N31	N3	0.680200	0.403100	0.709000
N41	N4	0.344600	0.395100	0.496600
N51	N5	0.669500	0.601300	0.992300
N61	N6	0.319800	0.596900	0.291000
O11	O1	0.769500	0.796600	0.676000
O21	O2	0.988300	0.816700	0.739500
O31	O3	0.763900	0.160500	0.358100
O41	O4	0.947300	0.155600	0.463200
O51	O5	0.144500	0.158400	0.896500
O61	O6	0.929000	0.163000	0.843500
O71	O7	0.307400	0.888500	0.057300
O81	O8	0.142400	0.874900	0.933800
O91	O9	0.410600	0.119800	0.782300
O101	O10	0.612700	0.179400	0.753700
O111	O11	0.316500	0.770200	0.816000
O121	O12	0.527200	0.838800	0.805400
O131	O13	0.230500	0.203400	0.324000
O141	O14	0.011700	0.183300	0.260500
O151	O15	0.236100	0.839500	0.641900
O161	O16	0.052700	0.844400	0.536800
O171	O17	0.855500	0.841600	0.103500
O181	O18	0.071000	0.837000	0.156500
O191	O19	0.692600	0.111500	0.942700
O201	O20	0.857600	0.125100	0.066200
O211	O21	0.589400	0.880200	0.217700
O221	O22	0.387300	0.820600	0.246300
O231	O23	0.683500	0.229800	0.184000
O241	O24	0.472800	0.161200	0.194600
