data_MOJNAC_clean_PM
_symmetry_space_group_name_H-M	'P1'
_cell_length_a	12.697400
_cell_length_b	16.730900
_cell_length_c	14.807600
_cell_angle_alpha	90.000000
_cell_angle_beta	91.452000
_cell_angle_gamma	90.000000
_symmetry_Int_Tables_number 1

loop_
_symmetry_equiv_pos_as_xyz
'x,y,z'

loop_
_atom_site_label
_atom_site_type_symbol
_atom_site_fract_x
_atom_site_fract_y
_atom_site_fract_z
Sm11	Sm1	0.376900	0.198360	0.055350
O11	O1	0.326900	0.071500	0.136200
O21	O2	0.378600	0.172900	0.219400
O31	O3	0.522500	0.732800	0.064500
O41	O4	0.692900	0.716900	0.079700
O51	O5	0.291300	0.885600	0.443800
O61	O6	0.144300	0.830100	0.385500
N11	N1	0.326900	0.969000	0.287300
N21	N2	0.408700	0.847000	0.267900
C11	C1	0.347400	0.100600	0.212900
C21	C2	0.333200	0.054500	0.299000
H11	H1	0.391700	0.066500	0.340100
H21	H2	0.269300	0.072800	0.327000
C31	C3	0.601800	0.713800	0.112600
C41	C4	0.588600	0.688800	0.210300
H31	H3	0.577700	0.631500	0.213100
H41	H4	0.652400	0.701400	0.244800
C51	C5	0.221700	0.876900	0.384000
C61	C6	0.228200	0.927100	0.297700
H51	H5	0.216900	0.892300	0.246000
H61	H6	0.171500	0.966000	0.297200
C71	C7	0.414800	0.926800	0.268000
Sm21	Sm2	0.876900	0.698360	0.055350
O71	O7	0.826900	0.571500	0.136200
O81	O8	0.878600	0.672900	0.219400
O91	O9	0.022500	0.232800	0.064500
O101	O10	0.192900	0.216900	0.079700
O111	O11	0.791300	0.385600	0.443800
O121	O12	0.644300	0.330100	0.385500
N31	N3	0.826900	0.469000	0.287300
N41	N4	0.908700	0.347000	0.267900
C81	C8	0.847400	0.600600	0.212900
C91	C9	0.833200	0.554500	0.299000
H71	H7	0.891700	0.566500	0.340100
H81	H8	0.769300	0.572800	0.327000
C101	C10	0.101800	0.213800	0.112600
C111	C11	0.088600	0.188800	0.210300
H91	H9	0.077700	0.131500	0.213100
H101	H10	0.152400	0.201400	0.244800
C121	C12	0.721700	0.376900	0.384000
C131	C13	0.728200	0.427100	0.297700
H111	H11	0.716900	0.392300	0.246000
H121	H12	0.671500	0.466000	0.297200
C141	C14	0.914800	0.426800	0.268000
Sm31	Sm3	0.623100	0.198360	0.444650
O131	O13	0.673100	0.071500	0.363800
O141	O14	0.621400	0.172900	0.280600
O151	O15	0.477500	0.732800	0.435500
O161	O16	0.307100	0.716900	0.420300
O171	O17	0.708700	0.885600	0.056200
O181	O18	0.855700	0.830100	0.114500
N51	N5	0.673100	0.969000	0.212700
N61	N6	0.591300	0.847000	0.232100
C151	C15	0.652600	0.100600	0.287100
C161	C16	0.666800	0.054500	0.201000
H131	H13	0.608300	0.066500	0.159900
H141	H14	0.730700	0.072800	0.173000
C171	C17	0.398200	0.713800	0.387400
C181	C18	0.411400	0.688800	0.289700
H151	H15	0.422300	0.631500	0.286900
H161	H16	0.347600	0.701400	0.255200
C191	C19	0.778300	0.876900	0.116000
C201	C20	0.771800	0.927100	0.202300
H171	H17	0.783100	0.892300	0.254000
H181	H18	0.828500	0.966000	0.202800
C211	C21	0.585200	0.926800	0.232000
Sm41	Sm4	0.123100	0.698360	0.444650
O191	O19	0.173100	0.571500	0.363800
O201	O20	0.121400	0.672900	0.280600
O211	O21	0.977500	0.232800	0.435500
O221	O22	0.807100	0.216900	0.420300
O231	O23	0.208700	0.385600	0.056200
O241	O24	0.355700	0.330100	0.114500
N71	N7	0.173100	0.469000	0.212700
N81	N8	0.091300	0.347000	0.232100
C221	C22	0.152600	0.600600	0.287100
C231	C23	0.166800	0.554500	0.201000
H191	H19	0.108300	0.566500	0.159900
H201	H20	0.230700	0.572800	0.173000
C241	C24	0.898200	0.213800	0.387400
C251	C25	0.911400	0.188800	0.289700
H211	H21	0.922300	0.131500	0.286900
H221	H22	0.847600	0.201400	0.255200
C261	C26	0.278300	0.376900	0.116000
C271	C27	0.271800	0.427100	0.202300
H231	H23	0.283100	0.392300	0.254000
H241	H24	0.328500	0.466000	0.202800
C281	C28	0.085200	0.426800	0.232000
Sm51	Sm5	0.623100	0.801650	0.944650
O251	O25	0.673100	0.928500	0.863800
O261	O26	0.621400	0.827100	0.780600
O271	O27	0.477500	0.267200	0.935500
O281	O28	0.307100	0.283100	0.920300
O291	O29	0.708700	0.114400	0.556200
O301	O30	0.855700	0.169900	0.614500
N91	N9	0.673100	0.031000	0.712700
N101	N10	0.591300	0.153000	0.732100
C291	C29	0.652600	0.899400	0.787100
C301	C30	0.666800	0.945500	0.701000
H251	H25	0.608300	0.933500	0.659900
H261	H26	0.730700	0.927200	0.673000
C311	C31	0.398200	0.286200	0.887400
C321	C32	0.411400	0.311200	0.789700
H271	H27	0.422300	0.368500	0.786900
H281	H28	0.347600	0.298600	0.755200
C331	C33	0.778300	0.123100	0.616000
C341	C34	0.771800	0.072900	0.702300
H291	H29	0.783100	0.107700	0.754000
H301	H30	0.828500	0.034000	0.702800
C351	C35	0.585200	0.073200	0.732000
Sm61	Sm6	0.123100	0.301650	0.944650
O311	O31	0.173100	0.428500	0.863800
O321	O32	0.121400	0.327100	0.780600
O331	O33	0.977500	0.767200	0.935500
O341	O34	0.807100	0.783100	0.920300
O351	O35	0.208700	0.614400	0.556200
O361	O36	0.355700	0.669900	0.614500
N111	N11	0.173100	0.531000	0.712700
N121	N12	0.091300	0.653000	0.732100
C361	C36	0.152600	0.399400	0.787100
C371	C37	0.166800	0.445500	0.701000
H311	H31	0.108300	0.433500	0.659900
H321	H32	0.230700	0.427200	0.673000
C381	C38	0.898200	0.786200	0.887400
C391	C39	0.911400	0.811200	0.789700
H331	H33	0.922300	0.868500	0.786900
H341	H34	0.847600	0.798600	0.755200
C401	C40	0.278300	0.623100	0.616000
C411	C41	0.271800	0.572900	0.702300
H351	H35	0.283100	0.607700	0.754000
H361	H36	0.328500	0.534000	0.702800
C421	C42	0.085200	0.573200	0.732000
Sm71	Sm7	0.376900	0.801650	0.555350
O371	O37	0.326900	0.928500	0.636200
O381	O38	0.378600	0.827100	0.719400
O391	O39	0.522500	0.267200	0.564500
O401	O40	0.692900	0.283100	0.579700
O411	O41	0.291300	0.114400	0.943800
O421	O42	0.144300	0.169900	0.885500
N131	N13	0.326900	0.031000	0.787300
N141	N14	0.408700	0.153000	0.767900
C431	C43	0.347400	0.899400	0.712900
C441	C44	0.333200	0.945500	0.799000
H371	H37	0.391700	0.933500	0.840100
H381	H38	0.269300	0.927200	0.827000
C451	C45	0.601800	0.286200	0.612600
C461	C46	0.588600	0.311200	0.710300
H391	H39	0.577700	0.368500	0.713100
H401	H40	0.652400	0.298600	0.744800
C471	C47	0.221700	0.123100	0.884000
C481	C48	0.228200	0.072900	0.797700
H411	H41	0.216900	0.107700	0.746000
H421	H42	0.171500	0.034000	0.797200
C491	C49	0.414800	0.073200	0.768000
Sm81	Sm8	0.876900	0.301650	0.555350
O431	O43	0.826900	0.428500	0.636200
O441	O44	0.878600	0.327100	0.719400
O451	O45	0.022500	0.767200	0.564500
O461	O46	0.192900	0.783100	0.579700
O471	O47	0.791300	0.614400	0.943800
O481	O48	0.644300	0.669900	0.885500
N151	N15	0.826900	0.531000	0.787300
N161	N16	0.908700	0.653000	0.767900
C501	C50	0.847400	0.399400	0.712900
C511	C51	0.833200	0.445500	0.799000
H431	H43	0.891700	0.433500	0.840100
H441	H44	0.769300	0.427200	0.827000
C521	C52	0.101800	0.786200	0.612600
C531	C53	0.088600	0.811200	0.710300
H451	H45	0.077700	0.868500	0.713100
H461	H46	0.152400	0.798600	0.744800
C541	C54	0.721700	0.623100	0.884000
C551	C55	0.728200	0.572900	0.797700
H471	H47	0.716900	0.607700	0.746000
H481	H48	0.671500	0.534000	0.797200
C561	C56	0.914800	0.573200	0.768000
N171	N17	0.500000	0.729300	0.250000
N181	N18	0.500000	0.971000	0.250000
C571	C57	0.500000	0.811100	0.250000
N191	N19	0.000000	0.229300	0.250000
N201	N20	0.000000	0.471000	0.250000
C581	C58	0.000000	0.311100	0.250000
N211	N21	0.500000	0.270700	0.750000
N221	N22	0.500000	0.029000	0.750000
C591	C59	0.500000	0.188900	0.750000
N231	N23	0.000000	0.770700	0.750000
N241	N24	0.000000	0.529000	0.750000
C601	C60	0.000000	0.688900	0.750000
