data_MOLQEL_clean_PM
_symmetry_space_group_name_H-M	'P1'
_cell_length_a	14.290000
_cell_length_b	12.973000
_cell_length_c	17.818000
_cell_angle_alpha	90.000000
_cell_angle_beta	95.330000
_cell_angle_gamma	90.000000
_symmetry_Int_Tables_number 1

loop_
_symmetry_equiv_pos_as_xyz
'x,y,z'

loop_
_atom_site_label
_atom_site_type_symbol
_atom_site_fract_x
_atom_site_fract_y
_atom_site_fract_z
Zn11	Zn1	0.009900	0.945950	0.225380
Zn21	Zn2	0.070560	0.779550	0.363400
C11	C1	0.801800	0.795600	0.319100
C21	C2	0.734400	0.730300	0.284300
H11	H1	0.734900	0.714500	0.233400
C31	C3	0.666500	0.688900	0.325600
C41	C4	0.661800	0.717400	0.400200
H21	H2	0.614400	0.690700	0.426900
C51	C5	0.727700	0.785900	0.436100
C61	C6	0.799100	0.823000	0.394000
H31	H3	0.845100	0.866500	0.416700
C71	C7	0.724100	0.816300	0.515800
C81	C8	0.774900	0.902000	0.546100
H41	H4	0.807400	0.943600	0.514800
C91	C9	0.776900	0.924800	0.621900
C101	C10	0.725300	0.867100	0.669000
H51	H5	0.727400	0.882300	0.720100
C111	C11	0.670600	0.786600	0.638900
C121	C12	0.672100	0.760600	0.564000
H61	H6	0.637300	0.704200	0.545100
C131	C13	0.875300	0.839600	0.273800
C141	C14	0.597900	0.611200	0.289500
C151	C15	0.842000	0.009100	0.655700
C161	C16	0.614800	0.723200	0.689700
O11	O1	0.860200	0.851000	0.205700
O21	O2	0.953800	0.869700	0.310100
O31	O3	0.594200	0.596700	0.221200
O41	O4	0.549100	0.561000	0.332700
O51	O5	0.873700	0.994900	0.722600
O61	O6	0.860500	0.083100	0.614000
O71	O7	0.618500	0.746200	0.757500
O81	O8	0.568600	0.649000	0.658400
Zn31	Zn3	0.490100	0.445950	0.274620
Zn41	Zn4	0.429440	0.279550	0.136600
C171	C17	0.698200	0.295600	0.180900
C181	C18	0.765600	0.230300	0.215700
H71	H7	0.765100	0.214500	0.266600
C191	C19	0.833500	0.188900	0.174400
C201	C20	0.838200	0.217400	0.099800
H81	H8	0.885600	0.190700	0.073100
C211	C21	0.772300	0.285900	0.063900
C221	C22	0.700900	0.323000	0.106000
H91	H9	0.654900	0.366500	0.083300
C231	C23	0.775900	0.316300	0.984200
C241	C24	0.725100	0.402000	0.953900
H101	H10	0.692600	0.443600	0.985200
C251	C25	0.723100	0.424800	0.878100
C261	C26	0.774700	0.367100	0.831000
H111	H11	0.772600	0.382300	0.779900
C271	C27	0.829400	0.286600	0.861100
C281	C28	0.827900	0.260600	0.936000
H121	H12	0.862700	0.204200	0.954900
C291	C29	0.624700	0.339600	0.226200
C301	C30	0.902100	0.111200	0.210500
C311	C31	0.658000	0.509100	0.844300
C321	C32	0.885200	0.223200	0.810300
O91	O9	0.639800	0.351000	0.294300
O101	O10	0.546200	0.369700	0.189900
O111	O11	0.905800	0.096700	0.278800
O121	O12	0.950900	0.061000	0.167300
O131	O13	0.626300	0.494900	0.777400
O141	O14	0.639500	0.583100	0.886000
O151	O15	0.881500	0.246200	0.742500
O161	O16	0.931400	0.149000	0.841600
Zn51	Zn5	0.990100	0.054050	0.774620
Zn61	Zn6	0.929440	0.220450	0.636600
C331	C33	0.198200	0.204400	0.680900
C341	C34	0.265600	0.269700	0.715700
H131	H13	0.265100	0.285500	0.766600
C351	C35	0.333500	0.311100	0.674400
C361	C36	0.338200	0.282600	0.599800
H141	H14	0.385600	0.309300	0.573100
C371	C37	0.272300	0.214100	0.563900
C381	C38	0.200900	0.177000	0.606000
H151	H15	0.154900	0.133500	0.583300
C391	C39	0.275900	0.183700	0.484200
C401	C40	0.225100	0.098000	0.453900
H161	H16	0.192600	0.056400	0.485200
C411	C41	0.223100	0.075200	0.378100
C421	C42	0.274700	0.132900	0.331000
H171	H17	0.272600	0.117700	0.279900
C431	C43	0.329400	0.213400	0.361100
C441	C44	0.327900	0.239400	0.436000
H181	H18	0.362700	0.295800	0.454900
C451	C45	0.124700	0.160400	0.726200
C461	C46	0.402100	0.388800	0.710500
C471	C47	0.158000	0.990900	0.344300
C481	C48	0.385200	0.276800	0.310300
O171	O17	0.139800	0.149000	0.794300
O181	O18	0.046200	0.130300	0.689900
O191	O19	0.405800	0.403300	0.778800
O201	O20	0.450900	0.439000	0.667300
O211	O21	0.126300	0.005100	0.277400
O221	O22	0.139500	0.916900	0.386000
O231	O23	0.381500	0.253800	0.242500
O241	O24	0.431400	0.351000	0.341600
Zn71	Zn7	0.509900	0.554050	0.725380
Zn81	Zn8	0.570560	0.720450	0.863400
C491	C49	0.301800	0.704400	0.819100
C501	C50	0.234400	0.769700	0.784300
H191	H19	0.234900	0.785500	0.733400
C511	C51	0.166500	0.811100	0.825600
C521	C52	0.161800	0.782600	0.900200
H201	H20	0.114400	0.809300	0.926900
C531	C53	0.227700	0.714100	0.936100
C541	C54	0.299100	0.677000	0.894000
H211	H21	0.345100	0.633500	0.916700
C551	C55	0.224100	0.683700	0.015800
C561	C56	0.274900	0.598000	0.046100
H221	H22	0.307400	0.556400	0.014800
C571	C57	0.276900	0.575200	0.121900
C581	C58	0.225300	0.632900	0.169000
H231	H23	0.227400	0.617700	0.220100
C591	C59	0.170600	0.713400	0.138900
C601	C60	0.172100	0.739400	0.064000
H241	H24	0.137300	0.795800	0.045100
C611	C61	0.375300	0.660400	0.773800
C621	C62	0.097900	0.888800	0.789500
C631	C63	0.342000	0.490900	0.155700
C641	C64	0.114800	0.776800	0.189700
O251	O25	0.360200	0.649000	0.705700
O261	O26	0.453800	0.630300	0.810100
O271	O27	0.094200	0.903300	0.721200
O281	O28	0.049100	0.939000	0.832700
O291	O29	0.373700	0.505100	0.222600
O301	O30	0.360500	0.416900	0.114000
O311	O31	0.118500	0.753800	0.257500
O321	O32	0.068600	0.851000	0.158400
