data_MONFAY_clean_PM
_symmetry_space_group_name_H-M	'P1'
_cell_length_a	12.858500
_cell_length_b	11.987300
_cell_length_c	7.668500
_cell_angle_alpha	90.000000
_cell_angle_beta	98.896000
_cell_angle_gamma	90.000000
_symmetry_Int_Tables_number 1

loop_
_symmetry_equiv_pos_as_xyz
'x,y,z'

loop_
_atom_site_label
_atom_site_type_symbol
_atom_site_fract_x
_atom_site_fract_y
_atom_site_fract_z
Co11	Co1	0.265700	0.488500	0.594280
O11	O1	0.137500	0.585500	0.477200
O21	O2	0.106200	0.747500	0.331100
O31	O3	0.220200	0.988100	0.336400
O41	O4	0.150700	0.940000	0.571100
O51	O5	0.596800	0.914400	0.787500
O61	O6	0.643400	0.734800	0.790000
N11	N1	0.336500	0.646400	0.585900
C11	C1	0.160700	0.684400	0.435600
C21	C2	0.268900	0.726300	0.517900
C31	C3	0.297400	0.837700	0.519700
C41	C4	0.398800	0.867000	0.593400
H11	H1	0.419900	0.941200	0.595900
C51	C5	0.468800	0.784400	0.663600
C61	C6	0.434600	0.674600	0.654900
H21	H2	0.481600	0.618700	0.698600
C71	C7	0.216000	0.928500	0.466300
C81	C8	0.578700	0.813000	0.752600
Co21	Co2	0.734300	0.988500	0.905720
O71	O7	0.862500	0.085500	0.022800
O81	O8	0.893800	0.247500	0.168900
O91	O9	0.779800	0.488100	0.163600
O101	O10	0.849300	0.440000	0.928900
O111	O11	0.403200	0.414400	0.712500
O121	O12	0.356600	0.234800	0.710000
N21	N2	0.663500	0.146400	0.914100
C91	C9	0.839300	0.184400	0.064400
C101	C10	0.731100	0.226300	0.982100
C111	C11	0.702600	0.337700	0.980300
C121	C12	0.601200	0.367000	0.906600
H31	H3	0.580100	0.441200	0.904100
C131	C13	0.531200	0.284400	0.836400
C141	C14	0.565400	0.174600	0.845100
H41	H4	0.518400	0.118700	0.801400
C151	C15	0.784000	0.428500	0.033700
C161	C16	0.421300	0.313000	0.747400
Co31	Co3	0.734300	0.511500	0.405720
O131	O13	0.862500	0.414500	0.522800
O141	O14	0.893800	0.252500	0.668900
O151	O15	0.779800	0.011900	0.663600
O161	O16	0.849300	0.060000	0.428900
O171	O17	0.403200	0.085600	0.212500
O181	O18	0.356600	0.265200	0.210000
N31	N3	0.663500	0.353600	0.414100
C171	C17	0.839300	0.315600	0.564400
C181	C18	0.731100	0.273700	0.482100
C191	C19	0.702600	0.162300	0.480300
C201	C20	0.601200	0.133000	0.406600
H51	H5	0.580100	0.058800	0.404100
C211	C21	0.531200	0.215600	0.336400
C221	C22	0.565400	0.325400	0.345100
H61	H6	0.518400	0.381300	0.301400
C231	C23	0.784000	0.071500	0.533700
C241	C24	0.421300	0.187000	0.247400
Co41	Co4	0.265700	0.011500	0.094280
O191	O19	0.137500	0.914500	0.977200
O201	O20	0.106200	0.752500	0.831100
O211	O21	0.220200	0.511900	0.836400
O221	O22	0.150700	0.560000	0.071100
O231	O23	0.596800	0.585600	0.287500
O241	O24	0.643400	0.765200	0.290000
N41	N4	0.336500	0.853600	0.085900
C251	C25	0.160700	0.815600	0.935600
C261	C26	0.268900	0.773700	0.017900
C271	C27	0.297400	0.662300	0.019700
C281	C28	0.398800	0.633000	0.093400
H71	H7	0.419900	0.558800	0.095900
C291	C29	0.468800	0.715600	0.163600
C301	C30	0.434600	0.825400	0.154900
H81	H8	0.481600	0.881300	0.198600
C311	C31	0.216000	0.571500	0.966300
C321	C32	0.578700	0.687000	0.252600
Co51	Co5	0.000000	0.000000	0.500000
Co61	Co6	0.000000	0.500000	0.000000
