data_MOPQIT_clean_PM
_symmetry_space_group_name_H-M	'P1'
_cell_length_a	10.013000
_cell_length_b	11.416000
_cell_length_c	14.914000
_cell_angle_alpha	91.440000
_cell_angle_beta	90.000000
_cell_angle_gamma	90.000000
_symmetry_Int_Tables_number 1

loop_
_symmetry_equiv_pos_as_xyz
'x,y,z'

loop_
_atom_site_label
_atom_site_type_symbol
_atom_site_fract_x
_atom_site_fract_y
_atom_site_fract_z
Mg11	Mg1	0.000000	0.000000	0.500000
Mg21	Mg2	0.621180	0.261120	0.695280
Mg31	Mg3	0.378820	0.738880	0.304720
Mg41	Mg4	0.426830	0.244890	0.864720
Mg51	Mg5	0.121180	0.238880	0.804720
Mg61	Mg6	0.926830	0.255110	0.635280
Mg71	Mg7	0.573170	0.755110	0.135280
Mg81	Mg8	0.073170	0.744890	0.364720
Mg91	Mg9	0.500000	0.500000	0.000000
Mg101	Mg10	0.878820	0.761120	0.195280
Mg111	Mg11	0.000000	0.500000	0.500000
Mg121	Mg12	0.500000	0.000000	0.000000
H11	H1	0.853800	0.803000	0.572000
H21	H2	0.274300	0.151800	0.630200
H31	H3	0.451900	0.476400	0.255800
H41	H4	0.217000	0.994700	0.964400
H51	H5	0.372800	0.940700	0.447800
H61	H6	0.283000	0.494700	0.464400
H71	H7	0.872800	0.559300	0.052200
H81	H8	0.548100	0.523600	0.744200
H91	H9	0.225700	0.651800	0.130200
H101	H10	0.281200	0.964400	0.211800
H111	H11	0.725700	0.848200	0.369800
H121	H12	0.146200	0.197000	0.428000
H131	H13	0.627200	0.059300	0.552200
H141	H14	0.783000	0.005300	0.035600
H151	H15	0.127200	0.440700	0.947800
H161	H16	0.717000	0.505300	0.535600
H171	H17	0.048100	0.976400	0.755800
H181	H18	0.218800	0.464400	0.711800
H191	H19	0.718800	0.035600	0.788200
H201	H20	0.353800	0.697000	0.928000
H211	H21	0.781200	0.535600	0.288200
H221	H22	0.646200	0.303000	0.072000
H231	H23	0.774300	0.348200	0.869800
H241	H24	0.951900	0.023600	0.244200
C11	C1	0.851300	0.558800	0.325500
C21	C2	0.973200	0.981000	0.294600
C31	C3	0.592100	0.259400	0.033100
C41	C4	0.473200	0.519000	0.205400
C51	C5	0.407900	0.740600	0.966900
C61	C6	0.026800	0.019000	0.705400
C71	C7	0.526800	0.481000	0.794600
C81	C8	0.717400	0.077600	0.557800
C91	C9	0.734100	0.439400	0.569100
C101	C10	0.648700	0.058800	0.825500
C111	C11	0.907900	0.759400	0.533100
C121	C12	0.234100	0.060600	0.930900
C131	C13	0.765900	0.939400	0.069100
C141	C14	0.341300	0.178100	0.668900
C151	C15	0.092100	0.240600	0.466900
C161	C16	0.782600	0.577600	0.057800
C171	C17	0.658700	0.821900	0.331100
C181	C18	0.148700	0.441200	0.674500
C191	C19	0.841300	0.321900	0.831100
C201	C20	0.265900	0.560600	0.430900
C211	C21	0.351300	0.941200	0.174500
C221	C22	0.158700	0.678100	0.168900
C231	C23	0.282600	0.922400	0.442200
C241	C24	0.217400	0.422400	0.942200
O11	O1	0.974500	0.815700	0.475470
O21	O2	0.487800	0.463100	0.134350
O31	O3	0.853900	0.402600	0.569650
O41	O4	0.515700	0.370400	0.783600
O51	O5	0.750300	0.659300	0.114930
O61	O6	0.012200	0.963100	0.634350
O71	O7	0.453500	0.193500	0.635750
O81	O8	0.703600	0.521500	0.009700
O91	O9	0.309100	0.195000	0.750860
O101	O10	0.876400	0.496100	0.389600
O111	O11	0.353900	0.097400	0.930350
O121	O12	0.525500	0.315700	0.975470
O131	O13	0.025500	0.184300	0.524530
O141	O14	0.203600	0.978500	0.490300
O151	O15	0.190900	0.695000	0.250860
O161	O16	0.749700	0.159300	0.614930
O171	O17	0.146100	0.597400	0.430350
O181	O18	0.249700	0.340700	0.885070
O191	O19	0.984300	0.870400	0.283600
O201	O20	0.512200	0.536900	0.865650
O211	O21	0.623600	0.996100	0.889600
O221	O22	0.908700	0.652000	0.542000
O231	O23	0.637900	0.396500	0.608650
O241	O24	0.376400	0.003900	0.110400
O251	O25	0.809100	0.305000	0.749140
O261	O26	0.123600	0.503900	0.610400
O271	O27	0.591300	0.152000	0.042000
O281	O28	0.250300	0.840700	0.385070
O291	O29	0.412800	0.847400	0.194010
O301	O30	0.587200	0.152600	0.805990
O311	O31	0.987800	0.036900	0.365650
O321	O32	0.015700	0.129600	0.716400
O331	O33	0.912800	0.652600	0.305990
O341	O34	0.091300	0.348000	0.458000
O351	O35	0.546500	0.806500	0.364250
O361	O36	0.137900	0.103500	0.891350
O371	O37	0.484300	0.629600	0.216400
O381	O38	0.408700	0.848000	0.958000
O391	O39	0.087200	0.347400	0.694010
O401	O40	0.690900	0.805000	0.249140
O411	O41	0.796400	0.021500	0.509700
O421	O42	0.862100	0.896500	0.108650
O431	O43	0.362100	0.603500	0.391350
O441	O44	0.474500	0.684300	0.024530
O451	O45	0.046500	0.693500	0.135750
O461	O46	0.953500	0.306500	0.864250
O471	O47	0.296400	0.478500	0.990300
O481	O48	0.646100	0.902600	0.069650
