data_MOQNUB_clean_PM
_symmetry_space_group_name_H-M	'P1'
_cell_length_a	20.909800
_cell_length_b	17.885500
_cell_length_c	14.791300
_cell_angle_alpha	90.000000
_cell_angle_beta	134.842000
_cell_angle_gamma	90.000000
_symmetry_Int_Tables_number 1

loop_
_symmetry_equiv_pos_as_xyz
'x,y,z'

loop_
_atom_site_label
_atom_site_type_symbol
_atom_site_fract_x
_atom_site_fract_y
_atom_site_fract_z
Mg11	Mg1	0.633700	0.579100	0.869700
Mg21	Mg2	0.866100	0.417200	0.120200
Mg31	Mg3	0.486600	0.668600	0.106200
Mg41	Mg4	0.501100	0.829900	0.884600
P11	P1	0.512000	0.645000	0.914100
P21	P2	0.850300	0.600200	0.114100
P31	P3	0.649600	0.395500	0.896400
P41	P4	0.004400	0.349600	0.403900
O11	O1	0.578700	0.596500	0.929900
O21	O2	0.536900	0.726500	0.925300
O31	O3	0.414900	0.627900	0.785700
O41	O4	0.519700	0.623200	0.022900
O51	O5	0.911200	0.612600	0.093400
O61	O6	0.879200	0.651000	0.222200
O71	O7	0.851600	0.519200	0.147800
O81	O8	0.752800	0.623300	0.989800
O91	O9	0.638700	0.474500	0.849800
O101	O10	0.591800	0.340300	0.785000
O111	O11	0.749100	0.370700	0.984800
O121	O12	0.622700	0.389400	0.970900
O131	O13	0.914800	0.352600	0.262900
O141	O14	0.046300	0.271700	0.444600
O151	O15	0.070300	0.407900	0.429000
O161	O16	0.986000	0.374600	0.483900
Mg51	Mg5	0.133700	0.079100	0.869700
Mg61	Mg6	0.366100	0.917200	0.120200
Mg71	Mg7	0.986600	0.168600	0.106200
Mg81	Mg8	0.001100	0.329900	0.884600
P51	P5	0.012000	0.145000	0.914100
P61	P6	0.350300	0.100200	0.114100
P71	P7	0.149600	0.895500	0.896400
P81	P8	0.504400	0.849600	0.403900
O171	O17	0.078700	0.096500	0.929900
O181	O18	0.036900	0.226500	0.925300
O191	O19	0.914900	0.127900	0.785700
O201	O20	0.019700	0.123200	0.022900
O211	O21	0.411200	0.112600	0.093400
O221	O22	0.379200	0.151000	0.222200
O231	O23	0.351600	0.019200	0.147800
O241	O24	0.252800	0.123300	0.989800
O251	O25	0.138700	0.974500	0.849800
O261	O26	0.091800	0.840300	0.785000
O271	O27	0.249100	0.870700	0.984800
O281	O28	0.122700	0.889400	0.970900
O291	O29	0.414800	0.852600	0.262900
O301	O30	0.546300	0.771700	0.444600
O311	O31	0.570300	0.907900	0.429000
O321	O32	0.486000	0.874600	0.483900
Mg91	Mg9	0.366300	0.579100	0.630300
Mg101	Mg10	0.133900	0.417200	0.379800
Mg111	Mg11	0.513400	0.668600	0.393800
Mg121	Mg12	0.498900	0.829900	0.615400
P91	P9	0.488000	0.645000	0.585900
P101	P10	0.149700	0.600200	0.385900
P111	P11	0.350400	0.395500	0.603600
P121	P12	0.995600	0.349600	0.096100
O331	O33	0.421300	0.596500	0.570100
O341	O34	0.463100	0.726500	0.574700
O351	O35	0.585100	0.627900	0.714300
O361	O36	0.480300	0.623200	0.477100
O371	O37	0.088800	0.612600	0.406600
O381	O38	0.120800	0.651000	0.277800
O391	O39	0.148400	0.519200	0.352200
O401	O40	0.247200	0.623300	0.510200
O411	O41	0.361300	0.474500	0.650200
O421	O42	0.408200	0.340300	0.715000
O431	O43	0.250900	0.370700	0.515200
O441	O44	0.377300	0.389400	0.529100
O451	O45	0.085200	0.352600	0.237100
O461	O46	0.953700	0.271700	0.055400
O471	O47	0.929700	0.407900	0.071000
O481	O48	0.014000	0.374600	0.016100
Mg131	Mg13	0.866300	0.079100	0.630300
Mg141	Mg14	0.633900	0.917200	0.379800
Mg151	Mg15	0.013400	0.168600	0.393800
Mg161	Mg16	0.998900	0.329900	0.615400
P131	P13	0.988000	0.145000	0.585900
P141	P14	0.649700	0.100200	0.385900
P151	P15	0.850400	0.895500	0.603600
P161	P16	0.495600	0.849600	0.096100
O491	O49	0.921300	0.096500	0.570100
O501	O50	0.963100	0.226500	0.574700
O511	O51	0.085100	0.127900	0.714300
O521	O52	0.980300	0.123200	0.477100
O531	O53	0.588800	0.112600	0.406600
O541	O54	0.620800	0.151000	0.277800
O551	O55	0.648400	0.019200	0.352200
O561	O56	0.747200	0.123300	0.510200
O571	O57	0.861300	0.974500	0.650200
O581	O58	0.908200	0.840300	0.715000
O591	O59	0.750900	0.870700	0.515200
O601	O60	0.877300	0.889400	0.529100
O611	O61	0.585200	0.852600	0.237100
O621	O62	0.453700	0.771700	0.055400
O631	O63	0.429700	0.907900	0.071000
O641	O64	0.514000	0.874600	0.016100
Mg171	Mg17	0.366300	0.420900	0.130300
Mg181	Mg18	0.133900	0.582800	0.879800
Mg191	Mg19	0.513400	0.331400	0.893800
Mg201	Mg20	0.498900	0.170100	0.115400
P171	P17	0.488000	0.355000	0.085900
P181	P18	0.149700	0.399800	0.885900
P191	P19	0.350400	0.604500	0.103600
P201	P20	0.995600	0.650400	0.596100
O651	O65	0.421300	0.403500	0.070100
O661	O66	0.463100	0.273500	0.074700
O671	O67	0.585100	0.372100	0.214300
O681	O68	0.480300	0.376800	0.977100
O691	O69	0.088800	0.387400	0.906600
O701	O70	0.120800	0.349000	0.777800
O711	O71	0.148400	0.480800	0.852200
O721	O72	0.247200	0.376700	0.010200
O731	O73	0.361300	0.525500	0.150200
O741	O74	0.408200	0.659700	0.215000
O751	O75	0.250900	0.629300	0.015200
O761	O76	0.377300	0.610600	0.029100
O771	O77	0.085200	0.647400	0.737100
O781	O78	0.953700	0.728300	0.555400
O791	O79	0.929700	0.592100	0.571000
O801	O80	0.014000	0.625400	0.516100
Mg211	Mg21	0.866300	0.920900	0.130300
Mg221	Mg22	0.633900	0.082800	0.879800
Mg231	Mg23	0.013400	0.831400	0.893800
Mg241	Mg24	0.998900	0.670100	0.115400
P211	P21	0.988000	0.855000	0.085900
P221	P22	0.649700	0.899800	0.885900
P231	P23	0.850400	0.104500	0.103600
P241	P24	0.495600	0.150400	0.596100
O811	O81	0.921300	0.903500	0.070100
O821	O82	0.963100	0.773500	0.074700
O831	O83	0.085100	0.872100	0.214300
O841	O84	0.980300	0.876800	0.977100
O851	O85	0.588800	0.887400	0.906600
O861	O86	0.620800	0.849000	0.777800
O871	O87	0.648400	0.980800	0.852200
O881	O88	0.747200	0.876700	0.010200
O891	O89	0.861300	0.025500	0.150200
O901	O90	0.908200	0.159700	0.215000
O911	O91	0.750900	0.129300	0.015200
O921	O92	0.877300	0.110600	0.029100
O931	O93	0.585200	0.147400	0.737100
O941	O94	0.453700	0.228300	0.555400
O951	O95	0.429700	0.092100	0.571000
O961	O96	0.514000	0.125400	0.516100
Mg251	Mg25	0.633700	0.420900	0.369700
Mg261	Mg26	0.866100	0.582800	0.620200
Mg271	Mg27	0.486600	0.331400	0.606200
Mg281	Mg28	0.501100	0.170100	0.384600
P251	P25	0.512000	0.355000	0.414100
P261	P26	0.850300	0.399800	0.614100
P271	P27	0.649600	0.604500	0.396400
P281	P28	0.004400	0.650400	0.903900
O971	O97	0.578700	0.403500	0.429900
O981	O98	0.536900	0.273500	0.425300
O991	O99	0.414900	0.372100	0.285700
O1001	O100	0.519700	0.376800	0.522900
O1011	O101	0.911200	0.387400	0.593400
O1021	O102	0.879200	0.349000	0.722200
O1031	O103	0.851600	0.480800	0.647800
O1041	O104	0.752800	0.376700	0.489800
O1051	O105	0.638700	0.525500	0.349800
O1061	O106	0.591800	0.659700	0.285000
O1071	O107	0.749100	0.629300	0.484800
O1081	O108	0.622700	0.610600	0.470900
O1091	O109	0.914800	0.647400	0.762900
O1101	O110	0.046300	0.728300	0.944600
O1111	O111	0.070300	0.592100	0.929000
O1121	O112	0.986000	0.625400	0.983900
Mg291	Mg29	0.133700	0.920900	0.369700
Mg301	Mg30	0.366100	0.082800	0.620200
Mg311	Mg31	0.986600	0.831400	0.606200
Mg321	Mg32	0.001100	0.670100	0.384600
P291	P29	0.012000	0.855000	0.414100
P301	P30	0.350300	0.899800	0.614100
P311	P31	0.149600	0.104500	0.396400
P321	P32	0.504400	0.150400	0.903900
O1131	O113	0.078700	0.903500	0.429900
O1141	O114	0.036900	0.773500	0.425300
O1151	O115	0.914900	0.872100	0.285700
O1161	O116	0.019700	0.876800	0.522900
O1171	O117	0.411200	0.887400	0.593400
O1181	O118	0.379200	0.849000	0.722200
O1191	O119	0.351600	0.980800	0.647800
O1201	O120	0.252800	0.876700	0.489800
O1211	O121	0.138700	0.025500	0.349800
O1221	O122	0.091800	0.159700	0.285000
O1231	O123	0.249100	0.129300	0.484800
O1241	O124	0.122700	0.110600	0.470900
O1251	O125	0.414800	0.147400	0.762900
O1261	O126	0.546300	0.228300	0.944600
O1271	O127	0.570300	0.092100	0.929000
O1281	O128	0.486000	0.125400	0.983900
