data_MOSDUT_clean_PM
_symmetry_space_group_name_H-M	'P1'
_cell_length_a	13.655000
_cell_length_b	15.189000
_cell_length_c	20.912100
_cell_angle_alpha	90.000000
_cell_angle_beta	102.488000
_cell_angle_gamma	90.000000
_symmetry_Int_Tables_number 1

loop_
_symmetry_equiv_pos_as_xyz
'x,y,z'

loop_
_atom_site_label
_atom_site_type_symbol
_atom_site_fract_x
_atom_site_fract_y
_atom_site_fract_z
Co11	Co1	0.244740	0.259070	0.461090
Co21	Co2	0.818890	0.257030	0.603050
Co31	Co3	0.298570	0.365750	0.799810
Co41	Co4	0.255260	0.759070	0.038910
Co51	Co5	0.681110	0.757030	0.896950
Co61	Co6	0.201430	0.865750	0.700190
Co71	Co7	0.755260	0.740930	0.538910
Co81	Co8	0.181110	0.742970	0.396950
Co91	Co9	0.701430	0.634250	0.200190
Co101	Co10	0.744740	0.240930	0.961090
Co111	Co11	0.318890	0.242970	0.103050
Co121	Co12	0.798570	0.134250	0.299810
H11	H1	0.450300	0.349500	0.696400
H21	H2	0.433300	0.319800	0.585900
H31	H3	0.003600	0.230100	0.410100
H41	H4	0.863000	0.232700	0.456400
H51	H5	0.914100	0.305500	0.760700
H61	H6	0.070300	0.337200	0.823800
H71	H7	0.049700	0.849500	0.803600
H81	H8	0.066700	0.819800	0.914100
H91	H9	0.496400	0.730100	0.089900
H101	H10	0.637000	0.732700	0.043600
H111	H11	0.585900	0.805500	0.739300
H121	H12	0.429700	0.837200	0.676200
H131	H13	0.549700	0.650500	0.303600
H141	H14	0.566700	0.680200	0.414100
H151	H15	0.996400	0.769900	0.589900
H161	H16	0.137000	0.767300	0.543600
H171	H17	0.085900	0.694500	0.239300
H181	H18	0.929700	0.662800	0.176200
H191	H19	0.950300	0.150500	0.196400
H201	H20	0.933300	0.180200	0.085900
H211	H21	0.503600	0.269900	0.910100
H221	H22	0.363000	0.267300	0.956400
H231	H23	0.414100	0.194500	0.260700
H241	H24	0.570300	0.162800	0.323800
C11	C1	0.317800	0.143200	0.811800
C21	C2	0.207700	0.297200	0.594500
C31	C3	0.108100	0.275200	0.554900
C41	C4	0.026400	0.274800	0.582200
C51	C5	0.037000	0.295300	0.651400
C61	C6	0.130100	0.315500	0.690500
C71	C7	0.219400	0.316600	0.660300
C81	C8	0.385800	0.335800	0.670700
C91	C9	0.375800	0.316900	0.604600
C101	C10	0.012100	0.242600	0.455500
C111	C11	0.927200	0.242800	0.483700
C121	C12	0.969800	0.307900	0.740300
C131	C13	0.063800	0.326900	0.778300
C141	C14	0.272000	0.058300	0.509300
C151	C15	0.242400	0.439300	0.927400
C161	C16	0.155200	0.235400	0.310000
C171	C17	0.680100	0.269100	0.706200
C181	C18	0.469200	0.253300	0.442200
C191	C19	0.636800	0.239200	0.481900
C201	C20	0.876100	0.056000	0.640000
C211	C21	0.522500	0.442200	0.835700
C221	C22	0.182200	0.643200	0.688200
C231	C23	0.292300	0.797200	0.905500
C241	C24	0.391900	0.775200	0.945100
C251	C25	0.473600	0.774800	0.917800
C261	C26	0.463000	0.795300	0.848600
C271	C27	0.369900	0.815500	0.809500
C281	C28	0.280600	0.816600	0.839700
C291	C29	0.114200	0.835800	0.829300
C301	C30	0.124200	0.816900	0.895400
C311	C31	0.487900	0.742600	0.044500
C321	C32	0.572800	0.742800	0.016300
C331	C33	0.530200	0.807900	0.759700
C341	C34	0.436200	0.826900	0.721700
C351	C35	0.228000	0.558300	0.990700
C361	C36	0.257600	0.939300	0.572600
C371	C37	0.344800	0.735400	0.190000
C381	C38	0.819900	0.769100	0.793800
C391	C39	0.030800	0.753300	0.057800
C401	C40	0.863200	0.739200	0.018100
C411	C41	0.623900	0.556000	0.860000
C421	C42	0.977500	0.942200	0.664300
C431	C43	0.682200	0.856800	0.188200
C441	C44	0.792300	0.702800	0.405500
C451	C45	0.891900	0.724800	0.445100
C461	C46	0.973600	0.725200	0.417800
C471	C47	0.963000	0.704700	0.348600
C481	C48	0.869900	0.684500	0.309500
C491	C49	0.780600	0.683400	0.339700
C501	C50	0.614200	0.664200	0.329300
C511	C51	0.624200	0.683100	0.395400
C521	C52	0.987900	0.757400	0.544500
C531	C53	0.072800	0.757200	0.516300
C541	C54	0.030200	0.692100	0.259700
C551	C55	0.936200	0.673100	0.221700
C561	C56	0.728000	0.941700	0.490700
C571	C57	0.757600	0.560700	0.072600
C581	C58	0.844800	0.764600	0.690000
C591	C59	0.319900	0.730900	0.293800
C601	C60	0.530800	0.746700	0.557800
C611	C61	0.363200	0.760800	0.518100
C621	C62	0.123900	0.944000	0.360000
C631	C63	0.477500	0.557800	0.164300
C641	C64	0.817800	0.356800	0.311800
C651	C65	0.707700	0.202800	0.094500
C661	C66	0.608100	0.224800	0.054900
C671	C67	0.526400	0.225200	0.082200
C681	C68	0.537000	0.204700	0.151400
C691	C69	0.630100	0.184500	0.190500
C701	C70	0.719400	0.183400	0.160300
C711	C71	0.885800	0.164200	0.170700
C721	C72	0.875800	0.183100	0.104600
C731	C73	0.512100	0.257400	0.955500
C741	C74	0.427200	0.257200	0.983700
C751	C75	0.469800	0.192100	0.240300
C761	C76	0.563800	0.173100	0.278300
C771	C77	0.772000	0.441700	0.009300
C781	C78	0.742400	0.060700	0.427400
C791	C79	0.655200	0.264600	0.810000
C801	C80	0.180100	0.230900	0.206200
C811	C81	0.969200	0.246700	0.942200
C821	C82	0.136800	0.260800	0.981900
C831	C83	0.376100	0.444000	0.140000
C841	C84	0.022500	0.057800	0.335700
N11	N1	0.286700	0.294600	0.566200
N21	N2	0.102300	0.259100	0.489800
N31	N3	0.934100	0.256700	0.546700
N41	N4	0.955000	0.293000	0.676900
N51	N5	0.144600	0.331100	0.753300
N61	N6	0.307400	0.335100	0.699100
N71	N7	0.260200	0.128900	0.488900
N81	N8	0.288400	0.979500	0.523700
N91	N9	0.262600	0.399100	0.886800
N101	N10	0.179200	0.243600	0.363600
N111	N11	0.118300	0.223300	0.246600
N121	N12	0.725900	0.265800	0.666800
N131	N13	0.388000	0.265000	0.446100
N141	N14	0.561700	0.265000	0.430300
N151	N15	0.705300	0.242600	0.520700
N161	N16	0.847600	0.126300	0.623400
N171	N17	0.891400	0.976200	0.655500
N181	N18	0.449700	0.401300	0.824900
N191	N19	0.325700	0.237300	0.824800
N201	N20	0.254500	0.491500	0.764600
N211	N21	0.213300	0.794600	0.933800
N221	N22	0.397700	0.759100	0.010200
N231	N23	0.565900	0.756700	0.953300
N241	N24	0.545000	0.793000	0.823100
N251	N25	0.355400	0.831100	0.746700
N261	N26	0.192600	0.835100	0.800900
N271	N27	0.239800	0.628900	0.011100
N281	N28	0.211600	0.479500	0.976300
N291	N29	0.237400	0.899100	0.613200
N301	N30	0.320800	0.743600	0.136400
N311	N31	0.381700	0.723300	0.253400
N321	N32	0.774100	0.765800	0.833200
N331	N33	0.112000	0.765000	0.053900
N341	N34	0.938300	0.765000	0.069700
N351	N35	0.794700	0.742600	0.979300
N361	N36	0.652400	0.626300	0.876600
N371	N37	0.608600	0.476200	0.844500
N381	N38	0.050300	0.901300	0.675100
N391	N39	0.174300	0.737300	0.675200
N401	N40	0.245500	0.991500	0.735400
N411	N41	0.713300	0.705400	0.433800
N421	N42	0.897700	0.740900	0.510200
N431	N43	0.065900	0.743300	0.453300
N441	N44	0.045000	0.707000	0.323100
N451	N45	0.855400	0.668900	0.246700
N461	N46	0.692600	0.664900	0.300900
N471	N47	0.739800	0.871100	0.511100
N481	N48	0.711600	0.020500	0.476300
N491	N49	0.737400	0.600900	0.113200
N501	N50	0.820800	0.756400	0.636400
N511	N51	0.881700	0.776700	0.753400
N521	N52	0.274100	0.734200	0.333200
N531	N53	0.612000	0.735000	0.553900
N541	N54	0.438300	0.735000	0.569700
N551	N55	0.294700	0.757400	0.479300
N561	N56	0.152400	0.873700	0.376600
N571	N57	0.108600	0.023800	0.344500
N581	N58	0.550300	0.598700	0.175100
N591	N59	0.674300	0.762700	0.175200
N601	N60	0.745500	0.508500	0.235400
N611	N61	0.786700	0.205400	0.066200
N621	N62	0.602300	0.240900	0.989800
N631	N63	0.434100	0.243300	0.046700
N641	N64	0.455000	0.207000	0.176900
N651	N65	0.644600	0.168900	0.253300
N661	N66	0.807400	0.164900	0.199100
N671	N67	0.760200	0.371100	0.988900
N681	N68	0.788400	0.520500	0.023700
N691	N69	0.762600	0.100900	0.386800
N701	N70	0.679200	0.256400	0.863600
N711	N71	0.618300	0.276700	0.746600
N721	N72	0.225900	0.234200	0.166800
N731	N73	0.888000	0.235000	0.946100
N741	N74	0.061700	0.235000	0.930300
N751	N75	0.205300	0.257400	0.020700
N761	N76	0.347600	0.373700	0.123400
N771	N77	0.391400	0.523800	0.155500
N781	N78	0.949700	0.098700	0.324900
N791	N79	0.825700	0.262700	0.324800
N801	N80	0.754500	0.008500	0.264600
