data_MOTMAK_clean_PM
_symmetry_space_group_name_H-M	'P1'
_cell_length_a	9.619600
_cell_length_b	9.619600
_cell_length_c	12.817000
_cell_angle_alpha	90.000000
_cell_angle_beta	90.000000
_cell_angle_gamma	92.047000
_symmetry_Int_Tables_number 1

loop_
_symmetry_equiv_pos_as_xyz
'x,y,z'

loop_
_atom_site_label
_atom_site_type_symbol
_atom_site_fract_x
_atom_site_fract_y
_atom_site_fract_z
Li11	Li1	0.117700	0.039500	0.903400
Li21	Li2	0.882300	0.960500	0.403400
Li31	Li3	0.960500	0.882300	0.596600
Li41	Li4	0.039500	0.117700	0.096600
Li51	Li5	0.929000	0.071000	0.750000
Li61	Li6	0.071000	0.929000	0.250000
Li71	Li7	0.730600	0.269400	0.750000
Li81	Li8	0.269400	0.730600	0.250000
H11	H1	0.371400	0.003200	0.360900
H21	H2	0.195200	0.019800	0.482000
H31	H3	0.480000	0.067400	0.709600
H41	H4	0.598500	0.009900	0.413700
H51	H5	0.628600	0.996800	0.860900
H61	H6	0.804800	0.980200	0.982000
H71	H7	0.520000	0.932600	0.209600
H81	H8	0.401500	0.990100	0.913700
H91	H9	0.996800	0.628600	0.139100
H101	H10	0.980200	0.804800	0.018000
H111	H11	0.932600	0.520000	0.790400
H121	H12	0.990100	0.401500	0.086300
H131	H13	0.003200	0.371400	0.639100
H141	H14	0.019800	0.195200	0.518000
H151	H15	0.067400	0.480000	0.290400
H161	H16	0.009900	0.598500	0.586300
C11	C1	0.392800	0.014000	0.431210
C21	C2	0.287600	0.024560	0.503500
C31	C3	0.320000	0.042460	0.609500
C41	C4	0.457760	0.052040	0.639830
C51	C5	0.563580	0.038880	0.566880
C61	C6	0.528390	0.019390	0.462830
C71	C7	0.203130	0.050530	0.687710
C81	C8	0.713380	0.038300	0.599950
C91	C9	0.607200	0.986000	0.931210
C101	C10	0.712400	0.975440	0.003500
C111	C11	0.680000	0.957540	0.109500
C121	C12	0.542240	0.947960	0.139830
C131	C13	0.436420	0.961120	0.066880
C141	C14	0.471610	0.980610	0.962830
C151	C15	0.796870	0.949470	0.187710
C161	C16	0.286620	0.961700	0.099950
C171	C17	0.986000	0.607200	0.068790
C181	C18	0.975440	0.712400	0.996500
C191	C19	0.957540	0.680000	0.890500
C201	C20	0.947960	0.542240	0.860170
C211	C21	0.961120	0.436420	0.933120
C221	C22	0.980610	0.471610	0.037170
C231	C23	0.949470	0.796870	0.812290
C241	C24	0.961700	0.286620	0.900050
C251	C25	0.014000	0.392800	0.568790
C261	C26	0.024560	0.287600	0.496500
C271	C27	0.042460	0.320000	0.390500
C281	C28	0.052040	0.457760	0.360170
C291	C29	0.038880	0.563580	0.433120
C301	C30	0.019390	0.528390	0.537170
C311	C31	0.050530	0.203130	0.312290
C321	C32	0.038300	0.713380	0.400050
O11	O1	0.233120	0.075660	0.780840
O21	O2	0.082180	0.033120	0.653190
O31	O3	0.744690	0.083810	0.688990
O41	O4	0.800090	0.985690	0.538950
O51	O5	0.766880	0.924340	0.280840
O61	O6	0.917820	0.966880	0.153190
O71	O7	0.255310	0.916190	0.188990
O81	O8	0.199910	0.014310	0.038950
O91	O9	0.924340	0.766880	0.719160
O101	O10	0.966880	0.917820	0.846810
O111	O11	0.916190	0.255310	0.811010
O121	O12	0.014310	0.199910	0.961050
O131	O13	0.075660	0.233120	0.219160
O141	O14	0.033120	0.082180	0.346810
O151	O15	0.083810	0.744690	0.311010
O161	O16	0.985690	0.800090	0.461050
