data_MOVFOU_clean_PM
_symmetry_space_group_name_H-M	'P1'
_cell_length_a	12.293000
_cell_length_b	14.538000
_cell_length_c	18.583000
_cell_angle_alpha	90.000000
_cell_angle_beta	90.000000
_cell_angle_gamma	97.063000
_symmetry_Int_Tables_number 1

loop_
_symmetry_equiv_pos_as_xyz
'x,y,z'

loop_
_atom_site_label
_atom_site_type_symbol
_atom_site_fract_x
_atom_site_fract_y
_atom_site_fract_z
Co11	Co1	0.000000	0.000000	0.000000
Co21	Co2	0.500000	0.500000	0.500000
Co31	Co3	0.000000	0.500000	0.500000
Co41	Co4	0.500000	0.000000	0.000000
H11	H1	0.399400	0.946200	0.270600
H21	H2	0.737400	0.429200	0.959000
H31	H3	0.960400	0.480200	0.330200
H41	H4	0.600600	0.053800	0.729400
H51	H5	0.844300	0.642800	0.470100
H61	H6	0.338700	0.992600	0.453100
H71	H7	0.583200	0.395300	0.772700
H81	H8	0.893100	0.059600	0.263300
H91	H9	0.661300	0.507400	0.953100
H101	H10	0.341400	0.055600	0.752300
H111	H11	0.833000	0.381100	0.065300
H121	H12	0.883700	0.045900	0.671100
H131	H13	0.833000	0.881100	0.434700
H141	H14	0.771200	0.724500	0.381300
H151	H15	0.748400	0.314800	0.211100
H161	H16	0.518500	0.184300	0.364000
H171	H17	0.268500	0.738200	0.599500
H181	H18	0.213300	0.319100	0.808300
H191	H19	0.262600	0.070800	0.459000
H201	H20	0.112300	0.605800	0.139400
H211	H21	0.960400	0.980200	0.169800
H221	H22	0.786700	0.180900	0.308300
H231	H23	0.268500	0.238200	0.900500
H241	H24	0.613700	0.108700	0.445900
H251	H25	0.977900	0.273800	0.920900
H261	H26	0.576300	0.020700	0.159200
H271	H27	0.560300	0.701900	0.823000
H281	H28	0.583200	0.895300	0.727300
H291	H29	0.251600	0.685200	0.788900
H301	H30	0.251600	0.185200	0.711100
H311	H31	0.658600	0.944400	0.247700
H321	H32	0.116300	0.454100	0.171100
H331	H33	0.228800	0.275500	0.618700
H341	H34	0.024100	0.658800	0.867200
H351	H35	0.613700	0.608700	0.054100
H361	H36	0.439700	0.798100	0.323000
H371	H37	0.844300	0.142800	0.029900
H381	H38	0.167000	0.118900	0.565300
H391	H39	0.352000	0.657300	0.515200
H401	H40	0.386300	0.391300	0.945900
H411	H41	0.262600	0.570800	0.041000
H421	H42	0.112300	0.105800	0.360600
H431	H43	0.022100	0.226200	0.420900
H441	H44	0.106900	0.440400	0.763300
H451	H45	0.386300	0.891300	0.554100
H461	H46	0.439700	0.298100	0.177000
H471	H47	0.576300	0.520700	0.340800
H481	H48	0.116300	0.954100	0.328900
H491	H49	0.883700	0.545900	0.828900
H501	H50	0.658600	0.444400	0.252300
H511	H51	0.975900	0.341200	0.132800
H521	H52	0.155700	0.857200	0.970100
H531	H53	0.648000	0.842700	0.015200
H541	H54	0.600600	0.553800	0.770600
H551	H55	0.731500	0.261800	0.400500
H561	H56	0.416800	0.604700	0.227300
H571	H57	0.648000	0.342700	0.484800
H581	H58	0.887700	0.894200	0.639400
H591	H59	0.167000	0.618900	0.934700
H601	H60	0.423700	0.979300	0.840800
H611	H61	0.155700	0.357200	0.529900
H621	H62	0.399400	0.446200	0.229400
H631	H63	0.352000	0.157300	0.984800
H641	H64	0.771200	0.224500	0.118700
H651	H65	0.661300	0.007400	0.546900
H661	H66	0.887700	0.394200	0.860600
H671	H67	0.106900	0.940400	0.736700
H681	H68	0.560300	0.201900	0.677000
H691	H69	0.731500	0.761800	0.099500
H701	H70	0.022100	0.726200	0.079100
H711	H71	0.228800	0.775500	0.881300
H721	H72	0.213300	0.819100	0.691700
H731	H73	0.024100	0.158800	0.632800
H741	H74	0.518500	0.684300	0.136000
H751	H75	0.975900	0.841200	0.367200
H761	H76	0.338700	0.492600	0.046900
H771	H77	0.039600	0.019800	0.830200
H781	H78	0.977900	0.773800	0.579100
H791	H79	0.481500	0.315700	0.864000
H801	H80	0.737400	0.929200	0.541000
H811	H81	0.416800	0.104700	0.272700
H821	H82	0.748400	0.814800	0.288900
H831	H83	0.039600	0.519800	0.669800
H841	H84	0.423700	0.479300	0.659200
H851	H85	0.786700	0.680900	0.191700
H861	H86	0.893100	0.559600	0.236700
H871	H87	0.341400	0.555600	0.747700
H881	H88	0.481500	0.815700	0.636000
C11	C1	0.300830	0.686440	0.613380
C21	C2	0.427570	0.925070	0.589260
C31	C3	0.826820	0.154520	0.203370
C41	C4	0.451980	0.072400	0.307080
C51	C5	0.026030	0.597100	0.879700
C61	C6	0.893380	0.806220	0.993520
C71	C7	0.253210	0.211640	0.756690
C81	C8	0.031710	0.818820	0.561700
C91	C9	0.111740	0.573050	0.920430
C101	C10	0.746790	0.288360	0.256690
C111	C11	0.484730	0.379850	0.861400
C121	C12	0.943910	0.938830	0.624410
C131	C13	0.882910	0.578630	0.283780
C141	C14	0.058950	0.470780	0.143330
C151	C15	0.498890	0.428370	0.144060
C161	C16	0.501110	0.571630	0.855940
C171	C17	0.888260	0.926950	0.420430
C181	C18	0.350970	0.137060	0.937300
C191	C19	0.572430	0.574930	0.089260
C201	C20	0.076170	0.469050	0.659330
C211	C21	0.941050	0.029220	0.643330
C221	C22	0.030360	0.911600	0.582620
C231	C23	0.388730	0.669160	0.956370
C241	C24	0.026030	0.097100	0.620300
C251	C25	0.943910	0.438830	0.875590
C261	C26	0.117410	0.480300	0.940970
C271	C27	0.106620	0.693780	0.493520
C281	C28	0.427570	0.425070	0.910740
C291	C29	0.855120	0.626370	0.422560
C301	C30	0.076170	0.969050	0.840670
C311	C31	0.484730	0.879850	0.638600
C321	C32	0.492300	0.321960	0.590830
C331	C33	0.485330	0.330230	0.143110
C341	C34	0.797900	0.046360	0.486050
C351	C35	0.173180	0.345480	0.703370
C361	C36	0.923830	0.030950	0.159330
C371	C37	0.393020	0.532590	0.647030
C381	C38	0.923830	0.530950	0.340670
C391	C39	0.889540	0.706910	0.016250
C401	C40	0.855120	0.126370	0.077440
C411	C41	0.606980	0.467410	0.352970
C421	C42	0.797900	0.546360	0.013950
C431	C43	0.628790	0.926720	0.457500
C441	C44	0.649030	0.362940	0.437300
C451	C45	0.514670	0.169770	0.643110
C461	C46	0.371210	0.073280	0.542500
C471	C47	0.492300	0.821960	0.909170
C481	C48	0.882910	0.078630	0.216220
C491	C49	0.785730	0.206700	0.262500
C501	C50	0.343910	0.078580	0.799010
C511	C51	0.973970	0.902900	0.379700
C521	C52	0.253210	0.711640	0.743310
C531	C53	0.202100	0.953640	0.513950
C541	C54	0.515270	0.120150	0.361400
C551	C55	0.537640	0.281430	0.093680
C561	C56	0.811160	0.676410	0.369260
C571	C57	0.805000	0.637950	0.990780
C581	C58	0.443030	0.978320	0.305490
C591	C59	0.811160	0.176410	0.130740
C601	C60	0.451980	0.572400	0.192920
C611	C61	0.785730	0.706700	0.237500
C621	C62	0.110460	0.293090	0.983750
C631	C63	0.388730	0.169160	0.543630
C641	C64	0.889540	0.206910	0.483750
C651	C65	0.498890	0.928370	0.355940
C661	C66	0.393020	0.032590	0.852970
C671	C67	0.969640	0.588400	0.082620
C681	C68	0.941050	0.529220	0.856670
C691	C69	0.699170	0.813560	0.113380
C701	C70	0.110460	0.793090	0.516250
C711	C71	0.501110	0.071630	0.644060
C721	C72	0.298120	0.159630	0.814820
C731	C73	0.030360	0.411600	0.917380
C741	C74	0.968290	0.681180	0.061700
C751	C75	0.300830	0.186440	0.886620
C761	C76	0.656090	0.421420	0.299010
C771	C77	0.058950	0.970780	0.356670
C781	C78	0.031710	0.318820	0.938300
C791	C79	0.569270	0.476630	0.091340
C801	C80	0.701880	0.840370	0.185180
C811	C81	0.826820	0.654520	0.296630
C821	C82	0.968290	0.181180	0.438300
C831	C83	0.195000	0.362050	0.009220
C841	C84	0.973970	0.402900	0.120300
C851	C85	0.294830	0.524060	0.013720
C861	C86	0.882590	0.519700	0.059030
C871	C87	0.117090	0.921370	0.783780
C881	C88	0.572430	0.074930	0.410740
C891	C89	0.705170	0.975940	0.513720
C901	C90	0.611270	0.830840	0.456370
C911	C91	0.298120	0.659630	0.685180
C921	C92	0.556970	0.521680	0.805490
C931	C93	0.462360	0.218570	0.593680
C941	C94	0.485330	0.830230	0.356890
C951	C95	0.548020	0.427600	0.807080
C961	C96	0.628790	0.426720	0.042500
C971	C97	0.701880	0.340370	0.314820
C981	C98	0.188840	0.823590	0.869260
C991	C99	0.173180	0.845480	0.796630
C1001	C100	0.144880	0.373630	0.577440
C1011	C101	0.195000	0.862050	0.490780
C1021	C102	0.188840	0.323590	0.630740
C1031	C103	0.443030	0.478320	0.194510
C1041	C104	0.350970	0.637060	0.562700
C1051	C105	0.202100	0.453640	0.986050
C1061	C106	0.056090	0.561170	0.124410
C1071	C107	0.343910	0.578580	0.700990
C1081	C108	0.515270	0.620150	0.138600
C1091	C109	0.462360	0.718570	0.906320
C1101	C110	0.294830	0.024060	0.486280
C1111	C111	0.548020	0.927600	0.692920
C1121	C112	0.144880	0.873630	0.922560
C1131	C113	0.214270	0.793300	0.737500
C1141	C114	0.507700	0.678040	0.409170
C1151	C115	0.556970	0.021680	0.694510
C1161	C116	0.882590	0.019700	0.440970
C1171	C117	0.214270	0.293300	0.762500
C1181	C118	0.537640	0.781430	0.406320
C1191	C119	0.117410	0.980300	0.559030
C1201	C120	0.106620	0.193780	0.006480
C1211	C121	0.514670	0.669770	0.856890
C1221	C122	0.888260	0.426950	0.079570
C1231	C123	0.111740	0.073050	0.579570
C1241	C124	0.371210	0.573280	0.957500
C1251	C125	0.699170	0.313560	0.386620
C1261	C126	0.705170	0.475940	0.986280
C1271	C127	0.606980	0.967410	0.147030
C1281	C128	0.430730	0.023370	0.591340
C1291	C129	0.430730	0.523370	0.908660
C1301	C130	0.656090	0.921420	0.200990
C1311	C131	0.611270	0.330840	0.043630
C1321	C132	0.746790	0.788360	0.243310
C1331	C133	0.893380	0.306220	0.506480
C1341	C134	0.969640	0.088400	0.417380
C1351	C135	0.649030	0.862940	0.062700
C1361	C136	0.507700	0.178040	0.090830
C1371	C137	0.805000	0.137950	0.509220
C1381	C138	0.117090	0.421370	0.716220
C1391	C139	0.056090	0.061170	0.375590
C1401	C140	0.569270	0.976630	0.408660
N11	N1	0.601110	0.439480	0.421720
N21	N2	0.086940	0.945300	0.909810
N31	N3	0.398890	0.060520	0.921720
N41	N4	0.601110	0.939480	0.078280
N51	N5	0.086940	0.445300	0.590190
N61	N6	0.913060	0.054700	0.090190
N71	N7	0.913060	0.554700	0.409810
N81	N8	0.398890	0.560520	0.578280
O11	O1	0.561590	0.359130	0.634410
O21	O2	0.272010	0.837970	0.444090
O31	O3	0.446790	0.866110	0.958170
O41	O4	0.727990	0.162030	0.555910
O51	O5	0.553210	0.633890	0.458170
O61	O6	0.333640	0.718430	0.004600
O71	O7	0.045910	0.634370	0.528800
O81	O8	0.165450	0.176150	0.059810
O91	O9	0.954090	0.365630	0.471200
O101	O10	0.954090	0.865630	0.028800
O111	O11	0.045910	0.134370	0.971200
O121	O12	0.666360	0.281570	0.995400
O131	O13	0.727990	0.662030	0.944090
O141	O14	0.446790	0.366110	0.541830
O151	O15	0.272010	0.337970	0.055910
O161	O16	0.666360	0.781570	0.504600
O171	O17	0.165450	0.676150	0.440190
O181	O18	0.834550	0.823850	0.940190
O191	O19	0.561590	0.859130	0.865590
O201	O20	0.333640	0.218430	0.495400
O211	O21	0.553210	0.133890	0.041830
O221	O22	0.438410	0.140870	0.134410
O231	O23	0.438410	0.640870	0.365590
O241	O24	0.834550	0.323850	0.559810
