data_MOXNUJ_clean_PM
_symmetry_space_group_name_H-M	'P1'
_cell_length_a	9.804000
_cell_length_b	16.838600
_cell_length_c	16.838600
_cell_angle_alpha	85.138400
_cell_angle_beta	73.075200
_cell_angle_gamma	73.075300
_symmetry_Int_Tables_number 1

loop_
_symmetry_equiv_pos_as_xyz
'x,y,z'

loop_
_atom_site_label
_atom_site_type_symbol
_atom_site_fract_x
_atom_site_fract_y
_atom_site_fract_z
Cu11	Cu1	0.000000	0.500000	0.500000
Cu21	Cu2	0.500000	0.000000	0.000000
Cu31	Cu3	0.500000	0.500000	0.000000
Cu41	Cu4	0.500000	0.000000	0.500000
H11	H1	0.275700	0.520800	0.385200
H21	H2	0.514200	0.446400	0.323400
H31	H3	0.406700	0.241300	0.421900
H41	H4	0.169600	0.322000	0.476200
H51	H5	0.698100	0.348900	0.236700
H61	H6	0.754600	0.361100	0.312100
H71	H7	0.681700	0.979200	0.114800
H81	H8	0.784000	0.053600	0.176600
H91	H9	0.569900	0.258700	0.078100
H101	H10	0.467800	0.178000	0.023800
H111	H11	0.783700	0.151100	0.263300
H121	H12	0.927800	0.138900	0.187900
H131	H13	0.660900	0.614800	0.020800
H141	H14	0.837600	0.676600	0.946400
H151	H15	0.828600	0.578100	0.741300
H161	H16	0.645800	0.523800	0.822000
H171	H17	0.934800	0.763300	0.848900
H181	H18	0.066700	0.687900	0.861100
H191	H19	0.796500	0.885200	0.479200
H201	H20	0.960600	0.823400	0.553600
H211	H21	0.648000	0.921900	0.758700
H221	H22	0.491600	0.976200	0.678000
H231	H23	0.047000	0.736700	0.651100
H241	H24	0.115700	0.812100	0.638900
H251	H25	0.724300	0.479200	0.614800
H261	H26	0.485800	0.553600	0.676600
H271	H27	0.593300	0.758700	0.578100
H281	H28	0.830400	0.678000	0.523800
H291	H29	0.301900	0.651100	0.763300
H301	H30	0.245400	0.638900	0.687900
H311	H31	0.318300	0.020800	0.885200
H321	H32	0.216000	0.946400	0.823400
H331	H33	0.430100	0.741300	0.921900
H341	H34	0.532200	0.822000	0.976200
H351	H35	0.216300	0.848900	0.736700
H361	H36	0.072200	0.861100	0.812100
H371	H37	0.339100	0.385200	0.979200
H381	H38	0.162400	0.323400	0.053600
H391	H39	0.171400	0.421900	0.258700
H401	H40	0.354200	0.476200	0.178000
H411	H41	0.065200	0.236700	0.151100
H421	H42	0.933300	0.312100	0.138900
H431	H43	0.203500	0.114800	0.520800
H441	H44	0.039400	0.176600	0.446400
H451	H45	0.352000	0.078100	0.241300
H461	H46	0.508400	0.023800	0.322000
H471	H47	0.953000	0.263300	0.348900
H481	H48	0.884300	0.187900	0.361100
C11	C1	0.303190	0.463650	0.392810
C21	C2	0.446280	0.419720	0.356000
C31	C3	0.487520	0.336080	0.367860
C41	C4	0.382460	0.298480	0.413640
C51	C5	0.241460	0.347480	0.446640
C61	C6	0.734160	0.320910	0.282470
C71	C7	0.659650	0.036350	0.107190
C81	C8	0.722000	0.080280	0.144000
C91	C9	0.691460	0.163920	0.132140
C101	C10	0.594580	0.201520	0.086360
C111	C11	0.535580	0.152520	0.053360
C121	C12	0.837540	0.179090	0.217530
C131	C13	0.696000	0.607190	0.963650
C141	C14	0.802280	0.644000	0.919720
C151	C15	0.855380	0.632140	0.836080
C161	C16	0.796100	0.586360	0.798480
C171	C17	0.688100	0.553360	0.847480
C181	C18	0.016630	0.717530	0.820910
C191	C19	0.766840	0.892810	0.536350
C201	C20	0.866000	0.856000	0.580280
C211	C21	0.823600	0.867860	0.663920
C221	C22	0.680940	0.913640	0.701520
C231	C23	0.588940	0.946640	0.652520
C241	C24	0.055070	0.782470	0.679090
C251	C25	0.696810	0.536350	0.607190
C261	C26	0.553720	0.580280	0.644000
C271	C27	0.512480	0.663920	0.632140
C281	C28	0.617540	0.701520	0.586360
C291	C29	0.758540	0.652520	0.553360
C301	C30	0.265840	0.679090	0.717530
C311	C31	0.340350	0.963650	0.892810
C321	C32	0.278000	0.919720	0.856000
C331	C33	0.308540	0.836080	0.867860
C341	C34	0.405420	0.798480	0.913640
C351	C35	0.464420	0.847480	0.946640
C361	C36	0.162460	0.820910	0.782470
C371	C37	0.304000	0.392810	0.036350
C381	C38	0.197720	0.356000	0.080280
C391	C39	0.144620	0.367860	0.163920
C401	C40	0.203900	0.413640	0.201520
C411	C41	0.311900	0.446640	0.152520
C421	C42	0.983370	0.282470	0.179090
C431	C43	0.233160	0.107190	0.463650
C441	C44	0.134000	0.144000	0.419720
C451	C45	0.176400	0.132140	0.336080
C461	C46	0.319060	0.086360	0.298480
C471	C47	0.411060	0.053360	0.347480
C481	C48	0.944930	0.217530	0.320910
C491	C49	0.875000	0.250000	0.250000
C501	C50	0.125000	0.750000	0.750000
N11	N1	0.202090	0.428600	0.438780
N21	N2	0.569470	0.071400	0.061220
N31	N3	0.640870	0.561220	0.928600
N41	N4	0.630690	0.938780	0.571400
N51	N5	0.797910	0.571400	0.561220
N61	N6	0.430530	0.928600	0.938780
N71	N7	0.359130	0.438780	0.071400
N81	N8	0.369310	0.061220	0.428600
O11	O1	0.625800	0.285090	0.337110
O21	O2	0.748000	0.214910	0.162890
O31	O3	0.962910	0.662890	0.785090
O41	O4	0.910890	0.837110	0.714910
O51	O5	0.374200	0.714910	0.662890
O61	O6	0.252000	0.785090	0.837110
O71	O7	0.037090	0.337110	0.214910
O81	O8	0.089110	0.162890	0.285090
