data_MOXNIY_clean_PM
_symmetry_space_group_name_H-M	'P1'
_cell_length_a	13.085000
_cell_length_b	14.106000
_cell_length_c	18.175000
_cell_angle_alpha	90.000000
_cell_angle_beta	90.000000
_cell_angle_gamma	90.000000
_symmetry_Int_Tables_number 1

loop_
_symmetry_equiv_pos_as_xyz
'x,y,z'

loop_
_atom_site_label
_atom_site_type_symbol
_atom_site_fract_x
_atom_site_fract_y
_atom_site_fract_z
Mn11	Mn1	0.240240	0.486190	0.420180
Mn21	Mn2	0.283060	0.510690	0.583290
O11	O1	0.725000	0.127540	0.415380
O21	O2	0.711500	0.149520	0.535580
O31	O3	0.427300	0.456700	0.546450
O41	O4	0.394890	0.452200	0.427860
C11	C1	0.708800	0.178500	0.470200
C21	C2	0.453300	0.441600	0.480900
C31	C3	0.744700	0.315400	0.390000
H11	H1	0.726000	0.277500	0.348300
H21	H2	0.816500	0.308400	0.399500
H31	H3	0.729700	0.380800	0.380000
C41	C4	0.684400	0.283200	0.456900
C51	C5	0.713400	0.344100	0.523000
H41	H4	0.708300	0.307500	0.568000
H51	H5	0.783000	0.367000	0.518100
C61	C6	0.638900	0.426500	0.524400
H61	H6	0.674400	0.485500	0.514600
H71	H7	0.606500	0.431000	0.572200
C71	C7	0.559200	0.408100	0.465300
H81	H8	0.582100	0.441200	0.420900
C81	C8	0.567100	0.300600	0.449200
C91	C9	0.524500	0.273600	0.373000
H91	H9	0.531500	0.206500	0.365700
H101	H10	0.561900	0.306800	0.335600
H111	H11	0.453600	0.290700	0.370300
C101	C10	0.505800	0.244600	0.505000
H121	H12	0.511800	0.178100	0.494500
H131	H13	0.435300	0.263000	0.502400
H141	H14	0.531500	0.257000	0.553500
O51	O5	0.097960	0.530800	0.460690
O61	O6	0.130540	0.562200	0.577450
O71	O7	0.785000	0.868420	0.581800
O81	O8	0.826300	0.859580	0.464270
C111	C11	0.072600	0.559800	0.522500
C121	C12	0.815400	0.824500	0.526900
C131	C13	0.917300	0.526400	0.593500
H151	H15	0.923600	0.461700	0.578000
H161	H16	0.846400	0.541400	0.600900
H171	H17	0.953800	0.535300	0.638800
C141	C14	0.962000	0.591900	0.534290
C151	C15	0.898100	0.585500	0.464400
H181	H18	0.940400	0.597500	0.421600
H191	H19	0.868500	0.522800	0.459800
C161	C16	0.815800	0.658400	0.469900
H201	H20	0.749800	0.628200	0.476300
H211	H21	0.813700	0.696600	0.425500
C171	C17	0.840700	0.719600	0.535700
H221	H22	0.799400	0.696000	0.576800
C181	C18	0.954300	0.699800	0.555600
C191	C19	0.976400	0.721100	0.634100
H231	H23	0.969800	0.788100	0.642500
H241	H24	0.044700	0.701500	0.645700
H251	H25	0.928800	0.687700	0.664800
C201	C20	0.026500	0.756400	0.507300
H261	H26	0.022300	0.822300	0.520200
H271	H27	0.007600	0.748300	0.456600
H281	H28	0.095100	0.734400	0.514500
O91	O9	0.196260	0.462900	0.312280
O101	O10	0.184810	0.466520	0.193400
C211	C21	0.234600	0.481300	0.250300
C221	C22	0.339200	0.521600	0.245800
H291	H29	0.357500	0.530500	0.195100
H301	H30	0.386800	0.478800	0.268500
H311	H31	0.341000	0.581500	0.270900
Mn31	Mn3	0.259760	0.513810	0.920180
Mn41	Mn4	0.216940	0.489310	0.083290
O111	O11	0.775000	0.872460	0.915380
O121	O12	0.788500	0.850480	0.035580
O131	O13	0.072700	0.543300	0.046450
O141	O14	0.105110	0.547800	0.927860
C231	C23	0.791200	0.821500	0.970200
C241	C24	0.046700	0.558400	0.980900
C251	C25	0.755300	0.684600	0.890000
H321	H32	0.774000	0.722500	0.848300
H331	H33	0.683500	0.691600	0.899500
H341	H34	0.770300	0.619200	0.880000
C261	C26	0.815600	0.716800	0.956900
C271	C27	0.786600	0.655900	0.023000
H351	H35	0.791700	0.692500	0.068000
H361	H36	0.717000	0.633000	0.018100
C281	C28	0.861100	0.573500	0.024400
H371	H37	0.825600	0.514500	0.014600
H381	H38	0.893500	0.569000	0.072200
C291	C29	0.940800	0.591900	0.965300
H391	H39	0.917900	0.558800	0.920900
C301	C30	0.932900	0.699400	0.949200
C311	C31	0.975500	0.726400	0.873000
H401	H40	0.968500	0.793500	0.865700
H411	H41	0.938100	0.693200	0.835600
H421	H42	0.046400	0.709300	0.870300
C321	C32	0.994200	0.755400	0.005000
H431	H43	0.988200	0.821900	0.994500
H441	H44	0.064700	0.737000	0.002400
H451	H45	0.968500	0.743000	0.053500
O151	O15	0.402040	0.469200	0.960690
O161	O16	0.369460	0.437800	0.077450
O171	O17	0.715000	0.131580	0.081800
O181	O18	0.673700	0.140420	0.964270
C331	C33	0.427400	0.440200	0.022500
C341	C34	0.684600	0.175500	0.026900
C351	C35	0.582700	0.473600	0.093500
H461	H46	0.576400	0.538300	0.078000
H471	H47	0.653600	0.458600	0.100900
H481	H48	0.546200	0.464700	0.138800
C361	C36	0.538000	0.408100	0.034290
C371	C37	0.601900	0.414500	0.964400
H491	H49	0.559600	0.402500	0.921600
H501	H50	0.631500	0.477200	0.959800
C381	C38	0.684200	0.341600	0.969900
H511	H51	0.750200	0.371800	0.976300
H521	H52	0.686300	0.303400	0.925500
C391	C39	0.659300	0.280400	0.035700
H531	H53	0.700600	0.304000	0.076800
C401	C40	0.545700	0.300200	0.055600
C411	C41	0.523600	0.278900	0.134100
H541	H54	0.530200	0.211900	0.142500
H551	H55	0.455300	0.298500	0.145700
H561	H56	0.571200	0.312300	0.164800
C421	C42	0.473500	0.243600	0.007300
H571	H57	0.477700	0.177700	0.020200
H581	H58	0.492400	0.251700	0.956600
H591	H59	0.404900	0.265600	0.014500
O191	O19	0.303740	0.537100	0.812280
O201	O20	0.315190	0.533480	0.693400
C431	C43	0.265400	0.518700	0.750300
C441	C44	0.160800	0.478400	0.745800
H601	H60	0.142500	0.469500	0.695100
H611	H61	0.113200	0.521200	0.768500
H621	H62	0.159000	0.418500	0.770900
Mn51	Mn5	0.759760	0.986190	0.079820
Mn61	Mn6	0.716940	0.010690	0.916710
O211	O21	0.275000	0.627540	0.084620
O221	O22	0.288500	0.649520	0.964420
O231	O23	0.572700	0.956700	0.953550
O241	O24	0.605110	0.952200	0.072140
C451	C45	0.291200	0.678500	0.029800
C461	C46	0.546700	0.941600	0.019100
C471	C47	0.255300	0.815400	0.110000
H631	H63	0.274000	0.777500	0.151700
H641	H64	0.183500	0.808400	0.100500
H651	H65	0.270300	0.880800	0.120000
C481	C48	0.315600	0.783200	0.043100
C491	C49	0.286600	0.844100	0.977000
H661	H66	0.291700	0.807500	0.932000
H671	H67	0.217000	0.867000	0.981900
C501	C50	0.361100	0.926500	0.975600
H681	H68	0.325600	0.985500	0.985400
H691	H69	0.393500	0.931000	0.927800
C511	C51	0.440800	0.908100	0.034700
H701	H70	0.417900	0.941200	0.079100
C521	C52	0.432900	0.800600	0.050800
C531	C53	0.475500	0.773600	0.127000
H711	H71	0.468500	0.706500	0.134300
H721	H72	0.438100	0.806800	0.164400
H731	H73	0.546400	0.790700	0.129700
C541	C54	0.494200	0.744600	0.995000
H741	H74	0.488200	0.678100	0.005500
H751	H75	0.564700	0.763000	0.997600
H761	H76	0.468500	0.757000	0.946500
O251	O25	0.902040	0.030800	0.039310
O261	O26	0.869460	0.062200	0.922550
O271	O27	0.215000	0.368420	0.918200
O281	O28	0.173700	0.359580	0.035730
C551	C55	0.927400	0.059800	0.977500
C561	C56	0.184600	0.324500	0.973100
C571	C57	0.082700	0.026400	0.906500
H771	H77	0.076400	0.961700	0.922000
H781	H78	0.153600	0.041400	0.899100
H791	H79	0.046200	0.035300	0.861200
C581	C58	0.038000	0.091900	0.965710
C591	C59	0.101900	0.085500	0.035600
H801	H80	0.059600	0.097500	0.078400
H811	H81	0.131500	0.022800	0.040200
C601	C60	0.184200	0.158400	0.030100
H821	H82	0.250200	0.128200	0.023700
H831	H83	0.186300	0.196600	0.074500
C611	C61	0.159300	0.219600	0.964300
H841	H84	0.200600	0.196000	0.923200
C621	C62	0.045700	0.199800	0.944400
C631	C63	0.023600	0.221100	0.865900
H851	H85	0.030200	0.288100	0.857500
H861	H86	0.955300	0.201500	0.854300
H871	H87	0.071200	0.187700	0.835200
C641	C64	0.973500	0.256400	0.992700
H881	H88	0.977700	0.322300	0.979800
H891	H89	0.992400	0.248300	0.043400
H901	H90	0.904900	0.234400	0.985500
O291	O29	0.803740	0.962900	0.187720
O301	O30	0.815190	0.966520	0.306600
C651	C65	0.765400	0.981300	0.249700
C661	C66	0.660800	0.021600	0.254200
H911	H91	0.642500	0.030500	0.304900
H921	H92	0.613200	0.978800	0.231500
H931	H93	0.659000	0.081500	0.229100
Mn71	Mn7	0.740240	0.013810	0.579820
Mn81	Mn8	0.783060	0.989310	0.416710
O311	O31	0.225000	0.372460	0.584620
O321	O32	0.211500	0.350480	0.464420
O331	O33	0.927300	0.043300	0.453550
O341	O34	0.894890	0.047800	0.572140
C671	C67	0.208800	0.321500	0.529800
C681	C68	0.953300	0.058400	0.519100
C691	C69	0.244700	0.184600	0.610000
H941	H94	0.226000	0.222500	0.651700
H951	H95	0.316500	0.191600	0.600500
H961	H96	0.229700	0.119200	0.620000
C701	C70	0.184400	0.216800	0.543100
C711	C71	0.213400	0.155900	0.477000
H971	H97	0.208300	0.192500	0.432000
H981	H98	0.283000	0.133000	0.481900
C721	C72	0.138900	0.073500	0.475600
H991	H99	0.174400	0.014500	0.485400
H1001	H100	0.106500	0.069000	0.427800
C731	C73	0.059200	0.091900	0.534700
H1011	H101	0.082100	0.058800	0.579100
C741	C74	0.067100	0.199400	0.550800
C751	C75	0.024500	0.226400	0.627000
H1021	H102	0.031500	0.293500	0.634300
H1031	H103	0.061900	0.193200	0.664400
H1041	H104	0.953600	0.209300	0.629700
C761	C76	0.005800	0.255400	0.495000
H1051	H105	0.011800	0.321900	0.505500
H1061	H106	0.935300	0.237000	0.497600
H1071	H107	0.031500	0.243000	0.446500
O351	O35	0.597960	0.969200	0.539310
O361	O36	0.630540	0.937800	0.422550
O371	O37	0.285000	0.631580	0.418200
O381	O38	0.326300	0.640420	0.535730
C771	C77	0.572600	0.940200	0.477500
C781	C78	0.315400	0.675500	0.473100
C791	C79	0.417300	0.973600	0.406500
H1081	H108	0.423600	0.038300	0.422000
H1091	H109	0.346400	0.958600	0.399100
H1101	H110	0.453800	0.964700	0.361200
C801	C80	0.462000	0.908100	0.465710
C811	C81	0.398100	0.914500	0.535600
H1111	H111	0.440400	0.902500	0.578400
H1121	H112	0.368500	0.977200	0.540200
C821	C82	0.315800	0.841600	0.530100
H1131	H113	0.249800	0.871800	0.523700
H1141	H114	0.313700	0.803400	0.574500
C831	C83	0.340700	0.780400	0.464300
H1151	H115	0.299400	0.804000	0.423200
C841	C84	0.454300	0.800200	0.444400
C851	C85	0.476400	0.778900	0.365900
H1161	H116	0.469800	0.711900	0.357500
H1171	H117	0.544700	0.798500	0.354300
H1181	H118	0.428800	0.812300	0.335200
C861	C86	0.526500	0.743600	0.492700
H1191	H119	0.522300	0.677700	0.479800
H1201	H120	0.507600	0.751700	0.543400
H1211	H121	0.595100	0.765600	0.485500
O391	O39	0.696260	0.037100	0.687720
O401	O40	0.684810	0.033480	0.806600
C871	C87	0.734600	0.018700	0.749700
C881	C88	0.839200	0.978400	0.754200
H1221	H122	0.857500	0.969500	0.804900
H1231	H123	0.886800	0.021200	0.731500
H1241	H124	0.841000	0.918500	0.729100
