data_MOXNUK_clean_PM
_symmetry_space_group_name_H-M	'P1'
_cell_length_a	13.395000
_cell_length_b	13.511900
_cell_length_c	17.620000
_cell_angle_alpha	90.000000
_cell_angle_beta	90.000000
_cell_angle_gamma	90.000000
_symmetry_Int_Tables_number 1

loop_
_symmetry_equiv_pos_as_xyz
'x,y,z'

loop_
_atom_site_label
_atom_site_type_symbol
_atom_site_fract_x
_atom_site_fract_y
_atom_site_fract_z
Co11	Co1	0.233660	0.489360	0.424490
O11	O1	0.126400	0.559300	0.589000
C11	C1	0.068400	0.557500	0.530300
Co21	Co2	0.269450	0.509040	0.583300
O21	O2	0.098200	0.531000	0.467200
C21	C2	0.804500	0.820100	0.518000
O31	O3	0.774800	0.864600	0.575600
C31	C3	0.919300	0.523100	0.607900
H11	H1	0.921100	0.453900	0.595400
H21	H2	0.851600	0.542800	0.617400
H31	H3	0.958800	0.534700	0.652500
O41	O4	0.811900	0.853300	0.451300
C41	C4	0.961600	0.583500	0.541600
C51	C5	0.900600	0.562700	0.471900
H41	H4	0.867900	0.498900	0.476700
H51	H5	0.943500	0.560900	0.427600
C61	C6	0.822300	0.644400	0.463000
H61	H6	0.832700	0.680400	0.416000
H71	H7	0.755600	0.616600	0.462700
C71	C7	0.836400	0.712000	0.530700
H81	H8	0.795300	0.685700	0.572000
C81	C8	0.947700	0.699600	0.554900
C91	C9	0.968100	0.736700	0.636500
H91	H9	0.038800	0.741200	0.644600
H101	H10	0.939700	0.691200	0.672300
H111	H11	0.938400	0.800800	0.643200
C101	C10	0.018500	0.755900	0.505200
H121	H12	0.085100	0.749500	0.524700
H131	H13	0.999800	0.824500	0.504400
H141	H14	0.015900	0.729800	0.454500
O51	O5	0.703800	0.152800	0.544500
O61	O6	0.717400	0.132700	0.420800
O71	O7	0.404500	0.459700	0.546600
O81	O8	0.379300	0.452500	0.421600
C111	C11	0.698100	0.186000	0.478100
C121	C12	0.431700	0.448000	0.478000
C131	C13	0.737800	0.333800	0.402800
H151	H15	0.805600	0.336800	0.420200
H161	H16	0.715500	0.399100	0.389600
H171	H17	0.733900	0.291700	0.359000
C141	C14	0.671500	0.292100	0.465800
C151	C15	0.684300	0.355600	0.538700
H181	H18	0.668300	0.316600	0.583300
H191	H19	0.752700	0.378500	0.543100
C161	C16	0.615300	0.440900	0.532200
H201	H20	0.652500	0.501200	0.522600
H211	H21	0.577800	0.449200	0.578900
C171	C17	0.543100	0.418700	0.464800
H221	H22	0.567300	0.455000	0.420300
C181	C18	0.557600	0.306200	0.449300
C191	C19	0.531000	0.283100	0.369500
H231	H23	0.465700	0.308700	0.358600
H241	H24	0.531200	0.212700	0.362300
H251	H25	0.578800	0.313000	0.336000
C201	C20	0.494700	0.242900	0.502600
H261	H26	0.425200	0.256900	0.494400
H271	H27	0.511900	0.257700	0.554200
H281	H28	0.507300	0.174100	0.492600
O91	O9	0.313400	0.522600	0.692700
O101	O10	0.309500	0.525000	0.816300
C211	C21	0.269000	0.503600	0.755000
C221	C22	0.169600	0.455100	0.753400
H291	H29	0.171100	0.396600	0.784200
H301	H30	0.153200	0.437500	0.702100
H311	H31	0.120200	0.499900	0.772700
Co31	Co3	0.266340	0.510640	0.924490
O111	O11	0.373600	0.440700	0.089000
C231	C23	0.431600	0.442500	0.030300
Co41	Co4	0.230550	0.490960	0.083300
O121	O12	0.401800	0.469000	0.967200
C241	C24	0.695500	0.179900	0.018000
O131	O13	0.725200	0.135400	0.075600
C251	C25	0.580700	0.476900	0.107900
H321	H32	0.578900	0.546100	0.095400
H331	H33	0.648400	0.457200	0.117400
H341	H34	0.541200	0.465300	0.152500
O141	O14	0.688100	0.146700	0.951300
C261	C26	0.538400	0.416500	0.041600
C271	C27	0.599400	0.437300	0.971900
H351	H35	0.632100	0.501100	0.976700
H361	H36	0.556500	0.439100	0.927600
C281	C28	0.677700	0.355600	0.963000
H371	H37	0.667300	0.319600	0.916000
H381	H38	0.744400	0.383400	0.962700
C291	C29	0.663600	0.288000	0.030700
H391	H39	0.704700	0.314300	0.072000
C301	C30	0.552300	0.300400	0.054900
C311	C31	0.531900	0.263300	0.136500
H401	H40	0.461200	0.258800	0.144600
H411	H41	0.560300	0.308800	0.172300
H421	H42	0.561600	0.199200	0.143200
C321	C32	0.481500	0.244100	0.005200
H431	H43	0.414900	0.250500	0.024700
H441	H44	0.500200	0.175500	0.004400
H451	H45	0.484100	0.270200	0.954500
O151	O15	0.796200	0.847200	0.044500
O161	O16	0.782600	0.867300	0.920800
O171	O17	0.095500	0.540300	0.046600
O181	O18	0.120700	0.547500	0.921600
C331	C33	0.801900	0.814000	0.978100
C341	C34	0.068300	0.552000	0.978000
C351	C35	0.762200	0.666200	0.902800
H461	H46	0.694400	0.663200	0.920200
H471	H47	0.784500	0.600900	0.889600
H481	H48	0.766100	0.708300	0.859000
C361	C36	0.828500	0.707900	0.965800
C371	C37	0.815700	0.644400	0.038700
H491	H49	0.831700	0.683400	0.083300
H501	H50	0.747300	0.621500	0.043100
C381	C38	0.884700	0.559100	0.032200
H511	H51	0.847500	0.498800	0.022600
H521	H52	0.922200	0.550800	0.078900
C391	C39	0.956900	0.581300	0.964800
H531	H53	0.932700	0.545000	0.920300
C401	C40	0.942400	0.693800	0.949300
C411	C41	0.969000	0.716900	0.869500
H541	H54	0.034300	0.691300	0.858600
H551	H55	0.968800	0.787300	0.862300
H561	H56	0.921200	0.687000	0.836000
C421	C42	0.005300	0.757100	0.002600
H571	H57	0.074800	0.743100	0.994400
H581	H58	0.988100	0.742300	0.054200
H591	H59	0.992700	0.825900	0.992600
O191	O19	0.186600	0.477400	0.192700
O201	O20	0.190500	0.475000	0.316300
C431	C43	0.231000	0.496400	0.255000
C441	C44	0.330400	0.544900	0.253400
H601	H60	0.328900	0.603400	0.284200
H611	H61	0.346800	0.562500	0.202100
H621	H62	0.379800	0.500100	0.272700
Co51	Co5	0.766340	0.989360	0.075510
O211	O21	0.873600	0.059300	0.911000
C451	C45	0.931600	0.057500	0.969700
Co61	Co6	0.730550	0.009040	0.916700
O221	O22	0.901800	0.031000	0.032800
C461	C46	0.195500	0.320100	0.982000
O231	O23	0.225200	0.364600	0.924400
C471	C47	0.080700	0.023100	0.892100
H631	H63	0.078900	0.953900	0.904600
H641	H64	0.148400	0.042800	0.882600
H651	H65	0.041200	0.034700	0.847500
O241	O24	0.188100	0.353300	0.048700
C481	C48	0.038400	0.083500	0.958400
C491	C49	0.099400	0.062700	0.028100
H661	H66	0.132100	0.998900	0.023300
H671	H67	0.056500	0.060900	0.072400
C501	C50	0.177700	0.144400	0.037000
H681	H68	0.167300	0.180400	0.084000
H691	H69	0.244400	0.116600	0.037300
C511	C51	0.163600	0.212000	0.969300
H701	H70	0.204700	0.185700	0.928000
C521	C52	0.052300	0.199600	0.945100
C531	C53	0.031900	0.236700	0.863500
H711	H71	0.961200	0.241200	0.855400
H721	H72	0.060300	0.191200	0.827700
H731	H73	0.061600	0.300800	0.856800
C541	C54	0.981500	0.255900	0.994800
H741	H74	0.914900	0.249500	0.975300
H751	H75	0.000200	0.324500	0.995600
H761	H76	0.984100	0.229800	0.045500
O251	O25	0.296200	0.652800	0.955500
O261	O26	0.282600	0.632700	0.079200
O271	O27	0.595500	0.959700	0.953400
O281	O28	0.620700	0.952500	0.078400
C551	C55	0.301900	0.686000	0.021900
C561	C56	0.568300	0.948000	0.022000
C571	C57	0.262200	0.833800	0.097200
H771	H77	0.194400	0.836800	0.079800
H781	H78	0.284500	0.899100	0.110400
H791	H79	0.266100	0.791700	0.141000
C581	C58	0.328500	0.792100	0.034200
C591	C59	0.315700	0.855600	0.961300
H801	H80	0.331700	0.816600	0.916700
H811	H81	0.247300	0.878500	0.956900
C601	C60	0.384700	0.940900	0.967800
H821	H82	0.347500	0.001200	0.977400
H831	H83	0.422200	0.949200	0.921100
C611	C61	0.456900	0.918700	0.035200
H841	H84	0.432700	0.955000	0.079700
C621	C62	0.442400	0.806200	0.050700
C631	C63	0.469000	0.783100	0.130500
H851	H85	0.534300	0.808700	0.141400
H861	H86	0.468800	0.712700	0.137700
H871	H87	0.421200	0.813000	0.164000
C641	C64	0.505300	0.742900	0.997400
H881	H88	0.574800	0.756900	0.005600
H891	H89	0.488100	0.757700	0.945800
H901	H90	0.492700	0.674100	0.007400
O291	O29	0.686600	0.022600	0.807300
O301	O30	0.690500	0.025000	0.683700
C651	C65	0.731000	0.003600	0.745000
C661	C66	0.830400	0.955100	0.746600
H911	H91	0.828900	0.896600	0.715800
H921	H92	0.846800	0.937500	0.797900
H931	H93	0.879800	0.999900	0.727300
Co71	Co7	0.733660	0.010640	0.575510
O311	O31	0.626400	0.940700	0.411000
C671	C67	0.568400	0.942500	0.469700
Co81	Co8	0.769450	0.990960	0.416700
O321	O32	0.598200	0.969000	0.532800
C681	C68	0.304500	0.679900	0.482000
O331	O33	0.274800	0.635400	0.424400
C691	C69	0.419300	0.976900	0.392100
H941	H94	0.421100	0.046100	0.404600
H951	H95	0.351600	0.957200	0.382600
H961	H96	0.458800	0.965300	0.347500
O341	O34	0.311900	0.646700	0.548700
C701	C70	0.461600	0.916500	0.458400
C711	C71	0.400600	0.937300	0.528100
H971	H97	0.367900	0.001100	0.523300
H981	H98	0.443500	0.939100	0.572400
C721	C72	0.322300	0.855600	0.537000
H991	H99	0.332700	0.819600	0.584000
H1001	H100	0.255600	0.883400	0.537300
C731	C73	0.336400	0.788000	0.469300
H1011	H101	0.295300	0.814300	0.428000
C741	C74	0.447700	0.800400	0.445100
C751	C75	0.468100	0.763300	0.363500
H1021	H102	0.538800	0.758800	0.355400
H1031	H103	0.439700	0.808800	0.327700
H1041	H104	0.438400	0.699200	0.356800
C761	C76	0.518500	0.744100	0.494800
H1051	H105	0.585100	0.750500	0.475300
H1061	H106	0.499800	0.675500	0.495600
H1071	H107	0.515900	0.770200	0.545500
O351	O35	0.203800	0.347200	0.455500
O361	O36	0.217400	0.367300	0.579200
O371	O37	0.904500	0.040300	0.453400
O381	O38	0.879300	0.047500	0.578400
C771	C77	0.198100	0.314000	0.521900
C781	C78	0.931700	0.052000	0.522000
C791	C79	0.237800	0.166200	0.597200
H1081	H108	0.305600	0.163200	0.579800
H1091	H109	0.215500	0.100900	0.610400
H1101	H110	0.233900	0.208300	0.641000
C801	C80	0.171500	0.207900	0.534200
C811	C81	0.184300	0.144400	0.461300
H1111	H111	0.168300	0.183400	0.416700
H1121	H112	0.252700	0.121500	0.456900
C821	C82	0.115300	0.059100	0.467800
H1131	H113	0.152500	0.998800	0.477400
H1141	H114	0.077800	0.050800	0.421100
C831	C83	0.043100	0.081300	0.535200
H1151	H115	0.067300	0.045000	0.579700
C841	C84	0.057600	0.193800	0.550700
C851	C85	0.031000	0.216900	0.630500
H1161	H116	0.965700	0.191300	0.641400
H1171	H117	0.031200	0.287300	0.637700
H1181	H118	0.078800	0.187000	0.664000
C861	C86	0.994700	0.257100	0.497400
H1191	H119	0.925200	0.243100	0.505600
H1201	H120	0.011900	0.242300	0.445800
H1211	H121	0.007300	0.325900	0.507400
O391	O39	0.813400	0.977400	0.307300
O401	O40	0.809500	0.975000	0.183700
C871	C87	0.769000	0.996400	0.245000
C881	C88	0.669600	0.044900	0.246600
H1221	H122	0.671100	0.103400	0.215800
H1231	H123	0.653200	0.062500	0.297900
H1241	H124	0.620200	0.000100	0.227300
