data_MOXPOF_charged_PM
_symmetry_space_group_name_H-M	'P1'
_cell_length_a	13.223500
_cell_length_b	15.214100
_cell_length_c	15.214100
_cell_angle_alpha	90.000000
_cell_angle_beta	90.000000
_cell_angle_gamma	90.000000
_symmetry_Int_Tables_number 1

loop_
_symmetry_equiv_pos_as_xyz
'x,y,z'

loop_
_atom_site_label
_atom_site_type_symbol
_atom_site_fract_x
_atom_site_fract_y
_atom_site_fract_z
Cu11	Cu1	0.000000	0.750000	0.250000
H11	H1	0.028500	0.692800	0.065400
H21	H2	0.963800	0.595400	0.964900
H31	H3	0.735700	0.548200	0.133100
H41	H4	0.806000	0.647100	0.227800
H51	H5	0.838000	0.559600	0.862000
H61	H6	0.749200	0.472200	0.764100
H71	H7	0.654800	0.320200	0.966600
H81	H8	0.741000	0.410800	0.063200
H91	H9	0.601900	0.230300	0.852100
H101	H10	0.522700	0.306100	0.873000
H111	H11	0.028500	0.807200	0.434600
H121	H12	0.963800	0.904600	0.535100
H131	H13	0.735700	0.951800	0.366900
H141	H14	0.806000	0.852900	0.272200
H151	H15	0.838000	0.940400	0.638000
H161	H16	0.749200	0.027800	0.735900
H171	H17	0.654800	0.179800	0.533400
H181	H18	0.741000	0.089200	0.436800
H191	H19	0.601900	0.269700	0.647900
H201	H20	0.522700	0.193900	0.627000
H211	H21	0.971500	0.565400	0.307200
H221	H22	0.036200	0.464900	0.404600
H231	H23	0.264300	0.633100	0.451800
H241	H24	0.194000	0.727800	0.352900
H251	H25	0.162000	0.362000	0.440400
H261	H26	0.250800	0.264100	0.527800
H271	H27	0.345200	0.466600	0.679800
H281	H28	0.259000	0.563200	0.589200
H291	H29	0.398100	0.352100	0.769700
H301	H30	0.477300	0.373000	0.693900
H311	H31	0.971500	0.934600	0.192800
H321	H32	0.036200	0.035100	0.095400
H331	H33	0.264300	0.866900	0.048200
H341	H34	0.194000	0.772200	0.147100
H351	H35	0.162000	0.138000	0.059600
H361	H36	0.250800	0.235900	0.972200
H371	H37	0.345200	0.033400	0.820200
H381	H38	0.259000	0.936800	0.910800
H391	H39	0.398100	0.147900	0.730300
H401	H40	0.477300	0.127000	0.806100
C11	C1	0.968400	0.662900	0.079300
C21	C2	0.930000	0.604400	0.018500
C31	C3	0.841600	0.559000	0.036600
C41	C4	0.796000	0.576900	0.117500
C51	C5	0.838700	0.636100	0.174100
C61	C6	0.795400	0.496800	0.973500
C71	C7	0.799100	0.512500	0.883400
C81	C8	0.746600	0.460300	0.824700
C91	C9	0.689700	0.389700	0.856000
C101	C10	0.689800	0.369800	0.945500
C111	C11	0.741800	0.423800	0.002800
C121	C12	0.565300	0.280300	0.827000
C131	C13	0.968400	0.837100	0.420700
C141	C14	0.930000	0.895600	0.481500
C151	C15	0.841600	0.941000	0.463400
C161	C16	0.796000	0.923100	0.382500
C171	C17	0.838700	0.863900	0.325900
C181	C18	0.795400	0.003200	0.526500
C191	C19	0.799100	0.987500	0.616600
C201	C20	0.746600	0.039700	0.675300
C211	C21	0.689700	0.110300	0.644000
C221	C22	0.689800	0.130200	0.554500
C231	C23	0.741800	0.076200	0.497200
C241	C24	0.565300	0.219700	0.673000
C251	C25	0.031600	0.579300	0.337100
C261	C26	0.070000	0.518500	0.395600
C271	C27	0.158400	0.536600	0.441000
C281	C28	0.204000	0.617500	0.423100
C291	C29	0.161300	0.674100	0.363900
C301	C30	0.204600	0.473500	0.503200
C311	C31	0.200900	0.383400	0.487500
C321	C32	0.253400	0.324700	0.539700
C331	C33	0.310300	0.356000	0.610300
C341	C34	0.310200	0.445500	0.630200
C351	C35	0.258200	0.502800	0.576200
C361	C36	0.434700	0.327000	0.719700
C371	C37	0.031600	0.920700	0.162900
C381	C38	0.070000	0.981500	0.104400
C391	C39	0.158400	0.963400	0.059000
C401	C40	0.204000	0.882500	0.076900
C411	C41	0.161300	0.825900	0.136100
C421	C42	0.204600	0.026500	0.996800
C431	C43	0.200900	0.116600	0.012500
C441	C44	0.253400	0.175300	0.960300
C451	C45	0.310300	0.144000	0.889700
C461	C46	0.310200	0.054500	0.869800
C471	C47	0.258200	0.997200	0.923800
C481	C48	0.434700	0.173000	0.780300
C491	C49	0.500000	0.250000	0.750000
N11	N1	0.925100	0.679400	0.156800
N21	N2	0.925100	0.820600	0.343200
N31	N3	0.074900	0.656800	0.320600
N41	N4	0.074900	0.843200	0.179400
O11	O1	0.635300	0.344500	0.794800
O21	O2	0.635300	0.155500	0.705200
O31	O3	0.364700	0.294800	0.655500
O41	O4	0.364700	0.205200	0.844500
Cu21	Cu2	0.000000	0.250000	0.750000
H411	H41	0.028500	0.434600	0.692800
H421	H42	0.963800	0.535100	0.595400
H431	H43	0.735700	0.366900	0.548200
H441	H44	0.806000	0.272200	0.647100
H451	H45	0.838000	0.638000	0.559600
H461	H46	0.749200	0.735900	0.472200
H471	H47	0.654800	0.533400	0.320200
H481	H48	0.741000	0.436800	0.410800
H491	H49	0.601900	0.647900	0.230300
H501	H50	0.522700	0.627000	0.306100
H511	H51	0.028500	0.065400	0.807200
H521	H52	0.963800	0.964900	0.904600
H531	H53	0.735700	0.133100	0.951800
H541	H54	0.806000	0.227800	0.852900
H551	H55	0.838000	0.862000	0.940400
H561	H56	0.749200	0.764100	0.027800
H571	H57	0.654800	0.966600	0.179800
H581	H58	0.741000	0.063200	0.089200
H591	H59	0.601900	0.852100	0.269700
H601	H60	0.522700	0.873000	0.193900
H611	H61	0.971500	0.307200	0.934600
H621	H62	0.036200	0.404600	0.035100
H631	H63	0.264300	0.451800	0.866900
H641	H64	0.194000	0.352900	0.772200
H651	H65	0.162000	0.440400	0.138000
H661	H66	0.250800	0.527800	0.235900
H671	H67	0.345200	0.679800	0.033400
H681	H68	0.259000	0.589200	0.936800
H691	H69	0.398100	0.769700	0.147900
H701	H70	0.477300	0.693900	0.127000
H711	H71	0.971500	0.192800	0.565400
H721	H72	0.036200	0.095400	0.464900
H731	H73	0.264300	0.048200	0.633100
H741	H74	0.194000	0.147100	0.727800
H751	H75	0.162000	0.059600	0.362000
H761	H76	0.250800	0.972200	0.264100
H771	H77	0.345200	0.820200	0.466600
H781	H78	0.259000	0.910800	0.563200
H791	H79	0.398100	0.730300	0.352100
H801	H80	0.477300	0.806100	0.373000
C501	C50	0.968400	0.420700	0.662900
C511	C51	0.930000	0.481500	0.604400
C521	C52	0.841600	0.463400	0.559000
C531	C53	0.796000	0.382500	0.576900
C541	C54	0.838700	0.325900	0.636100
C551	C55	0.795400	0.526500	0.496800
C561	C56	0.799100	0.616600	0.512500
C571	C57	0.746600	0.675300	0.460300
C581	C58	0.689700	0.644000	0.389700
C591	C59	0.689800	0.554500	0.369800
C601	C60	0.741800	0.497200	0.423800
C611	C61	0.565300	0.673000	0.280300
C621	C62	0.968400	0.079300	0.837100
C631	C63	0.930000	0.018500	0.895600
C641	C64	0.841600	0.036600	0.941000
C651	C65	0.796000	0.117500	0.923100
C661	C66	0.838700	0.174100	0.863900
C671	C67	0.795400	0.973500	0.003200
C681	C68	0.799100	0.883400	0.987500
C691	C69	0.746600	0.824700	0.039700
C701	C70	0.689700	0.856000	0.110300
C711	C71	0.689800	0.945500	0.130200
C721	C72	0.741800	0.002800	0.076200
C731	C73	0.565300	0.827000	0.219700
C741	C74	0.031600	0.337100	0.920700
C751	C75	0.070000	0.395600	0.981500
C761	C76	0.158400	0.441000	0.963400
C771	C77	0.204000	0.423100	0.882500
C781	C78	0.161300	0.363900	0.825900
C791	C79	0.204600	0.503200	0.026500
C801	C80	0.200900	0.487500	0.116600
C811	C81	0.253400	0.539700	0.175300
C821	C82	0.310300	0.610300	0.144000
C831	C83	0.310200	0.630200	0.054500
C841	C84	0.258200	0.576200	0.997200
C851	C85	0.434700	0.719700	0.173000
C861	C86	0.031600	0.162900	0.579300
C871	C87	0.070000	0.104400	0.518500
C881	C88	0.158400	0.059000	0.536600
C891	C89	0.204000	0.076900	0.617500
C901	C90	0.161300	0.136100	0.674100
C911	C91	0.204600	0.996800	0.473500
C921	C92	0.200900	0.012500	0.383400
C931	C93	0.253400	0.960300	0.324700
C941	C94	0.310300	0.889700	0.356000
C951	C95	0.310200	0.869800	0.445500
C961	C96	0.258200	0.923800	0.502800
C971	C97	0.434700	0.780300	0.327000
C981	C98	0.500000	0.750000	0.250000
N51	N5	0.925100	0.343200	0.679400
N61	N6	0.925100	0.156800	0.820600
N71	N7	0.074900	0.320600	0.843200
N81	N8	0.074900	0.179400	0.656800
O51	O5	0.635300	0.705200	0.344500
O61	O6	0.635300	0.794800	0.155500
O71	O7	0.364700	0.655500	0.205200
O81	O8	0.364700	0.844500	0.294800
B11	B1	0.759000	0.750000	0.750000
F11	F1	0.795000	0.822000	0.782000
F21	F2	0.795000	0.678000	0.718000
F31	F3	0.795000	0.718000	0.822000
F41	F4	0.795000	0.782000	0.678000
B21	B2	0.241000	0.250000	0.250000
F51	F5	0.205000	0.178000	0.218000
F61	F6	0.205000	0.322000	0.282000
F71	F7	0.205000	0.282000	0.178000
F81	F8	0.205000	0.218000	0.322000
