data_MOXPEV_charged_PM
_symmetry_space_group_name_H-M	'P1'
_cell_length_a	14.183800
_cell_length_b	14.183800
_cell_length_c	21.640000
_cell_angle_alpha	93.552700
_cell_angle_beta	93.552700
_cell_angle_gamma	119.588000
_symmetry_Int_Tables_number 1

loop_
_symmetry_equiv_pos_as_xyz
'x,y,z'

loop_
_atom_site_label
_atom_site_type_symbol
_atom_site_fract_x
_atom_site_fract_y
_atom_site_fract_z
Cu11	Cu1	0.232870	0.985210	0.429600
Cu21	Cu2	0.014790	0.767130	0.070400
Cu31	Cu3	0.767130	0.014790	0.570400
Cu41	Cu4	0.985210	0.232870	0.929600
H11	H1	0.512300	0.883300	0.208200
H21	H2	0.401700	0.769900	0.194100
H31	H3	0.405400	0.832800	0.288500
H41	H4	0.349800	0.867600	0.377900
H51	H5	0.224800	0.025800	0.298900
H61	H6	0.275800	0.992000	0.202200
H71	H7	0.531700	0.747100	0.064200
H81	H8	0.509900	0.714700	0.133100
H91	H9	0.841100	0.988300	0.134200
H101	H10	0.978400	0.958600	0.106000
H111	H11	0.772100	0.644100	0.067200
H121	H12	0.633900	0.672900	0.097000
H131	H13	0.592700	0.992100	0.118200
H141	H14	0.478500	0.975500	0.089700
H151	H15	0.697800	0.116200	0.078800
H161	H16	0.864400	0.225400	0.043100
H171	H17	0.800200	0.011000	0.902700
H181	H18	0.637300	0.893700	0.935500
H191	H19	0.373000	0.755800	0.029000
H201	H20	0.313100	0.791700	0.077100
H211	H21	0.224100	0.462500	0.118700
H221	H22	0.086900	0.314300	0.063200
H231	H23	0.077800	0.478400	0.927200
H241	H24	0.206800	0.634000	0.984600
H251	H25	0.116700	0.487700	0.291800
H261	H26	0.230100	0.598300	0.305900
H271	H27	0.167200	0.594600	0.211500
H281	H28	0.132400	0.650200	0.122100
H291	H29	0.974200	0.775200	0.201100
H301	H30	0.008000	0.724200	0.297800
H311	H31	0.252900	0.468300	0.435800
H321	H32	0.285300	0.490100	0.366900
H331	H33	0.011700	0.158900	0.365800
H341	H34	0.041400	0.021600	0.394000
H351	H35	0.355900	0.227900	0.432800
H361	H36	0.327100	0.366100	0.403000
H371	H37	0.007900	0.407300	0.381800
H381	H38	0.024500	0.521500	0.410300
H391	H39	0.883800	0.302200	0.421200
H401	H40	0.774600	0.135600	0.456900
H411	H41	0.989000	0.199800	0.597300
H421	H42	0.106300	0.362700	0.564500
H431	H43	0.244200	0.627000	0.471000
H441	H44	0.208300	0.686900	0.422900
H451	H45	0.537500	0.775900	0.381300
H461	H46	0.685700	0.913100	0.436800
H471	H47	0.521600	0.922200	0.572800
H481	H48	0.366000	0.793200	0.515400
H491	H49	0.487700	0.116700	0.791800
H501	H50	0.598300	0.230100	0.805900
H511	H51	0.594600	0.167200	0.711500
H521	H52	0.650200	0.132400	0.622100
H531	H53	0.775200	0.974200	0.701100
H541	H54	0.724200	0.008000	0.797800
H551	H55	0.468300	0.252900	0.935800
H561	H56	0.490100	0.285300	0.866900
H571	H57	0.158900	0.011700	0.865800
H581	H58	0.021600	0.041400	0.894000
H591	H59	0.227900	0.355900	0.932800
H601	H60	0.366100	0.327100	0.903000
H611	H61	0.407300	0.007900	0.881800
H621	H62	0.521500	0.024500	0.910300
H631	H63	0.302200	0.883800	0.921200
H641	H64	0.135600	0.774600	0.956900
H651	H65	0.199800	0.989000	0.097300
H661	H66	0.362700	0.106300	0.064500
H671	H67	0.627000	0.244200	0.971000
H681	H68	0.686900	0.208300	0.922900
H691	H69	0.775900	0.537500	0.881300
H701	H70	0.913100	0.685700	0.936800
H711	H71	0.922200	0.521600	0.072800
H721	H72	0.793200	0.366000	0.015400
H731	H73	0.883300	0.512300	0.708200
H741	H74	0.769900	0.401700	0.694100
H751	H75	0.832800	0.405400	0.788500
H761	H76	0.867600	0.349800	0.877900
H771	H77	0.025800	0.224800	0.798900
H781	H78	0.992000	0.275800	0.702200
H791	H79	0.747100	0.531700	0.564200
H801	H80	0.714700	0.509900	0.633100
H811	H81	0.988300	0.841100	0.634200
H821	H82	0.958600	0.978400	0.606000
H831	H83	0.644100	0.772100	0.567200
H841	H84	0.672900	0.633900	0.597000
H851	H85	0.992100	0.592700	0.618200
H861	H86	0.975500	0.478500	0.589700
H871	H87	0.116200	0.697800	0.578800
H881	H88	0.225400	0.864400	0.543100
H891	H89	0.011000	0.800200	0.402700
H901	H90	0.893700	0.637300	0.435500
H911	H91	0.755800	0.373000	0.529000
H921	H92	0.791700	0.313100	0.577100
H931	H93	0.462500	0.224100	0.618700
H941	H94	0.314300	0.086900	0.563200
H951	H95	0.478400	0.077800	0.427200
H961	H96	0.634000	0.206800	0.484600
C11	C1	0.469320	0.833020	0.112160
C21	C2	0.444170	0.842710	0.180510
C31	C3	0.349460	0.914840	0.238440
C41	C4	0.368900	0.873000	0.289860
C51	C5	0.333530	0.892290	0.341590
C61	C6	0.259830	0.984470	0.295910
C71	C7	0.292530	0.967790	0.238510
C81	C8	0.536790	0.775590	0.107420
C91	C9	0.722100	0.831580	0.114830
C101	C10	0.825780	0.917720	0.120020
C111	C11	0.907700	0.898060	0.103890
C121	C12	0.788320	0.715020	0.081400
C131	C13	0.704670	0.732790	0.097920
C141	C14	0.525900	0.943520	0.090720
C151	C15	0.648560	0.994280	0.009490
C161	C16	0.717090	0.092910	0.042520
C171	C17	0.816960	0.157520	0.020210
C181	C18	0.780450	0.033130	0.939200
C191	C19	0.681840	0.962760	0.957750
C201	C20	0.361590	0.761370	0.072930
C211	C21	0.233070	0.569470	0.057810
C221	C22	0.194350	0.468690	0.080180
C231	C23	0.114490	0.381090	0.046070
C241	C24	0.106060	0.474720	0.966790
C251	C25	0.184570	0.567270	0.001080
C261	C26	0.166980	0.530680	0.387840
C271	C27	0.157290	0.555830	0.319490
C281	C28	0.085160	0.650540	0.261560
C291	C29	0.127000	0.631100	0.210140
C301	C30	0.107710	0.666470	0.158410
C311	C31	0.015530	0.740170	0.204090
C321	C32	0.032210	0.707470	0.261490
C331	C33	0.224410	0.463210	0.392580
C341	C34	0.168420	0.277900	0.385170
C351	C35	0.082280	0.174220	0.379980
C361	C36	0.101940	0.092300	0.396110
C371	C37	0.284980	0.211680	0.418600
C381	C38	0.267210	0.295330	0.402080
C391	C39	0.056480	0.474100	0.409280
C401	C40	0.005720	0.351440	0.490510
C411	C41	0.907090	0.282910	0.457480
C421	C42	0.842480	0.183040	0.479790
C431	C43	0.966870	0.219550	0.560800
C441	C44	0.037240	0.318160	0.542250
C451	C45	0.238630	0.638410	0.427070
C461	C46	0.430530	0.766930	0.442190
C471	C47	0.531310	0.805650	0.419820
C481	C48	0.618910	0.885510	0.453930
C491	C49	0.525280	0.893940	0.533210
C501	C50	0.432730	0.815430	0.498920
C511	C51	0.530680	0.166980	0.887840
C521	C52	0.555830	0.157290	0.819490
C531	C53	0.650540	0.085160	0.761560
C541	C54	0.631100	0.127000	0.710140
C551	C55	0.666470	0.107710	0.658410
C561	C56	0.740170	0.015530	0.704090
C571	C57	0.707470	0.032210	0.761490
C581	C58	0.463210	0.224410	0.892580
C591	C59	0.277900	0.168420	0.885170
C601	C60	0.174220	0.082280	0.879980
C611	C61	0.092300	0.101940	0.896110
C621	C62	0.211680	0.284980	0.918600
C631	C63	0.295330	0.267210	0.902080
C641	C64	0.474100	0.056480	0.909280
C651	C65	0.351440	0.005720	0.990510
C661	C66	0.282910	0.907090	0.957480
C671	C67	0.183040	0.842480	0.979790
C681	C68	0.219550	0.966870	0.060800
C691	C69	0.318160	0.037240	0.042250
C701	C70	0.638410	0.238630	0.927070
C711	C71	0.766930	0.430530	0.942190
C721	C72	0.805650	0.531310	0.919820
C731	C73	0.885510	0.618910	0.953930
C741	C74	0.893940	0.525280	0.033210
C751	C75	0.815430	0.432730	0.998920
C761	C76	0.833020	0.469320	0.612160
C771	C77	0.842710	0.444170	0.680510
C781	C78	0.914840	0.349460	0.738440
C791	C79	0.873000	0.368900	0.789860
C801	C80	0.892290	0.333530	0.841590
C811	C81	0.984470	0.259830	0.795910
C821	C82	0.967790	0.292530	0.738510
C831	C83	0.775590	0.536790	0.607420
C841	C84	0.831580	0.722100	0.614830
C851	C85	0.917720	0.825780	0.620020
C861	C86	0.898060	0.907700	0.603890
C871	C87	0.715020	0.788320	0.581400
C881	C88	0.732790	0.704670	0.597920
C891	C89	0.943520	0.525900	0.590720
C901	C90	0.994280	0.648560	0.509490
C911	C91	0.092910	0.717090	0.542520
C921	C92	0.157520	0.816960	0.520210
C931	C93	0.033130	0.780450	0.439200
C941	C94	0.962760	0.681840	0.457750
C951	C95	0.761370	0.361590	0.572930
C961	C96	0.569470	0.233070	0.557810
C971	C97	0.468690	0.194350	0.580180
C981	C98	0.381090	0.114490	0.546070
C991	C99	0.474720	0.106060	0.466790
C1001	C100	0.567270	0.184570	0.501080
N11	N1	0.276870	0.943570	0.346540
N21	N2	0.895260	0.800200	0.085540
N31	N3	0.851640	0.131640	0.968880
N41	N4	0.069630	0.379850	0.989070
N51	N5	0.056430	0.723130	0.153460
N61	N6	0.199800	0.104740	0.414460
N71	N7	0.868360	0.148360	0.531120
N81	N8	0.620150	0.930370	0.510930
N91	N9	0.723130	0.056430	0.653460
N101	N10	0.104740	0.199800	0.914460
N111	N11	0.148360	0.868360	0.031120
N121	N12	0.930370	0.620150	0.010930
N131	N13	0.943570	0.276870	0.846540
N141	N14	0.800200	0.895260	0.585540
N151	N15	0.131640	0.851640	0.468880
N161	N16	0.379850	0.069630	0.489070
O11	O1	0.384110	0.898190	0.182970
O21	O2	0.649530	0.856930	0.129610
O31	O3	0.551140	0.925840	0.028310
O41	O4	0.315250	0.656550	0.095520
O51	O5	0.101810	0.615890	0.317030
O61	O6	0.143070	0.350470	0.370390
O71	O7	0.074160	0.448860	0.471690
O81	O8	0.343450	0.684750	0.404480
O91	O9	0.615890	0.101810	0.817030
O101	O10	0.350470	0.143070	0.870390
O111	O11	0.448860	0.074160	0.971690
O121	O12	0.684750	0.343450	0.904480
O131	O13	0.898190	0.384110	0.682970
O141	O14	0.856930	0.649530	0.629610
O151	O15	0.925840	0.551140	0.528310
O161	O16	0.656550	0.315250	0.595520
B11	B1	0.723390	0.111410	0.306900
F11	F1	0.808740	0.208300	0.307690
F21	F2	0.659660	0.114400	0.347160
F31	F3	0.670510	0.080070	0.251230
F41	F4	0.754270	0.041890	0.321250
B21	B2	0.888590	0.276610	0.193100
F51	F5	0.791700	0.191260	0.192310
F61	F6	0.885600	0.340340	0.152840
F71	F7	0.919930	0.329490	0.248770
F81	F8	0.958110	0.245730	0.178750
B31	B3	0.276610	0.888590	0.693100
F91	F9	0.191260	0.791700	0.692310
F101	F10	0.340340	0.885600	0.652840
F111	F11	0.329490	0.919930	0.748770
F121	F12	0.245730	0.958110	0.678750
B41	B4	0.111410	0.723390	0.806900
F131	F13	0.208300	0.808740	0.807690
F141	F14	0.114400	0.659660	0.847160
F151	F15	0.080070	0.670510	0.751230
F161	F16	0.041890	0.754270	0.821250
B51	B5	0.427870	0.572130	0.250000
F171	F17	0.486780	0.567480	0.203900
F181	F18	0.468300	0.676400	0.272690
F191	F19	0.432520	0.513220	0.296100
F201	F20	0.323600	0.531700	0.227310
B61	B6	0.572130	0.427870	0.750000
F211	F21	0.513220	0.432520	0.796100
F221	F22	0.531700	0.323600	0.727310
F231	F23	0.567480	0.486780	0.703900
F241	F24	0.676400	0.468300	0.772690
