data_MOYMET_clean_PM
_symmetry_space_group_name_H-M	'P1'
_cell_length_a	8.057600
_cell_length_b	22.113800
_cell_length_c	22.113800
_cell_angle_alpha	90.000000
_cell_angle_beta	90.000000
_cell_angle_gamma	90.000000
_symmetry_Int_Tables_number 1

loop_
_symmetry_equiv_pos_as_xyz
'x,y,z'

loop_
_atom_site_label
_atom_site_type_symbol
_atom_site_fract_x
_atom_site_fract_y
_atom_site_fract_z
Co11	Co1	0.242330	0.744800	0.244640
Co21	Co2	0.242330	0.255200	0.755370
Co31	Co3	0.757670	0.244640	0.255200
Co41	Co4	0.757670	0.755370	0.744800
Co51	Co5	0.257670	0.755200	0.744630
Co61	Co6	0.257670	0.244800	0.255370
Co71	Co7	0.742330	0.255370	0.755200
Co81	Co8	0.742330	0.744630	0.244800
H11	H1	0.992200	0.815500	0.222600
H21	H2	0.992200	0.765800	0.173600
H31	H3	0.362000	0.743600	0.494400
H41	H4	0.000400	0.831000	0.585000
H51	H5	0.989200	0.823200	0.403600
H61	H6	0.665200	0.792200	0.487400
H71	H7	0.563000	0.849900	0.469600
H81	H8	0.691600	0.822500	0.424000
H91	H9	0.723700	0.947500	0.451100
H101	H10	0.912300	0.950400	0.468300
H111	H11	0.854800	0.912300	0.412400
H121	H12	0.738300	0.857600	0.581400
H131	H13	0.835000	0.918300	0.571300
H141	H14	0.648200	0.913200	0.552100
H151	H15	0.992200	0.184500	0.777400
H161	H16	0.992200	0.234200	0.826400
H171	H17	0.362000	0.256400	0.505600
H181	H18	0.000400	0.169000	0.415000
H191	H19	0.989200	0.176800	0.596400
H201	H20	0.665200	0.207800	0.512600
H211	H21	0.563000	0.150100	0.530400
H221	H22	0.691600	0.177500	0.576000
H231	H23	0.723700	0.052500	0.548900
H241	H24	0.912300	0.049600	0.531700
H251	H25	0.854800	0.087700	0.587600
H261	H26	0.738300	0.142400	0.418600
H271	H27	0.835000	0.081700	0.428700
H281	H28	0.648200	0.086800	0.447900
H291	H29	0.007800	0.222600	0.184500
H301	H30	0.007800	0.173600	0.234200
H311	H31	0.638000	0.494400	0.256400
H321	H32	0.999600	0.585000	0.169000
H331	H33	0.010800	0.403600	0.176800
H341	H34	0.334800	0.487400	0.207800
H351	H35	0.437000	0.469600	0.150100
H361	H36	0.308400	0.424000	0.177500
H371	H37	0.276300	0.451100	0.052500
H381	H38	0.087700	0.468300	0.049600
H391	H39	0.145200	0.412400	0.087700
H401	H40	0.261700	0.581400	0.142400
H411	H41	0.165000	0.571300	0.081700
H421	H42	0.351800	0.552100	0.086800
H431	H43	0.007800	0.777400	0.815500
H441	H44	0.007800	0.826400	0.765800
H451	H45	0.638000	0.505600	0.743600
H461	H46	0.999600	0.415000	0.831000
H471	H47	0.010800	0.596400	0.823200
H481	H48	0.334800	0.512600	0.792200
H491	H49	0.437000	0.530400	0.849900
H501	H50	0.308400	0.576000	0.822500
H511	H51	0.276300	0.548900	0.947500
H521	H52	0.087700	0.531700	0.950400
H531	H53	0.145200	0.587600	0.912300
H541	H54	0.261700	0.418600	0.857600
H551	H55	0.165000	0.428700	0.918300
H561	H56	0.351800	0.447900	0.913200
H571	H57	0.507800	0.684500	0.722600
H581	H58	0.507800	0.734200	0.673600
H591	H59	0.138000	0.756400	0.994400
H601	H60	0.499600	0.669000	0.085000
H611	H61	0.510800	0.676800	0.903600
H621	H62	0.834800	0.707800	0.987400
H631	H63	0.937000	0.650100	0.969600
H641	H64	0.808400	0.677500	0.924000
H651	H65	0.776300	0.552500	0.951100
H661	H66	0.587700	0.549600	0.968300
H671	H67	0.645200	0.587700	0.912400
H681	H68	0.761700	0.642400	0.081400
H691	H69	0.665000	0.581700	0.071300
H701	H70	0.851800	0.586800	0.052100
H711	H71	0.507800	0.315500	0.277400
H721	H72	0.507800	0.265800	0.326400
H731	H73	0.138000	0.243600	0.005600
H741	H74	0.499600	0.331000	0.915000
H751	H75	0.510800	0.323200	0.096400
H761	H76	0.834800	0.292200	0.012600
H771	H77	0.937000	0.349900	0.030400
H781	H78	0.808400	0.322500	0.076000
H791	H79	0.776300	0.447500	0.048900
H801	H80	0.587700	0.450400	0.031700
H811	H81	0.645200	0.412300	0.087600
H821	H82	0.761700	0.357600	0.918600
H831	H83	0.665000	0.418300	0.928700
H841	H84	0.851800	0.413200	0.947900
H851	H85	0.492200	0.277400	0.684500
H861	H86	0.492200	0.326400	0.734200
H871	H87	0.862000	0.005600	0.756400
H881	H88	0.500400	0.915000	0.669000
H891	H89	0.489200	0.096400	0.676800
H901	H90	0.165200	0.012600	0.707800
H911	H91	0.063000	0.030400	0.650100
H921	H92	0.191600	0.076000	0.677500
H931	H93	0.223700	0.048900	0.552500
H941	H94	0.412300	0.031700	0.549600
H951	H95	0.354800	0.087600	0.587700
H961	H96	0.238300	0.918600	0.642400
H971	H97	0.335000	0.928700	0.581700
H981	H98	0.148200	0.947900	0.586800
H991	H99	0.492200	0.722600	0.315500
H1001	H100	0.492200	0.673600	0.265800
H1011	H101	0.862000	0.994400	0.243600
H1021	H102	0.500400	0.085000	0.331000
H1031	H103	0.489200	0.903600	0.323200
H1041	H104	0.165200	0.987400	0.292200
H1051	H105	0.063000	0.969600	0.349900
H1061	H106	0.191600	0.924000	0.322500
H1071	H107	0.223700	0.951100	0.447500
H1081	H108	0.412300	0.968300	0.450400
H1091	H109	0.354800	0.912400	0.412300
H1101	H110	0.238300	0.081400	0.357600
H1111	H111	0.335000	0.071300	0.418300
H1121	H112	0.148200	0.052100	0.413200
C11	C1	0.185500	0.780140	0.440010
C21	C2	0.263650	0.765620	0.494370
C31	C3	0.192720	0.784520	0.548840
C41	C4	0.046040	0.818520	0.548420
C51	C5	0.966370	0.834180	0.494340
C61	C6	0.039680	0.813840	0.440260
C71	C7	0.261260	0.759120	0.381520
C81	C8	0.275340	0.768320	0.607650
C91	C9	0.804430	0.870210	0.492750
C101	C10	0.668300	0.829950	0.465940
C111	C11	0.825800	0.925130	0.452450
C121	C12	0.751600	0.891800	0.555140
C131	C13	0.185500	0.219860	0.559990
C141	C14	0.263650	0.234380	0.505630
C151	C15	0.192720	0.215480	0.451160
C161	C16	0.046040	0.181480	0.451580
C171	C17	0.966370	0.165820	0.505660
C181	C18	0.039680	0.186160	0.559740
C191	C19	0.261260	0.240880	0.618480
C201	C20	0.275340	0.231680	0.392350
C211	C21	0.804430	0.129790	0.507250
C221	C22	0.668300	0.170050	0.534060
C231	C23	0.825800	0.074870	0.547550
C241	C24	0.751600	0.108200	0.444860
C251	C25	0.814500	0.440010	0.219860
C261	C26	0.736350	0.494370	0.234380
C271	C27	0.807280	0.548840	0.215480
C281	C28	0.953960	0.548420	0.181480
C291	C29	0.033630	0.494340	0.165820
C301	C30	0.960320	0.440260	0.186160
C311	C31	0.738740	0.381520	0.240880
C321	C32	0.724660	0.607650	0.231680
C331	C33	0.195570	0.492750	0.129790
C341	C34	0.331700	0.465940	0.170050
C351	C35	0.174200	0.452450	0.074870
C361	C36	0.248400	0.555140	0.108200
C371	C37	0.814500	0.559990	0.780140
C381	C38	0.736350	0.505630	0.765620
C391	C39	0.807280	0.451160	0.784520
C401	C40	0.953960	0.451580	0.818520
C411	C41	0.033630	0.505660	0.834180
C421	C42	0.960320	0.559740	0.813840
C431	C43	0.738740	0.618480	0.759120
C441	C44	0.724660	0.392350	0.768320
C451	C45	0.195570	0.507250	0.870210
C461	C46	0.331700	0.534060	0.829950
C471	C47	0.174200	0.547550	0.925130
C481	C48	0.248400	0.444860	0.891800
C491	C49	0.314500	0.719860	0.940010
C501	C50	0.236350	0.734380	0.994370
C511	C51	0.307280	0.715480	0.048840
C521	C52	0.453960	0.681480	0.048420
C531	C53	0.533630	0.665820	0.994340
C541	C54	0.460320	0.686160	0.940260
C551	C55	0.238740	0.740880	0.881520
C561	C56	0.224660	0.731680	0.107650
C571	C57	0.695570	0.629790	0.992750
C581	C58	0.831700	0.670050	0.965940
C591	C59	0.674200	0.574870	0.952450
C601	C60	0.748400	0.608200	0.055140
C611	C61	0.314500	0.280140	0.059990
C621	C62	0.236350	0.265620	0.005630
C631	C63	0.307280	0.284520	0.951160
C641	C64	0.453960	0.318520	0.951580
C651	C65	0.533630	0.334180	0.005660
C661	C66	0.460320	0.313840	0.059740
C671	C67	0.238740	0.259120	0.118480
C681	C68	0.224660	0.268320	0.892350
C691	C69	0.695570	0.370210	0.007250
C701	C70	0.831700	0.329950	0.034060
C711	C71	0.674200	0.425130	0.047550
C721	C72	0.748400	0.391800	0.944860
C731	C73	0.685500	0.059990	0.719860
C741	C74	0.763650	0.005630	0.734380
C751	C75	0.692720	0.951160	0.715480
C761	C76	0.546040	0.951580	0.681480
C771	C77	0.466370	0.005660	0.665820
C781	C78	0.539680	0.059740	0.686160
C791	C79	0.761260	0.118480	0.740880
C801	C80	0.775340	0.892350	0.731680
C811	C81	0.304430	0.007250	0.629790
C821	C82	0.168300	0.034060	0.670050
C831	C83	0.325800	0.047550	0.574870
C841	C84	0.251600	0.944860	0.608200
C851	C85	0.685500	0.940010	0.280140
C861	C86	0.763650	0.994370	0.265620
C871	C87	0.692720	0.048840	0.284520
C881	C88	0.546040	0.048420	0.318520
C891	C89	0.466370	0.994340	0.334180
C901	C90	0.539680	0.940260	0.313840
C911	C91	0.761260	0.881520	0.259120
C921	C92	0.775340	0.107650	0.268320
C931	C93	0.304430	0.992750	0.370210
C941	C94	0.168300	0.965940	0.329950
C951	C95	0.325800	0.952450	0.425130
C961	C96	0.251600	0.055140	0.391800
O11	O1	0.174500	0.764700	0.333550
O21	O2	0.404400	0.737390	0.382220
O31	O3	0.188800	0.773920	0.655590
O41	O4	0.421380	0.750160	0.606700
O51	O5	0.992210	0.772000	0.216980
O61	O6	0.174500	0.235300	0.666450
O71	O7	0.404400	0.262610	0.617780
O81	O8	0.188800	0.226080	0.344410
O91	O9	0.421380	0.249840	0.393300
O101	O10	0.992210	0.228000	0.783020
O111	O11	0.825500	0.333550	0.235300
O121	O12	0.595600	0.382220	0.262610
O131	O13	0.811200	0.655590	0.226080
O141	O14	0.578620	0.606700	0.249840
O151	O15	0.007790	0.216980	0.228000
O161	O16	0.825500	0.666450	0.764700
O171	O17	0.595600	0.617780	0.737390
O181	O18	0.811200	0.344410	0.773920
O191	O19	0.578620	0.393300	0.750160
O201	O20	0.007790	0.783020	0.772000
O211	O21	0.325500	0.735300	0.833550
O221	O22	0.095600	0.762610	0.882220
O231	O23	0.311200	0.726080	0.155590
O241	O24	0.078620	0.749840	0.106700
O251	O25	0.507790	0.728000	0.716980
O261	O26	0.325500	0.264700	0.166450
O271	O27	0.095600	0.237390	0.117780
O281	O28	0.311200	0.273920	0.844410
O291	O29	0.078620	0.250160	0.893300
O301	O30	0.507790	0.272000	0.283020
O311	O31	0.674500	0.166450	0.735300
O321	O32	0.904400	0.117780	0.762610
O331	O33	0.688800	0.844410	0.726080
O341	O34	0.921380	0.893300	0.749840
O351	O35	0.492210	0.283020	0.728000
O361	O36	0.674500	0.833550	0.264700
O371	O37	0.904400	0.882220	0.237390
O381	O38	0.688800	0.155590	0.273920
O391	O39	0.921380	0.106700	0.250160
O401	O40	0.492210	0.716980	0.272000
