data_MOYYEF_clean_PM
_symmetry_space_group_name_H-M	'P1'
_cell_length_a	12.935000
_cell_length_b	14.351900
_cell_length_c	14.351900
_cell_angle_alpha	78.283200
_cell_angle_beta	63.215400
_cell_angle_gamma	63.215400
_symmetry_Int_Tables_number 1

loop_
_symmetry_equiv_pos_as_xyz
'x,y,z'

loop_
_atom_site_label
_atom_site_type_symbol
_atom_site_fract_x
_atom_site_fract_y
_atom_site_fract_z
Cu11	Cu1	0.464370	0.399790	0.476970
Cu21	Cu2	0.341130	0.600210	0.523030
Cu31	Cu3	0.191340	0.023030	0.899790
Cu41	Cu4	0.114160	0.976970	0.100210
H11	H1	0.588500	0.723500	0.295900
H21	H2	0.739800	0.771500	0.162500
H31	H3	0.974400	0.467100	0.099300
H41	H4	0.818700	0.422400	0.229400
H51	H5	0.038800	0.543800	0.930800
H61	H6	0.196900	0.584300	0.796300
H71	H7	0.216700	0.732600	0.813200
H81	H8	0.935600	0.781400	0.099200
H91	H9	0.607900	0.276500	0.704100
H101	H10	0.673800	0.228500	0.837500
H111	H11	0.540800	0.532900	0.900700
H121	H12	0.470500	0.577600	0.770600
H131	H13	0.513400	0.456200	0.069200
H141	H14	0.577500	0.415700	0.203700
H151	H15	0.762500	0.267400	0.186800
H161	H16	0.816200	0.218600	0.900800
H171	H17	0.134400	0.204100	0.223500
H181	H18	0.152300	0.337500	0.271500
H191	H19	0.323700	0.400700	0.967100
H201	H20	0.298100	0.270600	0.922400
H211	H21	0.219600	0.569200	0.043800
H221	H22	0.243200	0.703700	0.084300
H231	H23	0.279900	0.686800	0.232600
H241	H24	0.284800	0.400800	0.281400
H251	H25	0.562000	0.795900	0.776500
H261	H26	0.761300	0.662500	0.728500
H271	H27	0.691500	0.599300	0.032900
H281	H28	0.491100	0.729400	0.077600
H291	H29	0.832600	0.430800	0.956200
H301	H30	0.031200	0.296300	0.915700
H311	H31	0.199300	0.313200	0.767400
H321	H32	0.967000	0.599200	0.718600
C11	C1	0.590200	0.538400	0.362800
C21	C2	0.686200	0.567500	0.280900
C31	C3	0.666000	0.671700	0.256700
C41	C4	0.757800	0.700900	0.175900
C51	C5	0.874700	0.627700	0.115500
C61	C6	0.896900	0.519100	0.138300
C71	C7	0.803400	0.492700	0.217500
C81	C8	0.977900	0.651500	0.032100
C91	C9	0.051900	0.599600	0.939200
C101	C10	0.145000	0.624600	0.856600
C111	C11	0.157500	0.711200	0.867600
C121	C12	0.082600	0.765700	0.958700
C131	C13	0.989600	0.739700	0.039900
C141	C14	0.103400	0.859400	0.974600
C151	C15	0.491400	0.461600	0.637200
C161	C16	0.534600	0.432500	0.719100
C171	C17	0.594400	0.328300	0.743300
C181	C18	0.634600	0.299100	0.824100
C191	C19	0.617900	0.372300	0.884500
C201	C20	0.554300	0.480900	0.861700
C211	C21	0.513600	0.507300	0.782500
C221	C22	0.661500	0.348500	0.967900
C231	C23	0.590700	0.400400	0.060800
C241	C24	0.626200	0.375400	0.143400
C251	C25	0.736300	0.288800	0.132400
C261	C26	0.807000	0.234300	0.041300
C271	C27	0.769200	0.260300	0.960100
C281	C28	0.937400	0.140600	0.025400
C291	C29	0.203000	0.137200	0.038400
C301	C30	0.217100	0.219100	0.067500
C311	C31	0.172700	0.243300	0.171700
C321	C32	0.183700	0.324100	0.200900
C331	C33	0.240200	0.384500	0.127700
C341	C34	0.285200	0.361700	0.019100
C351	C35	0.270900	0.282500	0.992700
C361	C36	0.260000	0.467900	0.151500
C371	C37	0.241100	0.560800	0.099600
C381	C38	0.251600	0.643400	0.124600
C391	C39	0.275100	0.632400	0.211200
C401	C40	0.291300	0.541300	0.265700
C411	C41	0.279500	0.460100	0.239700
C421	C42	0.328000	0.525400	0.359400
C431	C43	0.378600	0.862800	0.961600
C441	C44	0.503700	0.780900	0.932500
C451	C45	0.587700	0.756700	0.828300
C461	C46	0.708700	0.675900	0.799100
C471	C47	0.752400	0.615500	0.872300
C481	C48	0.666000	0.638300	0.980900
C491	C49	0.546100	0.717500	0.007300
C501	C50	0.879400	0.532100	0.848500
C511	C51	0.901500	0.439200	0.900400
C521	C52	0.019600	0.356600	0.875400
C531	C53	0.118700	0.367600	0.788800
C541	C54	0.098300	0.458700	0.734300
C551	C55	0.979300	0.539900	0.760300
C561	C56	0.212800	0.474600	0.640600
O11	O1	0.591300	0.452200	0.368000
O21	O2	0.497400	0.611700	0.426500
O31	O3	0.058000	0.887000	0.064600
O41	O4	0.160500	0.899600	0.894400
O51	O5	0.411500	0.547800	0.632000
O61	O6	0.535600	0.388300	0.573500
O71	O7	0.009600	0.113000	0.935400
O81	O8	0.954500	0.100400	0.105600
O91	O9	0.209300	0.132000	0.952200
O101	O10	0.173900	0.073500	0.111700
O111	O11	0.372600	0.435400	0.387000
O121	O12	0.304900	0.605600	0.399600
O131	O13	0.293500	0.868000	0.047800
O141	O14	0.359100	0.926500	0.888300
O151	O15	0.195000	0.564600	0.613000
O161	O16	0.310100	0.394400	0.600400
