data_MOYYIJ_clean_PM
_symmetry_space_group_name_H-M	'P1'
_cell_length_a	14.297000
_cell_length_b	18.901700
_cell_length_c	18.901700
_cell_angle_alpha	66.131000
_cell_angle_beta	75.396500
_cell_angle_gamma	104.603000
_symmetry_Int_Tables_number 1

loop_
_symmetry_equiv_pos_as_xyz
'x,y,z'

loop_
_atom_site_label
_atom_site_type_symbol
_atom_site_fract_x
_atom_site_fract_y
_atom_site_fract_z
Cu11	Cu1	0.551910	0.579970	0.975010
Cu21	Cu2	0.526920	0.975010	0.445020
Cu31	Cu3	0.971940	0.445020	0.579970
Cu41	Cu4	0.448090	0.420030	0.024990
Cu51	Cu5	0.473080	0.024990	0.554980
Cu61	Cu6	0.028060	0.554980	0.420030
H11	H1	0.254700	0.547700	0.610100
H21	H2	0.529600	0.748300	0.483700
H31	H3	0.496300	0.788200	0.363100
H41	H4	0.341100	0.712000	0.366700
H51	H5	0.346800	0.493200	0.688200
H61	H6	0.380000	0.454400	0.807200
H71	H7	0.522100	0.696900	0.736500
H81	H8	0.490800	0.736400	0.615800
H91	H9	0.864800	0.610100	0.842200
H101	H10	0.013300	0.483700	0.768000
H111	H11	0.859400	0.363100	0.848700
H121	H12	0.707800	0.366700	0.921300
H131	H13	0.035000	0.688200	0.818600
H141	H14	0.187200	0.807200	0.738400
H151	H15	0.258600	0.736500	0.566600
H161	H16	0.106600	0.615800	0.647800
H171	H17	0.707000	0.842200	0.547700
H181	H18	0.781300	0.768000	0.748300
H191	H19	0.708100	0.848700	0.788200
H201	H20	0.629100	0.921300	0.712000
H211	H21	0.853600	0.818600	0.493200
H221	H22	0.925600	0.738400	0.454400
H231	H23	0.825200	0.566600	0.696900
H241	H24	0.754400	0.647800	0.736400
H251	H25	0.745300	0.452300	0.389900
H261	H26	0.470400	0.251700	0.516300
H271	H27	0.503700	0.211800	0.636900
H281	H28	0.658900	0.288000	0.633300
H291	H29	0.653200	0.506800	0.311800
H301	H30	0.620000	0.545600	0.192800
H311	H31	0.477900	0.303100	0.263500
H321	H32	0.509200	0.263600	0.384200
H331	H33	0.135200	0.389900	0.157800
H341	H34	0.986700	0.516300	0.232000
H351	H35	0.140600	0.636900	0.151300
H361	H36	0.292200	0.633300	0.078700
H371	H37	0.965000	0.311800	0.181400
H381	H38	0.812800	0.192800	0.261600
H391	H39	0.741400	0.263500	0.433400
H401	H40	0.893400	0.384200	0.352200
H411	H41	0.293000	0.157800	0.452300
H421	H42	0.218700	0.232000	0.251700
H431	H43	0.291900	0.151300	0.211800
H441	H44	0.370900	0.078700	0.288000
H451	H45	0.146400	0.181400	0.506800
H461	H46	0.074400	0.261600	0.545600
H471	H47	0.174800	0.433400	0.303100
H481	H48	0.245600	0.352200	0.263600
C11	C1	0.176880	0.574900	0.493900
C21	C2	0.282070	0.623040	0.489150
C31	C3	0.303170	0.597140	0.560540
C41	C4	0.396960	0.644660	0.559160
C51	C5	0.467330	0.715870	0.485440
C61	C6	0.446750	0.740340	0.413190
C71	C7	0.354890	0.694880	0.415070
C81	C8	0.416400	0.619120	0.637390
C91	C9	0.383230	0.534950	0.697130
C101	C10	0.402370	0.511470	0.768690
C111	C11	0.454840	0.572090	0.784700
C121	C12	0.487040	0.655610	0.726620
C131	C13	0.468430	0.679490	0.653960
C141	C14	0.474820	0.546650	0.864050
C151	C15	0.670780	0.493900	0.931200
C161	C16	0.771220	0.489150	0.887810
C171	C17	0.863710	0.560540	0.842320
C181	C18	0.956120	0.559160	0.796180
C191	C19	0.952770	0.485440	0.798690
C201	C20	0.859940	0.413190	0.846470
C211	C21	0.769960	0.415070	0.890050
C221	C22	0.053790	0.637390	0.743490
C231	C23	0.080360	0.697130	0.767920
C241	C24	0.171060	0.768690	0.719840
C251	C25	0.239540	0.784700	0.643210
C261	C26	0.213660	0.726620	0.617770
C271	C27	0.122390	0.653960	0.666550
C281	C28	0.338870	0.864050	0.589300
C291	C29	0.601980	0.931200	0.574900
C301	C30	0.659030	0.887810	0.623040
C311	C31	0.706030	0.842320	0.597140
C321	C32	0.752300	0.796180	0.644660
C331	C33	0.751460	0.798690	0.715870
C341	C34	0.706410	0.846470	0.740340
C351	C35	0.660010	0.890050	0.694880
C361	C36	0.797280	0.743490	0.619120
C371	C37	0.848280	0.767920	0.534950
C381	C38	0.890900	0.719840	0.511470
C391	C39	0.882750	0.643210	0.572090
C401	C40	0.831430	0.617770	0.655610
C411	C41	0.788940	0.666550	0.679490
C421	C42	0.928170	0.589300	0.546650
C431	C43	0.823120	0.425100	0.506100
C441	C44	0.717930	0.376960	0.510850
C451	C45	0.696830	0.402860	0.439460
C461	C46	0.603040	0.355340	0.440840
C471	C47	0.532670	0.284130	0.514560
C481	C48	0.553250	0.259660	0.586810
C491	C49	0.645110	0.305120	0.584930
C501	C50	0.583600	0.380880	0.362610
C511	C51	0.616770	0.465050	0.302870
C521	C52	0.597630	0.488530	0.231310
C531	C53	0.545160	0.427910	0.215300
C541	C54	0.512960	0.344390	0.273380
C551	C55	0.531570	0.320510	0.346040
C561	C56	0.525180	0.453350	0.135950
C571	C57	0.329220	0.506100	0.068800
C581	C58	0.228780	0.510850	0.112190
C591	C59	0.136290	0.439460	0.157680
C601	C60	0.043880	0.440840	0.203820
C611	C61	0.047230	0.514560	0.201310
C621	C62	0.140060	0.586810	0.153530
C631	C63	0.230040	0.584930	0.109950
C641	C64	0.946210	0.362610	0.256510
C651	C65	0.919640	0.302870	0.232080
C661	C66	0.828940	0.231310	0.280160
C671	C67	0.760460	0.215300	0.356790
C681	C68	0.786340	0.273380	0.382230
C691	C69	0.877610	0.346040	0.333450
C701	C70	0.661130	0.135950	0.410700
C711	C71	0.398020	0.068800	0.425100
C721	C72	0.340970	0.112190	0.376960
C731	C73	0.293970	0.157680	0.402860
C741	C74	0.247700	0.203820	0.355340
C751	C75	0.248540	0.201310	0.284130
C761	C76	0.293590	0.153530	0.259660
C771	C77	0.339990	0.109950	0.305120
C781	C78	0.202720	0.256510	0.380880
C791	C79	0.151720	0.232080	0.465050
C801	C80	0.109100	0.280160	0.488530
C811	C81	0.117250	0.356790	0.427910
C821	C82	0.168570	0.382230	0.344390
C831	C83	0.211060	0.333450	0.320510
C841	C84	0.071830	0.410700	0.453350
O11	O1	0.113250	0.511880	0.562850
O21	O2	0.161900	0.604360	0.426610
O31	O3	0.437630	0.469240	0.915070
O41	O4	0.524700	0.604450	0.873430
O51	O5	0.676100	0.562850	0.925270
O61	O6	0.588510	0.426610	0.969030
O71	O7	0.352700	0.915070	0.615690
O81	O8	0.398130	0.873430	0.522120
O91	O9	0.601370	0.925270	0.511880
O101	O10	0.557540	0.969030	0.604360
O111	O11	0.968390	0.615690	0.469240
O121	O12	0.920250	0.522120	0.604450
O131	O13	0.886750	0.488120	0.437150
O141	O14	0.838100	0.395640	0.573390
O151	O15	0.562370	0.530760	0.084930
O161	O16	0.475300	0.395550	0.126570
O171	O17	0.323900	0.437150	0.074730
O181	O18	0.411490	0.573390	0.030970
O191	O19	0.647300	0.084930	0.384310
O201	O20	0.601870	0.126570	0.477880
O211	O21	0.398630	0.074730	0.488120
O221	O22	0.442460	0.030970	0.395640
O231	O23	0.031610	0.384310	0.530760
O241	O24	0.079750	0.477880	0.395550
