data_MUDKOM_clean_PM
_symmetry_space_group_name_H-M	'P1'
_cell_length_a	13.838000
_cell_length_b	12.784000
_cell_length_c	16.885000
_cell_angle_alpha	90.000000
_cell_angle_beta	90.000000
_cell_angle_gamma	90.000000
_symmetry_Int_Tables_number 1

loop_
_symmetry_equiv_pos_as_xyz
'x,y,z'

loop_
_atom_site_label
_atom_site_type_symbol
_atom_site_fract_x
_atom_site_fract_y
_atom_site_fract_z
Zn11	Zn1	0.593540	0.976020	0.924130
Zn21	Zn2	0.477530	0.431980	0.902130
C11	C1	0.589600	0.978200	0.754600
C21	C2	0.493800	0.925800	0.777900
C31	C3	0.548100	0.205300	0.912400
C41	C4	0.417800	0.224700	0.976600
C51	C5	0.779900	0.021400	0.022200
C61	C6	0.812000	0.975700	0.905400
H11	H1	0.805200	0.955200	0.852800
N11	N1	0.478900	0.277100	0.927400
N21	N2	0.532600	0.115600	0.949100
N31	N3	0.447300	0.128200	0.990600
N41	N4	0.627800	0.225000	0.865500
H21	H2	0.671000	0.177400	0.858800
H31	H3	0.634300	0.284900	0.842900
N51	N5	0.895900	0.988700	0.939800
N61	N6	0.875600	0.018000	0.017600
N71	N7	0.737000	0.994700	0.953400
N81	N8	0.729800	0.051700	0.087300
H41	H4	0.760200	0.070600	0.129400
H51	H5	0.667700	0.052200	0.086500
O11	O1	0.643800	0.007100	0.809400
O21	O2	0.478400	0.916200	0.850300
O31	O3	0.606300	0.992000	0.682300
O41	O4	0.441600	0.897300	0.720900
H61	H6	0.292200	0.209700	0.029700
H71	H7	0.306300	0.316300	0.996000
N91	N9	0.327000	0.254000	0.004000
Zn31	Zn3	0.906460	0.023980	0.424130
Zn41	Zn4	0.022470	0.568020	0.402130
C71	C7	0.910400	0.021800	0.254600
C81	C8	0.006200	0.074200	0.277900
C91	C9	0.951900	0.794700	0.412400
C101	C10	0.082200	0.775300	0.476600
C111	C11	0.720100	0.978600	0.522200
C121	C12	0.688000	0.024300	0.405400
H81	H8	0.694800	0.044800	0.352800
N101	N10	0.021100	0.722900	0.427400
N111	N11	0.967400	0.884400	0.449100
N121	N12	0.052700	0.871800	0.490600
N131	N13	0.872200	0.775000	0.365500
H91	H9	0.829000	0.822600	0.358800
H101	H10	0.865700	0.715100	0.342900
N141	N14	0.604100	0.011300	0.439800
N151	N15	0.624400	0.982000	0.517600
N161	N16	0.763000	0.005300	0.453400
N171	N17	0.770200	0.948300	0.587300
H111	H11	0.739800	0.929400	0.629400
H121	H12	0.832300	0.947800	0.586500
O51	O5	0.856200	0.992900	0.309400
O61	O6	0.021600	0.083800	0.350300
O71	O7	0.893700	0.008000	0.182300
O81	O8	0.058400	0.102700	0.220900
H131	H13	0.207800	0.790300	0.529700
H141	H14	0.193700	0.683700	0.496000
N181	N18	0.173000	0.746000	0.504000
Zn51	Zn5	0.406460	0.476020	0.575870
Zn61	Zn6	0.522470	0.931980	0.597870
C131	C13	0.410400	0.478200	0.745400
C141	C14	0.506200	0.425800	0.722100
C151	C15	0.451900	0.705300	0.587600
C161	C16	0.582200	0.724700	0.523400
C171	C17	0.220100	0.521400	0.477800
C181	C18	0.188000	0.475700	0.594600
H151	H15	0.194800	0.455200	0.647200
N191	N19	0.521100	0.777100	0.572600
N201	N20	0.467400	0.615600	0.550900
N211	N21	0.552700	0.628200	0.509400
N221	N22	0.372200	0.725000	0.634500
H161	H16	0.329000	0.677400	0.641200
H171	H17	0.365700	0.784900	0.657100
N231	N23	0.104100	0.488700	0.560200
N241	N24	0.124400	0.518000	0.482400
N251	N25	0.263000	0.494700	0.546600
N261	N26	0.270200	0.551700	0.412700
H181	H18	0.239800	0.570600	0.370600
H191	H19	0.332300	0.552200	0.413500
O91	O9	0.356200	0.507100	0.690600
O101	O10	0.521600	0.416200	0.649700
O111	O11	0.393700	0.492000	0.817700
O121	O12	0.558400	0.397300	0.779100
H201	H20	0.707800	0.709700	0.470300
H211	H21	0.693700	0.816300	0.504000
N271	N27	0.673000	0.754000	0.496000
Zn71	Zn7	0.093540	0.523980	0.075870
Zn81	Zn8	0.977530	0.068020	0.097870
C191	C19	0.089600	0.521800	0.245400
C201	C20	0.993800	0.574200	0.222100
C211	C21	0.048100	0.294700	0.087600
C221	C22	0.917800	0.275300	0.023400
C231	C23	0.279900	0.478600	0.977800
C241	C24	0.312000	0.524300	0.094600
H221	H22	0.305200	0.544800	0.147200
N281	N28	0.978900	0.222900	0.072600
N291	N29	0.032600	0.384400	0.050900
N301	N30	0.947300	0.371800	0.009400
N311	N31	0.127800	0.275000	0.134500
H231	H23	0.171000	0.322600	0.141200
H241	H24	0.134300	0.215100	0.157100
N321	N32	0.395900	0.511300	0.060200
N331	N33	0.375600	0.482000	0.982400
N341	N34	0.237000	0.505300	0.046600
N351	N35	0.229800	0.448300	0.912700
H251	H25	0.260200	0.429400	0.870600
H261	H26	0.167700	0.447800	0.913500
O131	O13	0.143800	0.492900	0.190600
O141	O14	0.978400	0.583800	0.149700
O151	O15	0.106300	0.508000	0.317700
O161	O16	0.941600	0.602700	0.279100
H271	H27	0.792200	0.290300	0.970300
H281	H28	0.806300	0.183700	0.004000
N361	N36	0.827000	0.246000	0.996000
Zn91	Zn9	0.406460	0.023980	0.075870
Zn101	Zn10	0.522470	0.568020	0.097870
C251	C25	0.410400	0.021800	0.245400
C261	C26	0.506200	0.074200	0.222100
C271	C27	0.451900	0.794700	0.087600
C281	C28	0.582200	0.775300	0.023400
C291	C29	0.220100	0.978600	0.977800
C301	C30	0.188000	0.024300	0.094600
H291	H29	0.194800	0.044800	0.147200
N371	N37	0.521100	0.722900	0.072600
N381	N38	0.467400	0.884400	0.050900
N391	N39	0.552700	0.871800	0.009400
N401	N40	0.372200	0.775000	0.134500
H301	H30	0.329000	0.822600	0.141200
H311	H31	0.365700	0.715100	0.157100
N411	N41	0.104100	0.011300	0.060200
N421	N42	0.124400	0.982000	0.982400
N431	N43	0.263000	0.005300	0.046600
N441	N44	0.270200	0.948300	0.912700
H321	H32	0.239800	0.929400	0.870600
H331	H33	0.332300	0.947800	0.913500
O171	O17	0.356200	0.992900	0.190600
O181	O18	0.521600	0.083800	0.149700
O191	O19	0.393700	0.008000	0.317700
O201	O20	0.558400	0.102700	0.279100
H341	H34	0.707800	0.790300	0.970300
H351	H35	0.693700	0.683700	0.004000
N451	N45	0.673000	0.746000	0.996000
Zn111	Zn11	0.093540	0.976020	0.575870
Zn121	Zn12	0.977530	0.431980	0.597870
C311	C31	0.089600	0.978200	0.745400
C321	C32	0.993800	0.925800	0.722100
C331	C33	0.048100	0.205300	0.587600
C341	C34	0.917800	0.224700	0.523400
C351	C35	0.279900	0.021400	0.477800
C361	C36	0.312000	0.975700	0.594600
H361	H36	0.305200	0.955200	0.647200
N461	N46	0.978900	0.277100	0.572600
N471	N47	0.032600	0.115600	0.550900
N481	N48	0.947300	0.128200	0.509400
N491	N49	0.127800	0.225000	0.634500
H371	H37	0.171000	0.177400	0.641200
H381	H38	0.134300	0.284900	0.657100
N501	N50	0.395900	0.988700	0.560200
N511	N51	0.375600	0.018000	0.482400
N521	N52	0.237000	0.994700	0.546600
N531	N53	0.229800	0.051700	0.412700
H391	H39	0.260200	0.070600	0.370600
H401	H40	0.167700	0.052200	0.413500
O211	O21	0.143800	0.007100	0.690600
O221	O22	0.978400	0.916200	0.649700
O231	O23	0.106300	0.992000	0.817700
O241	O24	0.941600	0.897300	0.779100
H411	H41	0.792200	0.209700	0.470300
H421	H42	0.806300	0.316300	0.504000
N541	N54	0.827000	0.254000	0.496000
Zn131	Zn13	0.593540	0.523980	0.424130
Zn141	Zn14	0.477530	0.068020	0.402130
C371	C37	0.589600	0.521800	0.254600
C381	C38	0.493800	0.574200	0.277900
C391	C39	0.548100	0.294700	0.412400
C401	C40	0.417800	0.275300	0.476600
C411	C41	0.779900	0.478600	0.522200
C421	C42	0.812000	0.524300	0.405400
H431	H43	0.805200	0.544800	0.352800
N551	N55	0.478900	0.222900	0.427400
N561	N56	0.532600	0.384400	0.449100
N571	N57	0.447300	0.371800	0.490600
N581	N58	0.627800	0.275000	0.365500
H441	H44	0.671000	0.322600	0.358800
H451	H45	0.634300	0.215100	0.342900
N591	N59	0.895900	0.511300	0.439800
N601	N60	0.875600	0.482000	0.517600
N611	N61	0.737000	0.505300	0.453400
N621	N62	0.729800	0.448300	0.587300
H461	H46	0.760200	0.429400	0.629400
H471	H47	0.667700	0.447800	0.586500
O251	O25	0.643800	0.492900	0.309400
O261	O26	0.478400	0.583800	0.350300
O271	O27	0.606300	0.508000	0.182300
O281	O28	0.441600	0.602700	0.220900
H481	H48	0.292200	0.290300	0.529700
H491	H49	0.306300	0.183700	0.496000
N631	N63	0.327000	0.246000	0.504000
Zn151	Zn15	0.906460	0.476020	0.924130
Zn161	Zn16	0.022470	0.931980	0.902130
C431	C43	0.910400	0.478200	0.754600
C441	C44	0.006200	0.425800	0.777900
C451	C45	0.951900	0.705300	0.912400
C461	C46	0.082200	0.724700	0.976600
C471	C47	0.720100	0.521400	0.022200
C481	C48	0.688000	0.475700	0.905400
H501	H50	0.694800	0.455200	0.852800
N641	N64	0.021100	0.777100	0.927400
N651	N65	0.967400	0.615600	0.949100
N661	N66	0.052700	0.628200	0.990600
N671	N67	0.872200	0.725000	0.865500
H511	H51	0.829000	0.677400	0.858800
H521	H52	0.865700	0.784900	0.842900
N681	N68	0.604100	0.488700	0.939800
N691	N69	0.624400	0.518000	0.017600
N701	N70	0.763000	0.494700	0.953400
N711	N71	0.770200	0.551700	0.087300
H531	H53	0.739800	0.570600	0.129400
H541	H54	0.832300	0.552200	0.086500
O291	O29	0.856200	0.507100	0.809400
O301	O30	0.021600	0.416200	0.850300
O311	O31	0.893700	0.492000	0.682300
O321	O32	0.058400	0.397300	0.720900
H551	H55	0.207800	0.709700	0.029700
H561	H56	0.193700	0.816300	0.996000
N721	N72	0.173000	0.754000	0.004000
