data_MUDLON_clean_PM
_symmetry_space_group_name_H-M	'P1'
_cell_length_a	15.727200
_cell_length_b	23.555000
_cell_length_c	23.555000
_cell_angle_alpha	64.561700
_cell_angle_beta	70.498000
_cell_angle_gamma	70.498000
_symmetry_Int_Tables_number 1

loop_
_symmetry_equiv_pos_as_xyz
'x,y,z'

loop_
_atom_site_label
_atom_site_type_symbol
_atom_site_fract_x
_atom_site_fract_y
_atom_site_fract_z
Mg11	Mg1	0.169010	0.494870	0.494870
Mg21	Mg2	0.658750	0.005130	0.005130
H11	H1	0.942300	0.643800	0.246600
H21	H2	0.004100	0.598300	0.336300
H31	H3	0.241300	0.523300	0.236700
H41	H4	0.178200	0.568600	0.146600
H51	H5	0.049800	0.734700	0.136700
H61	H6	0.963100	0.840900	0.116700
H71	H7	0.794600	0.801700	0.049900
H81	H8	0.875100	0.695400	0.076600
H91	H9	0.022800	0.517800	0.162200
H101	H10	0.064200	0.459000	0.097600
H111	H11	0.107800	0.612300	0.942300
H121	H12	0.067300	0.675000	0.007400
H131	H13	0.332700	0.856200	0.253400
H141	H14	0.438700	0.901700	0.163700
H151	H15	0.501300	0.976700	0.263300
H161	H16	0.393400	0.931400	0.353400
H171	H17	0.421200	0.765300	0.363300
H181	H18	0.420700	0.659100	0.383300
H191	H19	0.146200	0.698300	0.450100
H201	H20	0.147100	0.804600	0.423400
H211	H21	0.202800	0.982200	0.337800
H221	H22	0.120800	0.041000	0.402400
H231	H23	0.162400	0.887700	0.557700
H241	H24	0.249700	0.825000	0.492600
H251	H25	0.332700	0.253400	0.856200
H261	H26	0.438700	0.163700	0.901700
H271	H27	0.501300	0.263300	0.976700
H281	H28	0.393400	0.353400	0.931400
H291	H29	0.421200	0.363300	0.765300
H301	H30	0.420700	0.383300	0.659100
H311	H31	0.146200	0.450100	0.698300
H321	H32	0.147100	0.423400	0.804600
H331	H33	0.202800	0.337800	0.982200
H341	H34	0.120800	0.402400	0.041000
H351	H35	0.162400	0.557700	0.887700
H361	H36	0.249700	0.492600	0.825000
H371	H37	0.942300	0.246600	0.643800
H381	H38	0.004100	0.336300	0.598300
H391	H39	0.241300	0.236700	0.523300
H401	H40	0.178200	0.146600	0.568600
H411	H41	0.049800	0.136700	0.734700
H421	H42	0.963100	0.116700	0.840900
H431	H43	0.794600	0.049900	0.801700
H441	H44	0.875100	0.076600	0.695400
H451	H45	0.022800	0.162200	0.517800
H461	H46	0.064200	0.097600	0.459000
H471	H47	0.107800	0.942300	0.612300
H481	H48	0.067300	0.007400	0.675000
C11	C1	0.053860	0.610490	0.188190
C21	C2	0.002570	0.619190	0.244470
C31	C3	0.040000	0.591570	0.298430
C41	C4	0.127480	0.555020	0.297620
C51	C5	0.180570	0.547130	0.239130
C61	C6	0.142930	0.574570	0.184970
C71	C7	0.174090	0.524210	0.352210
C81	C8	0.964790	0.704910	0.114110
C91	C9	0.995960	0.747840	0.121840
C101	C10	0.945950	0.812250	0.107250
C111	C11	0.871430	0.833410	0.078930
C121	C12	0.845040	0.788470	0.068450
C131	C13	0.892300	0.724600	0.085000
C141	C14	0.815870	0.901930	0.058530
C151	C15	0.038950	0.602050	0.092450
C161	C16	0.040490	0.537810	0.117810
C171	C17	0.067630	0.502170	0.078770
C181	C18	0.100180	0.528120	0.012120
C191	C19	0.093900	0.592300	0.986900
C201	C20	0.066600	0.631300	0.026100
C211	C21	0.352540	0.889510	0.311810
C221	C22	0.366230	0.880810	0.255530
C231	C23	0.430000	0.908430	0.201570
C241	C24	0.480120	0.944980	0.202380
C251	C25	0.466830	0.952870	0.260870
C261	C26	0.402470	0.925430	0.315030
C271	C27	0.550510	0.975790	0.147790
C281	C28	0.283810	0.795090	0.385890
C291	C29	0.365640	0.752160	0.378160
C301	C30	0.365450	0.687750	0.392750
C311	C31	0.283770	0.666590	0.421070
C321	C32	0.201960	0.711530	0.431550
C331	C33	0.201900	0.775400	0.415000
C341	C34	0.276330	0.598070	0.441470
C351	C35	0.233450	0.897950	0.407550
C361	C36	0.196110	0.962190	0.382190
C371	C37	0.148570	0.997830	0.421230
C381	C38	0.140420	0.971880	0.487880
C391	C39	0.173100	0.907700	0.513100
C401	C40	0.224000	0.868700	0.473900
C411	C41	0.352540	0.311810	0.889510
C421	C42	0.366230	0.255530	0.880810
C431	C43	0.430000	0.201570	0.908430
C441	C44	0.480120	0.202380	0.944980
C451	C45	0.466830	0.260870	0.952870
C461	C46	0.402470	0.315030	0.925430
C471	C47	0.550510	0.147790	0.975790
C481	C48	0.283810	0.385890	0.795090
C491	C49	0.365640	0.378160	0.752160
C501	C50	0.365450	0.392750	0.687750
C511	C51	0.283770	0.421070	0.666590
C521	C52	0.201960	0.431550	0.711530
C531	C53	0.201900	0.415000	0.775400
C541	C54	0.276330	0.441470	0.598070
C551	C55	0.233450	0.407550	0.897950
C561	C56	0.196110	0.382190	0.962190
C571	C57	0.148570	0.421230	0.997830
C581	C58	0.140420	0.487880	0.971880
C591	C59	0.173100	0.513100	0.907700
C601	C60	0.224000	0.473900	0.868700
C611	C61	0.053860	0.188190	0.610490
C621	C62	0.002570	0.244470	0.619190
C631	C63	0.040000	0.298430	0.591570
C641	C64	0.127480	0.297620	0.555020
C651	C65	0.180570	0.239130	0.547130
C661	C66	0.142930	0.184970	0.574570
C671	C67	0.174090	0.352210	0.524210
C681	C68	0.964790	0.114110	0.704910
C691	C69	0.995960	0.121840	0.747840
C701	C70	0.945950	0.107250	0.812250
C711	C71	0.871430	0.078930	0.833410
C721	C72	0.845040	0.068450	0.788470
C731	C73	0.892300	0.085000	0.724600
C741	C74	0.815870	0.058530	0.901930
C751	C75	0.038950	0.092450	0.602050
C761	C76	0.040490	0.117810	0.537810
C771	C77	0.067630	0.078770	0.502170
C781	C78	0.100180	0.012120	0.528120
C791	C79	0.093900	0.986900	0.592300
C801	C80	0.066600	0.026100	0.631300
N11	N1	0.016030	0.639170	0.131970
N21	N2	0.287170	0.860830	0.368030
N31	N3	0.287170	0.368030	0.860830
N41	N4	0.016030	0.131970	0.639170
O11	O1	0.748440	0.918550	0.037570
O21	O2	0.853980	0.939200	0.066240
O31	O3	0.124200	0.525980	0.407620
O41	O4	0.258660	0.500040	0.341840
O51	O5	0.204560	0.581450	0.462430
O61	O6	0.359420	0.560800	0.433760
O71	O7	0.557800	0.974020	0.092380
O81	O8	0.600540	0.999960	0.158160
O91	O9	0.204560	0.462430	0.581450
O101	O10	0.359420	0.433760	0.560800
O111	O11	0.557800	0.092380	0.974020
O121	O12	0.600540	0.158160	0.999960
O131	O13	0.748440	0.037570	0.918550
O141	O14	0.853980	0.066240	0.939200
O151	O15	0.124200	0.407620	0.525980
O161	O16	0.258660	0.341840	0.500040
Mg31	Mg3	0.341250	0.994870	0.994870
Mg41	Mg4	0.830990	0.505130	0.505130
H491	H49	0.667300	0.746600	0.143800
H501	H50	0.561300	0.836300	0.098300
H511	H51	0.498700	0.736700	0.023300
H521	H52	0.606600	0.646600	0.068600
H531	H53	0.578800	0.636700	0.234700
H541	H54	0.579300	0.616700	0.340900
H551	H55	0.853800	0.549900	0.301700
H561	H56	0.852900	0.576600	0.195400
H571	H57	0.797200	0.662200	0.017800
H581	H58	0.879200	0.597600	0.959000
H591	H59	0.837600	0.442300	0.112300
H601	H60	0.750300	0.507400	0.175000
H611	H61	0.057700	0.753400	0.356200
H621	H62	0.995900	0.663700	0.401700
H631	H63	0.758700	0.763300	0.476700
H641	H64	0.821800	0.853400	0.431400
H651	H65	0.950200	0.863300	0.265300
H661	H66	0.036900	0.883300	0.159100
H671	H67	0.205400	0.950100	0.198300
H681	H68	0.124900	0.923400	0.304600
H691	H69	0.977200	0.837800	0.482200
H701	H70	0.935800	0.902400	0.541000
H711	H71	0.892200	0.057700	0.387700
H721	H72	0.932700	0.992600	0.325000
H731	H73	0.057700	0.356200	0.753400
H741	H74	0.995900	0.401700	0.663700
H751	H75	0.758700	0.476700	0.763300
H761	H76	0.821800	0.431400	0.853400
H771	H77	0.950200	0.265300	0.863300
H781	H78	0.036900	0.159100	0.883300
H791	H79	0.205400	0.198300	0.950100
H801	H80	0.124900	0.304600	0.923400
H811	H81	0.977200	0.482200	0.837800
H821	H82	0.935800	0.541000	0.902400
H831	H83	0.892200	0.387700	0.057700
H841	H84	0.932700	0.325000	0.992600
H851	H85	0.667300	0.143800	0.746600
H861	H86	0.561300	0.098300	0.836300
H871	H87	0.498700	0.023300	0.736700
H881	H88	0.606600	0.068600	0.646600
H891	H89	0.578800	0.234700	0.636700
H901	H90	0.579300	0.340900	0.616700
H911	H91	0.853800	0.301700	0.549900
H921	H92	0.852900	0.195400	0.576600
H931	H93	0.797200	0.017800	0.662200
H941	H94	0.879200	0.959000	0.597600
H951	H95	0.837600	0.112300	0.442300
H961	H96	0.750300	0.175000	0.507400
C811	C81	0.647460	0.688190	0.110490
C821	C82	0.633770	0.744470	0.119190
C831	C83	0.570000	0.798430	0.091570
C841	C84	0.519880	0.797620	0.055020
C851	C85	0.533170	0.739130	0.047130
C861	C86	0.597530	0.684970	0.074570
C871	C87	0.449490	0.852210	0.024210
C881	C88	0.716190	0.614110	0.204910
C891	C89	0.634360	0.621840	0.247840
C901	C90	0.634550	0.607250	0.312250
C911	C91	0.716230	0.578930	0.333410
C921	C92	0.798040	0.568450	0.288470
C931	C93	0.798100	0.585000	0.224600
C941	C94	0.723670	0.558530	0.401930
C951	C95	0.766550	0.592450	0.102050
C961	C96	0.803890	0.617810	0.037810
C971	C97	0.851430	0.578770	0.002170
C981	C98	0.859580	0.512120	0.028120
C991	C99	0.826900	0.486900	0.092300
C1001	C100	0.776000	0.526100	0.131300
C1011	C101	0.946140	0.811810	0.389510
C1021	C102	0.997430	0.755530	0.380810
C1031	C103	0.960000	0.701570	0.408430
C1041	C104	0.872520	0.702380	0.444980
C1051	C105	0.819430	0.760870	0.452870
C1061	C106	0.857070	0.815030	0.425430
C1071	C107	0.825910	0.647790	0.475790
C1081	C108	0.035210	0.885890	0.295090
C1091	C109	0.004040	0.878160	0.252160
C1101	C110	0.054050	0.892750	0.187750
C1111	C111	0.128570	0.921070	0.166590
C1121	C112	0.154960	0.931550	0.211530
C1131	C113	0.107700	0.915000	0.275400
C1141	C114	0.184130	0.941470	0.098070
C1151	C115	0.961050	0.907550	0.397950
C1161	C116	0.959510	0.882190	0.462190
C1171	C117	0.932370	0.921230	0.497830
C1181	C118	0.899820	0.987880	0.471880
C1191	C119	0.906100	0.013100	0.407700
C1201	C120	0.933400	0.973900	0.368700
C1211	C121	0.946140	0.389510	0.811810
C1221	C122	0.997430	0.380810	0.755530
C1231	C123	0.960000	0.408430	0.701570
C1241	C124	0.872520	0.444980	0.702380
C1251	C125	0.819430	0.452870	0.760870
C1261	C126	0.857070	0.425430	0.815030
C1271	C127	0.825910	0.475790	0.647790
C1281	C128	0.035210	0.295090	0.885890
C1291	C129	0.004040	0.252160	0.878160
C1301	C130	0.054050	0.187750	0.892750
C1311	C131	0.128570	0.166590	0.921070
C1321	C132	0.154960	0.211530	0.931550
C1331	C133	0.107700	0.275400	0.915000
C1341	C134	0.184130	0.098070	0.941470
C1351	C135	0.961050	0.397950	0.907550
C1361	C136	0.959510	0.462190	0.882190
C1371	C137	0.932370	0.497830	0.921230
C1381	C138	0.899820	0.471880	0.987880
C1391	C139	0.906100	0.407700	0.013100
C1401	C140	0.933400	0.368700	0.973900
C1411	C141	0.647460	0.110490	0.688190
C1421	C142	0.633770	0.119190	0.744470
C1431	C143	0.570000	0.091570	0.798430
C1441	C144	0.519880	0.055020	0.797620
C1451	C145	0.533170	0.047130	0.739130
C1461	C146	0.597530	0.074570	0.684970
C1471	C147	0.449490	0.024210	0.852210
C1481	C148	0.716190	0.204910	0.614110
C1491	C149	0.634360	0.247840	0.621840
C1501	C150	0.634550	0.312250	0.607250
C1511	C151	0.716230	0.333410	0.578930
C1521	C152	0.798040	0.288470	0.568450
C1531	C153	0.798100	0.224600	0.585000
C1541	C154	0.723670	0.401930	0.558530
C1551	C155	0.766550	0.102050	0.592450
C1561	C156	0.803890	0.037810	0.617810
C1571	C157	0.851430	0.002170	0.578770
C1581	C158	0.859580	0.028120	0.512120
C1591	C159	0.826900	0.092300	0.486900
C1601	C160	0.776000	0.131300	0.526100
N51	N5	0.712830	0.631970	0.139170
N61	N6	0.983970	0.868030	0.360830
N71	N7	0.983970	0.360830	0.868030
N81	N8	0.712830	0.139170	0.631970
O171	O17	0.795440	0.537570	0.418550
O181	O18	0.640580	0.566240	0.439200
O191	O19	0.442200	0.907620	0.025980
O201	O20	0.399460	0.841840	0.000040
O211	O21	0.251560	0.962430	0.081450
O221	O22	0.146020	0.933760	0.060800
O231	O23	0.875800	0.592380	0.474020
O241	O24	0.741340	0.658160	0.499960
O251	O25	0.251560	0.081450	0.962430
O261	O26	0.146020	0.060800	0.933760
O271	O27	0.875800	0.474020	0.592380
O281	O28	0.741340	0.499960	0.658160
O291	O29	0.795440	0.418550	0.537570
O301	O30	0.640580	0.439200	0.566240
O311	O31	0.442200	0.025980	0.907620
O321	O32	0.399460	0.000040	0.841840
