data_MUDTAH_clean_PM
_symmetry_space_group_name_H-M	'P1'
_cell_length_a	30.302400
_cell_length_b	30.302400
_cell_length_c	30.302400
_cell_angle_alpha	60.000000
_cell_angle_beta	60.000000
_cell_angle_gamma	60.000000
_symmetry_Int_Tables_number 1

loop_
_symmetry_equiv_pos_as_xyz
'x,y,z'

loop_
_atom_site_label
_atom_site_type_symbol
_atom_site_fract_x
_atom_site_fract_y
_atom_site_fract_z
Zn11	Zn1	0.757800	0.500000	0.500000
Zn21	Zn2	0.857290	0.500000	0.500000
Zn31	Zn3	0.500000	0.757800	0.242200
Zn41	Zn4	0.500000	0.857290	0.142710
Zn51	Zn5	0.500000	0.242200	0.757800
Zn61	Zn6	0.500000	0.142710	0.857290
Zn71	Zn7	0.242200	0.500000	0.500000
Zn81	Zn8	0.142710	0.500000	0.500000
Zn91	Zn9	0.757800	0.500000	0.242200
Zn101	Zn10	0.857290	0.500000	0.142710
Zn111	Zn11	0.500000	0.242200	0.500000
Zn121	Zn12	0.500000	0.142710	0.500000
Zn131	Zn13	0.500000	0.757800	0.500000
Zn141	Zn14	0.500000	0.857290	0.500000
Zn151	Zn15	0.242200	0.500000	0.757800
Zn161	Zn16	0.142710	0.500000	0.857290
Zn171	Zn17	0.757800	0.242200	0.500000
Zn181	Zn18	0.857290	0.142710	0.500000
Zn191	Zn19	0.500000	0.500000	0.757800
Zn201	Zn20	0.500000	0.500000	0.857290
Zn211	Zn21	0.500000	0.500000	0.242200
Zn221	Zn22	0.500000	0.500000	0.142710
Zn231	Zn23	0.242200	0.757800	0.500000
Zn241	Zn24	0.142710	0.857290	0.500000
H11	H1	0.805000	0.464000	0.671400
H21	H2	0.464000	0.805000	0.059600
H31	H3	0.671400	0.059600	0.805000
H41	H4	0.059600	0.671400	0.464000
H51	H5	0.805000	0.671400	0.059600
H61	H6	0.464000	0.059600	0.671400
H71	H7	0.671400	0.805000	0.464000
H81	H8	0.059600	0.464000	0.805000
H91	H9	0.805000	0.059600	0.464000
H101	H10	0.464000	0.671400	0.805000
H111	H11	0.671400	0.464000	0.059600
H121	H12	0.059600	0.805000	0.671400
H131	H13	0.536000	0.195000	0.328600
H141	H14	0.195000	0.536000	0.940400
H151	H15	0.940400	0.328600	0.195000
H161	H16	0.328600	0.940400	0.536000
H171	H17	0.328600	0.195000	0.940400
H181	H18	0.940400	0.536000	0.328600
H191	H19	0.195000	0.328600	0.536000
H201	H20	0.536000	0.940400	0.195000
H211	H21	0.940400	0.195000	0.536000
H221	H22	0.328600	0.536000	0.195000
H231	H23	0.536000	0.328600	0.940400
H241	H24	0.195000	0.940400	0.328600
H251	H25	0.195000	0.536000	0.328600
H261	H26	0.536000	0.195000	0.940400
H271	H27	0.328600	0.940400	0.195000
H281	H28	0.940400	0.328600	0.536000
H291	H29	0.195000	0.328600	0.940400
H301	H30	0.536000	0.940400	0.328600
H311	H31	0.328600	0.195000	0.536000
H321	H32	0.940400	0.536000	0.195000
H331	H33	0.195000	0.940400	0.536000
H341	H34	0.536000	0.328600	0.195000
H351	H35	0.328600	0.536000	0.940400
H361	H36	0.940400	0.195000	0.328600
H371	H37	0.464000	0.805000	0.671400
H381	H38	0.805000	0.464000	0.059600
H391	H39	0.059600	0.671400	0.805000
H401	H40	0.671400	0.059600	0.464000
H411	H41	0.671400	0.805000	0.059600
H421	H42	0.059600	0.464000	0.671400
H431	H43	0.805000	0.671400	0.464000
H441	H44	0.464000	0.059600	0.805000
H451	H45	0.059600	0.805000	0.464000
H461	H46	0.671400	0.464000	0.805000
H471	H47	0.464000	0.671400	0.059600
H481	H48	0.805000	0.059600	0.671400
H491	H49	0.665200	0.484800	0.665200
H501	H50	0.484800	0.665200	0.184800
H511	H51	0.665200	0.184800	0.665200
H521	H52	0.184800	0.665200	0.484800
H531	H53	0.665200	0.665200	0.184800
H541	H54	0.484800	0.184800	0.665200
H551	H55	0.665200	0.665200	0.484800
H561	H56	0.184800	0.484800	0.665200
H571	H57	0.665200	0.184800	0.484800
H581	H58	0.484800	0.665200	0.665200
H591	H59	0.665200	0.484800	0.184800
H601	H60	0.184800	0.665200	0.665200
H611	H61	0.515200	0.334800	0.334800
H621	H62	0.334800	0.515200	0.815200
H631	H63	0.815200	0.334800	0.334800
H641	H64	0.334800	0.815200	0.515200
H651	H65	0.334800	0.334800	0.815200
H661	H66	0.815200	0.515200	0.334800
H671	H67	0.334800	0.334800	0.515200
H681	H68	0.515200	0.815200	0.334800
H691	H69	0.815200	0.334800	0.515200
H701	H70	0.334800	0.515200	0.334800
H711	H71	0.515200	0.334800	0.815200
H721	H72	0.334800	0.815200	0.334800
H731	H73	0.894800	0.447400	0.763000
H741	H74	0.447400	0.894800	0.894800
H751	H75	0.763000	0.894800	0.894800
H761	H76	0.894800	0.763000	0.447400
H771	H77	0.894800	0.763000	0.894800
H781	H78	0.447400	0.894800	0.763000
H791	H79	0.763000	0.894800	0.447400
H801	H80	0.894800	0.447400	0.894800
H811	H81	0.894800	0.894800	0.447400
H821	H82	0.447400	0.763000	0.894800
H831	H83	0.763000	0.447400	0.894800
H841	H84	0.894800	0.894800	0.763000
H851	H85	0.552600	0.105200	0.237000
H861	H86	0.105200	0.552600	0.105200
H871	H87	0.105200	0.237000	0.105200
H881	H88	0.237000	0.105200	0.552600
H891	H89	0.237000	0.105200	0.105200
H901	H90	0.105200	0.552600	0.237000
H911	H91	0.105200	0.237000	0.552600
H921	H92	0.552600	0.105200	0.105200
H931	H93	0.105200	0.105200	0.552600
H941	H94	0.237000	0.552600	0.105200
H951	H95	0.552600	0.237000	0.105200
H961	H96	0.105200	0.105200	0.237000
C11	C1	0.764910	0.483790	0.600530
C21	C2	0.738330	0.477130	0.659350
C31	C3	0.767680	0.468360	0.688120
C41	C4	0.483790	0.764910	0.150770
C51	C5	0.477130	0.738330	0.125190
C61	C6	0.468360	0.767680	0.075840
C71	C7	0.600530	0.150770	0.764910
C81	C8	0.659350	0.125190	0.738330
C91	C9	0.688120	0.075840	0.767680
C101	C10	0.150770	0.600530	0.483790
C111	C11	0.125190	0.659350	0.477130
C121	C12	0.075840	0.688120	0.468360
C131	C13	0.764910	0.600530	0.150770
C141	C14	0.738330	0.659350	0.125190
C151	C15	0.767680	0.688120	0.075840
C161	C16	0.483790	0.150770	0.600530
C171	C17	0.477130	0.125190	0.659350
C181	C18	0.468360	0.075840	0.688120
C191	C19	0.600530	0.764910	0.483790
C201	C20	0.659350	0.738330	0.477130
C211	C21	0.688120	0.767680	0.468360
C221	C22	0.150770	0.483790	0.764910
C231	C23	0.125190	0.477130	0.738330
C241	C24	0.075840	0.468360	0.767680
C251	C25	0.764910	0.150770	0.483790
C261	C26	0.738330	0.125190	0.477130
C271	C27	0.767680	0.075840	0.468360
C281	C28	0.483790	0.600530	0.764910
C291	C29	0.477130	0.659350	0.738330
C301	C30	0.468360	0.688120	0.767680
C311	C31	0.600530	0.483790	0.150770
C321	C32	0.659350	0.477130	0.125190
C331	C33	0.688120	0.468360	0.075840
C341	C34	0.150770	0.764910	0.600530
C351	C35	0.125190	0.738330	0.659350
C361	C36	0.075840	0.767680	0.688120
C371	C37	0.516210	0.235090	0.399470
C381	C38	0.522870	0.261670	0.340650
C391	C39	0.531640	0.232320	0.311880
C401	C40	0.235090	0.516210	0.849230
C411	C41	0.261670	0.522870	0.874810
C421	C42	0.232320	0.531640	0.924160
C431	C43	0.849230	0.399470	0.235090
C441	C44	0.874810	0.340650	0.261670
C451	C45	0.924160	0.311880	0.232320
C461	C46	0.399470	0.849230	0.516210
C471	C47	0.340650	0.874810	0.522870
C481	C48	0.311880	0.924160	0.531640
C491	C49	0.399470	0.235090	0.849230
C501	C50	0.340650	0.261670	0.874810
C511	C51	0.311880	0.232320	0.924160
C521	C52	0.849230	0.516210	0.399470
C531	C53	0.874810	0.522870	0.340650
C541	C54	0.924160	0.531640	0.311880
C551	C55	0.235090	0.399470	0.516210
C561	C56	0.261670	0.340650	0.522870
C571	C57	0.232320	0.311880	0.531640
C581	C58	0.516210	0.849230	0.235090
C591	C59	0.522870	0.874810	0.261670
C601	C60	0.531640	0.924160	0.232320
C611	C61	0.849230	0.235090	0.516210
C621	C62	0.874810	0.261670	0.522870
C631	C63	0.924160	0.232320	0.531640
C641	C64	0.399470	0.516210	0.235090
C651	C65	0.340650	0.522870	0.261670
C661	C66	0.311880	0.531640	0.232320
C671	C67	0.516210	0.399470	0.849230
C681	C68	0.522870	0.340650	0.874810
C691	C69	0.531640	0.311880	0.924160
C701	C70	0.235090	0.849230	0.399470
C711	C71	0.261670	0.874810	0.340650
C721	C72	0.232320	0.924160	0.311880
C731	C73	0.235090	0.516210	0.399470
C741	C74	0.261670	0.522870	0.340650
C751	C75	0.232320	0.531640	0.311880
C761	C76	0.516210	0.235090	0.849230
C771	C77	0.522870	0.261670	0.874810
C781	C78	0.531640	0.232320	0.924160
C791	C79	0.399470	0.849230	0.235090
C801	C80	0.340650	0.874810	0.261670
C811	C81	0.311880	0.924160	0.232320
C821	C82	0.849230	0.399470	0.516210
C831	C83	0.874810	0.340650	0.522870
C841	C84	0.924160	0.311880	0.531640
C851	C85	0.235090	0.399470	0.849230
C861	C86	0.261670	0.340650	0.874810
C871	C87	0.232320	0.311880	0.924160
C881	C88	0.516210	0.849230	0.399470
C891	C89	0.522870	0.874810	0.340650
C901	C90	0.531640	0.924160	0.311880
C911	C91	0.399470	0.235090	0.516210
C921	C92	0.340650	0.261670	0.522870
C931	C93	0.311880	0.232320	0.531640
C941	C94	0.849230	0.516210	0.235090
C951	C95	0.874810	0.522870	0.261670
C961	C96	0.924160	0.531640	0.232320
C971	C97	0.235090	0.849230	0.516210
C981	C98	0.261670	0.874810	0.522870
C991	C99	0.232320	0.924160	0.531640
C1001	C100	0.516210	0.399470	0.235090
C1011	C101	0.522870	0.340650	0.261670
C1021	C102	0.531640	0.311880	0.232320
C1031	C103	0.399470	0.516210	0.849230
C1041	C104	0.340650	0.522870	0.874810
C1051	C105	0.311880	0.531640	0.924160
C1061	C106	0.849230	0.235090	0.399470
C1071	C107	0.874810	0.261670	0.340650
C1081	C108	0.924160	0.232320	0.311880
C1091	C109	0.483790	0.764910	0.600530
C1101	C110	0.477130	0.738330	0.659350
C1111	C111	0.468360	0.767680	0.688120
C1121	C112	0.764910	0.483790	0.150770
C1131	C113	0.738330	0.477130	0.125190
C1141	C114	0.767680	0.468360	0.075840
C1151	C115	0.150770	0.600530	0.764910
C1161	C116	0.125190	0.659350	0.738330
C1171	C117	0.075840	0.688120	0.767680
C1181	C118	0.600530	0.150770	0.483790
C1191	C119	0.659350	0.125190	0.477130
C1201	C120	0.688120	0.075840	0.468360
C1211	C121	0.600530	0.764910	0.150770
C1221	C122	0.659350	0.738330	0.125190
C1231	C123	0.688120	0.767680	0.075840
C1241	C124	0.150770	0.483790	0.600530
C1251	C125	0.125190	0.477130	0.659350
C1261	C126	0.075840	0.468360	0.688120
C1271	C127	0.764910	0.600530	0.483790
C1281	C128	0.738330	0.659350	0.477130
C1291	C129	0.767680	0.688120	0.468360
C1301	C130	0.483790	0.150770	0.764910
C1311	C131	0.477130	0.125190	0.738330
C1321	C132	0.468360	0.075840	0.767680
C1331	C133	0.150770	0.764910	0.483790
C1341	C134	0.125190	0.738330	0.477130
C1351	C135	0.075840	0.767680	0.468360
C1361	C136	0.600530	0.483790	0.764910
C1371	C137	0.659350	0.477130	0.738330
C1381	C138	0.688120	0.468360	0.767680
C1391	C139	0.483790	0.600530	0.150770
C1401	C140	0.477130	0.659350	0.125190
C1411	C141	0.468360	0.688120	0.075840
C1421	C142	0.764910	0.150770	0.600530
C1431	C143	0.738330	0.125190	0.659350
C1441	C144	0.767680	0.075840	0.688120
C1451	C145	0.684640	0.480340	0.684640
C1461	C146	0.741540	0.466100	0.741540
C1471	C147	0.772100	0.455300	0.772100
C1481	C148	0.797700	0.445900	0.797700
C1491	C149	0.824600	0.447000	0.824600
C1501	C150	0.480340	0.684640	0.150380
C1511	C151	0.466100	0.741540	0.050820
C1521	C152	0.455300	0.772100	0.000500
C1531	C153	0.445900	0.797700	0.958700
C1541	C154	0.447000	0.824600	0.903800
C1551	C155	0.684640	0.150380	0.684640
C1561	C156	0.741540	0.050820	0.741540
C1571	C157	0.772100	0.000500	0.772100
C1581	C158	0.797700	0.958700	0.797700
C1591	C159	0.824600	0.903800	0.824600
C1601	C160	0.150380	0.684640	0.480340
C1611	C161	0.050820	0.741540	0.466100
C1621	C162	0.000500	0.772100	0.455300
C1631	C163	0.958700	0.797700	0.445900
C1641	C164	0.903800	0.824600	0.447000
C1651	C165	0.684640	0.684640	0.150380
C1661	C166	0.741540	0.741540	0.050820
C1671	C167	0.772100	0.772100	0.000500
C1681	C168	0.797700	0.797700	0.958700
C1691	C169	0.824600	0.824600	0.903800
C1701	C170	0.480340	0.150380	0.684640
C1711	C171	0.466100	0.050820	0.741540
C1721	C172	0.455300	0.000500	0.772100
C1731	C173	0.445900	0.958700	0.797700
C1741	C174	0.447000	0.903800	0.824600
C1751	C175	0.684640	0.684640	0.480340
C1761	C176	0.741540	0.741540	0.466100
C1771	C177	0.772100	0.772100	0.455300
C1781	C178	0.797700	0.797700	0.445900
C1791	C179	0.824600	0.824600	0.447000
C1801	C180	0.150380	0.480340	0.684640
C1811	C181	0.050820	0.466100	0.741540
C1821	C182	0.000500	0.455300	0.772100
C1831	C183	0.958700	0.445900	0.797700
C1841	C184	0.903800	0.447000	0.824600
C1851	C185	0.684640	0.150380	0.480340
C1861	C186	0.741540	0.050820	0.466100
C1871	C187	0.772100	0.000500	0.455300
C1881	C188	0.797700	0.958700	0.445900
C1891	C189	0.824600	0.903800	0.447000
C1901	C190	0.480340	0.684640	0.684640
C1911	C191	0.466100	0.741540	0.741540
C1921	C192	0.455300	0.772100	0.772100
C1931	C193	0.445900	0.797700	0.797700
C1941	C194	0.447000	0.824600	0.824600
C1951	C195	0.684640	0.480340	0.150380
C1961	C196	0.741540	0.466100	0.050820
C1971	C197	0.772100	0.455300	0.000500
C1981	C198	0.797700	0.445900	0.958700
C1991	C199	0.824600	0.447000	0.903800
C2001	C200	0.150380	0.684640	0.684640
C2011	C201	0.050820	0.741540	0.741540
C2021	C202	0.000500	0.772100	0.772100
C2031	C203	0.958700	0.797700	0.797700
C2041	C204	0.903800	0.824600	0.824600
C2051	C205	0.519660	0.315360	0.315360
C2061	C206	0.533900	0.258460	0.258460
C2071	C207	0.544700	0.227900	0.227900
C2081	C208	0.554100	0.202300	0.202300
C2091	C209	0.553000	0.175400	0.175400
C2101	C210	0.315360	0.519660	0.849620
C2111	C211	0.258460	0.533900	0.949180
C2121	C212	0.227900	0.544700	0.999500
C2131	C213	0.202300	0.554100	0.041300
C2141	C214	0.175400	0.553000	0.096200
C2151	C215	0.849620	0.315360	0.315360
C2161	C216	0.949180	0.258460	0.258460
C2171	C217	0.999500	0.227900	0.227900
C2181	C218	0.041300	0.202300	0.202300
C2191	C219	0.096200	0.175400	0.175400
C2201	C220	0.315360	0.849620	0.519660
C2211	C221	0.258460	0.949180	0.533900
C2221	C222	0.227900	0.999500	0.544700
C2231	C223	0.202300	0.041300	0.554100
C2241	C224	0.175400	0.096200	0.553000
C2251	C225	0.315360	0.315360	0.849620
C2261	C226	0.258460	0.258460	0.949180
C2271	C227	0.227900	0.227900	0.999500
C2281	C228	0.202300	0.202300	0.041300
C2291	C229	0.175400	0.175400	0.096200
C2301	C230	0.849620	0.519660	0.315360
C2311	C231	0.949180	0.533900	0.258460
C2321	C232	0.999500	0.544700	0.227900
C2331	C233	0.041300	0.554100	0.202300
C2341	C234	0.096200	0.553000	0.175400
C2351	C235	0.315360	0.315360	0.519660
C2361	C236	0.258460	0.258460	0.533900
C2371	C237	0.227900	0.227900	0.544700
C2381	C238	0.202300	0.202300	0.554100
C2391	C239	0.175400	0.175400	0.553000
C2401	C240	0.519660	0.849620	0.315360
C2411	C241	0.533900	0.949180	0.258460
C2421	C242	0.544700	0.999500	0.227900
C2431	C243	0.554100	0.041300	0.202300
C2441	C244	0.553000	0.096200	0.175400
C2451	C245	0.849620	0.315360	0.519660
C2461	C246	0.949180	0.258460	0.533900
C2471	C247	0.999500	0.227900	0.544700
C2481	C248	0.041300	0.202300	0.554100
C2491	C249	0.096200	0.175400	0.553000
C2501	C250	0.315360	0.519660	0.315360
C2511	C251	0.258460	0.533900	0.258460
C2521	C252	0.227900	0.544700	0.227900
C2531	C253	0.202300	0.554100	0.202300
C2541	C254	0.175400	0.553000	0.175400
C2551	C255	0.519660	0.315360	0.849620
C2561	C256	0.533900	0.258460	0.949180
C2571	C257	0.544700	0.227900	0.999500
C2581	C258	0.554100	0.202300	0.041300
C2591	C259	0.553000	0.175400	0.096200
C2601	C260	0.315360	0.849620	0.315360
C2611	C261	0.258460	0.949180	0.258460
C2621	C262	0.227900	0.999500	0.227900
C2631	C263	0.202300	0.041300	0.202300
C2641	C264	0.175400	0.096200	0.175400
C2651	C265	0.876800	0.447200	0.799200
C2661	C266	0.447200	0.876800	0.876800
C2671	C267	0.799200	0.876800	0.876800
C2681	C268	0.876800	0.799200	0.447200
C2691	C269	0.876800	0.799200	0.876800
C2701	C270	0.447200	0.876800	0.799200
C2711	C271	0.799200	0.876800	0.447200
C2721	C272	0.876800	0.447200	0.876800
C2731	C273	0.876800	0.876800	0.447200
C2741	C274	0.447200	0.799200	0.876800
C2751	C275	0.799200	0.447200	0.876800
C2761	C276	0.876800	0.876800	0.799200
C2771	C277	0.552800	0.123200	0.200800
C2781	C278	0.123200	0.552800	0.123200
C2791	C279	0.123200	0.200800	0.123200
C2801	C280	0.200800	0.123200	0.552800
C2811	C281	0.200800	0.123200	0.123200
C2821	C282	0.123200	0.552800	0.200800
C2831	C283	0.123200	0.200800	0.552800
C2841	C284	0.552800	0.123200	0.123200
C2851	C285	0.123200	0.123200	0.552800
C2861	C286	0.200800	0.552800	0.123200
C2871	C287	0.552800	0.200800	0.123200
C2881	C288	0.123200	0.123200	0.200800
O11	O1	0.737710	0.486810	0.578350
O21	O2	0.811250	0.487170	0.578130
O31	O3	0.486810	0.737710	0.197130
O41	O4	0.487170	0.811250	0.123450
O51	O5	0.578350	0.197130	0.737710
O61	O6	0.578130	0.123450	0.811250
O71	O7	0.197130	0.578350	0.486810
O81	O8	0.123450	0.578130	0.487170
O91	O9	0.737710	0.578350	0.197130
O101	O10	0.811250	0.578130	0.123450
O111	O11	0.486810	0.197130	0.578350
O121	O12	0.487170	0.123450	0.578130
O131	O13	0.578350	0.737710	0.486810
O141	O14	0.578130	0.811250	0.487170
O151	O15	0.197130	0.486810	0.737710
O161	O16	0.123450	0.487170	0.811250
O171	O17	0.737710	0.197130	0.486810
O181	O18	0.811250	0.123450	0.487170
O191	O19	0.486810	0.578350	0.737710
O201	O20	0.487170	0.578130	0.811250
O211	O21	0.578350	0.486810	0.197130
O221	O22	0.578130	0.487170	0.123450
O231	O23	0.197130	0.737710	0.578350
O241	O24	0.123450	0.811250	0.578130
O251	O25	0.513190	0.262290	0.421650
O261	O26	0.512830	0.188750	0.421870
O271	O27	0.262290	0.513190	0.802870
O281	O28	0.188750	0.512830	0.876550
O291	O29	0.802870	0.421650	0.262290
O301	O30	0.876550	0.421870	0.188750
O311	O31	0.421650	0.802870	0.513190
O321	O32	0.421870	0.876550	0.512830
O331	O33	0.421650	0.262290	0.802870
O341	O34	0.421870	0.188750	0.876550
O351	O35	0.802870	0.513190	0.421650
O361	O36	0.876550	0.512830	0.421870
O371	O37	0.262290	0.421650	0.513190
O381	O38	0.188750	0.421870	0.512830
O391	O39	0.513190	0.802870	0.262290
O401	O40	0.512830	0.876550	0.188750
O411	O41	0.802870	0.262290	0.513190
O421	O42	0.876550	0.188750	0.512830
O431	O43	0.421650	0.513190	0.262290
O441	O44	0.421870	0.512830	0.188750
O451	O45	0.513190	0.421650	0.802870
O461	O46	0.512830	0.421870	0.876550
O471	O47	0.262290	0.802870	0.421650
O481	O48	0.188750	0.876550	0.421870
O491	O49	0.262290	0.513190	0.421650
O501	O50	0.188750	0.512830	0.421870
O511	O51	0.513190	0.262290	0.802870
O521	O52	0.512830	0.188750	0.876550
O531	O53	0.421650	0.802870	0.262290
O541	O54	0.421870	0.876550	0.188750
O551	O55	0.802870	0.421650	0.513190
O561	O56	0.876550	0.421870	0.512830
O571	O57	0.262290	0.421650	0.802870
O581	O58	0.188750	0.421870	0.876550
O591	O59	0.513190	0.802870	0.421650
O601	O60	0.512830	0.876550	0.421870
O611	O61	0.421650	0.262290	0.513190
O621	O62	0.421870	0.188750	0.512830
O631	O63	0.802870	0.513190	0.262290
O641	O64	0.876550	0.512830	0.188750
O651	O65	0.262290	0.802870	0.513190
O661	O66	0.188750	0.876550	0.512830
O671	O67	0.513190	0.421650	0.262290
O681	O68	0.512830	0.421870	0.188750
O691	O69	0.421650	0.513190	0.802870
O701	O70	0.421870	0.512830	0.876550
O711	O71	0.802870	0.262290	0.421650
O721	O72	0.876550	0.188750	0.421870
O731	O73	0.486810	0.737710	0.578350
O741	O74	0.487170	0.811250	0.578130
O751	O75	0.737710	0.486810	0.197130
O761	O76	0.811250	0.487170	0.123450
O771	O77	0.197130	0.578350	0.737710
O781	O78	0.123450	0.578130	0.811250
O791	O79	0.578350	0.197130	0.486810
O801	O80	0.578130	0.123450	0.487170
O811	O81	0.578350	0.737710	0.197130
O821	O82	0.578130	0.811250	0.123450
O831	O83	0.197130	0.486810	0.578350
O841	O84	0.123450	0.487170	0.578130
O851	O85	0.737710	0.578350	0.486810
O861	O86	0.811250	0.578130	0.487170
O871	O87	0.486810	0.197130	0.737710
O881	O88	0.487170	0.123450	0.811250
O891	O89	0.197130	0.737710	0.486810
O901	O90	0.123450	0.811250	0.487170
O911	O91	0.578350	0.486810	0.737710
O921	O92	0.578130	0.487170	0.811250
O931	O93	0.486810	0.578350	0.197130
O941	O94	0.487170	0.578130	0.123450
O951	O95	0.737710	0.197130	0.578350
O961	O96	0.811250	0.123450	0.578130
