data_MUFLAC_clean_PM
_symmetry_space_group_name_H-M	'P1'
_cell_length_a	10.188000
_cell_length_b	10.838600
_cell_length_c	13.872100
_cell_angle_alpha	78.673000
_cell_angle_beta	79.281000
_cell_angle_gamma	86.126000
_symmetry_Int_Tables_number 1

loop_
_symmetry_equiv_pos_as_xyz
'x,y,z'

loop_
_atom_site_label
_atom_site_type_symbol
_atom_site_fract_x
_atom_site_fract_y
_atom_site_fract_z
C11	C1	0.595200	0.900700	0.214300
C21	C2	0.736600	0.885900	0.167400
C31	C3	0.844000	0.895400	0.214300
H11	H1	0.827100	0.912100	0.278800
C41	C4	0.973000	0.881000	0.168600
C51	C5	0.000400	0.854800	0.071700
H21	H2	0.088200	0.848100	0.039000
C61	C6	0.893900	0.838900	0.024900
C71	C7	0.764100	0.858000	0.070900
H31	H3	0.694000	0.852400	0.037600
C81	C8	0.092100	0.892900	0.216200
C91	C9	0.004200	0.704500	0.911500
C101	C10	0.008400	0.666000	0.813200
C111	C11	0.015200	0.747700	0.722500
H41	H4	0.013600	0.834300	0.719000
C121	C12	0.024400	0.697500	0.636700
H51	H5	0.032200	0.752300	0.575500
C131	C13	0.015500	0.496800	0.725600
H61	H6	0.013200	0.410800	0.727200
C141	C14	0.011200	0.537800	0.816000
H71	H7	0.010300	0.480700	0.875700
C151	C15	0.272500	0.605500	0.352700
C161	C16	0.300300	0.527300	0.273100
C171	C17	0.323100	0.583500	0.172400
H81	H8	0.329100	0.670500	0.154400
C181	C18	0.337000	0.511300	0.098200
C191	C19	0.335600	0.380600	0.126600
H91	H9	0.346800	0.330500	0.078300
C201	C20	0.317700	0.325400	0.226900
C211	C21	0.298900	0.398200	0.299600
H101	H10	0.285200	0.360100	0.366700
C221	C22	0.312600	0.189000	0.252100
C231	C23	0.333900	0.518500	0.921000
C241	C24	0.348400	0.602100	0.819300
C251	C25	0.348100	0.731700	0.800400
H111	H11	0.343400	0.775700	0.852200
C261	C26	0.355000	0.795500	0.702600
H121	H12	0.357100	0.882900	0.690300
C271	C27	0.359300	0.614700	0.642700
H131	H13	0.362800	0.574300	0.589000
C281	C28	0.354900	0.542600	0.736600
H141	H14	0.356200	0.455300	0.745500
N11	N1	0.918000	0.801500	0.930800
H151	H15	0.876900	0.841300	0.884600
N21	N2	0.022700	0.574100	0.638000
N31	N3	0.354500	0.570500	0.997000
H161	H16	0.380700	0.646700	0.982600
N41	N4	0.358700	0.738800	0.625700
O11	O1	0.562500	0.900900	0.307600
O21	O2	0.505700	0.914500	0.161700
O31	O3	0.071600	0.905300	0.308300
O41	O4	0.205800	0.888200	0.166000
O51	O5	0.076400	0.652800	0.968500
O61	O6	0.321300	0.711900	0.333500
O71	O7	0.199600	0.562300	0.433500
O81	O8	0.325500	0.130700	0.339100
O91	O9	0.295900	0.126300	0.189200
O101	O10	0.304900	0.411400	0.928800
Sm11	Sm1	0.319860	0.923360	0.296660
C291	C29	0.404800	0.099300	0.785700
C301	C30	0.263400	0.114100	0.832600
C311	C31	0.156000	0.104600	0.785700
H171	H17	0.172900	0.087900	0.721200
C321	C32	0.027000	0.119000	0.831400
C331	C33	0.999600	0.145200	0.928300
H181	H18	0.911800	0.151900	0.961000
C341	C34	0.106100	0.161100	0.975100
C351	C35	0.235900	0.142000	0.929100
H191	H19	0.306000	0.147600	0.962400
C361	C36	0.907900	0.107100	0.783800
C371	C37	0.995800	0.295500	0.088500
C381	C38	0.991600	0.334000	0.186800
C391	C39	0.984800	0.252300	0.277500
H201	H20	0.986400	0.165700	0.281000
C401	C40	0.975600	0.302500	0.363300
H211	H21	0.967800	0.247700	0.424500
C411	C41	0.984500	0.503200	0.274400
H221	H22	0.986800	0.589200	0.272800
C421	C42	0.988800	0.462200	0.184000
H231	H23	0.989700	0.519300	0.124300
C431	C43	0.727500	0.394500	0.647300
C441	C44	0.699700	0.472700	0.726900
C451	C45	0.676900	0.416500	0.827600
H241	H24	0.670900	0.329500	0.845600
C461	C46	0.663000	0.488700	0.901800
C471	C47	0.664400	0.619400	0.873400
H251	H25	0.653200	0.669500	0.921700
C481	C48	0.682300	0.674600	0.773100
C491	C49	0.701100	0.601800	0.700400
H261	H26	0.714800	0.639900	0.633300
C501	C50	0.687400	0.811000	0.747900
C511	C51	0.666100	0.481500	0.079000
C521	C52	0.651600	0.397900	0.180700
C531	C53	0.651900	0.268300	0.199600
H271	H27	0.656600	0.224300	0.147800
C541	C54	0.645000	0.204500	0.297400
H281	H28	0.642900	0.117100	0.309700
C551	C55	0.640700	0.385300	0.357300
H291	H29	0.637200	0.425700	0.411000
C561	C56	0.645100	0.457400	0.263400
H301	H30	0.643800	0.544700	0.254500
N51	N5	0.082000	0.198500	0.069200
H311	H31	0.123100	0.158700	0.115400
N61	N6	0.977300	0.425900	0.362000
N71	N7	0.645500	0.429500	0.003000
H321	H32	0.619300	0.353300	0.017400
N81	N8	0.641300	0.261200	0.374300
O111	O11	0.437500	0.099100	0.692400
O121	O12	0.494300	0.085500	0.838300
O131	O13	0.928400	0.094700	0.691700
O141	O14	0.794200	0.111800	0.834000
O151	O15	0.923600	0.347200	0.031500
O161	O16	0.678700	0.288100	0.666500
O171	O17	0.800400	0.437700	0.566500
O181	O18	0.674500	0.869300	0.660900
O191	O19	0.704100	0.873700	0.810800
O201	O20	0.695100	0.588600	0.071200
Sm21	Sm2	0.680140	0.076640	0.703340
Mn11	Mn1	0.000000	0.500000	0.500000
