data_MUFYAP_clean_PM
_symmetry_space_group_name_H-M	'P1'
_cell_length_a	8.560700
_cell_length_b	14.102300
_cell_length_c	20.294000
_cell_angle_alpha	88.539200
_cell_angle_beta	86.499800
_cell_angle_gamma	81.251900
_symmetry_Int_Tables_number 1

loop_
_symmetry_equiv_pos_as_xyz
'x,y,z'

loop_
_atom_site_label
_atom_site_type_symbol
_atom_site_fract_x
_atom_site_fract_y
_atom_site_fract_z
C11	C1	0.252500	0.588300	0.092270
C21	C2	0.387300	0.536200	0.047260
C31	C3	0.490500	0.450800	0.058740
C41	C4	0.504300	0.387600	0.121800
C51	C5	0.127100	0.932700	0.090110
C61	C6	0.977600	0.910500	0.061900
C71	C7	0.821600	0.956600	0.077650
C81	C8	0.723800	0.848400	0.015940
C91	C9	0.875400	0.803800	0.997910
C101	C10	0.919000	0.721100	0.950200
C111	C11	0.782300	0.045500	0.118900
C121	C12	0.575600	0.812500	0.997200
C131	C13	0.206300	0.582200	0.403440
C141	C14	0.091500	0.535300	0.450650
C151	C15	0.982500	0.545200	0.559020
C161	C16	0.989900	0.599900	0.621930
C171	C17	0.492700	0.021500	0.352100
C181	C18	0.481300	0.945200	0.406400
C191	C19	0.345000	0.905400	0.426950
C201	C20	0.495700	0.799100	0.496360
C211	C21	0.631000	0.840600	0.474330
C221	C22	0.795200	0.804400	0.497000
C231	C23	0.496500	0.717300	0.544680
C241	C24	0.177600	0.933100	0.405630
N11	N1	0.071400	0.577700	0.509350
N21	N2	0.356500	0.833500	0.471820
N31	N3	0.000600	0.835800	0.022090
N41	N4	0.696400	0.923600	0.055610
N51	N5	0.621600	0.913700	0.431630
O11	O1	0.215600	0.675700	0.079240
O21	O2	0.185700	0.542600	0.136310
N61	N6	0.400600	0.582600	0.989070
O31	O3	0.438300	0.419800	0.174640
O41	O4	0.586800	0.306700	0.114740
O51	O5	0.065000	0.688200	0.942710
O61	O6	0.808900	0.695100	0.921190
O71	O7	0.254900	0.891200	0.063850
O81	O8	0.109800	0.989300	0.137750
O91	O9	0.530600	0.744300	0.030410
O101	O10	0.497500	0.855700	0.951530
O111	O11	0.830100	0.121000	0.095510
O121	O12	0.702100	0.039000	0.171630
O131	O13	0.278500	0.536200	0.356980
O141	O14	0.224600	0.666000	0.418490
O151	O15	0.033200	0.681100	0.613520
O161	O16	0.962100	0.560300	0.676190
O171	O17	0.445500	0.003900	0.297440
O181	O18	0.557600	0.092000	0.365980
O191	O19	0.149300	0.000500	0.363640
O201	O20	0.076700	0.886500	0.432840
O211	O21	0.361800	0.690600	0.558600
O221	O22	0.624400	0.681200	0.566840
O231	O23	0.845700	0.840500	0.544510
O241	O24	0.876100	0.741100	0.459890
Gd11	Gd1	0.275040	0.762860	0.980960
Gd21	Gd2	0.231670	0.485810	0.247660
Gd31	Gd3	0.118990	0.759550	0.514280
Gd41	Gd4	0.211560	0.030190	0.241490
C251	C25	0.747500	0.411700	0.907730
C261	C26	0.612700	0.463800	0.952740
C271	C27	0.509500	0.549200	0.941260
C281	C28	0.495700	0.612400	0.878200
C291	C29	0.872900	0.067300	0.909890
C301	C30	0.022400	0.089500	0.938100
C311	C31	0.178400	0.043400	0.922350
C321	C32	0.276200	0.151600	0.984060
C331	C33	0.124600	0.196200	0.002090
C341	C34	0.081000	0.278900	0.049800
C351	C35	0.217700	0.954500	0.881100
C361	C36	0.424400	0.187500	0.002800
C371	C37	0.793700	0.417800	0.596560
C381	C38	0.908500	0.464700	0.549350
C391	C39	0.017500	0.454800	0.440980
C401	C40	0.010100	0.400100	0.378070
C411	C41	0.507300	0.978500	0.647900
C421	C42	0.518700	0.054800	0.593600
C431	C43	0.655000	0.094600	0.573050
C441	C44	0.504300	0.200900	0.503640
C451	C45	0.369000	0.159400	0.525670
C461	C46	0.204800	0.195600	0.503000
C471	C47	0.503500	0.282700	0.455320
C481	C48	0.822400	0.066900	0.594370
N71	N7	0.928600	0.422300	0.490650
N81	N8	0.643500	0.166500	0.528180
N91	N9	0.999400	0.164200	0.977910
N101	N10	0.303600	0.076400	0.944390
N111	N11	0.378400	0.086300	0.568370
O251	O25	0.784400	0.324300	0.920760
O261	O26	0.814300	0.457400	0.863690
N121	N12	0.599400	0.417400	0.010930
O271	O27	0.561700	0.580200	0.825360
O281	O28	0.413200	0.693300	0.885260
O291	O29	0.935000	0.311800	0.057290
O301	O30	0.191100	0.304900	0.078810
O311	O31	0.745100	0.108800	0.936150
O321	O32	0.890200	0.010700	0.862250
O331	O33	0.469400	0.255700	0.969590
O341	O34	0.502500	0.144300	0.048470
O351	O35	0.169900	0.879000	0.904490
O361	O36	0.297900	0.961000	0.828370
O371	O37	0.721500	0.463800	0.643020
O381	O38	0.775400	0.334000	0.581510
O391	O39	0.966800	0.318900	0.386480
O401	O40	0.037900	0.439700	0.323810
O411	O41	0.554500	0.996100	0.702560
O421	O42	0.442400	0.908000	0.634020
O431	O43	0.850700	0.999500	0.636360
O441	O44	0.923300	0.113500	0.567160
O451	O45	0.638200	0.309400	0.441400
O461	O46	0.375600	0.318800	0.433160
O471	O47	0.154300	0.159500	0.455490
O481	O48	0.123900	0.258900	0.540110
Gd51	Gd5	0.724960	0.237140	0.019040
Gd61	Gd6	0.768330	0.514190	0.752340
Gd71	Gd7	0.881010	0.240450	0.485720
Gd81	Gd8	0.788440	0.969810	0.758510
