data_MUGHED_clean_PM
_symmetry_space_group_name_H-M	'P1'
_cell_length_a	17.927000
_cell_length_b	12.869000
_cell_length_c	11.055000
_cell_angle_alpha	90.000000
_cell_angle_beta	93.140000
_cell_angle_gamma	90.000000
_symmetry_Int_Tables_number 1

loop_
_symmetry_equiv_pos_as_xyz
'x,y,z'

loop_
_atom_site_label
_atom_site_type_symbol
_atom_site_fract_x
_atom_site_fract_y
_atom_site_fract_z
Zn11	Zn1	0.419230	0.051850	0.998940
C11	C1	0.365100	0.225600	0.829700
C21	C2	0.301200	0.293000	0.779000
C31	C3	0.247200	0.329200	0.852200
H11	H1	0.249100	0.315400	0.934800
C41	C4	0.188900	0.388400	0.795300
C51	C5	0.187500	0.410100	0.671500
C61	C6	0.243100	0.374700	0.599000
H21	H2	0.242100	0.390000	0.516700
C71	C7	0.298800	0.316900	0.653000
H31	H3	0.336600	0.292200	0.606400
H41	H4	0.538000	0.140000	0.967000
N11	N1	0.127280	0.435200	0.838900
N21	N2	0.090470	0.482400	0.746100
N31	N3	0.125930	0.468700	0.644400
O11	O1	0.359780	0.187000	0.933100
O21	O2	0.417890	0.212300	0.761000
O31	O3	0.517200	0.085400	0.934900
Zn21	Zn2	0.919230	0.551850	0.998940
C81	C8	0.865100	0.725600	0.829700
C91	C9	0.801200	0.793000	0.779000
C101	C10	0.747200	0.829200	0.852200
H51	H5	0.749100	0.815400	0.934800
C111	C11	0.688900	0.888400	0.795300
C121	C12	0.687500	0.910100	0.671500
C131	C13	0.743100	0.874700	0.599000
H61	H6	0.742100	0.890000	0.516700
C141	C14	0.798800	0.816900	0.653000
H71	H7	0.836600	0.792200	0.606400
H81	H8	0.038000	0.640000	0.967000
N41	N4	0.627280	0.935200	0.838900
N51	N5	0.590470	0.982400	0.746100
N61	N6	0.625930	0.968700	0.644400
O41	O4	0.859780	0.687000	0.933100
O51	O5	0.917890	0.712300	0.761000
O61	O6	0.017200	0.585400	0.934900
Zn31	Zn3	0.580770	0.051850	0.501060
C151	C15	0.634900	0.225600	0.670300
C161	C16	0.698800	0.293000	0.721000
C171	C17	0.752800	0.329200	0.647800
H91	H9	0.750900	0.315400	0.565200
C181	C18	0.811100	0.388400	0.704700
C191	C19	0.812500	0.410100	0.828500
C201	C20	0.756900	0.374700	0.901000
H101	H10	0.757900	0.390000	0.983300
C211	C21	0.701200	0.316900	0.847000
H111	H11	0.663400	0.292200	0.893600
H121	H12	0.462000	0.140000	0.533000
N71	N7	0.872720	0.435200	0.661100
N81	N8	0.909530	0.482400	0.753900
N91	N9	0.874070	0.468700	0.855600
O71	O7	0.640220	0.187000	0.566900
O81	O8	0.582110	0.212300	0.739000
O91	O9	0.482800	0.085400	0.565100
Zn41	Zn4	0.080770	0.551850	0.501060
C221	C22	0.134900	0.725600	0.670300
C231	C23	0.198800	0.793000	0.721000
C241	C24	0.252800	0.829200	0.647800
H131	H13	0.250900	0.815400	0.565200
C251	C25	0.311100	0.888400	0.704700
C261	C26	0.312500	0.910100	0.828500
C271	C27	0.256900	0.874700	0.901000
H141	H14	0.257900	0.890000	0.983300
C281	C28	0.201200	0.816900	0.847000
H151	H15	0.163400	0.792200	0.893600
H161	H16	0.962000	0.640000	0.533000
N101	N10	0.372720	0.935200	0.661100
N111	N11	0.409530	0.982400	0.753900
N121	N12	0.374070	0.968700	0.855600
O101	O10	0.140220	0.687000	0.566900
O111	O11	0.082110	0.712300	0.739000
O121	O12	0.982800	0.585400	0.565100
Zn51	Zn5	0.580770	0.948150	0.001060
C291	C29	0.634900	0.774400	0.170300
C301	C30	0.698800	0.707000	0.221000
C311	C31	0.752800	0.670800	0.147800
H171	H17	0.750900	0.684600	0.065200
C321	C32	0.811100	0.611600	0.204700
C331	C33	0.812500	0.589900	0.328500
C341	C34	0.756900	0.625300	0.401000
H181	H18	0.757900	0.610000	0.483300
C351	C35	0.701200	0.683100	0.347000
H191	H19	0.663400	0.707800	0.393600
H201	H20	0.462000	0.860000	0.033000
N131	N13	0.872720	0.564800	0.161100
N141	N14	0.909530	0.517600	0.253900
N151	N15	0.874070	0.531300	0.355600
O131	O13	0.640220	0.813000	0.066900
O141	O14	0.582110	0.787700	0.239000
O151	O15	0.482800	0.914600	0.065100
Zn61	Zn6	0.080770	0.448150	0.001060
C361	C36	0.134900	0.274400	0.170300
C371	C37	0.198800	0.207000	0.221000
C381	C38	0.252800	0.170800	0.147800
H211	H21	0.250900	0.184600	0.065200
C391	C39	0.311100	0.111600	0.204700
C401	C40	0.312500	0.089900	0.328500
C411	C41	0.256900	0.125300	0.401000
H221	H22	0.257900	0.110000	0.483300
C421	C42	0.201200	0.183100	0.347000
H231	H23	0.163400	0.207800	0.393600
H241	H24	0.962000	0.360000	0.033000
N161	N16	0.372720	0.064800	0.161100
N171	N17	0.409530	0.017600	0.253900
N181	N18	0.374070	0.031300	0.355600
O161	O16	0.140220	0.313000	0.066900
O171	O17	0.082110	0.287700	0.239000
O181	O18	0.982800	0.414600	0.065100
Zn71	Zn7	0.419230	0.948150	0.498940
C431	C43	0.365100	0.774400	0.329700
C441	C44	0.301200	0.707000	0.279000
C451	C45	0.247200	0.670800	0.352200
H251	H25	0.249100	0.684600	0.434800
C461	C46	0.188900	0.611600	0.295300
C471	C47	0.187500	0.589900	0.171500
C481	C48	0.243100	0.625300	0.099000
H261	H26	0.242100	0.610000	0.016700
C491	C49	0.298800	0.683100	0.153000
H271	H27	0.336600	0.707800	0.106400
H281	H28	0.538000	0.860000	0.467000
N191	N19	0.127280	0.564800	0.338900
N201	N20	0.090470	0.517600	0.246100
N211	N21	0.125930	0.531300	0.144400
O191	O19	0.359780	0.813000	0.433100
O201	O20	0.417890	0.787700	0.261000
O211	O21	0.517200	0.914600	0.434900
Zn81	Zn8	0.919230	0.448150	0.498940
C501	C50	0.865100	0.274400	0.329700
C511	C51	0.801200	0.207000	0.279000
C521	C52	0.747200	0.170800	0.352200
H291	H29	0.749100	0.184600	0.434800
C531	C53	0.688900	0.111600	0.295300
C541	C54	0.687500	0.089900	0.171500
C551	C55	0.743100	0.125300	0.099000
H301	H30	0.742100	0.110000	0.016700
C561	C56	0.798800	0.183100	0.153000
H311	H31	0.836600	0.207800	0.106400
H321	H32	0.038000	0.360000	0.467000
N221	N22	0.627280	0.064800	0.338900
N231	N23	0.590470	0.017600	0.246100
N241	N24	0.625930	0.031300	0.144400
O221	O22	0.859780	0.313000	0.433100
O231	O23	0.917890	0.287700	0.261000
O241	O24	0.017200	0.414600	0.434900
Zn91	Zn9	0.500000	0.101860	0.750000
Zn101	Zn10	0.000000	0.601860	0.750000
Zn111	Zn11	0.500000	0.898140	0.250000
Zn121	Zn12	0.000000	0.398140	0.250000
