data_MUHNAG_clean_PM
_symmetry_space_group_name_H-M	'P1'
_cell_length_a	9.252900
_cell_length_b	10.635500
_cell_length_c	11.049300
_cell_angle_alpha	63.622000
_cell_angle_beta	86.489000
_cell_angle_gamma	74.907000
_symmetry_Int_Tables_number 1

loop_
_symmetry_equiv_pos_as_xyz
'x,y,z'

loop_
_atom_site_label
_atom_site_type_symbol
_atom_site_fract_x
_atom_site_fract_y
_atom_site_fract_z
Co11	Co1	0.221960	0.275290	0.481660
O11	O1	0.473400	0.309000	0.667700
O21	O2	0.324200	0.176500	0.660800
O31	O3	0.490400	0.417100	0.359200
O41	O4	0.316300	0.333900	0.308900
N11	N1	0.977900	0.338500	0.490500
N21	N2	0.805500	0.512500	0.521300
N31	N3	0.734400	0.414100	0.521300
N41	N4	0.774900	0.928600	0.508400
C11	C1	0.416600	0.205600	0.718000
C21	C2	0.460800	0.098500	0.864800
C31	C3	0.556500	0.120900	0.940400
H11	H1	0.594000	0.202400	0.900800
C41	C4	0.596900	0.022100	0.075300
H21	H2	0.662400	0.036900	0.125200
C51	C5	0.421200	0.397400	0.279900
C61	C6	0.462900	0.449200	0.134300
C71	C7	0.575900	0.518700	0.093300
H31	H3	0.627000	0.531800	0.154900
C81	C8	0.613400	0.569400	0.958300
H41	H4	0.690200	0.615900	0.930300
C91	C9	0.945400	0.463200	0.501800
C101	C10	0.839200	0.312400	0.502400
C111	C11	0.810300	0.182800	0.501700
C121	C12	0.847600	0.150400	0.392500
H51	H5	0.885200	0.213400	0.316200
C131	C13	0.827500	0.023000	0.400400
H61	H6	0.851500	0.001800	0.327300
C141	C14	0.737700	0.962600	0.611200
H71	H7	0.700000	0.898400	0.686600
C151	C15	0.753000	0.088800	0.610300
H81	H8	0.724500	0.109300	0.683100
Co21	Co2	0.778040	0.724710	0.518340
O51	O5	0.526600	0.691000	0.332300
O61	O6	0.675800	0.823500	0.339200
O71	O7	0.509600	0.582900	0.640800
O81	O8	0.683700	0.666100	0.691100
N51	N5	0.022100	0.661500	0.509500
N61	N6	0.194500	0.487500	0.478700
N71	N7	0.265600	0.585900	0.478700
N81	N8	0.225100	0.071400	0.491600
C161	C16	0.583400	0.794400	0.282000
C171	C17	0.539200	0.901500	0.135200
C181	C18	0.443500	0.879100	0.059600
H91	H9	0.406000	0.797600	0.099200
C191	C19	0.403100	0.977900	0.924700
H101	H10	0.337600	0.963100	0.874800
C201	C20	0.578800	0.602600	0.720100
C211	C21	0.537100	0.550800	0.865700
C221	C22	0.424100	0.481300	0.906700
H111	H11	0.373000	0.468200	0.845100
C231	C23	0.386600	0.430600	0.041700
H121	H12	0.309800	0.384100	0.069700
C241	C24	0.054600	0.536800	0.498200
C251	C25	0.160800	0.687600	0.497600
C261	C26	0.189700	0.817200	0.498300
C271	C27	0.152400	0.849600	0.607500
H131	H13	0.114800	0.786600	0.683800
C281	C28	0.172500	0.977000	0.599600
H141	H14	0.148500	0.998200	0.672700
C291	C29	0.262300	0.037400	0.388800
H151	H15	0.300000	0.101600	0.313400
C301	C30	0.247000	0.911200	0.389700
H161	H16	0.275500	0.890700	0.316900
Co31	Co3	0.500000	0.500000	0.500000
