data_MUJRIT_clean_PM
_symmetry_space_group_name_H-M	'P1'
_cell_length_a	10.615000
_cell_length_b	14.588900
_cell_length_c	29.856000
_cell_angle_alpha	90.000000
_cell_angle_beta	90.395000
_cell_angle_gamma	90.000000
_symmetry_Int_Tables_number 1

loop_
_symmetry_equiv_pos_as_xyz
'x,y,z'

loop_
_atom_site_label
_atom_site_type_symbol
_atom_site_fract_x
_atom_site_fract_y
_atom_site_fract_z
Cd11	Cd1	0.354570	0.166250	0.224680
Cd21	Cd2	0.814760	0.958730	0.250480
Cd31	Cd3	0.645430	0.666250	0.275320
Cd41	Cd4	0.185240	0.458730	0.249520
Cd51	Cd5	0.645430	0.833750	0.775320
Cd61	Cd6	0.185240	0.041270	0.749520
Cd71	Cd7	0.354570	0.333750	0.724680
Cd81	Cd8	0.814760	0.541270	0.750480
H11	H1	0.107400	0.874900	0.157200
H21	H2	0.140100	0.027700	0.174100
H31	H3	0.698000	0.427900	0.206000
H41	H4	0.884300	0.503200	0.220800
H51	H5	0.472100	0.347100	0.182200
H61	H6	0.562800	0.402500	0.117200
H71	H7	0.354700	0.218400	0.050500
H81	H8	0.279600	0.167900	0.118800
H91	H9	0.345900	0.364500	0.999400
H101	H10	0.786400	0.418600	0.988800
H111	H11	0.549400	0.362700	0.868500
H121	H12	0.619800	0.411400	0.800100
H131	H13	0.873600	0.567000	0.856600
H141	H14	0.810300	0.521100	0.926400
H151	H15	0.254800	0.362900	0.942400
H161	H16	0.264900	0.456200	0.969300
H171	H17	0.254400	0.447900	0.873900
H181	H18	0.256700	0.539900	0.901800
H191	H19	0.068300	0.415900	0.905000
H201	H20	0.937400	0.163600	0.114300
H211	H21	0.905100	0.403300	0.055900
H221	H22	0.880300	0.321000	0.023900
H231	H23	0.923900	0.301400	0.114200
H241	H24	0.031700	0.303400	0.079900
H251	H25	0.892600	0.374900	0.342800
H261	H26	0.859900	0.527700	0.325900
H271	H27	0.302000	0.927900	0.294000
H281	H28	0.115700	0.003200	0.279200
H291	H29	0.527900	0.847100	0.317800
H301	H30	0.437200	0.902500	0.382800
H311	H31	0.645300	0.718400	0.449500
H321	H32	0.720400	0.667900	0.381200
H331	H33	0.654100	0.864500	0.500600
H341	H34	0.213600	0.918600	0.511200
H351	H35	0.450600	0.862700	0.631500
H361	H36	0.380200	0.911400	0.699900
H371	H37	0.126400	0.067000	0.643400
H381	H38	0.189700	0.021100	0.573600
H391	H39	0.745200	0.862900	0.557600
H401	H40	0.735100	0.956200	0.530700
H411	H41	0.745600	0.947900	0.626100
H421	H42	0.743300	0.039900	0.598200
H431	H43	0.931700	0.915900	0.595000
H441	H44	0.062600	0.663600	0.385700
H451	H45	0.094900	0.903300	0.444100
H461	H46	0.119700	0.821000	0.476100
H471	H47	0.076100	0.801400	0.385800
H481	H48	0.968300	0.803400	0.420100
H491	H49	0.892600	0.125100	0.842800
H501	H50	0.859900	0.972300	0.825900
H511	H51	0.302000	0.572100	0.794000
H521	H52	0.115700	0.496800	0.779200
H531	H53	0.527900	0.652900	0.817800
H541	H54	0.437200	0.597500	0.882800
H551	H55	0.645300	0.781600	0.949500
H561	H56	0.720400	0.832100	0.881200
H571	H57	0.654100	0.635500	0.000600
H581	H58	0.213600	0.581400	0.011200
H591	H59	0.450600	0.637300	0.131500
H601	H60	0.380200	0.588600	0.199900
H611	H61	0.126400	0.433000	0.143400
H621	H62	0.189700	0.478900	0.073600
H631	H63	0.745200	0.637100	0.057600
H641	H64	0.735100	0.543800	0.030700
H651	H65	0.745600	0.552100	0.126100
H661	H66	0.743300	0.460100	0.098200
H671	H67	0.931700	0.584100	0.095000
H681	H68	0.062600	0.836400	0.885700
H691	H69	0.094900	0.596700	0.944100
H701	H70	0.119700	0.679000	0.976100
H711	H71	0.076100	0.698600	0.885800
H721	H72	0.968300	0.696600	0.920100
H731	H73	0.107400	0.625100	0.657200
H741	H74	0.140100	0.472300	0.674100
H751	H75	0.698000	0.072100	0.706000
H761	H76	0.884300	0.996800	0.720800
H771	H77	0.472100	0.152900	0.682200
H781	H78	0.562800	0.097500	0.617200
H791	H79	0.354700	0.281600	0.550500
H801	H80	0.279600	0.332100	0.618800
H811	H81	0.345900	0.135500	0.499400
H821	H82	0.786400	0.081400	0.488800
H831	H83	0.549400	0.137300	0.368500
H841	H84	0.619800	0.088600	0.300100
H851	H85	0.873600	0.933000	0.356600
H861	H86	0.810300	0.978900	0.426400
H871	H87	0.254800	0.137100	0.442400
H881	H88	0.264900	0.043800	0.469300
H891	H89	0.254400	0.052100	0.373900
H901	H90	0.256700	0.960100	0.401800
H911	H91	0.068300	0.084100	0.405000
H921	H92	0.937400	0.336400	0.614300
H931	H93	0.905100	0.096700	0.555900
H941	H94	0.880300	0.179000	0.523900
H951	H95	0.923900	0.198600	0.614200
H961	H96	0.031700	0.196600	0.579900
C11	C1	0.411500	0.956400	0.199770
C21	C2	0.398600	0.863500	0.191600
C31	C3	0.184900	0.894400	0.168300
C41	C4	0.205400	0.986100	0.178450
C51	C5	0.534000	0.997200	0.217420
C61	C6	0.499700	0.792700	0.201770
C71	C7	0.993500	0.303800	0.218610
C81	C8	0.883500	0.254500	0.210700
C91	C9	0.772000	0.394500	0.209700
C101	C10	0.884500	0.439700	0.218230
C111	C11	0.122000	0.258000	0.220700
C121	C12	0.879500	0.151300	0.205500
C131	C13	0.463700	0.313700	0.155800
C141	C14	0.508300	0.352600	0.116300
C151	C15	0.470300	0.315700	0.075600
C161	C16	0.385800	0.243300	0.077000
C171	C17	0.347500	0.208100	0.117800
C181	C18	0.501400	0.398800	0.960400
C191	C19	0.630200	0.402900	0.949900
C201	C20	0.517300	0.351800	0.033600
C211	C21	0.433100	0.370300	0.998100
C221	C22	0.703500	0.398000	0.988400
C231	C23	0.647500	0.360500	0.026500
C241	C24	0.672500	0.435300	0.905900
C251	C25	0.616000	0.404100	0.867000
C261	C26	0.658300	0.434200	0.825880
C271	C27	0.807500	0.525500	0.858900
C281	C28	0.769900	0.497700	0.901100
C291	C29	0.283800	0.425900	0.941300
C301	C30	0.229600	0.476400	0.901900
C311	C31	0.869000	0.342000	0.054300
C321	C32	0.947000	0.281400	0.084000
C331	C33	0.588500	0.456400	0.300230
C341	C34	0.601400	0.363500	0.308400
C351	C35	0.815100	0.394400	0.331700
C361	C36	0.794600	0.486100	0.321550
C371	C37	0.466000	0.497200	0.282580
C381	C38	0.500300	0.292700	0.298230
C391	C39	0.006500	0.803800	0.281390
C401	C40	0.116500	0.754500	0.289300
C411	C41	0.228000	0.894500	0.290300
C421	C42	0.115500	0.939700	0.281770
C431	C43	0.878000	0.758000	0.279300
C441	C44	0.120500	0.651300	0.294500
C451	C45	0.536300	0.813700	0.344200
C461	C46	0.491700	0.852600	0.383700
C471	C47	0.529700	0.815700	0.424400
C481	C48	0.614200	0.743300	0.423000
C491	C49	0.652500	0.708100	0.382200
C501	C50	0.498600	0.898800	0.539600
C511	C51	0.369800	0.902900	0.550100
C521	C52	0.482700	0.851800	0.466400
C531	C53	0.566900	0.870300	0.501900
C541	C54	0.296500	0.898000	0.511600
C551	C55	0.352500	0.860500	0.473500
C561	C56	0.327500	0.935300	0.594100
C571	C57	0.384000	0.904100	0.633000
C581	C58	0.341700	0.934200	0.674120
C591	C59	0.192500	0.025500	0.641100
C601	C60	0.230100	0.997700	0.598900
C611	C61	0.716200	0.925900	0.558700
C621	C62	0.770400	0.976400	0.598100
C631	C63	0.131000	0.842000	0.445700
C641	C64	0.053000	0.781400	0.416000
C651	C65	0.588500	0.043600	0.800230
C661	C66	0.601400	0.136500	0.808400
C671	C67	0.815100	0.105600	0.831700
C681	C68	0.794600	0.013900	0.821550
C691	C69	0.466000	0.002800	0.782580
C701	C70	0.500300	0.207300	0.798230
C711	C71	0.006500	0.696200	0.781390
C721	C72	0.116500	0.745500	0.789300
C731	C73	0.228000	0.605500	0.790300
C741	C74	0.115500	0.560300	0.781770
C751	C75	0.878000	0.742000	0.779300
C761	C76	0.120500	0.848700	0.794500
C771	C77	0.536300	0.686300	0.844200
C781	C78	0.491700	0.647400	0.883700
C791	C79	0.529700	0.684300	0.924400
C801	C80	0.614200	0.756700	0.923000
C811	C81	0.652500	0.791900	0.882200
C821	C82	0.498600	0.601200	0.039600
C831	C83	0.369800	0.597100	0.050100
C841	C84	0.482700	0.648200	0.966400
C851	C85	0.566900	0.629700	0.001900
C861	C86	0.296500	0.602000	0.011600
C871	C87	0.352500	0.639500	0.973500
C881	C88	0.327500	0.564700	0.094100
C891	C89	0.384000	0.595900	0.133000
C901	C90	0.341700	0.565800	0.174120
C911	C91	0.192500	0.474500	0.141100
C921	C92	0.230100	0.502300	0.098900
C931	C93	0.716200	0.574100	0.058700
C941	C94	0.770400	0.523600	0.098100
C951	C95	0.131000	0.658000	0.945700
C961	C96	0.053000	0.718600	0.916000
C971	C97	0.411500	0.543600	0.699770
C981	C98	0.398600	0.636500	0.691600
C991	C99	0.184900	0.605600	0.668300
C1001	C100	0.205400	0.513900	0.678450
C1011	C101	0.534000	0.502800	0.717420
C1021	C102	0.499700	0.707300	0.701770
C1031	C103	0.993500	0.196200	0.718610
C1041	C104	0.883500	0.245500	0.710700
C1051	C105	0.772000	0.105500	0.709700
C1061	C106	0.884500	0.060300	0.718230
C1071	C107	0.122000	0.242000	0.720700
C1081	C108	0.879500	0.348700	0.705500
C1091	C109	0.463700	0.186300	0.655800
C1101	C110	0.508300	0.147400	0.616300
C1111	C111	0.470300	0.184300	0.575600
C1121	C112	0.385800	0.256700	0.577000
C1131	C113	0.347500	0.291900	0.617800
C1141	C114	0.501400	0.101200	0.460400
C1151	C115	0.630200	0.097100	0.449900
C1161	C116	0.517300	0.148200	0.533600
C1171	C117	0.433100	0.129700	0.498100
C1181	C118	0.703500	0.102000	0.488400
C1191	C119	0.647500	0.139500	0.526500
C1201	C120	0.672500	0.064700	0.405900
C1211	C121	0.616000	0.095900	0.367000
C1221	C122	0.658300	0.065800	0.325880
C1231	C123	0.807500	0.974500	0.358900
C1241	C124	0.769900	0.002300	0.401100
C1251	C125	0.283800	0.074100	0.441300
C1261	C126	0.229600	0.023600	0.401900
C1271	C127	0.869000	0.158000	0.554300
C1281	C128	0.947000	0.218600	0.584000
N11	N1	0.316200	0.016700	0.194210
N21	N2	0.282300	0.832100	0.175200
N31	N3	0.993600	0.394500	0.222830
N41	N4	0.769600	0.301400	0.206800
N51	N5	0.410500	0.232700	0.157900
N61	N6	0.752800	0.495200	0.821510
N71	N7	0.683800	0.516700	0.305790
N81	N8	0.717700	0.332100	0.324800
N91	N9	0.006400	0.894500	0.277170
N101	N10	0.230400	0.801400	0.293200
N111	N11	0.589500	0.732700	0.342100
N121	N12	0.247200	0.995200	0.678490
N131	N13	0.683800	0.983300	0.805790
N141	N14	0.717700	0.167900	0.824800
N151	N15	0.006400	0.605500	0.777170
N161	N16	0.230400	0.698600	0.793200
N171	N17	0.589500	0.767300	0.842100
N181	N18	0.247200	0.504800	0.178490
N191	N19	0.316200	0.483300	0.694210
N201	N20	0.282300	0.667900	0.675200
N211	N21	0.993600	0.105500	0.722830
N221	N22	0.769600	0.198600	0.706800
N231	N23	0.410500	0.267300	0.657900
N241	N24	0.752800	0.004800	0.321510
O11	O1	0.538300	0.079700	0.227670
O21	O2	0.624600	0.941600	0.219330
O31	O3	0.503400	0.764500	0.241010
O41	O4	0.563400	0.762700	0.169250
O51	O5	0.215700	0.305400	0.233280
O61	O6	0.130400	0.176200	0.209430
O71	O7	0.868400	0.118000	0.166850
O81	O8	0.879800	0.108500	0.241760
O91	O9	0.420200	0.432000	0.930100
O101	O10	0.090700	0.469200	0.908600
O111	O11	0.728600	0.352700	0.061300
O121	O12	0.963500	0.179500	0.089700
O131	O13	0.461700	0.579700	0.272330
O141	O14	0.375400	0.441600	0.280670
O151	O15	0.496600	0.264500	0.258990
O161	O16	0.436600	0.262700	0.330750
O171	O17	0.784300	0.805400	0.266720
O181	O18	0.869600	0.676200	0.290570
O191	O19	0.131600	0.618000	0.333150
O201	O20	0.120200	0.608500	0.258240
O211	O21	0.579800	0.932000	0.569900
O221	O22	0.909300	0.969200	0.591400
O231	O23	0.271400	0.852700	0.438700
O241	O24	0.036500	0.679500	0.410300
O251	O25	0.461700	0.920300	0.772330
O261	O26	0.375400	0.058400	0.780670
O271	O27	0.496600	0.235500	0.758990
O281	O28	0.436600	0.237300	0.830750
O291	O29	0.784300	0.694600	0.766720
O301	O30	0.869600	0.823800	0.790570
O311	O31	0.131600	0.882000	0.833150
O321	O32	0.120200	0.891500	0.758240
O331	O33	0.579800	0.568000	0.069900
O341	O34	0.909300	0.530800	0.091400
O351	O35	0.271400	0.647300	0.938700
O361	O36	0.036500	0.820500	0.910300
O371	O37	0.538300	0.420300	0.727670
O381	O38	0.624600	0.558400	0.719330
O391	O39	0.503400	0.735500	0.741010
O401	O40	0.563400	0.737300	0.669250
O411	O41	0.215700	0.194600	0.733280
O421	O42	0.130400	0.323800	0.709430
O431	O43	0.868400	0.382000	0.666850
O441	O44	0.879800	0.391500	0.741760
O451	O45	0.420200	0.068000	0.430100
O461	O46	0.090700	0.030800	0.408600
O471	O47	0.728600	0.147300	0.561300
O481	O48	0.963500	0.320500	0.589700
