data_MUKRIU_clean_PM
_symmetry_space_group_name_H-M	'P1'
_cell_length_a	8.241200
_cell_length_b	10.834700
_cell_length_c	22.844500
_cell_angle_alpha	82.915500
_cell_angle_beta	79.608300
_cell_angle_gamma	67.646700
_symmetry_Int_Tables_number 1

loop_
_symmetry_equiv_pos_as_xyz
'x,y,z'

loop_
_atom_site_label
_atom_site_type_symbol
_atom_site_fract_x
_atom_site_fract_y
_atom_site_fract_z
Ag11	Ag1	0.140570	0.116630	0.152970
Ag21	Ag2	0.410170	0.383370	0.347030
Ag31	Ag3	0.859430	0.883370	0.847030
Ag41	Ag4	0.589830	0.616630	0.652970
H11	H1	0.248000	0.156100	0.995300
H21	H2	0.817600	0.374100	0.093500
H31	H3	0.670100	0.860500	0.722100
H41	H4	0.617500	0.529500	0.795300
H51	H5	0.991800	0.973200	0.070200
H61	H6	0.485300	0.820500	0.099100
H71	H7	0.399400	0.343900	0.504700
H81	H8	0.285200	0.125900	0.406500
H91	H9	0.252700	0.639500	0.777900
H101	H10	0.942300	0.970500	0.704700
H111	H11	0.035200	0.526800	0.429800
H121	H12	0.404900	0.679500	0.400900
H131	H13	0.752000	0.843900	0.004700
H141	H14	0.182400	0.625900	0.906500
H151	H15	0.329900	0.139500	0.277900
H161	H16	0.382500	0.470500	0.204700
H171	H17	0.008200	0.026800	0.929800
H181	H18	0.514700	0.179500	0.900900
H191	H19	0.600600	0.656100	0.495300
H201	H20	0.714800	0.874100	0.593500
H211	H21	0.747300	0.360500	0.222100
H221	H22	0.057700	0.029500	0.295300
H231	H23	0.964800	0.473200	0.570200
H241	H24	0.595100	0.320500	0.599100
C11	C1	0.623360	0.583770	0.020510
C21	C2	0.766760	0.500180	0.979100
C31	C3	0.774150	0.530660	0.918240
C41	C4	0.649850	0.644630	0.894070
C51	C5	0.518980	0.730160	0.933280
C61	C6	0.505420	0.702690	0.994270
C71	C7	0.136620	0.224460	0.006700
C81	C8	0.906700	0.339200	0.060800
C91	C9	0.664100	0.790660	0.750940
C101	C10	0.635400	0.612020	0.789180
C111	C11	0.115530	0.922230	0.065510
C121	C12	0.379620	0.841960	0.082400
C131	C13	0.227640	0.916230	0.479490
C141	C14	0.246040	0.999820	0.520900
C151	C15	0.223050	0.969340	0.581760
C161	C16	0.188550	0.855370	0.605930
C171	C17	0.182420	0.769840	0.566720
C181	C18	0.202380	0.797310	0.505730
C191	C19	0.367780	0.275540	0.493300
C201	C20	0.306700	0.160800	0.439200
C211	C21	0.205700	0.709340	0.749060
C221	C22	0.036600	0.887980	0.710820
C231	C23	0.103270	0.577770	0.434490
C241	C24	0.303980	0.658040	0.417600
C251	C25	0.376640	0.416230	0.979490
C261	C26	0.233240	0.499820	0.020900
C271	C27	0.225850	0.469340	0.081760
C281	C28	0.350150	0.355370	0.105930
C291	C29	0.481020	0.269840	0.066720
C301	C30	0.494580	0.297310	0.005730
C311	C31	0.863380	0.775540	0.993300
C321	C32	0.093300	0.660800	0.939200
C331	C33	0.335900	0.209340	0.249060
C341	C34	0.364600	0.387980	0.210820
C351	C35	0.884470	0.077770	0.934490
C361	C36	0.620380	0.158040	0.917600
C371	C37	0.772360	0.083770	0.520510
C381	C38	0.753960	0.000180	0.479100
C391	C39	0.776950	0.030660	0.418240
C401	C40	0.811450	0.144630	0.394070
C411	C41	0.817580	0.230160	0.433280
C421	C42	0.797620	0.202690	0.494270
C431	C43	0.632220	0.724460	0.506700
C441	C44	0.693300	0.839200	0.560800
C451	C45	0.794300	0.290660	0.250940
C461	C46	0.963400	0.112020	0.289180
C471	C47	0.896730	0.422230	0.565510
C481	C48	0.696020	0.341960	0.582400
N11	N1	0.899620	0.388950	0.003610
N21	N2	0.050840	0.314190	0.968330
N31	N3	0.054710	0.235620	0.064560
N41	N4	0.911850	0.445910	0.873590
N51	N5	0.660850	0.675140	0.831560
N61	N6	0.679550	0.792130	0.807170
N71	N7	0.638950	0.681490	0.737610
N81	N8	0.395220	0.855440	0.908120
N91	N9	0.368320	0.791560	0.033000
N101	N10	0.196220	0.843900	0.021460
N111	N11	0.222480	0.925390	0.104250
N121	N12	0.292180	0.111050	0.496390
N131	N13	0.333360	0.185810	0.531670
N141	N14	0.354890	0.264380	0.435440
N151	N15	0.231350	0.054090	0.626410
N161	N16	0.167550	0.824860	0.668440
N171	N17	0.278850	0.707870	0.692830
N181	N18	0.058050	0.818510	0.762390
N191	N19	0.158780	0.644560	0.591880
N201	N20	0.192880	0.708440	0.467000
N211	N21	0.061580	0.656100	0.478540
N221	N22	0.252120	0.574610	0.395750
N231	N23	0.100380	0.611050	0.996390
N241	N24	0.949160	0.685810	0.031670
N251	N25	0.945290	0.764380	0.935440
N261	N26	0.088150	0.554090	0.126410
N271	N27	0.339150	0.324860	0.168440
N281	N28	0.320450	0.207870	0.192830
N291	N29	0.361050	0.318510	0.262390
N301	N30	0.604780	0.144560	0.091880
N311	N31	0.631680	0.208440	0.967000
N321	N32	0.803780	0.156100	0.978540
N331	N33	0.777520	0.074610	0.895750
N341	N34	0.707820	0.888950	0.503610
N351	N35	0.666640	0.814190	0.468330
N361	N36	0.645110	0.735620	0.564560
N371	N37	0.768650	0.945910	0.373590
N381	N38	0.832450	0.175140	0.331560
N391	N39	0.721150	0.292130	0.307170
N401	N40	0.941950	0.181490	0.237610
N411	N41	0.841220	0.355440	0.408120
N421	N42	0.807120	0.291560	0.533000
N431	N43	0.938420	0.343900	0.521460
N441	N44	0.747880	0.425390	0.604250
O11	O1	0.604710	0.556400	0.075980
O21	O2	0.889160	0.348380	0.860300
O31	O3	0.033210	0.484120	0.851260
O41	O4	0.393740	0.960590	0.923530
O51	O5	0.303940	0.846540	0.873380
O61	O6	0.237090	0.943600	0.424020
O71	O7	0.097840	0.151620	0.639700
O81	O8	0.368590	0.015880	0.648740
O91	O9	0.277860	0.539410	0.576470
O101	O10	0.023860	0.653460	0.626620
O111	O11	0.395290	0.443600	0.924020
O121	O12	0.110840	0.651620	0.139700
O131	O13	0.966790	0.515880	0.148740
O141	O14	0.606260	0.039410	0.076470
O151	O15	0.696060	0.153460	0.126620
O161	O16	0.762910	0.056400	0.575980
O171	O17	0.902160	0.848380	0.360300
O181	O18	0.631410	0.984120	0.351260
O191	O19	0.722140	0.460590	0.423530
O201	O20	0.976140	0.346540	0.373380
