data_MUNDAC_clean_PM
_symmetry_space_group_name_H-M	'P1'
_cell_length_a	19.209000
_cell_length_b	19.209000
_cell_length_c	10.991000
_cell_angle_alpha	90.000000
_cell_angle_beta	90.000000
_cell_angle_gamma	90.000000
_symmetry_Int_Tables_number 1

loop_
_symmetry_equiv_pos_as_xyz
'x,y,z'

loop_
_atom_site_label
_atom_site_type_symbol
_atom_site_fract_x
_atom_site_fract_y
_atom_site_fract_z
O11	O1	0.035810	0.566360	0.149440
O21	O2	0.983470	0.618550	0.992300
C11	C1	0.079230	0.690780	0.241200
H11	H1	0.094100	0.649000	0.275200
C21	C2	0.033990	0.688170	0.143800
C31	C3	0.015470	0.618660	0.091200
O31	O3	0.464190	0.933640	0.149440
O41	O4	0.516530	0.881450	0.992300
C41	C4	0.420770	0.809220	0.241200
H21	H2	0.405900	0.851000	0.275200
C51	C5	0.466010	0.811830	0.143800
C61	C6	0.484530	0.881340	0.091200
O51	O5	0.933640	0.035810	0.149440
O61	O6	0.881450	0.983470	0.992300
C71	C7	0.809220	0.079230	0.241200
H31	H3	0.851000	0.094100	0.275200
C81	C8	0.811830	0.033990	0.143800
C91	C9	0.881340	0.015470	0.091200
O71	O7	0.566360	0.464190	0.149440
O81	O8	0.618550	0.516530	0.992300
C101	C10	0.690780	0.420770	0.241200
H41	H4	0.649000	0.405900	0.275200
C111	C11	0.688170	0.466010	0.143800
C121	C12	0.618660	0.484530	0.091200
O91	O9	0.964190	0.066360	0.850560
O101	O10	0.016530	0.118550	0.007700
C131	C13	0.920770	0.190780	0.758800
H51	H5	0.905900	0.149000	0.724800
C141	C14	0.966010	0.188170	0.856200
C151	C15	0.984530	0.118660	0.908800
O111	O11	0.535810	0.433640	0.850560
O121	O12	0.483470	0.381450	0.007700
C161	C16	0.579230	0.309220	0.758800
H61	H6	0.594100	0.351000	0.724800
C171	C17	0.533990	0.311830	0.856200
C181	C18	0.515470	0.381340	0.908800
O131	O13	0.066360	0.535810	0.850560
O141	O14	0.118550	0.483470	0.007700
C191	C19	0.190780	0.579230	0.758800
H71	H7	0.149000	0.594100	0.724800
C201	C20	0.188170	0.533990	0.856200
C211	C21	0.118660	0.515470	0.908800
O151	O15	0.433640	0.964190	0.850560
O161	O16	0.381450	0.016530	0.007700
C221	C22	0.309220	0.920770	0.758800
H81	H8	0.351000	0.905900	0.724800
C231	C23	0.311830	0.966010	0.856200
C241	C24	0.381340	0.984530	0.908800
O171	O17	0.964190	0.433640	0.850560
O181	O18	0.016530	0.381450	0.007700
C251	C25	0.920770	0.309220	0.758800
H91	H9	0.905900	0.351000	0.724800
C261	C26	0.966010	0.311830	0.856200
C271	C27	0.984530	0.381340	0.908800
O191	O19	0.535810	0.066360	0.850560
O201	O20	0.483470	0.118550	0.007700
C281	C28	0.579230	0.190780	0.758800
H101	H10	0.594100	0.149000	0.724800
C291	C29	0.533990	0.188170	0.856200
C301	C30	0.515470	0.118660	0.908800
O211	O21	0.066360	0.964190	0.850560
O221	O22	0.118550	0.016530	0.007700
C311	C31	0.190780	0.920770	0.758800
H111	H11	0.149000	0.905900	0.724800
C321	C32	0.188170	0.966010	0.856200
C331	C33	0.118660	0.984530	0.908800
O231	O23	0.433640	0.535810	0.850560
O241	O24	0.381450	0.483470	0.007700
C341	C34	0.309220	0.579230	0.758800
H121	H12	0.351000	0.594100	0.724800
C351	C35	0.311830	0.533990	0.856200
C361	C36	0.381340	0.515470	0.908800
O251	O25	0.035810	0.933640	0.149440
O261	O26	0.983470	0.881450	0.992300
C371	C37	0.079230	0.809220	0.241200
H131	H13	0.094100	0.851000	0.275200
C381	C38	0.033990	0.811830	0.143800
C391	C39	0.015470	0.881340	0.091200
O271	O27	0.464190	0.566360	0.149440
O281	O28	0.516530	0.618550	0.992300
C401	C40	0.420770	0.690780	0.241200
H141	H14	0.405900	0.649000	0.275200
C411	C41	0.466010	0.688170	0.143800
C421	C42	0.484530	0.618660	0.091200
O291	O29	0.933640	0.464190	0.149440
O301	O30	0.881450	0.516530	0.992300
C431	C43	0.809220	0.420770	0.241200
H151	H15	0.851000	0.405900	0.275200
C441	C44	0.811830	0.466010	0.143800
C451	C45	0.881340	0.484530	0.091200
O311	O31	0.566360	0.035810	0.149440
O321	O32	0.618550	0.983470	0.992300
C461	C46	0.690780	0.079230	0.241200
H161	H16	0.649000	0.094100	0.275200
C471	C47	0.688170	0.033990	0.143800
C481	C48	0.618660	0.015470	0.091200
I11	I1	0.129180	0.750000	0.636330
Cu11	Cu1	0.181230	0.750000	0.413810
N11	N1	0.102800	0.750000	0.289300
C491	C49	0.011700	0.750000	0.093400
H171	H17	0.982200	0.750000	0.026400
I21	I2	0.370820	0.750000	0.636330
Cu21	Cu2	0.318770	0.750000	0.413810
N21	N2	0.397200	0.750000	0.289300
C501	C50	0.488300	0.750000	0.093400
H181	H18	0.517800	0.750000	0.026400
I31	I3	0.750000	0.129180	0.636330
Cu31	Cu3	0.750000	0.181230	0.413810
N31	N3	0.750000	0.102800	0.289300
C511	C51	0.750000	0.011700	0.093400
H191	H19	0.750000	0.982200	0.026400
I41	I4	0.750000	0.370820	0.636330
Cu41	Cu4	0.750000	0.318770	0.413810
N41	N4	0.750000	0.397200	0.289300
C521	C52	0.750000	0.488300	0.093400
H201	H20	0.750000	0.517800	0.026400
I51	I5	0.870820	0.250000	0.363670
Cu51	Cu5	0.818770	0.250000	0.586190
N51	N5	0.897200	0.250000	0.710700
C531	C53	0.988300	0.250000	0.906600
H211	H21	0.017800	0.250000	0.973600
I61	I6	0.629180	0.250000	0.363670
Cu61	Cu6	0.681230	0.250000	0.586190
N61	N6	0.602800	0.250000	0.710700
C541	C54	0.511700	0.250000	0.906600
H221	H22	0.482200	0.250000	0.973600
I71	I7	0.250000	0.629180	0.363670
Cu71	Cu7	0.250000	0.681230	0.586190
N71	N7	0.250000	0.602800	0.710700
C551	C55	0.250000	0.511700	0.906600
H231	H23	0.250000	0.482200	0.973600
I81	I8	0.250000	0.870820	0.363670
Cu81	Cu8	0.250000	0.818770	0.586190
N81	N8	0.250000	0.897200	0.710700
C561	C56	0.250000	0.988300	0.906600
H241	H24	0.250000	0.017800	0.973600
Cu91	Cu9	0.030680	0.469320	0.094880
Cu101	Cu10	0.469320	0.030680	0.094880
Cu111	Cu11	0.030680	0.030680	0.094880
Cu121	Cu12	0.469320	0.469320	0.094880
Cu131	Cu13	0.969320	0.969320	0.905120
Cu141	Cu14	0.530680	0.530680	0.905120
Cu151	Cu15	0.969320	0.530680	0.905120
Cu161	Cu16	0.530680	0.969320	0.905120
