data_MUPQAQ_clean_PM
_symmetry_space_group_name_H-M	'P1'
_cell_length_a	11.022700
_cell_length_b	11.604900
_cell_length_c	15.801900
_cell_angle_alpha	97.219000
_cell_angle_beta	102.518000
_cell_angle_gamma	102.964000
_symmetry_Int_Tables_number 1

loop_
_symmetry_equiv_pos_as_xyz
'x,y,z'

loop_
_atom_site_label
_atom_site_type_symbol
_atom_site_fract_x
_atom_site_fract_y
_atom_site_fract_z
Cu11	Cu1	0.845260	0.713950	0.136920
Cu21	Cu2	0.574860	0.493210	0.126620
Cu31	Cu3	0.006060	0.326010	0.036430
Cu41	Cu4	0.289430	0.588410	0.050840
Cu51	Cu5	0.628270	0.633180	0.514950
N11	N1	0.679900	0.735100	0.093500
N21	N2	0.572200	0.652600	0.093600
N31	N3	0.472000	0.695300	0.066000
N41	N4	0.511300	0.805000	0.047000
N51	N5	0.894700	0.146200	0.029600
N61	N6	0.403300	0.384900	0.113000
N71	N7	0.297600	0.419000	0.076800
N81	N8	0.194300	0.334100	0.077300
N91	N9	0.229700	0.244200	0.113100
N101	N10	0.576900	0.062900	0.256600
H11	H1	0.623100	0.023000	0.285400
N111	N11	0.066500	0.658400	0.090500
N121	N12	0.009800	0.687900	0.153000
N131	N13	0.084700	0.694900	0.232900
N141	N14	0.181700	0.643800	0.129600
N151	N15	0.472300	0.629800	0.434100
N161	N16	0.909000	0.399800	0.116900
N171	N17	0.798400	0.425700	0.079400
N181	N18	0.743700	0.456800	0.142300
N191	N19	0.815300	0.452600	0.221500
N201	N20	0.224600	0.380300	0.403000
C11	C1	0.358100	0.276900	0.133900
C21	C2	0.435600	0.201900	0.176800
C31	C3	0.560400	0.210000	0.168300
H21	H2	0.596500	0.263000	0.135500
C41	C4	0.629700	0.138300	0.209200
H31	H3	0.712900	0.142300	0.203900
C51	C5	0.456800	0.048100	0.260300
H41	H4	0.422000	0.991000	0.290800
C61	C6	0.381700	0.115100	0.220200
H51	H5	0.296000	0.102600	0.222100
C71	C7	0.189600	0.666800	0.216800
C81	C8	0.293200	0.659100	0.290200
C91	C9	0.312700	0.727300	0.374200
H61	H6	0.265400	0.782800	0.383000
C101	C10	0.402700	0.710500	0.442800
H71	H7	0.416500	0.756900	0.498200
C111	C11	0.453200	0.564400	0.353800
H81	H8	0.500300	0.508200	0.347300
C121	C12	0.366500	0.577100	0.280500
H91	H9	0.357100	0.531700	0.225500
C131	C13	0.915900	0.417600	0.203700
C141	C14	0.020700	0.402400	0.273300
C151	C15	0.087300	0.317100	0.257900
H101	H10	0.063900	0.265600	0.203600
C161	C16	0.188000	0.309200	0.323100
H111	H11	0.232700	0.252400	0.311700
C171	C17	0.157000	0.459300	0.419600
H121	H12	0.179700	0.506600	0.475500
C181	C18	0.054800	0.473300	0.357000
H131	H13	0.009700	0.529000	0.370600
C191	C19	0.639800	0.827400	0.064700
C201	C20	0.727500	0.936300	0.051900
C211	C21	0.680600	0.019800	0.006900
H141	H14	0.592700	0.007100	0.983100
H151	H15	0.896300	0.903100	0.107700
H161	H16	0.027200	0.076400	0.090000
C221	C22	0.766800	0.121500	0.998300
H171	H17	0.733800	0.176600	0.968700
C231	C23	0.938400	0.062900	0.069100
C241	C24	0.859800	0.958600	0.080700
Cu61	Cu6	0.154740	0.286050	0.863080
Cu71	Cu7	0.425140	0.506790	0.873380
Cu81	Cu8	0.993940	0.673990	0.963570
Cu91	Cu9	0.710570	0.411590	0.949160
Cu101	Cu10	0.371730	0.366820	0.485050
N211	N21	0.320100	0.264900	0.906500
N221	N22	0.427800	0.347400	0.906400
N231	N23	0.528000	0.304700	0.934000
N241	N24	0.488700	0.195000	0.953000
N251	N25	0.105300	0.853800	0.970400
N261	N26	0.596700	0.615100	0.887000
N271	N27	0.702400	0.581000	0.923200
N281	N28	0.805700	0.665900	0.922700
N291	N29	0.770300	0.755800	0.886900
N301	N30	0.423100	0.937100	0.743400
H181	H18	0.376900	0.977000	0.714600
N311	N31	0.933500	0.341600	0.909500
N321	N32	0.990200	0.312100	0.847000
N331	N33	0.915300	0.305100	0.767100
N341	N34	0.818300	0.356200	0.870400
N351	N35	0.527700	0.370200	0.565900
N361	N36	0.091000	0.600200	0.883100
N371	N37	0.201600	0.574300	0.920600
N381	N38	0.256300	0.543200	0.857700
N391	N39	0.184700	0.547400	0.778500
N401	N40	0.775400	0.619700	0.597000
C251	C25	0.641900	0.723100	0.866100
C261	C26	0.564400	0.798100	0.823200
C271	C27	0.439600	0.790000	0.831700
H191	H19	0.403500	0.737000	0.864500
C281	C28	0.370300	0.861700	0.790800
H201	H20	0.287100	0.857700	0.796100
C291	C29	0.543200	0.951900	0.739700
H211	H21	0.578000	0.009000	0.709200
C301	C30	0.618300	0.884900	0.779800
H221	H22	0.704000	0.897400	0.777900
C311	C31	0.810400	0.333200	0.783200
C321	C32	0.706800	0.340900	0.709800
C331	C33	0.687300	0.272700	0.625800
H231	H23	0.734600	0.217200	0.617000
C341	C34	0.597300	0.289500	0.557200
H241	H24	0.583500	0.243100	0.501800
C351	C35	0.546800	0.435600	0.646200
H251	H25	0.499700	0.491800	0.652700
C361	C36	0.633500	0.422900	0.719500
H261	H26	0.642900	0.468300	0.774500
C371	C37	0.084100	0.582400	0.796300
C381	C38	0.979300	0.597600	0.726700
C391	C39	0.912700	0.682900	0.742100
H271	H27	0.936100	0.734400	0.796400
C401	C40	0.812000	0.690800	0.676900
H281	H28	0.767300	0.747600	0.688300
C411	C41	0.843000	0.540700	0.580400
H291	H29	0.820300	0.493400	0.524500
C421	C42	0.945200	0.526700	0.643000
H301	H30	0.990300	0.471000	0.629400
C431	C43	0.360200	0.172600	0.935300
C441	C44	0.272500	0.063700	0.948100
C451	C45	0.319400	0.980200	0.993100
H311	H31	0.407300	0.992900	0.016900
H321	H32	0.103700	0.096900	0.892300
H331	H33	0.972800	0.923600	0.910000
C461	C46	0.233200	0.878500	0.001700
H341	H34	0.266200	0.823400	0.031300
C471	C47	0.061600	0.937100	0.930900
C481	C48	0.140200	0.041400	0.919300
