data_MUPYOM_clean_PM
_symmetry_space_group_name_H-M	'P1'
_cell_length_a	8.022200
_cell_length_b	18.109900
_cell_length_c	21.954000
_cell_angle_alpha	90.000000
_cell_angle_beta	90.000000
_cell_angle_gamma	90.000000
_symmetry_Int_Tables_number 1

loop_
_symmetry_equiv_pos_as_xyz
'x,y,z'

loop_
_atom_site_label
_atom_site_type_symbol
_atom_site_fract_x
_atom_site_fract_y
_atom_site_fract_z
Cd11	Cd1	0.768190	0.091320	0.139780
Cd21	Cd2	0.960110	0.252710	0.890040
C11	C1	0.589800	0.166700	0.020500
H11	H1	0.482700	0.163600	0.036600
C21	C2	0.845900	0.157500	0.009100
H21	H2	0.957600	0.146100	0.015500
C31	C3	0.667100	0.926400	0.110900
H31	H3	0.557600	0.942300	0.106100
C41	C4	0.922700	0.924400	0.125700
H41	H4	0.031800	0.939400	0.132900
C51	C5	0.909400	0.156000	0.265500
H51	H5	0.016400	0.139000	0.257000
C61	C6	0.656600	0.179100	0.258400
H61	H6	0.547800	0.182300	0.244000
N11	N1	0.727200	0.139400	0.048800
N21	N2	0.795100	0.191900	0.961400
N31	N3	0.625200	0.198100	0.967800
N41	N4	0.778400	0.146500	0.228000
N51	N5	0.704100	0.206400	0.310600
N61	N6	0.869400	0.191800	0.315500
N71	N7	0.788700	0.971400	0.123100
N81	N8	0.711000	0.856800	0.105800
N91	N9	0.877200	0.855700	0.116600
Cd31	Cd3	0.231810	0.408680	0.639780
Cd41	Cd4	0.039890	0.247290	0.390040
C71	C7	0.410200	0.333300	0.520500
H71	H7	0.517300	0.336400	0.536600
C81	C8	0.154100	0.342500	0.509100
H81	H8	0.042400	0.353900	0.515500
C91	C9	0.332900	0.573600	0.610900
H91	H9	0.442400	0.557700	0.606100
C101	C10	0.077300	0.575600	0.625700
H101	H10	0.968200	0.560600	0.632900
C111	C11	0.090600	0.344000	0.765500
H111	H11	0.983600	0.361000	0.757000
C121	C12	0.343400	0.320900	0.758400
H121	H12	0.452200	0.317700	0.744000
N101	N10	0.272800	0.360600	0.548800
N111	N11	0.204900	0.308100	0.461400
N121	N12	0.374800	0.301900	0.467800
N131	N13	0.221600	0.353500	0.728000
N141	N14	0.295900	0.293600	0.810600
N151	N15	0.130600	0.308200	0.815500
N161	N16	0.211300	0.528600	0.623100
N171	N17	0.289000	0.643200	0.605800
N181	N18	0.122800	0.644300	0.616600
Cd51	Cd5	0.268190	0.908680	0.360220
Cd61	Cd6	0.460110	0.747290	0.609960
C131	C13	0.089800	0.833300	0.479500
H131	H13	0.982700	0.836400	0.463400
C141	C14	0.345900	0.842500	0.490900
H141	H14	0.457600	0.853900	0.484500
C151	C15	0.167100	0.073600	0.389100
H151	H15	0.057600	0.057700	0.393900
C161	C16	0.422700	0.075600	0.374300
H161	H16	0.531800	0.060600	0.367100
C171	C17	0.409400	0.844000	0.234500
H171	H17	0.516400	0.861000	0.243000
C181	C18	0.156600	0.820900	0.241600
H181	H18	0.047800	0.817700	0.256000
N191	N19	0.227200	0.860600	0.451200
N201	N20	0.295100	0.808100	0.538600
N211	N21	0.125200	0.801900	0.532200
N221	N22	0.278400	0.853500	0.272000
N231	N23	0.204100	0.793600	0.189400
N241	N24	0.369400	0.808200	0.184500
N251	N25	0.288700	0.028600	0.376900
N261	N26	0.211000	0.143200	0.394200
N271	N27	0.377200	0.144300	0.383400
Cd71	Cd7	0.731810	0.591320	0.860220
Cd81	Cd8	0.539890	0.752710	0.109960
C191	C19	0.910200	0.666700	0.979500
H191	H19	0.017300	0.663600	0.963400
C201	C20	0.654100	0.657500	0.990900
H201	H20	0.542400	0.646100	0.984500
C211	C21	0.832900	0.426400	0.889100
H211	H21	0.942400	0.442300	0.893900
C221	C22	0.577300	0.424400	0.874300
H221	H22	0.468200	0.439400	0.867100
C231	C23	0.590600	0.656000	0.734500
H231	H23	0.483600	0.639000	0.743000
C241	C24	0.843400	0.679100	0.741600
H241	H24	0.952200	0.682300	0.756000
N281	N28	0.772800	0.639400	0.951200
N291	N29	0.704900	0.691900	0.038600
N301	N30	0.874800	0.698100	0.032200
N311	N31	0.721600	0.646500	0.772000
N321	N32	0.795900	0.706400	0.689400
N331	N33	0.630600	0.691800	0.684500
N341	N34	0.711300	0.471400	0.876900
N351	N35	0.789000	0.356800	0.894200
N361	N36	0.622800	0.355700	0.883400
Cd91	Cd9	0.231810	0.908680	0.860220
Cd101	Cd10	0.039890	0.747290	0.109960
C251	C25	0.410200	0.833300	0.979500
H251	H25	0.517300	0.836400	0.963400
C261	C26	0.154100	0.842500	0.990900
H261	H26	0.042400	0.853900	0.984500
C271	C27	0.332900	0.073600	0.889100
H271	H27	0.442400	0.057700	0.893900
C281	C28	0.077300	0.075600	0.874300
H281	H28	0.968200	0.060600	0.867100
C291	C29	0.090600	0.844000	0.734500
H291	H29	0.983600	0.861000	0.743000
C301	C30	0.343400	0.820900	0.741600
H301	H30	0.452200	0.817700	0.756000
N371	N37	0.272800	0.860600	0.951200
N381	N38	0.204900	0.808100	0.038600
N391	N39	0.374800	0.801900	0.032200
N401	N40	0.221600	0.853500	0.772000
N411	N41	0.295900	0.793600	0.689400
N421	N42	0.130600	0.808200	0.684500
N431	N43	0.211300	0.028600	0.876900
N441	N44	0.289000	0.143200	0.894200
N451	N45	0.122800	0.144300	0.883400
Cd111	Cd11	0.768190	0.591320	0.360220
Cd121	Cd12	0.960110	0.752710	0.609960
C311	C31	0.589800	0.666700	0.479500
H311	H31	0.482700	0.663600	0.463400
C321	C32	0.845900	0.657500	0.490900
H321	H32	0.957600	0.646100	0.484500
C331	C33	0.667100	0.426400	0.389100
H331	H33	0.557600	0.442300	0.393900
C341	C34	0.922700	0.424400	0.374300
H341	H34	0.031800	0.439400	0.367100
C351	C35	0.909400	0.656000	0.234500
H351	H35	0.016400	0.639000	0.243000
C361	C36	0.656600	0.679100	0.241600
H361	H36	0.547800	0.682300	0.256000
N461	N46	0.727200	0.639400	0.451200
N471	N47	0.795100	0.691900	0.538600
N481	N48	0.625200	0.698100	0.532200
N491	N49	0.778400	0.646500	0.272000
N501	N50	0.704100	0.706400	0.189400
N511	N51	0.869400	0.691800	0.184500
N521	N52	0.788700	0.471400	0.376900
N531	N53	0.711000	0.356800	0.394200
N541	N54	0.877200	0.355700	0.383400
Cd131	Cd13	0.731810	0.091320	0.639780
Cd141	Cd14	0.539890	0.252710	0.390040
C371	C37	0.910200	0.166700	0.520500
H371	H37	0.017300	0.163600	0.536600
C381	C38	0.654100	0.157500	0.509100
H381	H38	0.542400	0.146100	0.515500
C391	C39	0.832900	0.926400	0.610900
H391	H39	0.942400	0.942300	0.606100
C401	C40	0.577300	0.924400	0.625700
H401	H40	0.468200	0.939400	0.632900
C411	C41	0.590600	0.156000	0.765500
H411	H41	0.483600	0.139000	0.757000
C421	C42	0.843400	0.179100	0.758400
H421	H42	0.952200	0.182300	0.744000
N551	N55	0.772800	0.139400	0.548800
N561	N56	0.704900	0.191900	0.461400
N571	N57	0.874800	0.198100	0.467800
N581	N58	0.721600	0.146500	0.728000
N591	N59	0.795900	0.206400	0.810600
N601	N60	0.630600	0.191800	0.815500
N611	N61	0.711300	0.971400	0.623100
N621	N62	0.789000	0.856800	0.605800
N631	N63	0.622800	0.855700	0.616600
Cd151	Cd15	0.268190	0.408680	0.139780
Cd161	Cd16	0.460110	0.247290	0.890040
C431	C43	0.089800	0.333300	0.020500
H431	H43	0.982700	0.336400	0.036600
C441	C44	0.345900	0.342500	0.009100
H441	H44	0.457600	0.353900	0.015500
C451	C45	0.167100	0.573600	0.110900
H451	H45	0.057600	0.557700	0.106100
C461	C46	0.422700	0.575600	0.125700
H461	H46	0.531800	0.560600	0.132900
C471	C47	0.409400	0.344000	0.265500
H471	H47	0.516400	0.361000	0.257000
C481	C48	0.156600	0.320900	0.258400
H481	H48	0.047800	0.317700	0.244000
N641	N64	0.227200	0.360600	0.048800
N651	N65	0.295100	0.308100	0.961400
N661	N66	0.125200	0.301900	0.967800
N671	N67	0.278400	0.353500	0.228000
N681	N68	0.204100	0.293600	0.310600
N691	N69	0.369400	0.308200	0.315500
N701	N70	0.288700	0.528600	0.123100
N711	N71	0.211000	0.643200	0.105800
N721	N72	0.377200	0.644300	0.116600
