data_MUPYUS_clean_PM
_symmetry_space_group_name_H-M	'P1'
_cell_length_a	7.851600
_cell_length_b	10.738300
_cell_length_c	14.192800
_cell_angle_alpha	112.229000
_cell_angle_beta	90.000000
_cell_angle_gamma	90.000000
_symmetry_Int_Tables_number 1

loop_
_symmetry_equiv_pos_as_xyz
'x,y,z'

loop_
_atom_site_label
_atom_site_type_symbol
_atom_site_fract_x
_atom_site_fract_y
_atom_site_fract_z
Cd11	Cd1	0.032700	0.010920	0.021840
Cd21	Cd2	0.453900	0.239730	0.479460
Cd31	Cd3	0.532700	0.989080	0.978160
Cd41	Cd4	0.953900	0.760270	0.520540
Cd51	Cd5	0.746000	0.624080	0.248160
Cd61	Cd6	0.246000	0.375920	0.751840
H11	H1	0.995700	0.814200	0.165200
H21	H2	0.523000	0.733400	0.073400
H31	H3	0.562100	0.368800	0.300200
H41	H4	0.743800	0.503000	0.572400
H51	H5	0.495700	0.185800	0.834800
H61	H6	0.023000	0.266600	0.926600
H71	H7	0.062100	0.631200	0.699800
H81	H8	0.243800	0.497000	0.427600
H91	H9	0.495700	0.649000	0.834800
H101	H10	0.023000	0.660000	0.926600
H111	H11	0.062100	0.068600	0.699800
H121	H12	0.243800	0.930600	0.427600
H131	H13	0.995700	0.351000	0.165200
H141	H14	0.523000	0.340000	0.073400
H151	H15	0.562100	0.931400	0.300200
H161	H16	0.743800	0.069400	0.572400
H171	H17	0.578400	0.119300	0.238600
H181	H18	0.093200	0.148800	0.297600
H191	H19	0.078400	0.880700	0.761400
H201	H20	0.593200	0.851200	0.702400
C11	C1	0.891000	0.813100	0.134200
C21	C2	0.633000	0.768000	0.084000
C31	C3	0.617000	0.421900	0.359800
C41	C4	0.715000	0.494300	0.506600
C51	C5	0.391000	0.186900	0.865800
C61	C6	0.133000	0.232000	0.916000
C71	C7	0.117000	0.578100	0.640200
C81	C8	0.215000	0.505700	0.493400
C91	C9	0.391000	0.678900	0.865800
C101	C10	0.133000	0.684000	0.916000
C111	C11	0.117000	0.062100	0.640200
C121	C12	0.215000	0.987700	0.493400
C131	C13	0.891000	0.321100	0.134200
C141	C14	0.633000	0.316000	0.084000
C151	C15	0.617000	0.937900	0.359800
C161	C16	0.715000	0.012300	0.506600
C171	C17	0.461000	0.114900	0.229800
C181	C18	0.195000	0.130900	0.261800
C191	C19	0.961000	0.885100	0.770200
C201	C20	0.695000	0.869100	0.738200
Br11	Br1	0.059900	0.655360	0.310720
Br21	Br2	0.559900	0.344640	0.689280
N11	N1	0.856000	0.888200	0.084400
N21	N2	0.689000	0.859800	0.050000
N31	N3	0.757000	0.730500	0.136600
N41	N4	0.696000	0.533000	0.370600
N51	N5	0.759000	0.582600	0.465200
N61	N6	0.624000	0.392700	0.442400
N71	N7	0.356000	0.111800	0.915600
N81	N8	0.189000	0.140200	0.950000
N91	N9	0.257000	0.269500	0.863400
N101	N10	0.196000	0.467000	0.629400
N111	N11	0.259000	0.417400	0.534800
N121	N12	0.124000	0.607300	0.557600
N131	N13	0.356000	0.803800	0.915600
N141	N14	0.189000	0.809800	0.950000
N151	N15	0.257000	0.593900	0.863400
N161	N16	0.196000	0.162400	0.629400
N171	N17	0.259000	0.117400	0.534800
N181	N18	0.124000	0.950300	0.557600
N191	N19	0.856000	0.196200	0.084400
N201	N20	0.689000	0.190200	0.050000
N211	N21	0.757000	0.406100	0.136600
N221	N22	0.696000	0.837600	0.370600
N231	N23	0.759000	0.882600	0.465200
N241	N24	0.624000	0.049700	0.442400
N251	N25	0.347000	0.152000	0.304000
N261	N26	0.373000	0.066300	0.132600
N271	N27	0.208000	0.080400	0.160800
N281	N28	0.847000	0.848000	0.696000
N291	N29	0.873000	0.933700	0.867400
N301	N30	0.708000	0.919600	0.839200
