data_MUQSAU_clean_PM
_symmetry_space_group_name_H-M	'P1'
_cell_length_a	29.647000
_cell_length_b	24.669000
_cell_length_c	9.742100
_cell_angle_alpha	90.000000
_cell_angle_beta	90.000000
_cell_angle_gamma	90.000000
_symmetry_Int_Tables_number 1

loop_
_symmetry_equiv_pos_as_xyz
'x,y,z'

loop_
_atom_site_label
_atom_site_type_symbol
_atom_site_fract_x
_atom_site_fract_y
_atom_site_fract_z
Zn11	Zn1	0.458120	0.239260	0.978300
Zn21	Zn2	0.796530	0.189140	0.861000
O11	O1	0.723170	0.221020	0.835700
O21	O2	0.743160	0.137110	0.875500
O31	O3	0.667370	0.255300	0.280700
O41	O4	0.699470	0.200150	0.134300
O51	O5	0.562860	0.290700	0.651400
O61	O6	0.616750	0.229660	0.627500
N11	N1	0.652560	0.630560	0.865200
N21	N2	0.476450	0.317680	0.973600
O71	O7	0.509760	0.195220	0.914100
O81	O8	0.551020	0.235090	0.078300
C11	C1	0.547040	0.203750	0.978700
C21	C2	0.586080	0.170200	0.929600
C31	C3	0.577100	0.114420	0.908100
H11	H1	0.547800	0.101300	0.916500
C41	C4	0.611800	0.079680	0.874700
H21	H2	0.606100	0.043000	0.861400
C51	C5	0.655780	0.099770	0.860800
H31	H3	0.679200	0.076100	0.839700
C61	C6	0.664810	0.155160	0.878300
C71	C7	0.713320	0.172710	0.862900
C81	C8	0.629780	0.191520	0.911300
C91	C9	0.675470	0.240820	0.157600
C101	C10	0.655420	0.274780	0.044600
C111	C11	0.655810	0.331620	0.064000
H41	H4	0.667900	0.346600	0.143500
C121	C12	0.637950	0.364550	0.963000
H51	H5	0.638800	0.402000	0.974000
C131	C13	0.618980	0.342940	0.846700
H61	H6	0.606600	0.365800	0.780700
C141	C14	0.618230	0.287470	0.827100
C151	C15	0.598740	0.266360	0.693400
C161	C16	0.636440	0.251840	0.925700
C171	C17	0.487710	0.342370	0.855500
H71	H7	0.480500	0.325500	0.772900
C181	C18	0.509460	0.391630	0.852200
H81	H8	0.515900	0.407900	0.768300
C191	C19	0.521760	0.417090	0.973300
C201	C20	0.508620	0.392390	0.095900
H91	H9	0.514600	0.409100	0.179500
C211	C21	0.486640	0.342920	0.092100
H101	H10	0.478600	0.326500	0.174500
C221	C22	0.637400	0.607400	0.753600
H111	H11	0.646100	0.622200	0.669800
C231	C23	0.609410	0.562600	0.751100
H121	H12	0.600500	0.547400	0.668200
C241	C24	0.594890	0.540990	0.874100
C251	C25	0.608740	0.565930	0.992100
H131	H13	0.598700	0.553400	0.076700
C261	C26	0.637890	0.610100	0.986000
H141	H14	0.647600	0.626000	0.067300
C271	C27	0.565820	0.492470	0.871400
H151	H15	0.558800	0.478200	0.785600
C281	C28	0.548770	0.467200	0.980500
H161	H16	0.554200	0.482100	0.066600
Zn31	Zn3	0.458120	0.739260	0.478300
Zn41	Zn4	0.796530	0.689140	0.361000
O91	O9	0.723170	0.721020	0.335700
O101	O10	0.743160	0.637110	0.375500
O111	O11	0.667370	0.755300	0.780700
O121	O12	0.699470	0.700150	0.634300
O131	O13	0.562860	0.790700	0.151400
O141	O14	0.616750	0.729660	0.127500
N31	N3	0.652560	0.130560	0.365200
N41	N4	0.476450	0.817680	0.473600
O151	O15	0.509760	0.695220	0.414100
O161	O16	0.551020	0.735090	0.578300
C291	C29	0.547040	0.703750	0.478700
C301	C30	0.586080	0.670200	0.429600
C311	C31	0.577100	0.614420	0.408100
H171	H17	0.547800	0.601300	0.416500
C321	C32	0.611800	0.579680	0.374700
H181	H18	0.606100	0.543000	0.361400
C331	C33	0.655780	0.599770	0.360800
H191	H19	0.679200	0.576100	0.339700
C341	C34	0.664810	0.655160	0.378300
C351	C35	0.713320	0.672710	0.362900
C361	C36	0.629780	0.691520	0.411300
C371	C37	0.675470	0.740820	0.657600
C381	C38	0.655420	0.774780	0.544600
C391	C39	0.655810	0.831620	0.564000
H201	H20	0.667900	0.846600	0.643500
C401	C40	0.637950	0.864550	0.463000
H211	H21	0.638800	0.902000	0.474000
C411	C41	0.618980	0.842940	0.346700
H221	H22	0.606600	0.865800	0.280700
C421	C42	0.618230	0.787470	0.327100
C431	C43	0.598740	0.766360	0.193400
C441	C44	0.636440	0.751840	0.425700
C451	C45	0.487710	0.842370	0.355500
H231	H23	0.480500	0.825500	0.272900
C461	C46	0.509460	0.891630	0.352200
H241	H24	0.515900	0.907900	0.268300
C471	C47	0.521760	0.917090	0.473300
C481	C48	0.508620	0.892390	0.595900
H251	H25	0.514600	0.909100	0.679500
C491	C49	0.486640	0.842920	0.592100
H261	H26	0.478600	0.826500	0.674500
C501	C50	0.637400	0.107400	0.253600
H271	H27	0.646100	0.122200	0.169800
C511	C51	0.609410	0.062600	0.251100
H281	H28	0.600500	0.047400	0.168200
C521	C52	0.594890	0.040990	0.374100
C531	C53	0.608740	0.065930	0.492100
H291	H29	0.598700	0.053400	0.576700
C541	C54	0.637890	0.110100	0.486000
H301	H30	0.647600	0.126000	0.567300
C551	C55	0.565820	0.992470	0.371400
H311	H31	0.558800	0.978200	0.285600
C561	C56	0.548770	0.967200	0.480500
H321	H32	0.554200	0.982100	0.566600
Zn51	Zn5	0.541880	0.760740	0.978300
Zn61	Zn6	0.203470	0.810860	0.861000
O171	O17	0.276830	0.778980	0.835700
O181	O18	0.256840	0.862890	0.875500
O191	O19	0.332630	0.744700	0.280700
O201	O20	0.300530	0.799850	0.134300
O211	O21	0.437140	0.709300	0.651400
O221	O22	0.383250	0.770340	0.627500
N51	N5	0.347440	0.369440	0.865200
N61	N6	0.523550	0.682320	0.973600
O231	O23	0.490240	0.804780	0.914100
O241	O24	0.448980	0.764910	0.078300
C571	C57	0.452960	0.796250	0.978700
C581	C58	0.413920	0.829800	0.929600
C591	C59	0.422900	0.885580	0.908100
H331	H33	0.452200	0.898700	0.916500
C601	C60	0.388200	0.920320	0.874700
H341	H34	0.393900	0.957000	0.861400
C611	C61	0.344220	0.900230	0.860800
H351	H35	0.320800	0.923900	0.839700
C621	C62	0.335190	0.844840	0.878300
C631	C63	0.286680	0.827290	0.862900
C641	C64	0.370220	0.808480	0.911300
C651	C65	0.324530	0.759180	0.157600
C661	C66	0.344580	0.725220	0.044600
C671	C67	0.344190	0.668380	0.064000
H361	H36	0.332100	0.653400	0.143500
C681	C68	0.362050	0.635450	0.963000
H371	H37	0.361200	0.598000	0.974000
C691	C69	0.381020	0.657060	0.846700
H381	H38	0.393400	0.634200	0.780700
C701	C70	0.381770	0.712530	0.827100
C711	C71	0.401260	0.733640	0.693400
C721	C72	0.363560	0.748160	0.925700
C731	C73	0.512290	0.657630	0.855500
H391	H39	0.519500	0.674500	0.772900
C741	C74	0.490540	0.608370	0.852200
H401	H40	0.484100	0.592100	0.768300
C751	C75	0.478240	0.582910	0.973300
C761	C76	0.491380	0.607610	0.095900
H411	H41	0.485400	0.590900	0.179500
C771	C77	0.513360	0.657080	0.092100
H421	H42	0.521400	0.673500	0.174500
C781	C78	0.362600	0.392600	0.753600
H431	H43	0.353900	0.377800	0.669800
C791	C79	0.390590	0.437400	0.751100
H441	H44	0.399500	0.452600	0.668200
C801	C80	0.405110	0.459010	0.874100
C811	C81	0.391260	0.434070	0.992100
H451	H45	0.401300	0.446600	0.076700
C821	C82	0.362110	0.389900	0.986000
H461	H46	0.352400	0.374000	0.067300
C831	C83	0.434180	0.507530	0.871400
H471	H47	0.441200	0.521800	0.785600
C841	C84	0.451230	0.532800	0.980500
H481	H48	0.445800	0.517900	0.066600
Zn71	Zn7	0.541880	0.260740	0.478300
Zn81	Zn8	0.203470	0.310860	0.361000
O251	O25	0.276830	0.278980	0.335700
O261	O26	0.256840	0.362890	0.375500
O271	O27	0.332630	0.244700	0.780700
O281	O28	0.300530	0.299850	0.634300
O291	O29	0.437140	0.209300	0.151400
O301	O30	0.383250	0.270340	0.127500
N71	N7	0.347440	0.869440	0.365200
N81	N8	0.523550	0.182320	0.473600
O311	O31	0.490240	0.304780	0.414100
O321	O32	0.448980	0.264910	0.578300
C851	C85	0.452960	0.296250	0.478700
C861	C86	0.413920	0.329800	0.429600
C871	C87	0.422900	0.385580	0.408100
H491	H49	0.452200	0.398700	0.416500
C881	C88	0.388200	0.420320	0.374700
H501	H50	0.393900	0.457000	0.361400
C891	C89	0.344220	0.400230	0.360800
H511	H51	0.320800	0.423900	0.339700
C901	C90	0.335190	0.344840	0.378300
C911	C91	0.286680	0.327290	0.362900
C921	C92	0.370220	0.308480	0.411300
C931	C93	0.324530	0.259180	0.657600
C941	C94	0.344580	0.225220	0.544600
C951	C95	0.344190	0.168380	0.564000
H521	H52	0.332100	0.153400	0.643500
C961	C96	0.362050	0.135450	0.463000
H531	H53	0.361200	0.098000	0.474000
C971	C97	0.381020	0.157060	0.346700
H541	H54	0.393400	0.134200	0.280700
C981	C98	0.381770	0.212530	0.327100
C991	C99	0.401260	0.233640	0.193400
C1001	C100	0.363560	0.248160	0.425700
C1011	C101	0.512290	0.157630	0.355500
H551	H55	0.519500	0.174500	0.272900
C1021	C102	0.490540	0.108370	0.352200
H561	H56	0.484100	0.092100	0.268300
C1031	C103	0.478240	0.082910	0.473300
C1041	C104	0.491380	0.107610	0.595900
H571	H57	0.485400	0.090900	0.679500
C1051	C105	0.513360	0.157080	0.592100
H581	H58	0.521400	0.173500	0.674500
C1061	C106	0.362600	0.892600	0.253600
H591	H59	0.353900	0.877800	0.169800
C1071	C107	0.390590	0.937400	0.251100
H601	H60	0.399500	0.952600	0.168200
C1081	C108	0.405110	0.959010	0.374100
C1091	C109	0.391260	0.934070	0.492100
H611	H61	0.401300	0.946600	0.576700
C1101	C110	0.362110	0.889900	0.486000
H621	H62	0.352400	0.874000	0.567300
C1111	C111	0.434180	0.007530	0.371400
H631	H63	0.441200	0.021800	0.285600
C1121	C112	0.451230	0.032800	0.480500
H641	H64	0.445800	0.017900	0.566600
Zn91	Zn9	0.958120	0.260740	0.978300
Zn101	Zn10	0.296530	0.310860	0.861000
O331	O33	0.223170	0.278980	0.835700
O341	O34	0.243160	0.362890	0.875500
O351	O35	0.167370	0.244700	0.280700
O361	O36	0.199470	0.299850	0.134300
O371	O37	0.062860	0.209300	0.651400
O381	O38	0.116750	0.270340	0.627500
N91	N9	0.152560	0.869440	0.865200
N101	N10	0.976450	0.182320	0.973600
O391	O39	0.009760	0.304780	0.914100
O401	O40	0.051020	0.264910	0.078300
C1131	C113	0.047040	0.296250	0.978700
C1141	C114	0.086080	0.329800	0.929600
C1151	C115	0.077100	0.385580	0.908100
H651	H65	0.047800	0.398700	0.916500
C1161	C116	0.111800	0.420320	0.874700
H661	H66	0.106100	0.457000	0.861400
C1171	C117	0.155780	0.400230	0.860800
H671	H67	0.179200	0.423900	0.839700
C1181	C118	0.164810	0.344840	0.878300
C1191	C119	0.213320	0.327290	0.862900
C1201	C120	0.129780	0.308480	0.911300
C1211	C121	0.175470	0.259180	0.157600
C1221	C122	0.155420	0.225220	0.044600
C1231	C123	0.155810	0.168380	0.064000
H681	H68	0.167900	0.153400	0.143500
C1241	C124	0.137950	0.135450	0.963000
H691	H69	0.138800	0.098000	0.974000
C1251	C125	0.118980	0.157060	0.846700
H701	H70	0.106600	0.134200	0.780700
C1261	C126	0.118230	0.212530	0.827100
C1271	C127	0.098740	0.233640	0.693400
C1281	C128	0.136440	0.248160	0.925700
C1291	C129	0.987710	0.157630	0.855500
H711	H71	0.980500	0.174500	0.772900
C1301	C130	0.009460	0.108370	0.852200
H721	H72	0.015900	0.092100	0.768300
C1311	C131	0.021760	0.082910	0.973300
C1321	C132	0.008620	0.107610	0.095900
H731	H73	0.014600	0.090900	0.179500
C1331	C133	0.986640	0.157080	0.092100
H741	H74	0.978600	0.173500	0.174500
C1341	C134	0.137400	0.892600	0.753600
H751	H75	0.146100	0.877800	0.669800
C1351	C135	0.109410	0.937400	0.751100
H761	H76	0.100500	0.952600	0.668200
C1361	C136	0.094890	0.959010	0.874100
C1371	C137	0.108740	0.934070	0.992100
H771	H77	0.098700	0.946600	0.076700
C1381	C138	0.137890	0.889900	0.986000
H781	H78	0.147600	0.874000	0.067300
C1391	C139	0.065820	0.007530	0.871400
H791	H79	0.058800	0.021800	0.785600
C1401	C140	0.048770	0.032800	0.980500
H801	H80	0.054200	0.017900	0.066600
Zn111	Zn11	0.958120	0.760740	0.478300
Zn121	Zn12	0.296530	0.810860	0.361000
O411	O41	0.223170	0.778980	0.335700
O421	O42	0.243160	0.862890	0.375500
O431	O43	0.167370	0.744700	0.780700
O441	O44	0.199470	0.799850	0.634300
O451	O45	0.062860	0.709300	0.151400
O461	O46	0.116750	0.770340	0.127500
N111	N11	0.152560	0.369440	0.365200
N121	N12	0.976450	0.682320	0.473600
O471	O47	0.009760	0.804780	0.414100
O481	O48	0.051020	0.764910	0.578300
C1411	C141	0.047040	0.796250	0.478700
C1421	C142	0.086080	0.829800	0.429600
C1431	C143	0.077100	0.885580	0.408100
H811	H81	0.047800	0.898700	0.416500
C1441	C144	0.111800	0.920320	0.374700
H821	H82	0.106100	0.957000	0.361400
C1451	C145	0.155780	0.900230	0.360800
H831	H83	0.179200	0.923900	0.339700
C1461	C146	0.164810	0.844840	0.378300
C1471	C147	0.213320	0.827290	0.362900
C1481	C148	0.129780	0.808480	0.411300
C1491	C149	0.175470	0.759180	0.657600
C1501	C150	0.155420	0.725220	0.544600
C1511	C151	0.155810	0.668380	0.564000
H841	H84	0.167900	0.653400	0.643500
C1521	C152	0.137950	0.635450	0.463000
H851	H85	0.138800	0.598000	0.474000
C1531	C153	0.118980	0.657060	0.346700
H861	H86	0.106600	0.634200	0.280700
C1541	C154	0.118230	0.712530	0.327100
C1551	C155	0.098740	0.733640	0.193400
C1561	C156	0.136440	0.748160	0.425700
C1571	C157	0.987710	0.657630	0.355500
H871	H87	0.980500	0.674500	0.272900
C1581	C158	0.009460	0.608370	0.352200
H881	H88	0.015900	0.592100	0.268300
C1591	C159	0.021760	0.582910	0.473300
C1601	C160	0.008620	0.607610	0.595900
H891	H89	0.014600	0.590900	0.679500
C1611	C161	0.986640	0.657080	0.592100
H901	H90	0.978600	0.673500	0.674500
C1621	C162	0.137400	0.392600	0.253600
H911	H91	0.146100	0.377800	0.169800
C1631	C163	0.109410	0.437400	0.251100
H921	H92	0.100500	0.452600	0.168200
C1641	C164	0.094890	0.459010	0.374100
C1651	C165	0.108740	0.434070	0.492100
H931	H93	0.098700	0.446600	0.576700
C1661	C166	0.137890	0.389900	0.486000
H941	H94	0.147600	0.374000	0.567300
C1671	C167	0.065820	0.507530	0.371400
H951	H95	0.058800	0.521800	0.285600
C1681	C168	0.048770	0.532800	0.480500
H961	H96	0.054200	0.517900	0.566600
Zn131	Zn13	0.041880	0.739260	0.978300
Zn141	Zn14	0.703470	0.689140	0.861000
O491	O49	0.776830	0.721020	0.835700
O501	O50	0.756840	0.637110	0.875500
O511	O51	0.832630	0.755300	0.280700
O521	O52	0.800530	0.700150	0.134300
O531	O53	0.937140	0.790700	0.651400
O541	O54	0.883250	0.729660	0.627500
N131	N13	0.847440	0.130560	0.865200
N141	N14	0.023550	0.817680	0.973600
O551	O55	0.990240	0.695220	0.914100
O561	O56	0.948980	0.735090	0.078300
C1691	C169	0.952960	0.703750	0.978700
C1701	C170	0.913920	0.670200	0.929600
C1711	C171	0.922900	0.614420	0.908100
H971	H97	0.952200	0.601300	0.916500
C1721	C172	0.888200	0.579680	0.874700
H981	H98	0.893900	0.543000	0.861400
C1731	C173	0.844220	0.599770	0.860800
H991	H99	0.820800	0.576100	0.839700
C1741	C174	0.835190	0.655160	0.878300
C1751	C175	0.786680	0.672710	0.862900
C1761	C176	0.870220	0.691520	0.911300
C1771	C177	0.824530	0.740820	0.157600
C1781	C178	0.844580	0.774780	0.044600
C1791	C179	0.844190	0.831620	0.064000
H1001	H100	0.832100	0.846600	0.143500
C1801	C180	0.862050	0.864550	0.963000
H1011	H101	0.861200	0.902000	0.974000
C1811	C181	0.881020	0.842940	0.846700
H1021	H102	0.893400	0.865800	0.780700
C1821	C182	0.881770	0.787470	0.827100
C1831	C183	0.901260	0.766360	0.693400
C1841	C184	0.863560	0.751840	0.925700
C1851	C185	0.012290	0.842370	0.855500
H1031	H103	0.019500	0.825500	0.772900
C1861	C186	0.990540	0.891630	0.852200
H1041	H104	0.984100	0.907900	0.768300
C1871	C187	0.978240	0.917090	0.973300
C1881	C188	0.991380	0.892390	0.095900
H1051	H105	0.985400	0.909100	0.179500
C1891	C189	0.013360	0.842920	0.092100
H1061	H106	0.021400	0.826500	0.174500
C1901	C190	0.862600	0.107400	0.753600
H1071	H107	0.853900	0.122200	0.669800
C1911	C191	0.890590	0.062600	0.751100
H1081	H108	0.899500	0.047400	0.668200
C1921	C192	0.905110	0.040990	0.874100
C1931	C193	0.891260	0.065930	0.992100
H1091	H109	0.901300	0.053400	0.076700
C1941	C194	0.862110	0.110100	0.986000
H1101	H110	0.852400	0.126000	0.067300
C1951	C195	0.934180	0.992470	0.871400
H1111	H111	0.941200	0.978200	0.785600
C1961	C196	0.951230	0.967200	0.980500
H1121	H112	0.945800	0.982100	0.066600
Zn151	Zn15	0.041880	0.239260	0.478300
Zn161	Zn16	0.703470	0.189140	0.361000
O571	O57	0.776830	0.221020	0.335700
O581	O58	0.756840	0.137110	0.375500
O591	O59	0.832630	0.255300	0.780700
O601	O60	0.800530	0.200150	0.634300
O611	O61	0.937140	0.290700	0.151400
O621	O62	0.883250	0.229660	0.127500
N151	N15	0.847440	0.630560	0.365200
N161	N16	0.023550	0.317680	0.473600
O631	O63	0.990240	0.195220	0.414100
O641	O64	0.948980	0.235090	0.578300
C1971	C197	0.952960	0.203750	0.478700
C1981	C198	0.913920	0.170200	0.429600
C1991	C199	0.922900	0.114420	0.408100
H1131	H113	0.952200	0.101300	0.416500
C2001	C200	0.888200	0.079680	0.374700
H1141	H114	0.893900	0.043000	0.361400
C2011	C201	0.844220	0.099770	0.360800
H1151	H115	0.820800	0.076100	0.339700
C2021	C202	0.835190	0.155160	0.378300
C2031	C203	0.786680	0.172710	0.362900
C2041	C204	0.870220	0.191520	0.411300
C2051	C205	0.824530	0.240820	0.657600
C2061	C206	0.844580	0.274780	0.544600
C2071	C207	0.844190	0.331620	0.564000
H1161	H116	0.832100	0.346600	0.643500
C2081	C208	0.862050	0.364550	0.463000
H1171	H117	0.861200	0.402000	0.474000
C2091	C209	0.881020	0.342940	0.346700
H1181	H118	0.893400	0.365800	0.280700
C2101	C210	0.881770	0.287470	0.327100
C2111	C211	0.901260	0.266360	0.193400
C2121	C212	0.863560	0.251840	0.425700
C2131	C213	0.012290	0.342370	0.355500
H1191	H119	0.019500	0.325500	0.272900
C2141	C214	0.990540	0.391630	0.352200
H1201	H120	0.984100	0.407900	0.268300
C2151	C215	0.978240	0.417090	0.473300
C2161	C216	0.991380	0.392390	0.595900
H1211	H121	0.985400	0.409100	0.679500
C2171	C217	0.013360	0.342920	0.592100
H1221	H122	0.021400	0.326500	0.674500
C2181	C218	0.862600	0.607400	0.253600
H1231	H123	0.853900	0.622200	0.169800
C2191	C219	0.890590	0.562600	0.251100
H1241	H124	0.899500	0.547400	0.168200
C2201	C220	0.905110	0.540990	0.374100
C2211	C221	0.891260	0.565930	0.492100
H1251	H125	0.901300	0.553400	0.576700
C2221	C222	0.862110	0.610100	0.486000
H1261	H126	0.852400	0.626000	0.567300
C2231	C223	0.934180	0.492470	0.371400
H1271	H127	0.941200	0.478200	0.285600
C2241	C224	0.951230	0.467200	0.480500
H1281	H128	0.945800	0.482100	0.566600
