data_MUSCIN_clean_PM
_symmetry_space_group_name_H-M	'P1'
_cell_length_a	18.928000
_cell_length_b	19.711000
_cell_length_c	23.099500
_cell_angle_alpha	112.906000
_cell_angle_beta	90.000000
_cell_angle_gamma	90.000000
_symmetry_Int_Tables_number 1

loop_
_symmetry_equiv_pos_as_xyz
'x,y,z'

loop_
_atom_site_label
_atom_site_type_symbol
_atom_site_fract_x
_atom_site_fract_y
_atom_site_fract_z
Ce11	Ce1	0.013760	0.620420	0.024160
Ce21	Ce2	0.996050	0.886090	0.983590
Ce31	Ce3	0.513760	0.879580	0.475840
Ce41	Ce4	0.496050	0.613910	0.516410
Ce51	Ce5	0.986240	0.379580	0.975840
Ce61	Ce6	0.003950	0.113910	0.016410
Ce71	Ce7	0.486240	0.120420	0.524160
Ce81	Ce8	0.503950	0.386090	0.483590
H11	H1	0.967400	0.945500	0.174900
H21	H2	0.844800	0.766000	0.136100
H31	H3	0.900900	0.010400	0.263300
H41	H4	0.809500	0.066200	0.350000
H51	H5	0.641700	0.890000	0.347100
H61	H6	0.717700	0.096800	0.422400
H71	H7	0.178900	0.363000	0.830400
H81	H8	0.112100	0.566800	0.855300
H91	H9	0.263700	0.366800	0.758700
H101	H10	0.346800	0.390800	0.685000
H111	H11	0.305600	0.618200	0.673000
H121	H12	0.416700	0.429000	0.622000
H131	H13	0.703700	0.434800	0.604000
H141	H14	0.682200	0.653500	0.656500
H151	H15	0.798800	0.451600	0.670500
H161	H16	0.892900	0.494300	0.759700
H171	H17	0.914600	0.751400	0.843100
H181	H18	0.973300	0.552800	0.840800
H191	H19	0.467400	0.554500	0.325100
H201	H20	0.344800	0.734000	0.363900
H211	H21	0.400900	0.489600	0.236700
H221	H22	0.309500	0.433800	0.150000
H231	H23	0.141700	0.610000	0.152900
H241	H24	0.217700	0.403200	0.077600
H251	H25	0.678900	0.137000	0.669600
H261	H26	0.612100	0.933200	0.644700
H271	H27	0.763700	0.133200	0.741300
H281	H28	0.846800	0.109200	0.815000
H291	H29	0.805600	0.881800	0.827000
H301	H30	0.916700	0.071000	0.878000
H311	H31	0.203700	0.065200	0.896000
H321	H32	0.182200	0.846500	0.843500
H331	H33	0.298800	0.048400	0.829500
H341	H34	0.392900	0.005700	0.740300
H351	H35	0.414600	0.748600	0.656900
H361	H36	0.473300	0.947200	0.659200
H371	H37	0.032600	0.054500	0.825100
H381	H38	0.155200	0.234000	0.863900
H391	H39	0.099100	0.989600	0.736700
H401	H40	0.190500	0.933800	0.650000
H411	H41	0.358300	0.110000	0.652900
H421	H42	0.282300	0.903200	0.577600
H431	H43	0.821100	0.637000	0.169600
H441	H44	0.887900	0.433200	0.144700
H451	H45	0.736300	0.633200	0.241300
H461	H46	0.653200	0.609200	0.315000
H471	H47	0.694400	0.381800	0.327000
H481	H48	0.583300	0.571000	0.378000
H491	H49	0.296300	0.565200	0.396000
H501	H50	0.317800	0.346500	0.343500
H511	H51	0.201200	0.548400	0.329500
H521	H52	0.107100	0.505700	0.240300
H531	H53	0.085400	0.248600	0.156900
H541	H54	0.026700	0.447200	0.159200
H551	H55	0.532600	0.445500	0.674900
H561	H56	0.655200	0.266000	0.636100
H571	H57	0.599100	0.510400	0.763300
H581	H58	0.690500	0.566200	0.850000
H591	H59	0.858300	0.390000	0.847100
H601	H60	0.782300	0.596800	0.922400
H611	H61	0.321100	0.863000	0.330400
H621	H62	0.387900	0.066800	0.355300
H631	H63	0.236300	0.866800	0.258700
H641	H64	0.153200	0.890800	0.185000
H651	H65	0.194400	0.118200	0.173000
H661	H66	0.083300	0.929000	0.122000
H671	H67	0.796300	0.934800	0.104000
H681	H68	0.817800	0.153500	0.156500
H691	H69	0.701200	0.951600	0.170500
H701	H70	0.607100	0.994300	0.259700
H711	H71	0.585400	0.251400	0.343100
H721	H72	0.526700	0.052800	0.340800
C11	C1	0.958400	0.806900	0.090500
C21	C2	0.913900	0.849400	0.147500
C31	C3	0.929300	0.922600	0.185300
C41	C4	0.856000	0.814500	0.160900
C51	C5	0.889200	0.962100	0.237900
C61	C6	0.815700	0.855500	0.213100
C71	C7	0.831600	0.928200	0.251800
C81	C8	0.779600	0.959900	0.303700
C91	C9	0.727500	0.908900	0.304000
C101	C10	0.776000	0.031200	0.348800
C111	C11	0.674300	0.925500	0.347400
C121	C12	0.720800	0.048900	0.392300
C131	C13	0.670800	0.998200	0.392400
C141	C14	0.611600	0.022400	0.439500
C151	C15	0.089200	0.464800	0.902400
C161	C16	0.138600	0.464700	0.851400
C171	C17	0.182700	0.404700	0.821000
C181	C18	0.141100	0.526300	0.835500
C191	C19	0.187900	0.524900	0.789600
C201	C20	0.234400	0.467000	0.759900
C211	C21	0.232500	0.405900	0.776700
C221	C22	0.283100	0.480300	0.716100
C231	C23	0.272500	0.548900	0.711800
C241	C24	0.338200	0.436000	0.682300
C251	C25	0.313700	0.572700	0.675000
C261	C26	0.380100	0.459100	0.644700
C271	C27	0.368600	0.526900	0.640100
C281	C28	0.414100	0.551400	0.598300
C291	C29	0.616300	0.528800	0.583500
C301	C30	0.681800	0.542200	0.624400
C311	C31	0.718400	0.482400	0.628600
C321	C32	0.705200	0.613100	0.659200
C331	C33	0.763500	0.623000	0.697900
C341	C34	0.775700	0.492100	0.668300
C351	C35	0.798400	0.562800	0.704900
C361	C36	0.854700	0.586800	0.753000
C371	C37	0.896800	0.545400	0.776400
C381	C38	0.862700	0.664100	0.780200
C391	C39	0.910200	0.700300	0.827300
C401	C40	0.945300	0.580700	0.825300
C411	C41	0.951400	0.657800	0.850600
C421	C42	0.002100	0.697300	0.903800
C431	C43	0.458400	0.693100	0.409500
C441	C44	0.413900	0.650600	0.352500
C451	C45	0.429300	0.577400	0.314700
C461	C46	0.356000	0.685500	0.339100
C471	C47	0.389200	0.537900	0.262100
C481	C48	0.315700	0.644500	0.286900
C491	C49	0.331600	0.571800	0.248200
C501	C50	0.279600	0.540100	0.196300
C511	C51	0.227500	0.591100	0.196000
C521	C52	0.276000	0.468800	0.151200
C531	C53	0.174300	0.574500	0.152600
C541	C54	0.220800	0.451100	0.107700
C551	C55	0.170800	0.501800	0.107600
C561	C56	0.111600	0.477600	0.060500
C571	C57	0.589200	0.035200	0.597600
C581	C58	0.638600	0.035300	0.648600
C591	C59	0.682700	0.095300	0.679000
C601	C60	0.641100	0.973700	0.664500
C611	C61	0.687900	0.975100	0.710400
C621	C62	0.734400	0.033000	0.740100
C631	C63	0.732500	0.094100	0.723300
C641	C64	0.783100	0.019700	0.783900
C651	C65	0.772500	0.951100	0.788200
C661	C66	0.838200	0.064000	0.817700
C671	C67	0.813700	0.927300	0.825000
C681	C68	0.880100	0.040900	0.855300
C691	C69	0.868600	0.973100	0.859900
C701	C70	0.914100	0.948600	0.901700
C711	C71	0.116300	0.971200	0.916500
C721	C72	0.181800	0.957800	0.875600
C731	C73	0.218400	0.017600	0.871400
C741	C74	0.205200	0.886900	0.840800
C751	C75	0.263500	0.877000	0.802100
C761	C76	0.275700	0.007900	0.831700
C771	C77	0.298400	0.937200	0.795100
C781	C78	0.354700	0.913200	0.747000
C791	C79	0.396800	0.954600	0.723600
C801	C80	0.362700	0.835900	0.719800
C811	C81	0.410200	0.799700	0.672700
C821	C82	0.445300	0.919300	0.674700
C831	C83	0.451400	0.842200	0.649400
C841	C84	0.502100	0.802700	0.596200
C851	C85	0.041600	0.193100	0.909500
C861	C86	0.086100	0.150600	0.852500
C871	C87	0.070700	0.077400	0.814700
C881	C88	0.144000	0.185500	0.839100
C891	C89	0.110800	0.037900	0.762100
C901	C90	0.184300	0.144500	0.786900
C911	C91	0.168400	0.071800	0.748200
C921	C92	0.220400	0.040100	0.696300
C931	C93	0.272500	0.091100	0.696000
C941	C94	0.224000	0.968800	0.651200
C951	C95	0.325700	0.074500	0.652600
C961	C96	0.279200	0.951100	0.607700
C971	C97	0.329200	0.001800	0.607600
C981	C98	0.388400	0.977600	0.560500
C991	C99	0.910800	0.535200	0.097600
C1001	C100	0.861400	0.535300	0.148600
C1011	C101	0.817300	0.595300	0.179000
C1021	C102	0.858900	0.473700	0.164500
C1031	C103	0.812100	0.475100	0.210400
C1041	C104	0.765600	0.533000	0.240100
C1051	C105	0.767500	0.594100	0.223300
C1061	C106	0.716900	0.519700	0.283900
C1071	C107	0.727500	0.451100	0.288200
C1081	C108	0.661800	0.564000	0.317700
C1091	C109	0.686300	0.427300	0.325000
C1101	C110	0.619900	0.540900	0.355300
C1111	C111	0.631400	0.473100	0.359900
C1121	C112	0.585900	0.448600	0.401700
C1131	C113	0.383700	0.471200	0.416500
C1141	C114	0.318200	0.457800	0.375600
C1151	C115	0.281600	0.517600	0.371400
C1161	C116	0.294800	0.386900	0.340800
C1171	C117	0.236500	0.377000	0.302100
C1181	C118	0.224300	0.507900	0.331700
C1191	C119	0.201600	0.437200	0.295100
C1201	C120	0.145300	0.413200	0.247000
C1211	C121	0.103200	0.454600	0.223600
C1221	C122	0.137300	0.335900	0.219800
C1231	C123	0.089800	0.299700	0.172700
C1241	C124	0.054700	0.419300	0.174700
C1251	C125	0.048600	0.342200	0.149400
C1261	C126	0.997900	0.302700	0.096200
C1271	C127	0.541600	0.306900	0.590500
C1281	C128	0.586100	0.349400	0.647500
C1291	C129	0.570700	0.422600	0.685300
C1301	C130	0.644000	0.314500	0.660900
C1311	C131	0.610800	0.462100	0.737900
C1321	C132	0.684300	0.355500	0.713100
C1331	C133	0.668400	0.428200	0.751800
C1341	C134	0.720400	0.459900	0.803700
C1351	C135	0.772500	0.408900	0.804000
C1361	C136	0.724000	0.531200	0.848800
C1371	C137	0.825700	0.425500	0.847400
C1381	C138	0.779200	0.548900	0.892300
C1391	C139	0.829200	0.498200	0.892400
C1401	C140	0.888400	0.522400	0.939500
C1411	C141	0.410800	0.964800	0.402400
C1421	C142	0.361400	0.964700	0.351400
C1431	C143	0.317300	0.904700	0.321000
C1441	C144	0.358900	0.026300	0.335500
C1451	C145	0.312100	0.024900	0.289600
C1461	C146	0.265600	0.967000	0.259900
C1471	C147	0.267500	0.905900	0.276700
C1481	C148	0.216900	0.980300	0.216100
C1491	C149	0.227500	0.048900	0.211800
C1501	C150	0.161800	0.936000	0.182300
C1511	C151	0.186300	0.072700	0.175000
C1521	C152	0.119900	0.959100	0.144700
C1531	C153	0.131400	0.026900	0.140100
C1541	C154	0.085900	0.051400	0.098300
C1551	C155	0.883700	0.028800	0.083500
C1561	C156	0.818200	0.042200	0.124400
C1571	C157	0.781600	0.982400	0.128600
C1581	C158	0.794800	0.113100	0.159200
C1591	C159	0.736500	0.123000	0.197900
C1601	C160	0.724300	0.992100	0.168300
C1611	C161	0.701600	0.062800	0.204900
C1621	C162	0.645300	0.086800	0.253000
C1631	C163	0.603200	0.045400	0.276400
C1641	C164	0.637300	0.164100	0.280200
C1651	C165	0.589800	0.200300	0.327300
C1661	C166	0.554700	0.080700	0.325300
C1671	C167	0.548600	0.157800	0.350600
C1681	C168	0.497900	0.197300	0.403800
S11	S1	0.738730	0.824310	0.238750
S21	S2	0.197910	0.593980	0.758460
S31	S3	0.804020	0.707270	0.745550
S41	S4	0.238730	0.675690	0.261250
S51	S5	0.697910	0.906020	0.741540
S61	S6	0.304020	0.792730	0.754450
S71	S7	0.261270	0.175690	0.761250
S81	S8	0.802090	0.406020	0.241540
S91	S9	0.195980	0.292730	0.254450
S101	S10	0.761270	0.324310	0.738750
S111	S11	0.302090	0.093980	0.258460
S121	S12	0.695980	0.207270	0.245550
O11	O1	0.000500	0.842860	0.070960
O21	O2	0.952100	0.737510	0.067310
O31	O3	0.574600	0.971800	0.444900
O41	O4	0.602000	0.088500	0.469600
O51	O5	0.681700	0.811900	0.194000
O61	O6	0.755100	0.765600	0.258500
O71	O7	0.075500	0.405520	0.907420
O81	O8	0.060800	0.524200	0.934400
O91	O9	0.414000	0.618070	0.606270
O101	O10	0.138500	0.591800	0.717900
O111	O11	0.215800	0.663440	0.806740
O121	O12	0.600600	0.463640	0.550440
O131	O13	0.582200	0.585670	0.587270
O141	O14	0.755400	0.755300	0.790600
O151	O15	0.843700	0.737300	0.707200
O161	O16	0.023300	0.662820	0.936220
O171	O17	0.020700	0.761220	0.911220
O181	O18	0.451900	0.502940	0.556440
O191	O19	0.500500	0.657140	0.429040
O201	O20	0.452100	0.762490	0.432690
O211	O21	0.074600	0.528200	0.055100
O221	O22	0.102000	0.411500	0.030400
O231	O23	0.181700	0.688100	0.306000
O241	O24	0.255100	0.734400	0.241500
O251	O25	0.575500	0.094480	0.592580
O261	O26	0.560800	0.975800	0.565600
O271	O27	0.914000	0.881930	0.893730
O281	O28	0.638500	0.908200	0.782100
O291	O29	0.715800	0.836560	0.693260
O301	O30	0.100600	0.036360	0.949560
O311	O31	0.082200	0.914330	0.912730
O321	O32	0.255400	0.744700	0.709400
O331	O33	0.343700	0.762700	0.792800
O341	O34	0.523300	0.837180	0.563780
O351	O35	0.520700	0.738780	0.588780
O361	O36	0.951900	0.997060	0.943560
O371	O37	0.999500	0.157140	0.929040
O381	O38	0.047900	0.262490	0.932690
O391	O39	0.425400	0.028200	0.555100
O401	O40	0.398000	0.911500	0.530400
O411	O41	0.318300	0.188100	0.806000
O421	O42	0.244900	0.234400	0.741500
O431	O43	0.924500	0.594480	0.092580
O441	O44	0.939200	0.475800	0.065600
O451	O45	0.586000	0.381930	0.393730
O461	O46	0.861500	0.408200	0.282100
O471	O47	0.784200	0.336560	0.193260
O481	O48	0.399400	0.536360	0.449560
O491	O49	0.417800	0.414330	0.412730
O501	O50	0.244600	0.244700	0.209400
O511	O51	0.156300	0.262700	0.292800
O521	O52	0.976700	0.337180	0.063780
O531	O53	0.979300	0.238780	0.088780
O541	O54	0.548100	0.497060	0.443560
O551	O55	0.499500	0.342860	0.570960
O561	O56	0.547900	0.237510	0.567310
O571	O57	0.925400	0.471800	0.944900
O581	O58	0.898000	0.588500	0.969600
O591	O59	0.818300	0.311900	0.694000
O601	O60	0.744900	0.265600	0.758500
O611	O61	0.424500	0.905520	0.407420
O621	O62	0.439200	0.024200	0.434400
O631	O63	0.086000	0.118070	0.106270
O641	O64	0.361500	0.091800	0.217900
O651	O65	0.284200	0.163440	0.306740
O661	O66	0.899400	0.963640	0.050440
O671	O67	0.917800	0.085670	0.087270
O681	O68	0.744600	0.255300	0.290600
O691	O69	0.656300	0.237300	0.207200
O701	O70	0.476700	0.162820	0.436220
O711	O71	0.479300	0.261220	0.411220
O721	O72	0.048100	0.002940	0.056440
