data_MUSSIE_clean_PM
_symmetry_space_group_name_H-M	'P1'
_cell_length_a	18.002600
_cell_length_b	18.002600
_cell_length_c	13.331600
_cell_angle_alpha	90.000000
_cell_angle_beta	90.000000
_cell_angle_gamma	120.000000
_symmetry_Int_Tables_number 1

loop_
_symmetry_equiv_pos_as_xyz
'x,y,z'

loop_
_atom_site_label
_atom_site_type_symbol
_atom_site_fract_x
_atom_site_fract_y
_atom_site_fract_z
Be11	Be1	0.404500	0.047600	0.618400
P11	P1	0.080820	0.701250	0.589810
H11	H1	0.125500	0.781600	0.546500
O11	O1	0.385100	0.121300	0.655900
O21	O2	0.495260	0.060900	0.655600
O31	O3	0.328600	0.952830	0.654800
O41	O4	0.144230	0.687200	0.650100
O51	O5	0.049400	0.639400	0.502700
O61	O6	0.008700	0.696000	0.651700
Be21	Be2	0.952400	0.356900	0.618400
P21	P2	0.298750	0.379570	0.589810
H21	H2	0.218400	0.343900	0.546500
O71	O7	0.878700	0.263800	0.655900
O81	O8	0.939100	0.434360	0.655600
O91	O9	0.047170	0.375770	0.654800
O101	O10	0.312800	0.457030	0.650100
O111	O11	0.360600	0.410000	0.502700
O121	O12	0.304000	0.312700	0.651700
Be31	Be3	0.643100	0.595500	0.618400
P31	P3	0.620430	0.919180	0.589810
H31	H3	0.656100	0.874500	0.546500
O131	O13	0.736200	0.614900	0.655900
O141	O14	0.565640	0.504740	0.655600
O151	O15	0.624230	0.671400	0.654800
O161	O16	0.542970	0.855770	0.650100
O171	O17	0.590000	0.950600	0.502700
O181	O18	0.687300	0.991300	0.651700
Be41	Be4	0.595500	0.952400	0.118400
P41	P4	0.919180	0.298750	0.089810
H41	H4	0.874500	0.218400	0.046500
O191	O19	0.614900	0.878700	0.155900
O201	O20	0.504740	0.939100	0.155600
O211	O21	0.671400	0.047170	0.154800
O221	O22	0.855770	0.312800	0.150100
O231	O23	0.950600	0.360600	0.002700
O241	O24	0.991300	0.304000	0.151700
Be51	Be5	0.047600	0.643100	0.118400
P51	P5	0.701250	0.620430	0.089810
H51	H5	0.781600	0.656100	0.046500
O251	O25	0.121300	0.736200	0.155900
O261	O26	0.060900	0.565640	0.155600
O271	O27	0.952830	0.624230	0.154800
O281	O28	0.687200	0.542970	0.150100
O291	O29	0.639400	0.590000	0.002700
O301	O30	0.696000	0.687300	0.151700
Be61	Be6	0.356900	0.404500	0.118400
P61	P6	0.379570	0.080820	0.089810
H61	H6	0.343900	0.125500	0.046500
O311	O31	0.263800	0.385100	0.155900
O321	O32	0.434360	0.495260	0.155600
O331	O33	0.375770	0.328600	0.154800
O341	O34	0.457030	0.144230	0.150100
O351	O35	0.410000	0.049400	0.002700
O361	O36	0.312700	0.008700	0.151700
Be71	Be7	0.595500	0.952400	0.381600
P71	P7	0.919180	0.298750	0.410190
H71	H7	0.874500	0.218400	0.453500
O371	O37	0.614900	0.878700	0.344100
O381	O38	0.504740	0.939100	0.344400
O391	O39	0.671400	0.047170	0.345200
O401	O40	0.855770	0.312800	0.349900
O411	O41	0.950600	0.360600	0.497300
O421	O42	0.991300	0.304000	0.348300
Be81	Be8	0.047600	0.643100	0.381600
P81	P8	0.701250	0.620430	0.410190
H81	H8	0.781600	0.656100	0.453500
O431	O43	0.121300	0.736200	0.344100
O441	O44	0.060900	0.565640	0.344400
O451	O45	0.952830	0.624230	0.345200
O461	O46	0.687200	0.542970	0.349900
O471	O47	0.639400	0.590000	0.497300
O481	O48	0.696000	0.687300	0.348300
Be91	Be9	0.356900	0.404500	0.381600
P91	P9	0.379570	0.080820	0.410190
H91	H9	0.343900	0.125500	0.453500
O491	O49	0.263800	0.385100	0.344100
O501	O50	0.434360	0.495260	0.344400
O511	O51	0.375770	0.328600	0.345200
O521	O52	0.457030	0.144230	0.349900
O531	O53	0.410000	0.049400	0.497300
O541	O54	0.312700	0.008700	0.348300
Be101	Be10	0.404500	0.047600	0.881600
P101	P10	0.080820	0.701250	0.910190
H101	H10	0.125500	0.781600	0.953500
O551	O55	0.385100	0.121300	0.844100
O561	O56	0.495260	0.060900	0.844400
O571	O57	0.328600	0.952830	0.845200
O581	O58	0.144230	0.687200	0.849900
O591	O59	0.049400	0.639400	0.997300
O601	O60	0.008700	0.696000	0.848300
Be111	Be11	0.952400	0.356900	0.881600
P111	P11	0.298750	0.379570	0.910190
H111	H11	0.218400	0.343900	0.953500
O611	O61	0.878700	0.263800	0.844100
O621	O62	0.939100	0.434360	0.844400
O631	O63	0.047170	0.375770	0.845200
O641	O64	0.312800	0.457030	0.849900
O651	O65	0.360600	0.410000	0.997300
O661	O66	0.304000	0.312700	0.848300
Be121	Be12	0.643100	0.595500	0.881600
P121	P12	0.620430	0.919180	0.910190
H121	H12	0.656100	0.874500	0.953500
O671	O67	0.736200	0.614900	0.844100
O681	O68	0.565640	0.504740	0.844400
O691	O69	0.624230	0.671400	0.845200
O701	O70	0.542970	0.855770	0.849900
O711	O71	0.590000	0.950600	0.997300
O721	O72	0.687300	0.991300	0.848300
Be131	Be13	0.353900	0.307900	0.750000
Be141	Be14	0.200900	0.715100	0.750000
P131	P13	0.398070	0.172280	0.750000
H131	H13	0.482700	0.236800	0.750000
P141	P14	0.525210	0.037170	0.750000
H141	H14	0.496000	0.962300	0.750000
P151	P15	0.283020	0.906260	0.750000
H151	H15	0.201700	0.900500	0.750000
O731	O73	0.342700	0.213100	0.750000
O741	O74	0.621200	0.075300	0.750000
O751	O75	0.270500	0.817400	0.750000
O761	O76	0.252300	0.663800	0.750000
Be151	Be15	0.692100	0.046000	0.750000
Be161	Be16	0.284900	0.485800	0.750000
P161	P16	0.827720	0.225790	0.750000
H161	H16	0.763200	0.245900	0.750000
P171	P17	0.962830	0.488040	0.750000
H171	H17	0.037700	0.533700	0.750000
P181	P18	0.093740	0.376760	0.750000
H181	H18	0.099500	0.301200	0.750000
O771	O77	0.786900	0.129600	0.750000
O781	O78	0.924700	0.545900	0.750000
O791	O79	0.182600	0.453100	0.750000
O801	O80	0.336200	0.588500	0.750000
Be171	Be17	0.954000	0.646100	0.750000
Be181	Be18	0.514200	0.799100	0.750000
P191	P19	0.774210	0.601930	0.750000
H191	H19	0.754100	0.517300	0.750000
P201	P20	0.511960	0.474790	0.750000
H201	H20	0.466300	0.504000	0.750000
P211	P21	0.623240	0.716980	0.750000
H211	H21	0.698800	0.798300	0.750000
O811	O81	0.870400	0.657300	0.750000
O821	O82	0.454100	0.378800	0.750000
O831	O83	0.546900	0.729500	0.750000
O841	O84	0.411500	0.747700	0.750000
Be191	Be19	0.646100	0.692100	0.250000
Be201	Be20	0.799100	0.284900	0.250000
P221	P22	0.601930	0.827720	0.250000
H221	H22	0.517300	0.763200	0.250000
P231	P23	0.474790	0.962830	0.250000
H231	H23	0.504000	0.037700	0.250000
P241	P24	0.716980	0.093740	0.250000
H241	H24	0.798300	0.099500	0.250000
O851	O85	0.657300	0.786900	0.250000
O861	O86	0.378800	0.924700	0.250000
O871	O87	0.729500	0.182600	0.250000
O881	O88	0.747700	0.336200	0.250000
Be211	Be21	0.307900	0.954000	0.250000
Be221	Be22	0.715100	0.514200	0.250000
P251	P25	0.172280	0.774210	0.250000
H251	H25	0.236800	0.754100	0.250000
P261	P26	0.037170	0.511960	0.250000
H261	H26	0.962300	0.466300	0.250000
P271	P27	0.906260	0.623240	0.250000
H271	H27	0.900500	0.698800	0.250000
O891	O89	0.213100	0.870400	0.250000
O901	O90	0.075300	0.454100	0.250000
O911	O91	0.817400	0.546900	0.250000
O921	O92	0.663800	0.411500	0.250000
Be231	Be23	0.046000	0.353900	0.250000
Be241	Be24	0.485800	0.200900	0.250000
P281	P28	0.225790	0.398070	0.250000
H281	H28	0.245900	0.482700	0.250000
P291	P29	0.488040	0.525210	0.250000
H291	H29	0.533700	0.496000	0.250000
P301	P30	0.376760	0.283020	0.250000
H301	H30	0.301200	0.201700	0.250000
O931	O93	0.129600	0.342700	0.250000
O941	O94	0.545900	0.621200	0.250000
O951	O95	0.453100	0.270500	0.250000
O961	O96	0.588500	0.252300	0.250000
P311	P31	0.333330	0.666670	0.750000
P321	P32	0.666670	0.333330	0.250000
H311	H31	0.333330	0.666670	0.658100
H321	H32	0.666670	0.333330	0.158100
H331	H33	0.666670	0.333330	0.341900
H341	H34	0.333330	0.666670	0.841900
