data_MUVGOA_clean_PM
_symmetry_space_group_name_H-M	'P1'
_cell_length_a	12.614000
_cell_length_b	22.857000
_cell_length_c	14.604000
_cell_angle_alpha	90.000000
_cell_angle_beta	90.000000
_cell_angle_gamma	90.000000
_symmetry_Int_Tables_number 1

loop_
_symmetry_equiv_pos_as_xyz
'x,y,z'

loop_
_atom_site_label
_atom_site_type_symbol
_atom_site_fract_x
_atom_site_fract_y
_atom_site_fract_z
Zn11	Zn1	0.500000	0.750000	0.761420
Zn21	Zn2	0.500000	0.250000	0.738580
Zn31	Zn3	0.500000	0.250000	0.238580
Zn41	Zn4	0.500000	0.750000	0.261420
H11	H1	0.073000	0.904000	0.862000
H21	H2	0.201000	0.840200	0.868000
H31	H3	0.210000	0.845200	0.153000
H41	H4	0.080000	0.918900	0.149000
H51	H5	0.652000	0.950900	0.796000
H61	H6	0.638000	0.856400	0.795800
H71	H7	0.351000	0.854600	0.724000
H81	H8	0.341000	0.951800	0.707000
H91	H9	0.927000	0.596000	0.862000
H101	H10	0.799000	0.659800	0.868000
H111	H11	0.790000	0.654800	0.153000
H121	H12	0.920000	0.581100	0.149000
H131	H13	0.348000	0.549100	0.796000
H141	H14	0.362000	0.643600	0.795800
H151	H15	0.649000	0.645400	0.724000
H161	H16	0.659000	0.548200	0.707000
H171	H17	0.073000	0.096000	0.638000
H181	H18	0.201000	0.159800	0.632000
H191	H19	0.210000	0.154800	0.347000
H201	H20	0.080000	0.081100	0.351000
H211	H21	0.652000	0.049100	0.704000
H221	H22	0.638000	0.143600	0.704200
H231	H23	0.351000	0.145400	0.776000
H241	H24	0.341000	0.048200	0.793000
H251	H25	0.927000	0.404000	0.638000
H261	H26	0.799000	0.340200	0.632000
H271	H27	0.790000	0.345200	0.347000
H281	H28	0.920000	0.418900	0.351000
H291	H29	0.348000	0.450900	0.704000
H301	H30	0.362000	0.356400	0.704200
H311	H31	0.649000	0.354600	0.776000
H321	H32	0.659000	0.451800	0.793000
H331	H33	0.927000	0.096000	0.138000
H341	H34	0.799000	0.159800	0.132000
H351	H35	0.790000	0.154800	0.847000
H361	H36	0.920000	0.081100	0.851000
H371	H37	0.348000	0.049100	0.204000
H381	H38	0.362000	0.143600	0.204200
H391	H39	0.649000	0.145400	0.276000
H401	H40	0.659000	0.048200	0.293000
H411	H41	0.073000	0.404000	0.138000
H421	H42	0.201000	0.340200	0.132000
H431	H43	0.210000	0.345200	0.847000
H441	H44	0.080000	0.418900	0.851000
H451	H45	0.652000	0.450900	0.204000
H461	H46	0.638000	0.356400	0.204200
H471	H47	0.351000	0.354600	0.276000
H481	H48	0.341000	0.451800	0.293000
H491	H49	0.927000	0.904000	0.362000
H501	H50	0.799000	0.840200	0.368000
H511	H51	0.790000	0.845200	0.653000
H521	H52	0.920000	0.918900	0.649000
H531	H53	0.348000	0.950900	0.296000
H541	H54	0.362000	0.856400	0.295800
H551	H55	0.649000	0.854600	0.224000
H561	H56	0.659000	0.951800	0.207000
H571	H57	0.073000	0.596000	0.362000
H581	H58	0.201000	0.659800	0.368000
H591	H59	0.210000	0.654800	0.653000
H601	H60	0.080000	0.581100	0.649000
H611	H61	0.652000	0.549100	0.296000
H621	H62	0.638000	0.643600	0.295800
H631	H63	0.351000	0.645400	0.224000
H641	H64	0.341000	0.548200	0.207000
C11	C1	0.185900	0.860530	0.089750
C21	C2	0.224300	0.835710	0.008280
C31	C3	0.345260	0.766470	0.929900
C41	C4	0.344910	0.768320	0.091760
C51	C5	0.303180	0.789520	0.010140
C61	C6	0.585300	0.875860	0.776600
C71	C7	0.588800	0.936590	0.772220
C81	C8	0.496650	0.967490	0.752300
C91	C9	0.182900	0.856030	0.925680
C101	C10	0.404600	0.935430	0.736600
C111	C11	0.976300	0.966980	0.002100
C121	C12	0.908600	0.962860	0.083900
C131	C13	0.908400	0.959470	0.920500
C141	C14	0.105700	0.902190	0.087400
C151	C15	0.063500	0.920600	0.004320
C161	C16	0.409300	0.874650	0.740400
C171	C17	0.103800	0.897520	0.923500
C181	C18	0.814100	0.639470	0.089750
C191	C19	0.775700	0.664290	0.008280
C201	C20	0.654740	0.733530	0.929900
C211	C21	0.655090	0.731680	0.091760
C221	C22	0.696820	0.710480	0.010140
C231	C23	0.414700	0.624140	0.776600
C241	C24	0.411200	0.563410	0.772220
C251	C25	0.503350	0.532510	0.752300
C261	C26	0.817100	0.643970	0.925680
C271	C27	0.595400	0.564570	0.736600
C281	C28	0.023700	0.533020	0.002100
C291	C29	0.091400	0.537140	0.083900
C301	C30	0.091600	0.540530	0.920500
C311	C31	0.894300	0.597810	0.087400
C321	C32	0.936500	0.579400	0.004320
C331	C33	0.590700	0.625350	0.740400
C341	C34	0.896200	0.602480	0.923500
C351	C35	0.185900	0.139470	0.410250
C361	C36	0.224300	0.164290	0.491720
C371	C37	0.345260	0.233530	0.570100
C381	C38	0.344910	0.231680	0.408240
C391	C39	0.303180	0.210480	0.489860
C401	C40	0.585300	0.124140	0.723400
C411	C41	0.588800	0.063410	0.727780
C421	C42	0.496650	0.032510	0.747700
C431	C43	0.182900	0.143970	0.574320
C441	C44	0.404600	0.064570	0.763400
C451	C45	0.976300	0.033020	0.497900
C461	C46	0.908600	0.037140	0.416100
C471	C47	0.908400	0.040530	0.579500
C481	C48	0.105700	0.097810	0.412600
C491	C49	0.063500	0.079400	0.495680
C501	C50	0.409300	0.125350	0.759600
C511	C51	0.103800	0.102480	0.576500
C521	C52	0.814100	0.360530	0.410250
C531	C53	0.775700	0.335710	0.491720
C541	C54	0.654740	0.266470	0.570100
C551	C55	0.655090	0.268320	0.408240
C561	C56	0.696820	0.289520	0.489860
C571	C57	0.414700	0.375860	0.723400
C581	C58	0.411200	0.436590	0.727780
C591	C59	0.503350	0.467490	0.747700
C601	C60	0.817100	0.356030	0.574320
C611	C61	0.595400	0.435430	0.763400
C621	C62	0.023700	0.466980	0.497900
C631	C63	0.091400	0.462860	0.416100
C641	C64	0.091600	0.459470	0.579500
C651	C65	0.894300	0.402190	0.412600
C661	C66	0.936500	0.420600	0.495680
C671	C67	0.590700	0.374650	0.759600
C681	C68	0.896200	0.397520	0.576500
C691	C69	0.814100	0.139470	0.910250
C701	C70	0.775700	0.164290	0.991720
C711	C71	0.654740	0.233530	0.070100
C721	C72	0.655090	0.231680	0.908240
C731	C73	0.696820	0.210480	0.989860
C741	C74	0.414700	0.124140	0.223400
C751	C75	0.411200	0.063410	0.227780
C761	C76	0.503350	0.032510	0.247700
C771	C77	0.817100	0.143970	0.074320
C781	C78	0.595400	0.064570	0.263400
C791	C79	0.023700	0.033020	0.997900
C801	C80	0.091400	0.037140	0.916100
C811	C81	0.091600	0.040530	0.079500
C821	C82	0.894300	0.097810	0.912600
C831	C83	0.936500	0.079400	0.995680
C841	C84	0.590700	0.125350	0.259600
C851	C85	0.896200	0.102480	0.076500
C861	C86	0.185900	0.360530	0.910250
C871	C87	0.224300	0.335710	0.991720
C881	C88	0.345260	0.266470	0.070100
C891	C89	0.344910	0.268320	0.908240
C901	C90	0.303180	0.289520	0.989860
C911	C91	0.585300	0.375860	0.223400
C921	C92	0.588800	0.436590	0.227780
C931	C93	0.496650	0.467490	0.247700
C941	C94	0.182900	0.356030	0.074320
C951	C95	0.404600	0.435430	0.263400
C961	C96	0.976300	0.466980	0.997900
C971	C97	0.908600	0.462860	0.916100
C981	C98	0.908400	0.459470	0.079500
C991	C99	0.105700	0.402190	0.912600
C1001	C100	0.063500	0.420600	0.995680
C1011	C101	0.409300	0.374650	0.259600
C1021	C102	0.103800	0.397520	0.076500
C1031	C103	0.814100	0.860530	0.589750
C1041	C104	0.775700	0.835710	0.508280
C1051	C105	0.654740	0.766470	0.429900
C1061	C106	0.655090	0.768320	0.591760
C1071	C107	0.696820	0.789520	0.510140
C1081	C108	0.414700	0.875860	0.276600
C1091	C109	0.411200	0.936590	0.272220
C1101	C110	0.503350	0.967490	0.252300
C1111	C111	0.817100	0.856030	0.425680
C1121	C112	0.595400	0.935430	0.236600
C1131	C113	0.023700	0.966980	0.502100
C1141	C114	0.091400	0.962860	0.583900
C1151	C115	0.091600	0.959470	0.420500
C1161	C116	0.894300	0.902190	0.587400
C1171	C117	0.936500	0.920600	0.504320
C1181	C118	0.590700	0.874650	0.240400
C1191	C119	0.896200	0.897520	0.423500
C1201	C120	0.185900	0.639470	0.589750
C1211	C121	0.224300	0.664290	0.508280
C1221	C122	0.345260	0.733530	0.429900
C1231	C123	0.344910	0.731680	0.591760
C1241	C124	0.303180	0.710480	0.510140
C1251	C125	0.585300	0.624140	0.276600
C1261	C126	0.588800	0.563410	0.272220
C1271	C127	0.496650	0.532510	0.252300
C1281	C128	0.182900	0.643970	0.425680
C1291	C129	0.404600	0.564570	0.236600
C1301	C130	0.976300	0.533020	0.502100
C1311	C131	0.908600	0.537140	0.583900
C1321	C132	0.908400	0.540530	0.420500
C1331	C133	0.105700	0.597810	0.587400
C1341	C134	0.063500	0.579400	0.504320
C1351	C135	0.409300	0.625350	0.240400
C1361	C136	0.103800	0.602480	0.423500
N11	N1	0.379700	0.748250	0.863170
N21	N2	0.378900	0.751150	0.159110
N31	N3	0.861200	0.958400	0.149600
N41	N4	0.496690	0.844950	0.760040
N51	N5	0.859400	0.952430	0.855600
N61	N6	0.620300	0.751750	0.863170
N71	N7	0.621100	0.748850	0.159110
N81	N8	0.138800	0.541600	0.149600
N91	N9	0.503310	0.655050	0.760040
N101	N10	0.140600	0.547570	0.855600
N111	N11	0.379700	0.251750	0.636830
N121	N12	0.378900	0.248850	0.340890
N131	N13	0.861200	0.041600	0.350400
N141	N14	0.496690	0.155050	0.739960
N151	N15	0.859400	0.047570	0.644400
N161	N16	0.620300	0.248250	0.636830
N171	N17	0.621100	0.251150	0.340890
N181	N18	0.138800	0.458400	0.350400
N191	N19	0.503310	0.344950	0.739960
N201	N20	0.140600	0.452430	0.644400
N211	N21	0.620300	0.251750	0.136830
N221	N22	0.621100	0.248850	0.840890
N231	N23	0.138800	0.041600	0.850400
N241	N24	0.503310	0.155050	0.239960
N251	N25	0.140600	0.047570	0.144400
N261	N26	0.379700	0.248250	0.136830
N271	N27	0.378900	0.251150	0.840890
N281	N28	0.861200	0.458400	0.850400
N291	N29	0.496690	0.344950	0.239960
N301	N30	0.859400	0.452430	0.144400
N311	N31	0.620300	0.748250	0.363170
N321	N32	0.621100	0.751150	0.659110
N331	N33	0.138800	0.958400	0.649600
N341	N34	0.503310	0.844950	0.260040
N351	N35	0.140600	0.952430	0.355600
N361	N36	0.379700	0.751750	0.363170
N371	N37	0.378900	0.748850	0.659110
N381	N38	0.861200	0.541600	0.649600
N391	N39	0.496690	0.655050	0.260040
N401	N40	0.859400	0.547570	0.355600
