data_MUVJIX_clean_PM
_symmetry_space_group_name_H-M	'P1'
_cell_length_a	9.062000
_cell_length_b	9.618000
_cell_length_c	25.600000
_cell_angle_alpha	90.000000
_cell_angle_beta	90.000000
_cell_angle_gamma	90.000000
_symmetry_Int_Tables_number 1

loop_
_symmetry_equiv_pos_as_xyz
'x,y,z'

loop_
_atom_site_label
_atom_site_type_symbol
_atom_site_fract_x
_atom_site_fract_y
_atom_site_fract_z
Mn11	Mn1	0.226900	0.750000	0.250000
Mn21	Mn2	0.273100	0.750000	0.750000
Mn31	Mn3	0.773100	0.250000	0.750000
Mn41	Mn4	0.726900	0.250000	0.250000
Mn51	Mn5	0.750000	0.444000	0.500000
Mn61	Mn6	0.750000	0.056000	0.000000
Mn71	Mn7	0.250000	0.556000	0.500000
Mn81	Mn8	0.250000	0.944000	0.000000
H11	H1	0.711700	0.710900	0.285400
H21	H2	0.732400	0.634400	0.372100
H31	H3	0.168600	0.650400	0.360200
H41	H4	0.788300	0.710900	0.714600
H51	H5	0.767600	0.634400	0.627900
H61	H6	0.331400	0.650400	0.639800
H71	H7	0.788300	0.789100	0.785400
H81	H8	0.767600	0.865600	0.872100
H91	H9	0.331400	0.849600	0.860200
H101	H10	0.711700	0.789100	0.214600
H111	H11	0.732400	0.865600	0.127900
H121	H12	0.168600	0.849600	0.139800
H131	H13	0.288300	0.289100	0.714600
H141	H14	0.267600	0.365600	0.627900
H151	H15	0.831400	0.349600	0.639800
H161	H16	0.211700	0.289100	0.285400
H171	H17	0.232400	0.365600	0.372100
H181	H18	0.668600	0.349600	0.360200
H191	H19	0.211700	0.210900	0.214600
H201	H20	0.232400	0.134400	0.127900
H211	H21	0.668600	0.150400	0.139800
H221	H22	0.288300	0.210900	0.785400
H231	H23	0.267600	0.134400	0.872100
H241	H24	0.831400	0.150400	0.860200
C11	C1	0.348000	0.791000	0.212500
C21	C2	0.936000	0.725000	0.276200
C31	C3	0.805000	0.699000	0.301800
C41	C4	0.819000	0.654000	0.352400
C51	C5	0.952000	0.638000	0.374600
C61	C6	0.073000	0.662000	0.345400
C71	C7	0.970000	0.590000	0.429900
C81	C8	0.152000	0.791000	0.787500
C91	C9	0.564000	0.725000	0.723800
C101	C10	0.695000	0.699000	0.698200
C111	C11	0.681000	0.654000	0.647600
C121	C12	0.548000	0.638000	0.625400
C131	C13	0.427000	0.662000	0.654600
C141	C14	0.530000	0.590000	0.570100
C151	C15	0.152000	0.709000	0.712500
C161	C16	0.564000	0.775000	0.776200
C171	C17	0.695000	0.801000	0.801800
C181	C18	0.681000	0.846000	0.852400
C191	C19	0.548000	0.862000	0.874600
C201	C20	0.427000	0.838000	0.845400
C211	C21	0.530000	0.910000	0.929900
C221	C22	0.348000	0.709000	0.287500
C231	C23	0.936000	0.775000	0.223800
C241	C24	0.805000	0.801000	0.198200
C251	C25	0.819000	0.846000	0.147600
C261	C26	0.952000	0.862000	0.125400
C271	C27	0.073000	0.838000	0.154600
C281	C28	0.970000	0.910000	0.070100
C291	C29	0.652000	0.209000	0.787500
C301	C30	0.064000	0.275000	0.723800
C311	C31	0.195000	0.301000	0.698200
C321	C32	0.181000	0.346000	0.647600
C331	C33	0.048000	0.362000	0.625400
C341	C34	0.927000	0.338000	0.654600
C351	C35	0.030000	0.410000	0.570100
C361	C36	0.848000	0.209000	0.212500
C371	C37	0.436000	0.275000	0.276200
C381	C38	0.305000	0.301000	0.301800
C391	C39	0.319000	0.346000	0.352400
C401	C40	0.452000	0.362000	0.374600
C411	C41	0.573000	0.338000	0.345400
C421	C42	0.470000	0.410000	0.429900
C431	C43	0.848000	0.291000	0.287500
C441	C44	0.436000	0.225000	0.223800
C451	C45	0.305000	0.199000	0.198200
C461	C46	0.319000	0.154000	0.147600
C471	C47	0.452000	0.138000	0.125400
C481	C48	0.573000	0.162000	0.154600
C491	C49	0.470000	0.090000	0.070100
C501	C50	0.652000	0.291000	0.712500
C511	C51	0.064000	0.225000	0.776200
C521	C52	0.195000	0.199000	0.801800
C531	C53	0.181000	0.154000	0.852400
C541	C54	0.048000	0.138000	0.874600
C551	C55	0.927000	0.162000	0.845400
C561	C56	0.030000	0.090000	0.929900
N11	N1	0.060000	0.704000	0.295800
N21	N2	0.440000	0.704000	0.704200
N31	N3	0.440000	0.796000	0.795800
N41	N4	0.060000	0.796000	0.204200
N51	N5	0.940000	0.296000	0.704200
N61	N6	0.560000	0.296000	0.295800
N71	N7	0.560000	0.204000	0.204200
N81	N8	0.940000	0.204000	0.795800
Cl11	Cl1	0.205100	0.524000	0.211000
Cl21	Cl2	0.294900	0.524000	0.789000
Cl31	Cl3	0.294900	0.976000	0.711000
Cl41	Cl4	0.205100	0.976000	0.289000
Cl51	Cl5	0.794900	0.476000	0.789000
Cl61	Cl6	0.705100	0.476000	0.211000
Cl71	Cl7	0.705100	0.024000	0.289000
Cl81	Cl8	0.794900	0.024000	0.711000
O11	O1	0.476000	0.832000	0.174400
O21	O2	0.850000	0.592000	0.456900
O31	O3	0.095000	0.558000	0.442300
O41	O4	0.024000	0.832000	0.825600
O51	O5	0.650000	0.592000	0.543100
O61	O6	0.405000	0.558000	0.557700
O71	O7	0.024000	0.668000	0.674400
O81	O8	0.650000	0.908000	0.956900
O91	O9	0.405000	0.942000	0.942300
O101	O10	0.476000	0.668000	0.325600
O111	O11	0.850000	0.908000	0.043100
O121	O12	0.095000	0.942000	0.057700
O131	O13	0.524000	0.168000	0.825600
O141	O14	0.150000	0.408000	0.543100
O151	O15	0.905000	0.442000	0.557700
O161	O16	0.976000	0.168000	0.174400
O171	O17	0.350000	0.408000	0.456900
O181	O18	0.595000	0.442000	0.442300
O191	O19	0.976000	0.332000	0.325600
O201	O20	0.350000	0.092000	0.043100
O211	O21	0.595000	0.058000	0.057700
O221	O22	0.524000	0.332000	0.674400
O231	O23	0.150000	0.092000	0.956900
O241	O24	0.905000	0.058000	0.942300
