data_MUVNEX_clean_PM
_symmetry_space_group_name_H-M	'P1'
_cell_length_a	12.563000
_cell_length_b	22.354000
_cell_length_c	26.164000
_cell_angle_alpha	90.000000
_cell_angle_beta	99.581000
_cell_angle_gamma	90.000000
_symmetry_Int_Tables_number 1

loop_
_symmetry_equiv_pos_as_xyz
'x,y,z'

loop_
_atom_site_label
_atom_site_type_symbol
_atom_site_fract_x
_atom_site_fract_y
_atom_site_fract_z
Mo11	Mo1	0.719170	0.392470	0.077470
Mo21	Mo2	0.576460	0.266920	0.108370
Mo31	Mo3	0.918320	0.380100	0.062670
Mo41	Mo4	0.040950	0.238440	0.074060
Mo51	Mo5	0.660710	0.161380	0.112140
Mo61	Mo6	0.929420	0.146220	0.094760
P11	P1	0.831200	0.088000	0.197800
P21	P2	0.144500	0.354130	0.143720
P31	P3	0.850980	0.273840	0.147720
P41	P4	0.590070	0.391080	0.179780
Mn11	Mn1	0.348760	0.436520	0.203840
O11	O1	0.896400	0.280700	0.204300
O21	O2	0.850200	0.132300	0.244600
O31	O3	0.900700	0.207000	0.039800
O41	O4	0.579200	0.340500	0.059200
O51	O5	0.768600	0.118600	0.070900
O61	O6	0.110900	0.344700	0.195100
O71	O7	0.153600	0.294000	0.115100
O81	O8	0.915700	0.095400	0.161500
O91	O9	0.001600	0.314900	0.026700
O101	O10	0.722900	0.103700	0.168600
O111	O11	0.833000	0.025300	0.218000
O121	O12	0.784900	0.338700	0.031300
O131	O13	0.622200	0.213500	0.165900
O141	O14	0.047000	0.189700	0.135900
O151	O15	0.063300	0.395000	0.108100
O161	O16	0.649500	0.419600	0.138800
O171	O17	0.548200	0.328700	0.163200
O181	O18	0.743700	0.308900	0.130900
O191	O19	0.825800	0.206800	0.134000
O201	O20	0.930600	0.297000	0.112500
O211	O21	0.255300	0.384400	0.148800
O221	O22	0.667500	0.387200	0.231000
O231	O23	0.649100	0.223900	0.058000
O241	O24	0.496300	0.432800	0.184100
O251	O25	0.855100	0.417800	0.117400
Mo71	Mo7	0.219170	0.892470	0.077470
Mo81	Mo8	0.076460	0.766920	0.108370
Mo91	Mo9	0.418320	0.880100	0.062670
Mo101	Mo10	0.540950	0.738440	0.074060
Mo111	Mo11	0.160710	0.661380	0.112140
Mo121	Mo12	0.429420	0.646220	0.094760
P51	P5	0.331200	0.588000	0.197800
P61	P6	0.644500	0.854130	0.143720
P71	P7	0.350980	0.773840	0.147720
P81	P8	0.090070	0.891080	0.179780
Mn21	Mn2	0.848760	0.936520	0.203840
O261	O26	0.396400	0.780700	0.204300
O271	O27	0.350200	0.632300	0.244600
O281	O28	0.400700	0.707000	0.039800
O291	O29	0.079200	0.840500	0.059200
O301	O30	0.268600	0.618600	0.070900
O311	O31	0.610900	0.844700	0.195100
O321	O32	0.653600	0.794000	0.115100
O331	O33	0.415700	0.595400	0.161500
O341	O34	0.501600	0.814900	0.026700
O351	O35	0.222900	0.603700	0.168600
O361	O36	0.333000	0.525300	0.218000
O371	O37	0.284900	0.838700	0.031300
O381	O38	0.122200	0.713500	0.165900
O391	O39	0.547000	0.689700	0.135900
O401	O40	0.563300	0.895000	0.108100
O411	O41	0.149500	0.919600	0.138800
O421	O42	0.048200	0.828700	0.163200
O431	O43	0.243700	0.808900	0.130900
O441	O44	0.325800	0.706800	0.134000
O451	O45	0.430600	0.797000	0.112500
O461	O46	0.755300	0.884400	0.148800
O471	O47	0.167500	0.887200	0.231000
O481	O48	0.149100	0.723900	0.058000
O491	O49	0.996300	0.932800	0.184100
O501	O50	0.355100	0.917800	0.117400
Mo131	Mo13	0.280830	0.392470	0.422530
Mo141	Mo14	0.423540	0.266920	0.391630
Mo151	Mo15	0.081680	0.380100	0.437330
Mo161	Mo16	0.959050	0.238440	0.425940
Mo171	Mo17	0.339290	0.161380	0.387860
Mo181	Mo18	0.070580	0.146220	0.405240
P91	P9	0.168800	0.088000	0.302200
P101	P10	0.855500	0.354130	0.356280
P111	P11	0.149020	0.273840	0.352280
P121	P12	0.409930	0.391080	0.320220
Mn31	Mn3	0.651240	0.436520	0.296160
O511	O51	0.103600	0.280700	0.295700
O521	O52	0.149800	0.132300	0.255400
O531	O53	0.099300	0.207000	0.460200
O541	O54	0.420800	0.340500	0.440800
O551	O55	0.231400	0.118600	0.429100
O561	O56	0.889100	0.344700	0.304900
O571	O57	0.846400	0.294000	0.384900
O581	O58	0.084300	0.095400	0.338500
O591	O59	0.998400	0.314900	0.473300
O601	O60	0.277100	0.103700	0.331400
O611	O61	0.167000	0.025300	0.282000
O621	O62	0.215100	0.338700	0.468700
O631	O63	0.377800	0.213500	0.334100
O641	O64	0.953000	0.189700	0.364100
O651	O65	0.936700	0.395000	0.391900
O661	O66	0.350500	0.419600	0.361200
O671	O67	0.451800	0.328700	0.336800
O681	O68	0.256300	0.308900	0.369100
O691	O69	0.174200	0.206800	0.366000
O701	O70	0.069400	0.297000	0.387500
O711	O71	0.744700	0.384400	0.351200
O721	O72	0.332500	0.387200	0.269000
O731	O73	0.350900	0.223900	0.442000
O741	O74	0.503700	0.432800	0.315900
O751	O75	0.144900	0.417800	0.382600
Mo191	Mo19	0.780830	0.892470	0.422530
Mo201	Mo20	0.923540	0.766920	0.391630
Mo211	Mo21	0.581680	0.880100	0.437330
Mo221	Mo22	0.459050	0.738440	0.425940
Mo231	Mo23	0.839290	0.661380	0.387860
Mo241	Mo24	0.570580	0.646220	0.405240
P131	P13	0.668800	0.588000	0.302200
P141	P14	0.355500	0.854130	0.356280
P151	P15	0.649020	0.773840	0.352280
P161	P16	0.909930	0.891080	0.320220
Mn41	Mn4	0.151240	0.936520	0.296160
O761	O76	0.603600	0.780700	0.295700
O771	O77	0.649800	0.632300	0.255400
O781	O78	0.599300	0.707000	0.460200
O791	O79	0.920800	0.840500	0.440800
O801	O80	0.731400	0.618600	0.429100
O811	O81	0.389100	0.844700	0.304900
O821	O82	0.346400	0.794000	0.384900
O831	O83	0.584300	0.595400	0.338500
O841	O84	0.498400	0.814900	0.473300
O851	O85	0.777100	0.603700	0.331400
O861	O86	0.667000	0.525300	0.282000
O871	O87	0.715100	0.838700	0.468700
O881	O88	0.877800	0.713500	0.334100
O891	O89	0.453000	0.689700	0.364100
O901	O90	0.436700	0.895000	0.391900
O911	O91	0.850500	0.919600	0.361200
O921	O92	0.951800	0.828700	0.336800
O931	O93	0.756300	0.808900	0.369100
O941	O94	0.674200	0.706800	0.366000
O951	O95	0.569400	0.797000	0.387500
O961	O96	0.244700	0.884400	0.351200
O971	O97	0.832500	0.887200	0.269000
O981	O98	0.850900	0.723900	0.442000
O991	O99	0.003700	0.932800	0.315900
O1001	O100	0.644900	0.917800	0.382600
Mo251	Mo25	0.280830	0.607530	0.922530
Mo261	Mo26	0.423540	0.733080	0.891630
Mo271	Mo27	0.081680	0.619900	0.937330
Mo281	Mo28	0.959050	0.761560	0.925940
Mo291	Mo29	0.339290	0.838620	0.887860
Mo301	Mo30	0.070580	0.853780	0.905240
P171	P17	0.168800	0.912000	0.802200
P181	P18	0.855500	0.645870	0.856280
P191	P19	0.149020	0.726160	0.852280
P201	P20	0.409930	0.608920	0.820220
Mn51	Mn5	0.651240	0.563480	0.796160
O1011	O101	0.103600	0.719300	0.795700
O1021	O102	0.149800	0.867700	0.755400
O1031	O103	0.099300	0.793000	0.960200
O1041	O104	0.420800	0.659500	0.940800
O1051	O105	0.231400	0.881400	0.929100
O1061	O106	0.889100	0.655300	0.804900
O1071	O107	0.846400	0.706000	0.884900
O1081	O108	0.084300	0.904600	0.838500
O1091	O109	0.998400	0.685100	0.973300
O1101	O110	0.277100	0.896300	0.831400
O1111	O111	0.167000	0.974700	0.782000
O1121	O112	0.215100	0.661300	0.968700
O1131	O113	0.377800	0.786500	0.834100
O1141	O114	0.953000	0.810300	0.864100
O1151	O115	0.936700	0.605000	0.891900
O1161	O116	0.350500	0.580400	0.861200
O1171	O117	0.451800	0.671300	0.836800
O1181	O118	0.256300	0.691100	0.869100
O1191	O119	0.174200	0.793200	0.866000
O1201	O120	0.069400	0.703000	0.887500
O1211	O121	0.744700	0.615600	0.851200
O1221	O122	0.332500	0.612800	0.769000
O1231	O123	0.350900	0.776100	0.942000
O1241	O124	0.503700	0.567200	0.815900
O1251	O125	0.144900	0.582200	0.882600
Mo311	Mo31	0.780830	0.107530	0.922530
Mo321	Mo32	0.923540	0.233080	0.891630
Mo331	Mo33	0.581680	0.119900	0.937330
Mo341	Mo34	0.459050	0.261560	0.925940
Mo351	Mo35	0.839290	0.338620	0.887860
Mo361	Mo36	0.570580	0.353780	0.905240
P211	P21	0.668800	0.412000	0.802200
P221	P22	0.355500	0.145870	0.856280
P231	P23	0.649020	0.226160	0.852280
P241	P24	0.909930	0.108920	0.820220
Mn61	Mn6	0.151240	0.063480	0.796160
O1261	O126	0.603600	0.219300	0.795700
O1271	O127	0.649800	0.367700	0.755400
O1281	O128	0.599300	0.293000	0.960200
O1291	O129	0.920800	0.159500	0.940800
O1301	O130	0.731400	0.381400	0.929100
O1311	O131	0.389100	0.155300	0.804900
O1321	O132	0.346400	0.206000	0.884900
O1331	O133	0.584300	0.404600	0.838500
O1341	O134	0.498400	0.185100	0.973300
O1351	O135	0.777100	0.396300	0.831400
O1361	O136	0.667000	0.474700	0.782000
O1371	O137	0.715100	0.161300	0.968700
O1381	O138	0.877800	0.286500	0.834100
O1391	O139	0.453000	0.310300	0.864100
O1401	O140	0.436700	0.105000	0.891900
O1411	O141	0.850500	0.080400	0.861200
O1421	O142	0.951800	0.171300	0.836800
O1431	O143	0.756300	0.191100	0.869100
O1441	O144	0.674200	0.293200	0.866000
O1451	O145	0.569400	0.203000	0.887500
O1461	O146	0.244700	0.115600	0.851200
O1471	O147	0.832500	0.112800	0.769000
O1481	O148	0.850900	0.276100	0.942000
O1491	O149	0.003700	0.067200	0.815900
O1501	O150	0.644900	0.082200	0.882600
Mo371	Mo37	0.719170	0.607530	0.577470
Mo381	Mo38	0.576460	0.733080	0.608370
Mo391	Mo39	0.918320	0.619900	0.562670
Mo401	Mo40	0.040950	0.761560	0.574060
Mo411	Mo41	0.660710	0.838620	0.612140
Mo421	Mo42	0.929420	0.853780	0.594760
P251	P25	0.831200	0.912000	0.697800
P261	P26	0.144500	0.645870	0.643720
P271	P27	0.850980	0.726160	0.647720
P281	P28	0.590070	0.608920	0.679780
Mn71	Mn7	0.348760	0.563480	0.703840
O1511	O151	0.896400	0.719300	0.704300
O1521	O152	0.850200	0.867700	0.744600
O1531	O153	0.900700	0.793000	0.539800
O1541	O154	0.579200	0.659500	0.559200
O1551	O155	0.768600	0.881400	0.570900
O1561	O156	0.110900	0.655300	0.695100
O1571	O157	0.153600	0.706000	0.615100
O1581	O158	0.915700	0.904600	0.661500
O1591	O159	0.001600	0.685100	0.526700
O1601	O160	0.722900	0.896300	0.668600
O1611	O161	0.833000	0.974700	0.718000
O1621	O162	0.784900	0.661300	0.531300
O1631	O163	0.622200	0.786500	0.665900
O1641	O164	0.047000	0.810300	0.635900
O1651	O165	0.063300	0.605000	0.608100
O1661	O166	0.649500	0.580400	0.638800
O1671	O167	0.548200	0.671300	0.663200
O1681	O168	0.743700	0.691100	0.630900
O1691	O169	0.825800	0.793200	0.634000
O1701	O170	0.930600	0.703000	0.612500
O1711	O171	0.255300	0.615600	0.648800
O1721	O172	0.667500	0.612800	0.731000
O1731	O173	0.649100	0.776100	0.558000
O1741	O174	0.496300	0.567200	0.684100
O1751	O175	0.855100	0.582200	0.617400
Mo431	Mo43	0.219170	0.107530	0.577470
Mo441	Mo44	0.076460	0.233080	0.608370
Mo451	Mo45	0.418320	0.119900	0.562670
Mo461	Mo46	0.540950	0.261560	0.574060
Mo471	Mo47	0.160710	0.338620	0.612140
Mo481	Mo48	0.429420	0.353780	0.594760
P291	P29	0.331200	0.412000	0.697800
P301	P30	0.644500	0.145870	0.643720
P311	P31	0.350980	0.226160	0.647720
P321	P32	0.090070	0.108920	0.679780
Mn81	Mn8	0.848760	0.063480	0.703840
O1761	O176	0.396400	0.219300	0.704300
O1771	O177	0.350200	0.367700	0.744600
O1781	O178	0.400700	0.293000	0.539800
O1791	O179	0.079200	0.159500	0.559200
O1801	O180	0.268600	0.381400	0.570900
O1811	O181	0.610900	0.155300	0.695100
O1821	O182	0.653600	0.206000	0.615100
O1831	O183	0.415700	0.404600	0.661500
O1841	O184	0.501600	0.185100	0.526700
O1851	O185	0.222900	0.396300	0.668600
O1861	O186	0.333000	0.474700	0.718000
O1871	O187	0.284900	0.161300	0.531300
O1881	O188	0.122200	0.286500	0.665900
O1891	O189	0.547000	0.310300	0.635900
O1901	O190	0.563300	0.105000	0.608100
O1911	O191	0.149500	0.080400	0.638800
O1921	O192	0.048200	0.171300	0.663200
O1931	O193	0.243700	0.191100	0.630900
O1941	O194	0.325800	0.293200	0.634000
O1951	O195	0.430600	0.203000	0.612500
O1961	O196	0.755300	0.115600	0.648800
O1971	O197	0.167500	0.112800	0.731000
O1981	O198	0.149100	0.276100	0.558000
O1991	O199	0.996300	0.067200	0.684100
O2001	O200	0.355100	0.082200	0.617400
Mn91	Mn9	0.750000	0.250000	0.000000
Mn101	Mn10	0.250000	0.250000	0.500000
Mn111	Mn11	0.250000	0.750000	0.000000
Mn121	Mn12	0.750000	0.750000	0.500000
Mn131	Mn13	0.000000	0.346600	0.250000
Mn141	Mn14	0.500000	0.846600	0.250000
Mn151	Mn15	0.000000	0.653400	0.750000
Mn161	Mn16	0.500000	0.153400	0.750000
