data_MUXHUI01_clean_PM
_symmetry_space_group_name_H-M	'P1'
_cell_length_a	7.700800
_cell_length_b	9.915500
_cell_length_c	14.989900
_cell_angle_alpha	90.000000
_cell_angle_beta	98.466000
_cell_angle_gamma	90.000000
_symmetry_Int_Tables_number 1

loop_
_symmetry_equiv_pos_as_xyz
'x,y,z'

loop_
_atom_site_label
_atom_site_type_symbol
_atom_site_fract_x
_atom_site_fract_y
_atom_site_fract_z
Nd11	Nd1	0.855080	0.543850	0.640010
Nd21	Nd2	0.644920	0.043850	0.859990
Nd31	Nd3	0.144920	0.456150	0.359990
Nd41	Nd4	0.355080	0.956150	0.140010
H11	H1	0.826100	0.110900	0.633900
H21	H2	0.796000	0.109000	0.364700
H31	H3	0.617300	0.801400	0.484400
H41	H4	0.673900	0.610900	0.866100
H51	H5	0.704000	0.609000	0.135300
H61	H6	0.882700	0.301400	0.015600
H71	H7	0.173900	0.889100	0.366100
H81	H8	0.204000	0.891000	0.635300
H91	H9	0.382700	0.198600	0.515600
H101	H10	0.326100	0.389100	0.133900
H111	H11	0.296000	0.391000	0.864700
H121	H12	0.117300	0.698600	0.984400
C11	C1	0.691600	0.863000	0.654880
C21	C2	0.720300	0.941500	0.573060
C31	C3	0.795800	0.068700	0.578440
C41	C4	0.825400	0.132000	0.499110
C51	C5	0.911200	0.267900	0.500970
C61	C6	0.773700	0.067200	0.417370
C71	C7	0.670000	0.886000	0.487920
C81	C8	0.457300	0.468200	0.538670
C91	C9	0.808400	0.363000	0.845120
C101	C10	0.779700	0.441500	0.926940
C111	C11	0.704200	0.568700	0.921560
C121	C12	0.674600	0.632000	0.000890
C131	C13	0.588800	0.767900	0.999030
C141	C14	0.726300	0.567200	0.082630
C151	C15	0.830000	0.386000	0.012080
C161	C16	0.042700	0.968200	0.961330
C171	C17	0.308400	0.137000	0.345120
C181	C18	0.279700	0.058500	0.426940
C191	C19	0.204200	0.931300	0.421560
C201	C20	0.174600	0.868000	0.500890
C211	C21	0.088800	0.732100	0.499030
C221	C22	0.226300	0.932800	0.582630
C231	C23	0.330000	0.114000	0.512080
C241	C24	0.542700	0.531800	0.461330
C251	C25	0.191600	0.637000	0.154880
C261	C26	0.220300	0.558500	0.073060
C271	C27	0.295800	0.431300	0.078440
C281	C28	0.325400	0.368000	0.999110
C291	C29	0.411200	0.232100	0.000970
C301	C30	0.273700	0.432800	0.917370
C311	C31	0.170000	0.614000	0.987920
C321	C32	0.957300	0.031800	0.038670
N11	N1	0.692600	0.946500	0.410980
N21	N2	0.807400	0.446500	0.089020
N31	N3	0.307400	0.053500	0.589020
N41	N4	0.192600	0.553500	0.910980
O11	O1	0.664300	0.737410	0.645420
O21	O2	0.696100	0.923700	0.728290
O31	O3	0.914100	0.336800	0.571290
O41	O4	0.974500	0.303800	0.432760
O51	O5	0.552400	0.449300	0.612270
O61	O6	0.296800	0.439300	0.520490
O71	O7	0.835700	0.237410	0.854580
O81	O8	0.803900	0.423700	0.771710
O91	O9	0.585900	0.836800	0.928710
O101	O10	0.525500	0.803800	0.067240
O111	O11	0.947600	0.949300	0.887730
O121	O12	0.203200	0.939300	0.979510
O131	O13	0.335700	0.262590	0.354580
O141	O14	0.303900	0.076300	0.271710
O151	O15	0.085900	0.663200	0.428710
O161	O16	0.025500	0.696200	0.567240
O171	O17	0.447600	0.550700	0.387730
O181	O18	0.703200	0.560700	0.479510
O191	O19	0.164300	0.762590	0.145420
O201	O20	0.196100	0.576300	0.228290
O211	O21	0.414100	0.163200	0.071290
O221	O22	0.474500	0.196200	0.932760
O231	O23	0.052400	0.050700	0.112270
O241	O24	0.796800	0.060700	0.020490
