data_MUXHIW01_clean_PM
_symmetry_space_group_name_H-M	'P1'
_cell_length_a	7.764800
_cell_length_b	9.982700
_cell_length_c	15.151500
_cell_angle_alpha	90.000000
_cell_angle_beta	98.591000
_cell_angle_gamma	90.000000
_symmetry_Int_Tables_number 1

loop_
_symmetry_equiv_pos_as_xyz
'x,y,z'

loop_
_atom_site_label
_atom_site_type_symbol
_atom_site_fract_x
_atom_site_fract_y
_atom_site_fract_z
La11	La1	0.858590	0.543270	0.640680
La21	La2	0.641410	0.043270	0.859320
La31	La3	0.141410	0.456730	0.359320
La41	La4	0.358590	0.956730	0.140680
H11	H1	0.795900	0.106600	0.366500
H21	H2	0.619300	0.801400	0.484900
H31	H3	0.824000	0.109800	0.632300
H41	H4	0.704100	0.606600	0.133500
H51	H5	0.880700	0.301400	0.015100
H61	H6	0.676000	0.609800	0.867700
H71	H7	0.204100	0.893400	0.633500
H81	H8	0.380700	0.198600	0.515100
H91	H9	0.176000	0.890200	0.367700
H101	H10	0.295900	0.393400	0.866500
H111	H11	0.119300	0.698600	0.984900
H121	H12	0.324000	0.390200	0.132300
C11	C1	0.690200	0.864000	0.653360
C21	C2	0.910900	0.264920	0.501480
C31	C3	0.824500	0.130010	0.499290
C41	C4	0.773500	0.065300	0.418550
C51	C5	0.671000	0.885700	0.488370
C61	C6	0.719900	0.940970	0.572230
C71	C7	0.794500	0.067500	0.577410
C81	C8	0.457100	0.467860	0.538220
C91	C9	0.809800	0.364000	0.846640
C101	C10	0.589100	0.764920	0.998520
C111	C11	0.675500	0.630010	0.000710
C121	C12	0.726500	0.565300	0.081450
C131	C13	0.829000	0.385700	0.011630
C141	C14	0.780100	0.440970	0.927770
C151	C15	0.705500	0.567500	0.922590
C161	C16	0.042900	0.967860	0.961780
C171	C17	0.309800	0.136000	0.346640
C181	C18	0.089100	0.735080	0.498520
C191	C19	0.175500	0.869990	0.500710
C201	C20	0.226500	0.934700	0.581450
C211	C21	0.329000	0.114300	0.511630
C221	C22	0.280100	0.059030	0.427770
C231	C23	0.205500	0.932500	0.422590
C241	C24	0.542900	0.532140	0.461780
C251	C25	0.190200	0.636000	0.153360
C261	C26	0.410900	0.235080	0.001480
C271	C27	0.324500	0.369990	0.999290
C281	C28	0.273500	0.434700	0.918550
C291	C29	0.171000	0.614300	0.988370
C301	C30	0.219900	0.559030	0.072230
C311	C31	0.294500	0.432500	0.077410
C321	C32	0.957100	0.032140	0.038220
N11	N1	0.693300	0.945790	0.412100
N21	N2	0.806700	0.445790	0.087900
N31	N3	0.306700	0.054210	0.587900
N41	N4	0.193300	0.554210	0.912100
O11	O1	0.918000	0.332010	0.571650
O21	O2	0.970200	0.301200	0.433270
O31	O3	0.695100	0.924660	0.725360
O41	O4	0.662730	0.739450	0.644410
O51	O5	0.553020	0.446740	0.610580
O61	O6	0.298250	0.440730	0.520610
O71	O7	0.582000	0.832010	0.928350
O81	O8	0.529800	0.801200	0.066730
O91	O9	0.804900	0.424660	0.774640
O101	O10	0.837270	0.239450	0.855590
O111	O11	0.946980	0.946740	0.889420
O121	O12	0.201750	0.940730	0.979390
O131	O13	0.082000	0.667990	0.428350
O141	O14	0.029800	0.698800	0.566730
O151	O15	0.304900	0.075340	0.274640
O161	O16	0.337270	0.260550	0.355590
O171	O17	0.446980	0.553260	0.389420
O181	O18	0.701750	0.559270	0.479390
O191	O19	0.418000	0.167990	0.071650
O201	O20	0.470200	0.198800	0.933270
O211	O21	0.195100	0.575340	0.225360
O221	O22	0.162730	0.760550	0.144410
O231	O23	0.053020	0.053260	0.110580
O241	O24	0.798250	0.059270	0.020610
