data_MUZVUA_clean_PM
_symmetry_space_group_name_H-M	'P1'
_cell_length_a	9.725000
_cell_length_b	14.654000
_cell_length_c	19.736000
_cell_angle_alpha	80.500000
_cell_angle_beta	77.200000
_cell_angle_gamma	81.700000
_symmetry_Int_Tables_number 1

loop_
_symmetry_equiv_pos_as_xyz
'x,y,z'

loop_
_atom_site_label
_atom_site_type_symbol
_atom_site_fract_x
_atom_site_fract_y
_atom_site_fract_z
Cd11	Cd1	0.464140	0.062930	0.193580
Cd21	Cd2	0.165780	0.231620	0.247840
O11	O1	0.279800	0.055700	0.142280
O21	O2	0.084700	0.142000	0.189720
O31	O3	0.536700	0.178100	0.109210
O41	O4	0.374600	0.263000	0.176430
O51	O5	0.299400	0.102800	0.295300
O61	O6	0.360300	0.953300	0.290890
O71	O7	0.991200	0.267100	0.351970
O81	O8	0.193800	0.324600	0.324300
N11	N1	0.035300	0.358000	0.191000
N21	N2	0.589600	0.943700	0.136190
C11	C1	0.152900	0.087600	0.147700
C21	C2	0.072100	0.060000	0.098490
C31	C3	0.928700	0.097500	0.098800
H11	H1	0.880200	0.135900	0.133100
C41	C4	0.139800	0.001800	0.050600
H21	H2	0.234700	0.975400	0.051400
C51	C5	0.070500	0.980200	0.000070
C61	C6	0.860500	0.078600	0.050200
H31	H3	0.765500	0.105300	0.050200
C71	C7	0.443400	0.502800	0.029300
C81	C8	0.418500	0.423200	0.079200
H41	H4	0.344700	0.427300	0.119500
C91	C9	0.500400	0.339100	0.070000
C101	C10	0.611700	0.334200	0.011600
H51	H5	0.668200	0.276500	0.005300
C111	C11	0.640800	0.411000	0.963300
H61	H6	0.718100	0.406300	0.924600
C121	C12	0.466800	0.254500	0.122100
C131	C13	0.049600	0.884000	0.469700
H71	H7	0.025700	0.822100	0.483700
C141	C14	0.148900	0.904300	0.410100
H81	H8	0.195000	0.856100	0.383400
C151	C15	0.183400	0.995800	0.387920
C161	C16	0.120000	0.064000	0.427350
H91	H9	0.145500	0.125400	0.412700
C171	C17	0.017500	0.046000	0.489440
C181	C18	0.287600	0.017300	0.320700
C191	C19	0.110000	0.443900	0.423800
H101	H10	0.199000	0.448300	0.392500
C201	C20	0.026900	0.381300	0.417700
C211	C21	0.894200	0.374200	0.463200
H111	H11	0.836200	0.329800	0.458200
C221	C22	0.847200	0.430500	0.514800
H121	H12	0.756800	0.425500	0.544800
C231	C23	0.933400	0.495600	0.523200
C241	C24	0.072700	0.319900	0.360500
C251	C25	0.034200	0.443900	0.202700
H131	H13	0.098500	0.455100	0.229500
C261	C26	0.948100	0.516900	0.179200
H141	H14	0.949600	0.576600	0.191700
C271	C27	0.858200	0.505800	0.137500
C281	C28	0.857500	0.417900	0.124000
H151	H15	0.796100	0.405700	0.096100
C291	C29	0.948100	0.345900	0.151700
H161	H16	0.946900	0.284800	0.141700
C301	C30	0.765000	0.586800	0.104900
H171	H17	0.713400	0.625500	0.141200
H181	H18	0.694400	0.562500	0.085400
C311	C31	0.862200	0.647900	0.044400
H191	H19	0.942500	0.660300	0.063600
H201	H20	0.902800	0.609100	0.006600
C321	C32	0.808200	0.727200	0.015500
H211	H21	0.740500	0.713400	0.988800
H221	H22	0.886200	0.755100	0.980700
C331	C33	0.731900	0.802100	0.059800
C341	C34	0.777800	0.824200	0.115200
H231	H23	0.860600	0.790300	0.128700
C351	C35	0.705900	0.894500	0.151200
H241	H24	0.741700	0.908400	0.188900
C361	C36	0.546300	0.921800	0.081500
H251	H25	0.465300	0.957800	0.067600
C371	C37	0.610900	0.851400	0.045000
H261	H26	0.571200	0.836700	0.008800
Cd31	Cd3	0.535860	0.937070	0.806420
Cd41	Cd4	0.834220	0.768380	0.752160
O91	O9	0.720200	0.944300	0.857720
O101	O10	0.915300	0.858000	0.810280
O111	O11	0.463300	0.821900	0.890790
O121	O12	0.625400	0.737000	0.823570
O131	O13	0.700600	0.897200	0.704700
O141	O14	0.639700	0.046700	0.709110
O151	O15	0.008800	0.732900	0.648030
O161	O16	0.806200	0.675400	0.675700
N31	N3	0.964700	0.642000	0.809000
N41	N4	0.410400	0.056300	0.863810
C381	C38	0.847100	0.912400	0.852300
C391	C39	0.927900	0.940000	0.901510
C401	C40	0.071300	0.902500	0.901200
H271	H27	0.119800	0.864100	0.866900
C411	C41	0.860200	0.998200	0.949400
H281	H28	0.765300	0.024600	0.948600
C421	C42	0.929500	0.019800	0.999930
C431	C43	0.139500	0.921400	0.949800
H291	H29	0.234500	0.894700	0.949800
C441	C44	0.556600	0.497200	0.970700
C451	C45	0.581500	0.576800	0.920800
H301	H30	0.655300	0.572700	0.880500
C461	C46	0.499600	0.660900	0.930000
C471	C47	0.388300	0.665800	0.988400
H311	H31	0.331800	0.723500	0.994700
C481	C48	0.359200	0.589000	0.036700
H321	H32	0.281900	0.593700	0.075400
C491	C49	0.533200	0.745500	0.877900
C501	C50	0.950400	0.116000	0.530300
H331	H33	0.974300	0.177900	0.516300
C511	C51	0.851100	0.095700	0.589900
H341	H34	0.805000	0.143900	0.616600
C521	C52	0.816600	0.004200	0.612080
C531	C53	0.880000	0.936000	0.572650
H351	H35	0.854500	0.874600	0.587300
C541	C54	0.982500	0.954000	0.510560
C551	C55	0.712400	0.982700	0.679300
C561	C56	0.890000	0.556100	0.576200
H361	H36	0.801000	0.551700	0.607500
C571	C57	0.973100	0.618700	0.582300
C581	C58	0.105800	0.625800	0.536800
H371	H37	0.163800	0.670200	0.541800
C591	C59	0.152800	0.569500	0.485200
H381	H38	0.243200	0.574500	0.455200
C601	C60	0.066600	0.504400	0.476800
C611	C61	0.927300	0.680100	0.639500
C621	C62	0.965800	0.556100	0.797300
H391	H39	0.901500	0.544900	0.770500
C631	C63	0.051900	0.483100	0.820800
H401	H40	0.050400	0.423400	0.808300
C641	C64	0.141800	0.494200	0.862500
C651	C65	0.142500	0.582100	0.876000
H411	H41	0.203900	0.594300	0.903900
C661	C66	0.051900	0.654100	0.848300
H421	H42	0.053100	0.715200	0.858300
C671	C67	0.235000	0.413200	0.895100
H431	H43	0.286600	0.374500	0.858800
H441	H44	0.305600	0.437500	0.914600
C681	C68	0.137800	0.352100	0.955600
H451	H45	0.057500	0.339700	0.936400
H461	H46	0.097200	0.390900	0.993400
C691	C69	0.191800	0.272800	0.984500
H471	H47	0.259500	0.286600	0.011200
H481	H48	0.113800	0.244900	0.019300
C701	C70	0.268100	0.197900	0.940200
C711	C71	0.222200	0.175800	0.884800
H491	H49	0.139400	0.209700	0.871300
C721	C72	0.294100	0.105500	0.848800
H501	H50	0.258300	0.091600	0.811100
C731	C73	0.453700	0.078200	0.918500
H511	H51	0.534700	0.042200	0.932400
C741	C74	0.389100	0.148600	0.955000
H521	H52	0.428800	0.163300	0.991200
