data_NABNUA_clean_PM
_symmetry_space_group_name_H-M	'P1'
_cell_length_a	9.897600
_cell_length_b	14.582200
_cell_length_c	26.573200
_cell_angle_alpha	90.000000
_cell_angle_beta	91.930000
_cell_angle_gamma	90.000000
_symmetry_Int_Tables_number 1

loop_
_symmetry_equiv_pos_as_xyz
'x,y,z'

loop_
_atom_site_label
_atom_site_type_symbol
_atom_site_fract_x
_atom_site_fract_y
_atom_site_fract_z
Cd11	Cd1	0.778010	0.874670	0.554390
Cd21	Cd2	0.794840	0.631060	0.584440
Cd31	Cd3	0.721990	0.374670	0.945610
Cd41	Cd4	0.705160	0.131060	0.915560
Cd51	Cd5	0.221990	0.125330	0.445610
Cd61	Cd6	0.205160	0.368940	0.415560
Cd71	Cd7	0.278010	0.625330	0.054390
Cd81	Cd8	0.294840	0.868940	0.084440
H11	H1	0.068600	0.617200	0.514000
H21	H2	0.475900	0.620500	0.505700
H31	H3	0.281900	0.837900	0.564100
H41	H4	0.780900	0.742100	0.459300
H51	H5	0.732300	0.736400	0.373400
H61	H6	0.685000	0.009000	0.372200
H71	H7	0.728800	0.008900	0.458400
H81	H8	0.631800	0.924100	0.296800
H91	H9	0.593100	0.818800	0.303500
H101	H10	0.741400	0.830300	0.240500
H111	H11	0.813800	0.776800	0.286400
H121	H12	0.854500	0.965800	0.271600
H131	H13	0.941300	0.899900	0.308100
H141	H14	0.001400	0.884200	0.112000
H151	H15	0.851000	0.901600	0.174400
H161	H16	0.165700	0.872900	0.275800
H171	H17	0.305900	0.851900	0.209100
H181	H18	0.576600	0.885600	0.647400
H191	H19	0.569900	0.904400	0.733400
H201	H20	0.976300	0.876300	0.741300
H211	H21	0.973400	0.863200	0.654500
H221	H22	0.857800	0.927300	0.817200
H231	H23	0.697200	0.942200	0.814100
H241	H24	0.665900	0.779000	0.813400
H251	H25	0.826300	0.765300	0.817900
H261	H26	0.664800	0.845300	0.894500
H271	H27	0.826600	0.842200	0.898700
H281	H28	0.922100	0.541500	0.943200
H291	H29	0.941900	0.694000	0.916000
H301	H30	0.533400	0.704300	0.906300
H311	H31	0.528800	0.553700	0.931600
H321	H32	0.431400	0.117200	0.986000
H331	H33	0.024100	0.120500	0.994300
H341	H34	0.218100	0.337900	0.935900
H351	H35	0.719100	0.242100	0.040700
H361	H36	0.767700	0.236400	0.126600
H371	H37	0.815000	0.509000	0.127800
H381	H38	0.771200	0.508900	0.041600
H391	H39	0.868200	0.424100	0.203200
H401	H40	0.906900	0.318800	0.196500
H411	H41	0.758600	0.330300	0.259500
H421	H42	0.686200	0.276800	0.213600
H431	H43	0.645500	0.465800	0.228400
H441	H44	0.558700	0.399900	0.191900
H451	H45	0.498600	0.384200	0.388000
H461	H46	0.649000	0.401600	0.325600
H471	H47	0.334300	0.372900	0.224200
H481	H48	0.194100	0.351900	0.290900
H491	H49	0.923400	0.385600	0.852600
H501	H50	0.930100	0.404400	0.766600
H511	H51	0.523700	0.376300	0.758700
H521	H52	0.526600	0.363200	0.845500
H531	H53	0.642200	0.427300	0.682800
H541	H54	0.802800	0.442200	0.685900
H551	H55	0.834100	0.279000	0.686600
H561	H56	0.673700	0.265300	0.682100
H571	H57	0.835200	0.345300	0.605500
H581	H58	0.673400	0.342200	0.601300
H591	H59	0.577900	0.041500	0.556800
H601	H60	0.558100	0.194000	0.584000
H611	H61	0.966600	0.204300	0.593700
H621	H62	0.971200	0.053700	0.568400
H631	H63	0.931400	0.382800	0.486000
H641	H64	0.524100	0.379500	0.494300
H651	H65	0.718100	0.162100	0.435900
H661	H66	0.219100	0.257900	0.540700
H671	H67	0.267700	0.263600	0.626600
H681	H68	0.315000	0.991000	0.627800
H691	H69	0.271200	0.991100	0.541600
H701	H70	0.368200	0.075900	0.703200
H711	H71	0.406900	0.181200	0.696500
H721	H72	0.258600	0.169700	0.759500
H731	H73	0.186200	0.223200	0.713600
H741	H74	0.145500	0.034200	0.728400
H751	H75	0.058700	0.100100	0.691900
H761	H76	0.998600	0.115800	0.888000
H771	H77	0.149000	0.098400	0.825600
H781	H78	0.834300	0.127100	0.724200
H791	H79	0.694100	0.148100	0.790900
H801	H80	0.423400	0.114400	0.352600
H811	H81	0.430100	0.095600	0.266600
H821	H82	0.023700	0.123700	0.258700
H831	H83	0.026600	0.136800	0.345500
H841	H84	0.142200	0.072700	0.182800
H851	H85	0.302800	0.057800	0.185900
H861	H86	0.334100	0.221000	0.186600
H871	H87	0.173700	0.234700	0.182100
H881	H88	0.335200	0.154700	0.105500
H891	H89	0.173400	0.157800	0.101300
H901	H90	0.077900	0.458500	0.056800
H911	H91	0.058100	0.306000	0.084000
H921	H92	0.466600	0.295700	0.093700
H931	H93	0.471200	0.446300	0.068400
H941	H94	0.568600	0.882800	0.014000
H951	H95	0.975900	0.879500	0.005700
H961	H96	0.781900	0.662100	0.064100
H971	H97	0.280900	0.757900	0.959300
H981	H98	0.232300	0.763600	0.873400
H991	H99	0.185000	0.491000	0.872200
H1001	H100	0.228800	0.491100	0.958400
H1011	H101	0.131800	0.575900	0.796800
H1021	H102	0.093100	0.681200	0.803500
H1031	H103	0.241400	0.669700	0.740500
H1041	H104	0.313800	0.723200	0.786400
H1051	H105	0.354500	0.534200	0.771600
H1061	H106	0.441300	0.600100	0.808100
H1071	H107	0.501400	0.615800	0.612000
H1081	H108	0.351000	0.598400	0.674400
H1091	H109	0.665700	0.627100	0.775800
H1101	H110	0.805900	0.648100	0.709100
H1111	H111	0.076600	0.614400	0.147400
H1121	H112	0.069900	0.595600	0.233400
H1131	H113	0.476300	0.623700	0.241300
H1141	H114	0.473400	0.636800	0.154500
H1151	H115	0.357800	0.572700	0.317200
H1161	H116	0.197200	0.557800	0.314100
H1171	H117	0.165900	0.721000	0.313400
H1181	H118	0.326300	0.734700	0.317900
H1191	H119	0.164800	0.654700	0.394500
H1201	H120	0.326600	0.657800	0.398700
H1211	H121	0.422100	0.958500	0.443200
H1221	H122	0.441900	0.806000	0.416000
H1231	H123	0.033400	0.795700	0.406300
H1241	H124	0.028800	0.946300	0.431600
C11	C1	0.155100	0.735700	0.541200
C21	C2	0.152200	0.648200	0.519200
C31	C3	0.272500	0.606600	0.505000
C41	C4	0.394000	0.649300	0.514700
C51	C5	0.396700	0.735500	0.537800
C61	C6	0.278800	0.778300	0.549700
C71	C7	0.027900	0.785400	0.551100
C81	C8	0.265500	0.517900	0.475100
C91	C9	0.530600	0.781500	0.547200
C101	C10	0.760400	0.797300	0.441600
C111	C11	0.731300	0.793900	0.390200
C121	C12	0.701500	0.870600	0.363700
C131	C13	0.702900	0.953000	0.389400
C141	C14	0.730900	0.952100	0.440900
C151	C15	0.667100	0.863900	0.308300
C161	C16	0.778500	0.837300	0.275400
C171	C17	0.892400	0.903200	0.275000
C181	C18	0.034100	0.881000	0.145900
C191	C19	0.944300	0.892200	0.182300
C201	C20	0.994600	0.889600	0.234000
C211	C21	0.129000	0.874900	0.242300
C221	C22	0.212400	0.862600	0.202200
C231	C23	0.659100	0.884700	0.666700
C241	C24	0.654500	0.895500	0.718200
C251	C25	0.772700	0.893600	0.748300
C261	C26	0.892600	0.879700	0.722800
C271	C27	0.890400	0.870900	0.670900
C281	C28	0.771300	0.900900	0.804300
C291	C29	0.751100	0.805900	0.827300
C301	C30	0.745500	0.810100	0.884800
C311	C31	0.842000	0.574900	0.935000
C321	C32	0.855500	0.666500	0.918700
C331	C33	0.739300	0.714400	0.906700
C341	C34	0.615500	0.672000	0.912800
C351	C35	0.614300	0.582400	0.928500
C361	C36	0.344900	0.235700	0.958800
C371	C37	0.347800	0.148200	0.980800
C381	C38	0.227500	0.106600	0.995000
C391	C39	0.106000	0.149300	0.985300
C401	C40	0.103300	0.235500	0.962200
C411	C41	0.221200	0.278300	0.950300
C421	C42	0.472100	0.285400	0.948900
C431	C43	0.234500	0.017900	0.024900
C441	C44	0.969400	0.281500	0.952800
C451	C45	0.739600	0.297300	0.058400
C461	C46	0.768700	0.293900	0.109800
C471	C47	0.798500	0.370600	0.136300
C481	C48	0.797100	0.453000	0.110600
C491	C49	0.769100	0.452100	0.059100
C501	C50	0.832900	0.363900	0.191700
C511	C51	0.721500	0.337300	0.224600
C521	C52	0.607600	0.403200	0.225000
C531	C53	0.465900	0.381000	0.354100
C541	C54	0.555700	0.392200	0.317700
C551	C55	0.505400	0.389600	0.266000
C561	C56	0.371000	0.374900	0.257700
C571	C57	0.287600	0.362600	0.297800
C581	C58	0.840900	0.384700	0.833300
C591	C59	0.845500	0.395500	0.781800
C601	C60	0.727300	0.393600	0.751700
C611	C61	0.607400	0.379700	0.777200
C621	C62	0.609600	0.370900	0.829100
C631	C63	0.728700	0.400900	0.695700
C641	C64	0.748900	0.305900	0.672700
C651	C65	0.754500	0.310100	0.615200
C661	C66	0.658000	0.074900	0.565000
C671	C67	0.644500	0.166500	0.581300
C681	C68	0.760700	0.214400	0.593300
C691	C69	0.884500	0.172000	0.587200
C701	C70	0.885700	0.082400	0.571500
C711	C71	0.844900	0.264300	0.458800
C721	C72	0.847800	0.351800	0.480800
C731	C73	0.727500	0.393400	0.495000
C741	C74	0.606000	0.350700	0.485300
C751	C75	0.603300	0.264500	0.462200
C761	C76	0.721200	0.221700	0.450300
C771	C77	0.972100	0.214600	0.448900
C781	C78	0.734500	0.482100	0.524900
C791	C79	0.469400	0.218500	0.452800
C801	C80	0.239600	0.202700	0.558400
C811	C81	0.268700	0.206100	0.609800
C821	C82	0.298500	0.129400	0.636300
C831	C83	0.297100	0.047000	0.610600
C841	C84	0.269100	0.047900	0.559100
C851	C85	0.332900	0.136100	0.691700
C861	C86	0.221500	0.162700	0.724600
C871	C87	0.107600	0.096800	0.725000
C881	C88	0.965900	0.119000	0.854100
C891	C89	0.055700	0.107800	0.817700
C901	C90	0.005400	0.110400	0.766000
C911	C91	0.871000	0.125100	0.757700
C921	C92	0.787600	0.137400	0.797800
C931	C93	0.340900	0.115300	0.333300
C941	C94	0.345500	0.104500	0.281800
C951	C95	0.227300	0.106400	0.251700
C961	C96	0.107400	0.120300	0.277200
C971	C97	0.109600	0.129100	0.329100
C981	C98	0.228700	0.099100	0.195700
C991	C99	0.248900	0.194100	0.172700
C1001	C100	0.254500	0.189900	0.115200
C1011	C101	0.158000	0.425100	0.065000
C1021	C102	0.144500	0.333500	0.081300
C1031	C103	0.260700	0.285600	0.093300
C1041	C104	0.384500	0.328000	0.087200
C1051	C105	0.385700	0.417600	0.071500
C1061	C106	0.655100	0.764300	0.041200
C1071	C107	0.652200	0.851800	0.019200
C1081	C108	0.772500	0.893400	0.005000
C1091	C109	0.894000	0.850700	0.014700
C1101	C110	0.896700	0.764500	0.037800
C1111	C111	0.778800	0.721700	0.049700
C1121	C112	0.527900	0.714600	0.051100
C1131	C113	0.765500	0.982100	0.975100
C1141	C114	0.030600	0.718500	0.047200
C1151	C115	0.260400	0.702700	0.941600
C1161	C116	0.231300	0.706100	0.890200
C1171	C117	0.201500	0.629400	0.863700
C1181	C118	0.202900	0.547000	0.889400
C1191	C119	0.230900	0.547900	0.940900
C1201	C120	0.167100	0.636100	0.808300
C1211	C121	0.278500	0.662700	0.775400
C1221	C122	0.392400	0.596800	0.775000
C1231	C123	0.534100	0.619000	0.645900
C1241	C124	0.444300	0.607800	0.682300
C1251	C125	0.494600	0.610400	0.734000
C1261	C126	0.629000	0.625100	0.742300
C1271	C127	0.712400	0.637400	0.702200
C1281	C128	0.159100	0.615300	0.166700
C1291	C129	0.154500	0.604500	0.218200
C1301	C130	0.272700	0.606400	0.248300
C1311	C131	0.392600	0.620300	0.222800
C1321	C132	0.390400	0.629100	0.170900
C1331	C133	0.271300	0.599100	0.304300
C1341	C134	0.251100	0.694100	0.327300
C1351	C135	0.245500	0.689900	0.384800
C1361	C136	0.342000	0.925100	0.435000
C1371	C137	0.355500	0.833500	0.418700
C1381	C138	0.239300	0.785600	0.406700
C1391	C139	0.115500	0.828000	0.412800
C1401	C140	0.114300	0.917600	0.428500
N11	N1	0.760100	0.877600	0.467000
N21	N2	0.168700	0.865100	0.154300
N31	N3	0.774300	0.873000	0.642900
N41	N4	0.724200	0.532700	0.939600
N51	N5	0.739900	0.377600	0.033000
N61	N6	0.331300	0.365100	0.345700
N71	N7	0.725700	0.373000	0.857100
N81	N8	0.775800	0.032700	0.560400
N91	N9	0.239900	0.122400	0.533000
N101	N10	0.831300	0.134900	0.845700
N111	N11	0.225700	0.127000	0.357100
N121	N12	0.275800	0.467300	0.060400
N131	N13	0.260100	0.622400	0.967000
N141	N14	0.668700	0.634900	0.654300
N151	N15	0.274300	0.627000	0.142900
N161	N16	0.224200	0.967300	0.439600
O11	O1	0.030500	0.869700	0.559200
O21	O2	0.915500	0.741700	0.549100
O31	O3	0.161000	0.468400	0.478700
O41	O4	0.359400	0.498000	0.446400
O51	O5	0.533400	0.868100	0.553800
O61	O6	0.639100	0.735500	0.547900
O71	O7	0.469500	0.369700	0.940800
O81	O8	0.584500	0.241700	0.950900
O91	O9	0.339000	0.968400	0.021300
O101	O10	0.140600	0.998000	0.053600
O111	O11	0.966600	0.368100	0.946200
O121	O12	0.860900	0.235500	0.952100
O131	O13	0.969500	0.130300	0.440800
O141	O14	0.084500	0.258300	0.450900
O151	O15	0.839000	0.531600	0.521300
O161	O16	0.640600	0.502000	0.553600
O171	O17	0.466600	0.131900	0.446200
O181	O18	0.360900	0.264500	0.452100
O191	O19	0.530500	0.630300	0.059200
O201	O20	0.415500	0.758300	0.049100
O211	O21	0.661000	0.031600	0.978700
O221	O22	0.859400	0.002000	0.946400
O231	O23	0.033400	0.631900	0.053800
O241	O24	0.139100	0.764500	0.047900
