data_NADZID_clean_PM
_symmetry_space_group_name_H-M	'P1'
_cell_length_a	8.832600
_cell_length_b	10.159000
_cell_length_c	13.979000
_cell_angle_alpha	90.000000
_cell_angle_beta	90.000000
_cell_angle_gamma	90.000000
_symmetry_Int_Tables_number 1

loop_
_symmetry_equiv_pos_as_xyz
'x,y,z'

loop_
_atom_site_label
_atom_site_type_symbol
_atom_site_fract_x
_atom_site_fract_y
_atom_site_fract_z
Y11	Y1	0.749890	0.499930	0.886790
Y21	Y2	0.750110	0.999930	0.613210
Y31	Y3	0.250110	0.500070	0.113210
Y41	Y4	0.249890	0.000070	0.386790
H11	H1	0.402100	0.656800	0.877200
H21	H2	0.008100	0.750300	0.751200
H31	H3	0.402300	0.842800	0.622100
H41	H4	0.097900	0.156800	0.622800
H51	H5	0.491900	0.250300	0.748800
H61	H6	0.097700	0.342800	0.877900
H71	H7	0.597900	0.343200	0.122800
H81	H8	0.991900	0.249700	0.248800
H91	H9	0.597700	0.157200	0.377900
H101	H10	0.902100	0.843200	0.377200
H111	H11	0.508100	0.749700	0.251200
H121	H12	0.902300	0.657200	0.122100
C11	C1	0.106100	0.636300	0.907900
C21	C2	0.191200	0.695900	0.826700
C31	C3	0.349100	0.695200	0.827000
C41	C4	0.426500	0.753300	0.750400
C51	C5	0.106100	0.865800	0.591400
C61	C6	0.192400	0.803200	0.673800
C71	C7	0.113400	0.749600	0.751000
C81	C8	0.349800	0.806200	0.673200
C91	C9	0.598000	0.759000	0.755800
C101	C10	0.393900	0.136300	0.592100
C111	C11	0.308800	0.195900	0.673300
C121	C12	0.150900	0.195200	0.673000
C131	C13	0.073500	0.253300	0.749600
C141	C14	0.393900	0.365800	0.908600
C151	C15	0.307600	0.303200	0.826200
C161	C16	0.386600	0.249600	0.749000
C171	C17	0.150200	0.306200	0.826800
C181	C18	0.902000	0.259000	0.744200
C191	C19	0.893900	0.363700	0.092100
C201	C20	0.808800	0.304100	0.173300
C211	C21	0.650900	0.304800	0.173000
C221	C22	0.573500	0.246700	0.249600
C231	C23	0.893900	0.134200	0.408600
C241	C24	0.807600	0.196800	0.326200
C251	C25	0.886600	0.250400	0.249000
C261	C26	0.650200	0.193800	0.326800
C271	C27	0.402000	0.241000	0.244200
C281	C28	0.606100	0.863700	0.407900
C291	C29	0.691200	0.804100	0.326700
C301	C30	0.849100	0.804800	0.327000
C311	C31	0.926500	0.746700	0.250400
C321	C32	0.606100	0.634200	0.091400
C331	C33	0.692400	0.696800	0.173800
C341	C34	0.613400	0.750400	0.251000
C351	C35	0.849800	0.693800	0.173200
C361	C36	0.098000	0.741000	0.255800
O11	O1	0.972700	0.602500	0.893700
O21	O2	0.665700	0.674500	0.808200
O31	O3	0.972700	0.898800	0.606500
O41	O4	0.174000	0.622000	0.986100
O51	O5	0.174000	0.877900	0.514300
O61	O6	0.664500	0.825200	0.692200
O71	O7	0.527300	0.102500	0.606300
O81	O8	0.834300	0.174500	0.691800
O91	O9	0.527300	0.398800	0.893500
O101	O10	0.326000	0.122000	0.513900
O111	O11	0.326000	0.377900	0.985700
O121	O12	0.835500	0.325200	0.807800
O131	O13	0.027300	0.397500	0.106300
O141	O14	0.334300	0.325500	0.191800
O151	O15	0.027300	0.101200	0.393500
O161	O16	0.826000	0.378000	0.013900
O171	O17	0.826000	0.122100	0.485700
O181	O18	0.335500	0.174800	0.307800
O191	O19	0.472700	0.897500	0.393700
O201	O20	0.165700	0.825500	0.308200
O211	O21	0.472700	0.601200	0.106500
O221	O22	0.674000	0.878000	0.486100
O231	O23	0.674000	0.622100	0.014300
O241	O24	0.164500	0.674800	0.192200
