data_NALWOO_clean_PM
_symmetry_space_group_name_H-M	'P1'
_cell_length_a	7.316200
_cell_length_b	19.404000
_cell_length_c	26.155000
_cell_angle_alpha	90.000000
_cell_angle_beta	90.000000
_cell_angle_gamma	90.000000
_symmetry_Int_Tables_number 1

loop_
_symmetry_equiv_pos_as_xyz
'x,y,z'

loop_
_atom_site_label
_atom_site_type_symbol
_atom_site_fract_x
_atom_site_fract_y
_atom_site_fract_z
Ba11	Ba1	0.398290	0.693740	0.992980
Ba21	Ba2	0.601710	0.306260	0.492980
Ba31	Ba3	0.898290	0.806260	0.992980
Ba41	Ba4	0.101710	0.193740	0.492980
H11	H1	0.131800	0.125100	0.028000
H21	H2	0.129200	0.227600	0.981800
H31	H3	0.979800	0.318400	0.941900
H41	H4	0.270900	0.409500	0.750400
H51	H5	0.069700	0.218400	0.729700
H61	H6	0.030000	0.413400	0.805500
H71	H7	0.371600	0.413000	0.667800
H81	H8	0.130700	0.210000	0.817500
H91	H9	0.167800	0.221100	0.644400
H101	H10	0.027400	0.976300	0.064200
H111	H11	0.933600	0.127500	0.858700
H121	H12	0.796600	0.479300	0.844400
H131	H13	0.088800	0.428700	0.968300
H141	H14	0.750200	0.589600	0.878000
H151	H15	0.923800	0.027300	0.905300
H161	H16	0.058200	0.537500	0.000000
H171	H17	0.868200	0.874900	0.528000
H181	H18	0.870800	0.772400	0.481800
H191	H19	0.020200	0.681600	0.441900
H201	H20	0.729100	0.590500	0.250400
H211	H21	0.930300	0.781600	0.229700
H221	H22	0.970000	0.586600	0.305500
H231	H23	0.628400	0.587000	0.167800
H241	H24	0.869300	0.790000	0.317500
H251	H25	0.832200	0.778900	0.144400
H261	H26	0.972600	0.023700	0.564200
H271	H27	0.066400	0.872500	0.358700
H281	H28	0.203400	0.520700	0.344400
H291	H29	0.911200	0.571300	0.468300
H301	H30	0.249800	0.410400	0.378000
H311	H31	0.076200	0.972700	0.405300
H321	H32	0.941800	0.462500	0.500000
H331	H33	0.631800	0.374900	0.028000
H341	H34	0.629200	0.272400	0.981800
H351	H35	0.479800	0.181600	0.941900
H361	H36	0.770900	0.090500	0.750400
H371	H37	0.569700	0.281600	0.729700
H381	H38	0.530000	0.086600	0.805500
H391	H39	0.871600	0.087000	0.667800
H401	H40	0.630700	0.290000	0.817500
H411	H41	0.667800	0.278900	0.644400
H421	H42	0.527400	0.523700	0.064200
H431	H43	0.433600	0.372500	0.858700
H441	H44	0.296600	0.020700	0.844400
H451	H45	0.588800	0.071300	0.968300
H461	H46	0.250200	0.910400	0.878000
H471	H47	0.423800	0.472700	0.905300
H481	H48	0.558200	0.962500	0.000000
H491	H49	0.368200	0.625100	0.528000
H501	H50	0.370800	0.727600	0.481800
H511	H51	0.520200	0.818400	0.441900
H521	H52	0.229100	0.909500	0.250400
H531	H53	0.430300	0.718400	0.229700
H541	H54	0.470000	0.913400	0.305500
H551	H55	0.128400	0.913000	0.167800
H561	H56	0.369300	0.710000	0.317500
H571	H57	0.332200	0.721100	0.144400
H581	H58	0.472600	0.476300	0.564200
H591	H59	0.566400	0.627500	0.358700
H601	H60	0.703400	0.979300	0.344400
H611	H61	0.411200	0.928700	0.468300
H621	H62	0.749800	0.089600	0.378000
H631	H63	0.576200	0.527300	0.405300
H641	H64	0.441800	0.037500	0.500000
C11	C1	0.097900	0.311600	0.803800
C21	C2	0.089700	0.125500	0.994000
C31	C3	0.092100	0.186600	0.965600
C41	C4	0.157900	0.313000	0.748800
C51	C5	0.267700	0.316000	0.645700
C61	C6	0.004800	0.316600	0.906600
C71	C7	0.249600	0.371600	0.728800
C81	C8	0.128700	0.257900	0.717000
C91	C9	0.039800	0.373500	0.825600
C101	C10	0.995700	0.375700	0.878200
C111	C11	0.307300	0.374400	0.679900
C121	C12	0.098000	0.252100	0.832800
C131	C13	0.050900	0.253200	0.883900
C141	C14	0.041200	0.189100	0.914000
C151	C15	0.186600	0.259900	0.665300
C161	C16	0.335400	0.318100	0.591200
C171	C17	0.013800	0.999600	0.998700
C181	C18	0.024700	0.065600	0.971600
C191	C19	0.951600	0.444400	0.901500
C201	C20	0.974600	0.127700	0.892800
C211	C21	0.849600	0.491300	0.875900
C221	C22	0.024600	0.461900	0.949300
C231	C23	0.822200	0.557500	0.895800
C241	C24	0.967800	0.067800	0.920800
C251	C25	0.003600	0.526100	0.968600
C261	C26	0.902200	0.575700	0.942400
C271	C27	0.890800	0.649700	0.960800
C281	C28	0.902100	0.688400	0.303800
C291	C29	0.910300	0.874500	0.494000
C301	C30	0.907900	0.813400	0.465600
C311	C31	0.842100	0.687000	0.248800
C321	C32	0.732300	0.684000	0.145700
C331	C33	0.995200	0.683400	0.406600
C341	C34	0.750400	0.628400	0.228800
C351	C35	0.871300	0.742100	0.217000
C361	C36	0.960200	0.626500	0.325600
C371	C37	0.004300	0.624300	0.378200
C381	C38	0.692700	0.625600	0.179900
C391	C39	0.902000	0.747900	0.332800
C401	C40	0.949100	0.746800	0.383900
C411	C41	0.958800	0.810900	0.414000
C421	C42	0.813400	0.740100	0.165300
C431	C43	0.664600	0.681900	0.091200
C441	C44	0.986200	0.000400	0.498700
C451	C45	0.975300	0.934400	0.471600
C461	C46	0.048400	0.555600	0.401500
C471	C47	0.025400	0.872300	0.392800
C481	C48	0.150400	0.508700	0.375900
C491	C49	0.975400	0.538100	0.449300
C501	C50	0.177800	0.442500	0.395800
C511	C51	0.032200	0.932200	0.420800
C521	C52	0.996400	0.473900	0.468600
C531	C53	0.097800	0.424300	0.442400
C541	C54	0.109200	0.350300	0.460800
C551	C55	0.597900	0.188400	0.803800
C561	C56	0.589700	0.374500	0.994000
C571	C57	0.592100	0.313400	0.965600
C581	C58	0.657900	0.187000	0.748800
C591	C59	0.767700	0.184000	0.645700
C601	C60	0.504800	0.183400	0.906600
C611	C61	0.749600	0.128400	0.728800
C621	C62	0.628700	0.242100	0.717000
C631	C63	0.539800	0.126500	0.825600
C641	C64	0.495700	0.124300	0.878200
C651	C65	0.807300	0.125600	0.679900
C661	C66	0.598000	0.247900	0.832800
C671	C67	0.550900	0.246800	0.883900
C681	C68	0.541200	0.310900	0.914000
C691	C69	0.686600	0.240100	0.665300
C701	C70	0.835400	0.181900	0.591200
C711	C71	0.513800	0.500400	0.998700
C721	C72	0.524700	0.434400	0.971600
C731	C73	0.451600	0.055600	0.901500
C741	C74	0.474600	0.372300	0.892800
C751	C75	0.349600	0.008700	0.875900
C761	C76	0.524600	0.038100	0.949300
C771	C77	0.322200	0.942500	0.895800
C781	C78	0.467800	0.432200	0.920800
C791	C79	0.503600	0.973900	0.968600
C801	C80	0.402200	0.924300	0.942400
C811	C81	0.390800	0.850300	0.960800
C821	C82	0.402100	0.811600	0.303800
C831	C83	0.410300	0.625500	0.494000
C841	C84	0.407900	0.686600	0.465600
C851	C85	0.342100	0.813000	0.248800
C861	C86	0.232300	0.816000	0.145700
C871	C87	0.495200	0.816600	0.406600
C881	C88	0.250400	0.871600	0.228800
C891	C89	0.371300	0.757900	0.217000
C901	C90	0.460200	0.873500	0.325600
C911	C91	0.504300	0.875700	0.378200
C921	C92	0.192700	0.874400	0.179900
C931	C93	0.402000	0.752100	0.332800
C941	C94	0.449100	0.753200	0.383900
C951	C95	0.458800	0.689100	0.414000
C961	C96	0.313400	0.759900	0.165300
C971	C97	0.164600	0.818100	0.091200
C981	C98	0.486200	0.499600	0.498700
C991	C99	0.475300	0.565600	0.471600
C1001	C100	0.548400	0.944400	0.401500
C1011	C101	0.525400	0.627700	0.392800
C1021	C102	0.650400	0.991300	0.375900
C1031	C103	0.475400	0.961900	0.449300
C1041	C104	0.677800	0.057500	0.395800
C1051	C105	0.532200	0.567800	0.420800
C1061	C106	0.496400	0.026100	0.468600
C1071	C107	0.597800	0.075700	0.442400
C1081	C108	0.609200	0.149700	0.460800
O11	O1	0.749700	0.683100	0.951700
O21	O2	0.026800	0.671700	0.985700
O31	O3	0.939100	0.948100	0.980100
O41	O4	0.429200	0.370400	0.577100
O51	O5	0.306900	0.266800	0.563870
O61	O6	0.092600	0.998200	0.043900
O71	O7	0.250300	0.316900	0.451700
O81	O8	0.973200	0.328300	0.485700
O91	O9	0.060900	0.051900	0.480100
O101	O10	0.570800	0.629600	0.077100
O111	O11	0.693100	0.733200	0.063870
O121	O12	0.907400	0.001800	0.543900
O131	O13	0.249700	0.816900	0.951700
O141	O14	0.526800	0.828300	0.985700
O151	O15	0.439100	0.551900	0.980100
O161	O16	0.929200	0.129600	0.577100
O171	O17	0.806900	0.233200	0.563870
O181	O18	0.592600	0.501800	0.043900
O191	O19	0.750300	0.183100	0.451700
O201	O20	0.473200	0.171700	0.485700
O211	O21	0.560900	0.448100	0.480100
O221	O22	0.070800	0.870400	0.077100
O231	O23	0.193100	0.766800	0.063870
O241	O24	0.407400	0.498200	0.543900
