data_NALYEG_clean_PM
_symmetry_space_group_name_H-M	'P1'
_cell_length_a	9.773600
_cell_length_b	18.353900
_cell_length_c	18.353900
_cell_angle_alpha	120.000000
_cell_angle_beta	90.000000
_cell_angle_gamma	90.000000
_symmetry_Int_Tables_number 1

loop_
_symmetry_equiv_pos_as_xyz
'x,y,z'

loop_
_atom_site_label
_atom_site_type_symbol
_atom_site_fract_x
_atom_site_fract_y
_atom_site_fract_z
U11	U1	0.750000	0.642920	0.440950
U21	U2	0.750000	0.798030	0.357080
U31	U3	0.750000	0.559050	0.201970
U41	U4	0.250000	0.357080	0.559050
U51	U5	0.250000	0.201970	0.642920
U61	U6	0.250000	0.440950	0.798030
H11	H1	0.041500	0.915900	0.515500
H21	H2	0.041500	0.599600	0.084100
H31	H3	0.041500	0.484500	0.400400
H41	H4	0.541500	0.084100	0.484500
H51	H5	0.541500	0.400400	0.915900
H61	H6	0.541500	0.515500	0.599600
H71	H7	0.958500	0.084100	0.484500
H81	H8	0.958500	0.400400	0.915900
H91	H9	0.958500	0.515500	0.599600
H101	H10	0.458500	0.915900	0.515500
H111	H11	0.458500	0.599600	0.084100
H121	H12	0.458500	0.484500	0.400400
H131	H13	0.250000	0.707000	0.463300
H141	H14	0.250000	0.756300	0.293000
H151	H15	0.250000	0.536700	0.243700
H161	H16	0.750000	0.293000	0.536700
H171	H17	0.750000	0.243700	0.707000
H181	H18	0.750000	0.463300	0.756300
C11	C1	0.127000	0.804700	0.487100
C21	C2	0.124300	0.888900	0.510700
C31	C3	0.993600	0.760200	0.471900
C41	C4	0.127000	0.682400	0.195300
C51	C5	0.124300	0.621800	0.111100
C61	C6	0.993600	0.711700	0.239800
C71	C7	0.127000	0.512900	0.317600
C81	C8	0.124300	0.489300	0.378200
C91	C9	0.993600	0.528100	0.288300
C101	C10	0.627000	0.195300	0.512900
C111	C11	0.624300	0.111100	0.489300
C121	C12	0.493600	0.239800	0.528100
C131	C13	0.627000	0.317600	0.804700
C141	C14	0.624300	0.378200	0.888900
C151	C15	0.493600	0.288300	0.760200
C161	C16	0.627000	0.487100	0.682400
C171	C17	0.624300	0.510700	0.621800
C181	C18	0.493600	0.471900	0.711700
C191	C19	0.873000	0.195300	0.512900
C201	C20	0.875700	0.111100	0.489300
C211	C21	0.006400	0.239800	0.528100
C221	C22	0.873000	0.317600	0.804700
C231	C23	0.875700	0.378200	0.888900
C241	C24	0.006400	0.288300	0.760200
C251	C25	0.873000	0.487100	0.682400
C261	C26	0.875700	0.510700	0.621800
C271	C27	0.006400	0.471900	0.711700
C281	C28	0.373000	0.804700	0.487100
C291	C29	0.375700	0.888900	0.510700
C301	C30	0.506400	0.760200	0.471900
C311	C31	0.373000	0.682400	0.195300
C321	C32	0.375700	0.621800	0.111100
C331	C33	0.506400	0.711700	0.239800
C341	C34	0.373000	0.512900	0.317600
C351	C35	0.375700	0.489300	0.378200
C361	C36	0.506400	0.528100	0.288300
C371	C37	0.250000	0.933700	0.527600
C381	C38	0.250000	0.763100	0.477000
C391	C39	0.250000	0.025600	0.558200
C401	C40	0.250000	0.593900	0.066300
C411	C41	0.250000	0.713900	0.236900
C421	C42	0.250000	0.532600	0.974400
C431	C43	0.250000	0.472400	0.406100
C441	C44	0.250000	0.523000	0.286100
C451	C45	0.250000	0.441800	0.467400
C461	C46	0.750000	0.066300	0.472400
C471	C47	0.750000	0.236900	0.523000
C481	C48	0.750000	0.974400	0.441800
C491	C49	0.750000	0.406100	0.933700
C501	C50	0.750000	0.286100	0.763100
C511	C51	0.750000	0.467400	0.025600
C521	C52	0.750000	0.527600	0.593900
C531	C53	0.750000	0.477000	0.713900
C541	C54	0.750000	0.558200	0.532600
O11	O1	0.991300	0.688000	0.461800
O21	O2	0.362000	0.065000	0.571000
O31	O3	0.884000	0.796200	0.467000
O41	O4	0.991300	0.773800	0.312000
O51	O5	0.362000	0.506000	0.935000
O61	O6	0.884000	0.670800	0.203800
O71	O7	0.991300	0.538200	0.226200
O81	O8	0.362000	0.429000	0.494000
O91	O9	0.884000	0.533000	0.329200
O101	O10	0.491300	0.312000	0.538200
O111	O11	0.862000	0.935000	0.429000
O121	O12	0.384000	0.203800	0.533000
O131	O13	0.491300	0.226200	0.688000
O141	O14	0.862000	0.494000	0.065000
O151	O15	0.384000	0.329200	0.796200
O161	O16	0.491300	0.461800	0.773800
O171	O17	0.862000	0.571000	0.506000
O181	O18	0.384000	0.467000	0.670800
O191	O19	0.008700	0.312000	0.538200
O201	O20	0.638000	0.935000	0.429000
O211	O21	0.116000	0.203800	0.533000
O221	O22	0.008700	0.226200	0.688000
O231	O23	0.638000	0.494000	0.065000
O241	O24	0.116000	0.329200	0.796200
O251	O25	0.008700	0.461800	0.773800
O261	O26	0.638000	0.571000	0.506000
O271	O27	0.116000	0.467000	0.670800
O281	O28	0.508700	0.688000	0.461800
O291	O29	0.138000	0.065000	0.571000
O301	O30	0.616000	0.796200	0.467000
O311	O31	0.508700	0.773800	0.312000
O321	O32	0.138000	0.506000	0.935000
O331	O33	0.616000	0.670800	0.203800
O341	O34	0.508700	0.538200	0.226200
O351	O35	0.138000	0.429000	0.494000
O361	O36	0.616000	0.533000	0.329200
O371	O37	0.750000	0.666670	0.333340
O381	O38	0.250000	0.333330	0.666660
