data_NAMZIL_clean_PM
_symmetry_space_group_name_H-M	'P1'
_cell_length_a	9.788200
_cell_length_b	12.667900
_cell_length_c	17.452400
_cell_angle_alpha	90.000000
_cell_angle_beta	90.000000
_cell_angle_gamma	105.570000
_symmetry_Int_Tables_number 1

loop_
_symmetry_equiv_pos_as_xyz
'x,y,z'

loop_
_atom_site_label
_atom_site_type_symbol
_atom_site_fract_x
_atom_site_fract_y
_atom_site_fract_z
Mn11	Mn1	0.132900	0.887530	0.891690
Mn21	Mn2	0.367100	0.612470	0.391690
Mn31	Mn3	0.867100	0.112470	0.108310
Mn41	Mn4	0.632900	0.387530	0.608310
Re11	Re1	0.380890	0.582610	0.960330
Re21	Re2	0.660150	0.620680	0.984190
Re31	Re3	0.522260	0.448630	0.900000
Re41	Re4	0.119110	0.917390	0.460330
Re51	Re5	0.839850	0.879320	0.484190
Re61	Re6	0.977740	0.051370	0.400000
Re71	Re7	0.619110	0.417390	0.039670
Re81	Re8	0.339850	0.379320	0.015810
Re91	Re9	0.477740	0.551370	0.100000
Re101	Re10	0.880890	0.082610	0.539670
Re111	Re11	0.160150	0.120680	0.515810
Re121	Re12	0.022260	0.948630	0.600000
Te11	Te1	0.564100	0.653540	0.844540
Te21	Te2	0.519520	0.756370	0.044700
Te31	Te3	0.195710	0.513730	0.075310
Te41	Te4	0.240040	0.408970	0.875930
Te51	Te5	0.935900	0.846460	0.344540
Te61	Te6	0.980480	0.743630	0.544700
Te71	Te7	0.304290	0.986270	0.575310
Te81	Te8	0.259960	0.091030	0.375930
Te91	Te9	0.435900	0.346460	0.155460
Te101	Te10	0.480480	0.243630	0.955300
Te111	Te11	0.804290	0.486270	0.924690
Te121	Te12	0.759960	0.591030	0.124070
Te131	Te13	0.064100	0.153540	0.655460
Te141	Te14	0.019520	0.256370	0.455300
Te151	Te15	0.695710	0.013730	0.424690
Te161	Te16	0.740040	0.908970	0.624070
C11	C1	0.834300	0.750700	0.962300
C21	C2	0.251200	0.675900	0.916700
C31	C3	0.546300	0.398400	0.789300
C41	C4	0.665700	0.749300	0.462300
C51	C5	0.248800	0.824100	0.416700
C61	C6	0.953700	0.101600	0.289300
C71	C7	0.165700	0.249300	0.037700
C81	C8	0.748800	0.324100	0.083300
C91	C9	0.453700	0.601600	0.210700
C101	C10	0.334300	0.250700	0.537700
C111	C11	0.751200	0.175900	0.583300
C121	C12	0.046300	0.898400	0.710700
N11	N1	0.931200	0.825200	0.949500
N21	N2	0.188300	0.732300	0.896200
N31	N3	0.564100	0.375200	0.725900
N41	N4	0.568800	0.674800	0.449500
N51	N5	0.311700	0.767700	0.396200
N61	N6	0.935900	0.124800	0.225900
N71	N7	0.068800	0.174800	0.050500
N81	N8	0.811700	0.267700	0.103800
N91	N9	0.435900	0.624800	0.274100
N101	N10	0.431200	0.325200	0.550500
N111	N11	0.688300	0.232300	0.603800
N121	N12	0.064100	0.875200	0.774100
