data_NANYUX_charged_PM
_symmetry_space_group_name_H-M	'P1'
_cell_length_a	9.455000
_cell_length_b	11.034700
_cell_length_c	16.007400
_cell_angle_alpha	90.000000
_cell_angle_beta	90.000000
_cell_angle_gamma	98.466000
_symmetry_Int_Tables_number 1

loop_
_symmetry_equiv_pos_as_xyz
'x,y,z'

loop_
_atom_site_label
_atom_site_type_symbol
_atom_site_fract_x
_atom_site_fract_y
_atom_site_fract_z
Zn11	Zn1	0.868870	0.068710	0.920050
Zn21	Zn2	0.631130	0.431290	0.420050
Zn31	Zn3	0.131130	0.931290	0.079950
Zn41	Zn4	0.368870	0.568710	0.579950
H11	H1	0.554000	0.861000	0.047000
H21	H2	0.415000	0.604000	0.223000
H31	H3	0.838000	0.677000	0.158000
H41	H4	0.946000	0.639000	0.547000
H51	H5	0.085000	0.896000	0.723000
H61	H6	0.662000	0.823000	0.658000
H71	H7	0.446000	0.139000	0.953000
H81	H8	0.585000	0.396000	0.777000
H91	H9	0.162000	0.323000	0.842000
H101	H10	0.054000	0.361000	0.453000
H111	H11	0.915000	0.104000	0.277000
H121	H12	0.338000	0.177000	0.342000
C11	C1	0.830400	0.855400	0.044300
C21	C2	0.313300	0.766300	0.123290
C31	C3	0.671800	0.541100	0.265200
C41	C4	0.713900	0.779800	0.093300
C51	C5	0.573100	0.801800	0.083770
C61	C6	0.463900	0.738600	0.131270
C71	C7	0.496300	0.652500	0.189170
C81	C8	0.636000	0.629300	0.199100
C91	C9	0.745200	0.692800	0.150340
C101	C10	0.669600	0.644600	0.544300
C111	C11	0.186700	0.733700	0.623290
C121	C12	0.828200	0.958900	0.765200
C131	C13	0.786100	0.720200	0.593300
C141	C14	0.926900	0.698200	0.583770
C151	C15	0.036100	0.761400	0.631270
C161	C16	0.003700	0.847500	0.689170
C171	C17	0.864000	0.870700	0.699100
C181	C18	0.754800	0.807200	0.650340
C191	C19	0.169600	0.144600	0.955700
C201	C20	0.686700	0.233700	0.876710
C211	C21	0.328200	0.458900	0.734800
C221	C22	0.286100	0.220200	0.906700
C231	C23	0.426900	0.198200	0.916230
C241	C24	0.536100	0.261400	0.868730
C251	C25	0.503700	0.347500	0.810830
C261	C26	0.364000	0.370700	0.800900
C271	C27	0.254800	0.307200	0.849660
C281	C28	0.330400	0.355400	0.455700
C291	C29	0.813300	0.266300	0.376710
C301	C30	0.171800	0.041100	0.234800
C311	C31	0.213900	0.279800	0.406700
C321	C32	0.073100	0.301800	0.416230
C331	C33	0.963900	0.238600	0.368730
C341	C34	0.996300	0.152500	0.310830
C351	C35	0.136000	0.129300	0.300900
C361	C36	0.245200	0.192800	0.349660
O11	O1	0.797000	0.944600	0.004980
O21	O2	0.954300	0.825300	0.047460
O31	O3	0.294400	0.845200	0.067880
O41	O4	0.217700	0.714700	0.169750
O51	O5	0.576700	0.513700	0.321570
O61	O6	0.786800	0.502200	0.262500
O71	O7	0.703000	0.555400	0.504980
O81	O8	0.545700	0.674700	0.547460
O91	O9	0.205600	0.654800	0.567880
O101	O10	0.282300	0.785300	0.669750
O111	O11	0.923300	0.986300	0.821570
O121	O12	0.713200	0.997800	0.762500
O131	O13	0.203000	0.055400	0.995020
O141	O14	0.045700	0.174700	0.952540
O151	O15	0.705600	0.154800	0.932120
O161	O16	0.782300	0.285300	0.830250
O171	O17	0.423300	0.486300	0.678430
O181	O18	0.213200	0.497800	0.737500
O191	O19	0.297000	0.444600	0.495020
O201	O20	0.454300	0.325300	0.452540
O211	O21	0.794400	0.345200	0.432120
O221	O22	0.717700	0.214700	0.330250
O231	O23	0.076700	0.013700	0.178430
O241	O24	0.286800	0.002200	0.237500
H131	H13	0.915400	0.404700	0.583800
H141	H14	0.985400	0.424400	0.672400
H151	H15	0.829300	0.452000	0.657600
H161	H16	0.633300	0.281200	0.644800
H171	H17	0.667600	0.146400	0.642900
H181	H18	0.709900	0.233900	0.567000
H191	H19	0.911000	0.225000	0.655000
H201	H20	0.820000	0.264000	0.730000
C371	C37	0.897700	0.399400	0.642800
C381	C38	0.700700	0.229500	0.626700
N11	N1	0.840300	0.270700	0.665400
H211	H21	0.584600	0.095300	0.083800
H221	H22	0.514600	0.075600	0.172400
H231	H23	0.670700	0.048000	0.157600
H241	H24	0.866700	0.218800	0.144800
H251	H25	0.832400	0.353600	0.142900
H261	H26	0.790100	0.266100	0.067000
H271	H27	0.589000	0.275000	0.155000
H281	H28	0.680000	0.236000	0.230000
C391	C39	0.602300	0.100600	0.142800
C401	C40	0.799300	0.270500	0.126700
N21	N2	0.659700	0.229300	0.165400
H291	H29	0.084600	0.595300	0.416200
H301	H30	0.014600	0.575600	0.327600
H311	H31	0.170700	0.548000	0.342400
H321	H32	0.366700	0.718800	0.355200
H331	H33	0.332400	0.853600	0.357100
H341	H34	0.290100	0.766100	0.433000
H351	H35	0.089000	0.775000	0.345000
H361	H36	0.180000	0.736000	0.270000
C411	C41	0.102300	0.600600	0.357200
C421	C42	0.299300	0.770500	0.373300
N31	N3	0.159700	0.729300	0.334600
H371	H37	0.415400	0.904700	0.916200
H381	H38	0.485400	0.924400	0.827600
H391	H39	0.329300	0.952000	0.842400
H401	H40	0.133300	0.781200	0.855200
H411	H41	0.167600	0.646400	0.857100
H421	H42	0.209900	0.733900	0.933000
H431	H43	0.411000	0.725000	0.845000
H441	H44	0.320000	0.764000	0.770000
C431	C43	0.397700	0.899400	0.857200
C441	C44	0.200700	0.729500	0.873300
N41	N4	0.340300	0.770700	0.834600
