data_NANZOS_clean_PM
_symmetry_space_group_name_H-M	'P1'
_cell_length_a	16.140200
_cell_length_b	16.363900
_cell_length_c	16.363900
_cell_angle_alpha	75.923900
_cell_angle_beta	60.451200
_cell_angle_gamma	60.451200
_symmetry_Int_Tables_number 1

loop_
_symmetry_equiv_pos_as_xyz
'x,y,z'

loop_
_atom_site_label
_atom_site_type_symbol
_atom_site_fract_x
_atom_site_fract_y
_atom_site_fract_z
Gd11	Gd1	0.292760	0.469910	0.622070
Gd21	Gd2	0.351840	0.021500	0.614800
Gd31	Gd3	0.884740	0.030090	0.877930
Gd41	Gd4	0.488140	0.478500	0.885200
Gd51	Gd5	0.914830	0.377930	0.969910
Gd61	Gd6	0.966640	0.385200	0.521500
Gd71	Gd7	0.762670	0.122070	0.530090
Gd81	Gd8	0.373340	0.114800	0.978500
Gd91	Gd9	0.707240	0.530090	0.377930
Gd101	Gd10	0.648160	0.978500	0.385200
Gd111	Gd11	0.115260	0.969910	0.122070
Gd121	Gd12	0.511860	0.521500	0.114800
Gd131	Gd13	0.085170	0.622070	0.030090
Gd141	Gd14	0.033360	0.614800	0.478500
Gd151	Gd15	0.237330	0.877930	0.469910
Gd161	Gd16	0.626660	0.885200	0.021500
H11	H1	0.410000	0.228000	0.604000
H21	H2	0.445000	0.260000	0.742000
H31	H3	0.742000	0.272000	0.896000
H41	H4	0.947000	0.240000	0.758000
H51	H5	0.014000	0.396000	0.728000
H61	H6	0.187000	0.258000	0.760000
H71	H7	0.638000	0.104000	0.772000
H81	H8	0.705000	0.242000	0.740000
H91	H9	0.590000	0.772000	0.396000
H101	H10	0.555000	0.740000	0.258000
H111	H11	0.258000	0.728000	0.104000
H121	H12	0.053000	0.760000	0.242000
H131	H13	0.986000	0.604000	0.272000
H141	H14	0.813000	0.742000	0.240000
H151	H15	0.362000	0.896000	0.228000
H161	H16	0.295000	0.758000	0.260000
C11	C1	0.150500	0.430600	0.547000
C21	C2	0.227800	0.337500	0.558300
C31	C3	0.249700	0.245200	0.549200
C41	C4	0.196500	0.204600	0.531000
C51	C5	0.360500	0.240900	0.587900
C61	C6	0.110700	0.450100	0.824100
C71	C7	0.203400	0.371200	0.831000
C81	C8	0.215400	0.299300	0.897700
C91	C9	0.143100	0.278300	0.987700
C101	C10	0.369600	0.278700	0.785700
C111	C11	0.628100	0.069400	0.953000
C121	C12	0.623600	0.162500	0.941700
C131	C13	0.544100	0.254800	0.950800
C141	C14	0.432100	0.295400	0.969000
C151	C15	0.689300	0.259100	0.912100
C161	C16	0.884900	0.049900	0.675900
C171	C17	0.905600	0.128800	0.669000
C181	C18	0.912400	0.200700	0.602300
C191	C19	0.909100	0.221700	0.512300
C201	C20	0.934000	0.221300	0.714300
C211	C21	0.697500	0.453000	0.930600
C221	C22	0.786100	0.441700	0.837500
C231	C23	0.798900	0.450800	0.745200
C241	C24	0.727500	0.469000	0.704600
C251	C25	0.948400	0.412100	0.740900
C261	C26	0.934800	0.175900	0.950100
C271	C27	0.034400	0.169000	0.871200
C281	C28	0.113100	0.102300	0.799300
C291	C29	0.130800	0.012300	0.778300
C301	C30	0.155300	0.214300	0.778700
C311	C31	0.581100	0.047000	0.569400
C321	C32	0.565300	0.058300	0.662500
C331	C33	0.494900	0.049200	0.754800
C341	C34	0.401100	0.031000	0.795400
C351	C35	0.601400	0.087900	0.759100
C361	C36	0.560800	0.324100	0.549900
C371	C37	0.574600	0.331000	0.628800
C381	C38	0.514700	0.397700	0.700700
C391	C39	0.421400	0.487700	0.721700
C401	C40	0.648300	0.285700	0.721300
C411	C41	0.849500	0.569400	0.453000
C421	C42	0.772200	0.662500	0.441700
C431	C43	0.750300	0.754800	0.450800
C441	C44	0.803500	0.795400	0.469000
C451	C45	0.639500	0.759100	0.412100
C461	C46	0.889300	0.549900	0.175900
C471	C47	0.796600	0.628800	0.169000
C481	C48	0.784600	0.700700	0.102300
C491	C49	0.856900	0.721700	0.012300
C501	C50	0.630400	0.721300	0.214300
C511	C51	0.371900	0.930600	0.047000
C521	C52	0.376400	0.837500	0.058300
C531	C53	0.455900	0.745200	0.049200
C541	C54	0.567900	0.704600	0.031000
C551	C55	0.310700	0.740900	0.087900
C561	C56	0.115100	0.950100	0.324100
C571	C57	0.094400	0.871200	0.331000
C581	C58	0.087600	0.799300	0.397700
C591	C59	0.090900	0.778300	0.487700
C601	C60	0.066000	0.778700	0.285700
C611	C61	0.302500	0.547000	0.069400
C621	C62	0.213900	0.558300	0.162500
C631	C63	0.201100	0.549200	0.254800
C641	C64	0.272500	0.531000	0.295400
C651	C65	0.051600	0.587900	0.259100
C661	C66	0.065200	0.824100	0.049900
C671	C67	0.965600	0.831000	0.128800
C681	C68	0.886900	0.897700	0.200700
C691	C69	0.869200	0.987700	0.221700
C701	C70	0.844700	0.785700	0.221300
C711	C71	0.418900	0.953000	0.430600
C721	C72	0.434700	0.941700	0.337500
C731	C73	0.505100	0.950800	0.245200
C741	C74	0.598900	0.969000	0.204600
C751	C75	0.398600	0.912100	0.240900
C761	C76	0.439200	0.675900	0.450100
C771	C77	0.425400	0.669000	0.371200
C781	C78	0.485300	0.602300	0.299300
C791	C79	0.578600	0.512300	0.278300
C801	C80	0.351700	0.714300	0.278700
N11	N1	0.299000	0.332100	0.585500
N21	N2	0.333900	0.184100	0.568500
N31	N3	0.302700	0.357600	0.760000
N41	N4	0.323000	0.241200	0.866200
N51	N5	0.716600	0.167900	0.914500
N61	N6	0.586500	0.315900	0.931500
N71	N7	0.920300	0.142400	0.740000
N81	N8	0.930400	0.258800	0.633800
N91	N9	0.884500	0.414500	0.832100
N101	N10	0.902400	0.431500	0.684100
N111	N11	0.062700	0.240000	0.857600
N121	N12	0.189200	0.133800	0.741200
N131	N13	0.631100	0.085500	0.667900
N141	N14	0.518000	0.068500	0.815900
N151	N15	0.660300	0.260000	0.642400
N161	N16	0.564200	0.366200	0.758800
N171	N17	0.701000	0.667900	0.414500
N181	N18	0.666100	0.815900	0.431500
N191	N19	0.697300	0.642400	0.240000
N201	N20	0.677000	0.758800	0.133800
N211	N21	0.283400	0.832100	0.085500
N221	N22	0.413500	0.684100	0.068500
N231	N23	0.079700	0.857600	0.260000
N241	N24	0.069600	0.741200	0.366200
N251	N25	0.115500	0.585500	0.167900
N261	N26	0.097600	0.568500	0.315900
N271	N27	0.937300	0.760000	0.142400
N281	N28	0.810800	0.866200	0.258800
N291	N29	0.368900	0.914500	0.332100
N301	N30	0.482000	0.931500	0.184100
N311	N31	0.339700	0.740000	0.357600
N321	N32	0.435800	0.633800	0.241200
O11	O1	0.149900	0.500400	0.571000
O21	O2	0.087900	0.445200	0.513600
O31	O3	0.127800	0.253600	0.503200
O41	O4	0.228800	0.116800	0.544200
O51	O5	0.020100	0.454900	0.873300
O61	O6	0.128800	0.513600	0.763800
O71	O7	0.043500	0.323300	0.021500
O81	O8	0.186800	0.210600	0.034800
O91	O9	0.721300	0.999600	0.929000
O101	O10	0.546700	0.054800	0.986400
O111	O11	0.384600	0.246400	0.996800
O121	O12	0.389800	0.383200	0.955800
O131	O13	0.848300	0.045100	0.626700
O141	O14	0.906200	0.986400	0.736200
O151	O15	0.888300	0.176700	0.478500
O161	O16	0.932200	0.289400	0.465200
O171	O17	0.720900	0.429000	0.000400
O181	O18	0.601500	0.486400	0.945200
O191	O19	0.631000	0.496800	0.753600
O201	O20	0.773000	0.455800	0.616800
O211	O21	0.893400	0.126700	0.954900
O221	O22	0.892600	0.236200	0.013600
O231	O23	0.065000	0.978500	0.823300
O241	O24	0.221600	0.965200	0.710600
O251	O25	0.650300	0.071000	0.499600
O261	O26	0.533100	0.013600	0.554800
O271	O27	0.381400	0.003200	0.746400
O281	O28	0.345600	0.044200	0.883200
O291	O29	0.475000	0.373300	0.545100
O301	O30	0.642400	0.263800	0.486400
O311	O31	0.366800	0.521500	0.676700
O321	O32	0.397400	0.534800	0.789400
O331	O33	0.850100	0.499600	0.429000
O341	O34	0.912100	0.554800	0.486400
O351	O35	0.872200	0.746400	0.496800
O361	O36	0.771200	0.883200	0.455800
O371	O37	0.979900	0.545100	0.126700
O381	O38	0.871200	0.486400	0.236200
O391	O39	0.956500	0.676700	0.978500
O401	O40	0.813200	0.789400	0.965200
O411	O41	0.278700	0.000400	0.071000
O421	O42	0.453300	0.945200	0.013600
O431	O43	0.615400	0.753600	0.003200
O441	O44	0.610200	0.616800	0.044200
O451	O45	0.151700	0.954900	0.373300
O461	O46	0.093800	0.013600	0.263800
O471	O47	0.111700	0.823300	0.521500
O481	O48	0.067800	0.710600	0.534800
O491	O49	0.279100	0.571000	0.999600
O501	O50	0.398500	0.513600	0.054800
O511	O51	0.369000	0.503200	0.246400
O521	O52	0.227000	0.544200	0.383200
O531	O53	0.106600	0.873300	0.045100
O541	O54	0.107400	0.763800	0.986400
O551	O55	0.935000	0.021500	0.176700
O561	O56	0.778400	0.034800	0.289400
O571	O57	0.349700	0.929000	0.500400
O581	O58	0.466900	0.986400	0.445200
O591	O59	0.618600	0.996800	0.253600
O601	O60	0.654400	0.955800	0.116800
O611	O61	0.525000	0.626700	0.454900
O621	O62	0.357600	0.736200	0.513600
O631	O63	0.633200	0.478500	0.323300
O641	O64	0.602600	0.465200	0.210600
