data_NAPZUB_clean_PM
_symmetry_space_group_name_H-M	'P1'
_cell_length_a	7.691000
_cell_length_b	10.214700
_cell_length_c	15.815400
_cell_angle_alpha	90.000000
_cell_angle_beta	90.000000
_cell_angle_gamma	90.000000
_symmetry_Int_Tables_number 1

loop_
_symmetry_equiv_pos_as_xyz
'x,y,z'

loop_
_atom_site_label
_atom_site_type_symbol
_atom_site_fract_x
_atom_site_fract_y
_atom_site_fract_z
Cd11	Cd1	0.967220	0.290830	0.788480
Cd21	Cd2	0.032780	0.790830	0.211520
Cd31	Cd3	0.467220	0.290830	0.711520
Cd41	Cd4	0.532780	0.790830	0.288480
H11	H1	0.203300	0.031100	0.003500
H21	H2	0.517800	0.019500	0.801300
H31	H3	0.657400	0.836800	0.014800
H41	H4	0.844100	0.819600	0.900200
H51	H5	0.848300	0.946000	0.844100
H61	H6	0.752100	0.820300	0.811700
H71	H7	0.796700	0.531100	0.996500
H81	H8	0.482200	0.519500	0.198700
H91	H9	0.342600	0.336800	0.985200
H101	H10	0.155900	0.319600	0.099800
H111	H11	0.151700	0.446000	0.155900
H121	H12	0.247900	0.320300	0.188300
H131	H13	0.703300	0.031100	0.496500
H141	H14	0.017800	0.019500	0.698700
H151	H15	0.157400	0.836800	0.485200
H161	H16	0.344100	0.819600	0.599800
H171	H17	0.348300	0.946000	0.655900
H181	H18	0.252100	0.820300	0.688300
H191	H19	0.296700	0.531100	0.503500
H201	H20	0.982200	0.519500	0.301300
H211	H21	0.842600	0.336800	0.514800
H221	H22	0.655900	0.319600	0.400200
H231	H23	0.651700	0.446000	0.344100
H241	H24	0.747900	0.320300	0.311700
C11	C1	0.389300	0.895900	0.114700
C21	C2	0.426300	0.930700	0.024300
C31	C3	0.307100	0.004800	0.978500
C41	C4	0.343300	0.039300	0.895300
C51	C5	0.495000	0.996300	0.857000
C61	C6	0.615100	0.918100	0.901300
C71	C7	0.578800	0.887500	0.984400
C81	C8	0.779600	0.871900	0.860700
C91	C9	0.219400	0.123700	0.847900
C101	C10	0.610700	0.395900	0.885300
C111	C11	0.573700	0.430700	0.975700
C121	C12	0.692900	0.504800	0.021500
C131	C13	0.656700	0.539300	0.104700
C141	C14	0.505000	0.496300	0.143000
C151	C15	0.384900	0.418100	0.098700
C161	C16	0.421200	0.387500	0.015600
C171	C17	0.220400	0.371900	0.139300
C181	C18	0.780600	0.623700	0.152100
C191	C19	0.889300	0.895900	0.385300
C201	C20	0.926300	0.930700	0.475700
C211	C21	0.807100	0.004800	0.521500
C221	C22	0.843300	0.039300	0.604700
C231	C23	0.995000	0.996300	0.643000
C241	C24	0.115100	0.918100	0.598700
C251	C25	0.078800	0.887500	0.515600
C261	C26	0.279600	0.871900	0.639300
C271	C27	0.719400	0.123700	0.652100
C281	C28	0.110700	0.395900	0.614700
C291	C29	0.073700	0.430700	0.524300
C301	C30	0.192900	0.504800	0.478500
C311	C31	0.156700	0.539300	0.395300
C321	C32	0.005000	0.496300	0.357000
C331	C33	0.884900	0.418100	0.401300
C341	C34	0.921200	0.387500	0.484400
C351	C35	0.720400	0.371900	0.360700
C361	C36	0.280600	0.623700	0.347900
O11	O1	0.238400	0.895600	0.139500
O21	O2	0.523800	0.871500	0.160400
O31	O3	0.075200	0.151400	0.883200
O41	O4	0.250900	0.165600	0.774500
O51	O5	0.761600	0.395600	0.860500
O61	O6	0.476200	0.371500	0.839600
O71	O7	0.924800	0.651400	0.116800
O81	O8	0.749100	0.665600	0.225500
O91	O9	0.738400	0.895600	0.360500
O101	O10	0.023800	0.871500	0.339600
O111	O11	0.575200	0.151400	0.616800
O121	O12	0.750900	0.165600	0.725500
O131	O13	0.261600	0.395600	0.639500
O141	O14	0.976200	0.371500	0.660400
O151	O15	0.424800	0.651400	0.383200
O161	O16	0.249100	0.665600	0.274500
