data_NARMUR_clean_PM
_symmetry_space_group_name_H-M	'P1'
_cell_length_a	9.612000
_cell_length_b	22.868000
_cell_length_c	10.159000
_cell_angle_alpha	90.000000
_cell_angle_beta	101.070000
_cell_angle_gamma	90.000000
_symmetry_Int_Tables_number 1

loop_
_symmetry_equiv_pos_as_xyz
'x,y,z'

loop_
_atom_site_label
_atom_site_type_symbol
_atom_site_fract_x
_atom_site_fract_y
_atom_site_fract_z
Pr11	Pr1	0.255890	0.277990	0.037490
Pr21	Pr2	0.720410	0.435490	0.850340
N11	N1	0.597200	0.415920	0.613900
N21	N2	0.533600	0.416300	0.394200
H11	H1	0.528710	0.426330	0.309800
N31	N3	0.771300	0.507270	0.635900
O11	O1	0.068800	0.340650	0.098800
O21	O2	0.039100	0.291290	0.855200
O31	O3	0.850300	0.378780	0.042700
O41	O4	0.839000	0.343030	0.786200
O51	O5	0.596400	0.435690	0.044100
O61	O6	0.471100	0.489680	0.164200
O71	O7	0.379400	0.297460	0.680900
O81	O8	0.522100	0.360370	0.809100
O91	O9	0.283200	0.296760	0.379900
O101	O10	0.375600	0.340960	0.220500
O111	O11	0.178100	0.480270	0.006200
O121	O12	0.980400	0.451480	0.864800
C11	C1	0.457300	0.371870	0.440200
C21	C2	0.498200	0.372770	0.578500
C31	C3	0.617000	0.441530	0.501400
C41	C4	0.719400	0.490030	0.507700
C51	C5	0.759500	0.514740	0.396400
H21	H2	0.722720	0.500570	0.308690
C61	C6	0.856200	0.561380	0.416800
H31	H3	0.885920	0.579640	0.342900
C71	C7	0.907700	0.580400	0.547000
H41	H4	0.972320	0.612190	0.563340
C81	C8	0.863200	0.552190	0.653100
H51	H5	0.899490	0.565300	0.741810
C91	C9	0.520300	0.478220	0.059500
C101	C10	0.044900	0.480190	0.961700
C111	C11	0.461800	0.340070	0.694600
C121	C12	0.364600	0.333690	0.340400
C131	C13	0.955100	0.350140	0.018800
C141	C14	0.941900	0.325560	0.873200
Pr31	Pr3	0.744110	0.777990	0.462510
Pr41	Pr4	0.279590	0.935490	0.649660
N41	N4	0.402800	0.915920	0.886100
N51	N5	0.466400	0.916300	0.105800
H61	H6	0.471290	0.926330	0.190200
N61	N6	0.228700	0.007270	0.864100
O131	O13	0.931200	0.840650	0.401200
O141	O14	0.960900	0.791290	0.644800
O151	O15	0.149700	0.878780	0.457300
O161	O16	0.161000	0.843030	0.713800
O171	O17	0.403600	0.935690	0.455900
O181	O18	0.528900	0.989680	0.335800
O191	O19	0.620600	0.797460	0.819100
O201	O20	0.477900	0.860370	0.690900
O211	O21	0.716800	0.796760	0.120100
O221	O22	0.624400	0.840960	0.279500
O231	O23	0.821900	0.980270	0.493800
O241	O24	0.019600	0.951480	0.635200
C151	C15	0.542700	0.871870	0.059800
C161	C16	0.501800	0.872770	0.921500
C171	C17	0.383000	0.941530	0.998600
C181	C18	0.280600	0.990030	0.992300
C191	C19	0.240500	0.014740	0.103600
H71	H7	0.277280	0.000570	0.191310
C201	C20	0.143800	0.061380	0.083200
H81	H8	0.114080	0.079640	0.157100
C211	C21	0.092300	0.080400	0.953000
H91	H9	0.027680	0.112190	0.936660
C221	C22	0.136800	0.052190	0.846900
H101	H10	0.100510	0.065300	0.758190
C231	C23	0.479700	0.978220	0.440500
C241	C24	0.955100	0.980190	0.538300
C251	C25	0.538200	0.840070	0.805400
C261	C26	0.635400	0.833690	0.159600
C271	C27	0.044900	0.850140	0.481200
C281	C28	0.058100	0.825560	0.626800
Pr51	Pr5	0.744110	0.722010	0.962510
Pr61	Pr6	0.279590	0.564510	0.149660
N71	N7	0.402800	0.584080	0.386100
N81	N8	0.466400	0.583700	0.605800
H111	H11	0.471290	0.573670	0.690200
N91	N9	0.228700	0.492730	0.364100
O251	O25	0.931200	0.659350	0.901200
O261	O26	0.960900	0.708710	0.144800
O271	O27	0.149700	0.621220	0.957300
O281	O28	0.161000	0.656970	0.213800
O291	O29	0.403600	0.564310	0.955900
O301	O30	0.528900	0.510320	0.835800
O311	O31	0.620600	0.702540	0.319100
O321	O32	0.477900	0.639630	0.190900
O331	O33	0.716800	0.703240	0.620100
O341	O34	0.624400	0.659040	0.779500
O351	O35	0.821900	0.519730	0.993800
O361	O36	0.019600	0.548520	0.135200
C291	C29	0.542700	0.628130	0.559800
C301	C30	0.501800	0.627230	0.421500
C311	C31	0.383000	0.558470	0.498600
C321	C32	0.280600	0.509970	0.492300
C331	C33	0.240500	0.485260	0.603600
H121	H12	0.277280	0.499430	0.691310
C341	C34	0.143800	0.438620	0.583200
H131	H13	0.114080	0.420360	0.657100
C351	C35	0.092300	0.419600	0.453000
H141	H14	0.027680	0.387810	0.436660
C361	C36	0.136800	0.447810	0.346900
H151	H15	0.100510	0.434700	0.258190
C371	C37	0.479700	0.521780	0.940500
C381	C38	0.955100	0.519810	0.038300
C391	C39	0.538200	0.659930	0.305400
C401	C40	0.635400	0.666310	0.659600
C411	C41	0.044900	0.649860	0.981200
C421	C42	0.058100	0.674440	0.126800
Pr71	Pr7	0.255890	0.222010	0.537490
Pr81	Pr8	0.720410	0.064510	0.350340
N101	N10	0.597200	0.084080	0.113900
N111	N11	0.533600	0.083700	0.894200
H161	H16	0.528710	0.073670	0.809800
N121	N12	0.771300	0.992730	0.135900
O371	O37	0.068800	0.159350	0.598800
O381	O38	0.039100	0.208710	0.355200
O391	O39	0.850300	0.121220	0.542700
O401	O40	0.839000	0.156970	0.286200
O411	O41	0.596400	0.064310	0.544100
O421	O42	0.471100	0.010320	0.664200
O431	O43	0.379400	0.202540	0.180900
O441	O44	0.522100	0.139630	0.309100
O451	O45	0.283200	0.203240	0.879900
O461	O46	0.375600	0.159040	0.720500
O471	O47	0.178100	0.019730	0.506200
O481	O48	0.980400	0.048520	0.364800
C431	C43	0.457300	0.128130	0.940200
C441	C44	0.498200	0.127230	0.078500
C451	C45	0.617000	0.058470	0.001400
C461	C46	0.719400	0.009970	0.007700
C471	C47	0.759500	0.985260	0.896400
H171	H17	0.722720	0.999430	0.808690
C481	C48	0.856200	0.938620	0.916800
H181	H18	0.885920	0.920360	0.842900
C491	C49	0.907700	0.919600	0.047000
H191	H19	0.972320	0.887810	0.063340
C501	C50	0.863200	0.947810	0.153100
H201	H20	0.899490	0.934700	0.241810
C511	C51	0.520300	0.021780	0.559500
C521	C52	0.044900	0.019810	0.461700
C531	C53	0.461800	0.159930	0.194600
C541	C54	0.364600	0.166310	0.840400
C551	C55	0.955100	0.149860	0.518800
C561	C56	0.941900	0.174440	0.373200
