data_NARPUU_clean_PM
_symmetry_space_group_name_H-M	'P1'
_cell_length_a	10.205000
_cell_length_b	21.215000
_cell_length_c	7.866000
_cell_angle_alpha	90.000000
_cell_angle_beta	98.642000
_cell_angle_gamma	90.000000
_symmetry_Int_Tables_number 1

loop_
_symmetry_equiv_pos_as_xyz
'x,y,z'

loop_
_atom_site_label
_atom_site_type_symbol
_atom_site_fract_x
_atom_site_fract_y
_atom_site_fract_z
C11	C1	0.500000	0.126900	0.634900
C21	C2	0.499100	0.060800	0.569800
C31	C3	0.615100	0.029900	0.556200
C41	C4	0.383500	0.030200	0.507200
C51	C5	0.089800	0.208300	0.720600
C61	C6	0.135200	0.270500	0.713800
C71	C7	0.052000	0.317800	0.748600
C81	C8	0.929300	0.304200	0.793000
C91	C9	0.885000	0.243300	0.804900
C101	C10	0.969400	0.195000	0.766700
C111	C11	0.751500	0.228000	0.857000
C121	C12	0.268500	0.283700	0.659800
O11	O1	0.745300	0.189700	0.969400
O21	O2	0.650600	0.257700	0.783000
O31	O3	0.512800	0.169600	0.529700
O41	O4	0.488400	0.133300	0.791400
O51	O5	0.370300	0.259500	0.746600
O61	O6	0.275500	0.315800	0.533900
F11	F1	0.267800	0.058700	0.516400
F21	F2	0.730900	0.059000	0.612700
F31	F3	0.931200	0.135200	0.772500
F41	F4	0.164600	0.161100	0.676400
F51	F5	0.853900	0.352100	0.835900
F61	F6	0.089200	0.378100	0.742600
Nd11	Nd1	0.509250	0.215270	0.004200
C131	C13	0.500000	0.626900	0.865100
C141	C14	0.500900	0.560800	0.930200
C151	C15	0.384900	0.529900	0.943800
C161	C16	0.616500	0.530200	0.992800
C171	C17	0.910200	0.708300	0.779400
C181	C18	0.864800	0.770500	0.786200
C191	C19	0.948000	0.817800	0.751400
C201	C20	0.070700	0.804200	0.707000
C211	C21	0.115000	0.743300	0.695100
C221	C22	0.030600	0.695000	0.733300
C231	C23	0.248500	0.728000	0.643000
C241	C24	0.731500	0.783700	0.840200
O71	O7	0.254700	0.689700	0.530600
O81	O8	0.349400	0.757700	0.717000
O91	O9	0.487200	0.669600	0.970300
O101	O10	0.511600	0.633300	0.708600
O111	O11	0.629700	0.759500	0.753400
O121	O12	0.724500	0.815800	0.966100
F71	F7	0.732200	0.558700	0.983600
F81	F8	0.269100	0.559000	0.887300
F91	F9	0.068800	0.635200	0.727500
F101	F10	0.835400	0.661100	0.823600
F111	F11	0.146100	0.852100	0.664100
F121	F12	0.910800	0.878100	0.757400
Nd21	Nd2	0.490750	0.715270	0.495800
C251	C25	0.500000	0.873100	0.365100
C261	C26	0.500900	0.939200	0.430200
C271	C27	0.384900	0.970100	0.443800
C281	C28	0.616500	0.969800	0.492800
C291	C29	0.910200	0.791700	0.279400
C301	C30	0.864800	0.729500	0.286200
C311	C31	0.948000	0.682200	0.251400
C321	C32	0.070700	0.695800	0.207000
C331	C33	0.115000	0.756700	0.195100
C341	C34	0.030600	0.805000	0.233300
C351	C35	0.248500	0.772000	0.143000
C361	C36	0.731500	0.716300	0.340200
O131	O13	0.254700	0.810300	0.030600
O141	O14	0.349400	0.742300	0.217000
O151	O15	0.487200	0.830400	0.470300
O161	O16	0.511600	0.866700	0.208600
O171	O17	0.629700	0.740500	0.253400
O181	O18	0.724500	0.684200	0.466100
F131	F13	0.732200	0.941300	0.483600
F141	F14	0.269100	0.941000	0.387300
F151	F15	0.068800	0.864800	0.227500
F161	F16	0.835400	0.838900	0.323600
F171	F17	0.146100	0.647900	0.164100
F181	F18	0.910800	0.621900	0.257400
Nd31	Nd3	0.490750	0.784730	0.995800
C371	C37	0.500000	0.373100	0.134900
C381	C38	0.499100	0.439200	0.069800
C391	C39	0.615100	0.470100	0.056200
C401	C40	0.383500	0.469800	0.007200
C411	C41	0.089800	0.291700	0.220600
C421	C42	0.135200	0.229500	0.213800
C431	C43	0.052000	0.182200	0.248600
C441	C44	0.929300	0.195800	0.293000
C451	C45	0.885000	0.256700	0.304900
C461	C46	0.969400	0.305000	0.266700
C471	C47	0.751500	0.272000	0.357000
C481	C48	0.268500	0.216300	0.159800
O191	O19	0.745300	0.310300	0.469400
O201	O20	0.650600	0.242300	0.283000
O211	O21	0.512800	0.330400	0.029700
O221	O22	0.488400	0.366700	0.291400
O231	O23	0.370300	0.240500	0.246600
O241	O24	0.275500	0.184200	0.033900
F191	F19	0.267800	0.441300	0.016400
F201	F20	0.730900	0.441000	0.112700
F211	F21	0.931200	0.364800	0.272500
F221	F22	0.164600	0.338900	0.176400
F231	F23	0.853900	0.147900	0.335900
F241	F24	0.089200	0.121900	0.242600
Nd41	Nd4	0.509250	0.284730	0.504200
