data_NARPOO_clean_PM
_symmetry_space_group_name_H-M	'P1'
_cell_length_a	10.212000
_cell_length_b	21.288000
_cell_length_c	7.905000
_cell_angle_alpha	90.000000
_cell_angle_beta	98.851000
_cell_angle_gamma	90.000000
_symmetry_Int_Tables_number 1

loop_
_symmetry_equiv_pos_as_xyz
'x,y,z'

loop_
_atom_site_label
_atom_site_type_symbol
_atom_site_fract_x
_atom_site_fract_y
_atom_site_fract_z
Pr11	Pr1	0.010550	0.215050	0.004930
O11	O1	0.870900	0.240500	0.248500
O21	O2	0.246400	0.310100	0.470300
O31	O3	0.775500	0.183800	0.033800
F11	F1	0.589400	0.122700	0.241600
C11	C1	0.769100	0.216700	0.161700
O41	O4	0.152200	0.242000	0.282900
F21	F2	0.666000	0.338800	0.177500
C21	C2	0.252900	0.272000	0.357000
O51	O5	0.989800	0.132800	0.791100
F31	F3	0.431900	0.364400	0.272500
F41	F4	0.356300	0.147800	0.337800
F51	F5	0.230200	0.059000	0.612300
C31	C3	0.636300	0.230100	0.211600
C41	C4	0.552000	0.182900	0.250300
C51	C5	0.000300	0.060200	0.566700
C61	C6	0.387400	0.256600	0.306000
C71	C7	0.000700	0.127200	0.636400
C81	C8	0.431000	0.196300	0.294800
C91	C9	0.591100	0.292000	0.221600
O61	O6	0.014500	0.169800	0.530700
C101	C10	0.117500	0.029600	0.557800
F61	F6	0.769300	0.059200	0.515500
C111	C11	0.883100	0.029900	0.508400
C121	C12	0.470600	0.303600	0.267600
Pr21	Pr2	0.989450	0.715050	0.495070
O71	O7	0.129100	0.740500	0.251500
O81	O8	0.753600	0.810100	0.029700
O91	O9	0.224500	0.683800	0.466200
F71	F7	0.410600	0.622700	0.258400
C131	C13	0.230900	0.716700	0.338300
O101	O10	0.847800	0.742000	0.217100
F81	F8	0.334000	0.838800	0.322500
C141	C14	0.747100	0.772000	0.143000
O111	O11	0.010200	0.632800	0.708900
F91	F9	0.568100	0.864400	0.227500
F101	F10	0.643700	0.647800	0.162200
F111	F11	0.769800	0.559000	0.887700
C151	C15	0.363700	0.730100	0.288400
C161	C16	0.448000	0.682900	0.249700
C171	C17	0.999700	0.560200	0.933300
C181	C18	0.612600	0.756600	0.194000
C191	C19	0.999300	0.627200	0.863600
C201	C20	0.569000	0.696300	0.205200
C211	C21	0.408900	0.792000	0.278400
O121	O12	0.985500	0.669800	0.969300
C221	C22	0.882500	0.529600	0.942200
F121	F12	0.230700	0.559200	0.984500
C231	C23	0.116900	0.529900	0.991600
C241	C24	0.529400	0.803600	0.232400
Pr31	Pr3	0.989450	0.784950	0.995070
O131	O13	0.129100	0.759500	0.751500
O141	O14	0.753600	0.689900	0.529700
O151	O15	0.224500	0.816200	0.966200
F131	F13	0.410600	0.877300	0.758400
C251	C25	0.230900	0.783300	0.838300
O161	O16	0.847800	0.758000	0.717100
F141	F14	0.334000	0.661200	0.822500
C261	C26	0.747100	0.728000	0.643000
O171	O17	0.010200	0.867200	0.208900
F151	F15	0.568100	0.635600	0.727500
F161	F16	0.643700	0.852200	0.662200
F171	F17	0.769800	0.941000	0.387700
C271	C27	0.363700	0.769900	0.788400
C281	C28	0.448000	0.817100	0.749700
C291	C29	0.999700	0.939800	0.433300
C301	C30	0.612600	0.743400	0.694000
C311	C31	0.999300	0.872800	0.363600
C321	C32	0.569000	0.803700	0.705200
C331	C33	0.408900	0.708000	0.778400
O181	O18	0.985500	0.830200	0.469300
C341	C34	0.882500	0.970400	0.442200
F181	F18	0.230700	0.940800	0.484500
C351	C35	0.116900	0.970100	0.491600
C361	C36	0.529400	0.696400	0.732400
Pr41	Pr4	0.010550	0.284950	0.504930
O191	O19	0.870900	0.259500	0.748500
O201	O20	0.246400	0.189900	0.970300
O211	O21	0.775500	0.316200	0.533800
F191	F19	0.589400	0.377300	0.741600
C371	C37	0.769100	0.283300	0.661700
O221	O22	0.152200	0.258000	0.782900
F201	F20	0.666000	0.161200	0.677500
C381	C38	0.252900	0.228000	0.857000
O231	O23	0.989800	0.367200	0.291100
F211	F21	0.431900	0.135600	0.772500
F221	F22	0.356300	0.352200	0.837800
F231	F23	0.230200	0.441000	0.112300
C391	C39	0.636300	0.269900	0.711600
C401	C40	0.552000	0.317100	0.750300
C411	C41	0.000300	0.439800	0.066700
C421	C42	0.387400	0.243400	0.806000
C431	C43	0.000700	0.372800	0.136400
C441	C44	0.431000	0.303700	0.794800
C451	C45	0.591100	0.208000	0.721600
O241	O24	0.014500	0.330200	0.030700
C461	C46	0.117500	0.470400	0.057800
F241	F24	0.769300	0.440800	0.015500
C471	C47	0.883100	0.470100	0.008400
C481	C48	0.470600	0.196400	0.767600
