data_NARTUX_clean_PM
_symmetry_space_group_name_H-M	'P1'
_cell_length_a	14.959600
_cell_length_b	16.837400
_cell_length_c	16.837400
_cell_angle_alpha	98.918400
_cell_angle_beta	94.390600
_cell_angle_gamma	94.390600
_symmetry_Int_Tables_number 1

loop_
_symmetry_equiv_pos_as_xyz
'x,y,z'

loop_
_atom_site_label
_atom_site_type_symbol
_atom_site_fract_x
_atom_site_fract_y
_atom_site_fract_z
Ca11	Ca1	0.640610	0.896760	0.744800
Ca21	Ca2	0.589860	0.652850	0.675410
Ca31	Ca3	0.181940	0.372110	0.871170
Ca41	Ca4	0.859390	0.255200	0.103240
Ca51	Ca5	0.910140	0.324590	0.347150
Ca61	Ca6	0.318060	0.128830	0.627890
Ca71	Ca7	0.359390	0.103240	0.255200
Ca81	Ca8	0.410140	0.347150	0.324590
Ca91	Ca9	0.818060	0.627890	0.128830
Ca101	Ca10	0.140610	0.744800	0.896760
Ca111	Ca11	0.089860	0.675410	0.652850
Ca121	Ca12	0.681940	0.871170	0.372110
H11	H1	0.523800	0.301900	0.731100
H21	H2	0.722200	0.472200	0.716000
H31	H3	0.765600	0.301500	0.853500
H41	H4	0.558400	0.122200	0.928400
H51	H5	0.655100	0.120300	0.970300
H61	H6	0.419400	0.495700	0.601500
H71	H7	0.350400	0.421700	0.604500
H81	H8	0.971700	0.551500	0.855900
H91	H9	0.996600	0.557600	0.768400
H101	H10	0.607700	0.655500	0.108100
H111	H11	0.465900	0.455600	0.144200
H121	H12	0.362600	0.595400	0.993400
H131	H13	0.421800	0.794000	0.863400
H141	H14	0.511800	0.821600	0.918200
H151	H15	0.758400	0.487300	0.263500
H161	H16	0.698800	0.422300	0.297700
H171	H17	0.165700	0.391000	0.102200
H181	H18	0.222200	0.320900	0.067300
H191	H19	0.667500	0.229200	0.927000
H201	H20	0.499900	0.364800	0.592400
H211	H21	0.855600	0.511800	0.761600
H221	H22	0.424100	0.674600	0.913400
H231	H23	0.590400	0.460500	0.239500
H241	H24	0.293200	0.460900	0.155700
H251	H25	0.976200	0.268900	0.698100
H261	H26	0.777800	0.284000	0.527800
H271	H27	0.734400	0.146500	0.698500
H281	H28	0.941600	0.071600	0.877800
H291	H29	0.844900	0.029700	0.879700
H301	H30	0.080600	0.398500	0.504300
H311	H31	0.149600	0.395500	0.578300
H321	H32	0.528300	0.144100	0.448500
H331	H33	0.503400	0.231600	0.442400
H341	H34	0.892300	0.891900	0.344500
H351	H35	0.034100	0.855800	0.544400
H361	H36	0.137400	0.006600	0.404600
H371	H37	0.078200	0.136600	0.206000
H381	H38	0.988200	0.081800	0.178400
H391	H39	0.741600	0.736500	0.512700
H401	H40	0.801200	0.702300	0.577700
H411	H41	0.334300	0.897800	0.609000
H421	H42	0.277800	0.932700	0.679100
H431	H43	0.832500	0.073000	0.770800
H441	H44	0.000100	0.407600	0.635200
H451	H45	0.644400	0.238400	0.488200
H461	H46	0.075900	0.086600	0.325400
H471	H47	0.909600	0.760500	0.539500
H481	H48	0.206800	0.844300	0.539100
H491	H49	0.476200	0.698100	0.268900
H501	H50	0.277800	0.527800	0.284000
H511	H51	0.234400	0.698500	0.146500
H521	H52	0.441600	0.877800	0.071600
H531	H53	0.344900	0.879700	0.029700
H541	H54	0.580600	0.504300	0.398500
H551	H55	0.649600	0.578300	0.395500
H561	H56	0.028300	0.448500	0.144100
H571	H57	0.003400	0.442400	0.231600
H581	H58	0.392300	0.344500	0.891900
H591	H59	0.534100	0.544400	0.855800
H601	H60	0.637400	0.404600	0.006600
H611	H61	0.578200	0.206000	0.136600
H621	H62	0.488200	0.178400	0.081800
H631	H63	0.241600	0.512700	0.736500
H641	H64	0.301200	0.577700	0.702300
H651	H65	0.834300	0.609000	0.897800
H661	H66	0.777800	0.679100	0.932700
H671	H67	0.332500	0.770800	0.073000
H681	H68	0.500100	0.635200	0.407600
H691	H69	0.144400	0.488200	0.238400
H701	H70	0.575900	0.325400	0.086600
H711	H71	0.409600	0.539500	0.760500
H721	H72	0.706800	0.539100	0.844300
H731	H73	0.023800	0.731100	0.301900
H741	H74	0.222200	0.716000	0.472200
H751	H75	0.265600	0.853500	0.301500
H761	H76	0.058400	0.928400	0.122200
H771	H77	0.155100	0.970300	0.120300
H781	H78	0.919400	0.601500	0.495700
H791	H79	0.850400	0.604500	0.421700
H801	H80	0.471700	0.855900	0.551500
H811	H81	0.496600	0.768400	0.557600
H821	H82	0.107700	0.108100	0.655500
H831	H83	0.965900	0.144200	0.455600
H841	H84	0.862600	0.993400	0.595400
H851	H85	0.921800	0.863400	0.794000
H861	H86	0.011800	0.918200	0.821600
H871	H87	0.258400	0.263500	0.487300
H881	H88	0.198800	0.297700	0.422300
H891	H89	0.665700	0.102200	0.391000
H901	H90	0.722200	0.067300	0.320900
H911	H91	0.167500	0.927000	0.229200
H921	H92	0.999900	0.592400	0.364800
H931	H93	0.355600	0.761600	0.511800
H941	H94	0.924100	0.913400	0.674600
H951	H95	0.090400	0.239500	0.460500
H961	H96	0.793200	0.155700	0.460900
C11	C1	0.639020	0.289880	0.798000
C21	C2	0.582140	0.325200	0.746380
C31	C3	0.611820	0.394600	0.717680
C41	C4	0.701250	0.426800	0.736520
C51	C5	0.758790	0.390700	0.786100
C61	C6	0.727510	0.323760	0.818320
C71	C7	0.599820	0.219410	0.831850
C81	C8	0.621200	0.119170	0.918690
C91	C9	0.630900	0.039640	0.865300
C101	C10	0.548680	0.441720	0.674300
C111	C11	0.408500	0.437570	0.587030
C121	C12	0.404800	0.415210	0.495430
C131	C13	0.853950	0.425430	0.814370
C141	C14	0.979900	0.520030	0.804150
C151	C15	0.056200	0.468760	0.815280
C161	C16	0.488530	0.635560	0.042560
C171	C17	0.556180	0.619730	0.096610
C181	C18	0.550070	0.552880	0.134140
C191	C19	0.471200	0.501180	0.119480
C201	C20	0.400580	0.517800	0.068060
C211	C21	0.409480	0.584820	0.028760
C221	C22	0.509730	0.703650	0.997590
C231	C23	0.475200	0.775010	0.888030
C241	C24	0.527590	0.734750	0.822510
C251	C25	0.632960	0.535470	0.182710
C261	C26	0.714990	0.440490	0.248450
C271	C27	0.759170	0.373910	0.198390
C281	C28	0.315170	0.461210	0.052670
C291	C29	0.220400	0.365080	0.111460
C301	C30	0.218920	0.332060	0.189800
C311	C31	0.860980	0.202000	0.710120
C321	C32	0.917860	0.253620	0.674800
C331	C33	0.888180	0.282320	0.605400
C341	C34	0.798750	0.263480	0.573200
C351	C35	0.741210	0.213900	0.609300
C361	C36	0.772490	0.181680	0.676240
C371	C37	0.900180	0.168150	0.780590
C381	C38	0.878800	0.081310	0.880830
C391	C39	0.869100	0.134700	0.960360
C401	C40	0.951320	0.325700	0.558280
C411	C41	0.091500	0.412970	0.562430
C421	C42	0.095200	0.504570	0.584790
C431	C43	0.646050	0.185630	0.574570
C441	C44	0.520100	0.195850	0.479970
C451	C45	0.443800	0.184720	0.531240
C461	C46	0.011470	0.957440	0.364440
C471	C47	0.943820	0.903390	0.380270
C481	C48	0.949930	0.865860	0.447120
C491	C49	0.028800	0.880520	0.498820
C501	C50	0.099420	0.931940	0.482200
C511	C51	0.090520	0.971240	0.415180
C521	C52	0.990270	0.002410	0.296350
C531	C53	0.024800	0.111970	0.224990
C541	C54	0.972410	0.177490	0.265250
C551	C55	0.867040	0.817290	0.464530
C561	C56	0.785010	0.751550	0.559510
C571	C57	0.740830	0.801610	0.626090
C581	C58	0.184830	0.947330	0.538790
C591	C59	0.279600	0.888540	0.634920
C601	C60	0.281080	0.810200	0.667940
C611	C61	0.360980	0.710120	0.202000
C621	C62	0.417860	0.674800	0.253620
C631	C63	0.388180	0.605400	0.282320
C641	C64	0.298750	0.573200	0.263480
C651	C65	0.241210	0.609300	0.213900
C661	C66	0.272490	0.676240	0.181680
C671	C67	0.400180	0.780590	0.168150
C681	C68	0.378800	0.880830	0.081310
C691	C69	0.369100	0.960360	0.134700
C701	C70	0.451320	0.558280	0.325700
C711	C71	0.591500	0.562430	0.412970
C721	C72	0.595200	0.584790	0.504570
C731	C73	0.146050	0.574570	0.185630
C741	C74	0.020100	0.479970	0.195850
C751	C75	0.943800	0.531240	0.184720
C761	C76	0.511470	0.364440	0.957440
C771	C77	0.443820	0.380270	0.903390
C781	C78	0.449930	0.447120	0.865860
C791	C79	0.528800	0.498820	0.880520
C801	C80	0.599420	0.482200	0.931940
C811	C81	0.590520	0.415180	0.971240
C821	C82	0.490270	0.296350	0.002410
C831	C83	0.524800	0.224990	0.111970
C841	C84	0.472410	0.265250	0.177490
C851	C85	0.367040	0.464530	0.817290
C861	C86	0.285010	0.559510	0.751550
C871	C87	0.240830	0.626090	0.801610
C881	C88	0.684830	0.538790	0.947330
C891	C89	0.779600	0.634920	0.888540
C901	C90	0.781080	0.667940	0.810200
C911	C91	0.139020	0.798000	0.289880
C921	C92	0.082140	0.746380	0.325200
C931	C93	0.111820	0.717680	0.394600
C941	C94	0.201250	0.736520	0.426800
C951	C95	0.258790	0.786100	0.390700
C961	C96	0.227510	0.818320	0.323760
C971	C97	0.099820	0.831850	0.219410
C981	C98	0.121200	0.918690	0.119170
C991	C99	0.130900	0.865300	0.039640
C1001	C100	0.048680	0.674300	0.441720
C1011	C101	0.908500	0.587030	0.437570
C1021	C102	0.904800	0.495430	0.415210
C1031	C103	0.353950	0.814370	0.425430
C1041	C104	0.479900	0.804150	0.520030
C1051	C105	0.556200	0.815280	0.468760
C1061	C106	0.988530	0.042560	0.635560
C1071	C107	0.056180	0.096610	0.619730
C1081	C108	0.050070	0.134140	0.552880
C1091	C109	0.971200	0.119480	0.501180
C1101	C110	0.900580	0.068060	0.517800
C1111	C111	0.909480	0.028760	0.584820
C1121	C112	0.009730	0.997590	0.703650
C1131	C113	0.975200	0.888030	0.775010
C1141	C114	0.027590	0.822510	0.734750
C1151	C115	0.132960	0.182710	0.535470
C1161	C116	0.214990	0.248450	0.440490
C1171	C117	0.259170	0.198390	0.373910
C1181	C118	0.815170	0.052670	0.461210
C1191	C119	0.720400	0.111460	0.365080
C1201	C120	0.718920	0.189800	0.332060
N11	N1	0.651820	0.189210	0.885010
N21	N2	0.477500	0.400140	0.629860
N31	N3	0.894390	0.475490	0.771390
N41	N4	0.448330	0.721350	0.943310
N51	N5	0.635070	0.464370	0.207010
N61	N6	0.297130	0.422410	0.112870
N71	N7	0.848180	0.114990	0.810790
N81	N8	0.022500	0.370140	0.599860
N91	N9	0.605610	0.228610	0.524510
N101	N10	0.051670	0.056690	0.278650
N111	N11	0.864930	0.792990	0.535630
N121	N12	0.202870	0.887130	0.577590
N131	N13	0.348180	0.810790	0.114990
N141	N14	0.522500	0.599860	0.370140
N151	N15	0.105610	0.524510	0.228610
N161	N16	0.551670	0.278650	0.056690
N171	N17	0.364930	0.535630	0.792990
N181	N18	0.702870	0.577590	0.887130
N191	N19	0.151820	0.885010	0.189210
N201	N20	0.977500	0.629860	0.400140
N211	N21	0.394390	0.771390	0.475490
N221	N22	0.948330	0.943310	0.721350
N231	N23	0.135070	0.207010	0.464370
N241	N24	0.797130	0.112870	0.422410
O11	O1	0.520320	0.191880	0.811800
O21	O2	0.670470	0.039370	0.801910
O31	O3	0.598900	0.977010	0.886510
O41	O4	0.560300	0.515780	0.685780
O51	O5	0.340440	0.434850	0.454730
O61	O6	0.466200	0.378350	0.466130
O71	O7	0.891570	0.408350	0.876670
O81	O8	0.060740	0.403660	0.769960
O91	O9	0.116080	0.494890	0.871730
O101	O10	0.585210	0.741650	0.008710
O111	O11	0.526370	0.659420	0.809340
O121	O12	0.568370	0.778930	0.780290
O131	O13	0.698250	0.588010	0.197850
O141	O14	0.835120	0.357280	0.227540
O151	O15	0.722340	0.338390	0.132870
O161	O16	0.268660	0.451390	0.988210
O171	O17	0.275540	0.361330	0.246650
O181	O18	0.156960	0.277380	0.191880
O191	O19	0.979680	0.188200	0.808120
O201	O20	0.829530	0.198090	0.960630
O211	O21	0.901100	0.113490	0.022990
O221	O22	0.939700	0.314220	0.484220
O231	O23	0.159560	0.545270	0.565150
O241	O24	0.033800	0.533870	0.621650
O251	O25	0.608430	0.123330	0.591650
O261	O26	0.439260	0.230040	0.596340
O271	O27	0.383920	0.128270	0.505110
O281	O28	0.914790	0.991290	0.258350
O291	O29	0.973630	0.190660	0.340580
O301	O30	0.931630	0.219710	0.221070
O311	O31	0.801750	0.802150	0.411990
O321	O32	0.664880	0.772460	0.642720
O331	O33	0.777660	0.867130	0.661610
O341	O34	0.231340	0.011790	0.548610
O351	O35	0.224460	0.753350	0.638670
O361	O36	0.343040	0.808120	0.722620
O371	O37	0.479680	0.808120	0.188200
O381	O38	0.329530	0.960630	0.198090
O391	O39	0.401100	0.022990	0.113490
O401	O40	0.439700	0.484220	0.314220
O411	O41	0.659560	0.565150	0.545270
O421	O42	0.533800	0.621650	0.533870
O431	O43	0.108430	0.591650	0.123330
O441	O44	0.939260	0.596340	0.230040
O451	O45	0.883920	0.505110	0.128270
O461	O46	0.414790	0.258350	0.991290
O471	O47	0.473630	0.340580	0.190660
O481	O48	0.431630	0.221070	0.219710
O491	O49	0.301750	0.411990	0.802150
O501	O50	0.164880	0.642720	0.772460
O511	O51	0.277660	0.661610	0.867130
O521	O52	0.731340	0.548610	0.011790
O531	O53	0.724460	0.638670	0.753350
O541	O54	0.843040	0.722620	0.808120
O551	O55	0.020320	0.811800	0.191880
O561	O56	0.170470	0.801910	0.039370
O571	O57	0.098900	0.886510	0.977010
O581	O58	0.060300	0.685780	0.515780
O591	O59	0.840440	0.454730	0.434850
O601	O60	0.966200	0.466130	0.378350
O611	O61	0.391570	0.876670	0.408350
O621	O62	0.560740	0.769960	0.403660
O631	O63	0.616080	0.871730	0.494890
O641	O64	0.085210	0.008710	0.741650
O651	O65	0.026370	0.809340	0.659420
O661	O66	0.068370	0.780290	0.778930
O671	O67	0.198250	0.197850	0.588010
O681	O68	0.335120	0.227540	0.357280
O691	O69	0.222340	0.132870	0.338390
O701	O70	0.768660	0.988210	0.451390
O711	O71	0.775540	0.246650	0.361330
O721	O72	0.656960	0.191880	0.277380
