data_NASREH_clean_PM
_symmetry_space_group_name_H-M	'P1'
_cell_length_a	14.748800
_cell_length_b	10.743400
_cell_length_c	28.877400
_cell_angle_alpha	90.000000
_cell_angle_beta	90.000000
_cell_angle_gamma	90.000000
_symmetry_Int_Tables_number 1

loop_
_symmetry_equiv_pos_as_xyz
'x,y,z'

loop_
_atom_site_label
_atom_site_type_symbol
_atom_site_fract_x
_atom_site_fract_y
_atom_site_fract_z
O11	O1	0.655900	0.251800	0.318990
O21	O2	0.654700	0.393800	0.263140
C11	C1	0.560600	0.426200	0.327430
C21	C2	0.629500	0.351500	0.300690
C31	C3	0.559400	0.424400	0.375390
H11	H1	0.598700	0.371900	0.391300
C41	C4	0.448800	0.414800	0.475610
C51	C5	0.401300	0.304800	0.448700
H21	H2	0.337300	0.320600	0.446700
H31	H3	0.411400	0.228100	0.464900
H41	H4	0.426200	0.298900	0.418100
O31	O3	0.155900	0.751800	0.818990
O41	O4	0.154700	0.893800	0.763140
C61	C6	0.060600	0.926200	0.827430
C71	C7	0.129500	0.851500	0.800690
C81	C8	0.059400	0.924400	0.875390
H51	H5	0.098700	0.871900	0.891300
C91	C9	0.948800	0.914800	0.975610
C101	C10	0.901300	0.804800	0.948700
H61	H6	0.837300	0.820600	0.946700
H71	H7	0.911400	0.728100	0.964900
H81	H8	0.926200	0.798900	0.918100
O51	O5	0.844100	0.251800	0.681010
O61	O6	0.845300	0.393800	0.736860
C111	C11	0.939400	0.426200	0.672570
C121	C12	0.870500	0.351500	0.699310
C131	C13	0.940600	0.424400	0.624610
H91	H9	0.901300	0.371900	0.608700
C141	C14	0.051200	0.414800	0.524390
C151	C15	0.098700	0.304800	0.551300
H101	H10	0.162700	0.320600	0.553300
H111	H11	0.088600	0.228100	0.535100
H121	H12	0.073800	0.298900	0.581900
O71	O7	0.344100	0.751800	0.181010
O81	O8	0.345300	0.893800	0.236860
C161	C16	0.439400	0.926200	0.172570
C171	C17	0.370500	0.851500	0.199310
C181	C18	0.440600	0.924400	0.124610
H131	H13	0.401300	0.871900	0.108700
C191	C19	0.551200	0.914800	0.024390
C201	C20	0.598700	0.804800	0.051300
H141	H14	0.662700	0.820600	0.053300
H151	H15	0.588600	0.728100	0.035100
H161	H16	0.573800	0.798900	0.081900
O91	O9	0.155900	0.748200	0.681010
O101	O10	0.154700	0.606200	0.736860
C211	C21	0.060600	0.573800	0.672570
C221	C22	0.129500	0.648500	0.699310
C231	C23	0.059400	0.575600	0.624610
H171	H17	0.098700	0.628100	0.608700
C241	C24	0.948800	0.585200	0.524390
C251	C25	0.901300	0.695200	0.551300
H181	H18	0.837300	0.679400	0.553300
H191	H19	0.911400	0.771900	0.535100
H201	H20	0.926200	0.701100	0.581900
O111	O11	0.655900	0.248200	0.181010
O121	O12	0.654700	0.106200	0.236860
C261	C26	0.560600	0.073800	0.172570
C271	C27	0.629500	0.148500	0.199310
C281	C28	0.559400	0.075600	0.124610
H211	H21	0.598700	0.128100	0.108700
C291	C29	0.448800	0.085200	0.024390
C301	C30	0.401300	0.195200	0.051300
H221	H22	0.337300	0.179400	0.053300
H231	H23	0.411400	0.271900	0.035100
H241	H24	0.426200	0.201100	0.081900
O131	O13	0.344100	0.748200	0.318990
O141	O14	0.345300	0.606200	0.263140
C311	C31	0.439400	0.573800	0.327430
C321	C32	0.370500	0.648500	0.300690
C331	C33	0.440600	0.575600	0.375390
H251	H25	0.401300	0.628100	0.391300
C341	C34	0.551200	0.585200	0.475610
C351	C35	0.598700	0.695200	0.448700
H261	H26	0.662700	0.679400	0.446700
H271	H27	0.588600	0.771900	0.464900
H281	H28	0.573800	0.701100	0.418100
O151	O15	0.844100	0.248200	0.818990
O161	O16	0.845300	0.106200	0.763140
C361	C36	0.939400	0.073800	0.827430
C371	C37	0.870500	0.148500	0.800690
C381	C38	0.940600	0.075600	0.875390
H291	H29	0.901300	0.128100	0.891300
C391	C39	0.051200	0.085200	0.975610
C401	C40	0.098700	0.195200	0.948700
H301	H30	0.162700	0.179400	0.946700
H311	H31	0.088600	0.271900	0.964900
H321	H32	0.073800	0.201100	0.918100
O171	O17	0.344100	0.748200	0.681010
O181	O18	0.345300	0.606200	0.736860
C411	C41	0.439400	0.573800	0.672570
C421	C42	0.370500	0.648500	0.699310
C431	C43	0.440600	0.575600	0.624610
H331	H33	0.401300	0.628100	0.608700
C441	C44	0.551200	0.585200	0.524390
C451	C45	0.598700	0.695200	0.551300
H341	H34	0.662700	0.679400	0.553300
H351	H35	0.588600	0.771900	0.535100
H361	H36	0.573800	0.701100	0.581900
O191	O19	0.844100	0.248200	0.181010
O201	O20	0.845300	0.106200	0.236860
C461	C46	0.939400	0.073800	0.172570
C471	C47	0.870500	0.148500	0.199310
C481	C48	0.940600	0.075600	0.124610
H371	H37	0.901300	0.128100	0.108700
C491	C49	0.051200	0.085200	0.024390
C501	C50	0.098700	0.195200	0.051300
H381	H38	0.162700	0.179400	0.053300
H391	H39	0.088600	0.271900	0.035100
H401	H40	0.073800	0.201100	0.081900
O211	O21	0.155900	0.748200	0.318990
O221	O22	0.154700	0.606200	0.263140
C511	C51	0.060600	0.573800	0.327430
C521	C52	0.129500	0.648500	0.300690
C531	C53	0.059400	0.575600	0.375390
H411	H41	0.098700	0.628100	0.391300
C541	C54	0.948800	0.585200	0.475610
C551	C55	0.901300	0.695200	0.448700
H421	H42	0.837300	0.679400	0.446700
H431	H43	0.911400	0.771900	0.464900
H441	H44	0.926200	0.701100	0.418100
O231	O23	0.655900	0.248200	0.818990
O241	O24	0.654700	0.106200	0.763140
C561	C56	0.560600	0.073800	0.827430
C571	C57	0.629500	0.148500	0.800690
C581	C58	0.559400	0.075600	0.875390
H451	H45	0.598700	0.128100	0.891300
C591	C59	0.448800	0.085200	0.975610
C601	C60	0.401300	0.195200	0.948700
H461	H46	0.337300	0.179400	0.946700
H471	H47	0.411400	0.271900	0.964900
H481	H48	0.426200	0.201100	0.918100
O251	O25	0.844100	0.251800	0.318990
O261	O26	0.845300	0.393800	0.263140
C611	C61	0.939400	0.426200	0.327430
C621	C62	0.870500	0.351500	0.300690
C631	C63	0.940600	0.424400	0.375390
H491	H49	0.901300	0.371900	0.391300
C641	C64	0.051200	0.414800	0.475610
C651	C65	0.098700	0.304800	0.448700
H501	H50	0.162700	0.320600	0.446700
H511	H51	0.088600	0.228100	0.464900
H521	H52	0.073800	0.298900	0.418100
O271	O27	0.344100	0.751800	0.818990
O281	O28	0.345300	0.893800	0.763140
C661	C66	0.439400	0.926200	0.827430
C671	C67	0.370500	0.851500	0.800690
C681	C68	0.440600	0.924400	0.875390
H531	H53	0.401300	0.871900	0.891300
C691	C69	0.551200	0.914800	0.975610
C701	C70	0.598700	0.804800	0.948700
H541	H54	0.662700	0.820600	0.946700
H551	H55	0.588600	0.728100	0.964900
H561	H56	0.573800	0.798900	0.918100
O291	O29	0.655900	0.251800	0.681010
O301	O30	0.654700	0.393800	0.736860
C711	C71	0.560600	0.426200	0.672570
C721	C72	0.629500	0.351500	0.699310
C731	C73	0.559400	0.424400	0.624610
H571	H57	0.598700	0.371900	0.608700
C741	C74	0.448800	0.414800	0.524390
C751	C75	0.401300	0.304800	0.551300
H581	H58	0.337300	0.320600	0.553300
H591	H59	0.411400	0.228100	0.535100
H601	H60	0.426200	0.298900	0.581900
O311	O31	0.155900	0.751800	0.181010
O321	O32	0.154700	0.893800	0.236860
C761	C76	0.060600	0.926200	0.172570
C771	C77	0.129500	0.851500	0.199310
C781	C78	0.059400	0.924400	0.124610
H611	H61	0.098700	0.871900	0.108700
C791	C79	0.948800	0.914800	0.024390
C801	C80	0.901300	0.804800	0.051300
H621	H62	0.837300	0.820600	0.053300
H631	H63	0.911400	0.728100	0.035100
H641	H64	0.926200	0.798900	0.081900
Co11	Co1	0.750000	0.153880	0.285260
Co21	Co2	0.250000	0.653880	0.785260
Co31	Co3	0.750000	0.153880	0.714740
Co41	Co4	0.250000	0.653880	0.214740
Co51	Co5	0.250000	0.846120	0.714740
Co61	Co6	0.750000	0.346120	0.214740
Co71	Co7	0.250000	0.846120	0.285260
Co81	Co8	0.750000	0.346120	0.785260
C811	C81	0.500000	0.500000	0.303700
H651	H65	0.500000	0.500000	0.271500
C821	C82	0.500000	0.500000	0.400000
C831	C83	0.500000	0.500000	0.451900
C841	C84	0.000000	0.000000	0.803700
H661	H66	0.000000	0.000000	0.771500
C851	C85	0.000000	0.000000	0.900000
C861	C86	0.000000	0.000000	0.951900
C871	C87	0.000000	0.500000	0.696300
H671	H67	0.000000	0.500000	0.728500
C881	C88	0.000000	0.500000	0.600000
C891	C89	0.000000	0.500000	0.548100
C901	C90	0.500000	0.000000	0.196300
H681	H68	0.500000	0.000000	0.228500
C911	C91	0.500000	0.000000	0.100000
C921	C92	0.500000	0.000000	0.048100
C931	C93	0.500000	0.500000	0.696300
H691	H69	0.500000	0.500000	0.728500
C941	C94	0.500000	0.500000	0.600000
C951	C95	0.500000	0.500000	0.548100
C961	C96	0.000000	0.000000	0.196300
H701	H70	0.000000	0.000000	0.228500
C971	C97	0.000000	0.000000	0.100000
C981	C98	0.000000	0.000000	0.048100
C991	C99	0.000000	0.500000	0.303700
H711	H71	0.000000	0.500000	0.271500
C1001	C100	0.000000	0.500000	0.400000
C1011	C101	0.000000	0.500000	0.451900
C1021	C102	0.500000	0.000000	0.803700
H721	H72	0.500000	0.000000	0.771500
C1031	C103	0.500000	0.000000	0.900000
C1041	C104	0.500000	0.000000	0.951900
