data_NATKOL_clean_PM
_symmetry_space_group_name_H-M	'P1'
_cell_length_a	16.060400
_cell_length_b	16.060400
_cell_length_c	44.117000
_cell_angle_alpha	90.000000
_cell_angle_beta	90.000000
_cell_angle_gamma	90.000000
_symmetry_Int_Tables_number 1

loop_
_symmetry_equiv_pos_as_xyz
'x,y,z'

loop_
_atom_site_label
_atom_site_type_symbol
_atom_site_fract_x
_atom_site_fract_y
_atom_site_fract_z
Cu11	Cu1	0.458420	0.929490	0.710350
O11	O1	0.389700	0.985600	0.680410
O21	O2	0.466600	0.101700	0.677400
C11	C1	0.034100	0.430200	0.480940
N11	N1	0.197900	0.172400	0.574310
C21	C2	0.931000	0.467000	0.439150
C31	C3	0.349700	0.090100	0.645080
C41	C4	0.100300	0.306700	0.519190
N21	N2	0.672400	0.301100	0.347720
C51	C5	0.132900	0.243000	0.539710
C61	C6	0.805600	0.401900	0.400330
C71	C7	0.844400	0.483500	0.444600
H11	H1	0.828750	0.516100	0.461060
C81	C8	0.080500	0.450700	0.505650
H21	H2	0.088050	0.506630	0.510340
C91	C9	0.406000	0.056600	0.669870
C101	C10	0.783600	0.450900	0.425460
H31	H3	0.727720	0.461830	0.429350
N31	N3	0.106100	0.161100	0.539150
C111	C11	0.191900	0.251100	0.561860
H41	H4	0.221200	0.298700	0.567310
N41	N4	0.145100	0.117800	0.560390
C121	C12	0.948300	0.419300	0.413910
H51	H5	0.003690	0.407490	0.409520
C131	C13	0.375800	0.156800	0.628550
H61	H6	0.425730	0.183520	0.632910
C141	C14	0.888400	0.388500	0.395070
H71	H7	0.904350	0.357670	0.378200
C151	C15	0.746900	0.315800	0.357080
H81	H8	0.795860	0.295280	0.348690
C161	C16	0.052400	0.286300	0.494540
H91	H9	0.041480	0.230660	0.490250
C171	C17	0.117100	0.390600	0.524160
H101	H10	0.152590	0.406460	0.539770
C181	C18	0.020300	0.348000	0.476030
H111	H11	0.987920	0.332450	0.459500
C191	C19	0.250000	0.144500	0.598870
C201	C20	0.274900	0.048800	0.638560
H121	H12	0.259210	0.001950	0.649530
C211	C21	0.226100	0.078200	0.616130
H131	H13	0.175080	0.052850	0.612350
C221	C22	0.323700	0.184200	0.604220
H141	H14	0.339890	0.228830	0.592130
C231	C23	0.740900	0.365600	0.380810
C241	C24	0.643700	0.246000	0.322940
N51	N5	0.661800	0.376300	0.385800
N61	N6	0.618200	0.339600	0.364600
C251	C25	0.694500	0.191800	0.311050
H151	H15	0.748140	0.185260	0.318640
C261	C26	0.666400	0.143400	0.286400
H161	H16	0.702660	0.105950	0.277200
C271	C27	0.562100	0.258400	0.312520
H171	H17	0.526860	0.297020	0.321580
C281	C28	0.536300	0.210200	0.287960
H181	H18	0.483690	0.219080	0.279780
C291	C29	0.585700	0.150700	0.275710
C301	C30	0.553900	0.094100	0.251140
O31	O3	0.480000	0.105600	0.243060
O41	O4	0.605200	0.042100	0.240410
Cu21	Cu2	0.541580	0.070510	0.710350
O51	O5	0.610300	0.014400	0.680410
O61	O6	0.533400	0.898300	0.677400
C311	C31	0.965900	0.569800	0.480940
N71	N7	0.802100	0.827600	0.574310
C321	C32	0.069000	0.533000	0.439150
C331	C33	0.650300	0.909900	0.645080
C341	C34	0.899700	0.693300	0.519190
N81	N8	0.327600	0.698900	0.347720
C351	C35	0.867100	0.757000	0.539710
C361	C36	0.194400	0.598100	0.400330
C371	C37	0.155600	0.516500	0.444600
H191	H19	0.171250	0.483900	0.461060
C381	C38	0.919500	0.549300	0.505650
H201	H20	0.911950	0.493370	0.510340
C391	C39	0.594000	0.943400	0.669870
C401	C40	0.216400	0.549100	0.425460
H211	H21	0.272280	0.538170	0.429350
N91	N9	0.893900	0.838900	0.539150
C411	C41	0.808100	0.748900	0.561860
H221	H22	0.778800	0.701300	0.567310
N101	N10	0.854900	0.882200	0.560390
C421	C42	0.051700	0.580700	0.413910
H231	H23	0.996310	0.592510	0.409520
C431	C43	0.624200	0.843200	0.628550
H241	H24	0.574270	0.816480	0.632910
C441	C44	0.111600	0.611500	0.395070
H251	H25	0.095650	0.642330	0.378200
C451	C45	0.253100	0.684200	0.357080
H261	H26	0.204140	0.704720	0.348690
C461	C46	0.947600	0.713700	0.494540
H271	H27	0.958520	0.769340	0.490250
C471	C47	0.882900	0.609400	0.524160
H281	H28	0.847410	0.593540	0.539770
C481	C48	0.979700	0.652000	0.476030
H291	H29	0.012080	0.667550	0.459500
C491	C49	0.750000	0.855500	0.598870
C501	C50	0.725100	0.951200	0.638560
H301	H30	0.740790	0.998050	0.649530
C511	C51	0.773900	0.921800	0.616130
H311	H31	0.824920	0.947150	0.612350
C521	C52	0.676300	0.815800	0.604220
H321	H32	0.660110	0.771170	0.592130
C531	C53	0.259100	0.634400	0.380810
C541	C54	0.356300	0.754000	0.322940
N111	N11	0.338200	0.623700	0.385800
N121	N12	0.381800	0.660400	0.364600
C551	C55	0.305500	0.808200	0.311050
H331	H33	0.251860	0.814740	0.318640
C561	C56	0.333600	0.856600	0.286400
H341	H34	0.297340	0.894050	0.277200
C571	C57	0.437900	0.741600	0.312520
H351	H35	0.473140	0.702980	0.321580
C581	C58	0.463700	0.789800	0.287960
H361	H36	0.516310	0.780920	0.279780
C591	C59	0.414300	0.849300	0.275710
C601	C60	0.446100	0.905900	0.251140
O71	O7	0.520000	0.894400	0.243060
O81	O8	0.394800	0.957900	0.240410
Cu31	Cu3	0.570510	0.958420	0.210350
O91	O9	0.514400	0.889700	0.180410
O101	O10	0.398300	0.966600	0.177400
C611	C61	0.069800	0.534100	0.980940
N131	N13	0.327600	0.697900	0.074310
C621	C62	0.033000	0.431000	0.939150
C631	C63	0.409900	0.849700	0.145080
C641	C64	0.193300	0.600300	0.019190
N141	N14	0.198900	0.172400	0.847720
C651	C65	0.257000	0.632900	0.039710
C661	C66	0.098100	0.305600	0.900330
C671	C67	0.016500	0.344400	0.944600
H371	H37	0.983900	0.328750	0.961060
C681	C68	0.049300	0.580500	0.005650
H381	H38	0.993370	0.588050	0.010340
C691	C69	0.443400	0.906000	0.169870
C701	C70	0.049100	0.283600	0.925460
H391	H39	0.038170	0.227720	0.929350
N151	N15	0.338900	0.606100	0.039150
C711	C71	0.248900	0.691900	0.061860
H401	H40	0.201300	0.721200	0.067310
N161	N16	0.382200	0.645100	0.060390
C721	C72	0.080700	0.448300	0.913910
H411	H41	0.092510	0.503690	0.909520
C731	C73	0.343200	0.875800	0.128550
H421	H42	0.316480	0.925730	0.132910
C741	C74	0.111500	0.388400	0.895070
H431	H43	0.142330	0.404350	0.878200
C751	C75	0.184200	0.246900	0.857080
H441	H44	0.204720	0.295860	0.848690
C761	C76	0.213700	0.552400	0.994540
H451	H45	0.269340	0.541480	0.990250
C771	C77	0.109400	0.617100	0.024160
H461	H46	0.093540	0.652590	0.039770
C781	C78	0.152000	0.520300	0.976030
H471	H47	0.167550	0.487920	0.959500
C791	C79	0.355500	0.750000	0.098870
C801	C80	0.451200	0.774900	0.138560
H481	H48	0.498050	0.759210	0.149530
C811	C81	0.421800	0.726100	0.116130
H491	H49	0.447150	0.675080	0.112350
C821	C82	0.315800	0.823700	0.104220
H501	H50	0.271170	0.839890	0.092130
C831	C83	0.134400	0.240900	0.880810
C841	C84	0.254000	0.143700	0.822940
N171	N17	0.123700	0.161800	0.885800
N181	N18	0.160400	0.118200	0.864600
C851	C85	0.308200	0.194500	0.811050
H511	H51	0.314740	0.248140	0.818640
C861	C86	0.356600	0.166400	0.786400
H521	H52	0.394050	0.202660	0.777200
C871	C87	0.241600	0.062100	0.812520
H531	H53	0.202980	0.026860	0.821580
C881	C88	0.289800	0.036300	0.787960
H541	H54	0.280920	0.983690	0.779780
C891	C89	0.349300	0.085700	0.775710
C901	C90	0.405900	0.053900	0.751140
O111	O11	0.394400	0.980000	0.743060
O121	O12	0.457900	0.105200	0.740410
Cu41	Cu4	0.429490	0.041580	0.210350
O131	O13	0.485600	0.110300	0.180410
O141	O14	0.601700	0.033400	0.177400
C911	C91	0.930200	0.465900	0.980940
N191	N19	0.672400	0.302100	0.074310
C921	C92	0.967000	0.569000	0.939150
C931	C93	0.590100	0.150300	0.145080
C941	C94	0.806700	0.399700	0.019190
N201	N20	0.801100	0.827600	0.847720
C951	C95	0.743000	0.367100	0.039710
C961	C96	0.901900	0.694400	0.900330
C971	C97	0.983500	0.655600	0.944600
H551	H55	0.016100	0.671250	0.961060
C981	C98	0.950700	0.419500	0.005650
H561	H56	0.006630	0.411950	0.010340
C991	C99	0.556600	0.094000	0.169870
C1001	C100	0.950900	0.716400	0.925460
H571	H57	0.961830	0.772280	0.929350
N211	N21	0.661100	0.393900	0.039150
C1011	C101	0.751100	0.308100	0.061860
H581	H58	0.798700	0.278800	0.067310
N221	N22	0.617800	0.354900	0.060390
C1021	C102	0.919300	0.551700	0.913910
H591	H59	0.907490	0.496310	0.909520
C1031	C103	0.656800	0.124200	0.128550
H601	H60	0.683520	0.074270	0.132910
C1041	C104	0.888500	0.611600	0.895070
H611	H61	0.857670	0.595650	0.878200
C1051	C105	0.815800	0.753100	0.857080
H621	H62	0.795280	0.704140	0.848690
C1061	C106	0.786300	0.447600	0.994540
H631	H63	0.730660	0.458520	0.990250
C1071	C107	0.890600	0.382900	0.024160
H641	H64	0.906460	0.347410	0.039770
C1081	C108	0.848000	0.479700	0.976030
H651	H65	0.832450	0.512080	0.959500
C1091	C109	0.644500	0.250000	0.098870
C1101	C110	0.548800	0.225100	0.138560
H661	H66	0.501950	0.240790	0.149530
C1111	C111	0.578200	0.273900	0.116130
H671	H67	0.552850	0.324920	0.112350
C1121	C112	0.684200	0.176300	0.104220
H681	H68	0.728830	0.160110	0.092130
C1131	C113	0.865600	0.759100	0.880810
C1141	C114	0.746000	0.856300	0.822940
N231	N23	0.876300	0.838200	0.885800
N241	N24	0.839600	0.881800	0.864600
C1151	C115	0.691800	0.805500	0.811050
H691	H69	0.685260	0.751860	0.818640
C1161	C116	0.643400	0.833600	0.786400
H701	H70	0.605950	0.797340	0.777200
C1171	C117	0.758400	0.937900	0.812520
H711	H71	0.797020	0.973140	0.821580
C1181	C118	0.710200	0.963700	0.787960
H721	H72	0.719080	0.016310	0.779780
C1191	C119	0.650700	0.914300	0.775710
C1201	C120	0.594100	0.946100	0.751140
O151	O15	0.605600	0.020000	0.743060
O161	O16	0.542100	0.894800	0.740410
C1211	C121	0.000000	0.500000	0.460210
C1221	C122	0.000000	0.500000	0.960210
Cu51	Cu5	0.041580	0.429490	0.789650
O171	O17	0.110300	0.485600	0.819590
O181	O18	0.033400	0.601700	0.822600
C1231	C123	0.465900	0.930200	0.019060
N251	N25	0.302100	0.672400	0.925690
C1241	C124	0.569000	0.967000	0.060850
C1251	C125	0.150300	0.590100	0.854920
C1261	C126	0.399700	0.806700	0.980810
N261	N26	0.827600	0.801100	0.152280
C1271	C127	0.367100	0.743000	0.960290
C1281	C128	0.694400	0.901900	0.099670
C1291	C129	0.655600	0.983500	0.055400
H731	H73	0.671250	0.016100	0.038940
C1301	C130	0.419500	0.950700	0.994350
H741	H74	0.411950	0.006630	0.989660
C1311	C131	0.094000	0.556600	0.830130
C1321	C132	0.716400	0.950900	0.074540
H751	H75	0.772280	0.961830	0.070650
N271	N27	0.393900	0.661100	0.960850
C1331	C133	0.308100	0.751100	0.938140
H761	H76	0.278800	0.798700	0.932690
N281	N28	0.354900	0.617800	0.939610
C1341	C134	0.551700	0.919300	0.086090
H771	H77	0.496310	0.907490	0.090480
C1351	C135	0.124200	0.656800	0.871450
H781	H78	0.074270	0.683520	0.867090
C1361	C136	0.611600	0.888500	0.104930
H791	H79	0.595650	0.857670	0.121800
C1371	C137	0.753100	0.815800	0.142920
H801	H80	0.704140	0.795280	0.151310
C1381	C138	0.447600	0.786300	0.005460
H811	H81	0.458520	0.730660	0.009750
C1391	C139	0.382900	0.890600	0.975840
H821	H82	0.347410	0.906460	0.960230
C1401	C140	0.479700	0.848000	0.023970
H831	H83	0.512080	0.832450	0.040500
C1411	C141	0.250000	0.644500	0.901130
C1421	C142	0.225100	0.548800	0.861440
H841	H84	0.240790	0.501950	0.850470
C1431	C143	0.273900	0.578200	0.883870
H851	H85	0.324920	0.552850	0.887650
C1441	C144	0.176300	0.684200	0.895780
H861	H86	0.160110	0.728830	0.907870
C1451	C145	0.759100	0.865600	0.119190
C1461	C146	0.856300	0.746000	0.177060
N291	N29	0.838200	0.876300	0.114200
N301	N30	0.881800	0.839600	0.135400
C1471	C147	0.805500	0.691800	0.188950
H871	H87	0.751860	0.685260	0.181360
C1481	C148	0.833600	0.643400	0.213600
H881	H88	0.797340	0.605950	0.222800
C1491	C149	0.937900	0.758400	0.187480
H891	H89	0.973140	0.797020	0.178420
C1501	C150	0.963700	0.710200	0.212040
H901	H90	0.016310	0.719080	0.220220
C1511	C151	0.914300	0.650700	0.224290
C1521	C152	0.946100	0.594100	0.248860
O191	O19	0.020000	0.605600	0.256940
O201	O20	0.894800	0.542100	0.259590
Cu61	Cu6	0.958420	0.570510	0.789650
O211	O21	0.889700	0.514400	0.819590
O221	O22	0.966600	0.398300	0.822600
C1531	C153	0.534100	0.069800	0.019060
N311	N31	0.697900	0.327600	0.925690
C1541	C154	0.431000	0.033000	0.060850
C1551	C155	0.849700	0.409900	0.854920
C1561	C156	0.600300	0.193300	0.980810
N321	N32	0.172400	0.198900	0.152280
C1571	C157	0.632900	0.257000	0.960290
C1581	C158	0.305600	0.098100	0.099670
C1591	C159	0.344400	0.016500	0.055400
H911	H91	0.328750	0.983900	0.038940
C1601	C160	0.580500	0.049300	0.994350
H921	H92	0.588050	0.993370	0.989660
C1611	C161	0.906000	0.443400	0.830130
C1621	C162	0.283600	0.049100	0.074540
H931	H93	0.227720	0.038170	0.070650
N331	N33	0.606100	0.338900	0.960850
C1631	C163	0.691900	0.248900	0.938140
H941	H94	0.721200	0.201300	0.932690
N341	N34	0.645100	0.382200	0.939610
C1641	C164	0.448300	0.080700	0.086090
H951	H95	0.503690	0.092510	0.090480
C1651	C165	0.875800	0.343200	0.871450
H961	H96	0.925730	0.316480	0.867090
C1661	C166	0.388400	0.111500	0.104930
H971	H97	0.404350	0.142330	0.121800
C1671	C167	0.246900	0.184200	0.142920
H981	H98	0.295860	0.204720	0.151310
C1681	C168	0.552400	0.213700	0.005460
H991	H99	0.541480	0.269340	0.009750
C1691	C169	0.617100	0.109400	0.975840
H1001	H100	0.652590	0.093540	0.960230
C1701	C170	0.520300	0.152000	0.023970
H1011	H101	0.487920	0.167550	0.040500
C1711	C171	0.750000	0.355500	0.901130
C1721	C172	0.774900	0.451200	0.861440
H1021	H102	0.759210	0.498050	0.850470
C1731	C173	0.726100	0.421800	0.883870
H1031	H103	0.675080	0.447150	0.887650
C1741	C174	0.823700	0.315800	0.895780
H1041	H104	0.839890	0.271170	0.907870
C1751	C175	0.240900	0.134400	0.119190
C1761	C176	0.143700	0.254000	0.177060
N351	N35	0.161800	0.123700	0.114200
N361	N36	0.118200	0.160400	0.135400
C1771	C177	0.194500	0.308200	0.188950
H1051	H105	0.248140	0.314740	0.181360
C1781	C178	0.166400	0.356600	0.213600
H1061	H106	0.202660	0.394050	0.222800
C1791	C179	0.062100	0.241600	0.187480
H1071	H107	0.026860	0.202980	0.178420
C1801	C180	0.036300	0.289800	0.212040
H1081	H108	0.983690	0.280920	0.220220
C1811	C181	0.085700	0.349300	0.224290
C1821	C182	0.053900	0.405900	0.248860
O231	O23	0.980000	0.394400	0.256940
O241	O24	0.105200	0.457900	0.259590
Cu71	Cu7	0.929490	0.458420	0.289650
O251	O25	0.985600	0.389700	0.319590
O261	O26	0.101700	0.466600	0.322600
C1831	C183	0.430200	0.034100	0.519060
N371	N37	0.172400	0.197900	0.425690
C1841	C184	0.467000	0.931000	0.560850
C1851	C185	0.090100	0.349700	0.354920
C1861	C186	0.306700	0.100300	0.480810
N381	N38	0.301100	0.672400	0.652280
C1871	C187	0.243000	0.132900	0.460290
C1881	C188	0.401900	0.805600	0.599670
C1891	C189	0.483500	0.844400	0.555400
H1091	H109	0.516100	0.828750	0.538940
C1901	C190	0.450700	0.080500	0.494350
H1101	H110	0.506630	0.088050	0.489660
C1911	C191	0.056600	0.406000	0.330130
C1921	C192	0.450900	0.783600	0.574540
H1111	H111	0.461830	0.727720	0.570650
N391	N39	0.161100	0.106100	0.460850
C1931	C193	0.251100	0.191900	0.438140
H1121	H112	0.298700	0.221200	0.432690
N401	N40	0.117800	0.145100	0.439610
C1941	C194	0.419300	0.948300	0.586090
H1131	H113	0.407490	0.003690	0.590480
C1951	C195	0.156800	0.375800	0.371450
H1141	H114	0.183520	0.425730	0.367090
C1961	C196	0.388500	0.888400	0.604930
H1151	H115	0.357670	0.904350	0.621800
C1971	C197	0.315800	0.746900	0.642920
H1161	H116	0.295280	0.795860	0.651310
C1981	C198	0.286300	0.052400	0.505460
H1171	H117	0.230660	0.041480	0.509750
C1991	C199	0.390600	0.117100	0.475840
H1181	H118	0.406460	0.152590	0.460230
C2001	C200	0.348000	0.020300	0.523970
H1191	H119	0.332450	0.987920	0.540500
C2011	C201	0.144500	0.250000	0.401130
C2021	C202	0.048800	0.274900	0.361440
H1201	H120	0.001950	0.259210	0.350470
C2031	C203	0.078200	0.226100	0.383870
H1211	H121	0.052850	0.175080	0.387650
C2041	C204	0.184200	0.323700	0.395780
H1221	H122	0.228830	0.339890	0.407870
C2051	C205	0.365600	0.740900	0.619190
C2061	C206	0.246000	0.643700	0.677060
N411	N41	0.376300	0.661800	0.614200
N421	N42	0.339600	0.618200	0.635400
C2071	C207	0.191800	0.694500	0.688950
H1231	H123	0.185260	0.748140	0.681360
C2081	C208	0.143400	0.666400	0.713600
H1241	H124	0.105950	0.702660	0.722800
C2091	C209	0.258400	0.562100	0.687480
H1251	H125	0.297020	0.526860	0.678420
C2101	C210	0.210200	0.536300	0.712040
H1261	H126	0.219080	0.483690	0.720220
C2111	C211	0.150700	0.585700	0.724290
C2121	C212	0.094100	0.553900	0.748860
O271	O27	0.105600	0.480000	0.756940
O281	O28	0.042100	0.605200	0.759590
Cu81	Cu8	0.070510	0.541580	0.289650
O291	O29	0.014400	0.610300	0.319590
O301	O30	0.898300	0.533400	0.322600
C2131	C213	0.569800	0.965900	0.519060
N431	N43	0.827600	0.802100	0.425690
C2141	C214	0.533000	0.069000	0.560850
C2151	C215	0.909900	0.650300	0.354920
C2161	C216	0.693300	0.899700	0.480810
N441	N44	0.698900	0.327600	0.652280
C2171	C217	0.757000	0.867100	0.460290
C2181	C218	0.598100	0.194400	0.599670
C2191	C219	0.516500	0.155600	0.555400
H1271	H127	0.483900	0.171250	0.538940
C2201	C220	0.549300	0.919500	0.494350
H1281	H128	0.493370	0.911950	0.489660
C2211	C221	0.943400	0.594000	0.330130
C2221	C222	0.549100	0.216400	0.574540
H1291	H129	0.538170	0.272280	0.570650
N451	N45	0.838900	0.893900	0.460850
C2231	C223	0.748900	0.808100	0.438140
H1301	H130	0.701300	0.778800	0.432690
N461	N46	0.882200	0.854900	0.439610
C2241	C224	0.580700	0.051700	0.586090
H1311	H131	0.592510	0.996310	0.590480
C2251	C225	0.843200	0.624200	0.371450
H1321	H132	0.816480	0.574270	0.367090
C2261	C226	0.611500	0.111600	0.604930
H1331	H133	0.642330	0.095650	0.621800
C2271	C227	0.684200	0.253100	0.642920
H1341	H134	0.704720	0.204140	0.651310
C2281	C228	0.713700	0.947600	0.505460
H1351	H135	0.769340	0.958520	0.509750
C2291	C229	0.609400	0.882900	0.475840
H1361	H136	0.593540	0.847410	0.460230
C2301	C230	0.652000	0.979700	0.523970
H1371	H137	0.667550	0.012080	0.540500
C2311	C231	0.855500	0.750000	0.401130
C2321	C232	0.951200	0.725100	0.361440
H1381	H138	0.998050	0.740790	0.350470
C2331	C233	0.921800	0.773900	0.383870
H1391	H139	0.947150	0.824920	0.387650
C2341	C234	0.815800	0.676300	0.395780
H1401	H140	0.771170	0.660110	0.407870
C2351	C235	0.634400	0.259100	0.619190
C2361	C236	0.754000	0.356300	0.677060
N471	N47	0.623700	0.338200	0.614200
N481	N48	0.660400	0.381800	0.635400
C2371	C237	0.808200	0.305500	0.688950
H1411	H141	0.814740	0.251860	0.681360
C2381	C238	0.856600	0.333600	0.713600
H1421	H142	0.894050	0.297340	0.722800
C2391	C239	0.741600	0.437900	0.687480
H1431	H143	0.702980	0.473140	0.678420
C2401	C240	0.789800	0.463700	0.712040
H1441	H144	0.780920	0.516310	0.720220
C2411	C241	0.849300	0.414300	0.724290
C2421	C242	0.905900	0.446100	0.748860
O311	O31	0.894400	0.520000	0.756940
O321	O32	0.957900	0.394800	0.759590
C2431	C243	0.500000	0.000000	0.039790
C2441	C244	0.500000	0.000000	0.539790
