data_NAVCAO_clean_PM
_symmetry_space_group_name_H-M	'P1'
_cell_length_a	13.527400
_cell_length_b	13.527400
_cell_length_c	19.264500
_cell_angle_alpha	90.000000
_cell_angle_beta	90.000000
_cell_angle_gamma	120.000000
_symmetry_Int_Tables_number 1

loop_
_symmetry_equiv_pos_as_xyz
'x,y,z'

loop_
_atom_site_label
_atom_site_type_symbol
_atom_site_fract_x
_atom_site_fract_y
_atom_site_fract_z
Fe11	Fe1	0.855600	0.565500	0.450370
P11	P1	0.963500	0.812100	0.371200
P21	P2	0.632100	0.505100	0.543900
O11	O1	0.880900	0.686000	0.383100
O21	O2	0.081200	0.824900	0.347500
O31	O3	0.923400	0.859700	0.312800
O41	O4	0.983600	0.874800	0.440200
O51	O5	0.713500	0.564100	0.483700
O61	O6	0.702500	0.495000	0.606600
O71	O7	0.005900	0.580000	0.428900
O81	O8	0.839200	0.457200	0.527300
O91	O9	0.772200	0.443200	0.386200
Fe21	Fe2	0.434500	0.290100	0.450370
P31	P3	0.187900	0.151400	0.371200
P41	P4	0.494900	0.127000	0.543900
O101	O10	0.314000	0.194900	0.383100
O111	O11	0.175100	0.256300	0.347500
O121	O12	0.140300	0.063700	0.312800
O131	O13	0.125200	0.108800	0.440200
O141	O14	0.435900	0.149400	0.483700
O151	O15	0.505000	0.207500	0.606600
O161	O16	0.420000	0.425900	0.428900
O171	O17	0.542800	0.382000	0.527300
O181	O18	0.556800	0.329000	0.386200
Fe31	Fe3	0.709900	0.144400	0.450370
P51	P5	0.848600	0.036500	0.371200
P61	P6	0.873000	0.367900	0.543900
O191	O19	0.805100	0.119100	0.383100
O201	O20	0.743700	0.918800	0.347500
O211	O21	0.936300	0.076600	0.312800
O221	O22	0.891200	0.016400	0.440200
O231	O23	0.850600	0.286500	0.483700
O241	O24	0.792500	0.297500	0.606600
O251	O25	0.574100	0.994100	0.428900
O261	O26	0.618000	0.160800	0.527300
O271	O27	0.671000	0.227800	0.386200
Fe41	Fe4	0.565500	0.855600	0.049630
P71	P7	0.812100	0.963500	0.128800
P81	P8	0.505100	0.632100	0.956100
O281	O28	0.686000	0.880900	0.116900
O291	O29	0.824900	0.081200	0.152500
O301	O30	0.859700	0.923400	0.187200
O311	O31	0.874800	0.983600	0.059800
O321	O32	0.564100	0.713500	0.016300
O331	O33	0.495000	0.702500	0.893400
O341	O34	0.580000	0.005900	0.071100
O351	O35	0.457200	0.839200	0.972700
O361	O36	0.443200	0.772200	0.113800
Fe51	Fe5	0.290100	0.434500	0.049630
P91	P9	0.151400	0.187900	0.128800
P101	P10	0.127000	0.494900	0.956100
O371	O37	0.194900	0.314000	0.116900
O381	O38	0.256300	0.175100	0.152500
O391	O39	0.063700	0.140300	0.187200
O401	O40	0.108800	0.125200	0.059800
O411	O41	0.149400	0.435900	0.016300
O421	O42	0.207500	0.505000	0.893400
O431	O43	0.425900	0.420000	0.071100
O441	O44	0.382000	0.542800	0.972700
O451	O45	0.329000	0.556800	0.113800
Fe61	Fe6	0.144400	0.709900	0.049630
P111	P11	0.036500	0.848600	0.128800
P121	P12	0.367900	0.873000	0.956100
O461	O46	0.119100	0.805100	0.116900
O471	O47	0.918800	0.743700	0.152500
O481	O48	0.076600	0.936300	0.187200
O491	O49	0.016400	0.891200	0.059800
O501	O50	0.286500	0.850600	0.016300
O511	O51	0.297500	0.792500	0.893400
O521	O52	0.994100	0.574100	0.071100
O531	O53	0.160800	0.618000	0.972700
O541	O54	0.227800	0.671000	0.113800
Fe71	Fe7	0.144400	0.434500	0.549630
P131	P13	0.036500	0.187900	0.628800
P141	P14	0.367900	0.494900	0.456100
O551	O55	0.119100	0.314000	0.616900
O561	O56	0.918800	0.175100	0.652500
O571	O57	0.076600	0.140300	0.687200
O581	O58	0.016400	0.125200	0.559800
O591	O59	0.286500	0.435900	0.516300
O601	O60	0.297500	0.505000	0.393400
O611	O61	0.994100	0.420000	0.571100
O621	O62	0.160800	0.542800	0.472700
O631	O63	0.227800	0.556800	0.613800
Fe81	Fe8	0.565500	0.709900	0.549630
P151	P15	0.812100	0.848600	0.628800
P161	P16	0.505100	0.873000	0.456100
O641	O64	0.686000	0.805100	0.616900
O651	O65	0.824900	0.743700	0.652500
O661	O66	0.859700	0.936300	0.687200
O671	O67	0.874800	0.891200	0.559800
O681	O68	0.564100	0.850600	0.516300
O691	O69	0.495000	0.792500	0.393400
O701	O70	0.580000	0.574100	0.571100
O711	O71	0.457200	0.618000	0.472700
O721	O72	0.443200	0.671000	0.613800
Fe91	Fe9	0.290100	0.855600	0.549630
P171	P17	0.151400	0.963500	0.628800
P181	P18	0.127000	0.632100	0.456100
O731	O73	0.194900	0.880900	0.616900
O741	O74	0.256300	0.081200	0.652500
O751	O75	0.063700	0.923400	0.687200
O761	O76	0.108800	0.983600	0.559800
O771	O77	0.149400	0.713500	0.516300
O781	O78	0.207500	0.702500	0.393400
O791	O79	0.425900	0.005900	0.571100
O801	O80	0.382000	0.839200	0.472700
O811	O81	0.329000	0.772200	0.613800
Fe101	Fe10	0.434500	0.144400	0.950370
P191	P19	0.187900	0.036500	0.871200
P201	P20	0.494900	0.367900	0.043900
O821	O82	0.314000	0.119100	0.883100
O831	O83	0.175100	0.918800	0.847500
O841	O84	0.140300	0.076600	0.812800
O851	O85	0.125200	0.016400	0.940200
O861	O86	0.435900	0.286500	0.983700
O871	O87	0.505000	0.297500	0.106600
O881	O88	0.420000	0.994100	0.928900
O891	O89	0.542800	0.160800	0.027300
O901	O90	0.556800	0.227800	0.886200
Fe111	Fe11	0.709900	0.565500	0.950370
P211	P21	0.848600	0.812100	0.871200
P221	P22	0.873000	0.505100	0.043900
O911	O91	0.805100	0.686000	0.883100
O921	O92	0.743700	0.824900	0.847500
O931	O93	0.936300	0.859700	0.812800
O941	O94	0.891200	0.874800	0.940200
O951	O95	0.850600	0.564100	0.983700
O961	O96	0.792500	0.495000	0.106600
O971	O97	0.574100	0.580000	0.928900
O981	O98	0.618000	0.457200	0.027300
O991	O99	0.671000	0.443200	0.886200
Fe121	Fe12	0.855600	0.290100	0.950370
P231	P23	0.963500	0.151400	0.871200
P241	P24	0.632100	0.127000	0.043900
O1001	O100	0.880900	0.194900	0.883100
O1011	O101	0.081200	0.256300	0.847500
O1021	O102	0.923400	0.063700	0.812800
O1031	O103	0.983600	0.108800	0.940200
O1041	O104	0.713500	0.149400	0.983700
O1051	O105	0.702500	0.207500	0.106600
O1061	O106	0.005900	0.425900	0.928900
O1071	O107	0.839200	0.382000	0.027300
O1081	O108	0.772200	0.329000	0.886200
Fe131	Fe13	0.000000	0.000000	0.250000
Fe141	Fe14	0.000000	0.000000	0.750000
Fe151	Fe15	0.000000	0.000000	0.500000
Fe161	Fe16	0.000000	0.000000	0.000000
P251	P25	0.666670	0.333330	0.362500
O1091	O109	0.666670	0.333330	0.281800
P261	P26	0.333330	0.666670	0.137500
O1101	O110	0.333330	0.666670	0.218200
P271	P27	0.333330	0.666670	0.637500
O1111	O111	0.333330	0.666670	0.718200
P281	P28	0.666670	0.333330	0.862500
O1121	O112	0.666670	0.333330	0.781800
