data_NAVJAW_clean_PM
_symmetry_space_group_name_H-M	'P1'
_cell_length_a	6.719200
_cell_length_b	15.240200
_cell_length_c	15.240200
_cell_angle_alpha	62.121200
_cell_angle_beta	81.549000
_cell_angle_gamma	98.451000
_symmetry_Int_Tables_number 1

loop_
_symmetry_equiv_pos_as_xyz
'x,y,z'

loop_
_atom_site_label
_atom_site_type_symbol
_atom_site_fract_x
_atom_site_fract_y
_atom_site_fract_z
Co11	Co1	0.301990	0.264840	0.314200
Co21	Co2	0.616190	0.314200	0.420960
Co31	Co3	0.037150	0.420960	0.264840
Co41	Co4	0.698010	0.735160	0.685800
Co51	Co5	0.383810	0.685800	0.579040
Co61	Co6	0.962850	0.579040	0.735160
H11	H1	0.302100	0.468800	0.547800
H21	H2	0.849900	0.547800	0.983400
H31	H3	0.833300	0.983400	0.468800
H41	H4	0.697900	0.531200	0.452200
H51	H5	0.150100	0.452200	0.016600
H61	H6	0.166700	0.016600	0.531200
C11	C1	0.239900	0.387200	0.437400
C21	C2	0.113500	0.447000	0.465700
C31	C3	0.928800	0.467000	0.433800
C41	C4	0.179000	0.481300	0.529100
C51	C5	0.677300	0.437400	0.175400
C61	C6	0.579200	0.465700	0.087300
C71	C7	0.362600	0.433800	0.099200
C81	C8	0.708100	0.529100	0.989600
C91	C9	0.852700	0.175400	0.387200
C101	C10	0.666500	0.087300	0.447000
C111	C11	0.461800	0.099200	0.467000
C121	C12	0.697700	0.989600	0.481300
C131	C13	0.760100	0.612800	0.562600
C141	C14	0.886500	0.553000	0.534300
C151	C15	0.071200	0.533000	0.566200
C161	C16	0.821000	0.518700	0.470900
C171	C17	0.322700	0.562600	0.824600
C181	C18	0.420800	0.534300	0.912700
C191	C19	0.637400	0.566200	0.900800
C201	C20	0.291900	0.470900	0.010400
C211	C21	0.147300	0.824600	0.612800
C221	C22	0.333500	0.912700	0.553000
C231	C23	0.538200	0.900800	0.533000
C241	C24	0.302300	0.010400	0.518700
O11	O1	0.186500	0.354200	0.379500
O21	O2	0.395800	0.367700	0.474600
O31	O3	0.852900	0.440900	0.369900
O41	O4	0.566000	0.379500	0.266300
O51	O5	0.870400	0.474600	0.157700
O61	O6	0.222800	0.369900	0.189200
O71	O7	0.832300	0.266300	0.354200
O81	O8	0.028100	0.157700	0.367700
O91	O9	0.412000	0.189200	0.440900
O101	O10	0.813500	0.645800	0.620500
O111	O11	0.604200	0.632300	0.525400
O121	O12	0.147100	0.559100	0.630100
O131	O13	0.434000	0.620500	0.733700
O141	O14	0.129600	0.525400	0.842300
O151	O15	0.777200	0.630100	0.810800
O161	O16	0.167700	0.733700	0.645800
O171	O17	0.971900	0.842300	0.632300
O181	O18	0.588000	0.810800	0.559100
