data_NAWKII_clean_PM
_symmetry_space_group_name_H-M	'P1'
_cell_length_a	13.419100
_cell_length_b	18.066900
_cell_length_c	20.974600
_cell_angle_alpha	90.000000
_cell_angle_beta	99.659000
_cell_angle_gamma	90.000000
_symmetry_Int_Tables_number 1

loop_
_symmetry_equiv_pos_as_xyz
'x,y,z'

loop_
_atom_site_label
_atom_site_type_symbol
_atom_site_fract_x
_atom_site_fract_y
_atom_site_fract_z
Mg11	Mg1	0.740240	0.259000	0.691180
O11	O1	0.502510	0.328820	0.678680
O21	O2	0.658040	0.348200	0.658790
O31	O3	0.517200	0.163790	0.683390
O41	O4	0.642600	0.189880	0.630150
O51	O5	0.804830	0.302590	0.782780
O61	O6	0.660020	0.244920	0.776700
C11	C1	0.563800	0.358660	0.649430
C21	C2	0.524500	0.411030	0.594490
C31	C3	0.418300	0.418410	0.573280
H11	H1	0.373800	0.392300	0.594400
C41	C4	0.589300	0.450590	0.563210
H21	H2	0.658700	0.446700	0.577100
C51	C5	0.552500	0.496840	0.510620
C61	C6	0.381100	0.463000	0.522750
H31	H3	0.311600	0.467200	0.509900
C71	C7	0.569000	0.153240	0.640060
C81	C8	0.536700	0.088140	0.594820
C91	C9	0.463800	0.036900	0.609720
H41	H4	0.439800	0.040800	0.648700
C101	C10	0.572800	0.081500	0.537840
H51	H5	0.621700	0.114500	0.528600
C111	C11	0.536800	0.025100	0.492350
C121	C12	0.428700	0.982300	0.567590
H61	H6	0.381200	0.949000	0.578200
C131	C13	0.735900	0.275660	0.809730
C141	C14	0.748800	0.277040	0.882010
C151	C15	0.820600	0.326070	0.916820
H71	H7	0.856300	0.358700	0.894800
C161	C16	0.837100	0.325070	0.982540
H81	H8	0.883100	0.358100	0.005200
C171	C17	0.696500	0.228710	0.913700
H91	H9	0.648600	0.197600	0.890200
C181	C18	0.785600	0.274720	0.017230
Mg21	Mg2	0.240240	0.759000	0.691180
O71	O7	0.002510	0.828820	0.678680
O81	O8	0.158040	0.848200	0.658790
O91	O9	0.017200	0.663790	0.683390
O101	O10	0.142600	0.689880	0.630150
O111	O11	0.304830	0.802590	0.782780
O121	O12	0.160020	0.744920	0.776700
C191	C19	0.063800	0.858660	0.649430
C201	C20	0.024500	0.911030	0.594490
C211	C21	0.918300	0.918410	0.573280
H101	H10	0.873800	0.892300	0.594400
C221	C22	0.089300	0.950590	0.563210
H111	H11	0.158700	0.946700	0.577100
C231	C23	0.052500	0.996840	0.510620
C241	C24	0.881100	0.963000	0.522750
H121	H12	0.811600	0.967200	0.509900
C251	C25	0.069000	0.653240	0.640060
C261	C26	0.036700	0.588140	0.594820
C271	C27	0.963800	0.536900	0.609720
H131	H13	0.939800	0.540800	0.648700
C281	C28	0.072800	0.581500	0.537840
H141	H14	0.121700	0.614500	0.528600
C291	C29	0.036800	0.525100	0.492350
C301	C30	0.928700	0.482300	0.567590
H151	H15	0.881200	0.449000	0.578200
C311	C31	0.235900	0.775660	0.809730
C321	C32	0.248800	0.777040	0.882010
C331	C33	0.320600	0.826070	0.916820
H161	H16	0.356300	0.858700	0.894800
C341	C34	0.337100	0.825070	0.982540
H171	H17	0.383100	0.858100	0.005200
C351	C35	0.196500	0.728710	0.913700
H181	H18	0.148600	0.697600	0.890200
C361	C36	0.285600	0.774720	0.017230
Mg31	Mg3	0.259760	0.259000	0.808820
O131	O13	0.497490	0.328820	0.821320
O141	O14	0.341960	0.348200	0.841210
O151	O15	0.482800	0.163790	0.816610
O161	O16	0.357400	0.189880	0.869850
O171	O17	0.195170	0.302590	0.717220
O181	O18	0.339980	0.244920	0.723300
C371	C37	0.436200	0.358660	0.850570
C381	C38	0.475500	0.411030	0.905510
C391	C39	0.581700	0.418410	0.926720
H191	H19	0.626200	0.392300	0.905600
C401	C40	0.410700	0.450590	0.936790
H201	H20	0.341300	0.446700	0.922900
C411	C41	0.447500	0.496840	0.989380
C421	C42	0.618900	0.463000	0.977250
H211	H21	0.688400	0.467200	0.990100
C431	C43	0.431000	0.153240	0.859940
C441	C44	0.463300	0.088140	0.905180
C451	C45	0.536200	0.036900	0.890280
H221	H22	0.560200	0.040800	0.851300
C461	C46	0.427200	0.081500	0.962160
H231	H23	0.378300	0.114500	0.971400
C471	C47	0.463200	0.025100	0.007650
C481	C48	0.571300	0.982300	0.932410
H241	H24	0.618800	0.949000	0.921800
C491	C49	0.264100	0.275660	0.690270
C501	C50	0.251200	0.277040	0.617990
C511	C51	0.179400	0.326070	0.583180
H251	H25	0.143700	0.358700	0.605200
C521	C52	0.162900	0.325070	0.517460
H261	H26	0.116900	0.358100	0.494800
C531	C53	0.303500	0.228710	0.586300
H271	H27	0.351400	0.197600	0.609800
C541	C54	0.214400	0.274720	0.482770
Mg41	Mg4	0.759760	0.759000	0.808820
O191	O19	0.997490	0.828820	0.821320
O201	O20	0.841960	0.848200	0.841210
O211	O21	0.982800	0.663790	0.816610
O221	O22	0.857400	0.689880	0.869850
O231	O23	0.695170	0.802590	0.717220
O241	O24	0.839980	0.744920	0.723300
C551	C55	0.936200	0.858660	0.850570
C561	C56	0.975500	0.911030	0.905510
C571	C57	0.081700	0.918410	0.926720
H281	H28	0.126200	0.892300	0.905600
C581	C58	0.910700	0.950590	0.936790
H291	H29	0.841300	0.946700	0.922900
C591	C59	0.947500	0.996840	0.989380
C601	C60	0.118900	0.963000	0.977250
H301	H30	0.188400	0.967200	0.990100
C611	C61	0.931000	0.653240	0.859940
C621	C62	0.963300	0.588140	0.905180
C631	C63	0.036200	0.536900	0.890280
H311	H31	0.060200	0.540800	0.851300
C641	C64	0.927200	0.581500	0.962160
H321	H32	0.878300	0.614500	0.971400
C651	C65	0.963200	0.525100	0.007650
C661	C66	0.071300	0.482300	0.932410
H331	H33	0.118800	0.449000	0.921800
C671	C67	0.764100	0.775660	0.690270
C681	C68	0.751200	0.777040	0.617990
C691	C69	0.679400	0.826070	0.583180
H341	H34	0.643700	0.858700	0.605200
C701	C70	0.662900	0.825070	0.517460
H351	H35	0.616900	0.858100	0.494800
C711	C71	0.803500	0.728710	0.586300
H361	H36	0.851400	0.697600	0.609800
C721	C72	0.714400	0.774720	0.482770
Mg51	Mg5	0.259760	0.741000	0.308820
O251	O25	0.497490	0.671180	0.321320
O261	O26	0.341960	0.651800	0.341210
O271	O27	0.482800	0.836210	0.316610
O281	O28	0.357400	0.810120	0.369850
O291	O29	0.195170	0.697410	0.217220
O301	O30	0.339980	0.755080	0.223300
C731	C73	0.436200	0.641340	0.350570
C741	C74	0.475500	0.588970	0.405510
C751	C75	0.581700	0.581590	0.426720
H371	H37	0.626200	0.607700	0.405600
C761	C76	0.410700	0.549410	0.436790
H381	H38	0.341300	0.553300	0.422900
C771	C77	0.447500	0.503160	0.489380
C781	C78	0.618900	0.537000	0.477250
H391	H39	0.688400	0.532800	0.490100
C791	C79	0.431000	0.846760	0.359940
C801	C80	0.463300	0.911860	0.405180
C811	C81	0.536200	0.963100	0.390280
H401	H40	0.560200	0.959200	0.351300
C821	C82	0.427200	0.918500	0.462160
H411	H41	0.378300	0.885500	0.471400
C831	C83	0.463200	0.974900	0.507650
C841	C84	0.571300	0.017700	0.432410
H421	H42	0.618800	0.051000	0.421800
C851	C85	0.264100	0.724340	0.190270
C861	C86	0.251200	0.722960	0.117990
C871	C87	0.179400	0.673930	0.083180
H431	H43	0.143700	0.641300	0.105200
C881	C88	0.162900	0.674930	0.017460
H441	H44	0.116900	0.641900	0.994800
C891	C89	0.303500	0.771290	0.086300
H451	H45	0.351400	0.802400	0.109800
C901	C90	0.214400	0.725280	0.982770
Mg61	Mg6	0.759760	0.241000	0.308820
O311	O31	0.997490	0.171180	0.321320
O321	O32	0.841960	0.151800	0.341210
O331	O33	0.982800	0.336210	0.316610
O341	O34	0.857400	0.310120	0.369850
O351	O35	0.695170	0.197410	0.217220
O361	O36	0.839980	0.255080	0.223300
C911	C91	0.936200	0.141340	0.350570
C921	C92	0.975500	0.088970	0.405510
C931	C93	0.081700	0.081590	0.426720
H461	H46	0.126200	0.107700	0.405600
C941	C94	0.910700	0.049410	0.436790
H471	H47	0.841300	0.053300	0.422900
C951	C95	0.947500	0.003160	0.489380
C961	C96	0.118900	0.037000	0.477250
H481	H48	0.188400	0.032800	0.490100
C971	C97	0.931000	0.346760	0.359940
C981	C98	0.963300	0.411860	0.405180
C991	C99	0.036200	0.463100	0.390280
H491	H49	0.060200	0.459200	0.351300
C1001	C100	0.927200	0.418500	0.462160
H501	H50	0.878300	0.385500	0.471400
C1011	C101	0.963200	0.474900	0.507650
C1021	C102	0.071300	0.517700	0.432410
H511	H51	0.118800	0.551000	0.421800
C1031	C103	0.764100	0.224340	0.190270
C1041	C104	0.751200	0.222960	0.117990
C1051	C105	0.679400	0.173930	0.083180
H521	H52	0.643700	0.141300	0.105200
C1061	C106	0.662900	0.174930	0.017460
H531	H53	0.616900	0.141900	0.994800
C1071	C107	0.803500	0.271290	0.086300
H541	H54	0.851400	0.302400	0.109800
C1081	C108	0.714400	0.225280	0.982770
Mg71	Mg7	0.740240	0.741000	0.191180
O371	O37	0.502510	0.671180	0.178680
O381	O38	0.658040	0.651800	0.158790
O391	O39	0.517200	0.836210	0.183390
O401	O40	0.642600	0.810120	0.130150
O411	O41	0.804830	0.697410	0.282780
O421	O42	0.660020	0.755080	0.276700
C1091	C109	0.563800	0.641340	0.149430
C1101	C110	0.524500	0.588970	0.094490
C1111	C111	0.418300	0.581590	0.073280
H551	H55	0.373800	0.607700	0.094400
C1121	C112	0.589300	0.549410	0.063210
H561	H56	0.658700	0.553300	0.077100
C1131	C113	0.552500	0.503160	0.010620
C1141	C114	0.381100	0.537000	0.022750
H571	H57	0.311600	0.532800	0.009900
C1151	C115	0.569000	0.846760	0.140060
C1161	C116	0.536700	0.911860	0.094820
C1171	C117	0.463800	0.963100	0.109720
H581	H58	0.439800	0.959200	0.148700
C1181	C118	0.572800	0.918500	0.037840
H591	H59	0.621700	0.885500	0.028600
C1191	C119	0.536800	0.974900	0.992350
C1201	C120	0.428700	0.017700	0.067590
H601	H60	0.381200	0.051000	0.078200
C1211	C121	0.735900	0.724340	0.309730
C1221	C122	0.748800	0.722960	0.382010
C1231	C123	0.820600	0.673930	0.416820
H611	H61	0.856300	0.641300	0.394800
C1241	C124	0.837100	0.674930	0.482540
H621	H62	0.883100	0.641900	0.505200
C1251	C125	0.696500	0.771290	0.413700
H631	H63	0.648600	0.802400	0.390200
C1261	C126	0.785600	0.725280	0.517230
Mg81	Mg8	0.240240	0.241000	0.191180
O431	O43	0.002510	0.171180	0.178680
O441	O44	0.158040	0.151800	0.158790
O451	O45	0.017200	0.336210	0.183390
O461	O46	0.142600	0.310120	0.130150
O471	O47	0.304830	0.197410	0.282780
O481	O48	0.160020	0.255080	0.276700
C1271	C127	0.063800	0.141340	0.149430
C1281	C128	0.024500	0.088970	0.094490
C1291	C129	0.918300	0.081590	0.073280
H641	H64	0.873800	0.107700	0.094400
C1301	C130	0.089300	0.049410	0.063210
H651	H65	0.158700	0.053300	0.077100
C1311	C131	0.052500	0.003160	0.010620
C1321	C132	0.881100	0.037000	0.022750
H661	H66	0.811600	0.032800	0.009900
C1331	C133	0.069000	0.346760	0.140060
C1341	C134	0.036700	0.411860	0.094820
C1351	C135	0.963800	0.463100	0.109720
H671	H67	0.939800	0.459200	0.148700
C1361	C136	0.072800	0.418500	0.037840
H681	H68	0.121700	0.385500	0.028600
C1371	C137	0.036800	0.474900	0.992350
C1381	C138	0.928700	0.517700	0.067590
H691	H69	0.881200	0.551000	0.078200
C1391	C139	0.235900	0.224340	0.309730
C1401	C140	0.248800	0.222960	0.382010
C1411	C141	0.320600	0.173930	0.416820
H701	H70	0.356300	0.141300	0.394800
C1421	C142	0.337100	0.174930	0.482540
H711	H71	0.383100	0.141900	0.505200
C1431	C143	0.196500	0.271290	0.413700
H721	H72	0.148600	0.302400	0.390200
C1441	C144	0.285600	0.225280	0.517230
Mg91	Mg9	0.500000	0.247540	0.750000
Mg101	Mg10	0.000000	0.747540	0.750000
Mg111	Mg11	0.500000	0.752460	0.250000
Mg121	Mg12	0.000000	0.252460	0.250000
