data_NAWXER_clean_PM
_symmetry_space_group_name_H-M	'P1'
_cell_length_a	21.982800
_cell_length_b	29.985000
_cell_length_c	10.414600
_cell_angle_alpha	90.000000
_cell_angle_beta	90.000000
_cell_angle_gamma	90.000000
_symmetry_Int_Tables_number 1

loop_
_symmetry_equiv_pos_as_xyz
'x,y,z'

loop_
_atom_site_label
_atom_site_type_symbol
_atom_site_fract_x
_atom_site_fract_y
_atom_site_fract_z
C11	C1	0.420870	0.559300	0.060300
C21	C2	0.380620	0.597770	0.098100
C31	C3	0.358450	0.600860	0.222200
H11	H1	0.367300	0.578500	0.281300
C41	C4	0.323210	0.636930	0.258900
H21	H2	0.308000	0.638400	0.342100
C51	C5	0.310440	0.670790	0.173100
C61	C6	0.366870	0.631140	0.011300
H31	H3	0.380600	0.629100	0.927000
C71	C7	0.332710	0.667730	0.049400
H41	H4	0.324700	0.690500	0.991000
C81	C8	0.276680	0.711420	0.213400
O11	O1	0.436050	0.532630	0.146360
O21	O2	0.436660	0.557300	0.944320
C91	C9	0.920870	0.059300	0.560300
C101	C10	0.880620	0.097770	0.598100
C111	C11	0.858450	0.100860	0.722200
H51	H5	0.867300	0.078500	0.781300
C121	C12	0.823210	0.136930	0.758900
H61	H6	0.808000	0.138400	0.842100
C131	C13	0.810440	0.170790	0.673100
C141	C14	0.866870	0.131140	0.511300
H71	H7	0.880600	0.129100	0.427000
C151	C15	0.832710	0.167730	0.549400
H81	H8	0.824700	0.190500	0.491000
C161	C16	0.776680	0.211420	0.713400
O31	O3	0.936050	0.032630	0.646360
O41	O4	0.936660	0.057300	0.444320
C171	C17	0.579130	0.940700	0.060300
C181	C18	0.619380	0.902230	0.098100
C191	C19	0.641550	0.899140	0.222200
H91	H9	0.632700	0.921500	0.281300
C201	C20	0.676790	0.863070	0.258900
H101	H10	0.692000	0.861600	0.342100
C211	C21	0.689560	0.829210	0.173100
C221	C22	0.633130	0.868860	0.011300
H111	H11	0.619400	0.870900	0.927000
C231	C23	0.667290	0.832270	0.049400
H121	H12	0.675300	0.809500	0.991000
C241	C24	0.723320	0.788580	0.213400
O51	O5	0.563950	0.967370	0.146360
O61	O6	0.563340	0.942700	0.944320
C251	C25	0.079130	0.440700	0.560300
C261	C26	0.119380	0.402230	0.598100
C271	C27	0.141550	0.399140	0.722200
H131	H13	0.132700	0.421500	0.781300
C281	C28	0.176790	0.363070	0.758900
H141	H14	0.192000	0.361600	0.842100
C291	C29	0.189560	0.329210	0.673100
C301	C30	0.133130	0.368860	0.511300
H151	H15	0.119400	0.370900	0.427000
C311	C31	0.167290	0.332270	0.549400
H161	H16	0.175300	0.309500	0.491000
C321	C32	0.223320	0.288580	0.713400
O71	O7	0.063950	0.467370	0.646360
O81	O8	0.063340	0.442700	0.444320
C331	C33	0.579130	0.059300	0.939700
C341	C34	0.619380	0.097770	0.901900
C351	C35	0.641550	0.100860	0.777800
H171	H17	0.632700	0.078500	0.718700
C361	C36	0.676790	0.136930	0.741100
H181	H18	0.692000	0.138400	0.657900
C371	C37	0.689560	0.170790	0.826900
C381	C38	0.633130	0.131140	0.988700
H191	H19	0.619400	0.129100	0.073000
C391	C39	0.667290	0.167730	0.950600
H201	H20	0.675300	0.190500	0.009000
C401	C40	0.723320	0.211420	0.786600
O91	O9	0.563950	0.032630	0.853640
O101	O10	0.563340	0.057300	0.055680
C411	C41	0.079130	0.559300	0.439700
C421	C42	0.119380	0.597770	0.401900
C431	C43	0.141550	0.600860	0.277800
H211	H21	0.132700	0.578500	0.218700
C441	C44	0.176790	0.636930	0.241100
H221	H22	0.192000	0.638400	0.157900
C451	C45	0.189560	0.670790	0.326900
C461	C46	0.133130	0.631140	0.488700
H231	H23	0.119400	0.629100	0.573000
C471	C47	0.167290	0.667730	0.450600
H241	H24	0.175300	0.690500	0.509000
C481	C48	0.223320	0.711420	0.286600
O111	O11	0.063950	0.532630	0.353640
O121	O12	0.063340	0.557300	0.555680
C491	C49	0.420870	0.440700	0.939700
C501	C50	0.380620	0.402230	0.901900
C511	C51	0.358450	0.399140	0.777800
H251	H25	0.367300	0.421500	0.718700
C521	C52	0.323210	0.363070	0.741100
H261	H26	0.308000	0.361600	0.657900
C531	C53	0.310440	0.329210	0.826900
C541	C54	0.366870	0.368860	0.988700
H271	H27	0.380600	0.370900	0.073000
C551	C55	0.332710	0.332270	0.950600
H281	H28	0.324700	0.309500	0.009000
C561	C56	0.276680	0.288580	0.786600
O131	O13	0.436050	0.467370	0.853640
O141	O14	0.436660	0.442700	0.055680
C571	C57	0.920870	0.940700	0.439700
C581	C58	0.880620	0.902230	0.401900
C591	C59	0.858450	0.899140	0.277800
H291	H29	0.867300	0.921500	0.218700
C601	C60	0.823210	0.863070	0.241100
H301	H30	0.808000	0.861600	0.157900
C611	C61	0.810440	0.829210	0.326900
C621	C62	0.866870	0.868860	0.488700
H311	H31	0.880600	0.870900	0.573000
C631	C63	0.832710	0.832270	0.450600
H321	H32	0.824700	0.809500	0.509000
C641	C64	0.776680	0.788580	0.286600
O151	O15	0.936050	0.967370	0.353640
O161	O16	0.936660	0.942700	0.555680
C651	C65	0.579130	0.440700	0.939700
C661	C66	0.619380	0.402230	0.901900
C671	C67	0.641550	0.399140	0.777800
H331	H33	0.632700	0.421500	0.718700
C681	C68	0.676790	0.363070	0.741100
H341	H34	0.692000	0.361600	0.657900
C691	C69	0.689560	0.329210	0.826900
C701	C70	0.633130	0.368860	0.988700
H351	H35	0.619400	0.370900	0.073000
C711	C71	0.667290	0.332270	0.950600
H361	H36	0.675300	0.309500	0.009000
C721	C72	0.723320	0.288580	0.786600
O171	O17	0.563950	0.467370	0.853640
O181	O18	0.563340	0.442700	0.055680
C731	C73	0.079130	0.940700	0.439700
C741	C74	0.119380	0.902230	0.401900
C751	C75	0.141550	0.899140	0.277800
H371	H37	0.132700	0.921500	0.218700
C761	C76	0.176790	0.863070	0.241100
H381	H38	0.192000	0.861600	0.157900
C771	C77	0.189560	0.829210	0.326900
C781	C78	0.133130	0.868860	0.488700
H391	H39	0.119400	0.870900	0.573000
C791	C79	0.167290	0.832270	0.450600
H401	H40	0.175300	0.809500	0.509000
C801	C80	0.223320	0.788580	0.286600
O191	O19	0.063950	0.967370	0.353640
O201	O20	0.063340	0.942700	0.555680
C811	C81	0.420870	0.059300	0.939700
C821	C82	0.380620	0.097770	0.901900
C831	C83	0.358450	0.100860	0.777800
H411	H41	0.367300	0.078500	0.718700
C841	C84	0.323210	0.136930	0.741100
H421	H42	0.308000	0.138400	0.657900
C851	C85	0.310440	0.170790	0.826900
C861	C86	0.366870	0.131140	0.988700
H431	H43	0.380600	0.129100	0.073000
C871	C87	0.332710	0.167730	0.950600
H441	H44	0.324700	0.190500	0.009000
C881	C88	0.276680	0.211420	0.786600
O211	O21	0.436050	0.032630	0.853640
O221	O22	0.436660	0.057300	0.055680
C891	C89	0.920870	0.559300	0.439700
C901	C90	0.880620	0.597770	0.401900
C911	C91	0.858450	0.600860	0.277800
H451	H45	0.867300	0.578500	0.218700
C921	C92	0.823210	0.636930	0.241100
H461	H46	0.808000	0.638400	0.157900
C931	C93	0.810440	0.670790	0.326900
C941	C94	0.866870	0.631140	0.488700
H471	H47	0.880600	0.629100	0.573000
C951	C95	0.832710	0.667730	0.450600
H481	H48	0.824700	0.690500	0.509000
C961	C96	0.776680	0.711420	0.286600
O231	O23	0.936050	0.532630	0.353640
O241	O24	0.936660	0.557300	0.555680
C971	C97	0.420870	0.940700	0.060300
C981	C98	0.380620	0.902230	0.098100
C991	C99	0.358450	0.899140	0.222200
H491	H49	0.367300	0.921500	0.281300
C1001	C100	0.323210	0.863070	0.258900
H501	H50	0.308000	0.861600	0.342100
C1011	C101	0.310440	0.829210	0.173100
C1021	C102	0.366870	0.868860	0.011300
H511	H51	0.380600	0.870900	0.927000
C1031	C103	0.332710	0.832270	0.049400
H521	H52	0.324700	0.809500	0.991000
C1041	C104	0.276680	0.788580	0.213400
O251	O25	0.436050	0.967370	0.146360
O261	O26	0.436660	0.942700	0.944320
C1051	C105	0.920870	0.440700	0.560300
C1061	C106	0.880620	0.402230	0.598100
C1071	C107	0.858450	0.399140	0.722200
H531	H53	0.867300	0.421500	0.781300
C1081	C108	0.823210	0.363070	0.758900
H541	H54	0.808000	0.361600	0.842100
C1091	C109	0.810440	0.329210	0.673100
C1101	C110	0.866870	0.368860	0.511300
H551	H55	0.880600	0.370900	0.427000
C1111	C111	0.832710	0.332270	0.549400
H561	H56	0.824700	0.309500	0.491000
C1121	C112	0.776680	0.288580	0.713400
O271	O27	0.936050	0.467370	0.646360
O281	O28	0.936660	0.442700	0.444320
C1131	C113	0.579130	0.559300	0.060300
C1141	C114	0.619380	0.597770	0.098100
C1151	C115	0.641550	0.600860	0.222200
H571	H57	0.632700	0.578500	0.281300
C1161	C116	0.676790	0.636930	0.258900
H581	H58	0.692000	0.638400	0.342100
C1171	C117	0.689560	0.670790	0.173100
C1181	C118	0.633130	0.631140	0.011300
H591	H59	0.619400	0.629100	0.927000
C1191	C119	0.667290	0.667730	0.049400
H601	H60	0.675300	0.690500	0.991000
C1201	C120	0.723320	0.711420	0.213400
O291	O29	0.563950	0.532630	0.146360
O301	O30	0.563340	0.557300	0.944320
C1211	C121	0.079130	0.059300	0.560300
C1221	C122	0.119380	0.097770	0.598100
C1231	C123	0.141550	0.100860	0.722200
H611	H61	0.132700	0.078500	0.781300
C1241	C124	0.176790	0.136930	0.758900
H621	H62	0.192000	0.138400	0.842100
C1251	C125	0.189560	0.170790	0.673100
C1261	C126	0.133130	0.131140	0.511300
H631	H63	0.119400	0.129100	0.427000
C1271	C127	0.167290	0.167730	0.549400
H641	H64	0.175300	0.190500	0.491000
C1281	C128	0.223320	0.211420	0.713400
O311	O31	0.063950	0.032630	0.646360
O321	O32	0.063340	0.057300	0.444320
Zn11	Zn1	0.500000	0.484080	0.133900
Zn21	Zn2	0.000000	0.984080	0.633900
Zn31	Zn3	0.500000	0.015920	0.133900
Zn41	Zn4	0.000000	0.515920	0.633900
Zn51	Zn5	0.500000	0.984080	0.866100
Zn61	Zn6	0.000000	0.484080	0.366100
Zn71	Zn7	0.500000	0.515920	0.866100
Zn81	Zn8	0.000000	0.015920	0.366100
N11	N1	0.301930	0.750000	0.175300
N21	N2	0.801930	0.250000	0.675300
N31	N3	0.698070	0.750000	0.175300
N41	N4	0.198070	0.250000	0.675300
N51	N5	0.698070	0.250000	0.824700
N61	N6	0.198070	0.750000	0.324700
N71	N7	0.301930	0.250000	0.824700
N81	N8	0.801930	0.750000	0.324700
