data_NAYPIM_clean_PM
_symmetry_space_group_name_H-M	'P1'
_cell_length_a	9.118000
_cell_length_b	9.161000
_cell_length_c	9.335000
_cell_angle_alpha	85.980000
_cell_angle_beta	77.450000
_cell_angle_gamma	89.010000
_symmetry_Int_Tables_number 1

loop_
_symmetry_equiv_pos_as_xyz
'x,y,z'

loop_
_atom_site_label
_atom_site_type_symbol
_atom_site_fract_x
_atom_site_fract_y
_atom_site_fract_z
P11	P1	0.381200	0.185600	0.900400
P21	P2	0.830000	0.354500	0.856700
P31	P3	0.627600	0.379300	0.323800
F11	F1	0.987100	0.392400	0.082200
O11	O1	0.774400	0.202200	0.927600
O21	O2	0.457500	0.188400	0.030600
O31	O3	0.352900	0.026900	0.873500
O41	O4	0.486800	0.249400	0.761100
O51	O5	0.233900	0.264800	0.930600
O61	O6	0.764700	0.469200	0.962200
O71	O7	0.774900	0.378400	0.712100
O81	O8	0.001100	0.355400	0.811900
O91	O9	0.746000	0.491900	0.258300
O101	O10	0.647600	0.324600	0.476900
O111	O11	0.637300	0.244900	0.234800
O121	O12	0.470700	0.446900	0.338700
Al11	Al1	0.629600	0.157200	0.079100
Al21	Al2	0.134500	0.437700	0.914800
Al31	Al3	0.606200	0.378600	0.656000
P41	P4	0.618800	0.814400	0.099600
P51	P5	0.170000	0.645500	0.143300
P61	P6	0.372400	0.620700	0.676200
F21	F2	0.012900	0.607600	0.917800
O131	O13	0.225600	0.797800	0.072400
O141	O14	0.542500	0.811600	0.969400
O151	O15	0.647100	0.973100	0.126500
O161	O16	0.513200	0.750600	0.238900
O171	O17	0.766100	0.735200	0.069400
O181	O18	0.235300	0.530800	0.037800
O191	O19	0.225100	0.621600	0.287900
O201	O20	0.998900	0.644600	0.188100
O211	O21	0.254000	0.508100	0.741700
O221	O22	0.352400	0.675400	0.523100
O231	O23	0.362700	0.755100	0.765200
O241	O24	0.529300	0.553100	0.661300
Al41	Al4	0.370400	0.842800	0.920900
Al51	Al5	0.865500	0.562300	0.085200
Al61	Al6	0.393800	0.621400	0.344000
