data_NAYZUK_SL_PM
_symmetry_space_group_name_H-M	'P1'
_cell_length_a	21.893000
_cell_length_b	21.893000
_cell_length_c	7.181200
_cell_angle_alpha	90.000000
_cell_angle_beta	90.000000
_cell_angle_gamma	90.000000
_symmetry_Int_Tables_number 1

loop_
_symmetry_equiv_pos_as_xyz
'x,y,z'

loop_
_atom_site_label
_atom_site_type_symbol
_atom_site_fract_x
_atom_site_fract_y
_atom_site_fract_z
H11	H1	0.733600	0.053300	0.511500
H21	H2	0.835500	0.104800	0.958800
H31	H3	0.867300	0.052700	0.694400
C41	C4	0.762400	0.131700	0.260600
C51	C5	0.771400	0.064300	0.255500
C61	C6	0.748700	0.032100	0.409100
C71	C7	0.798800	0.033500	0.103800
C81	C8	0.829900	0.062700	0.953200
C91	C9	0.852500	0.031200	0.796700
O101	O10	0.757700	0.157400	0.405400
O111	O11	0.759500	0.157400	0.103400
H121	H12	0.816500	0.683500	0.254500
H131	H13	0.266400	0.946700	0.511500
H141	H14	0.164500	0.895200	0.958800
H151	H15	0.132700	0.947300	0.694400
C161	C16	0.237600	0.868300	0.260600
C171	C17	0.228600	0.935700	0.255500
C181	C18	0.251300	0.967900	0.409100
C191	C19	0.201200	0.966500	0.103800
C201	C20	0.170100	0.937300	0.953200
C211	C21	0.147500	0.968800	0.796700
O221	O22	0.242300	0.842600	0.405400
O231	O23	0.240500	0.842600	0.103400
H251	H25	0.446700	0.233600	0.511500
H261	H26	0.395200	0.335500	0.958800
H271	H27	0.447300	0.367300	0.694400
C281	C28	0.368300	0.262400	0.260600
C291	C29	0.435700	0.271400	0.255500
C301	C30	0.467900	0.248700	0.409100
C311	C31	0.466500	0.298800	0.103800
C321	C32	0.437300	0.329900	0.953200
C331	C33	0.468800	0.352500	0.796700
O341	O34	0.342600	0.257700	0.405400
O351	O35	0.342600	0.259500	0.103400
H361	H36	0.816500	0.316500	0.254500
H371	H37	0.553300	0.766400	0.511500
H381	H38	0.604800	0.664500	0.958800
H391	H39	0.552700	0.632700	0.694400
C401	C40	0.631700	0.737600	0.260600
C411	C41	0.564300	0.728600	0.255500
C421	C42	0.532100	0.751300	0.409100
C431	C43	0.533500	0.701200	0.103800
C441	C44	0.562700	0.670100	0.953200
C451	C45	0.531200	0.647500	0.796700
O461	O46	0.657400	0.742300	0.405400
O471	O47	0.657400	0.740500	0.103400
H481	H48	0.183500	0.683500	0.254500
H491	H49	0.766400	0.553300	0.488500
H501	H50	0.664500	0.604800	0.041200
H511	H51	0.632700	0.552700	0.305600
C521	C52	0.737600	0.631700	0.739400
C531	C53	0.728600	0.564300	0.744500
C541	C54	0.751300	0.532100	0.590900
C551	C55	0.701200	0.533500	0.896200
C561	C56	0.670100	0.562700	0.046800
C571	C57	0.647500	0.531200	0.203300
O581	O58	0.742300	0.657400	0.594600
O591	O59	0.740500	0.657400	0.896600
H611	H61	0.233600	0.446700	0.488500
H621	H62	0.335500	0.395200	0.041200
H631	H63	0.367300	0.447300	0.305600
C641	C64	0.262400	0.368300	0.739400
C651	C65	0.271400	0.435700	0.744500
C661	C66	0.248700	0.467900	0.590900
C671	C67	0.298800	0.466500	0.896200
C681	C68	0.329900	0.437300	0.046800
C691	C69	0.352500	0.468800	0.203300
O701	O70	0.257700	0.342600	0.594600
O711	O71	0.259500	0.342600	0.896600
H731	H73	0.053300	0.733600	0.488500
H741	H74	0.104800	0.835500	0.041200
H751	H75	0.052700	0.867300	0.305600
C761	C76	0.131700	0.762400	0.739400
C771	C77	0.064300	0.771400	0.744500
C781	C78	0.032100	0.748700	0.590900
C791	C79	0.033500	0.798800	0.896200
C801	C80	0.062700	0.829900	0.046800
C811	C81	0.031200	0.852500	0.203300
O821	O82	0.157400	0.757700	0.594600
O831	O83	0.157400	0.759500	0.896600
H841	H84	0.683500	0.816500	0.745500
H851	H85	0.946700	0.266400	0.488500
H861	H86	0.895200	0.164500	0.041200
H871	H87	0.947300	0.132700	0.305600
C881	C88	0.868300	0.237600	0.739400
C891	C89	0.935700	0.228600	0.744500
C901	C90	0.967900	0.251300	0.590900
C911	C91	0.966500	0.201200	0.896200
C921	C92	0.937300	0.170100	0.046800
C931	C93	0.968800	0.147500	0.203300
O941	O94	0.842600	0.242300	0.594600
O951	O95	0.842600	0.240500	0.896600
H961	H96	0.316500	0.183500	0.745500
H971	H97	0.766400	0.446700	0.488500
H981	H98	0.664500	0.395200	0.041200
H991	H99	0.632700	0.447300	0.305600
C1001	C100	0.737600	0.368300	0.739400
C1011	C101	0.728600	0.435700	0.744500
C1021	C102	0.751300	0.467900	0.590900
C1031	C103	0.701200	0.466500	0.896200
C1041	C104	0.670100	0.437300	0.046800
C1051	C105	0.647500	0.468800	0.203300
O1061	O106	0.742300	0.342600	0.594600
O1071	O107	0.740500	0.342600	0.896600
H1091	H109	0.233600	0.553300	0.488500
H1101	H110	0.335500	0.604800	0.041200
H1111	H111	0.367300	0.552700	0.305600
C1121	C112	0.262400	0.631700	0.739400
C1131	C113	0.271400	0.564300	0.744500
C1141	C114	0.248700	0.532100	0.590900
C1151	C115	0.298800	0.533500	0.896200
C1161	C116	0.329900	0.562700	0.046800
C1171	C117	0.352500	0.531200	0.203300
O1181	O118	0.257700	0.657400	0.594600
O1191	O119	0.259500	0.657400	0.896600
H1211	H121	0.053300	0.266400	0.488500
H1221	H122	0.104800	0.164500	0.041200
H1231	H123	0.052700	0.132700	0.305600
C1241	C124	0.131700	0.237600	0.739400
C1251	C125	0.064300	0.228600	0.744500
C1261	C126	0.032100	0.251300	0.590900
C1271	C127	0.033500	0.201200	0.896200
C1281	C128	0.062700	0.170100	0.046800
C1291	C129	0.031200	0.147500	0.203300
O1301	O130	0.157400	0.242300	0.594600
O1311	O131	0.157400	0.240500	0.896600
H1321	H132	0.683500	0.183500	0.745500
H1331	H133	0.946700	0.733600	0.488500
H1341	H134	0.895200	0.835500	0.041200
H1351	H135	0.947300	0.867300	0.305600
C1361	C136	0.868300	0.762400	0.739400
C1371	C137	0.935700	0.771400	0.744500
C1381	C138	0.967900	0.748700	0.590900
C1391	C139	0.966500	0.798800	0.896200
C1401	C140	0.937300	0.829900	0.046800
C1411	C141	0.968800	0.852500	0.203300
O1421	O142	0.842600	0.757700	0.594600
O1431	O143	0.842600	0.759500	0.896600
H1441	H144	0.316500	0.816500	0.745500
H1451	H145	0.733600	0.946700	0.511500
H1461	H146	0.835500	0.895200	0.958800
H1471	H147	0.867300	0.947300	0.694400
C1481	C148	0.762400	0.868300	0.260600
C1491	C149	0.771400	0.935700	0.255500
C1501	C150	0.748700	0.967900	0.409100
C1511	C151	0.798800	0.966500	0.103800
C1521	C152	0.829900	0.937300	0.953200
C1531	C153	0.852500	0.968800	0.796700
O1541	O154	0.757700	0.842600	0.405400
O1551	O155	0.759500	0.842600	0.103400
H1571	H157	0.266400	0.053300	0.511500
H1581	H158	0.164500	0.104800	0.958800
H1591	H159	0.132700	0.052700	0.694400
C1601	C160	0.237600	0.131700	0.260600
C1611	C161	0.228600	0.064300	0.255500
C1621	C162	0.251300	0.032100	0.409100
C1631	C163	0.201200	0.033500	0.103800
C1641	C164	0.170100	0.062700	0.953200
C1651	C165	0.147500	0.031200	0.796700
O1661	O166	0.242300	0.157400	0.405400
O1671	O167	0.240500	0.157400	0.103400
H1691	H169	0.446700	0.766400	0.511500
H1701	H170	0.395200	0.664500	0.958800
H1711	H171	0.447300	0.632700	0.694400
C1721	C172	0.368300	0.737600	0.260600
C1731	C173	0.435700	0.728600	0.255500
C1741	C174	0.467900	0.751300	0.409100
C1751	C175	0.466500	0.701200	0.103800
C1761	C176	0.437300	0.670100	0.953200
C1771	C177	0.468800	0.647500	0.796700
O1781	O178	0.342600	0.742300	0.405400
O1791	O179	0.342600	0.740500	0.103400
H1811	H181	0.553300	0.233600	0.511500
H1821	H182	0.604800	0.335500	0.958800
H1831	H183	0.552700	0.367300	0.694400
C1841	C184	0.631700	0.262400	0.260600
C1851	C185	0.564300	0.271400	0.255500
C1861	C186	0.532100	0.248700	0.409100
C1871	C187	0.533500	0.298800	0.103800
C1881	C188	0.562700	0.329900	0.953200
C1891	C189	0.531200	0.352500	0.796700
O1901	O190	0.657400	0.257700	0.405400
O1911	O191	0.657400	0.259500	0.103400
H1921	H192	0.183500	0.316500	0.254500
In1931	In193	0.750000	0.250000	0.000000
In1941	In194	0.250000	0.750000	0.000000
In1951	In195	0.250000	0.250000	0.000000
In1961	In196	0.750000	0.750000	0.000000
In1971	In197	0.750000	0.250000	0.500000
In1981	In198	0.250000	0.750000	0.500000
In1991	In199	0.250000	0.250000	0.500000
In2001	In200	0.750000	0.750000	0.500000
O2011	O201	0.784200	0.284200	0.254500
O2021	O202	0.215800	0.715800	0.254500
O2031	O203	0.215800	0.284200	0.254500
O2041	O204	0.784200	0.715800	0.254500
O2051	O205	0.715800	0.784200	0.745500
O2061	O206	0.284200	0.215800	0.745500
O2071	O207	0.284200	0.784200	0.745500
O2081	O208	0.715800	0.215800	0.745500
