data_nchem_PM
_symmetry_space_group_name_H-M	'P1'
_cell_length_a	21.245900
_cell_length_b	21.245900
_cell_length_c	21.245900
_cell_angle_alpha	102.033000
_cell_angle_beta	102.033000
_cell_angle_gamma	102.033000
_symmetry_Int_Tables_number 1

loop_
_symmetry_equiv_pos_as_xyz
'x,y,z'

loop_
_atom_site_label
_atom_site_type_symbol
_atom_site_fract_x
_atom_site_fract_y
_atom_site_fract_z
Zn11	Zn1	0.670180	0.760660	0.768720
Zn21	Zn2	0.768720	0.670180	0.760660
Zn31	Zn3	0.329820	0.231280	0.239340
Zn41	Zn4	0.360420	0.360420	0.360420
Zn51	Zn5	0.760660	0.768720	0.670180
Zn61	Zn6	0.239340	0.329820	0.231280
Zn71	Zn7	0.231280	0.239340	0.329820
Zn81	Zn8	0.639580	0.639580	0.639580
H11	H1	0.403600	0.888000	0.369000
H21	H2	0.425000	0.616000	0.581900
H31	H3	0.519800	0.242900	0.241200
H41	H4	0.593800	0.628600	0.221100
H51	H5	0.581900	0.425000	0.616000
H61	H6	0.231000	0.952500	0.385900
H71	H7	0.142500	0.835200	0.693500
H81	H8	0.630900	0.254600	0.237500
H91	H9	0.745400	0.369100	0.762500
H101	H10	0.369100	0.762500	0.745400
H111	H11	0.384000	0.575000	0.418100
H121	H12	0.596400	0.631000	0.112000
H131	H13	0.679800	0.347800	0.057300
H141	H14	0.306500	0.164800	0.857500
H151	H15	0.385900	0.231000	0.952500
H161	H16	0.952500	0.385900	0.231000
H171	H17	0.616000	0.581900	0.425000
H181	H18	0.619600	0.570100	0.313800
H191	H19	0.234400	0.054600	0.808800
H201	H20	0.808800	0.234400	0.054600
H211	H21	0.950100	0.287600	0.375200
H221	H22	0.628600	0.221100	0.593800
H231	H23	0.241200	0.519800	0.242900
H241	H24	0.680500	0.320300	0.831800
H251	H25	0.835200	0.693500	0.142500
H261	H26	0.320200	0.942700	0.652200
H271	H27	0.347800	0.057300	0.679800
H281	H28	0.942700	0.652200	0.320200
H291	H29	0.945400	0.765600	0.191200
H301	H30	0.429900	0.380400	0.686200
H311	H31	0.888000	0.369000	0.403600
H321	H32	0.614100	0.047500	0.769000
H331	H33	0.369000	0.403600	0.888000
H341	H34	0.191200	0.945400	0.765600
H351	H35	0.633200	0.944300	0.776300
H361	H36	0.375200	0.950100	0.287600
H371	H37	0.221100	0.593800	0.628600
H381	H38	0.570100	0.313800	0.619600
H391	H39	0.366800	0.223700	0.055700
H401	H40	0.946600	0.632100	0.731300
H411	H41	0.406200	0.778900	0.371400
H421	H42	0.164800	0.857500	0.306500
H431	H43	0.223700	0.055700	0.366800
H441	H44	0.944300	0.776300	0.633200
H451	H45	0.237500	0.630900	0.254600
H461	H46	0.268700	0.367900	0.053400
H471	H47	0.418100	0.384000	0.575000
H481	H48	0.254600	0.237500	0.630900
H491	H49	0.575000	0.418100	0.384000
H501	H50	0.112000	0.596400	0.631000
H511	H51	0.168200	0.679700	0.319500
H521	H52	0.380400	0.686200	0.429900
H531	H53	0.857500	0.306500	0.164800
H541	H54	0.679700	0.319500	0.168200
H551	H55	0.049900	0.624800	0.712400
H561	H56	0.242900	0.241200	0.519800
H571	H57	0.632100	0.731300	0.946600
H581	H58	0.831800	0.680500	0.320300
H591	H59	0.631000	0.112000	0.596400
H601	H60	0.765600	0.191200	0.945400
H611	H61	0.480200	0.758800	0.757100
H621	H62	0.371400	0.406200	0.778900
H631	H63	0.762500	0.745400	0.369100
H641	H64	0.053400	0.268700	0.367900
H651	H65	0.731300	0.946600	0.632100
H661	H66	0.054600	0.808800	0.234400
H671	H67	0.686200	0.429900	0.380400
H681	H68	0.776300	0.633200	0.944300
H691	H69	0.320300	0.831800	0.680500
H701	H70	0.319500	0.168200	0.679700
H711	H71	0.057300	0.679800	0.347800
H721	H72	0.758800	0.757100	0.480200
H731	H73	0.778900	0.371400	0.406200
H741	H74	0.757100	0.480200	0.758800
H751	H75	0.693500	0.142500	0.835200
H761	H76	0.047500	0.769000	0.614100
H771	H77	0.652200	0.320200	0.942700
H781	H78	0.624800	0.712400	0.049900
H791	H79	0.313800	0.619600	0.570100
H801	H80	0.287600	0.375200	0.950100
H811	H81	0.769000	0.614100	0.047500
H821	H82	0.055700	0.366800	0.223700
H831	H83	0.367900	0.053400	0.268700
H841	H84	0.712400	0.049900	0.624800
C11	C1	0.244600	0.755400	0.671200
C21	C2	0.683100	0.300800	0.965700
C31	C3	0.854300	0.358800	0.363200
C41	C4	0.693200	0.237700	0.856700
C51	C5	0.313000	0.537000	0.329400
C61	C6	0.756900	0.672700	0.179800
C71	C7	0.741300	0.638000	0.027000
C81	C8	0.686100	0.681900	0.535700
C91	C9	0.318100	0.313900	0.464300
C101	C10	0.670600	0.463000	0.687000
C111	C11	0.965700	0.745500	0.649200
C121	C12	0.384900	0.354200	0.586400
C131	C13	0.648000	0.608100	0.347600
C141	C14	0.327300	0.243100	0.820200
C151	C15	0.762300	0.306800	0.143300
C161	C16	0.669000	0.343300	0.308700
C171	C17	0.380500	0.732700	0.712200
C181	C18	0.649200	0.965700	0.745500
C191	C19	0.755400	0.671200	0.244600
C201	C20	0.699600	0.867700	0.706100
C211	C21	0.350800	0.254500	0.034300
C221	C22	0.672700	0.179800	0.756900
C231	C23	0.707600	0.967100	0.659900
C241	C24	0.328800	0.244600	0.755400
C251	C25	0.347600	0.648000	0.608100
C261	C26	0.243100	0.820200	0.327300
C271	C27	0.413600	0.645800	0.615100
C281	C28	0.028400	0.655500	0.696300
C291	C29	0.058400	0.696300	0.661500
C301	C30	0.965700	0.683100	0.300800
C311	C31	0.935800	0.704900	0.684000
C321	C32	0.671200	0.244600	0.755400
C331	C33	0.745500	0.649200	0.965700
C341	C34	0.260000	0.694600	0.654800
C351	C35	0.684000	0.935800	0.704900
C361	C36	0.586400	0.384900	0.354200
C371	C37	0.130400	0.697700	0.657700
C381	C38	0.740000	0.345200	0.305400
C391	C39	0.967100	0.659900	0.707600
C401	C40	0.343300	0.308700	0.669000
C411	C41	0.145700	0.636800	0.641200
C421	C42	0.032000	0.772400	0.247800
C431	C43	0.446500	0.730500	0.719200
C441	C44	0.391900	0.352000	0.652400
C451	C45	0.313900	0.464300	0.318100
C461	C46	0.143300	0.762300	0.306800
C471	C47	0.656700	0.331000	0.691300
C481	C48	0.338500	0.303700	0.941600
C491	C49	0.657700	0.130400	0.697700
C501	C50	0.741800	0.289700	0.069900
C511	C51	0.305400	0.740000	0.345200
C521	C52	0.930100	0.710300	0.258200
C531	C53	0.254500	0.034300	0.350800
C541	C54	0.706100	0.699600	0.867700
C551	C55	0.179800	0.756900	0.672700
C561	C56	0.363200	0.854300	0.358800
C571	C57	0.269500	0.553500	0.280800
C581	C58	0.258700	0.973000	0.362000
C591	C59	0.362000	0.258700	0.973000
C601	C60	0.535700	0.686100	0.681900
C611	C61	0.360200	0.364600	0.789400
C621	C62	0.293900	0.132300	0.300400
C631	C63	0.537000	0.329400	0.313000
C641	C64	0.941600	0.338500	0.303700
C651	C65	0.247800	0.032000	0.772400
C661	C66	0.608100	0.347600	0.648000
C671	C67	0.694600	0.654800	0.260000
C681	C68	0.132300	0.300400	0.293900
C691	C69	0.303700	0.941600	0.338500
C701	C70	0.027000	0.741300	0.638000
C711	C71	0.300400	0.293900	0.132300
C721	C72	0.354200	0.586400	0.384900
C731	C73	0.696300	0.028400	0.655500
C741	C74	0.306800	0.143300	0.762300
C751	C75	0.280800	0.269500	0.553500
C761	C76	0.034300	0.350800	0.254500
C771	C77	0.687000	0.670600	0.463000
C781	C78	0.464300	0.318100	0.313900
C791	C79	0.730500	0.719200	0.446500
C801	C80	0.645800	0.615100	0.413600
C811	C81	0.636800	0.641200	0.145700
C821	C82	0.210600	0.635400	0.639800
C831	C83	0.615100	0.413600	0.645800
C841	C84	0.968000	0.752200	0.227600
C851	C85	0.292400	0.340100	0.032900
C861	C86	0.227600	0.968000	0.752200
C871	C87	0.661500	0.058400	0.696300
C881	C88	0.654800	0.260000	0.694600
C891	C89	0.258200	0.930100	0.710300
C901	C90	0.237700	0.856700	0.693200
C911	C91	0.032900	0.292400	0.340100
C921	C92	0.308700	0.669000	0.343300
C931	C93	0.869600	0.342300	0.302300
C941	C94	0.691300	0.656700	0.331000
C951	C95	0.303700	0.344500	0.971600
C961	C96	0.641200	0.145700	0.636800
C971	C97	0.696300	0.661500	0.058400
C981	C98	0.344500	0.971600	0.303700
C991	C99	0.329400	0.313000	0.537000
C1001	C100	0.732700	0.712200	0.380500
C1011	C101	0.697700	0.657700	0.130400
C1021	C102	0.553500	0.280800	0.269500
C1031	C103	0.619500	0.287800	0.267300
C1041	C104	0.704900	0.684000	0.935800
C1051	C105	0.463000	0.687000	0.670600
C1061	C106	0.856700	0.693200	0.237700
C1071	C107	0.331000	0.691300	0.656700
C1081	C108	0.300800	0.965700	0.683100
C1091	C109	0.710300	0.258200	0.930100
C1101	C110	0.638000	0.027000	0.741300
C1111	C111	0.973000	0.362000	0.258700
C1121	C112	0.364600	0.789400	0.360200
C1131	C113	0.655500	0.696300	0.028400
C1141	C114	0.789400	0.360200	0.364600
C1151	C115	0.639800	0.210600	0.635400
C1161	C116	0.064200	0.316000	0.295100
C1171	C117	0.345200	0.305400	0.740000
C1181	C118	0.635400	0.639800	0.210600
C1191	C119	0.340100	0.032900	0.292400
C1201	C120	0.820200	0.327300	0.243100
C1211	C121	0.772400	0.247800	0.032000
C1221	C122	0.699200	0.316900	0.034300
C1231	C123	0.752200	0.227600	0.968000
C1241	C124	0.719200	0.446500	0.730500
C1251	C125	0.295100	0.064200	0.316000
C1261	C126	0.652400	0.391900	0.352000
C1271	C127	0.352000	0.652400	0.391900
C1281	C128	0.316900	0.034300	0.699200
C1291	C129	0.971600	0.303700	0.344500
C1301	C130	0.867700	0.706100	0.699600
C1311	C131	0.244600	0.755400	0.328800
C1321	C132	0.287800	0.267300	0.619500
C1331	C133	0.712200	0.380500	0.732700
C1341	C134	0.681900	0.535700	0.686100
C1351	C135	0.267300	0.619500	0.287800
C1361	C136	0.034300	0.699200	0.316900
C1371	C137	0.659900	0.707600	0.967100
C1381	C138	0.358800	0.363200	0.854300
C1391	C139	0.069900	0.741800	0.289700
C1401	C140	0.302300	0.869600	0.342300
C1411	C141	0.289700	0.069900	0.741800
C1421	C142	0.316000	0.295100	0.064200
C1431	C143	0.755400	0.328800	0.244600
C1441	C144	0.342300	0.302300	0.869600
N11	N1	0.179400	0.822700	0.312000
N21	N2	0.177300	0.820600	0.688000
N31	N3	0.681400	0.278500	0.818100
N41	N4	0.312000	0.179400	0.822700
N51	N5	0.688000	0.177300	0.820600
N61	N6	0.721500	0.318600	0.181900
N71	N7	0.278500	0.818100	0.681400
N81	N8	0.820600	0.688000	0.177300
N91	N9	0.822700	0.312000	0.179400
N101	N10	0.318600	0.181900	0.721500
N111	N11	0.181900	0.721500	0.318600
N121	N12	0.818100	0.681400	0.278500
O11	O1	0.755800	0.676600	0.847900
O21	O2	0.426700	0.266400	0.279600
O31	O3	0.279600	0.426700	0.266400
O41	O4	0.450600	0.365100	0.349900
O51	O5	0.259000	0.322300	0.148900
O61	O6	0.650100	0.634900	0.549400
O71	O7	0.720400	0.733600	0.573300
O81	O8	0.148900	0.259000	0.322300
O91	O9	0.349900	0.450600	0.365100
O101	O10	0.549400	0.650100	0.634900
O111	O11	0.677700	0.741000	0.851100
O121	O12	0.573300	0.720400	0.733600
O131	O13	0.733600	0.573300	0.720400
O141	O14	0.365100	0.349900	0.450600
O151	O15	0.847900	0.755800	0.676600
O161	O16	0.152100	0.323400	0.244200
O171	O17	0.323400	0.244200	0.152100
O181	O18	0.634900	0.549400	0.650100
O191	O19	0.676600	0.847900	0.755800
O201	O20	0.741000	0.851100	0.677700
O211	O21	0.707770	0.707770	0.707770
O221	O22	0.244200	0.152100	0.323400
O231	O23	0.292230	0.292230	0.292230
O241	O24	0.266400	0.279600	0.426700
O251	O25	0.322300	0.148900	0.259000
O261	O26	0.851100	0.677700	0.741000
