data_NDAIAH_clean_PM
_symmetry_space_group_name_H-M	'P1'
_cell_length_a	8.730000
_cell_length_b	18.330000
_cell_length_c	9.310000
_cell_angle_alpha	90.000000
_cell_angle_beta	105.800000
_cell_angle_gamma	90.000000
_symmetry_Int_Tables_number 1

loop_
_symmetry_equiv_pos_as_xyz
'x,y,z'

loop_
_atom_site_label
_atom_site_type_symbol
_atom_site_fract_x
_atom_site_fract_y
_atom_site_fract_z
C11	C1	0.753000	0.044000	0.441000
C21	C2	0.573000	0.081000	0.409000
C31	C3	0.297000	0.062000	0.081000
C41	C4	0.487000	0.088000	0.116000
C51	C5	0.151000	0.881000	0.050000
C61	C6	0.219000	0.819000	0.177000
Nd11	Nd1	0.008000	0.976000	0.782000
N11	N1	0.534000	0.128000	0.268000
O11	O1	0.773000	0.009000	0.566000
O21	O2	0.822000	0.050000	0.358000
O31	O3	0.256000	0.033000	0.950000
O41	O4	0.227000	0.078000	0.167000
O51	O5	0.086000	0.936000	0.083000
O61	O6	0.170000	0.870000	0.929000
C71	C7	0.247000	0.544000	0.559000
C81	C8	0.427000	0.581000	0.591000
C91	C9	0.703000	0.562000	0.919000
C101	C10	0.513000	0.588000	0.884000
C111	C11	0.849000	0.381000	0.950000
C121	C12	0.781000	0.319000	0.823000
Nd21	Nd2	0.992000	0.476000	0.218000
N21	N2	0.466000	0.628000	0.732000
O71	O7	0.227000	0.509000	0.434000
O81	O8	0.178000	0.550000	0.642000
O91	O9	0.744000	0.533000	0.050000
O101	O10	0.773000	0.578000	0.833000
O111	O11	0.914000	0.436000	0.917000
O121	O12	0.830000	0.370000	0.071000
C131	C13	0.247000	0.956000	0.559000
C141	C14	0.427000	0.919000	0.591000
C151	C15	0.703000	0.938000	0.919000
C161	C16	0.513000	0.912000	0.884000
C171	C17	0.849000	0.119000	0.950000
C181	C18	0.781000	0.181000	0.823000
Nd31	Nd3	0.992000	0.024000	0.218000
N31	N3	0.466000	0.872000	0.732000
O131	O13	0.227000	0.991000	0.434000
O141	O14	0.178000	0.950000	0.642000
O151	O15	0.744000	0.967000	0.050000
O161	O16	0.773000	0.922000	0.833000
O171	O17	0.914000	0.064000	0.917000
O181	O18	0.830000	0.130000	0.071000
C191	C19	0.753000	0.456000	0.441000
C201	C20	0.573000	0.419000	0.409000
C211	C21	0.297000	0.438000	0.081000
C221	C22	0.487000	0.412000	0.116000
C231	C23	0.151000	0.619000	0.050000
C241	C24	0.219000	0.681000	0.177000
Nd41	Nd4	0.008000	0.524000	0.782000
N41	N4	0.534000	0.372000	0.268000
O191	O19	0.773000	0.491000	0.566000
O201	O20	0.822000	0.450000	0.358000
O211	O21	0.256000	0.467000	0.950000
O221	O22	0.227000	0.422000	0.167000
O231	O23	0.086000	0.564000	0.083000
O241	O24	0.170000	0.630000	0.929000
N51	N5	0.218000	0.750000	0.087000
N61	N6	0.782000	0.250000	0.913000
