data_NEDMEP_clean_PM
_symmetry_space_group_name_H-M	'P1'
_cell_length_a	8.782000
_cell_length_b	14.941700
_cell_length_c	15.494300
_cell_angle_alpha	90.000000
_cell_angle_beta	92.940000
_cell_angle_gamma	90.000000
_symmetry_Int_Tables_number 1

loop_
_symmetry_equiv_pos_as_xyz
'x,y,z'

loop_
_atom_site_label
_atom_site_type_symbol
_atom_site_fract_x
_atom_site_fract_y
_atom_site_fract_z
Zn11	Zn1	0.650330	0.619090	0.010320
P11	P1	0.789900	0.720180	0.850230
P21	P2	0.661270	0.580300	0.583750
O11	O1	0.780600	0.647600	0.916430
O21	O2	0.815000	0.812900	0.884480
O31	O3	0.725000	0.499220	0.540440
O41	O4	0.561300	0.637970	0.524140
O51	O5	0.655000	0.722230	0.783970
O61	O6	0.584500	0.555040	0.666090
H11	H1	0.910000	0.699000	0.807000
H21	H2	0.782000	0.630300	0.607200
Zn21	Zn2	0.150330	0.119090	0.010320
P31	P3	0.289900	0.220180	0.850230
P41	P4	0.161270	0.080300	0.583750
O71	O7	0.280600	0.147600	0.916430
O81	O8	0.315000	0.312900	0.884480
O91	O9	0.225000	0.999220	0.540440
O101	O10	0.061300	0.137970	0.524140
O111	O11	0.155000	0.222230	0.783970
O121	O12	0.084500	0.055040	0.666090
H31	H3	0.410000	0.199000	0.807000
H41	H4	0.282000	0.130300	0.607200
Zn31	Zn3	0.349670	0.619090	0.489680
P51	P5	0.210100	0.720180	0.649770
P61	P6	0.338730	0.580300	0.916250
O131	O13	0.219400	0.647600	0.583570
O141	O14	0.185000	0.812900	0.615520
O151	O15	0.275000	0.499220	0.959560
O161	O16	0.438700	0.637970	0.975860
O171	O17	0.345000	0.722230	0.716030
O181	O18	0.415500	0.555040	0.833910
H51	H5	0.090000	0.699000	0.693000
H61	H6	0.218000	0.630300	0.892800
Zn41	Zn4	0.849670	0.119090	0.489680
P71	P7	0.710100	0.220180	0.649770
P81	P8	0.838730	0.080300	0.916250
O191	O19	0.719400	0.147600	0.583570
O201	O20	0.685000	0.312900	0.615520
O211	O21	0.775000	0.999220	0.959560
O221	O22	0.938700	0.137970	0.975860
O231	O23	0.845000	0.222230	0.716030
O241	O24	0.915500	0.055040	0.833910
H71	H7	0.590000	0.199000	0.693000
H81	H8	0.718000	0.130300	0.892800
Zn51	Zn5	0.349670	0.380910	0.989680
P91	P9	0.210100	0.279820	0.149770
P101	P10	0.338730	0.419700	0.416250
O251	O25	0.219400	0.352400	0.083570
O261	O26	0.185000	0.187100	0.115520
O271	O27	0.275000	0.500780	0.459560
O281	O28	0.438700	0.362030	0.475860
O291	O29	0.345000	0.277770	0.216030
O301	O30	0.415500	0.444960	0.333910
H91	H9	0.090000	0.301000	0.193000
H101	H10	0.218000	0.369700	0.392800
Zn61	Zn6	0.849670	0.880910	0.989680
P111	P11	0.710100	0.779820	0.149770
P121	P12	0.838730	0.919700	0.416250
O311	O31	0.719400	0.852400	0.083570
O321	O32	0.685000	0.687100	0.115520
O331	O33	0.775000	0.000780	0.459560
O341	O34	0.938700	0.862030	0.475860
O351	O35	0.845000	0.777770	0.216030
O361	O36	0.915500	0.944960	0.333910
H111	H11	0.590000	0.801000	0.193000
H121	H12	0.718000	0.869700	0.392800
Zn71	Zn7	0.650330	0.380910	0.510320
P131	P13	0.789900	0.279820	0.350230
P141	P14	0.661270	0.419700	0.083750
O371	O37	0.780600	0.352400	0.416430
O381	O38	0.815000	0.187100	0.384480
O391	O39	0.725000	0.500780	0.040440
O401	O40	0.561300	0.362030	0.024140
O411	O41	0.655000	0.277770	0.283970
O421	O42	0.584500	0.444960	0.166090
H131	H13	0.910000	0.301000	0.307000
H141	H14	0.782000	0.369700	0.107200
Zn81	Zn8	0.150330	0.880910	0.510320
P151	P15	0.289900	0.779820	0.350230
P161	P16	0.161270	0.919700	0.083750
O431	O43	0.280600	0.852400	0.416430
O441	O44	0.315000	0.687100	0.384480
O451	O45	0.225000	0.000780	0.040440
O461	O46	0.061300	0.862030	0.024140
O471	O47	0.155000	0.777770	0.283970
O481	O48	0.084500	0.944960	0.166090
H151	H15	0.410000	0.801000	0.307000
H161	H16	0.282000	0.869700	0.107200
Zn91	Zn9	0.500000	0.632030	0.750000
Zn101	Zn10	0.000000	0.132030	0.750000
Zn111	Zn11	0.500000	0.367970	0.250000
Zn121	Zn12	0.000000	0.867970	0.250000
