data_NEDVUP_clean_PM
_symmetry_space_group_name_H-M	'P1'
_cell_length_a	12.658300
_cell_length_b	15.540900
_cell_length_c	16.409400
_cell_angle_alpha	108.446000
_cell_angle_beta	98.651000
_cell_angle_gamma	109.526000
_symmetry_Int_Tables_number 1

loop_
_symmetry_equiv_pos_as_xyz
'x,y,z'

loop_
_atom_site_label
_atom_site_type_symbol
_atom_site_fract_x
_atom_site_fract_y
_atom_site_fract_z
Mn11	Mn1	0.500000	0.500000	0.500000
Cu11	Cu1	0.808600	0.629280	0.578390
Cu21	Cu2	0.191400	0.370720	0.421610
Cu31	Cu3	0.000000	0.500000	0.500000
H11	H1	0.248500	0.607700	0.910800
H21	H2	0.549300	0.798200	0.027200
H31	H3	0.668300	0.883300	0.099700
H41	H4	0.814400	0.864800	0.813400
H51	H5	0.592000	0.055100	0.135300
H61	H6	0.673000	0.032000	0.203400
H71	H7	0.468500	0.778900	0.147100
H81	H8	0.453400	0.869100	0.218500
H91	H9	0.829600	0.813600	0.426300
H101	H10	0.797800	0.902700	0.340100
H111	H11	0.220400	0.868600	0.952200
H121	H12	0.786300	0.951100	0.944300
H131	H13	0.113900	0.533500	0.771000
H141	H14	0.416000	0.919600	0.020100
H151	H15	0.361800	0.915700	0.101900
H161	H16	0.462000	0.752400	0.874900
H171	H17	0.486500	0.668500	0.740000
H181	H18	0.781100	0.363200	0.348000
H191	H19	0.466000	0.117700	0.371100
H201	H20	0.538700	0.284100	0.473900
H211	H21	0.485000	0.647400	0.345800
H221	H22	0.711800	0.203400	0.245600
H231	H23	0.454100	0.732800	0.257500
H241	H24	0.062700	0.778800	0.805800
H251	H25	0.751500	0.392300	0.089200
H261	H26	0.450700	0.201800	0.972800
H271	H27	0.331700	0.116700	0.900300
H281	H28	0.185600	0.135200	0.186600
H291	H29	0.408000	0.944900	0.864700
H301	H30	0.327000	0.968000	0.796600
H311	H31	0.531500	0.221100	0.852900
H321	H32	0.546600	0.130900	0.781500
H331	H33	0.170400	0.186400	0.573700
H341	H34	0.202200	0.097300	0.659900
H351	H35	0.779600	0.131400	0.047800
H361	H36	0.213700	0.048900	0.055700
H371	H37	0.886100	0.466500	0.229000
H381	H38	0.584000	0.080400	0.979900
H391	H39	0.638200	0.084300	0.898100
H401	H40	0.538000	0.247600	0.125100
H411	H41	0.513500	0.331500	0.260000
H421	H42	0.218900	0.636800	0.652000
H431	H43	0.534000	0.882300	0.628900
H441	H44	0.461300	0.715900	0.526100
H451	H45	0.515000	0.352600	0.654200
H461	H46	0.288200	0.796600	0.754400
H471	H47	0.545900	0.267200	0.742500
H481	H48	0.937300	0.221200	0.194200
C11	C1	0.215700	0.645800	0.889100
C21	C2	0.667500	0.693600	0.679800
C31	C3	0.985700	0.607100	0.683000
C41	C4	0.652700	0.753800	0.765500
C51	C5	0.522300	0.907700	0.120300
C61	C6	0.591800	0.870800	0.061600
C71	C7	0.741300	0.840400	0.825300
C81	C8	0.591200	0.018000	0.174500
C91	C9	0.505100	0.851400	0.182800
C101	C10	0.711400	0.444200	0.485600
C111	C11	0.752700	0.796000	0.391700
C121	C12	0.733400	0.848800	0.339600
C131	C13	0.252000	0.745100	0.940400
C141	C14	0.199100	0.800700	0.915900
C151	C15	0.625000	0.824200	0.288700
C161	C16	0.723300	0.891600	0.902700
C171	C17	0.133800	0.600900	0.807800
C181	C18	0.405600	0.887900	0.063700
C191	C19	0.534700	0.777100	0.862700
C201	C20	0.550700	0.725800	0.783400
C211	C21	0.716700	0.314500	0.353900
C221	C22	0.660300	0.719100	0.392500
C231	C23	0.083800	0.650600	0.781800
C241	C24	0.622800	0.863300	0.923400
C251	C25	0.677100	0.661200	0.446600
C261	C26	0.672300	0.345300	0.422000
C271	C27	0.530300	0.167300	0.366200
C281	C28	0.574200	0.267400	0.427600
C291	C29	0.583700	0.142100	0.297200
C301	C30	0.550300	0.698500	0.343600
C311	C31	0.676200	0.218200	0.292200
C321	C32	0.531100	0.749400	0.291200
C331	C33	0.105200	0.746900	0.828000
C341	C34	0.784300	0.354200	0.110900
C351	C35	0.332500	0.306400	0.320200
C361	C36	0.014300	0.392900	0.317000
C371	C37	0.347300	0.246200	0.234500
C381	C38	0.477700	0.092300	0.879700
C391	C39	0.408200	0.129200	0.938400
C401	C40	0.258700	0.159600	0.174700
C411	C41	0.408800	0.982000	0.825500
C421	C42	0.494900	0.148600	0.817200
C431	C43	0.288600	0.555800	0.514400
C441	C44	0.247300	0.204000	0.608300
C451	C45	0.266600	0.151200	0.660400
C461	C46	0.748000	0.254900	0.059600
C471	C47	0.800900	0.199300	0.084100
C481	C48	0.375000	0.175800	0.711300
C491	C49	0.276700	0.108400	0.097300
C501	C50	0.866200	0.399100	0.192200
C511	C51	0.594400	0.112100	0.936300
C521	C52	0.465300	0.222900	0.137300
C531	C53	0.449300	0.274200	0.216600
C541	C54	0.283300	0.685500	0.646100
C551	C55	0.339700	0.280900	0.607500
C561	C56	0.916200	0.349400	0.218200
C571	C57	0.377200	0.136700	0.076600
C581	C58	0.322900	0.338800	0.553400
C591	C59	0.327700	0.654700	0.578000
C601	C60	0.469700	0.832700	0.633800
C611	C61	0.425800	0.732600	0.572400
C621	C62	0.416300	0.857900	0.702800
C631	C63	0.449700	0.301500	0.656400
C641	C64	0.323800	0.781800	0.707800
C651	C65	0.468900	0.250600	0.708800
C661	C66	0.894800	0.253100	0.172000
O11	O1	0.651000	0.465800	0.536400
O21	O2	0.342800	0.783300	0.017700
O31	O3	0.924600	0.640900	0.675900
O41	O4	0.576400	0.620100	0.626000
O51	O5	0.768800	0.716100	0.670000
O61	O6	0.590000	0.587400	0.437100
O71	O7	0.007100	0.531300	0.627100
O81	O8	0.778000	0.687700	0.494900
O91	O9	0.617200	0.879000	0.240400
O101	O10	0.534900	0.046800	0.240700
O111	O11	0.805200	0.506400	0.486200
O121	O12	0.610500	0.919400	0.001000
O131	O13	0.349000	0.534200	0.463600
O141	O14	0.657200	0.216700	0.982300
O151	O15	0.075400	0.359100	0.324100
O161	O16	0.423600	0.379900	0.374000
O171	O17	0.231200	0.283900	0.330000
O181	O18	0.410000	0.412600	0.562900
O191	O19	0.992900	0.468700	0.372900
O201	O20	0.222000	0.312300	0.505100
O211	O21	0.382800	0.121000	0.759600
O221	O22	0.465100	0.953200	0.759300
O231	O23	0.194800	0.493600	0.513800
O241	O24	0.389500	0.080600	0.999000
