data_NEDWEA_clean_PM
_symmetry_space_group_name_H-M	'P1'
_cell_length_a	12.659400
_cell_length_b	15.027100
_cell_length_c	17.031700
_cell_angle_alpha	108.009000
_cell_angle_beta	101.050000
_cell_angle_gamma	106.050000
_symmetry_Int_Tables_number 1

loop_
_symmetry_equiv_pos_as_xyz
'x,y,z'

loop_
_atom_site_label
_atom_site_type_symbol
_atom_site_fract_x
_atom_site_fract_y
_atom_site_fract_z
Mn11	Mn1	0.500000	0.500000	0.500000
Co11	Co1	0.215090	0.372450	0.414780
Co21	Co2	0.784910	0.627550	0.585220
Co31	Co3	0.000000	0.500000	0.500000
H11	H1	0.217500	0.642700	0.663900
H21	H2	0.301300	0.806100	0.767900
H31	H3	0.541300	0.866500	0.646100
H41	H4	0.456800	0.702400	0.542300
H51	H5	0.181900	0.182900	0.570200
H61	H6	0.215300	0.112400	0.672000
H71	H7	0.560400	0.123500	0.782500
H81	H8	0.554800	0.223200	0.849500
H91	H9	0.661700	0.084700	0.898200
H101	H10	0.613200	0.080600	0.978100
H111	H11	0.756100	0.393400	0.092300
H121	H12	0.880200	0.457700	0.232900
H131	H13	0.937200	0.197900	0.187700
H141	H14	0.798800	0.126800	0.048300
H151	H15	0.360000	0.135900	0.904800
H161	H16	0.480500	0.220500	0.969100
H171	H17	0.558400	0.249300	0.727200
H181	H18	0.523600	0.327700	0.630900
H191	H19	0.534900	0.382200	0.240800
H201	H20	0.557700	0.287000	0.110800
H211	H21	0.262400	0.063700	0.069000
H221	H22	0.237200	0.160000	0.194800
H231	H23	0.350900	0.976400	0.807400
H241	H24	0.432300	0.954100	0.877900
H251	H25	0.782500	0.357300	0.336100
H261	H26	0.698700	0.193900	0.232100
H271	H27	0.458700	0.133500	0.353900
H281	H28	0.543200	0.297600	0.457700
H291	H29	0.818100	0.817100	0.429800
H301	H30	0.784700	0.887600	0.328000
H311	H31	0.439600	0.876500	0.217500
H321	H32	0.445200	0.776800	0.150500
H331	H33	0.338300	0.915300	0.101800
H341	H34	0.386800	0.919400	0.021900
H351	H35	0.243900	0.606600	0.907700
H361	H36	0.119800	0.542300	0.767100
H371	H37	0.062800	0.802100	0.812300
H381	H38	0.201200	0.873200	0.951700
H391	H39	0.640000	0.864100	0.095200
H401	H40	0.519500	0.779500	0.030900
H411	H41	0.441600	0.750700	0.272800
H421	H42	0.476400	0.672300	0.369100
H431	H43	0.465100	0.617800	0.759200
H441	H44	0.442300	0.713000	0.889200
H451	H45	0.737600	0.936300	0.931000
H461	H46	0.762800	0.840000	0.805200
H471	H47	0.649100	0.023600	0.192600
H481	H48	0.567700	0.045900	0.122100
C11	C1	0.325700	0.656100	0.593100
C21	C2	0.283200	0.688200	0.659700
C31	C3	0.332800	0.785500	0.722000
C41	C4	0.475000	0.820700	0.649400
C51	C5	0.425000	0.723600	0.587800
C61	C6	0.500800	0.099300	0.883100
C71	C7	0.350100	0.264700	0.591700
C81	C8	0.258700	0.198500	0.603500
C91	C9	0.278400	0.155200	0.662700
C101	C10	0.389900	0.174400	0.708500
C111	C11	0.514700	0.149800	0.818500
C121	C12	0.619900	0.113900	0.936500
C131	C13	0.762500	0.253300	0.060200
C141	C14	0.789500	0.352400	0.112800
C151	C15	0.865200	0.391000	0.195300
C161	C16	0.919300	0.333900	0.223600
C171	C17	0.897400	0.236400	0.169000
C181	C18	0.816100	0.194100	0.085600
C191	C19	0.437700	0.147300	0.940600
C201	C20	0.481500	0.237200	0.696400
C211	C21	0.460300	0.282900	0.638400
C221	C22	0.369000	0.342400	0.312400
C231	C23	0.385300	0.281500	0.230100
C241	C24	0.478700	0.317700	0.205400
C251	C25	0.492900	0.261100	0.128400
C261	C26	0.411600	0.167600	0.078800
C271	C27	0.317200	0.129100	0.103600
C281	C28	0.302900	0.185600	0.178200
C291	C29	0.428000	0.851200	0.716300
C301	C30	0.431900	0.987700	0.836200
C311	C31	0.999100	0.376300	0.315800
C321	C32	0.273100	0.552900	0.529500
C331	C33	0.328200	0.314500	0.531300
C341	C34	0.674300	0.343900	0.406900
C351	C35	0.716800	0.311800	0.340300
C361	C36	0.667200	0.214500	0.278000
C371	C37	0.525000	0.179300	0.350600
C381	C38	0.575000	0.276400	0.412200
C391	C39	0.499200	0.900700	0.116900
C401	C40	0.649900	0.735300	0.408300
C411	C41	0.741300	0.801500	0.396500
C421	C42	0.721600	0.844800	0.337300
C431	C43	0.610100	0.825600	0.291500
C441	C44	0.485300	0.850200	0.181500
C451	C45	0.380100	0.886100	0.063500
C461	C46	0.237500	0.746700	0.939800
C471	C47	0.210500	0.647600	0.887200
C481	C48	0.134800	0.609000	0.804700
C491	C49	0.080700	0.666100	0.776400
C501	C50	0.102600	0.763600	0.831000
C511	C51	0.183900	0.805900	0.914400
C521	C52	0.562300	0.852700	0.059400
C531	C53	0.518500	0.762800	0.303600
C541	C54	0.539700	0.717100	0.361600
C551	C55	0.631000	0.657600	0.687600
C561	C56	0.614700	0.718500	0.769900
C571	C57	0.521300	0.682300	0.794600
C581	C58	0.507100	0.738900	0.871600
C591	C59	0.588400	0.832400	0.921200
C601	C60	0.682800	0.870900	0.896400
C611	C61	0.697100	0.814400	0.821800
C621	C62	0.572000	0.148800	0.283700
C631	C63	0.568100	0.012300	0.163800
C641	C64	0.000900	0.623700	0.684200
C651	C65	0.726900	0.447100	0.470500
C661	C66	0.671800	0.685500	0.468700
O11	O1	0.326690	0.517620	0.477730
O21	O2	0.412700	0.367510	0.517790
O31	O3	0.992700	0.452400	0.367180
O41	O4	0.401100	0.127800	0.765330
O51	O5	0.681200	0.221000	0.982260
O61	O6	0.062100	0.329900	0.332830
O71	O7	0.225000	0.301500	0.495940
O81	O8	0.452800	0.421220	0.364820
O91	O9	0.274000	0.307660	0.324150
O101	O10	0.176080	0.495430	0.525160
O111	O11	0.426900	0.105900	0.004610
O121	O12	0.485000	0.948070	0.773020
O131	O13	0.673310	0.482380	0.522270
O141	O14	0.587300	0.632490	0.482210
O151	O15	0.007300	0.547600	0.632820
O161	O16	0.598900	0.872200	0.234670
O171	O17	0.318800	0.779000	0.017740
O181	O18	0.937900	0.670100	0.667170
O191	O19	0.775000	0.698500	0.504060
O201	O20	0.547200	0.578780	0.635180
O211	O21	0.726000	0.692340	0.675850
O221	O22	0.823920	0.504570	0.474840
O231	O23	0.573100	0.894100	0.995390
O241	O24	0.515000	0.051930	0.226980
