data_NEKBEL_clean_PM
_symmetry_space_group_name_H-M	'P1'
_cell_length_a	7.179000
_cell_length_b	14.634000
_cell_length_c	22.134000
_cell_angle_alpha	90.000000
_cell_angle_beta	91.121000
_cell_angle_gamma	90.000000
_symmetry_Int_Tables_number 1

loop_
_symmetry_equiv_pos_as_xyz
'x,y,z'

loop_
_atom_site_label
_atom_site_type_symbol
_atom_site_fract_x
_atom_site_fract_y
_atom_site_fract_z
Co11	Co1	0.752100	0.528400	0.762130
Co21	Co2	0.747900	0.028400	0.737870
Co31	Co3	0.247900	0.471600	0.237870
Co41	Co4	0.252100	0.971600	0.262130
Co51	Co5	0.500000	0.500000	0.500000
Co61	Co6	0.000000	0.000000	0.000000
H11	H1	0.676500	0.486100	0.628700
H21	H2	0.792100	0.719800	0.700000
H31	H3	0.748600	0.791500	0.606500
H41	H4	0.620800	0.704100	0.528300
H51	H5	0.823500	0.986100	0.871300
H61	H6	0.707900	0.219800	0.800000
H71	H7	0.751400	0.291500	0.893500
H81	H8	0.879200	0.204100	0.971700
H91	H9	0.323500	0.513900	0.371300
H101	H10	0.207900	0.280200	0.300000
H111	H11	0.251400	0.208500	0.393500
H121	H12	0.379200	0.295900	0.471700
H131	H13	0.176500	0.013900	0.128700
H141	H14	0.292100	0.780200	0.200000
H151	H15	0.248600	0.708500	0.106500
H161	H16	0.120800	0.795900	0.028300
W11	W1	0.240220	0.284970	0.677490
W21	W2	0.259780	0.784970	0.822510
W31	W3	0.759780	0.715030	0.322510
W41	W4	0.740220	0.215030	0.177490
C11	C1	0.450000	0.374900	0.713400
C21	C2	0.326000	0.378000	0.608200
C31	C3	0.273000	0.202100	0.598300
C41	C4	0.456000	0.187600	0.697200
C51	C5	0.248000	0.267600	0.773100
C61	C6	0.074000	0.394600	0.711800
C71	C7	0.995000	0.298300	0.625600
C81	C8	0.060000	0.171300	0.699000
C91	C9	0.681000	0.550800	0.625700
C101	C10	0.738000	0.685700	0.667700
C111	C11	0.717000	0.729000	0.612400
C121	C12	0.658000	0.676000	0.565300
C131	C13	0.050000	0.874900	0.786600
C141	C14	0.174000	0.878000	0.891800
C151	C15	0.227000	0.702100	0.901700
C161	C16	0.044000	0.687600	0.802800
C171	C17	0.252000	0.767600	0.726900
C181	C18	0.426000	0.894600	0.788200
C191	C19	0.505000	0.798300	0.874400
C201	C20	0.440000	0.671300	0.801000
C211	C21	0.819000	0.050800	0.874300
C221	C22	0.762000	0.185700	0.832300
C231	C23	0.783000	0.229000	0.887600
C241	C24	0.842000	0.176000	0.934700
C251	C25	0.550000	0.625100	0.286600
C261	C26	0.674000	0.622000	0.391800
C271	C27	0.727000	0.797900	0.401700
C281	C28	0.544000	0.812400	0.302800
C291	C29	0.752000	0.732400	0.226900
C301	C30	0.926000	0.605400	0.288200
C311	C31	0.005000	0.701700	0.374400
C321	C32	0.940000	0.828700	0.301000
C331	C33	0.319000	0.449200	0.374300
C341	C34	0.262000	0.314300	0.332300
C351	C35	0.283000	0.271000	0.387600
C361	C36	0.342000	0.324000	0.434700
C371	C37	0.950000	0.125100	0.213400
C381	C38	0.826000	0.122000	0.108200
C391	C39	0.773000	0.297900	0.098300
C401	C40	0.956000	0.312400	0.197200
C411	C41	0.748000	0.232400	0.273100
C421	C42	0.574000	0.105400	0.211800
C431	C43	0.495000	0.201700	0.125600
C441	C44	0.560000	0.328700	0.199000
C451	C45	0.181000	0.949200	0.125700
C461	C46	0.238000	0.814300	0.167700
C471	C47	0.217000	0.771000	0.112400
C481	C48	0.158000	0.824000	0.065300
N11	N1	0.557000	0.429000	0.731500
N21	N2	0.382000	0.421200	0.569300
N31	N3	0.283000	0.162500	0.553800
N41	N4	0.562000	0.130600	0.708400
N51	N5	0.252000	0.254400	0.824800
N61	N6	0.979000	0.448200	0.729600
N71	N7	0.859000	0.312000	0.592100
N81	N8	0.963000	0.110800	0.708800
N91	N9	0.636000	0.584600	0.571100
N101	N10	0.727000	0.594300	0.674000
N111	N11	0.943000	0.929000	0.768500
N121	N12	0.118000	0.921200	0.930700
N131	N13	0.217000	0.662500	0.946200
N141	N14	0.938000	0.630600	0.791600
N151	N15	0.248000	0.754400	0.675200
N161	N16	0.521000	0.948200	0.770400
N171	N17	0.641000	0.812000	0.907900
N181	N18	0.537000	0.610800	0.791200
N191	N19	0.864000	0.084600	0.928900
N201	N20	0.773000	0.094300	0.826000
N211	N21	0.443000	0.571000	0.268500
N221	N22	0.618000	0.578800	0.430700
N231	N23	0.717000	0.837500	0.446200
N241	N24	0.438000	0.869400	0.291600
N251	N25	0.748000	0.745600	0.175200
N261	N26	0.021000	0.551800	0.270400
N271	N27	0.141000	0.688000	0.407900
N281	N28	0.037000	0.889200	0.291200
N291	N29	0.364000	0.415400	0.428900
N301	N30	0.273000	0.405700	0.326000
N311	N31	0.057000	0.071000	0.231500
N321	N32	0.882000	0.078800	0.069300
N331	N33	0.783000	0.337500	0.053800
N341	N34	0.062000	0.369400	0.208400
N351	N35	0.752000	0.245600	0.324800
N361	N36	0.479000	0.051800	0.229600
N371	N37	0.359000	0.188000	0.092100
N381	N38	0.463000	0.389200	0.208800
N391	N39	0.136000	0.915400	0.071100
N401	N40	0.227000	0.905700	0.174000
