data_NENFAN_clean_PM
_symmetry_space_group_name_H-M	'P1'
_cell_length_a	22.093000
_cell_length_b	13.904000
_cell_length_c	14.230000
_cell_angle_alpha	90.000000
_cell_angle_beta	98.431000
_cell_angle_gamma	90.000000
_symmetry_Int_Tables_number 1

loop_
_symmetry_equiv_pos_as_xyz
'x,y,z'

loop_
_atom_site_label
_atom_site_type_symbol
_atom_site_fract_x
_atom_site_fract_y
_atom_site_fract_z
Ga11	Ga1	0.416490	0.595880	0.492170
Ga21	Ga2	0.337420	0.701450	0.086040
Ga31	Ga3	0.255520	0.610600	0.439930
Ga41	Ga4	0.339870	0.397770	0.306010
P11	P1	0.442200	0.380440	0.483480
P21	P2	0.263440	0.890520	0.059250
P31	P3	0.343710	0.618530	0.293600
P41	P4	0.328390	0.713850	0.609490
F11	F1	0.332180	0.534820	0.469550
O11	O1	0.271300	0.660900	0.561700
O21	O2	0.285700	0.994200	0.069000
O31	O3	0.385810	0.685100	0.568500
O41	O4	0.224160	0.861600	0.134400
O51	O5	0.403290	0.621100	0.363100
O61	O6	0.442380	0.476000	0.536400
O71	O7	0.328380	0.516800	0.254400
O81	O8	0.354230	0.684100	0.211400
O91	O9	0.228500	0.871900	0.959500
O101	O10	0.321750	0.829800	0.072500
O111	O11	0.404430	0.305500	0.528600
O121	O12	0.289540	0.658300	0.337800
O131	O13	0.414190	0.391600	0.378800
O141	O14	0.320240	0.822800	0.595000
O151	O15	0.506460	0.341800	0.487600
O161	O16	0.338000	0.694400	0.716100
Ga51	Ga5	0.916490	0.095880	0.492170
Ga61	Ga6	0.837420	0.201450	0.086040
Ga71	Ga7	0.755520	0.110600	0.439930
Ga81	Ga8	0.839870	0.897770	0.306010
P51	P5	0.942200	0.880440	0.483480
P61	P6	0.763440	0.390520	0.059250
P71	P7	0.843710	0.118530	0.293600
P81	P8	0.828390	0.213850	0.609490
F21	F2	0.832180	0.034820	0.469550
O171	O17	0.771300	0.160900	0.561700
O181	O18	0.785700	0.494200	0.069000
O191	O19	0.885810	0.185100	0.568500
O201	O20	0.724160	0.361600	0.134400
O211	O21	0.903290	0.121100	0.363100
O221	O22	0.942380	0.976000	0.536400
O231	O23	0.828380	0.016800	0.254400
O241	O24	0.854230	0.184100	0.211400
O251	O25	0.728500	0.371900	0.959500
O261	O26	0.821750	0.329800	0.072500
O271	O27	0.904430	0.805500	0.528600
O281	O28	0.789540	0.158300	0.337800
O291	O29	0.914190	0.891600	0.378800
O301	O30	0.820240	0.322800	0.595000
O311	O31	0.006460	0.841800	0.487600
O321	O32	0.838000	0.194400	0.716100
Ga91	Ga9	0.583510	0.595880	0.007830
Ga101	Ga10	0.662580	0.701450	0.413960
Ga111	Ga11	0.744480	0.610600	0.060070
Ga121	Ga12	0.660130	0.397770	0.193990
P91	P9	0.557800	0.380440	0.016520
P101	P10	0.736560	0.890520	0.440750
P111	P11	0.656290	0.618530	0.206400
P121	P12	0.671610	0.713850	0.890510
F31	F3	0.667820	0.534820	0.030450
O331	O33	0.728700	0.660900	0.938300
O341	O34	0.714300	0.994200	0.431000
O351	O35	0.614190	0.685100	0.931500
O361	O36	0.775840	0.861600	0.365600
O371	O37	0.596710	0.621100	0.136900
O381	O38	0.557620	0.476000	0.963600
O391	O39	0.671620	0.516800	0.245600
O401	O40	0.645770	0.684100	0.288600
O411	O41	0.771500	0.871900	0.540500
O421	O42	0.678250	0.829800	0.427500
O431	O43	0.595570	0.305500	0.971400
O441	O44	0.710460	0.658300	0.162200
O451	O45	0.585810	0.391600	0.121200
O461	O46	0.679760	0.822800	0.905000
O471	O47	0.493540	0.341800	0.012400
O481	O48	0.662000	0.694400	0.783900
Ga131	Ga13	0.083510	0.095880	0.007830
Ga141	Ga14	0.162580	0.201450	0.413960
Ga151	Ga15	0.244480	0.110600	0.060070
Ga161	Ga16	0.160130	0.897770	0.193990
P131	P13	0.057800	0.880440	0.016520
P141	P14	0.236560	0.390520	0.440750
P151	P15	0.156290	0.118530	0.206400
P161	P16	0.171610	0.213850	0.890510
F41	F4	0.167820	0.034820	0.030450
O491	O49	0.228700	0.160900	0.938300
O501	O50	0.214300	0.494200	0.431000
O511	O51	0.114190	0.185100	0.931500
O521	O52	0.275840	0.361600	0.365600
O531	O53	0.096710	0.121100	0.136900
O541	O54	0.057620	0.976000	0.963600
O551	O55	0.171620	0.016800	0.245600
O561	O56	0.145770	0.184100	0.288600
O571	O57	0.271500	0.371900	0.540500
O581	O58	0.178250	0.329800	0.427500
O591	O59	0.095570	0.805500	0.971400
O601	O60	0.210460	0.158300	0.162200
O611	O61	0.085810	0.891600	0.121200
O621	O62	0.179760	0.322800	0.905000
O631	O63	0.993540	0.841800	0.012400
O641	O64	0.162000	0.194400	0.783900
Ga171	Ga17	0.583510	0.404120	0.507830
Ga181	Ga18	0.662580	0.298550	0.913960
Ga191	Ga19	0.744480	0.389400	0.560070
Ga201	Ga20	0.660130	0.602230	0.693990
P171	P17	0.557800	0.619560	0.516520
P181	P18	0.736560	0.109480	0.940750
P191	P19	0.656290	0.381470	0.706400
P201	P20	0.671610	0.286150	0.390510
F51	F5	0.667820	0.465180	0.530450
O651	O65	0.728700	0.339100	0.438300
O661	O66	0.714300	0.005800	0.931000
O671	O67	0.614190	0.314900	0.431500
O681	O68	0.775840	0.138400	0.865600
O691	O69	0.596710	0.378900	0.636900
O701	O70	0.557620	0.524000	0.463600
O711	O71	0.671620	0.483200	0.745600
O721	O72	0.645770	0.315900	0.788600
O731	O73	0.771500	0.128100	0.040500
O741	O74	0.678250	0.170200	0.927500
O751	O75	0.595570	0.694500	0.471400
O761	O76	0.710460	0.341700	0.662200
O771	O77	0.585810	0.608400	0.621200
O781	O78	0.679760	0.177200	0.405000
O791	O79	0.493540	0.658200	0.512400
O801	O80	0.662000	0.305600	0.283900
Ga211	Ga21	0.083510	0.904120	0.507830
Ga221	Ga22	0.162580	0.798550	0.913960
Ga231	Ga23	0.244480	0.889400	0.560070
Ga241	Ga24	0.160130	0.102230	0.693990
P211	P21	0.057800	0.119560	0.516520
P221	P22	0.236560	0.609480	0.940750
P231	P23	0.156290	0.881470	0.706400
P241	P24	0.171610	0.786150	0.390510
F61	F6	0.167820	0.965180	0.530450
O811	O81	0.228700	0.839100	0.438300
O821	O82	0.214300	0.505800	0.931000
O831	O83	0.114190	0.814900	0.431500
O841	O84	0.275840	0.638400	0.865600
O851	O85	0.096710	0.878900	0.636900
O861	O86	0.057620	0.024000	0.463600
O871	O87	0.171620	0.983200	0.745600
O881	O88	0.145770	0.815900	0.788600
O891	O89	0.271500	0.628100	0.040500
O901	O90	0.178250	0.670200	0.927500
O911	O91	0.095570	0.194500	0.471400
O921	O92	0.210460	0.841700	0.662200
O931	O93	0.085810	0.108400	0.621200
O941	O94	0.179760	0.677200	0.405000
O951	O95	0.993540	0.158200	0.512400
O961	O96	0.162000	0.805600	0.283900
Ga251	Ga25	0.416490	0.404120	0.992170
Ga261	Ga26	0.337420	0.298550	0.586040
Ga271	Ga27	0.255520	0.389400	0.939930
Ga281	Ga28	0.339870	0.602230	0.806010
P251	P25	0.442200	0.619560	0.983480
P261	P26	0.263440	0.109480	0.559250
P271	P27	0.343710	0.381470	0.793600
P281	P28	0.328390	0.286150	0.109490
F71	F7	0.332180	0.465180	0.969550
O971	O97	0.271300	0.339100	0.061700
O981	O98	0.285700	0.005800	0.569000
O991	O99	0.385810	0.314900	0.068500
O1001	O100	0.224160	0.138400	0.634400
O1011	O101	0.403290	0.378900	0.863100
O1021	O102	0.442380	0.524000	0.036400
O1031	O103	0.328380	0.483200	0.754400
O1041	O104	0.354230	0.315900	0.711400
O1051	O105	0.228500	0.128100	0.459500
O1061	O106	0.321750	0.170200	0.572500
O1071	O107	0.404430	0.694500	0.028600
O1081	O108	0.289540	0.341700	0.837800
O1091	O109	0.414190	0.608400	0.878800
O1101	O110	0.320240	0.177200	0.095000
O1111	O111	0.506460	0.658200	0.987600
O1121	O112	0.338000	0.305600	0.216100
Ga291	Ga29	0.916490	0.904120	0.992170
Ga301	Ga30	0.837420	0.798550	0.586040
Ga311	Ga31	0.755520	0.889400	0.939930
Ga321	Ga32	0.839870	0.102230	0.806010
P291	P29	0.942200	0.119560	0.983480
P301	P30	0.763440	0.609480	0.559250
P311	P31	0.843710	0.881470	0.793600
P321	P32	0.828390	0.786150	0.109490
F81	F8	0.832180	0.965180	0.969550
O1131	O113	0.771300	0.839100	0.061700
O1141	O114	0.785700	0.505800	0.569000
O1151	O115	0.885810	0.814900	0.068500
O1161	O116	0.724160	0.638400	0.634400
O1171	O117	0.903290	0.878900	0.863100
O1181	O118	0.942380	0.024000	0.036400
O1191	O119	0.828380	0.983200	0.754400
O1201	O120	0.854230	0.815900	0.711400
O1211	O121	0.728500	0.628100	0.459500
O1221	O122	0.821750	0.670200	0.572500
O1231	O123	0.904430	0.194500	0.028600
O1241	O124	0.789540	0.841700	0.837800
O1251	O125	0.914190	0.108400	0.878800
O1261	O126	0.820240	0.677200	0.095000
O1271	O127	0.006460	0.158200	0.987600
O1281	O128	0.838000	0.805600	0.216100
