data_NENHAQ_clean_PM
_symmetry_space_group_name_H-M	'P1'
_cell_length_a	20.487000
_cell_length_b	20.487000
_cell_length_c	20.487000
_cell_angle_alpha	90.000000
_cell_angle_beta	90.000000
_cell_angle_gamma	90.000000
_symmetry_Int_Tables_number 1

loop_
_symmetry_equiv_pos_as_xyz
'x,y,z'

loop_
_atom_site_label
_atom_site_type_symbol
_atom_site_fract_x
_atom_site_fract_y
_atom_site_fract_z
Cd11	Cd1	0.125000	0.625000	0.875000
Cd21	Cd2	0.375000	0.375000	0.375000
Cd31	Cd3	0.875000	0.125000	0.625000
Cd41	Cd4	0.625000	0.875000	0.125000
Cd51	Cd5	0.024220	0.524220	0.975780
Cd61	Cd6	0.475780	0.475780	0.475780
Cd71	Cd7	0.975780	0.024220	0.524220
Cd81	Cd8	0.524220	0.975780	0.024220
Cd91	Cd9	0.274220	0.274220	0.274220
Cd101	Cd10	0.225780	0.725780	0.774220
Cd111	Cd11	0.774220	0.225780	0.725780
Cd121	Cd12	0.725780	0.774220	0.225780
H11	H1	0.075000	0.359900	0.802000
H21	H2	0.264300	0.455700	0.722900
H31	H3	0.208400	0.503500	0.809000
H41	H4	0.425000	0.640100	0.302000
H51	H5	0.235700	0.544300	0.222900
H61	H6	0.291600	0.496500	0.309000
H71	H7	0.925000	0.859900	0.698000
H81	H8	0.735700	0.955700	0.777100
H91	H9	0.791600	0.003500	0.691000
H101	H10	0.575000	0.140100	0.198000
H111	H11	0.764300	0.044300	0.277100
H121	H12	0.708400	0.996500	0.191000
H131	H13	0.802000	0.075000	0.359900
H141	H14	0.722900	0.264300	0.455700
H151	H15	0.809000	0.208400	0.503500
H161	H16	0.302000	0.425000	0.640100
H171	H17	0.222900	0.235700	0.544300
H181	H18	0.309000	0.291600	0.496500
H191	H19	0.698000	0.925000	0.859900
H201	H20	0.777100	0.735700	0.955700
H211	H21	0.691000	0.791600	0.003500
H221	H22	0.198000	0.575000	0.140100
H231	H23	0.277100	0.764300	0.044300
H241	H24	0.191000	0.708400	0.996500
H251	H25	0.359900	0.802000	0.075000
H261	H26	0.455700	0.722900	0.264300
H271	H27	0.503500	0.809000	0.208400
H281	H28	0.640100	0.302000	0.425000
H291	H29	0.544300	0.222900	0.235700
H301	H30	0.496500	0.309000	0.291600
H311	H31	0.859900	0.698000	0.925000
H321	H32	0.955700	0.777100	0.735700
H331	H33	0.003500	0.691000	0.791600
H341	H34	0.140100	0.198000	0.575000
H351	H35	0.044300	0.277100	0.764300
H361	H36	0.996500	0.191000	0.708400
H371	H37	0.109900	0.325000	0.448000
H381	H38	0.205700	0.514300	0.527100
H391	H39	0.253500	0.458400	0.441000
H401	H40	0.390100	0.675000	0.948000
H411	H41	0.294300	0.485700	0.027100
H421	H42	0.246500	0.541600	0.941000
H431	H43	0.609900	0.175000	0.552000
H441	H44	0.705700	0.985700	0.472900
H451	H45	0.753500	0.041600	0.559000
H461	H46	0.890100	0.825000	0.052000
H471	H47	0.794300	0.014300	0.972900
H481	H48	0.746500	0.958400	0.059000
H491	H49	0.825000	0.052000	0.890100
H501	H50	0.014300	0.972900	0.794300
H511	H51	0.958400	0.059000	0.746500
H521	H52	0.175000	0.552000	0.609900
H531	H53	0.985700	0.472900	0.705700
H541	H54	0.041600	0.559000	0.753500
H551	H55	0.675000	0.948000	0.390100
H561	H56	0.485700	0.027100	0.294300
H571	H57	0.541600	0.941000	0.246500
H581	H58	0.325000	0.448000	0.109900
H591	H59	0.514300	0.527100	0.205700
H601	H60	0.458400	0.441000	0.253500
H611	H61	0.552000	0.609900	0.175000
H621	H62	0.472900	0.705700	0.985700
H631	H63	0.559000	0.753500	0.041600
H641	H64	0.052000	0.890100	0.825000
H651	H65	0.972900	0.794300	0.014300
H661	H66	0.059000	0.746500	0.958400
H671	H67	0.448000	0.109900	0.325000
H681	H68	0.527100	0.205700	0.514300
H691	H69	0.441000	0.253500	0.458400
H701	H70	0.948000	0.390100	0.675000
H711	H71	0.027100	0.294300	0.485700
H721	H72	0.941000	0.246500	0.541600
C11	C1	0.100100	0.467900	0.866500
C21	C2	0.136100	0.436400	0.814000
C31	C3	0.112900	0.379100	0.786100
C41	C4	0.146500	0.350500	0.734500
C51	C5	0.203200	0.379200	0.710800
C61	C6	0.226400	0.436500	0.738700
C71	C7	0.192900	0.465100	0.790300
C81	C8	0.399900	0.532100	0.366500
C91	C9	0.363900	0.563600	0.314000
C101	C10	0.387100	0.620900	0.286100
C111	C11	0.353500	0.649500	0.234500
C121	C12	0.296800	0.620800	0.210800
C131	C13	0.273600	0.563500	0.238700
C141	C14	0.307100	0.534900	0.290300
C151	C15	0.899900	0.967900	0.633500
C161	C16	0.863900	0.936400	0.686000
C171	C17	0.887100	0.879100	0.713900
C181	C18	0.853500	0.850500	0.765500
C191	C19	0.796800	0.879200	0.789200
C201	C20	0.773600	0.936500	0.761300
C211	C21	0.807100	0.965100	0.709700
C221	C22	0.600100	0.032100	0.133500
C231	C23	0.636100	0.063600	0.186000
C241	C24	0.612900	0.120900	0.213900
C251	C25	0.646500	0.149500	0.265500
C261	C26	0.703200	0.120800	0.289200
C271	C27	0.726400	0.063500	0.261300
C281	C28	0.692900	0.034900	0.209700
C291	C29	0.866500	0.100100	0.467900
C301	C30	0.814000	0.136100	0.436400
C311	C31	0.786100	0.112900	0.379100
C321	C32	0.734500	0.146500	0.350500
C331	C33	0.710800	0.203200	0.379200
C341	C34	0.738700	0.226400	0.436500
C351	C35	0.790300	0.192900	0.465100
C361	C36	0.366500	0.399900	0.532100
C371	C37	0.314000	0.363900	0.563600
C381	C38	0.286100	0.387100	0.620900
C391	C39	0.234500	0.353500	0.649500
C401	C40	0.210800	0.296800	0.620800
C411	C41	0.238700	0.273600	0.563500
C421	C42	0.290300	0.307100	0.534900
C431	C43	0.633500	0.899900	0.967900
C441	C44	0.686000	0.863900	0.936400
C451	C45	0.713900	0.887100	0.879100
C461	C46	0.765500	0.853500	0.850500
C471	C47	0.789200	0.796800	0.879200
C481	C48	0.761300	0.773600	0.936500
C491	C49	0.709700	0.807100	0.965100
C501	C50	0.133500	0.600100	0.032100
C511	C51	0.186000	0.636100	0.063600
C521	C52	0.213900	0.612900	0.120900
C531	C53	0.265500	0.646500	0.149500
C541	C54	0.289200	0.703200	0.120800
C551	C55	0.261300	0.726400	0.063500
C561	C56	0.209700	0.692900	0.034900
C571	C57	0.467900	0.866500	0.100100
C581	C58	0.436400	0.814000	0.136100
C591	C59	0.379100	0.786100	0.112900
C601	C60	0.350500	0.734500	0.146500
C611	C61	0.379200	0.710800	0.203200
C621	C62	0.436500	0.738700	0.226400
C631	C63	0.465100	0.790300	0.192900
C641	C64	0.532100	0.366500	0.399900
C651	C65	0.563600	0.314000	0.363900
C661	C66	0.620900	0.286100	0.387100
C671	C67	0.649500	0.234500	0.353500
C681	C68	0.620800	0.210800	0.296800
C691	C69	0.563500	0.238700	0.273600
C701	C70	0.534900	0.290300	0.307100
C711	C71	0.967900	0.633500	0.899900
C721	C72	0.936400	0.686000	0.863900
C731	C73	0.879100	0.713900	0.887100
C741	C74	0.850500	0.765500	0.853500
C751	C75	0.879200	0.789200	0.796800
C761	C76	0.936500	0.761300	0.773600
C771	C77	0.965100	0.709700	0.807100
C781	C78	0.032100	0.133500	0.600100
C791	C79	0.063600	0.186000	0.636100
C801	C80	0.120900	0.213900	0.612900
C811	C81	0.149500	0.265500	0.646500
C821	C82	0.120800	0.289200	0.703200
C831	C83	0.063500	0.261300	0.726400
C841	C84	0.034900	0.209700	0.692900
C851	C85	0.217900	0.350100	0.383500
C861	C86	0.186400	0.386100	0.436000
C871	C87	0.129100	0.362900	0.463900
C881	C88	0.100500	0.396500	0.515500
C891	C89	0.129200	0.453200	0.539200
C901	C90	0.186500	0.476400	0.511300
C911	C91	0.215100	0.442900	0.459700
C921	C92	0.282100	0.649900	0.883500
C931	C93	0.313600	0.613900	0.936000
C941	C94	0.370900	0.637100	0.963900
C951	C95	0.399500	0.603500	0.015500
C961	C96	0.370800	0.546800	0.039200
C971	C97	0.313500	0.523600	0.011300
C981	C98	0.284900	0.557100	0.959700
C991	C99	0.717900	0.149900	0.616500
C1001	C100	0.686400	0.113900	0.564000
C1011	C101	0.629100	0.137100	0.536100
C1021	C102	0.600500	0.103500	0.484500
C1031	C103	0.629200	0.046800	0.460800
C1041	C104	0.686500	0.023600	0.488700
C1051	C105	0.715100	0.057100	0.540300
C1061	C106	0.782100	0.850100	0.116500
C1071	C107	0.813600	0.886100	0.064000
C1081	C108	0.870900	0.862900	0.036100
C1091	C109	0.899500	0.896500	0.984500
C1101	C110	0.870800	0.953200	0.960800
C1111	C111	0.813500	0.976400	0.988700
C1121	C112	0.784900	0.942900	0.040300
C1131	C113	0.850100	0.116500	0.782100
C1141	C114	0.886100	0.064000	0.813600
C1151	C115	0.862900	0.036100	0.870900
C1161	C116	0.896500	0.984500	0.899500
C1171	C117	0.953200	0.960800	0.870800
C1181	C118	0.976400	0.988700	0.813500
C1191	C119	0.942900	0.040300	0.784900
C1201	C120	0.149900	0.616500	0.717900
C1211	C121	0.113900	0.564000	0.686400
C1221	C122	0.137100	0.536100	0.629100
C1231	C123	0.103500	0.484500	0.600500
C1241	C124	0.046800	0.460800	0.629200
C1251	C125	0.023600	0.488700	0.686500
C1261	C126	0.057100	0.540300	0.715100
C1271	C127	0.649900	0.883500	0.282100
C1281	C128	0.613900	0.936000	0.313600
C1291	C129	0.637100	0.963900	0.370900
C1301	C130	0.603500	0.015500	0.399500
C1311	C131	0.546800	0.039200	0.370800
C1321	C132	0.523600	0.011300	0.313500
C1331	C133	0.557100	0.959700	0.284900
C1341	C134	0.350100	0.383500	0.217900
C1351	C135	0.386100	0.436000	0.186400
C1361	C136	0.362900	0.463900	0.129100
C1371	C137	0.396500	0.515500	0.100500
C1381	C138	0.453200	0.539200	0.129200
C1391	C139	0.476400	0.511300	0.186500
C1401	C140	0.442900	0.459700	0.215100
C1411	C141	0.616500	0.717900	0.149900
C1421	C142	0.564000	0.686400	0.113900
C1431	C143	0.536100	0.629100	0.137100
C1441	C144	0.484500	0.600500	0.103500
C1451	C145	0.460800	0.629200	0.046800
C1461	C146	0.488700	0.686500	0.023600
C1471	C147	0.540300	0.715100	0.057100
C1481	C148	0.116500	0.782100	0.850100
C1491	C149	0.064000	0.813600	0.886100
C1501	C150	0.036100	0.870900	0.862900
C1511	C151	0.984500	0.899500	0.896500
C1521	C152	0.960800	0.870800	0.953200
C1531	C153	0.988700	0.813500	0.976400
C1541	C154	0.040300	0.784900	0.942900
C1551	C155	0.383500	0.217900	0.350100
C1561	C156	0.436000	0.186400	0.386100
C1571	C157	0.463900	0.129100	0.362900
C1581	C158	0.515500	0.100500	0.396500
C1591	C159	0.539200	0.129200	0.453200
C1601	C160	0.511300	0.186500	0.476400
C1611	C161	0.459700	0.215100	0.442900
C1621	C162	0.883500	0.282100	0.649900
C1631	C163	0.936000	0.313600	0.613900
C1641	C164	0.963900	0.370900	0.637100
C1651	C165	0.015500	0.399500	0.603500
C1661	C166	0.039200	0.370800	0.546800
C1671	C167	0.011300	0.313500	0.523600
C1681	C168	0.959700	0.284900	0.557100
O11	O1	0.051700	0.452400	0.898200
O21	O2	0.129600	0.517000	0.883300
O31	O3	0.448300	0.547600	0.398200
O41	O4	0.370400	0.483000	0.383300
O51	O5	0.948300	0.952400	0.601800
O61	O6	0.870400	0.017000	0.616700
O71	O7	0.551700	0.047600	0.101800
O81	O8	0.629600	0.983000	0.116700
O91	O9	0.898200	0.051700	0.452400
O101	O10	0.883300	0.129600	0.517000
O111	O11	0.398200	0.448300	0.547600
O121	O12	0.383300	0.370400	0.483000
O131	O13	0.601800	0.948300	0.952400
O141	O14	0.616700	0.870400	0.017000
O151	O15	0.101800	0.551700	0.047600
O161	O16	0.116700	0.629600	0.983000
O171	O17	0.452400	0.898200	0.051700
O181	O18	0.517000	0.883300	0.129600
O191	O19	0.547600	0.398200	0.448300
O201	O20	0.483000	0.383300	0.370400
O211	O21	0.952400	0.601800	0.948300
O221	O22	0.017000	0.616700	0.870400
O231	O23	0.047600	0.101800	0.551700
O241	O24	0.983000	0.116700	0.629600
O251	O25	0.202400	0.301700	0.351800
O261	O26	0.267000	0.379600	0.366700
O271	O27	0.297600	0.698300	0.851800
O281	O28	0.233000	0.620400	0.866700
O291	O29	0.702400	0.198300	0.648200
O301	O30	0.767000	0.120400	0.633300
O311	O31	0.797600	0.801700	0.148200
O321	O32	0.733000	0.879600	0.133300
O331	O33	0.801700	0.148200	0.797600
O341	O34	0.879600	0.133300	0.733000
O351	O35	0.198300	0.648200	0.702400
O361	O36	0.120400	0.633300	0.767000
O371	O37	0.698300	0.851800	0.297600
O381	O38	0.620400	0.866700	0.233000
O391	O39	0.301700	0.351800	0.202400
O401	O40	0.379600	0.366700	0.267000
O411	O41	0.648200	0.702400	0.198300
O421	O42	0.633300	0.767000	0.120400
O431	O43	0.148200	0.797600	0.801700
O441	O44	0.133300	0.733000	0.879600
O451	O45	0.351800	0.202400	0.301700
O461	O46	0.366700	0.267000	0.379600
O471	O47	0.851800	0.297600	0.698300
O481	O48	0.866700	0.233000	0.620400
