data_NERVEL_clean_PM
_symmetry_space_group_name_H-M	'P1'
_cell_length_a	10.540700
_cell_length_b	11.826600
_cell_length_c	14.112200
_cell_angle_alpha	106.878000
_cell_angle_beta	102.411000
_cell_angle_gamma	111.011000
_symmetry_Int_Tables_number 1

loop_
_symmetry_equiv_pos_as_xyz
'x,y,z'

loop_
_atom_site_label
_atom_site_type_symbol
_atom_site_fract_x
_atom_site_fract_y
_atom_site_fract_z
Co11	Co1	0.806700	0.508590	0.787330
Co21	Co2	0.548800	0.769180	0.309930
Co31	Co3	0.193300	0.491410	0.212670
Co41	Co4	0.451200	0.230820	0.690070
H11	H1	0.878000	0.822100	0.385700
H21	H2	0.054600	0.806200	0.319500
H31	H3	0.002500	0.729300	0.137700
H41	H4	0.593400	0.667300	0.100800
H51	H5	0.732600	0.994000	0.250100
H61	H6	0.846400	0.220400	0.313100
H71	H7	0.833500	0.346300	0.466800
H81	H8	0.615400	0.012000	0.494700
H91	H9	0.976200	0.810000	0.864200
H101	H10	0.001000	0.977600	0.807500
H111	H11	0.860200	0.927900	0.636500
H121	H12	0.693400	0.546300	0.586900
H131	H13	0.074500	0.542300	0.709000
H141	H14	0.317600	0.605400	0.777700
H151	H15	0.432700	0.679800	0.959900
H161	H16	0.045400	0.604000	0.987900
H171	H17	0.581400	0.481400	0.788400
H181	H18	0.526500	0.448300	0.690000
H191	H19	0.122000	0.177900	0.614300
H201	H20	0.945400	0.193800	0.680500
H211	H21	0.997500	0.270700	0.862300
H221	H22	0.406600	0.332700	0.899200
H231	H23	0.267400	0.006000	0.749900
H241	H24	0.153600	0.779600	0.686900
H251	H25	0.166500	0.653700	0.533200
H261	H26	0.384600	0.988000	0.505300
H271	H27	0.023800	0.190000	0.135800
H281	H28	0.999000	0.022400	0.192500
H291	H29	0.139800	0.072100	0.363500
H301	H30	0.306600	0.453700	0.413100
H311	H31	0.925500	0.457700	0.291000
H321	H32	0.682400	0.394600	0.222300
H331	H33	0.567300	0.320200	0.040100
H341	H34	0.954600	0.396000	0.012100
H351	H35	0.418600	0.518600	0.211600
H361	H36	0.473500	0.551700	0.310000
C11	C1	0.854600	0.787400	0.312600
C21	C2	0.962000	0.779700	0.273400
C31	C3	0.930800	0.732600	0.165500
C41	C4	0.790600	0.690400	0.099400
C51	C5	0.688400	0.698100	0.145400
C61	C6	0.742100	0.633800	0.980100
C71	C7	0.731000	0.043700	0.314000
C81	C8	0.797300	0.179600	0.350500
C91	C9	0.790700	0.254500	0.442100
C101	C10	0.719500	0.191500	0.496800
C111	C11	0.660600	0.054900	0.456700
C121	C12	0.698900	0.265800	0.594100
C131	C13	0.921600	0.789100	0.794900
C141	C14	0.936200	0.890500	0.761700
C151	C15	0.853800	0.861000	0.660000
C161	C16	0.761400	0.730100	0.593500
C171	C17	0.754800	0.634400	0.632100
C181	C18	0.666400	0.690400	0.480900
C191	C19	0.118600	0.569700	0.781600
C201	C20	0.264500	0.608000	0.822400
C211	C21	0.333000	0.650900	0.930800
C221	C22	0.249500	0.649500	0.994300
C231	C23	0.102200	0.607100	0.945700
C241	C24	0.306500	0.681800	0.110900
C251	C25	0.145400	0.212600	0.687400
C261	C26	0.038000	0.220300	0.726600
C271	C27	0.069200	0.267400	0.834500
C281	C28	0.209400	0.309600	0.900600
C291	C29	0.311600	0.301900	0.854600
C301	C30	0.257900	0.366200	0.019900
C311	C31	0.269000	0.956300	0.686000
C321	C32	0.202700	0.820400	0.649500
C331	C33	0.209300	0.745500	0.557900
C341	C34	0.280500	0.808500	0.503200
C351	C35	0.339400	0.945100	0.543300
C361	C36	0.301100	0.734200	0.405900
C371	C37	0.078400	0.210900	0.205100
C381	C38	0.063800	0.109500	0.238300
C391	C39	0.146200	0.139000	0.340000
C401	C40	0.238600	0.269900	0.406500
C411	C41	0.245200	0.365600	0.367900
C421	C42	0.333600	0.309600	0.519100
C431	C43	0.881400	0.430300	0.218400
C441	C44	0.735500	0.392000	0.177600
C451	C45	0.667000	0.349100	0.069200
C461	C46	0.750500	0.350500	0.005700
C471	C47	0.897800	0.392900	0.054300
C481	C48	0.693500	0.318200	0.889100
N11	N1	0.718600	0.747100	0.250070
N21	N2	0.664800	0.981200	0.366870
N31	N3	0.832500	0.662400	0.731700
N41	N4	0.036600	0.570300	0.842500
N51	N5	0.281400	0.252900	0.749930
N61	N6	0.335200	0.018800	0.633130
N71	N7	0.167500	0.337600	0.268300
N81	N8	0.963400	0.429700	0.157500
O11	O1	0.837000	0.635300	0.939740
O21	O2	0.609600	0.586700	0.929870
O31	O3	0.782700	0.387600	0.640730
O41	O4	0.600200	0.200100	0.619580
O51	O5	0.666500	0.783100	0.454850
O61	O6	0.596000	0.570200	0.423500
O71	O7	0.214800	0.634900	0.149620
O81	O8	0.441400	0.751600	0.160330
O91	O9	0.574000	0.441400	0.742520
O101	O10	0.163000	0.364700	0.060260
O111	O11	0.390400	0.413300	0.070130
O121	O12	0.217300	0.612400	0.359270
O131	O13	0.399800	0.799900	0.380420
O141	O14	0.333500	0.216900	0.545150
O151	O15	0.404000	0.429800	0.576500
O161	O16	0.785200	0.365100	0.850380
O171	O17	0.558600	0.248400	0.839670
O181	O18	0.426000	0.558600	0.257480
