data_NESVAK_charged_PM
_symmetry_space_group_name_H-M	'P1'
_cell_length_a	21.522100
_cell_length_b	21.522100
_cell_length_c	25.333900
_cell_angle_alpha	64.864000
_cell_angle_beta	64.864000
_cell_angle_gamma	60.000000
_symmetry_Int_Tables_number 1

loop_
_symmetry_equiv_pos_as_xyz
'x,y,z'

loop_
_atom_site_label
_atom_site_type_symbol
_atom_site_fract_x
_atom_site_fract_y
_atom_site_fract_z
Cd11	Cd1	0.337690	0.733310	0.413460
Cd21	Cd2	0.217420	0.780090	0.552990
Cd31	Cd3	0.367940	0.779790	0.775530
Cd41	Cd4	0.733310	0.515540	0.413460
Cd51	Cd5	0.780090	0.449500	0.552990
Cd61	Cd6	0.779790	0.076740	0.775530
Cd71	Cd7	0.515540	0.337690	0.413460
Cd81	Cd8	0.449500	0.217420	0.552990
Cd91	Cd9	0.076740	0.367940	0.775530
Cd101	Cd10	0.837690	0.015540	0.913460
Cd111	Cd11	0.717420	0.949500	0.052990
Cd121	Cd12	0.867940	0.576740	0.275530
Cd131	Cd13	0.233310	0.837690	0.913460
Cd141	Cd14	0.280090	0.717420	0.052990
Cd151	Cd15	0.279790	0.867940	0.275530
Cd161	Cd16	0.015540	0.233310	0.913460
Cd171	Cd17	0.949500	0.280090	0.052990
Cd181	Cd18	0.576740	0.279790	0.275530
H11	H1	0.363300	0.746100	0.600300
H21	H2	0.556500	0.624800	0.645300
H31	H3	0.544100	0.635200	0.486600
H41	H4	0.424500	0.524700	0.343500
H51	H5	0.430000	0.517000	0.184800
H61	H6	0.317300	0.716600	0.226200
H71	H7	0.119100	0.029000	0.312000
H81	H8	0.018600	0.113200	0.365400
H91	H9	0.991300	0.081600	0.471000
H101	H10	0.064500	0.966100	0.522900
H111	H11	0.746100	0.290300	0.600300
H121	H12	0.624800	0.173400	0.645300
H131	H13	0.635200	0.334100	0.486600
H141	H14	0.524700	0.707300	0.343500
H151	H15	0.517000	0.868200	0.184800
H161	H16	0.716600	0.739900	0.226200
H171	H17	0.029000	0.539900	0.312000
H181	H18	0.113200	0.502800	0.365400
H191	H19	0.081600	0.456100	0.471000
H201	H20	0.966100	0.446500	0.522900
H211	H21	0.290300	0.363300	0.600300
H221	H22	0.173400	0.556500	0.645300
H231	H23	0.334100	0.544100	0.486600
H241	H24	0.707300	0.424500	0.343500
H251	H25	0.868200	0.430000	0.184800
H261	H26	0.739900	0.317300	0.226200
H271	H27	0.539900	0.119100	0.312000
H281	H28	0.502800	0.018600	0.365400
H291	H29	0.456100	0.991300	0.471000
H301	H30	0.446500	0.064500	0.522900
H311	H31	0.863300	0.790300	0.100300
H321	H32	0.056500	0.673400	0.145300
H331	H33	0.044100	0.834100	0.986600
H341	H34	0.924500	0.207300	0.843500
H351	H35	0.930000	0.368200	0.684800
H361	H36	0.817300	0.239900	0.726200
H371	H37	0.619100	0.039900	0.812000
H381	H38	0.518600	0.002800	0.865400
H391	H39	0.491300	0.956100	0.971000
H401	H40	0.564500	0.946500	0.022900
H411	H41	0.246100	0.863300	0.100300
H421	H42	0.124800	0.056500	0.145300
H431	H43	0.135200	0.044100	0.986600
H441	H44	0.024700	0.924500	0.843500
H451	H45	0.017000	0.930000	0.684800
H461	H46	0.216600	0.817300	0.726200
H471	H47	0.529000	0.619100	0.812000
H481	H48	0.613200	0.518600	0.865400
H491	H49	0.581600	0.491300	0.971000
H501	H50	0.466100	0.564500	0.022900
H511	H51	0.790300	0.246100	0.100300
H521	H52	0.673400	0.124800	0.145300
H531	H53	0.834100	0.135200	0.986600
H541	H54	0.207300	0.024700	0.843500
H551	H55	0.368200	0.017000	0.684800
H561	H56	0.239900	0.216600	0.726200
H571	H57	0.039900	0.529000	0.812000
H581	H58	0.002800	0.613200	0.865400
H591	H59	0.956100	0.581600	0.971000
H601	H60	0.946500	0.466100	0.022900
C11	C1	0.402830	0.715930	0.494910
C21	C2	0.446990	0.693290	0.538230
C31	C3	0.414340	0.713540	0.591480
C41	C4	0.453740	0.688040	0.631380
C51	C5	0.528740	0.640940	0.617880
C61	C6	0.564990	0.616490	0.565230
C71	C7	0.521510	0.646910	0.524370
C81	C8	0.420010	0.713210	0.687870
C91	C9	0.641010	0.566810	0.551370
C101	C10	0.350370	0.672770	0.332490
C111	C11	0.369910	0.626910	0.291270
C121	C12	0.412110	0.549710	0.305970
C131	C13	0.435850	0.509950	0.264750
C141	C14	0.413620	0.545020	0.212040
C151	C15	0.367560	0.620760	0.197820
C161	C16	0.346150	0.664450	0.236250
C171	C17	0.341600	0.657400	0.142800
C181	C18	0.482450	0.427150	0.279450
C191	C19	0.135250	0.928950	0.448350
C201	C20	0.151410	0.947610	0.385770
C211	C21	0.108000	0.016200	0.354900
C221	C22	0.048330	0.066130	0.386610
C231	C23	0.032170	0.047470	0.449190
C241	C24	0.075580	0.978880	0.480060
C251	C25	0.715930	0.386330	0.494910
C261	C26	0.693290	0.321490	0.538230
C271	C27	0.713540	0.280640	0.591480
C281	C28	0.688040	0.226840	0.631380
C291	C29	0.640940	0.212440	0.617880
C301	C30	0.616490	0.253290	0.565230
C311	C31	0.646910	0.307210	0.524370
C321	C32	0.713210	0.178910	0.687870
C331	C33	0.566810	0.240810	0.551370
C341	C34	0.672770	0.644370	0.332490
C351	C35	0.626910	0.711910	0.291270
C361	C36	0.549710	0.732210	0.305970
C371	C37	0.509950	0.789450	0.264750
C381	C38	0.545020	0.829320	0.212040
C391	C39	0.620760	0.813860	0.197820
C401	C40	0.664450	0.753150	0.236250
C411	C41	0.657400	0.858200	0.142800
C421	C42	0.427150	0.810950	0.279450
C431	C43	0.928950	0.487450	0.448350
C441	C44	0.947610	0.515210	0.385770
C451	C45	0.016200	0.520900	0.354900
C461	C46	0.066130	0.498930	0.386610
C471	C47	0.047470	0.471170	0.449190
C481	C48	0.978880	0.465480	0.480060
C491	C49	0.386330	0.402830	0.494910
C501	C50	0.321490	0.446990	0.538230
C511	C51	0.280640	0.414340	0.591480
C521	C52	0.226840	0.453740	0.631380
C531	C53	0.212440	0.528740	0.617880
C541	C54	0.253290	0.564990	0.565230
C551	C55	0.307210	0.521510	0.524370
C561	C56	0.178910	0.420010	0.687870
C571	C57	0.240810	0.641010	0.551370
C581	C58	0.644370	0.350370	0.332490
C591	C59	0.711910	0.369910	0.291270
C601	C60	0.732210	0.412110	0.305970
C611	C61	0.789450	0.435850	0.264750
C621	C62	0.829320	0.413620	0.212040
C631	C63	0.813860	0.367560	0.197820
C641	C64	0.753150	0.346150	0.236250
C651	C65	0.858200	0.341600	0.142800
C661	C66	0.810950	0.482450	0.279450
C671	C67	0.487450	0.135250	0.448350
C681	C68	0.515210	0.151410	0.385770
C691	C69	0.520900	0.108000	0.354900
C701	C70	0.498930	0.048330	0.386610
C711	C71	0.471170	0.032170	0.449190
C721	C72	0.465480	0.075580	0.480060
C731	C73	0.902830	0.886330	0.994910
C741	C74	0.946990	0.821490	0.038230
C751	C75	0.914340	0.780640	0.091480
C761	C76	0.953740	0.726840	0.131380
C771	C77	0.028740	0.712440	0.117880
C781	C78	0.064990	0.753290	0.065230
C791	C79	0.021510	0.807210	0.024370
C801	C80	0.920010	0.678910	0.187870
C811	C81	0.141010	0.740810	0.051370
C821	C82	0.850370	0.144370	0.832490
C831	C83	0.869910	0.211910	0.791270
C841	C84	0.912110	0.232210	0.805970
C851	C85	0.935850	0.289450	0.764750
C861	C86	0.913620	0.329320	0.712040
C871	C87	0.867560	0.313860	0.697820
C881	C88	0.846150	0.253150	0.736250
C891	C89	0.841600	0.358200	0.642800
C901	C90	0.982450	0.310950	0.779450
C911	C91	0.635250	0.987450	0.948350
C921	C92	0.651410	0.015210	0.885770
C931	C93	0.608000	0.020900	0.854900
C941	C94	0.548330	0.998930	0.886610
C951	C95	0.532170	0.971170	0.949190
C961	C96	0.575580	0.965480	0.980060
C971	C97	0.215930	0.902830	0.994910
C981	C98	0.193290	0.946990	0.038230
C991	C99	0.213540	0.914340	0.091480
C1001	C100	0.188040	0.953740	0.131380
C1011	C101	0.140940	0.028740	0.117880
C1021	C102	0.116490	0.064990	0.065230
C1031	C103	0.146910	0.021510	0.024370
C1041	C104	0.213210	0.920010	0.187870
C1051	C105	0.066810	0.141010	0.051370
C1061	C106	0.172770	0.850370	0.832490
C1071	C107	0.126910	0.869910	0.791270
C1081	C108	0.049710	0.912110	0.805970
C1091	C109	0.009950	0.935850	0.764750
C1101	C110	0.045020	0.913620	0.712040
C1111	C111	0.120760	0.867560	0.697820
C1121	C112	0.164450	0.846150	0.736250
C1131	C113	0.157400	0.841600	0.642800
C1141	C114	0.927150	0.982450	0.779450
C1151	C115	0.428950	0.635250	0.948350
C1161	C116	0.447610	0.651410	0.885770
C1171	C117	0.516200	0.608000	0.854900
C1181	C118	0.566130	0.548330	0.886610
C1191	C119	0.547470	0.532170	0.949190
C1201	C120	0.478880	0.575580	0.980060
C1211	C121	0.886330	0.215930	0.994910
C1221	C122	0.821490	0.193290	0.038230
C1231	C123	0.780640	0.213540	0.091480
C1241	C124	0.726840	0.188040	0.131380
C1251	C125	0.712440	0.140940	0.117880
C1261	C126	0.753290	0.116490	0.065230
C1271	C127	0.807210	0.146910	0.024370
C1281	C128	0.678910	0.213210	0.187870
C1291	C129	0.740810	0.066810	0.051370
C1301	C130	0.144370	0.172770	0.832490
C1311	C131	0.211910	0.126910	0.791270
C1321	C132	0.232210	0.049710	0.805970
C1331	C133	0.289450	0.009950	0.764750
C1341	C134	0.329320	0.045020	0.712040
C1351	C135	0.313860	0.120760	0.697820
C1361	C136	0.253150	0.164450	0.736250
C1371	C137	0.358200	0.157400	0.642800
C1381	C138	0.310950	0.927150	0.779450
C1391	C139	0.987450	0.428950	0.948350
C1401	C140	0.015210	0.447610	0.885770
C1411	C141	0.020900	0.516200	0.854900
C1421	C142	0.998930	0.566130	0.886610
C1431	C143	0.971170	0.547470	0.949190
C1441	C144	0.965480	0.478880	0.980060
N11	N1	0.185120	0.855820	0.466440
N21	N2	0.230300	0.835200	0.417300
N31	N3	0.206260	0.883760	0.367320
N41	N4	0.855820	0.492620	0.466440
N51	N5	0.835200	0.517200	0.417300
N61	N6	0.883760	0.542660	0.367320
N71	N7	0.492620	0.185120	0.466440
N81	N8	0.517200	0.230300	0.417300
N91	N9	0.542660	0.206260	0.367320
N101	N10	0.685120	0.992620	0.966440
N111	N11	0.730300	0.017200	0.917300
N121	N12	0.706260	0.042660	0.867320
N131	N13	0.355820	0.685120	0.966440
N141	N14	0.335200	0.730300	0.917300
N151	N15	0.383760	0.706260	0.867320
N161	N16	0.992620	0.355820	0.966440
N171	N17	0.017200	0.335200	0.917300
N181	N18	0.042660	0.383760	0.867320
O11	O1	0.339000	0.766100	0.502500
O21	O2	0.432390	0.683090	0.454830
O31	O3	0.363470	0.770470	0.690090
O41	O4	0.451330	0.675830	0.730110
O51	O5	0.673450	0.532150	0.592050
O61	O6	0.675170	0.552970	0.500790
O71	O7	0.385180	0.641080	0.371760
O81	O8	0.299340	0.736240	0.328380
O91	O9	0.469050	0.389250	0.331950
O101	O10	0.532340	0.403940	0.234780
O111	O11	0.296380	0.721980	0.134460
O121	O12	0.353270	0.618570	0.113190
O131	O13	0.482070	0.789170	0.747990
O141	O14	0.766100	0.392400	0.502500
O151	O15	0.683090	0.429690	0.454830
O161	O16	0.770470	0.175970	0.690090
O171	O17	0.675830	0.142730	0.730110
O181	O18	0.532150	0.202350	0.592050
O191	O19	0.552970	0.271070	0.500790
O201	O20	0.641080	0.601980	0.371760
O211	O21	0.736240	0.636040	0.328380
O221	O22	0.389250	0.809750	0.331950
O231	O23	0.403940	0.828940	0.234780
O241	O24	0.721980	0.847180	0.134460
O251	O25	0.618570	0.914970	0.113190
O261	O26	0.789170	0.980770	0.747990
O271	O27	0.392400	0.339000	0.502500
O281	O28	0.429690	0.432390	0.454830
O291	O29	0.175970	0.363470	0.690090
O301	O30	0.142730	0.451330	0.730110
O311	O31	0.202350	0.673450	0.592050
O321	O32	0.271070	0.675170	0.500790
O331	O33	0.601980	0.385180	0.371760
O341	O34	0.636040	0.299340	0.328380
O351	O35	0.809750	0.469050	0.331950
O361	O36	0.828940	0.532340	0.234780
O371	O37	0.847180	0.296380	0.134460
O381	O38	0.914970	0.353270	0.113190
O391	O39	0.980770	0.482070	0.747990
O401	O40	0.839000	0.892400	0.002500
O411	O41	0.932390	0.929690	0.954830
O421	O42	0.863470	0.675970	0.190090
O431	O43	0.951330	0.642730	0.230110
O441	O44	0.173450	0.702350	0.092050
O451	O45	0.175170	0.771070	0.000790
O461	O46	0.885180	0.101980	0.871760
O471	O47	0.799340	0.136040	0.828380
O481	O48	0.969050	0.309750	0.831950
O491	O49	0.032340	0.328940	0.734780
O501	O50	0.796380	0.347180	0.634460
O511	O51	0.853270	0.414970	0.613190
O521	O52	0.982070	0.480770	0.247990
O531	O53	0.266100	0.839000	0.002500
O541	O54	0.183090	0.932390	0.954830
O551	O55	0.270470	0.863470	0.190090
O561	O56	0.175830	0.951330	0.230110
O571	O57	0.032150	0.173450	0.092050
O581	O58	0.052970	0.175170	0.000790
O591	O59	0.141080	0.885180	0.871760
O601	O60	0.236240	0.799340	0.828380
O611	O61	0.889250	0.969050	0.831950
O621	O62	0.903940	0.032340	0.734780
O631	O63	0.221980	0.796380	0.634460
O641	O64	0.118570	0.853270	0.613190
O651	O65	0.289170	0.982070	0.247990
O661	O66	0.892400	0.266100	0.002500
O671	O67	0.929690	0.183090	0.954830
O681	O68	0.675970	0.270470	0.190090
O691	O69	0.642730	0.175830	0.230110
O701	O70	0.702350	0.032150	0.092050
O711	O71	0.771070	0.052970	0.000790
O721	O72	0.101980	0.141080	0.871760
O731	O73	0.136040	0.236240	0.828380
O741	O74	0.309750	0.889250	0.831950
O751	O75	0.328940	0.903940	0.734780
O761	O76	0.347180	0.221980	0.634460
O771	O77	0.414970	0.118570	0.613190
O781	O78	0.480770	0.289170	0.247990
