data_NETHOJ_clean_h_PM
_symmetry_space_group_name_H-M	'P1'
_cell_length_a	8.462000
_cell_length_b	9.721000
_cell_length_c	17.266000
_cell_angle_alpha	90.000000
_cell_angle_beta	90.000000
_cell_angle_gamma	112.170000
_symmetry_Int_Tables_number 1

loop_
_symmetry_equiv_pos_as_xyz
'x,y,z'

loop_
_atom_site_label
_atom_site_type_symbol
_atom_site_fract_x
_atom_site_fract_y
_atom_site_fract_z
Dy11	Dy1	0.843530	0.524700	0.742220
Dy21	Dy2	0.156470	0.975300	0.242220
Dy31	Dy3	0.156470	0.475300	0.257780
Dy41	Dy4	0.843530	0.024700	0.757780
C11	C1	0.905000	0.524000	0.902100
C21	C2	0.944000	0.529000	0.986300
C31	C3	0.130000	0.867000	0.787500
C41	C4	0.314000	0.962000	0.784400
C51	C5	0.375000	0.105000	0.802000
C61	C6	0.560000	0.201000	0.790500
C71	C7	0.095000	0.976000	0.402100
C81	C8	0.056000	0.971000	0.486300
C91	C9	0.870000	0.633000	0.287500
C101	C10	0.686000	0.538000	0.284400
C111	C11	0.625000	0.395000	0.302000
C121	C12	0.440000	0.299000	0.290500
C131	C13	0.095000	0.476000	0.097900
C141	C14	0.056000	0.471000	0.013700
C151	C15	0.870000	0.133000	0.212500
C161	C16	0.686000	0.038000	0.215600
C171	C17	0.625000	0.895000	0.198000
C181	C18	0.440000	0.799000	0.209500
C191	C19	0.905000	0.024000	0.597900
C201	C20	0.944000	0.029000	0.513700
C211	C21	0.130000	0.367000	0.712500
C221	C22	0.314000	0.462000	0.715600
C231	C23	0.375000	0.605000	0.698000
C241	C24	0.560000	0.701000	0.709500
O11	O1	0.963000	0.453700	0.855600
O21	O2	0.813000	0.591400	0.878100
O31	O3	0.090000	0.733000	0.769200
O41	O4	0.025100	0.924100	0.806100
O51	O5	0.661000	0.143000	0.771000
O61	O6	0.601000	0.338300	0.797900
O71	O7	0.037000	0.046300	0.355600
O81	O8	0.187000	0.908600	0.378100
O91	O9	0.910000	0.767000	0.269200
O101	O10	0.974900	0.575900	0.306100
O111	O11	0.339000	0.357000	0.271000
O121	O12	0.399000	0.161700	0.297900
O131	O13	0.037000	0.546300	0.144400
O141	O14	0.187000	0.408600	0.121900
O151	O15	0.910000	0.267000	0.230800
O161	O16	0.974900	0.075900	0.193900
O171	O17	0.339000	0.857000	0.229000
O181	O18	0.399000	0.661700	0.202100
O191	O19	0.963000	0.953700	0.644400
O201	O20	0.813000	0.091400	0.621900
O211	O21	0.090000	0.233000	0.730800
O221	O22	0.025100	0.424100	0.693900
O231	O23	0.661000	0.643000	0.729000
O241	O24	0.601000	0.838300	0.702100
H11	H1	0.879650	0.581840	0.028390
H21	H2	0.410750	0.912430	0.766140
H31	H3	0.286600	0.158260	0.826540
H41	H4	0.120350	0.918160	0.528390
H51	H5	0.589250	0.587570	0.266140
H61	H6	0.713400	0.341740	0.326540
H71	H7	0.120350	0.418160	0.971610
H81	H8	0.589250	0.087570	0.233860
H91	H9	0.713400	0.841740	0.173460
H101	H10	0.410750	0.412430	0.733860
H111	H11	0.286600	0.658260	0.673460
