data_NETYIV01_clean_PM
_symmetry_space_group_name_H-M	'P1'
_cell_length_a	19.759500
_cell_length_b	17.517600
_cell_length_c	22.161000
_cell_angle_alpha	90.000000
_cell_angle_beta	109.786000
_cell_angle_gamma	90.000000
_symmetry_Int_Tables_number 1

loop_
_symmetry_equiv_pos_as_xyz
'x,y,z'

loop_
_atom_site_label
_atom_site_type_symbol
_atom_site_fract_x
_atom_site_fract_y
_atom_site_fract_z
Cu11	Cu1	0.867240	0.820680	0.165920
C11	C1	0.709800	0.096700	0.317320
H11	H1	0.729600	0.056700	0.345400
C21	C2	0.684600	0.160700	0.339000
H21	H2	0.688400	0.162700	0.381900
N11	N1	0.654900	0.220340	0.301400
C31	C3	0.648700	0.214500	0.240020
H31	H3	0.625900	0.253800	0.212500
C41	C4	0.674300	0.153100	0.214700
H41	H4	0.670400	0.152900	0.171700
C51	C5	0.706000	0.091600	0.254200
C61	C6	0.738600	0.026900	0.230860
C71	C7	0.776600	0.039600	0.189600
H51	H5	0.779200	0.088500	0.174200
C81	C8	0.810500	0.979900	0.171500
H61	H6	0.836900	0.990400	0.144900
N21	N2	0.807730	0.907580	0.189880
C91	C9	0.768700	0.895700	0.227860
H71	H7	0.764300	0.845800	0.240300
C101	C10	0.734500	0.952600	0.250000
H81	H8	0.709200	0.940900	0.277300
C111	C11	0.405600	0.499400	0.891000
H91	H9	0.367900	0.522800	0.900100
C121	C12	0.339800	0.393100	0.040300
H101	H10	0.294800	0.403200	0.043200
C131	C13	0.355600	0.422400	0.989000
C141	C14	0.421400	0.407900	0.982080
C151	C15	0.440700	0.438500	0.927430
C161	C16	0.495400	0.406500	0.910100
H111	H11	0.521700	0.365800	0.933500
C171	C17	0.449100	0.336700	0.078800
H121	H12	0.482000	0.306700	0.109700
C181	C18	0.468700	0.363000	0.029200
C191	C19	0.511200	0.434400	0.858300
N31	N3	0.477110	0.493920	0.823220
H131	H13	0.513700	0.350900	0.027000
C201	C20	0.425700	0.525800	0.841300
N41	N4	0.386000	0.350700	0.086210
H141	H14	0.402100	0.568500	0.818900
H151	H15	0.547300	0.410700	0.847100
H161	H16	0.321800	0.452200	0.958700
Cu21	Cu2	0.367240	0.320680	0.165920
C211	C21	0.209800	0.596700	0.317320
H171	H17	0.229600	0.556700	0.345400
C221	C22	0.184600	0.660700	0.339000
H181	H18	0.188400	0.662700	0.381900
N51	N5	0.154900	0.720340	0.301400
C231	C23	0.148700	0.714500	0.240020
H191	H19	0.125900	0.753800	0.212500
C241	C24	0.174300	0.653100	0.214700
H201	H20	0.170400	0.652900	0.171700
C251	C25	0.206000	0.591600	0.254200
C261	C26	0.238600	0.526900	0.230860
C271	C27	0.276600	0.539600	0.189600
H211	H21	0.279200	0.588500	0.174200
C281	C28	0.310500	0.479900	0.171500
H221	H22	0.336900	0.490400	0.144900
N61	N6	0.307730	0.407580	0.189880
C291	C29	0.268700	0.395700	0.227860
H231	H23	0.264300	0.345800	0.240300
C301	C30	0.234500	0.452600	0.250000
H241	H24	0.209200	0.440900	0.277300
C311	C31	0.905600	0.999400	0.891000
H251	H25	0.867900	0.022800	0.900100
C321	C32	0.839800	0.893100	0.040300
H261	H26	0.794800	0.903200	0.043200
C331	C33	0.855600	0.922400	0.989000
C341	C34	0.921400	0.907900	0.982080
C351	C35	0.940700	0.938500	0.927430
C361	C36	0.995400	0.906500	0.910100
H271	H27	0.021700	0.865800	0.933500
C371	C37	0.949100	0.836700	0.078800
H281	H28	0.982000	0.806700	0.109700
C381	C38	0.968700	0.863000	0.029200
C391	C39	0.011200	0.934400	0.858300
N71	N7	0.977110	0.993920	0.823220
H291	H29	0.013700	0.850900	0.027000
C401	C40	0.925700	0.025800	0.841300
N81	N8	0.886000	0.850700	0.086210
H301	H30	0.902100	0.068500	0.818900
H311	H31	0.047300	0.910700	0.847100
H321	H32	0.821800	0.952200	0.958700
Cu31	Cu3	0.132760	0.820680	0.334080
C411	C41	0.290200	0.096700	0.182680
H331	H33	0.270400	0.056700	0.154600
C421	C42	0.315400	0.160700	0.161000
H341	H34	0.311600	0.162700	0.118100
N91	N9	0.345100	0.220340	0.198600
C431	C43	0.351300	0.214500	0.259980
H351	H35	0.374100	0.253800	0.287500
C441	C44	0.325700	0.153100	0.285300
H361	H36	0.329600	0.152900	0.328300
C451	C45	0.294000	0.091600	0.245800
C461	C46	0.261400	0.026900	0.269140
C471	C47	0.223400	0.039600	0.310400
H371	H37	0.220800	0.088500	0.325800
C481	C48	0.189500	0.979900	0.328500
H381	H38	0.163100	0.990400	0.355100
N101	N10	0.192270	0.907580	0.310120
C491	C49	0.231300	0.895700	0.272140
H391	H39	0.235700	0.845800	0.259700
C501	C50	0.265500	0.952600	0.250000
H401	H40	0.290800	0.940900	0.222700
C511	C51	0.594400	0.499400	0.609000
H411	H41	0.632100	0.522800	0.599900
C521	C52	0.660200	0.393100	0.459700
H421	H42	0.705200	0.403200	0.456800
C531	C53	0.644400	0.422400	0.511000
C541	C54	0.578600	0.407900	0.517920
C551	C55	0.559300	0.438500	0.572570
C561	C56	0.504600	0.406500	0.589900
H431	H43	0.478300	0.365800	0.566500
C571	C57	0.550900	0.336700	0.421200
H441	H44	0.518000	0.306700	0.390300
C581	C58	0.531300	0.363000	0.470800
C591	C59	0.488800	0.434400	0.641700
N111	N11	0.522890	0.493920	0.676780
H451	H45	0.486300	0.350900	0.473000
C601	C60	0.574300	0.525800	0.658700
N121	N12	0.614000	0.350700	0.413790
H461	H46	0.597900	0.568500	0.681100
H471	H47	0.452700	0.410700	0.652900
H481	H48	0.678200	0.452200	0.541300
Cu41	Cu4	0.632760	0.320680	0.334080
C611	C61	0.790200	0.596700	0.182680
H491	H49	0.770400	0.556700	0.154600
C621	C62	0.815400	0.660700	0.161000
H501	H50	0.811600	0.662700	0.118100
N131	N13	0.845100	0.720340	0.198600
C631	C63	0.851300	0.714500	0.259980
H511	H51	0.874100	0.753800	0.287500
C641	C64	0.825700	0.653100	0.285300
H521	H52	0.829600	0.652900	0.328300
C651	C65	0.794000	0.591600	0.245800
C661	C66	0.761400	0.526900	0.269140
C671	C67	0.723400	0.539600	0.310400
H531	H53	0.720800	0.588500	0.325800
C681	C68	0.689500	0.479900	0.328500
H541	H54	0.663100	0.490400	0.355100
N141	N14	0.692270	0.407580	0.310120
C691	C69	0.731300	0.395700	0.272140
H551	H55	0.735700	0.345800	0.259700
C701	C70	0.765500	0.452600	0.250000
H561	H56	0.790800	0.440900	0.222700
C711	C71	0.094400	0.999400	0.609000
H571	H57	0.132100	0.022800	0.599900
C721	C72	0.160200	0.893100	0.459700
H581	H58	0.205200	0.903200	0.456800
C731	C73	0.144400	0.922400	0.511000
C741	C74	0.078600	0.907900	0.517920
C751	C75	0.059300	0.938500	0.572570
C761	C76	0.004600	0.906500	0.589900
H591	H59	0.978300	0.865800	0.566500
C771	C77	0.050900	0.836700	0.421200
H601	H60	0.018000	0.806700	0.390300
C781	C78	0.031300	0.863000	0.470800
C791	C79	0.988800	0.934400	0.641700
N151	N15	0.022890	0.993920	0.676780
H611	H61	0.986300	0.850900	0.473000
C801	C80	0.074300	0.025800	0.658700
N161	N16	0.114000	0.850700	0.413790
H621	H62	0.097900	0.068500	0.681100
H631	H63	0.952700	0.910700	0.652900
H641	H64	0.178200	0.952200	0.541300
Cl11	Cl1	0.500000	0.665730	0.750000
Cl21	Cl2	0.000000	0.165730	0.750000
Cu51	Cu5	0.500000	0.532550	0.750000
Cu61	Cu6	0.000000	0.032550	0.750000
Cu71	Cu7	0.132760	0.179320	0.834080
C811	C81	0.290200	0.903300	0.682680
H651	H65	0.270400	0.943300	0.654600
C821	C82	0.315400	0.839300	0.661000
H661	H66	0.311600	0.837300	0.618100
N171	N17	0.345100	0.779660	0.698600
C831	C83	0.351300	0.785500	0.759980
H671	H67	0.374100	0.746200	0.787500
C841	C84	0.325700	0.846900	0.785300
H681	H68	0.329600	0.847100	0.828300
C851	C85	0.294000	0.908400	0.745800
C861	C86	0.261400	0.973100	0.769140
C871	C87	0.223400	0.960400	0.810400
H691	H69	0.220800	0.911500	0.825800
C881	C88	0.189500	0.020100	0.828500
H701	H70	0.163100	0.009600	0.855100
N181	N18	0.192270	0.092420	0.810120
C891	C89	0.231300	0.104300	0.772140
H711	H71	0.235700	0.154200	0.759700
C901	C90	0.265500	0.047400	0.750000
H721	H72	0.290800	0.059100	0.722700
C911	C91	0.594400	0.500600	0.109000
H731	H73	0.632100	0.477200	0.099900
C921	C92	0.660200	0.606900	0.959700
H741	H74	0.705200	0.596800	0.956800
C931	C93	0.644400	0.577600	0.011000
C941	C94	0.578600	0.592100	0.017920
C951	C95	0.559300	0.561500	0.072570
C961	C96	0.504600	0.593500	0.089900
H751	H75	0.478300	0.634200	0.066500
C971	C97	0.550900	0.663300	0.921200
H761	H76	0.518000	0.693300	0.890300
C981	C98	0.531300	0.637000	0.970800
C991	C99	0.488800	0.565600	0.141700
N191	N19	0.522890	0.506080	0.176780
H771	H77	0.486300	0.649100	0.973000
C1001	C100	0.574300	0.474200	0.158700
N201	N20	0.614000	0.649300	0.913790
H781	H78	0.597900	0.431500	0.181100
H791	H79	0.452700	0.589300	0.152900
H801	H80	0.678200	0.547800	0.041300
Cu81	Cu8	0.632760	0.679320	0.834080
C1011	C101	0.790200	0.403300	0.682680
H811	H81	0.770400	0.443300	0.654600
C1021	C102	0.815400	0.339300	0.661000
H821	H82	0.811600	0.337300	0.618100
N211	N21	0.845100	0.279660	0.698600
C1031	C103	0.851300	0.285500	0.759980
H831	H83	0.874100	0.246200	0.787500
C1041	C104	0.825700	0.346900	0.785300
H841	H84	0.829600	0.347100	0.828300
C1051	C105	0.794000	0.408400	0.745800
C1061	C106	0.761400	0.473100	0.769140
C1071	C107	0.723400	0.460400	0.810400
H851	H85	0.720800	0.411500	0.825800
C1081	C108	0.689500	0.520100	0.828500
H861	H86	0.663100	0.509600	0.855100
N221	N22	0.692270	0.592420	0.810120
C1091	C109	0.731300	0.604300	0.772140
H871	H87	0.735700	0.654200	0.759700
C1101	C110	0.765500	0.547400	0.750000
H881	H88	0.790800	0.559100	0.722700
C1111	C111	0.094400	0.000600	0.109000
H891	H89	0.132100	0.977200	0.099900
C1121	C112	0.160200	0.106900	0.959700
H901	H90	0.205200	0.096800	0.956800
C1131	C113	0.144400	0.077600	0.011000
C1141	C114	0.078600	0.092100	0.017920
C1151	C115	0.059300	0.061500	0.072570
C1161	C116	0.004600	0.093500	0.089900
H911	H91	0.978300	0.134200	0.066500
C1171	C117	0.050900	0.163300	0.921200
H921	H92	0.018000	0.193300	0.890300
C1181	C118	0.031300	0.137000	0.970800
C1191	C119	0.988800	0.065600	0.141700
N231	N23	0.022890	0.006080	0.176780
H931	H93	0.986300	0.149100	0.973000
C1201	C120	0.074300	0.974200	0.158700
N241	N24	0.114000	0.149300	0.913790
H941	H94	0.097900	0.931500	0.181100
H951	H95	0.952700	0.089300	0.152900
H961	H96	0.178200	0.047800	0.041300
Cu91	Cu9	0.867240	0.179320	0.665920
C1211	C121	0.709800	0.903300	0.817320
H971	H97	0.729600	0.943300	0.845400
C1221	C122	0.684600	0.839300	0.839000
H981	H98	0.688400	0.837300	0.881900
N251	N25	0.654900	0.779660	0.801400
C1231	C123	0.648700	0.785500	0.740020
H991	H99	0.625900	0.746200	0.712500
C1241	C124	0.674300	0.846900	0.714700
H1001	H100	0.670400	0.847100	0.671700
C1251	C125	0.706000	0.908400	0.754200
C1261	C126	0.738600	0.973100	0.730860
C1271	C127	0.776600	0.960400	0.689600
H1011	H101	0.779200	0.911500	0.674200
C1281	C128	0.810500	0.020100	0.671500
H1021	H102	0.836900	0.009600	0.644900
N261	N26	0.807730	0.092420	0.689880
C1291	C129	0.768700	0.104300	0.727860
H1031	H103	0.764300	0.154200	0.740300
C1301	C130	0.734500	0.047400	0.750000
H1041	H104	0.709200	0.059100	0.777300
C1311	C131	0.405600	0.500600	0.391000
H1051	H105	0.367900	0.477200	0.400100
C1321	C132	0.339800	0.606900	0.540300
H1061	H106	0.294800	0.596800	0.543200
C1331	C133	0.355600	0.577600	0.489000
C1341	C134	0.421400	0.592100	0.482080
C1351	C135	0.440700	0.561500	0.427430
C1361	C136	0.495400	0.593500	0.410100
H1071	H107	0.521700	0.634200	0.433500
C1371	C137	0.449100	0.663300	0.578800
H1081	H108	0.482000	0.693300	0.609700
C1381	C138	0.468700	0.637000	0.529200
C1391	C139	0.511200	0.565600	0.358300
N271	N27	0.477110	0.506080	0.323220
H1091	H109	0.513700	0.649100	0.527000
C1401	C140	0.425700	0.474200	0.341300
N281	N28	0.386000	0.649300	0.586210
H1101	H110	0.402100	0.431500	0.318900
H1111	H111	0.547300	0.589300	0.347100
H1121	H112	0.321800	0.547800	0.458700
Cu101	Cu10	0.367240	0.679320	0.665920
C1411	C141	0.209800	0.403300	0.817320
H1131	H113	0.229600	0.443300	0.845400
C1421	C142	0.184600	0.339300	0.839000
H1141	H114	0.188400	0.337300	0.881900
N291	N29	0.154900	0.279660	0.801400
C1431	C143	0.148700	0.285500	0.740020
H1151	H115	0.125900	0.246200	0.712500
C1441	C144	0.174300	0.346900	0.714700
H1161	H116	0.170400	0.347100	0.671700
C1451	C145	0.206000	0.408400	0.754200
C1461	C146	0.238600	0.473100	0.730860
C1471	C147	0.276600	0.460400	0.689600
H1171	H117	0.279200	0.411500	0.674200
C1481	C148	0.310500	0.520100	0.671500
H1181	H118	0.336900	0.509600	0.644900
N301	N30	0.307730	0.592420	0.689880
C1491	C149	0.268700	0.604300	0.727860
H1191	H119	0.264300	0.654200	0.740300
C1501	C150	0.234500	0.547400	0.750000
H1201	H120	0.209200	0.559100	0.777300
C1511	C151	0.905600	0.000600	0.391000
H1211	H121	0.867900	0.977200	0.400100
C1521	C152	0.839800	0.106900	0.540300
H1221	H122	0.794800	0.096800	0.543200
C1531	C153	0.855600	0.077600	0.489000
C1541	C154	0.921400	0.092100	0.482080
C1551	C155	0.940700	0.061500	0.427430
C1561	C156	0.995400	0.093500	0.410100
H1231	H123	0.021700	0.134200	0.433500
C1571	C157	0.949100	0.163300	0.578800
H1241	H124	0.982000	0.193300	0.609700
C1581	C158	0.968700	0.137000	0.529200
C1591	C159	0.011200	0.065600	0.358300
N311	N31	0.977110	0.006080	0.323220
H1251	H125	0.013700	0.149100	0.527000
C1601	C160	0.925700	0.974200	0.341300
N321	N32	0.886000	0.149300	0.586210
H1261	H126	0.902100	0.931500	0.318900
H1271	H127	0.047300	0.089300	0.347100
H1281	H128	0.821800	0.047800	0.458700
Cl31	Cl3	0.500000	0.334270	0.250000
Cl41	Cl4	0.000000	0.834270	0.250000
Cu111	Cu11	0.500000	0.467450	0.250000
Cu121	Cu12	0.000000	0.967450	0.250000
