data_NEVPOU_clean_PM
_symmetry_space_group_name_H-M	'P1'
_cell_length_a	18.113600
_cell_length_b	18.113600
_cell_length_c	13.186600
_cell_angle_alpha	90.000000
_cell_angle_beta	90.000000
_cell_angle_gamma	90.000000
_symmetry_Int_Tables_number 1

loop_
_symmetry_equiv_pos_as_xyz
'x,y,z'

loop_
_atom_site_label
_atom_site_type_symbol
_atom_site_fract_x
_atom_site_fract_y
_atom_site_fract_z
N11	N1	0.018910	0.589310	0.414100
N21	N2	0.023080	0.587170	0.309500
N31	N3	0.028610	0.699860	0.359200
N41	N4	0.077920	0.885570	0.387300
N51	N5	0.012210	0.890980	0.332600
N61	N6	0.034650	0.776250	0.358400
C11	C1	0.021700	0.657590	0.442800
H11	H1	0.020000	0.674700	0.511200
C21	C2	0.030100	0.654930	0.277800
H21	H2	0.034900	0.670000	0.208700
C31	C3	0.090400	0.815700	0.400500
H31	H3	0.131200	0.795400	0.437000
C41	C4	0.987000	0.824500	0.316400
H41	H4	0.943400	0.812300	0.279300
N71	N7	0.481090	0.910690	0.414100
N81	N8	0.476920	0.912830	0.309500
N91	N9	0.471390	0.800140	0.359200
N101	N10	0.422080	0.614430	0.387300
N111	N11	0.487790	0.609020	0.332600
N121	N12	0.465350	0.723750	0.358400
C51	C5	0.478300	0.842410	0.442800
H51	H5	0.480000	0.825300	0.511200
C61	C6	0.469900	0.845070	0.277800
H61	H6	0.465100	0.830000	0.208700
C71	C7	0.409600	0.684300	0.400500
H71	H7	0.368800	0.704600	0.437000
C81	C8	0.513000	0.675500	0.316400
H81	H8	0.556600	0.687700	0.279300
N131	N13	0.910690	0.018910	0.914100
N141	N14	0.912830	0.023080	0.809500
N151	N15	0.800140	0.028610	0.859200
N161	N16	0.614430	0.077920	0.887300
N171	N17	0.609020	0.012210	0.832600
N181	N18	0.723750	0.034650	0.858400
C91	C9	0.842410	0.021700	0.942800
H91	H9	0.825300	0.020000	0.011200
C101	C10	0.845070	0.030100	0.777800
H101	H10	0.830000	0.034900	0.708700
C111	C11	0.684300	0.090400	0.900500
H111	H11	0.704600	0.131200	0.937000
C121	C12	0.675500	0.987000	0.816400
H121	H12	0.687700	0.943400	0.779300
N191	N19	0.589310	0.481090	0.914100
N201	N20	0.587170	0.476920	0.809500
N211	N21	0.699860	0.471390	0.859200
N221	N22	0.885570	0.422080	0.887300
N231	N23	0.890980	0.487790	0.832600
N241	N24	0.776250	0.465350	0.858400
C131	C13	0.657590	0.478300	0.942800
H131	H13	0.674700	0.480000	0.011200
C141	C14	0.654930	0.469900	0.777800
H141	H14	0.670000	0.465100	0.708700
C151	C15	0.815700	0.409600	0.900500
H151	H15	0.795400	0.368800	0.937000
C161	C16	0.824500	0.513000	0.816400
H161	H16	0.812300	0.556600	0.779300
N251	N25	0.981090	0.089310	0.085900
N261	N26	0.976920	0.087170	0.190500
N271	N27	0.971390	0.199860	0.140800
N281	N28	0.922080	0.385570	0.112700
N291	N29	0.987790	0.390980	0.167400
N301	N30	0.965350	0.276250	0.141600
C171	C17	0.978300	0.157590	0.057200
H171	H17	0.980000	0.174700	0.988800
C181	C18	0.969900	0.154930	0.222200
H181	H18	0.965100	0.170000	0.291300
C191	C19	0.909600	0.315700	0.099500
H191	H19	0.868800	0.295400	0.063000
C201	C20	0.013000	0.324500	0.183600
H201	H20	0.056600	0.312300	0.220700
N311	N31	0.518910	0.410690	0.085900
N321	N32	0.523080	0.412830	0.190500
N331	N33	0.528610	0.300140	0.140800
N341	N34	0.577920	0.114430	0.112700
N351	N35	0.512210	0.109020	0.167400
N361	N36	0.534650	0.223750	0.141600
C211	C21	0.521700	0.342410	0.057200
H211	H21	0.520000	0.325300	0.988800
C221	C22	0.530100	0.345070	0.222200
H221	H22	0.534900	0.330000	0.291300
C231	C23	0.590400	0.184300	0.099500
H231	H23	0.631200	0.204600	0.063000
C241	C24	0.487000	0.175500	0.183600
H241	H24	0.443400	0.187700	0.220700
N371	N37	0.089310	0.518910	0.585900
N381	N38	0.087170	0.523080	0.690500
N391	N39	0.199860	0.528610	0.640800
N401	N40	0.385570	0.577920	0.612700
N411	N41	0.390980	0.512210	0.667400
N421	N42	0.276250	0.534650	0.641600
C251	C25	0.157590	0.521700	0.557200
H251	H25	0.174700	0.520000	0.488800
C261	C26	0.154930	0.530100	0.722200
H261	H26	0.170000	0.534900	0.791300
C271	C27	0.315700	0.590400	0.599500
H271	H27	0.295400	0.631200	0.563000
C281	C28	0.324500	0.487000	0.683600
H281	H28	0.312300	0.443400	0.720700
N431	N43	0.410690	0.981090	0.585900
N441	N44	0.412830	0.976920	0.690500
N451	N45	0.300140	0.971390	0.640800
N461	N46	0.114430	0.922080	0.612700
N471	N47	0.109020	0.987790	0.667400
N481	N48	0.223750	0.965350	0.641600
C291	C29	0.342410	0.978300	0.557200
H291	H29	0.325300	0.980000	0.488800
C301	C30	0.345070	0.969900	0.722200
H301	H30	0.330000	0.965100	0.791300
C311	C31	0.184300	0.909600	0.599500
H311	H31	0.204600	0.868800	0.563000
C321	C32	0.175500	0.013000	0.683600
H321	H32	0.187700	0.056600	0.720700
N491	N49	0.981090	0.410690	0.585900
N501	N50	0.976920	0.412830	0.690500
N511	N51	0.971390	0.300140	0.640800
N521	N52	0.922080	0.114430	0.612700
N531	N53	0.987790	0.109020	0.667400
N541	N54	0.965350	0.223750	0.641600
C331	C33	0.978300	0.342410	0.557200
H331	H33	0.980000	0.325300	0.488800
C341	C34	0.969900	0.345070	0.722200
H341	H34	0.965100	0.330000	0.791300
C351	C35	0.909600	0.184300	0.599500
H351	H35	0.868800	0.204600	0.563000
C361	C36	0.013000	0.175500	0.683600
H361	H36	0.056600	0.187700	0.720700
N551	N55	0.518910	0.089310	0.585900
N561	N56	0.523080	0.087170	0.690500
N571	N57	0.528610	0.199860	0.640800
N581	N58	0.577920	0.385570	0.612700
N591	N59	0.512210	0.390980	0.667400
N601	N60	0.534650	0.276250	0.641600
C371	C37	0.521700	0.157590	0.557200
H371	H37	0.520000	0.174700	0.488800
C381	C38	0.530100	0.154930	0.722200
H381	H38	0.534900	0.170000	0.791300
C391	C39	0.590400	0.315700	0.599500
H391	H39	0.631200	0.295400	0.563000
C401	C40	0.487000	0.324500	0.683600
H401	H40	0.443400	0.312300	0.720700
N611	N61	0.089310	0.981090	0.085900
N621	N62	0.087170	0.976920	0.190500
N631	N63	0.199860	0.971390	0.140800
N641	N64	0.385570	0.922080	0.112700
N651	N65	0.390980	0.987790	0.167400
N661	N66	0.276250	0.965350	0.141600
C411	C41	0.157590	0.978300	0.057200
H411	H41	0.174700	0.980000	0.988800
C421	C42	0.154930	0.969900	0.222200
H421	H42	0.170000	0.965100	0.291300
C431	C43	0.315700	0.909600	0.099500
H431	H43	0.295400	0.868800	0.063000
C441	C44	0.324500	0.013000	0.183600
H441	H44	0.312300	0.056600	0.220700
N671	N67	0.410690	0.518910	0.085900
N681	N68	0.412830	0.523080	0.190500
N691	N69	0.300140	0.528610	0.140800
N701	N70	0.114430	0.577920	0.112700
N711	N71	0.109020	0.512210	0.167400
N721	N72	0.223750	0.534650	0.141600
C451	C45	0.342410	0.521700	0.057200
H451	H45	0.325300	0.520000	0.988800
C461	C46	0.345070	0.530100	0.222200
H461	H46	0.330000	0.534900	0.291300
C471	C47	0.184300	0.590400	0.099500
H471	H47	0.204600	0.631200	0.063000
C481	C48	0.175500	0.487000	0.183600
H481	H48	0.187700	0.443400	0.220700
N731	N73	0.018910	0.910690	0.914100
N741	N74	0.023080	0.912830	0.809500
N751	N75	0.028610	0.800140	0.859200
N761	N76	0.077920	0.614430	0.887300
N771	N77	0.012210	0.609020	0.832600
N781	N78	0.034650	0.723750	0.858400
C491	C49	0.021700	0.842410	0.942800
H491	H49	0.020000	0.825300	0.011200
C501	C50	0.030100	0.845070	0.777800
H501	H50	0.034900	0.830000	0.708700
C511	C51	0.090400	0.684300	0.900500
H511	H51	0.131200	0.704600	0.937000
C521	C52	0.987000	0.675500	0.816400
H521	H52	0.943400	0.687700	0.779300
N791	N79	0.481090	0.589310	0.914100
N801	N80	0.476920	0.587170	0.809500
N811	N81	0.471390	0.699860	0.859200
N821	N82	0.422080	0.885570	0.887300
N831	N83	0.487790	0.890980	0.832600
N841	N84	0.465350	0.776250	0.858400
C531	C53	0.478300	0.657590	0.942800
H531	H53	0.480000	0.674700	0.011200
C541	C54	0.469900	0.654930	0.777800
H541	H54	0.465100	0.670000	0.708700
C551	C55	0.409600	0.815700	0.900500
H551	H55	0.368800	0.795400	0.937000
C561	C56	0.513000	0.824500	0.816400
H561	H56	0.556600	0.812300	0.779300
N851	N85	0.910690	0.481090	0.414100
N861	N86	0.912830	0.476920	0.309500
N871	N87	0.800140	0.471390	0.359200
N881	N88	0.614430	0.422080	0.387300
N891	N89	0.609020	0.487790	0.332600
N901	N90	0.723750	0.465350	0.358400
C571	C57	0.842410	0.478300	0.442800
H571	H57	0.825300	0.480000	0.511200
C581	C58	0.845070	0.469900	0.277800
H581	H58	0.830000	0.465100	0.208700
C591	C59	0.684300	0.409600	0.400500
H591	H59	0.704600	0.368800	0.437000
C601	C60	0.675500	0.513000	0.316400
H601	H60	0.687700	0.556600	0.279300
N911	N91	0.589310	0.018910	0.414100
N921	N92	0.587170	0.023080	0.309500
N931	N93	0.699860	0.028610	0.359200
N941	N94	0.885570	0.077920	0.387300
N951	N95	0.890980	0.012210	0.332600
N961	N96	0.776250	0.034650	0.358400
C611	C61	0.657590	0.021700	0.442800
H611	H61	0.674700	0.020000	0.511200
C621	C62	0.654930	0.030100	0.277800
H621	H62	0.670000	0.034900	0.208700
C631	C63	0.815700	0.090400	0.400500
H631	H63	0.795400	0.131200	0.437000
C641	C64	0.824500	0.987000	0.316400
H641	H64	0.812300	0.943400	0.279300
Cu11	Cu1	0.011940	0.488060	0.234500
Cl11	Cl1	0.080120	0.419880	0.376300
Cu21	Cu2	0.488060	0.011940	0.234500
Cl21	Cl2	0.419880	0.080120	0.376300
Cu31	Cu3	0.011940	0.011940	0.734500
Cl31	Cl3	0.080120	0.080120	0.876300
Cu41	Cu4	0.488060	0.488060	0.734500
Cl41	Cl4	0.419880	0.419880	0.876300
Cu51	Cu5	0.988060	0.988060	0.265500
Cl51	Cl5	0.919880	0.919880	0.123700
Cu61	Cu6	0.511940	0.511940	0.265500
Cl61	Cl6	0.580120	0.580120	0.123700
Cu71	Cu7	0.988060	0.511940	0.765500
Cl71	Cl7	0.919880	0.580120	0.623700
Cu81	Cu8	0.511940	0.988060	0.765500
Cl81	Cl8	0.580120	0.919880	0.623700
Cu91	Cu9	0.000000	0.500000	0.500000
Cu101	Cu10	0.500000	0.000000	0.500000
Cu111	Cu11	0.000000	0.000000	0.000000
Cu121	Cu12	0.500000	0.500000	0.000000
