data_NEVVAM02_clean_PM
_symmetry_space_group_name_H-M	'P1'
_cell_length_a	10.825000
_cell_length_b	11.149600
_cell_length_c	11.149600
_cell_angle_alpha	103.004000
_cell_angle_beta	102.286000
_cell_angle_gamma	77.714000
_symmetry_Int_Tables_number 1

loop_
_symmetry_equiv_pos_as_xyz
'x,y,z'

loop_
_atom_site_label
_atom_site_type_symbol
_atom_site_fract_x
_atom_site_fract_y
_atom_site_fract_z
Co11	Co1	0.449880	0.060870	0.878900
Co21	Co2	0.050120	0.878910	0.060880
Co31	Co3	0.750000	0.095160	0.095160
Co41	Co4	0.550120	0.939120	0.121100
Co51	Co5	0.250000	0.904840	0.904840
Co61	Co6	0.949880	0.121100	0.939130
H11	H1	0.479800	0.832200	0.901800
H21	H2	0.522000	0.314700	0.836900
H31	H3	0.020200	0.901800	0.832200
H41	H4	0.478000	0.685300	0.163100
H51	H5	0.454200	0.515700	0.854900
H61	H6	0.022000	0.163100	0.685300
H71	H7	0.979800	0.098200	0.167800
H81	H8	0.520200	0.167800	0.098200
H91	H9	0.134300	0.450200	0.959400
H101	H10	0.545800	0.484300	0.145100
H111	H11	0.954200	0.145100	0.484300
H121	H12	0.978000	0.836900	0.314700
H131	H13	0.634300	0.040600	0.549800
H141	H14	0.865700	0.549800	0.040600
H151	H15	0.045800	0.854900	0.515700
H161	H16	0.365700	0.959400	0.450200
C11	C1	0.787600	0.574460	0.067520
C21	C2	0.220500	0.911630	0.510370
C31	C3	0.604400	0.534970	0.130030
C41	C4	0.729300	0.066040	0.350260
C51	C5	0.233800	0.914820	0.299940
C61	C6	0.712400	0.067520	0.574460
C71	C7	0.270700	0.933960	0.649740
C81	C8	0.104400	0.869970	0.465030
C91	C9	0.779500	0.088370	0.489630
C101	C10	0.943700	0.143610	0.662030
C111	C11	0.556300	0.662030	0.143610
C121	C12	0.266200	0.299940	0.914820
C131	C13	0.056300	0.856390	0.337970
C141	C14	0.770700	0.350260	0.066040
C151	C15	0.200600	0.201440	0.934800
C161	C16	0.299400	0.934800	0.201440
C171	C17	0.766200	0.085180	0.700060
C181	C18	0.212400	0.425540	0.932480
C191	C19	0.395600	0.465030	0.869970
C201	C20	0.229300	0.649740	0.933960
C211	C21	0.279500	0.510370	0.911630
C221	C22	0.733800	0.700060	0.085180
C231	C23	0.443700	0.337970	0.856390
C241	C24	0.287600	0.932480	0.425540
C251	C25	0.895600	0.130030	0.534970
C261	C26	0.799400	0.798560	0.065200
C271	C27	0.700600	0.065200	0.798560
C281	C28	0.720500	0.489630	0.088370
N11	N1	0.881290	0.120800	0.743540
N21	N2	0.618710	0.743540	0.120800
N31	N3	0.381290	0.256460	0.879200
N41	N4	0.118710	0.879200	0.256460
O11	O1	0.150640	0.690150	0.007950
O21	O2	0.849360	0.309850	0.992050
O31	O3	0.267580	0.093770	0.930250
O41	O4	0.650640	0.992050	0.309850
O51	O5	0.948150	0.061830	0.103490
O61	O6	0.273030	0.712050	0.878690
O71	O7	0.767580	0.069750	0.906230
O81	O8	0.448150	0.896510	0.938170
O91	O9	0.087890	0.230810	0.951870
O101	O10	0.773030	0.121310	0.287950
O111	O11	0.912110	0.769190	0.048130
O121	O12	0.732420	0.906230	0.069750
O131	O13	0.349360	0.007950	0.690150
O141	O14	0.226970	0.878690	0.712050
O151	O15	0.051850	0.938170	0.896510
O161	O16	0.726970	0.287950	0.121310
O171	O17	0.232420	0.930250	0.093770
O181	O18	0.551850	0.103490	0.061830
O191	O19	0.412110	0.951870	0.230810
O201	O20	0.587890	0.048130	0.769190
