data_NEVVEQ_clean_PM
_symmetry_space_group_name_H-M	'P1'
_cell_length_a	8.757700
_cell_length_b	8.757700
_cell_length_c	11.958000
_cell_angle_alpha	90.000000
_cell_angle_beta	90.000000
_cell_angle_gamma	101.790000
_symmetry_Int_Tables_number 1

loop_
_symmetry_equiv_pos_as_xyz
'x,y,z'

loop_
_atom_site_label
_atom_site_type_symbol
_atom_site_fract_x
_atom_site_fract_y
_atom_site_fract_z
Co11	Co1	0.116730	0.116730	0.000000
Co21	Co2	0.883270	0.883270	0.500000
Co31	Co3	0.105130	0.894870	0.250000
Co41	Co4	0.894870	0.105130	0.750000
H11	H1	0.488000	0.140000	0.296000
H21	H2	0.719000	0.119000	0.190000
H31	H3	0.481600	0.140400	0.905000
H41	H4	0.512000	0.860000	0.796000
H51	H5	0.281000	0.881000	0.690000
H61	H6	0.518400	0.859600	0.405000
H71	H7	0.860000	0.512000	0.204000
H81	H8	0.881000	0.281000	0.310000
H91	H9	0.859600	0.518400	0.595000
H101	H10	0.140000	0.488000	0.704000
H111	H11	0.119000	0.719000	0.810000
H121	H12	0.140400	0.481600	0.095000
C11	C1	0.357130	0.146370	0.152760
C21	C2	0.492060	0.140140	0.213100
C31	C3	0.624390	0.127810	0.154100
C41	C4	0.623480	0.130860	0.037050
C51	C5	0.485190	0.137630	0.983700
C61	C6	0.767760	0.125280	0.971660
C71	C7	0.642870	0.853630	0.652760
C81	C8	0.507940	0.859860	0.713100
C91	C9	0.375610	0.872190	0.654100
C101	C10	0.376520	0.869140	0.537050
C111	C11	0.514810	0.862370	0.483700
C121	C12	0.232240	0.874720	0.471660
C131	C13	0.853630	0.642870	0.347240
C141	C14	0.859860	0.507940	0.286900
C151	C15	0.872190	0.375610	0.345900
C161	C16	0.869140	0.376520	0.462950
C171	C17	0.862370	0.514810	0.516300
C181	C18	0.874720	0.232240	0.528340
C191	C19	0.146370	0.357130	0.847240
C201	C20	0.140140	0.492060	0.786900
C211	C21	0.127810	0.624390	0.845900
C221	C22	0.130860	0.623480	0.962950
C231	C23	0.137630	0.485190	0.016300
C241	C24	0.125280	0.767760	0.028340
S11	S1	0.173990	0.156430	0.210820
S21	S2	0.826010	0.843570	0.710820
S31	S3	0.843570	0.826010	0.289180
S41	S4	0.156430	0.173990	0.789180
N11	N1	0.354120	0.141520	0.039970
N21	N2	0.645880	0.858480	0.539970
N31	N3	0.858480	0.645880	0.460030
N41	N4	0.141520	0.354120	0.960030
O11	O1	0.880690	0.092350	0.022240
O21	O2	0.238370	0.842790	0.368240
O31	O3	0.119310	0.907650	0.522240
O41	O4	0.761630	0.157210	0.868240
O51	O5	0.907650	0.119310	0.477760
O61	O6	0.157210	0.761630	0.131760
O71	O7	0.092350	0.880690	0.977760
O81	O8	0.842790	0.238370	0.631760
