data_NEXVUI_clean_PM
_symmetry_space_group_name_H-M	'P1'
_cell_length_a	13.523100
_cell_length_b	29.561500
_cell_length_c	29.561500
_cell_angle_alpha	87.001100
_cell_angle_beta	76.777800
_cell_angle_gamma	76.777900
_symmetry_Int_Tables_number 1

loop_
_symmetry_equiv_pos_as_xyz
'x,y,z'

loop_
_atom_site_label
_atom_site_type_symbol
_atom_site_fract_x
_atom_site_fract_y
_atom_site_fract_z
Cd11	Cd1	0.033930	0.949540	0.884330
Cd21	Cd2	0.247970	0.010410	0.751120
Cd31	Cd3	0.532890	0.941690	0.611010
Cd41	Cd4	0.367790	0.550460	0.615670
Cd51	Cd5	0.509510	0.489590	0.748880
Cd61	Cd6	0.585590	0.558310	0.888990
Cd71	Cd7	0.918250	0.115670	0.449550
Cd81	Cd8	0.999100	0.248880	0.510400
Cd91	Cd9	0.143900	0.388990	0.441690
Cd101	Cd10	0.983470	0.384330	0.050450
Cd111	Cd11	0.258380	0.251120	0.989600
Cd121	Cd12	0.474580	0.111010	0.058310
Cd131	Cd13	0.966070	0.050460	0.115670
Cd141	Cd14	0.752030	0.989590	0.248880
Cd151	Cd15	0.467110	0.058310	0.388990
Cd161	Cd16	0.632210	0.449540	0.384330
Cd171	Cd17	0.490490	0.510410	0.251120
Cd181	Cd18	0.414410	0.441690	0.111010
Cd191	Cd19	0.081750	0.884330	0.550450
Cd201	Cd20	0.000900	0.751120	0.489600
Cd211	Cd21	0.856100	0.611010	0.558310
Cd221	Cd22	0.016530	0.615670	0.949550
Cd231	Cd23	0.741620	0.748880	0.010400
Cd241	Cd24	0.525420	0.888990	0.941690
H11	H1	0.578900	0.858300	0.793100
H21	H2	0.583000	0.819700	0.728900
H31	H3	0.432400	0.831900	0.700300
H41	H4	0.036100	0.889700	0.665900
H51	H5	0.039800	0.839300	0.729300
H61	H6	0.165800	0.836100	0.772300
H71	H7	0.527300	0.047600	0.831600
H81	H8	0.813200	0.068600	0.831600
H91	H9	0.702100	0.038100	0.794100
H101	H10	0.660400	0.165000	0.923800
H111	H11	0.753000	0.213100	0.947700
H121	H12	0.927300	0.183400	0.952800
H131	H13	0.019700	0.971800	0.782000
H141	H14	0.926400	0.969500	0.725300
H151	H15	0.718300	0.917500	0.825500
H161	H16	0.822500	0.921800	0.874800
H171	H17	0.866100	0.931600	0.674600
H181	H18	0.761700	0.930500	0.623100
H191	H19	0.509300	0.960400	0.720800
H201	H20	0.605600	0.959400	0.776800
H211	H21	0.730300	0.641700	0.706900
H221	H22	0.631600	0.680300	0.771100
H231	H23	0.464600	0.668100	0.799700
H241	H24	0.091700	0.610300	0.834100
H251	H25	0.108400	0.660700	0.770700
H261	H26	0.274200	0.663900	0.727700
H271	H27	0.906500	0.452400	0.668400
H281	H28	0.213400	0.431400	0.668400
H291	H29	0.034300	0.461900	0.705900
H301	H30	0.249200	0.335000	0.576200
H311	H31	0.413800	0.286900	0.552300
H321	H32	0.563500	0.316600	0.547200
H331	H33	0.273500	0.528200	0.718000
H341	H34	0.121200	0.530500	0.774700
H351	H35	0.961300	0.582500	0.674500
H361	H36	0.119100	0.578200	0.625200
H371	H37	0.972300	0.568400	0.825400
H381	H38	0.815300	0.569500	0.876900
H391	H39	0.690500	0.539600	0.779200
H401	H40	0.841800	0.540600	0.723200
H411	H41	0.372000	0.206900	0.358300
H421	H42	0.311900	0.271100	0.319700
H431	H43	0.132700	0.299700	0.331900
H441	H44	0.702000	0.334100	0.389700
H451	H45	0.769100	0.270700	0.339300
H461	H46	0.938100	0.227700	0.336100
H471	H47	0.358900	0.168400	0.547600
H481	H48	0.644800	0.168400	0.568600
H491	H49	0.496200	0.205900	0.538100
H501	H50	0.584200	0.076200	0.665000
H511	H51	0.700700	0.052300	0.713100
H521	H52	0.880100	0.047200	0.683400
H531	H53	0.801700	0.218000	0.471800
H541	H54	0.651700	0.274700	0.469500
H551	H55	0.543800	0.174500	0.417500
H561	H56	0.697300	0.125200	0.421800
H571	H57	0.540700	0.325400	0.431600
H581	H58	0.384800	0.376900	0.430500
H591	H59	0.230100	0.279200	0.460400
H601	H60	0.382400	0.223200	0.459400
H611	H61	0.437200	0.293100	0.141700
H621	H62	0.402700	0.228900	0.180300
H631	H63	0.264300	0.200300	0.168100
H641	H64	0.925800	0.165900	0.110300
H651	H65	0.879100	0.229300	0.160700
H661	H66	0.001900	0.272300	0.163900
H671	H67	0.574900	0.331600	0.952400
H681	H68	0.881800	0.331600	0.931400
H691	H69	0.740200	0.294100	0.961900
H701	H70	0.825400	0.423800	0.835000
H711	H71	0.966100	0.447700	0.786900
H721	H72	0.110700	0.452800	0.816600
H731	H73	0.991500	0.282000	0.028200
H741	H74	0.895900	0.225300	0.030500
H751	H75	0.635800	0.325500	0.082500
H761	H76	0.744300	0.374800	0.078200
H771	H77	0.797700	0.174600	0.068400
H781	H78	0.692200	0.123100	0.069500
H791	H79	0.469700	0.220800	0.039600
H801	H80	0.565000	0.276800	0.040600
H811	H81	0.421100	0.141700	0.206900
H821	H82	0.417000	0.180300	0.271100
H831	H83	0.567600	0.168100	0.299700
H841	H84	0.963900	0.110300	0.334100
H851	H85	0.960200	0.160700	0.270700
H861	H86	0.834200	0.163900	0.227700
H871	H87	0.472700	0.952400	0.168400
H881	H88	0.186800	0.931400	0.168400
H891	H89	0.297900	0.961900	0.205900
H901	H90	0.339600	0.835000	0.076200
H911	H91	0.247000	0.786900	0.052300
H921	H92	0.072700	0.816600	0.047200
H931	H93	0.980300	0.028200	0.218000
H941	H94	0.073600	0.030500	0.274700
H951	H95	0.281700	0.082500	0.174500
H961	H96	0.177500	0.078200	0.125200
H971	H97	0.133900	0.068400	0.325400
H981	H98	0.238300	0.069500	0.376900
H991	H99	0.490700	0.039600	0.279200
H1001	H100	0.394400	0.040600	0.223200
H1011	H101	0.269700	0.358300	0.293100
H1021	H102	0.368400	0.319700	0.228900
H1031	H103	0.535400	0.331900	0.200300
H1041	H104	0.908300	0.389700	0.165900
H1051	H105	0.891600	0.339300	0.229300
H1061	H106	0.725800	0.336100	0.272300
H1071	H107	0.093500	0.547600	0.331600
H1081	H108	0.786600	0.568600	0.331600
H1091	H109	0.965700	0.538100	0.294100
H1101	H110	0.750800	0.665000	0.423800
H1111	H111	0.586200	0.713100	0.447700
H1121	H112	0.436500	0.683400	0.452800
H1131	H113	0.726500	0.471800	0.282000
H1141	H114	0.878800	0.469500	0.225300
H1151	H115	0.038700	0.417500	0.325500
H1161	H116	0.880900	0.421800	0.374800
H1171	H117	0.027700	0.431600	0.174600
H1181	H118	0.184700	0.430500	0.123100
H1191	H119	0.309500	0.460400	0.220800
H1201	H120	0.158200	0.459400	0.276800
H1211	H121	0.628000	0.793100	0.641700
H1221	H122	0.688100	0.728900	0.680300
H1231	H123	0.867300	0.700300	0.668100
H1241	H124	0.298000	0.665900	0.610300
H1251	H125	0.230900	0.729300	0.660700
H1261	H126	0.061900	0.772300	0.663900
H1271	H127	0.641100	0.831600	0.452400
H1281	H128	0.355200	0.831600	0.431400
H1291	H129	0.503800	0.794100	0.461900
H1301	H130	0.415800	0.923800	0.335000
H1311	H131	0.299300	0.947700	0.286900
H1321	H132	0.119900	0.952800	0.316600
H1331	H133	0.198300	0.782000	0.528200
H1341	H134	0.348300	0.725300	0.530500
H1351	H135	0.456200	0.825500	0.582500
H1361	H136	0.302700	0.874800	0.578200
H1371	H137	0.459300	0.674600	0.568400
H1381	H138	0.615200	0.623100	0.569500
H1391	H139	0.769900	0.720800	0.539600
H1401	H140	0.617600	0.776800	0.540600
H1411	H141	0.562800	0.706900	0.858300
H1421	H142	0.597300	0.771100	0.819700
H1431	H143	0.735700	0.799700	0.831900
H1441	H144	0.074200	0.834100	0.889700
H1451	H145	0.120900	0.770700	0.839300
H1461	H146	0.998100	0.727700	0.836100
H1471	H147	0.425100	0.668400	0.047600
H1481	H148	0.118200	0.668400	0.068600
H1491	H149	0.259800	0.705900	0.038100
H1501	H150	0.174600	0.576200	0.165000
H1511	H151	0.033900	0.552300	0.213100
H1521	H152	0.889300	0.547200	0.183400
H1531	H153	0.008500	0.718000	0.971800
H1541	H154	0.104100	0.774700	0.969500
H1551	H155	0.364200	0.674500	0.917500
H1561	H156	0.255700	0.625200	0.921800
H1571	H157	0.202300	0.825400	0.931600
H1581	H158	0.307800	0.876900	0.930500
H1591	H159	0.530300	0.779200	0.960400
H1601	H160	0.435000	0.723200	0.959400
C11	C1	0.338270	0.871910	0.751350
C21	C2	0.333640	0.893110	0.793410
C31	C3	0.426390	0.888710	0.808310
C41	C4	0.517670	0.861250	0.782810
C51	C5	0.521530	0.839100	0.744440
C61	C6	0.430160	0.845800	0.728080
C71	C7	0.245040	0.878720	0.730800
C81	C8	0.244180	0.907900	0.691540
C91	C9	0.161920	0.912640	0.666520
C101	C10	0.089130	0.887180	0.681760
C111	C11	0.089820	0.856970	0.720590
C121	C12	0.166770	0.854240	0.745620
C131	C13	0.431370	0.913370	0.849690
C141	C14	0.230790	0.920170	0.819850
C151	C15	0.331780	0.930990	0.673850
C161	C16	0.156580	0.944210	0.628430
C171	C17	0.575110	0.054510	0.846870
C181	C18	0.542960	0.068780	0.894300
C191	C19	0.609170	0.081480	0.915780
C201	C20	0.711010	0.084200	0.891780
C211	C21	0.745370	0.068360	0.847300
C221	C22	0.677260	0.051010	0.823670
C231	C23	0.934770	0.118470	0.931390
C241	C24	0.876340	0.089920	0.914600
C251	C25	0.776650	0.108500	0.912600
C261	C26	0.729700	0.153470	0.925130
C271	C27	0.784950	0.182350	0.939950
C281	C28	0.889600	0.164510	0.943090
C291	C29	0.432600	0.068950	0.919050
C301	C30	0.570550	0.094510	0.966590
C311	C31	0.933600	0.041050	0.901350
C321	C32	0.039560	0.097580	0.941700
C331	C33	0.959600	0.960160	0.789840
C341	C34	0.902420	0.960100	0.755660
C351	C35	0.809060	0.945550	0.768530
C361	C36	0.778390	0.928870	0.815550
C371	C37	0.842270	0.930830	0.844030
C381	C38	0.745120	0.943850	0.732910
C391	C39	0.794170	0.936330	0.684930
C401	C40	0.730320	0.936450	0.654310
C411	C41	0.581690	0.953640	0.711780
C421	C42	0.639360	0.953280	0.745800
C431	C43	0.461530	0.628090	0.748650
C441	C44	0.520160	0.606890	0.706590
C451	C45	0.623410	0.611290	0.691690
C461	C46	0.661730	0.638750	0.717190
C471	C47	0.605070	0.660900	0.755560
C481	C48	0.504040	0.654200	0.771920
C491	C49	0.354560	0.621280	0.769200
C501	C50	0.343620	0.592100	0.808460
C511	C51	0.241080	0.587360	0.833480
C521	C52	0.158070	0.612820	0.818240
C531	C53	0.167380	0.643030	0.779410
C541	C54	0.266630	0.645760	0.754380
C551	C55	0.694430	0.586630	0.650310
C561	C56	0.470810	0.579830	0.680150
C571	C57	0.436620	0.569010	0.826150
C581	C58	0.229220	0.555790	0.871570
C591	C59	0.976490	0.445490	0.653130
C601	C60	0.006040	0.431220	0.605700
C611	C61	0.106430	0.418520	0.584220
C621	C62	0.186990	0.415800	0.608220
C631	C63	0.161030	0.431640	0.652700
C641	C64	0.051940	0.448990	0.676330
C651	C65	0.484630	0.381530	0.568610
C661	C66	0.380860	0.410080	0.585400
C671	C67	0.297750	0.391500	0.587400
C681	C68	0.308300	0.346530	0.574870
C691	C69	0.407250	0.317650	0.560050
C701	C70	0.497200	0.335490	0.556910
C711	C71	0.920600	0.431050	0.580950
C721	C72	0.131650	0.405490	0.533410
C731	C73	0.376000	0.458950	0.598650
C741	C74	0.578840	0.402420	0.558300
C751	C75	0.209600	0.539840	0.710160
C761	C76	0.118180	0.539900	0.744340
C771	C77	0.023140	0.554450	0.731470
C781	C78	0.022810	0.571130	0.684450
C791	C79	0.117130	0.569170	0.655970
C801	C80	0.921880	0.556150	0.767090
C811	C81	0.915430	0.563670	0.815070
C821	C82	0.821080	0.563550	0.845690
C831	C83	0.747110	0.546360	0.788220
C841	C84	0.838440	0.546720	0.754200
C851	C85	0.089620	0.248650	0.371910
C861	C86	0.127050	0.206590	0.393110
C871	C87	0.234700	0.191690	0.388710
C881	C88	0.300480	0.217190	0.361250
C891	C89	0.265970	0.255560	0.339100
C901	C90	0.158240	0.271920	0.345800
C911	C91	0.975840	0.269200	0.378720
C921	C92	0.935720	0.308460	0.407900
C931	C93	0.828440	0.333480	0.412640
C941	C94	0.770890	0.318240	0.387180
C951	C95	0.810410	0.279410	0.356970
C961	C96	0.912390	0.254380	0.354240
C971	C97	0.281060	0.150310	0.413370
C981	C98	0.050640	0.180150	0.420170
C991	C99	0.005630	0.326150	0.430990
C1001	C100	0.785010	0.371570	0.444210
C1011	C101	0.421980	0.153130	0.554510
C1021	C102	0.437260	0.105700	0.568780
C1031	C103	0.524950	0.084220	0.581480
C1041	C104	0.602790	0.108220	0.584200
C1051	C105	0.592670	0.152700	0.568360
C1061	C106	0.500930	0.176330	0.551010
C1071	C107	0.866160	0.068610	0.618470
C1081	C108	0.790940	0.085400	0.589920
C1091	C109	0.689250	0.087400	0.608500
C1101	C110	0.654830	0.074870	0.653470
C1111	C111	0.724900	0.060050	0.682350
C1121	C112	0.832690	0.056910	0.664510
C1131	C113	0.351650	0.080950	0.568950
C1141	C114	0.537140	0.033410	0.594510
C1151	C115	0.834950	0.098650	0.541050
C1161	C116	0.981260	0.058300	0.597580
C1171	C117	0.749440	0.210160	0.460160
C1181	C118	0.658080	0.244340	0.460100
C1191	C119	0.577590	0.231470	0.445550
C1201	C120	0.593940	0.184450	0.428870
C1211	C121	0.686300	0.155970	0.430830
C1221	C122	0.478030	0.267090	0.443850
C1231	C123	0.479100	0.315070	0.436330
C1241	C124	0.384630	0.345690	0.436450
C1251	C125	0.293470	0.288220	0.453640
C1261	C126	0.385160	0.254200	0.453280
C1271	C127	0.210180	0.251350	0.128090
C1281	C128	0.226750	0.293410	0.106890
C1291	C129	0.315100	0.308310	0.111290
C1301	C130	0.378920	0.282810	0.138750
C1311	C131	0.360630	0.244440	0.160900
C1321	C132	0.275960	0.228080	0.154200
C1331	C133	0.123760	0.230800	0.121280
C1341	C134	0.152080	0.191540	0.092100
C1351	C135	0.074560	0.166520	0.087360
C1361	C136	0.976310	0.181760	0.112820
C1371	C137	0.946790	0.220590	0.143030
C1381	C138	0.021010	0.245620	0.145760
C1391	C139	0.344740	0.349690	0.086630
C1401	C140	0.150960	0.319850	0.079830
C1411	C141	0.262770	0.173850	0.069010
C1421	C142	0.100790	0.128430	0.055790
C1431	C143	0.629620	0.346870	0.945490
C1441	C144	0.611740	0.394300	0.931220
C1451	C145	0.690650	0.415780	0.918520
C1461	C146	0.795210	0.391780	0.915800
C1471	C147	0.813730	0.347300	0.931640
C1481	C148	0.728270	0.323670	0.948990
C1491	C149	0.053240	0.431390	0.881530
C1501	C150	0.966260	0.414600	0.910080
C1511	C151	0.885150	0.412600	0.891500
C1521	C152	0.883170	0.425130	0.846530
C1531	C153	0.967300	0.439950	0.817650
C1541	C154	0.054110	0.443090	0.835490
C1551	C155	0.501550	0.419050	0.931050
C1561	C156	0.665060	0.466590	0.905490
C1571	C157	0.974650	0.401350	0.958950
C1581	C158	0.137140	0.441700	0.902420
C1591	C159	0.919760	0.289840	0.039840
C1601	C160	0.862520	0.255660	0.039900
C1611	C161	0.754610	0.268530	0.054450
C1621	C162	0.707260	0.315550	0.071130
C1631	C163	0.773100	0.344030	0.069170
C1641	C164	0.688970	0.232910	0.056150
C1651	C165	0.730500	0.184930	0.063670
C1661	C166	0.666770	0.154310	0.063550
C1671	C167	0.535330	0.211780	0.046360
C1681	C168	0.592640	0.245800	0.046720
C1691	C169	0.661730	0.128090	0.248650
C1701	C170	0.666360	0.106890	0.206590
C1711	C171	0.573610	0.111290	0.191690
C1721	C172	0.482330	0.138750	0.217190
C1731	C173	0.478470	0.160900	0.255560
C1741	C174	0.569840	0.154200	0.271920
C1751	C175	0.754960	0.121280	0.269200
C1761	C176	0.755820	0.092100	0.308460
C1771	C177	0.838080	0.087360	0.333480
C1781	C178	0.910870	0.112820	0.318240
C1791	C179	0.910180	0.143030	0.279410
C1801	C180	0.833230	0.145760	0.254380
C1811	C181	0.568630	0.086630	0.150310
C1821	C182	0.769210	0.079830	0.180150
C1831	C183	0.668220	0.069010	0.326150
C1841	C184	0.843420	0.055790	0.371570
C1851	C185	0.424890	0.945490	0.153130
C1861	C186	0.457040	0.931220	0.105700
C1871	C187	0.390830	0.918520	0.084220
C1881	C188	0.288990	0.915800	0.108220
C1891	C189	0.254630	0.931640	0.152700
C1901	C190	0.322740	0.948990	0.176330
C1911	C191	0.065230	0.881530	0.068610
C1921	C192	0.123660	0.910080	0.085400
C1931	C193	0.223350	0.891500	0.087400
C1941	C194	0.270300	0.846530	0.074870
C1951	C195	0.215050	0.817650	0.060050
C1961	C196	0.110400	0.835490	0.056910
C1971	C197	0.567400	0.931050	0.080950
C1981	C198	0.429450	0.905490	0.033410
C1991	C199	0.066400	0.958950	0.098650
C2001	C200	0.960440	0.902420	0.058300
C2011	C201	0.040400	0.039840	0.210160
C2021	C202	0.097580	0.039900	0.244340
C2031	C203	0.190940	0.054450	0.231470
C2041	C204	0.221610	0.071130	0.184450
C2051	C205	0.157730	0.069170	0.155970
C2061	C206	0.254880	0.056150	0.267090
C2071	C207	0.205830	0.063670	0.315070
C2081	C208	0.269680	0.063550	0.345690
C2091	C209	0.418310	0.046360	0.288220
C2101	C210	0.360640	0.046720	0.254200
C2111	C211	0.538470	0.371910	0.251350
C2121	C212	0.479840	0.393110	0.293410
C2131	C213	0.376590	0.388710	0.308310
C2141	C214	0.338270	0.361250	0.282810
C2151	C215	0.394930	0.339100	0.244440
C2161	C216	0.495960	0.345800	0.228080
C2171	C217	0.645440	0.378720	0.230800
C2181	C218	0.656380	0.407900	0.191540
C2191	C219	0.758920	0.412640	0.166520
C2201	C220	0.841930	0.387180	0.181760
C2211	C221	0.832620	0.356970	0.220590
C2221	C222	0.733370	0.354240	0.245620
C2231	C223	0.305570	0.413370	0.349690
C2241	C224	0.529190	0.420170	0.319850
C2251	C225	0.563380	0.430990	0.173850
C2261	C226	0.770780	0.444210	0.128430
C2271	C227	0.023510	0.554510	0.346870
C2281	C228	0.993960	0.568780	0.394300
C2291	C229	0.893570	0.581480	0.415780
C2301	C230	0.813010	0.584200	0.391780
C2311	C231	0.838970	0.568360	0.347300
C2321	C232	0.948060	0.551010	0.323670
C2331	C233	0.515370	0.618470	0.431390
C2341	C234	0.619140	0.589920	0.414600
C2351	C235	0.702250	0.608500	0.412600
C2361	C236	0.691700	0.653470	0.425130
C2371	C237	0.592750	0.682350	0.439950
C2381	C238	0.502800	0.664510	0.443090
C2391	C239	0.079400	0.568950	0.419050
C2401	C240	0.868350	0.594510	0.466590
C2411	C241	0.624000	0.541050	0.401350
C2421	C242	0.421160	0.597580	0.441700
C2431	C243	0.790400	0.460160	0.289840
C2441	C244	0.881820	0.460100	0.255660
C2451	C245	0.976860	0.445550	0.268530
C2461	C246	0.977190	0.428870	0.315550
C2471	C247	0.882870	0.430830	0.344030
C2481	C248	0.078120	0.443850	0.232910
C2491	C249	0.084570	0.436330	0.184930
C2501	C250	0.178920	0.436450	0.154310
C2511	C251	0.252890	0.453640	0.211780
C2521	C252	0.161560	0.453280	0.245800
C2531	C253	0.910380	0.751350	0.628090
C2541	C254	0.872950	0.793410	0.606890
C2551	C255	0.765300	0.808310	0.611290
C2561	C256	0.699520	0.782810	0.638750
C2571	C257	0.734030	0.744440	0.660900
C2581	C258	0.841760	0.728080	0.654200
C2591	C259	0.024160	0.730800	0.621280
C2601	C260	0.064280	0.691540	0.592100
C2611	C261	0.171560	0.666520	0.587360
C2621	C262	0.229110	0.681760	0.612820
C2631	C263	0.189590	0.720590	0.643030
C2641	C264	0.087610	0.745620	0.645760
C2651	C265	0.718940	0.849690	0.586630
C2661	C266	0.949360	0.819850	0.579830
C2671	C267	0.994370	0.673850	0.569010
C2681	C268	0.214990	0.628430	0.555790
C2691	C269	0.578020	0.846870	0.445490
C2701	C270	0.562740	0.894300	0.431220
C2711	C271	0.475050	0.915780	0.418520
C2721	C272	0.397210	0.891780	0.415800
C2731	C273	0.407330	0.847300	0.431640
C2741	C274	0.499070	0.823670	0.448990
C2751	C275	0.133840	0.931390	0.381530
C2761	C276	0.209060	0.914600	0.410080
C2771	C277	0.310750	0.912600	0.391500
C2781	C278	0.345170	0.925130	0.346530
C2791	C279	0.275100	0.939950	0.317650
C2801	C280	0.167310	0.943090	0.335490
C2811	C281	0.648350	0.919050	0.431050
C2821	C282	0.462860	0.966590	0.405490
C2831	C283	0.165050	0.901350	0.458950
C2841	C284	0.018740	0.941700	0.402420
C2851	C285	0.250560	0.789840	0.539840
C2861	C286	0.341920	0.755660	0.539900
C2871	C287	0.422410	0.768530	0.554450
C2881	C288	0.406060	0.815550	0.571130
C2891	C289	0.313700	0.844030	0.569170
C2901	C290	0.521970	0.732910	0.556150
C2911	C291	0.520900	0.684930	0.563670
C2921	C292	0.615370	0.654310	0.563550
C2931	C293	0.706530	0.711780	0.546360
C2941	C294	0.614840	0.745800	0.546720
C2951	C295	0.789820	0.748650	0.871910
C2961	C296	0.773250	0.706590	0.893110
C2971	C297	0.684900	0.691690	0.888710
C2981	C298	0.621080	0.717190	0.861250
C2991	C299	0.639370	0.755560	0.839100
C3001	C300	0.724040	0.771920	0.845800
C3011	C301	0.876240	0.769200	0.878720
C3021	C302	0.847920	0.808460	0.907900
C3031	C303	0.925440	0.833480	0.912640
C3041	C304	0.023690	0.818240	0.887180
C3051	C305	0.053210	0.779410	0.856970
C3061	C306	0.978990	0.754380	0.854240
C3071	C307	0.655260	0.650310	0.913370
C3081	C308	0.849040	0.680150	0.920170
C3091	C309	0.737230	0.826150	0.930990
C3101	C310	0.899210	0.871570	0.944210
C3111	C311	0.370380	0.653130	0.054510
C3121	C312	0.388260	0.605700	0.068780
C3131	C313	0.309350	0.584220	0.081480
C3141	C314	0.204790	0.608220	0.084200
C3151	C315	0.186270	0.652700	0.068360
C3161	C316	0.271730	0.676330	0.051010
C3171	C317	0.946760	0.568610	0.118470
C3181	C318	0.033740	0.585400	0.089920
C3191	C319	0.114850	0.587400	0.108500
C3201	C320	0.116830	0.574870	0.153470
C3211	C321	0.032700	0.560050	0.182350
C3221	C322	0.945890	0.556910	0.164510
C3231	C323	0.498450	0.580950	0.068950
C3241	C324	0.334940	0.533410	0.094510
C3251	C325	0.025350	0.598650	0.041050
C3261	C326	0.862860	0.558300	0.097580
C3271	C327	0.080240	0.710160	0.960160
C3281	C328	0.137480	0.744340	0.960100
C3291	C329	0.245390	0.731470	0.945550
C3301	C330	0.292740	0.684450	0.928870
C3311	C331	0.226900	0.655970	0.930830
C3321	C332	0.311030	0.767090	0.943850
C3331	C333	0.269500	0.815070	0.936330
C3341	C334	0.333230	0.845690	0.936450
C3351	C335	0.464670	0.788220	0.953640
C3361	C336	0.407360	0.754200	0.953280
N11	N1	0.933010	0.945000	0.831180
N21	N2	0.627080	0.944620	0.666820
N31	N3	0.209190	0.555000	0.668820
N41	N4	0.738520	0.555380	0.833180
N51	N5	0.764190	0.168820	0.445000
N61	N6	0.293900	0.333180	0.444620
N71	N7	0.878010	0.331180	0.055000
N81	N8	0.571700	0.166820	0.055380
N91	N9	0.066990	0.055000	0.168820
N101	N10	0.372920	0.055380	0.333180
N111	N11	0.790810	0.445000	0.331180
N121	N12	0.261480	0.444620	0.166820
N131	N13	0.235810	0.831180	0.555000
N141	N14	0.706100	0.666820	0.555380
N151	N15	0.121990	0.668820	0.945000
N161	N16	0.428300	0.833180	0.944620
O11	O1	0.189030	0.959810	0.804730
O21	O2	0.183820	0.901610	0.853750
O31	O3	0.364540	0.950350	0.862570
O41	O4	0.503770	0.898170	0.869490
O51	O5	0.349470	0.960600	0.696260
O61	O6	0.391770	0.913660	0.636800
O71	O7	0.189070	0.981760	0.628300
O81	O8	0.121940	0.934860	0.595660
O91	O9	0.617250	0.073580	0.995520
O101	O10	0.486470	0.125860	0.977800
O111	O11	0.416960	0.040700	0.951980
O121	O12	0.357030	0.097580	0.907760
O131	O13	0.021350	0.032960	0.876740
O141	O14	0.887370	0.009260	0.918200
O151	O15	0.111630	0.118520	0.924020
O161	O16	0.051160	0.065250	0.967630
O171	O17	0.453570	0.540190	0.695270
O181	O18	0.439180	0.598390	0.646250
O191	O19	0.677460	0.549650	0.637430
O201	O20	0.771430	0.601830	0.630510
O211	O21	0.506330	0.539400	0.803740
O221	O22	0.442230	0.586340	0.863200
O231	O23	0.299130	0.518240	0.871700
O241	O24	0.152460	0.565140	0.904340
O251	O25	0.186350	0.426420	0.504480
O261	O26	0.090130	0.374140	0.522200
O271	O27	0.909640	0.459300	0.548020
O281	O28	0.862370	0.402420	0.592240
O291	O29	0.431050	0.467040	0.623260
O301	O30	0.314830	0.490740	0.581800
O311	O31	0.654170	0.381480	0.575980
O321	O32	0.584040	0.434750	0.532370
O331	O33	0.993760	0.195270	0.459810
O341	O34	0.037570	0.146250	0.401610
O351	O35	0.227110	0.137430	0.450350
O361	O36	0.373260	0.130510	0.398170
O371	O37	0.045730	0.303740	0.460600
O381	O38	0.028570	0.363200	0.413660
O391	O39	0.817370	0.371700	0.481760
O401	O40	0.717600	0.404340	0.434860
O411	O41	0.612770	0.004480	0.573580
O421	O42	0.464270	0.022200	0.625860
O431	O43	0.368940	0.048020	0.540700
O441	O44	0.264790	0.092240	0.597580
O451	O45	0.898090	0.123260	0.532960
O461	O46	0.805570	0.081800	0.509260
O471	O47	0.035650	0.075980	0.618520
O481	O48	0.018790	0.032370	0.565250
O491	O49	0.148840	0.304730	0.040190
O501	O50	0.085430	0.353750	0.098390
O511	O51	0.314890	0.362570	0.049650
O521	O52	0.401940	0.369490	0.101830
O531	O53	0.310070	0.196260	0.039400
O541	O54	0.305430	0.136800	0.086340
O551	O55	0.170830	0.128300	0.018240
O561	O56	0.056800	0.095660	0.065140
O571	O57	0.690830	0.495520	0.926420
O581	O58	0.612330	0.477800	0.874140
O591	O59	0.457660	0.451980	0.959300
O601	O60	0.454610	0.407760	0.902420
O611	O61	0.054310	0.376740	0.967040
O621	O62	0.896630	0.418200	0.990740
O631	O63	0.230150	0.424020	0.881480
O641	O64	0.116410	0.467630	0.934750
O651	O65	0.810970	0.040190	0.195270
O661	O66	0.816180	0.098390	0.146250
O671	O67	0.635460	0.049650	0.137430
O681	O68	0.496230	0.101830	0.130510
O691	O69	0.650530	0.039400	0.303740
O701	O70	0.608230	0.086340	0.363200
O711	O71	0.810930	0.018240	0.371700
O721	O72	0.878060	0.065140	0.404340
O731	O73	0.382750	0.926420	0.004480
O741	O74	0.513530	0.874140	0.022200
O751	O75	0.583040	0.959300	0.048020
O761	O76	0.642970	0.902420	0.092240
O771	O77	0.978650	0.967040	0.123260
O781	O78	0.112630	0.990740	0.081800
O791	O79	0.888370	0.881480	0.075980
O801	O80	0.948840	0.934750	0.032370
O811	O81	0.546430	0.459810	0.304730
O821	O82	0.560820	0.401610	0.353750
O831	O83	0.322540	0.450350	0.362570
O841	O84	0.228570	0.398170	0.369490
O851	O85	0.493670	0.460600	0.196260
O861	O86	0.557770	0.413660	0.136800
O871	O87	0.700870	0.481760	0.128300
O881	O88	0.847540	0.434860	0.095660
O891	O89	0.813650	0.573580	0.495520
O901	O90	0.909870	0.625860	0.477800
O911	O91	0.090360	0.540700	0.451980
O921	O92	0.137630	0.597580	0.407760
O931	O93	0.568950	0.532960	0.376740
O941	O94	0.685170	0.509260	0.418200
O951	O95	0.345830	0.618520	0.424020
O961	O96	0.415960	0.565250	0.467630
O971	O97	0.006240	0.804730	0.540190
O981	O98	0.962430	0.853750	0.598390
O991	O99	0.772890	0.862570	0.549650
O1001	O100	0.626740	0.869490	0.601830
O1011	O101	0.954270	0.696260	0.539400
O1021	O102	0.971430	0.636800	0.586340
O1031	O103	0.182630	0.628300	0.518240
O1041	O104	0.282400	0.595660	0.565140
O1051	O105	0.387230	0.995520	0.426420
O1061	O106	0.535730	0.977800	0.374140
O1071	O107	0.631060	0.951980	0.459300
O1081	O108	0.735210	0.907760	0.402420
O1091	O109	0.101910	0.876740	0.467040
O1101	O110	0.194430	0.918200	0.490740
O1111	O111	0.964350	0.924020	0.381480
O1121	O112	0.981210	0.967630	0.434750
O1131	O113	0.851160	0.695270	0.959810
O1141	O114	0.914570	0.646250	0.901610
O1151	O115	0.685110	0.637430	0.950350
O1161	O116	0.598060	0.630510	0.898170
O1171	O117	0.689930	0.803740	0.960600
O1181	O118	0.694570	0.863200	0.913660
O1191	O119	0.829170	0.871700	0.981760
O1201	O120	0.943200	0.904340	0.934860
O1211	O121	0.309170	0.504480	0.073580
O1221	O122	0.387670	0.522200	0.125860
O1231	O123	0.542340	0.548020	0.040700
O1241	O124	0.545390	0.592240	0.097580
O1251	O125	0.945690	0.623260	0.032960
O1261	O126	0.103370	0.581800	0.009260
O1271	O127	0.769850	0.575980	0.118520
O1281	O128	0.883590	0.532370	0.065250
