data_NEYJIM_clean_PM
_symmetry_space_group_name_H-M	'P1'
_cell_length_a	11.655400
_cell_length_b	13.404500
_cell_length_c	20.679700
_cell_angle_alpha	89.141000
_cell_angle_beta	76.439000
_cell_angle_gamma	67.332000
_symmetry_Int_Tables_number 1

loop_
_symmetry_equiv_pos_as_xyz
'x,y,z'

loop_
_atom_site_label
_atom_site_type_symbol
_atom_site_fract_x
_atom_site_fract_y
_atom_site_fract_z
Mo11	Mo1	0.545610	0.547790	0.327750
Mo21	Mo2	0.246970	0.697420	0.619910
Mo31	Mo3	0.273210	0.731290	0.446590
Mo41	Mo4	0.500940	0.764160	0.524920
Mo51	Mo5	0.294660	0.463870	0.408930
Mo61	Mo6	0.769820	0.555290	0.415780
O11	O1	0.417700	0.483500	0.343000
O21	O2	0.386800	0.793000	0.471600
O31	O3	0.411200	0.678000	0.367300
O41	O4	0.362700	0.762500	0.599300
O51	O5	0.597900	0.481800	0.432800
O61	O6	0.195500	0.447100	0.366400
O71	O7	0.200000	0.470100	0.500000
O81	O8	0.664800	0.397400	0.325500
O91	O9	0.604200	0.678000	0.585000
O101	O10	0.667800	0.588200	0.350300
O111	O11	0.172400	0.590000	0.609900
O121	O12	0.218800	0.622800	0.427500
O131	O13	0.197900	0.741100	0.537300
O141	O14	0.645800	0.702200	0.456100
O151	O15	0.433600	0.545700	0.444900
O161	O16	0.413500	0.433500	0.493000
O171	O17	0.587900	0.381000	0.484000
Cu11	Cu1	0.987220	0.189320	0.780990
Cu21	Cu2	0.792810	0.354180	0.107930
Cu31	Cu3	0.034000	0.691680	0.372580
Cu41	Cu4	0.628750	0.978690	0.654660
Cu51	Cu5	0.185030	0.434890	0.264980
N11	N1	0.879900	0.382400	0.172700
N21	N2	0.617800	0.357300	0.149200
N31	N3	0.728300	0.045900	0.695000
N41	N4	0.040500	0.415900	0.243400
C11	C1	0.748600	0.178900	0.759400
H11	H1	0.707900	0.244800	0.785300
C21	C2	0.935500	0.203600	0.990000
H21	H2	0.953600	0.151300	0.020400
N51	N5	0.875000	0.125300	0.750400
C31	C3	0.039600	0.317500	0.233200
H31	H3	0.095000	0.258100	0.249600
C41	C4	0.959000	0.302600	0.199100
H41	H4	0.959900	0.233400	0.194300
C51	C5	0.953600	0.497900	0.220800
H51	H5	0.946900	0.568300	0.228800
C61	C6	0.925100	0.029800	0.714600
H61	H6	0.012100	0.987500	0.708700
C71	C7	0.517100	0.413300	0.124000
H71	H7	0.531300	0.442100	0.083200
C81	C8	0.897700	0.345600	0.898800
H81	H8	0.887100	0.397400	0.867800
C91	C9	0.875300	0.481900	0.186700
H91	H9	0.816300	0.541700	0.172500
C101	C10	0.676900	0.139700	0.731500
H101	H10	0.589300	0.180400	0.738500
C111	C11	0.856300	0.379600	0.965800
H111	H11	0.815800	0.453500	0.978800
C121	C12	0.854000	0.991500	0.686100
H121	H12	0.894400	0.925800	0.659900
C131	C13	0.591500	0.313800	0.205500
H131	H13	0.658700	0.272100	0.223900
N61	N6	0.872600	0.309200	0.013000
C141	C14	0.973500	0.171400	0.922900
H141	H14	0.015600	0.097700	0.909400
N71	N7	0.952400	0.240900	0.876800
N81	N8	0.175000	0.123200	0.730600
N91	N9	0.924300	0.770700	0.455900
N101	N10	0.442700	0.035900	0.678600
N111	N11	0.752600	0.884800	0.574200
N121	N12	0.367800	0.388000	0.215500
C151	C15	0.467700	0.328100	0.238200
H151	H15	0.454400	0.294500	0.277300
C161	C16	0.368800	0.138400	0.671600
H161	H16	0.407400	0.182300	0.649000
C171	C17	0.236600	0.181500	0.696800
H171	H17	0.189400	0.252900	0.690100
C181	C18	0.249000	0.021100	0.737300
H181	H18	0.210600	0.977600	0.760700
C191	C19	0.831400	0.781700	0.571500
H191	H19	0.828600	0.746400	0.610500
C201	C20	0.917900	0.724000	0.513300
H201	H20	0.971900	0.652000	0.514300
C211	C21	0.396300	0.428700	0.156400
H211	H21	0.329600	0.469000	0.137400
C221	C22	0.377700	0.977900	0.711600
H221	H22	0.423500	0.905400	0.716800
C231	C23	0.762800	0.931400	0.516800
H231	H23	0.711800	0.004400	0.516400
C241	C24	0.846500	0.874900	0.458300
H241	H24	0.848900	0.910300	0.419300
Cl11	Cl1	0.121000	0.638100	0.268540
Mo71	Mo7	0.454390	0.452210	0.672250
Mo81	Mo8	0.753030	0.302580	0.380090
Mo91	Mo9	0.726790	0.268710	0.553410
Mo101	Mo10	0.499060	0.235840	0.475080
Mo111	Mo11	0.705340	0.536130	0.591070
Mo121	Mo12	0.230180	0.444710	0.584220
O181	O18	0.582300	0.516500	0.657000
O191	O19	0.613200	0.207000	0.528400
O201	O20	0.588800	0.322000	0.632700
O211	O21	0.637300	0.237500	0.400700
O221	O22	0.402100	0.518200	0.567200
O231	O23	0.804500	0.552900	0.633600
O241	O24	0.800000	0.529900	0.500000
O251	O25	0.335200	0.602600	0.674500
O261	O26	0.395800	0.322000	0.415000
O271	O27	0.332200	0.411800	0.649700
O281	O28	0.827600	0.410000	0.390100
O291	O29	0.781200	0.377200	0.572500
O301	O30	0.802100	0.258900	0.462700
O311	O31	0.354200	0.297800	0.543900
O321	O32	0.566400	0.454300	0.555100
O331	O33	0.586500	0.566500	0.507000
O341	O34	0.412100	0.619000	0.516000
Cu61	Cu6	0.012780	0.810680	0.219010
Cu71	Cu7	0.207190	0.645820	0.892070
Cu81	Cu8	0.966000	0.308320	0.627420
Cu91	Cu9	0.371250	0.021310	0.345340
Cu101	Cu10	0.814970	0.565110	0.735020
N131	N13	0.120100	0.617600	0.827300
N141	N14	0.382200	0.642700	0.850800
N151	N15	0.271700	0.954100	0.305000
N161	N16	0.959500	0.584100	0.756600
C251	C25	0.251400	0.821100	0.240600
H251	H25	0.292100	0.755200	0.214700
C261	C26	0.064500	0.796400	0.010000
H261	H26	0.046400	0.848700	0.979600
N171	N17	0.125000	0.874700	0.249600
C271	C27	0.960400	0.682500	0.766800
H271	H27	0.905000	0.741900	0.750400
C281	C28	0.041000	0.697400	0.800900
H281	H28	0.040100	0.766600	0.805700
C291	C29	0.046400	0.502100	0.779200
H291	H29	0.053100	0.431700	0.771200
C301	C30	0.074900	0.970200	0.285400
H301	H30	0.987900	0.012500	0.291300
C311	C31	0.482900	0.586700	0.876000
H311	H31	0.468700	0.557900	0.916800
C321	C32	0.102300	0.654400	0.101200
H321	H32	0.112900	0.602600	0.132200
C331	C33	0.124700	0.518100	0.813300
H331	H33	0.183700	0.458300	0.827500
C341	C34	0.323100	0.860300	0.268500
H341	H34	0.410700	0.819600	0.261500
C351	C35	0.143700	0.620400	0.034200
H351	H35	0.184200	0.546500	0.021200
C361	C36	0.146000	0.008500	0.313900
H361	H36	0.105600	0.074200	0.340100
C371	C37	0.408500	0.686200	0.794500
H371	H37	0.341300	0.727900	0.776100
N181	N18	0.127400	0.690800	0.987000
C381	C38	0.026500	0.828600	0.077100
H381	H38	0.984400	0.902300	0.090600
N191	N19	0.047600	0.759100	0.123200
N201	N20	0.825000	0.876800	0.269400
N211	N21	0.075700	0.229300	0.544100
N221	N22	0.557300	0.964100	0.321400
N231	N23	0.247400	0.115200	0.425800
N241	N24	0.632200	0.612000	0.784500
C391	C39	0.532300	0.671900	0.761800
H391	H39	0.545600	0.705500	0.722700
C401	C40	0.631200	0.861600	0.328400
H401	H40	0.592600	0.817700	0.351000
C411	C41	0.763400	0.818500	0.303200
H411	H41	0.810600	0.747100	0.309900
C421	C42	0.751000	0.978900	0.262700
H421	H42	0.789400	0.022400	0.239300
C431	C43	0.168600	0.218300	0.428500
H431	H43	0.171400	0.253600	0.389500
C441	C44	0.082100	0.276000	0.486700
H441	H44	0.028100	0.348000	0.485700
C451	C45	0.603700	0.571300	0.843600
H451	H45	0.670400	0.531000	0.862600
C461	C46	0.622300	0.022100	0.288400
H461	H46	0.576500	0.094600	0.283200
C471	C47	0.237200	0.068600	0.483200
H471	H47	0.288200	0.995600	0.483600
C481	C48	0.153500	0.125100	0.541700
H481	H48	0.151100	0.089700	0.580700
Cl21	Cl2	0.879000	0.361900	0.731460
P11	P1	0.500000	0.500000	0.500000
