data_NEYYIZ_clean_PM
_symmetry_space_group_name_H-M	'P1'
_cell_length_a	8.959000
_cell_length_b	8.959000
_cell_length_c	21.764000
_cell_angle_alpha	90.000000
_cell_angle_beta	90.000000
_cell_angle_gamma	120.000000
_symmetry_Int_Tables_number 1

loop_
_symmetry_equiv_pos_as_xyz
'x,y,z'

loop_
_atom_site_label
_atom_site_type_symbol
_atom_site_fract_x
_atom_site_fract_y
_atom_site_fract_z
Rb11	Rb1	0.000000	0.000000	0.500000
Rb21	Rb2	0.666670	0.333330	0.833330
Rb31	Rb3	0.333330	0.666670	0.166670
Cr11	Cr1	0.333330	0.666670	0.666670
Cr21	Cr2	0.000000	0.000000	0.000000
Cr31	Cr3	0.666670	0.333330	0.333330
C11	C1	0.224700	0.775300	0.611500
N11	N1	0.163700	0.836300	0.580000
C21	C2	0.891370	0.108630	0.944830
N21	N2	0.830370	0.169630	0.913330
C31	C3	0.558030	0.441970	0.278170
N31	N3	0.497030	0.502970	0.246670
C41	C4	0.224700	0.449400	0.611500
N41	N4	0.163700	0.327400	0.580000
C51	C5	0.891370	0.782730	0.944830
N51	N5	0.830370	0.660730	0.913330
C61	C6	0.558030	0.116070	0.278170
N61	N6	0.497030	0.994070	0.246670
C71	C7	0.550600	0.775300	0.611500
N71	N7	0.672600	0.836300	0.580000
C81	C8	0.217270	0.108630	0.944830
N81	N8	0.339270	0.169630	0.913330
C91	C9	0.883930	0.441970	0.278170
N91	N9	0.005930	0.502970	0.246670
C101	C10	0.775300	0.224700	0.388500
N101	N10	0.836300	0.163700	0.420000
C111	C11	0.441970	0.558030	0.721830
N111	N11	0.502970	0.497030	0.753330
C121	C12	0.108630	0.891370	0.055170
N121	N12	0.169630	0.830370	0.086670
C131	C13	0.449400	0.224700	0.388500
N131	N13	0.327400	0.163700	0.420000
C141	C14	0.116070	0.558030	0.721830
N141	N14	0.994070	0.497030	0.753330
C151	C15	0.782730	0.891370	0.055170
N151	N15	0.660730	0.830370	0.086670
C161	C16	0.775300	0.550600	0.388500
N161	N16	0.836300	0.672600	0.420000
C171	C17	0.441970	0.883930	0.721830
N171	N17	0.502970	0.005930	0.753330
C181	C18	0.108630	0.217270	0.055170
N181	N18	0.169630	0.339270	0.086670
