data_NEZBOK_clean_PM
_symmetry_space_group_name_H-M	'P1'
_cell_length_a	6.062700
_cell_length_b	10.712200
_cell_length_c	10.387200
_cell_angle_alpha	90.000000
_cell_angle_beta	97.956000
_cell_angle_gamma	90.000000
_symmetry_Int_Tables_number 1

loop_
_symmetry_equiv_pos_as_xyz
'x,y,z'

loop_
_atom_site_label
_atom_site_type_symbol
_atom_site_fract_x
_atom_site_fract_y
_atom_site_fract_z
Mn11	Mn1	0.886420	0.612950	0.408450
P11	P1	0.034610	0.843560	0.228710
H11	H1	0.178100	0.801100	0.230000
O11	O1	0.932800	0.793500	0.344780
O21	O2	0.898500	0.810730	0.100900
O31	O3	0.087400	0.983040	0.247420
O41	O4	0.769200	0.058550	0.016460
O51	O5	0.517800	0.883350	0.884020
C11	C1	0.572000	0.050910	0.039260
Mn21	Mn2	0.113580	0.112950	0.091550
P21	P2	0.965390	0.343560	0.271290
H21	H2	0.821900	0.301100	0.270000
O61	O6	0.067200	0.293500	0.155220
O71	O7	0.101500	0.310730	0.399100
O81	O8	0.912600	0.483040	0.252580
O91	O9	0.230800	0.558550	0.483540
O101	O10	0.482200	0.383350	0.615980
C21	C2	0.428000	0.550910	0.460740
Mn31	Mn3	0.113580	0.387050	0.591550
P31	P3	0.965390	0.156440	0.771290
H31	H3	0.821900	0.198900	0.770000
O111	O11	0.067200	0.206500	0.655220
O121	O12	0.101500	0.189270	0.899100
O131	O13	0.912600	0.016960	0.752580
O141	O14	0.230800	0.941450	0.983540
O151	O15	0.482200	0.116650	0.115980
C31	C3	0.428000	0.949090	0.960740
Mn41	Mn4	0.886420	0.887050	0.908450
P41	P4	0.034610	0.656440	0.728710
H41	H4	0.178100	0.698900	0.730000
O161	O16	0.932800	0.706500	0.844780
O171	O17	0.898500	0.689270	0.600900
O181	O18	0.087400	0.516960	0.747420
O191	O19	0.769200	0.441450	0.516460
O201	O20	0.517800	0.616650	0.384020
C41	C4	0.572000	0.449090	0.539260
