data_NHBZZN10_clean_h_PM
_symmetry_space_group_name_H-M	'P1'
_cell_length_a	7.623000
_cell_length_b	11.189000
_cell_length_c	16.873000
_cell_angle_alpha	90.000000
_cell_angle_beta	90.000000
_cell_angle_gamma	90.000000
_symmetry_Int_Tables_number 1

loop_
_symmetry_equiv_pos_as_xyz
'x,y,z'

loop_
_atom_site_label
_atom_site_type_symbol
_atom_site_fract_x
_atom_site_fract_y
_atom_site_fract_z
Zn11	Zn1	0.101400	0.641800	0.038700
Zn21	Zn2	0.398600	0.358200	0.538700
Zn31	Zn3	0.898600	0.141800	0.461300
Zn41	Zn4	0.601400	0.858200	0.961300
C11	C1	0.417400	0.433800	0.395900
C21	C2	0.390400	0.454500	0.307000
C31	C3	0.441100	0.564400	0.275100
C41	C4	0.413400	0.584600	0.195300
C51	C5	0.334600	0.495600	0.149800
C61	C6	0.285400	0.387400	0.180600
C71	C7	0.316700	0.365100	0.261100
C81	C8	0.873600	0.384300	0.395300
C91	C9	0.870600	0.441600	0.314000
C101	C10	0.801300	0.382000	0.248600
C111	C11	0.797600	0.430900	0.174800
C121	C12	0.865100	0.555400	0.164600
C131	C13	0.939200	0.610000	0.229600
C141	C14	0.941200	0.557800	0.302400
C151	C15	0.082600	0.566200	0.895900
C161	C16	0.109600	0.545500	0.807000
C171	C17	0.058900	0.435600	0.775100
C181	C18	0.086600	0.415400	0.695300
C191	C19	0.165400	0.504400	0.649800
C201	C20	0.214600	0.612600	0.680600
C211	C21	0.183300	0.634900	0.761100
C221	C22	0.626400	0.615700	0.895300
C231	C23	0.629400	0.558400	0.814000
C241	C24	0.698700	0.618000	0.748600
C251	C25	0.702400	0.569100	0.674800
C261	C26	0.634900	0.444600	0.664600
C271	C27	0.560800	0.390000	0.729600
C281	C28	0.558800	0.442200	0.802400
C291	C29	0.582600	0.933800	0.104100
C301	C30	0.609600	0.954500	0.193000
C311	C31	0.558900	0.064400	0.224900
C321	C32	0.586600	0.084600	0.304700
C331	C33	0.665400	0.995600	0.350200
C341	C34	0.714600	0.887400	0.319400
C351	C35	0.683300	0.865100	0.238900
C361	C36	0.126400	0.884300	0.104700
C371	C37	0.129400	0.941600	0.186000
C381	C38	0.198700	0.882000	0.251400
C391	C39	0.202400	0.930900	0.325200
C401	C40	0.134900	0.055400	0.335400
C411	C41	0.060800	0.110000	0.270400
C421	C42	0.058800	0.057800	0.197600
C431	C43	0.917400	0.066200	0.604100
C441	C44	0.890400	0.045500	0.693000
C451	C45	0.941100	0.935600	0.724900
C461	C46	0.913400	0.915400	0.804700
C471	C47	0.834600	0.004400	0.850200
C481	C48	0.785400	0.112600	0.819400
C491	C49	0.816700	0.134900	0.738900
C501	C50	0.373600	0.115700	0.604700
C511	C51	0.370600	0.058400	0.686000
C521	C52	0.301300	0.118000	0.751400
C531	C53	0.297600	0.069100	0.825200
C541	C54	0.365100	0.944600	0.835400
C551	C55	0.439200	0.890000	0.770400
C561	C56	0.441200	0.942200	0.697600
N11	N1	0.296500	0.520500	0.064200
N21	N2	0.858700	0.608900	0.086800
N31	N3	0.203500	0.479500	0.564200
N41	N4	0.641300	0.391100	0.586800
N51	N5	0.703500	0.020500	0.435800
N61	N6	0.141300	0.108900	0.413200
N71	N7	0.796500	0.979500	0.935800
N81	N8	0.358700	0.891100	0.913200
O11	O1	0.481800	0.511700	0.438300
O21	O2	0.365200	0.331300	0.423800
O31	O3	0.822700	0.276400	0.397100
O41	O4	0.919900	0.444600	0.454000
O51	O5	0.018200	0.488300	0.938300
O61	O6	0.134800	0.668700	0.923800
O71	O7	0.677300	0.723600	0.897100
O81	O8	0.580100	0.555400	0.954000
O91	O9	0.518200	0.011700	0.061700
O101	O10	0.634800	0.831300	0.076200
O111	O11	0.177300	0.776400	0.102900
O121	O12	0.080100	0.944600	0.046000
O131	O13	0.981800	0.988300	0.561700
O141	O14	0.865200	0.168700	0.576200
O151	O15	0.322700	0.223600	0.602900
O161	O16	0.419900	0.055400	0.546000
H11	H1	0.503780	0.635010	0.314730
H21	H2	0.454840	0.673100	0.167550
H31	H3	0.220500	0.317780	0.140930
H41	H4	0.281560	0.274560	0.287720
H51	H5	0.744620	0.288330	0.255740
H61	H6	0.744010	0.377120	0.122770
H71	H7	0.001680	0.702100	0.223440
H81	H8	0.000070	0.607360	0.355100
H91	H9	0.996220	0.364990	0.814730
H101	H10	0.045160	0.326900	0.667550
H111	H11	0.279500	0.682220	0.640930
H121	H12	0.217440	0.724800	0.788910
H131	H13	0.755380	0.711670	0.755740
H141	H14	0.755990	0.622880	0.622770
H151	H15	0.498320	0.297900	0.723440
H161	H16	0.499930	0.392640	0.855100
H171	H17	0.496220	0.135010	0.185270
H181	H18	0.545160	0.173100	0.332450
H191	H19	0.779500	0.817780	0.359070
H201	H20	0.717440	0.775200	0.211090
H211	H21	0.255380	0.788330	0.244260
H221	H22	0.255990	0.877120	0.377230
H231	H23	0.998320	0.202100	0.276560
H241	H24	0.999930	0.107360	0.144900
H251	H25	0.003780	0.864990	0.685270
H261	H26	0.954840	0.826900	0.832450
H271	H27	0.720500	0.182220	0.859070
H281	H28	0.782560	0.224800	0.711090
H291	H29	0.244620	0.211670	0.744260
H301	H30	0.244010	0.122880	0.877230
H311	H31	0.501680	0.797900	0.776560
H321	H32	0.500070	0.892640	0.644900
