data_NIBJAK_clean_PM
_symmetry_space_group_name_H-M	'P1'
_cell_length_a	37.471700
_cell_length_b	37.471700
_cell_length_c	37.471700
_cell_angle_alpha	60.000000
_cell_angle_beta	60.000000
_cell_angle_gamma	60.000000
_symmetry_Int_Tables_number 1

loop_
_symmetry_equiv_pos_as_xyz
'x,y,z'

loop_
_atom_site_label
_atom_site_type_symbol
_atom_site_fract_x
_atom_site_fract_y
_atom_site_fract_z
Cu11	Cu1	0.500000	0.035490	0.964510
Cu21	Cu2	0.035490	0.500000	0.500000
Cu31	Cu3	0.964510	0.500000	0.500000
Cu41	Cu4	0.500000	0.964510	0.035490
Cu51	Cu5	0.500000	0.964510	0.500000
Cu61	Cu6	0.035490	0.500000	0.964510
Cu71	Cu7	0.964510	0.500000	0.035490
Cu81	Cu8	0.500000	0.035490	0.500000
Cu91	Cu9	0.500000	0.500000	0.035490
Cu101	Cu10	0.035490	0.964510	0.500000
Cu111	Cu11	0.964510	0.035490	0.500000
Cu121	Cu12	0.500000	0.500000	0.964510
H11	H1	0.477500	0.995100	0.890700
H21	H2	0.472300	0.962900	0.855500
H31	H3	0.995100	0.477500	0.636700
H41	H4	0.962900	0.472300	0.709300
H51	H5	0.890700	0.636700	0.477500
H61	H6	0.855500	0.709300	0.472300
H71	H7	0.636700	0.890700	0.995100
H81	H8	0.709300	0.855500	0.962900
H91	H9	0.477500	0.890700	0.636700
H101	H10	0.472300	0.855500	0.709300
H111	H11	0.995100	0.636700	0.890700
H121	H12	0.962900	0.709300	0.855500
H131	H13	0.890700	0.477500	0.995100
H141	H14	0.855500	0.472300	0.962900
H151	H15	0.636700	0.995100	0.477500
H161	H16	0.709300	0.962900	0.472300
H171	H17	0.477500	0.636700	0.995100
H181	H18	0.472300	0.709300	0.962900
H191	H19	0.995100	0.890700	0.477500
H201	H20	0.962900	0.855500	0.472300
H211	H21	0.890700	0.995100	0.636700
H221	H22	0.855500	0.962900	0.709300
H231	H23	0.636700	0.477500	0.890700
H241	H24	0.709300	0.472300	0.855500
H251	H25	0.004900	0.522500	0.109300
H261	H26	0.037100	0.527700	0.144500
H271	H27	0.522500	0.004900	0.363300
H281	H28	0.527700	0.037100	0.290700
H291	H29	0.363300	0.109300	0.522500
H301	H30	0.290700	0.144500	0.527700
H311	H31	0.109300	0.363300	0.004900
H321	H32	0.144500	0.290700	0.037100
H331	H33	0.109300	0.522500	0.363300
H341	H34	0.144500	0.527700	0.290700
H351	H35	0.363300	0.004900	0.109300
H361	H36	0.290700	0.037100	0.144500
H371	H37	0.522500	0.109300	0.004900
H381	H38	0.527700	0.144500	0.037100
H391	H39	0.004900	0.363300	0.522500
H401	H40	0.037100	0.290700	0.527700
H411	H41	0.363300	0.522500	0.004900
H421	H42	0.290700	0.527700	0.037100
H431	H43	0.109300	0.004900	0.522500
H441	H44	0.144500	0.037100	0.527700
H451	H45	0.004900	0.109300	0.363300
H461	H46	0.037100	0.144500	0.290700
H471	H47	0.522500	0.363300	0.109300
H481	H48	0.527700	0.290700	0.144500
H491	H49	0.522500	0.004900	0.109300
H501	H50	0.527700	0.037100	0.144500
H511	H51	0.004900	0.522500	0.363300
H521	H52	0.037100	0.527700	0.290700
H531	H53	0.109300	0.363300	0.522500
H541	H54	0.144500	0.290700	0.527700
H551	H55	0.363300	0.109300	0.004900
H561	H56	0.290700	0.144500	0.037100
H571	H57	0.522500	0.109300	0.363300
H581	H58	0.527700	0.144500	0.290700
H591	H59	0.004900	0.363300	0.109300
H601	H60	0.037100	0.290700	0.144500
H611	H61	0.109300	0.522500	0.004900
H621	H62	0.144500	0.527700	0.037100
H631	H63	0.363300	0.004900	0.522500
H641	H64	0.290700	0.037100	0.527700
H651	H65	0.522500	0.363300	0.004900
H661	H66	0.527700	0.290700	0.037100
H671	H67	0.004900	0.109300	0.522500
H681	H68	0.037100	0.144500	0.527700
H691	H69	0.109300	0.004900	0.363300
H701	H70	0.144500	0.037100	0.290700
H711	H71	0.363300	0.522500	0.109300
H721	H72	0.290700	0.527700	0.144500
H731	H73	0.995100	0.477500	0.890700
H741	H74	0.962900	0.472300	0.855500
H751	H75	0.477500	0.995100	0.636700
H761	H76	0.472300	0.962900	0.709300
H771	H77	0.636700	0.890700	0.477500
H781	H78	0.709300	0.855500	0.472300
H791	H79	0.890700	0.636700	0.995100
H801	H80	0.855500	0.709300	0.962900
H811	H81	0.890700	0.477500	0.636700
H821	H82	0.855500	0.472300	0.709300
H831	H83	0.636700	0.995100	0.890700
H841	H84	0.709300	0.962900	0.855500
H851	H85	0.477500	0.890700	0.995100
H861	H86	0.472300	0.855500	0.962900
H871	H87	0.995100	0.636700	0.477500
H881	H88	0.962900	0.709300	0.472300
H891	H89	0.636700	0.477500	0.995100
H901	H90	0.709300	0.472300	0.962900
H911	H91	0.890700	0.995100	0.477500
H921	H92	0.855500	0.962900	0.472300
H931	H93	0.995100	0.890700	0.636700
H941	H94	0.962900	0.855500	0.709300
H951	H95	0.477500	0.636700	0.890700
H961	H96	0.472300	0.709300	0.855500
C11	C1	0.476900	0.966700	0.905000
C21	C2	0.473270	0.947790	0.883790
C31	C3	0.966700	0.476900	0.651400
C41	C4	0.947790	0.473270	0.695150
C51	C5	0.905000	0.651400	0.476900
C61	C6	0.883790	0.695150	0.473270
C71	C7	0.651400	0.905000	0.966700
C81	C8	0.695150	0.883790	0.947790
C91	C9	0.476900	0.905000	0.651400
C101	C10	0.473270	0.883790	0.695150
C111	C11	0.966700	0.651400	0.905000
C121	C12	0.947790	0.695150	0.883790
C131	C13	0.905000	0.476900	0.966700
C141	C14	0.883790	0.473270	0.947790
C151	C15	0.651400	0.966700	0.476900
C161	C16	0.695150	0.947790	0.473270
C171	C17	0.476900	0.651400	0.966700
C181	C18	0.473270	0.695150	0.947790
C191	C19	0.966700	0.905000	0.476900
C201	C20	0.947790	0.883790	0.473270
C211	C21	0.905000	0.966700	0.651400
C221	C22	0.883790	0.947790	0.695150
C231	C23	0.651400	0.476900	0.905000
C241	C24	0.695150	0.473270	0.883790
C251	C25	0.033300	0.523100	0.095000
C261	C26	0.052210	0.526730	0.116210
C271	C27	0.523100	0.033300	0.348600
C281	C28	0.526730	0.052210	0.304850
C291	C29	0.348600	0.095000	0.523100
C301	C30	0.304850	0.116210	0.526730
C311	C31	0.095000	0.348600	0.033300
C321	C32	0.116210	0.304850	0.052210
C331	C33	0.095000	0.523100	0.348600
C341	C34	0.116210	0.526730	0.304850
C351	C35	0.348600	0.033300	0.095000
C361	C36	0.304850	0.052210	0.116210
C371	C37	0.523100	0.095000	0.033300
C381	C38	0.526730	0.116210	0.052210
C391	C39	0.033300	0.348600	0.523100
C401	C40	0.052210	0.304850	0.526730
C411	C41	0.348600	0.523100	0.033300
C421	C42	0.304850	0.526730	0.052210
C431	C43	0.095000	0.033300	0.523100
C441	C44	0.116210	0.052210	0.526730
C451	C45	0.033300	0.095000	0.348600
C461	C46	0.052210	0.116210	0.304850
C471	C47	0.523100	0.348600	0.095000
C481	C48	0.526730	0.304850	0.116210
C491	C49	0.523100	0.033300	0.095000
C501	C50	0.526730	0.052210	0.116210
C511	C51	0.033300	0.523100	0.348600
C521	C52	0.052210	0.526730	0.304850
C531	C53	0.095000	0.348600	0.523100
C541	C54	0.116210	0.304850	0.526730
C551	C55	0.348600	0.095000	0.033300
C561	C56	0.304850	0.116210	0.052210
C571	C57	0.523100	0.095000	0.348600
C581	C58	0.526730	0.116210	0.304850
C591	C59	0.033300	0.348600	0.095000
C601	C60	0.052210	0.304850	0.116210
C611	C61	0.095000	0.523100	0.033300
C621	C62	0.116210	0.526730	0.052210
C631	C63	0.348600	0.033300	0.523100
C641	C64	0.304850	0.052210	0.526730
C651	C65	0.523100	0.348600	0.033300
C661	C66	0.526730	0.304850	0.052210
C671	C67	0.033300	0.095000	0.523100
C681	C68	0.052210	0.116210	0.526730
C691	C69	0.095000	0.033300	0.348600
C701	C70	0.116210	0.052210	0.304850
C711	C71	0.348600	0.523100	0.095000
C721	C72	0.304850	0.526730	0.116210
C731	C73	0.966700	0.476900	0.905000
C741	C74	0.947790	0.473270	0.883790
C751	C75	0.476900	0.966700	0.651400
C761	C76	0.473270	0.947790	0.695150
C771	C77	0.651400	0.905000	0.476900
C781	C78	0.695150	0.883790	0.473270
C791	C79	0.905000	0.651400	0.966700
C801	C80	0.883790	0.695150	0.947790
C811	C81	0.905000	0.476900	0.651400
C821	C82	0.883790	0.473270	0.695150
C831	C83	0.651400	0.966700	0.905000
C841	C84	0.695150	0.947790	0.883790
C851	C85	0.476900	0.905000	0.966700
C861	C86	0.473270	0.883790	0.947790
C871	C87	0.966700	0.651400	0.476900
C881	C88	0.947790	0.695150	0.473270
C891	C89	0.651400	0.476900	0.966700
C901	C90	0.695150	0.473270	0.947790
C911	C91	0.905000	0.966700	0.476900
C921	C92	0.883790	0.947790	0.473270
C931	C93	0.966700	0.905000	0.651400
C941	C94	0.947790	0.883790	0.695150
C951	C95	0.476900	0.651400	0.905000
C961	C96	0.473270	0.695150	0.883790
C971	C97	0.487080	0.966640	0.966640
C981	C98	0.479510	0.945490	0.945490
C991	C99	0.471000	0.905740	0.905740
C1001	C100	0.467080	0.884980	0.884980
C1011	C101	0.966640	0.487080	0.579640
C1021	C102	0.945490	0.479510	0.629510
C1031	C103	0.905740	0.471000	0.717520
C1041	C104	0.884980	0.467080	0.762960
C1051	C105	0.966640	0.579640	0.487080
C1061	C106	0.945490	0.629510	0.479510
C1071	C107	0.905740	0.717520	0.471000
C1081	C108	0.884980	0.762960	0.467080
C1091	C109	0.579640	0.966640	0.966640
C1101	C110	0.629510	0.945490	0.945490
C1111	C111	0.717520	0.905740	0.905740
C1121	C112	0.762960	0.884980	0.884980
C1131	C113	0.487080	0.966640	0.579640
C1141	C114	0.479510	0.945490	0.629510
C1151	C115	0.471000	0.905740	0.717520
C1161	C116	0.467080	0.884980	0.762960
C1171	C117	0.966640	0.579640	0.966640
C1181	C118	0.945490	0.629510	0.945490
C1191	C119	0.905740	0.717520	0.905740
C1201	C120	0.884980	0.762960	0.884980
C1211	C121	0.966640	0.487080	0.966640
C1221	C122	0.945490	0.479510	0.945490
C1231	C123	0.905740	0.471000	0.905740
C1241	C124	0.884980	0.467080	0.884980
C1251	C125	0.579640	0.966640	0.487080
C1261	C126	0.629510	0.945490	0.479510
C1271	C127	0.717520	0.905740	0.471000
C1281	C128	0.762960	0.884980	0.467080
C1291	C129	0.487080	0.579640	0.966640
C1301	C130	0.479510	0.629510	0.945490
C1311	C131	0.471000	0.717520	0.905740
C1321	C132	0.467080	0.762960	0.884980
C1331	C133	0.966640	0.966640	0.487080
C1341	C134	0.945490	0.945490	0.479510
C1351	C135	0.905740	0.905740	0.471000
C1361	C136	0.884980	0.884980	0.467080
C1371	C137	0.966640	0.966640	0.579640
C1381	C138	0.945490	0.945490	0.629510
C1391	C139	0.905740	0.905740	0.717520
C1401	C140	0.884980	0.884980	0.762960
C1411	C141	0.579640	0.487080	0.966640
C1421	C142	0.629510	0.479510	0.945490
C1431	C143	0.717520	0.471000	0.905740
C1441	C144	0.762960	0.467080	0.884980
C1451	C145	0.033360	0.512920	0.033360
C1461	C146	0.054510	0.520490	0.054510
C1471	C147	0.094260	0.529000	0.094260
C1481	C148	0.115020	0.532920	0.115020
C1491	C149	0.512920	0.033360	0.420360
C1501	C150	0.520490	0.054510	0.370490
C1511	C151	0.529000	0.094260	0.282480
C1521	C152	0.532920	0.115020	0.237040
C1531	C153	0.420360	0.033360	0.512920
C1541	C154	0.370490	0.054510	0.520490
C1551	C155	0.282480	0.094260	0.529000
C1561	C156	0.237040	0.115020	0.532920
C1571	C157	0.033360	0.420360	0.033360
C1581	C158	0.054510	0.370490	0.054510
C1591	C159	0.094260	0.282480	0.094260
C1601	C160	0.115020	0.237040	0.115020
C1611	C161	0.033360	0.512920	0.420360
C1621	C162	0.054510	0.520490	0.370490
C1631	C163	0.094260	0.529000	0.282480
C1641	C164	0.115020	0.532920	0.237040
C1651	C165	0.420360	0.033360	0.033360
C1661	C166	0.370490	0.054510	0.054510
C1671	C167	0.282480	0.094260	0.094260
C1681	C168	0.237040	0.115020	0.115020
C1691	C169	0.512920	0.033360	0.033360
C1701	C170	0.520490	0.054510	0.054510
C1711	C171	0.529000	0.094260	0.094260
C1721	C172	0.532920	0.115020	0.115020
C1731	C173	0.033360	0.420360	0.512920
C1741	C174	0.054510	0.370490	0.520490
C1751	C175	0.094260	0.282480	0.529000
C1761	C176	0.115020	0.237040	0.532920
C1771	C177	0.420360	0.512920	0.033360
C1781	C178	0.370490	0.520490	0.054510
C1791	C179	0.282480	0.529000	0.094260
C1801	C180	0.237040	0.532920	0.115020
C1811	C181	0.033360	0.033360	0.512920
C1821	C182	0.054510	0.054510	0.520490
C1831	C183	0.094260	0.094260	0.529000
C1841	C184	0.115020	0.115020	0.532920
C1851	C185	0.033360	0.033360	0.420360
C1861	C186	0.054510	0.054510	0.370490
C1871	C187	0.094260	0.094260	0.282480
C1881	C188	0.115020	0.115020	0.237040
C1891	C189	0.512920	0.420360	0.033360
C1901	C190	0.520490	0.370490	0.054510
C1911	C191	0.529000	0.282480	0.094260
C1921	C192	0.532920	0.237040	0.115020
C1931	C193	0.466310	0.823070	0.887550
C1941	C194	0.823070	0.466310	0.823070
C1951	C195	0.887550	0.823070	0.466310
C1961	C196	0.823070	0.887550	0.823070
C1971	C197	0.466310	0.887550	0.823070
C1981	C198	0.823070	0.823070	0.887550
C1991	C199	0.887550	0.466310	0.823070
C2001	C200	0.823070	0.823070	0.466310
C2011	C201	0.466310	0.823070	0.823070
C2021	C202	0.823070	0.887550	0.466310
C2031	C203	0.887550	0.823070	0.823070
C2041	C204	0.823070	0.466310	0.887550
C2051	C205	0.176930	0.533690	0.112450
C2061	C206	0.533690	0.176930	0.176930
C2071	C207	0.176930	0.112450	0.533690
C2081	C208	0.112450	0.176930	0.176930
C2091	C209	0.112450	0.533690	0.176930
C2101	C210	0.176930	0.176930	0.112450
C2111	C211	0.533690	0.112450	0.176930
C2121	C212	0.176930	0.176930	0.533690
C2131	C213	0.176930	0.533690	0.176930
C2141	C214	0.112450	0.176930	0.533690
C2151	C215	0.176930	0.112450	0.176930
C2161	C216	0.533690	0.176930	0.112450
N11	N1	0.467410	0.843370	0.907430
N21	N2	0.843370	0.467410	0.781790
N31	N3	0.907430	0.781790	0.467410
N41	N4	0.781790	0.907430	0.843370
N51	N5	0.467410	0.907430	0.781790
N61	N6	0.843370	0.781790	0.907430
N71	N7	0.907430	0.467410	0.843370
N81	N8	0.781790	0.843370	0.467410
N91	N9	0.467410	0.781790	0.843370
N101	N10	0.843370	0.907430	0.467410
N111	N11	0.907430	0.843370	0.781790
N121	N12	0.781790	0.467410	0.907430
N131	N13	0.156630	0.532590	0.092570
N141	N14	0.532590	0.156630	0.218210
N151	N15	0.218210	0.092570	0.532590
N161	N16	0.092570	0.218210	0.156630
N171	N17	0.092570	0.532590	0.218210
N181	N18	0.218210	0.156630	0.092570
N191	N19	0.532590	0.092570	0.156630
N201	N20	0.156630	0.218210	0.532590
N211	N21	0.218210	0.532590	0.156630
N221	N22	0.092570	0.156630	0.532590
N231	N23	0.156630	0.092570	0.218210
N241	N24	0.532590	0.218210	0.092570
N251	N25	0.532590	0.156630	0.092570
N261	N26	0.156630	0.532590	0.218210
N271	N27	0.092570	0.218210	0.532590
N281	N28	0.218210	0.092570	0.156630
N291	N29	0.532590	0.092570	0.218210
N301	N30	0.156630	0.218210	0.092570
N311	N31	0.092570	0.532590	0.156630
N321	N32	0.218210	0.156630	0.532590
N331	N33	0.532590	0.218210	0.156630
N341	N34	0.156630	0.092570	0.532590
N351	N35	0.092570	0.156630	0.218210
N361	N36	0.218210	0.532590	0.092570
N371	N37	0.843370	0.467410	0.907430
N381	N38	0.467410	0.843370	0.781790
N391	N39	0.781790	0.907430	0.467410
N401	N40	0.907430	0.781790	0.843370
N411	N41	0.907430	0.467410	0.781790
N421	N42	0.781790	0.843370	0.907430
N431	N43	0.467410	0.907430	0.843370
N441	N44	0.843370	0.781790	0.467410
N451	N45	0.781790	0.467410	0.843370
N461	N46	0.907430	0.843370	0.467410
N471	N47	0.843370	0.907430	0.781790
N481	N48	0.467410	0.781790	0.907430
N491	N49	0.465660	0.844780	0.844780
N501	N50	0.844780	0.465660	0.844780
N511	N51	0.844780	0.844780	0.465660
N521	N52	0.844780	0.844780	0.844780
N531	N53	0.155220	0.534340	0.155220
N541	N54	0.534340	0.155220	0.155220
N551	N55	0.155220	0.155220	0.534340
N561	N56	0.155220	0.155220	0.155220
O11	O1	0.488830	0.003590	0.944380
O21	O2	0.003590	0.488830	0.563200
O31	O3	0.944380	0.563200	0.488830
O41	O4	0.563200	0.944380	0.003590
O51	O5	0.488830	0.944380	0.563200
O61	O6	0.003590	0.563200	0.944380
O71	O7	0.944380	0.488830	0.003590
O81	O8	0.563200	0.003590	0.488830
O91	O9	0.488830	0.563200	0.003590
O101	O10	0.003590	0.944380	0.488830
O111	O11	0.944380	0.003590	0.563200
O121	O12	0.563200	0.488830	0.944380
O131	O13	0.996410	0.511170	0.055620
O141	O14	0.511170	0.996410	0.436800
O151	O15	0.436800	0.055620	0.511170
O161	O16	0.055620	0.436800	0.996410
O171	O17	0.055620	0.511170	0.436800
O181	O18	0.436800	0.996410	0.055620
O191	O19	0.511170	0.055620	0.996410
O201	O20	0.996410	0.436800	0.511170
O211	O21	0.436800	0.511170	0.996410
O221	O22	0.055620	0.996410	0.511170
O231	O23	0.996410	0.055620	0.436800
O241	O24	0.511170	0.436800	0.055620
O251	O25	0.511170	0.996410	0.055620
O261	O26	0.996410	0.511170	0.436800
O271	O27	0.055620	0.436800	0.511170
O281	O28	0.436800	0.055620	0.996410
O291	O29	0.511170	0.055620	0.436800
O301	O30	0.996410	0.436800	0.055620
O311	O31	0.055620	0.511170	0.996410
O321	O32	0.436800	0.996410	0.511170
O331	O33	0.511170	0.436800	0.996410
O341	O34	0.996410	0.055620	0.511170
O351	O35	0.055620	0.996410	0.436800
O361	O36	0.436800	0.511170	0.055620
O371	O37	0.003590	0.488830	0.944380
O381	O38	0.488830	0.003590	0.563200
O391	O39	0.563200	0.944380	0.488830
O401	O40	0.944380	0.563200	0.003590
O411	O41	0.944380	0.488830	0.563200
O421	O42	0.563200	0.003590	0.944380
O431	O43	0.488830	0.944380	0.003590
O441	O44	0.003590	0.563200	0.488830
O451	O45	0.563200	0.488830	0.003590
O461	O46	0.944380	0.003590	0.488830
O471	O47	0.003590	0.944380	0.563200
O481	O48	0.488830	0.563200	0.944380
