data_NIGBOW_clean_PM
_symmetry_space_group_name_H-M	'P1'
_cell_length_a	6.957000
_cell_length_b	15.258800
_cell_length_c	15.258800
_cell_angle_alpha	84.758700
_cell_angle_beta	76.822600
_cell_angle_gamma	76.822600
_symmetry_Int_Tables_number 1

loop_
_symmetry_equiv_pos_as_xyz
'x,y,z'

loop_
_atom_site_label
_atom_site_type_symbol
_atom_site_fract_x
_atom_site_fract_y
_atom_site_fract_z
V11	V1	0.500000	0.000000	0.000000
V21	V2	0.000000	0.000000	0.000000
C31	C3	0.584600	0.694000	0.004000
C41	C4	0.637000	0.595000	0.003000
C51	C5	0.915400	0.996000	0.306000
C61	C6	0.863000	0.997000	0.405000
C71	C7	0.782600	0.306000	0.996000
C81	C8	0.735000	0.405000	0.997000
C91	C9	0.717400	0.004000	0.694000
C101	C10	0.765000	0.003000	0.595000
C111	C11	0.415400	0.306000	0.996000
C121	C12	0.363000	0.405000	0.997000
C131	C13	0.084600	0.004000	0.694000
C141	C14	0.137000	0.003000	0.595000
C151	C15	0.217400	0.694000	0.004000
C161	C16	0.265000	0.595000	0.003000
C171	C17	0.282600	0.996000	0.306000
C181	C18	0.235000	0.997000	0.405000
C191	C19	0.332000	0.844000	0.992000
C201	C20	0.379000	0.741000	0.001000
C211	C21	0.474000	0.550000	0.002000
C221	C22	0.168000	0.008000	0.156000
C231	C23	0.121000	0.999000	0.259000
C241	C24	0.026000	0.998000	0.450000
C251	C25	0.668000	0.156000	0.008000
C261	C26	0.621000	0.259000	0.999000
C271	C27	0.526000	0.450000	0.998000
C281	C28	0.832000	0.992000	0.844000
C291	C29	0.879000	0.001000	0.741000
C301	C30	0.974000	0.002000	0.550000
O311	O31	0.487500	0.884500	0.986500
O321	O32	0.012500	0.013500	0.115500
O331	O33	0.858500	0.115500	0.013500
O341	O34	0.641500	0.986500	0.884500
O351	O35	0.512500	0.115500	0.013500
O361	O36	0.987500	0.986500	0.884500
O371	O37	0.141500	0.884500	0.986500
O381	O38	0.358500	0.013500	0.115500
O391	O39	0.750000	0.962000	0.038000
O401	O40	0.250000	0.038000	0.962000
H411	H41	0.704430	0.732960	0.007090
H421	H42	0.798620	0.557390	0.003030
H431	H43	0.795570	0.992910	0.267040
H441	H44	0.701380	0.996970	0.442610
H451	H45	0.944480	0.267040	0.992910
H461	H46	0.859040	0.442610	0.996970
H471	H47	0.555520	0.007090	0.732960
H481	H48	0.640960	0.003030	0.557390
H491	H49	0.295570	0.267040	0.992910
H501	H50	0.201380	0.442610	0.996970
H511	H51	0.204430	0.007090	0.732960
H521	H52	0.298620	0.003030	0.557390
H531	H53	0.055520	0.732960	0.007090
H541	H54	0.140960	0.557390	0.003030
H551	H55	0.444480	0.992910	0.267040
H561	H56	0.359040	0.996970	0.442610
