data_NIGDIS_clean_PM
_symmetry_space_group_name_H-M	'P1'
_cell_length_a	18.413000
_cell_length_b	24.670000
_cell_length_c	24.670000
_cell_angle_alpha	67.878000
_cell_angle_beta	68.087700
_cell_angle_gamma	68.087700
_symmetry_Int_Tables_number 1

loop_
_symmetry_equiv_pos_as_xyz
'x,y,z'

loop_
_atom_site_label
_atom_site_type_symbol
_atom_site_fract_x
_atom_site_fract_y
_atom_site_fract_z
Cu11	Cu1	0.896310	0.497210	0.956170
Cu21	Cu2	0.778390	0.477780	0.059330
Cu31	Cu3	0.349690	0.502790	0.043830
Cu41	Cu4	0.315490	0.522220	0.940670
Cu51	Cu5	0.349690	0.043830	0.502790
Cu61	Cu6	0.315500	0.940670	0.522210
Cu71	Cu7	0.896310	0.956170	0.497210
Cu81	Cu8	0.778380	0.059330	0.477790
Cu91	Cu9	0.908180	0.899260	0.899260
Cu101	Cu10	0.981660	0.826710	0.826710
Cu111	Cu11	0.706700	0.100740	0.100740
Cu121	Cu12	0.635080	0.173290	0.173290
H11	H1	0.084100	0.839600	0.994600
H21	H2	0.270200	0.696100	0.041700
H31	H3	0.163700	0.698400	0.924600
H41	H4	0.066100	0.842600	0.090600
H51	H5	0.319100	0.824300	0.105300
H61	H6	0.308900	0.778400	0.044200
H71	H7	0.713400	0.818900	0.017100
H81	H8	0.660000	0.659600	0.075000
H91	H9	0.857100	0.686700	0.935100
H101	H10	0.528100	0.718900	0.105500
H111	H11	0.415400	0.755900	0.176100
H121	H12	0.651600	0.816700	0.114900
H131	H13	0.777200	0.525700	0.825700
H141	H14	0.551000	0.552300	0.816300
H151	H15	0.595100	0.499000	0.980200
H161	H16	0.615300	0.647300	0.737300
H171	H17	0.841200	0.534800	0.627000
H181	H18	0.790900	0.492700	0.725500
H191	H19	0.918300	0.160400	0.005400
H201	H20	0.008000	0.303900	0.958300
H211	H21	0.786700	0.301600	0.075400
H221	H22	0.999300	0.157400	0.909400
H231	H23	0.248700	0.175700	0.894700
H241	H24	0.131500	0.221600	0.955800
H251	H25	0.549400	0.181100	0.982900
H261	H26	0.394600	0.340400	0.925000
H271	H27	0.478900	0.313300	0.064900
H281	H28	0.352500	0.281100	0.894500
H291	H29	0.347400	0.244100	0.823900
H301	H30	0.583200	0.183300	0.885100
H311	H31	0.128600	0.474300	0.174300
H321	H32	0.919600	0.447700	0.183700
H331	H33	0.074300	0.501000	0.019800
H341	H34	0.999900	0.352700	0.262700
H351	H35	0.003000	0.465200	0.373000
H361	H36	0.009100	0.507300	0.274500
H371	H37	0.918300	0.005400	0.160400
H381	H38	0.008000	0.958300	0.303900
H391	H39	0.786700	0.075400	0.301600
H401	H40	0.999300	0.909400	0.157400
H411	H41	0.248700	0.894700	0.175700
H421	H42	0.131500	0.955800	0.221600
H431	H43	0.549400	0.982900	0.181100
H441	H44	0.394600	0.925000	0.340400
H451	H45	0.478900	0.064900	0.313300
H461	H46	0.352500	0.894500	0.281100
H471	H47	0.347400	0.823900	0.244100
H481	H48	0.583200	0.885100	0.183300
H491	H49	0.128600	0.174300	0.474300
H501	H50	0.919600	0.183700	0.447700
H511	H51	0.074300	0.019800	0.501000
H521	H52	0.999900	0.262700	0.352700
H531	H53	0.003000	0.373000	0.465200
H541	H54	0.009100	0.274500	0.507300
H551	H55	0.084100	0.994600	0.839600
H561	H56	0.270200	0.041700	0.696100
H571	H57	0.163700	0.924600	0.698400
H581	H58	0.066100	0.090600	0.842600
H591	H59	0.319100	0.105300	0.824300
H601	H60	0.308900	0.044200	0.778400
H611	H61	0.713400	0.017100	0.818900
H621	H62	0.660000	0.075000	0.659600
H631	H63	0.857100	0.935100	0.686700
H641	H64	0.528100	0.105500	0.718900
H651	H65	0.415400	0.176100	0.755900
H661	H66	0.651600	0.114900	0.816700
H671	H67	0.777200	0.825700	0.525700
H681	H68	0.551000	0.816300	0.552300
H691	H69	0.595100	0.980200	0.499000
H701	H70	0.615300	0.737300	0.647300
H711	H71	0.841200	0.627000	0.534800
H721	H72	0.790900	0.725500	0.492700
C11	C1	0.047980	0.802380	0.924160
C21	C2	0.112290	0.771950	0.956610
C31	C3	0.120030	0.800910	0.991570
C41	C4	0.179080	0.774390	0.021990
C51	C5	0.231170	0.715750	0.018930
C61	C6	0.225070	0.687570	0.983250
C71	C7	0.166330	0.716950	0.951090
C81	C8	0.273760	0.623450	0.984310
C91	C9	0.187160	0.804800	0.062080
C101	C10	0.117420	0.839680	0.093740
C111	C11	0.267190	0.830120	0.101200
C121	C12	0.260740	0.801450	0.066350
C131	C13	0.850710	0.798360	0.928860
C141	C14	0.793630	0.758710	0.969650
C151	C15	0.725350	0.779000	0.014080
C161	C16	0.674270	0.742690	0.053990
C171	C17	0.693980	0.685310	0.048210
C181	C18	0.760880	0.663550	0.005250
C191	C19	0.811050	0.701050	0.965270
C201	C20	0.786080	0.598130	0.003730
C211	C21	0.601580	0.765560	0.101900
C221	C22	0.529800	0.747510	0.121790
C231	C23	0.462470	0.769610	0.163590
C241	C24	0.602750	0.805500	0.126480
C251	C25	0.750210	0.500920	0.944200
C261	C26	0.693980	0.512770	0.907250
C271	C27	0.721460	0.527000	0.844920
C281	C28	0.668960	0.543200	0.809420
C291	C29	0.587610	0.541770	0.839750
C301	C30	0.558560	0.525330	0.903730
C311	C31	0.612720	0.510630	0.937030
C321	C32	0.475350	0.522260	0.935360
C331	C33	0.695520	0.566970	0.743110
C341	C34	0.661950	0.624080	0.714360
C351	C35	0.794560	0.558600	0.649480
C361	C36	0.765280	0.533500	0.707340
C371	C37	0.774520	0.197620	0.075840
C381	C38	0.840850	0.228050	0.043390
C391	C39	0.912510	0.199090	0.008430
C401	C40	0.975460	0.225610	0.978010
C411	C41	0.965850	0.284250	0.981070
C421	C42	0.895890	0.312430	0.016750
C431	C43	0.834370	0.283050	0.048910
C441	C44	0.881520	0.376550	0.015690
C451	C45	0.054040	0.195200	0.937920
C461	C46	0.050840	0.160320	0.906260
C471	C47	0.198510	0.169880	0.898800
C481	C48	0.128540	0.198550	0.933650
C491	C49	0.577930	0.201640	0.071140
C501	C50	0.521990	0.241290	0.030350
C511	C51	0.518430	0.221000	0.985920
C521	C52	0.470950	0.257310	0.946010
C531	C53	0.427500	0.314690	0.951790
C541	C54	0.429680	0.336450	0.994750
C551	C55	0.477370	0.298950	0.034730
C561	C56	0.387940	0.401870	0.996270
C571	C57	0.469040	0.234440	0.898100
C581	C58	0.399100	0.252490	0.878210
C591	C59	0.395670	0.230390	0.836410
C601	C60	0.534730	0.194500	0.873520
C611	C61	0.195330	0.499080	0.055800
C621	C62	0.114000	0.487230	0.092750
C631	C63	0.093380	0.473000	0.155080
C641	C64	0.021580	0.456800	0.190580
C651	C65	0.969130	0.458230	0.160250
C661	C66	0.987620	0.474670	0.096270
C671	C67	0.060380	0.489370	0.062970
C681	C68	0.932970	0.477740	0.064640
C691	C69	0.005600	0.433030	0.256890
C701	C70	0.000390	0.375920	0.285640
C711	C71	0.002640	0.441400	0.350520
C721	C72	0.006120	0.466500	0.292660
C731	C73	0.774520	0.075840	0.197620
C741	C74	0.840850	0.043390	0.228050
C751	C75	0.912510	0.008430	0.199090
C761	C76	0.975460	0.978010	0.225610
C771	C77	0.965850	0.981070	0.284250
C781	C78	0.895890	0.016750	0.312430
C791	C79	0.834370	0.048910	0.283050
C801	C80	0.881520	0.015690	0.376550
C811	C81	0.054040	0.937920	0.195200
C821	C82	0.050840	0.906260	0.160320
C831	C83	0.198510	0.898800	0.169880
C841	C84	0.128540	0.933650	0.198550
C851	C85	0.577930	0.071140	0.201640
C861	C86	0.521990	0.030350	0.241290
C871	C87	0.518430	0.985920	0.221000
C881	C88	0.470950	0.946010	0.257310
C891	C89	0.427500	0.951790	0.314690
C901	C90	0.429680	0.994750	0.336450
C911	C91	0.477370	0.034730	0.298950
C921	C92	0.387940	0.996270	0.401870
C931	C93	0.469040	0.898100	0.234440
C941	C94	0.399100	0.878210	0.252490
C951	C95	0.395670	0.836410	0.230390
C961	C96	0.534730	0.873520	0.194500
C971	C97	0.195330	0.055800	0.499080
C981	C98	0.114000	0.092750	0.487230
C991	C99	0.093380	0.155080	0.473000
C1001	C100	0.021580	0.190580	0.456800
C1011	C101	0.969130	0.160250	0.458230
C1021	C102	0.987620	0.096270	0.474670
C1031	C103	0.060380	0.062970	0.489370
C1041	C104	0.932970	0.064640	0.477740
C1051	C105	0.005600	0.256890	0.433030
C1061	C106	0.000390	0.285640	0.375920
C1071	C107	0.002640	0.350520	0.441400
C1081	C108	0.006120	0.292660	0.466500
C1091	C109	0.047980	0.924160	0.802380
C1101	C110	0.112290	0.956610	0.771950
C1111	C111	0.120030	0.991570	0.800910
C1121	C112	0.179080	0.021990	0.774390
C1131	C113	0.231170	0.018930	0.715750
C1141	C114	0.225070	0.983250	0.687570
C1151	C115	0.166330	0.951090	0.716950
C1161	C116	0.273760	0.984310	0.623450
C1171	C117	0.187160	0.062080	0.804800
C1181	C118	0.117420	0.093740	0.839680
C1191	C119	0.267190	0.101200	0.830120
C1201	C120	0.260740	0.066350	0.801450
C1211	C121	0.850710	0.928860	0.798360
C1221	C122	0.793630	0.969650	0.758710
C1231	C123	0.725350	0.014080	0.779000
C1241	C124	0.674270	0.053990	0.742690
C1251	C125	0.693980	0.048210	0.685310
C1261	C126	0.760880	0.005250	0.663550
C1271	C127	0.811050	0.965270	0.701050
C1281	C128	0.786080	0.003730	0.598130
C1291	C129	0.601580	0.101900	0.765560
C1301	C130	0.529800	0.121790	0.747510
C1311	C131	0.462470	0.163590	0.769610
C1321	C132	0.602750	0.126480	0.805500
C1331	C133	0.750210	0.944200	0.500920
C1341	C134	0.693980	0.907250	0.512770
C1351	C135	0.721460	0.844920	0.527000
C1361	C136	0.668960	0.809420	0.543200
C1371	C137	0.587610	0.839750	0.541770
C1381	C138	0.558560	0.903730	0.525330
C1391	C139	0.612720	0.937030	0.510630
C1401	C140	0.475350	0.935360	0.522260
C1411	C141	0.695520	0.743110	0.566970
C1421	C142	0.661950	0.714360	0.624080
C1431	C143	0.794560	0.649480	0.558600
C1441	C144	0.765280	0.707340	0.533500
C1451	C145	0.692010	0.651790	0.651790
C1461	C146	0.760520	0.618780	0.618780
C1471	C147	0.995590	0.348210	0.348210
C1481	C148	0.998080	0.381220	0.381220
C1491	C149	0.119800	0.870400	0.129600
C1501	C150	0.197700	0.868560	0.131440
C1511	C151	0.462500	0.812030	0.187970
C1521	C152	0.534900	0.831410	0.168590
C1531	C153	0.119800	0.129600	0.870400
C1541	C154	0.197700	0.131440	0.868560
C1551	C155	0.462500	0.187970	0.812030
C1561	C156	0.534900	0.168590	0.831410
O11	O1	0.304950	0.591860	0.026500
O21	O2	0.276670	0.606670	0.940830
O31	O3	0.991440	0.842970	0.942530
O41	O4	0.055080	0.782820	0.881340
O51	O5	0.839040	0.845390	0.944290
O61	O6	0.902790	0.782770	0.883250
O71	O7	0.744900	0.565190	0.046330
O81	O8	0.845640	0.582040	0.962000
O91	O9	0.819230	0.506570	0.915030
O101	O10	0.721240	0.489120	0.001480
O111	O11	0.429520	0.528700	0.904400
O121	O12	0.455140	0.513690	0.992350
O131	O13	0.923310	0.408140	0.973500
O141	O14	0.824170	0.393330	0.059170
O151	O15	0.776940	0.157030	0.057470
O161	O16	0.719240	0.217180	0.118660
O171	O17	0.628720	0.154610	0.055710
O181	O18	0.568810	0.217230	0.116750
O191	O19	0.356420	0.434810	0.953670
O201	O20	0.389680	0.417960	0.038000
O211	O21	0.240830	0.493430	0.084970
O221	O22	0.211840	0.510880	0.998520
O231	O23	0.862620	0.471300	0.095600
O241	O24	0.961180	0.486310	0.007650
O251	O25	0.923310	0.973500	0.408140
O261	O26	0.824170	0.059170	0.393330
O271	O27	0.776940	0.057470	0.157030
O281	O28	0.719240	0.118660	0.217180
O291	O29	0.628720	0.055710	0.154610
O301	O30	0.568810	0.116750	0.217230
O311	O31	0.356420	0.953670	0.434810
O321	O32	0.389680	0.038000	0.417960
O331	O33	0.240830	0.084970	0.493430
O341	O34	0.211840	0.998520	0.510880
O351	O35	0.862620	0.095600	0.471300
O361	O36	0.961180	0.007650	0.486310
O371	O37	0.304950	0.026500	0.591860
O381	O38	0.276670	0.940830	0.606670
O391	O39	0.991440	0.942530	0.842970
O401	O40	0.055080	0.881340	0.782820
O411	O41	0.839040	0.944290	0.845390
O421	O42	0.902790	0.883250	0.782770
O431	O43	0.744900	0.046330	0.565190
O441	O44	0.845640	0.962000	0.582040
O451	O45	0.819230	0.915030	0.506570
O461	O46	0.721240	0.001480	0.489120
O471	O47	0.429520	0.904400	0.528700
O481	O48	0.455140	0.992350	0.513690
