data_NIGDEO_clean_PM
_symmetry_space_group_name_H-M	'P1'
_cell_length_a	18.500000
_cell_length_b	24.706900
_cell_length_c	24.706900
_cell_angle_alpha	67.631600
_cell_angle_beta	68.013400
_cell_angle_gamma	68.013400
_symmetry_Int_Tables_number 1

loop_
_symmetry_equiv_pos_as_xyz
'x,y,z'

loop_
_atom_site_label
_atom_site_type_symbol
_atom_site_fract_x
_atom_site_fract_y
_atom_site_fract_z
Cu11	Cu1	0.145480	0.520730	0.944390
Cu21	Cu2	0.028730	0.500390	0.047670
Cu31	Cu3	0.610600	0.479270	0.055610
Cu41	Cu4	0.576790	0.499610	0.952330
Cu51	Cu5	0.610600	0.055610	0.479270
Cu61	Cu6	0.576790	0.952330	0.499610
Cu71	Cu7	0.145480	0.944390	0.520730
Cu81	Cu8	0.028730	0.047670	0.500390
Cu91	Cu9	0.279290	0.829430	0.829430
Cu101	Cu10	0.209290	0.901750	0.901750
Cu111	Cu11	0.938150	0.170570	0.170570
Cu121	Cu12	0.012790	0.098250	0.098250
H11	H1	0.432100	0.689500	0.937900
H21	H2	0.538400	0.665900	0.062900
H31	H3	0.372800	0.819700	0.015300
H41	H4	0.342600	0.820000	0.110000
H51	H5	0.568000	0.748400	0.181600
H61	H6	0.564400	0.720100	0.105900
H71	H7	0.002700	0.835200	0.003800
H81	H8	0.927400	0.683800	0.054600
H91	H9	0.142100	0.697500	0.927300
H101	H10	0.787700	0.773700	0.053700
H111	H11	0.669200	0.822300	0.111900
H121	H12	0.926500	0.837100	0.098500
H131	H13	0.006600	0.548900	0.824700
H141	H14	0.792800	0.535700	0.825100
H151	H15	0.844800	0.501300	0.981700
H161	H16	0.933000	0.648800	0.739000
H171	H17	0.914500	0.536300	0.627500
H181	H18	0.916300	0.497300	0.726500
H191	H19	0.059500	0.310500	0.062100
H201	H20	0.267200	0.334100	0.937100
H211	H21	0.207800	0.180300	0.984700
H221	H22	0.272600	0.180000	0.890000
H231	H23	0.498000	0.251600	0.818400
H241	H24	0.390400	0.279900	0.894100
H251	H25	0.841700	0.164800	0.996200
H261	H26	0.665800	0.316200	0.945400
H271	H27	0.766900	0.302500	0.072700
H281	H28	0.615100	0.226300	0.946300
H291	H29	0.603400	0.177700	0.888100
H301	H30	0.862100	0.162900	0.901500
H311	H31	0.380200	0.451100	0.175300
H321	H32	0.153600	0.464300	0.174900
H331	H33	0.327800	0.498700	0.018300
H341	H34	0.320800	0.351200	0.261000
H351	H35	0.078300	0.463700	0.372500
H361	H36	0.140100	0.502700	0.273500
H371	H37	0.059500	0.062100	0.310500
H381	H38	0.267200	0.937100	0.334100
H391	H39	0.207800	0.984700	0.180300
H401	H40	0.272600	0.890000	0.180000
H411	H41	0.498000	0.818400	0.251600
H421	H42	0.390400	0.894100	0.279900
H431	H43	0.841700	0.996200	0.164800
H441	H44	0.665800	0.945400	0.316200
H451	H45	0.766900	0.072700	0.302500
H461	H46	0.615100	0.946300	0.226300
H471	H47	0.603400	0.888100	0.177700
H481	H48	0.862100	0.901500	0.162900
H491	H49	0.380200	0.175300	0.451100
H501	H50	0.153600	0.174900	0.464300
H511	H51	0.327800	0.018300	0.498700
H521	H52	0.320800	0.261000	0.351200
H531	H53	0.078300	0.372500	0.463700
H541	H54	0.140100	0.273500	0.502700
H551	H55	0.432100	0.937900	0.689500
H561	H56	0.538400	0.062900	0.665900
H571	H57	0.372800	0.015300	0.819700
H581	H58	0.342600	0.110000	0.820000
H591	H59	0.568000	0.181600	0.748400
H601	H60	0.564400	0.105900	0.720100
H611	H61	0.002700	0.003800	0.835200
H621	H62	0.927400	0.054600	0.683800
H631	H63	0.142100	0.927300	0.697500
H641	H64	0.787700	0.053700	0.773700
H651	H65	0.669200	0.111900	0.822300
H661	H66	0.926500	0.098500	0.837100
H671	H67	0.006600	0.824700	0.548900
H681	H68	0.792800	0.825100	0.535700
H691	H69	0.844800	0.981700	0.501300
H701	H70	0.933000	0.739000	0.648800
H711	H71	0.914500	0.627500	0.536300
H721	H72	0.916300	0.726500	0.497300
H731	H73	0.252200	0.965600	0.965600
H741	H74	0.030000	0.969400	0.969400
H751	H75	0.183400	0.034400	0.034400
H761	H76	0.968800	0.030600	0.030600
C11	C1	0.337850	0.798580	0.931020
C21	C2	0.393070	0.760420	0.970300
C31	C3	0.437420	0.703260	0.966840
C41	C4	0.489710	0.663260	0.001920
C51	C5	0.498560	0.688730	0.041150
C61	C6	0.451060	0.745920	0.049160
C71	C7	0.402580	0.779700	0.012340
C81	C8	0.535310	0.600930	0.000850
C91	C9	0.451570	0.763300	0.098560
C101	C10	0.389300	0.805460	0.124340
C111	C11	0.521060	0.765020	0.167260
C121	C12	0.516400	0.747300	0.122900
C131	C13	0.143990	0.803470	0.925770
C141	C14	0.081130	0.769370	0.962050
C151	C15	0.009530	0.796320	0.000700
C161	C16	0.949490	0.767360	0.033860
C171	C17	0.965110	0.706920	0.029660
C181	C18	0.035180	0.682560	0.989280
C191	C19	0.094350	0.714100	0.954800
C201	C20	0.046850	0.619030	0.989470
C211	C21	0.868170	0.800100	0.068560
C221	C22	0.790880	0.797350	0.074890
C231	C23	0.720060	0.825880	0.109000
C241	C24	0.875460	0.834720	0.100560
C251	C25	0.995570	0.519810	0.940410
C261	C26	0.935990	0.523850	0.911370
C271	C27	0.955790	0.540480	0.847140
C281	C28	0.902920	0.545420	0.813940
C291	C29	0.828690	0.533610	0.845410
C301	C30	0.809100	0.518390	0.908810
C311	C31	0.861520	0.513270	0.938490
C321	C32	0.726350	0.506960	0.939740
C331	C33	0.923160	0.568930	0.745850
C341	C34	0.929750	0.625900	0.717100
C351	C35	0.919550	0.559940	0.647960
C361	C36	0.919340	0.538150	0.707370
C371	C37	0.067450	0.201420	0.068980
C381	C38	0.123790	0.239580	0.029700
C391	C39	0.107520	0.296740	0.033160
C401	C40	0.154890	0.336740	0.998080
C411	C41	0.228440	0.311270	0.958850
C421	C42	0.246140	0.254080	0.950840
C431	C43	0.194620	0.220300	0.987660
C441	C44	0.137090	0.399070	0.999150
C451	C45	0.313430	0.236700	0.901440
C461	C46	0.319100	0.194540	0.875660
C471	C47	0.453340	0.234980	0.832740
C481	C48	0.386600	0.252700	0.877100
C491	C49	0.873230	0.196530	0.074230
C501	C50	0.812550	0.230630	0.037950
C511	C51	0.806550	0.203680	0.999300
C521	C52	0.750710	0.232640	0.966140
C531	C53	0.701690	0.293080	0.970340
C541	C54	0.707020	0.317440	0.010720
C551	C55	0.763250	0.285900	0.045200
C561	C56	0.655350	0.380970	0.010530
C571	C57	0.736830	0.199900	0.931440
C581	C58	0.663120	0.202650	0.925110
C591	C59	0.654940	0.174120	0.891000
C601	C60	0.810740	0.165280	0.899440
C611	C61	0.455790	0.480190	0.059590
C621	C62	0.371210	0.476150	0.088630
C631	C63	0.343410	0.459520	0.152860
C641	C64	0.262280	0.454580	0.186060
C651	C65	0.207710	0.466390	0.154590
C661	C66	0.236300	0.481610	0.091190
C671	C67	0.313280	0.486730	0.061510
C681	C68	0.173050	0.493040	0.060260
C691	C69	0.237940	0.431070	0.254150
C701	C70	0.272750	0.374100	0.282900
C711	C71	0.127450	0.440060	0.352040
C721	C72	0.164860	0.461850	0.292630
C731	C73	0.067450	0.068980	0.201420
C741	C74	0.123790	0.029700	0.239580
C751	C75	0.107520	0.033160	0.296740
C761	C76	0.154890	0.998080	0.336740
C771	C77	0.228440	0.958850	0.311270
C781	C78	0.246140	0.950840	0.254080
C791	C79	0.194620	0.987660	0.220300
C801	C80	0.137090	0.999150	0.399070
C811	C81	0.313430	0.901440	0.236700
C821	C82	0.319100	0.875660	0.194540
C831	C83	0.453340	0.832740	0.234980
C841	C84	0.386600	0.877100	0.252700
C851	C85	0.873230	0.074230	0.196530
C861	C86	0.812550	0.037950	0.230630
C871	C87	0.806550	0.999300	0.203680
C881	C88	0.750710	0.966140	0.232640
C891	C89	0.701690	0.970340	0.293080
C901	C90	0.707020	0.010720	0.317440
C911	C91	0.763250	0.045200	0.285900
C921	C92	0.655350	0.010530	0.380970
C931	C93	0.736830	0.931440	0.199900
C941	C94	0.663120	0.925110	0.202650
C951	C95	0.654940	0.891000	0.174120
C961	C96	0.810740	0.899440	0.165280
C971	C97	0.455790	0.059590	0.480190
C981	C98	0.371210	0.088630	0.476150
C991	C99	0.343410	0.152860	0.459520
C1001	C100	0.262280	0.186060	0.454580
C1011	C101	0.207710	0.154590	0.466390
C1021	C102	0.236300	0.091190	0.481610
C1031	C103	0.313280	0.061510	0.486730
C1041	C104	0.173050	0.060260	0.493040
C1051	C105	0.237940	0.254150	0.431070
C1061	C106	0.272750	0.282900	0.374100
C1071	C107	0.127450	0.352040	0.440060
C1081	C108	0.164860	0.292630	0.461850
C1091	C109	0.337850	0.931020	0.798580
C1101	C110	0.393070	0.970300	0.760420
C1111	C111	0.437420	0.966840	0.703260
C1121	C112	0.489710	0.001920	0.663260
C1131	C113	0.498560	0.041150	0.688730
C1141	C114	0.451060	0.049160	0.745920
C1151	C115	0.402580	0.012340	0.779700
C1161	C116	0.535310	0.000850	0.600930
C1171	C117	0.451570	0.098560	0.763300
C1181	C118	0.389300	0.124340	0.805460
C1191	C119	0.521060	0.167260	0.765020
C1201	C120	0.516400	0.122900	0.747300
C1211	C121	0.143990	0.925770	0.803470
C1221	C122	0.081130	0.962050	0.769370
C1231	C123	0.009530	0.000700	0.796320
C1241	C124	0.949490	0.033860	0.767360
C1251	C125	0.965110	0.029660	0.706920
C1261	C126	0.035180	0.989280	0.682560
C1271	C127	0.094350	0.954800	0.714100
C1281	C128	0.046850	0.989470	0.619030
C1291	C129	0.868170	0.068560	0.800100
C1301	C130	0.790880	0.074890	0.797350
C1311	C131	0.720060	0.109000	0.825880
C1321	C132	0.875460	0.100560	0.834720
C1331	C133	0.995570	0.940410	0.519810
C1341	C134	0.935990	0.911370	0.523850
C1351	C135	0.955790	0.847140	0.540480
C1361	C136	0.902920	0.813940	0.545420
C1371	C137	0.828690	0.845410	0.533610
C1381	C138	0.809100	0.908810	0.518390
C1391	C139	0.861520	0.938490	0.513270
C1401	C140	0.726350	0.939740	0.506960
C1411	C141	0.923160	0.745850	0.568930
C1421	C142	0.929750	0.717100	0.625900
C1431	C143	0.919550	0.647960	0.559940
C1441	C144	0.919340	0.707370	0.538150
C1451	C145	0.932110	0.653290	0.653290
C1461	C146	0.927450	0.618550	0.618550
C1471	C147	0.194800	0.979100	0.979100
C1481	C148	0.062450	0.981950	0.981950
C1491	C149	0.238690	0.346710	0.346710
C1501	C150	0.164550	0.381450	0.381450
C1511	C151	0.153000	0.020900	0.020900
C1521	C152	0.026350	0.018050	0.018050
C1531	C153	0.383400	0.831020	0.168980
C1541	C154	0.453900	0.808800	0.191200
C1551	C155	0.726600	0.860600	0.139400
C1561	C156	0.802700	0.864800	0.135200
C1571	C157	0.383400	0.168980	0.831020
C1581	C158	0.453900	0.191200	0.808800
C1591	C159	0.726600	0.139400	0.860600
C1601	C160	0.802700	0.135200	0.864800
N11	N1	0.146260	0.961710	0.961710
N21	N2	0.069680	0.038290	0.038290
O11	O1	0.562610	0.565350	0.045830
O21	O2	0.532110	0.584300	0.955400
O31	O3	0.287390	0.846300	0.946860
O41	O4	0.346990	0.785740	0.885160
O51	O5	0.138220	0.845650	0.945330
O61	O6	0.198480	0.784460	0.884980
O71	O7	0.005950	0.587310	0.030050
O81	O8	0.101320	0.606240	0.945920
O91	O9	0.065410	0.528520	0.909100
O101	O10	0.962470	0.513910	0.996410
O111	O11	0.671630	0.512050	0.919710
O121	O12	0.715090	0.492040	0.000060
O131	O13	0.173790	0.434650	0.954170
O141	O14	0.071810	0.415700	0.044600
O151	O15	0.080550	0.153700	0.053140
O161	O16	0.017890	0.214260	0.114840
O171	O17	0.929200	0.154350	0.054670
O181	O18	0.867920	0.215540	0.115020
O191	O19	0.623310	0.412690	0.969950
O201	O20	0.653480	0.393760	0.054080
O211	O21	0.503030	0.471480	0.090900
O221	O22	0.472790	0.486090	0.003590
O231	O23	0.103390	0.487950	0.080290
O241	O24	0.207190	0.507960	0.999940
O251	O25	0.173790	0.954170	0.434650
O261	O26	0.071810	0.044600	0.415700
O271	O27	0.080550	0.053140	0.153700
O281	O28	0.017890	0.114840	0.214260
O291	O29	0.929200	0.054670	0.154350
O301	O30	0.867920	0.115020	0.215540
O311	O31	0.623310	0.969950	0.412690
O321	O32	0.653480	0.054080	0.393760
O331	O33	0.503030	0.090900	0.471480
O341	O34	0.472790	0.003590	0.486090
O351	O35	0.103390	0.080290	0.487950
O361	O36	0.207190	0.999940	0.507960
O371	O37	0.562610	0.045830	0.565350
O381	O38	0.532110	0.955400	0.584300
O391	O39	0.287390	0.946860	0.846300
O401	O40	0.346990	0.885160	0.785740
O411	O41	0.138220	0.945330	0.845650
O421	O42	0.198480	0.884980	0.784460
O431	O43	0.005950	0.030050	0.587310
O441	O44	0.101320	0.945920	0.606240
O451	O45	0.065410	0.909100	0.528520
O461	O46	0.962470	0.996410	0.513910
O471	O47	0.671630	0.919710	0.512050
O481	O48	0.715090	0.000060	0.492040
