data_NIGFUF_clean_PM
_symmetry_space_group_name_H-M	'P1'
_cell_length_a	10.909700
_cell_length_b	10.909700
_cell_length_c	19.510000
_cell_angle_alpha	75.468700
_cell_angle_beta	75.468700
_cell_angle_gamma	64.108200
_symmetry_Int_Tables_number 1

loop_
_symmetry_equiv_pos_as_xyz
'x,y,z'

loop_
_atom_site_label
_atom_site_type_symbol
_atom_site_fract_x
_atom_site_fract_y
_atom_site_fract_z
Dy11	Dy1	0.753820	0.096460	0.083050
Dy21	Dy2	0.903540	0.246180	0.416950
Dy31	Dy3	0.246180	0.903540	0.916950
Dy41	Dy4	0.096460	0.753820	0.583050
H11	H1	0.331200	0.099800	0.031700
H21	H2	0.297700	0.188100	0.223800
H31	H3	0.980800	0.157200	0.172300
H41	H4	0.900200	0.668800	0.468300
H51	H5	0.811900	0.702300	0.276200
H61	H6	0.842800	0.019200	0.327700
H71	H7	0.668800	0.900200	0.968300
H81	H8	0.702300	0.811900	0.776200
H91	H9	0.019200	0.842800	0.827700
H101	H10	0.099800	0.331200	0.531700
H111	H11	0.188100	0.297700	0.723800
H121	H12	0.157200	0.980800	0.672300
C11	C1	0.086200	0.093200	0.043800
C21	C2	0.149600	0.121800	0.095100
C31	C3	0.280800	0.118200	0.076700
C41	C4	0.337600	0.141600	0.124800
C51	C5	0.259900	0.171100	0.191300
C61	C6	0.128800	0.175400	0.209700
C71	C7	0.070800	0.152200	0.160900
C81	C8	0.484400	0.130400	0.106200
C91	C9	0.046000	0.202000	0.282900
C101	C10	0.906800	0.913800	0.456200
C111	C11	0.878200	0.850400	0.404900
C121	C12	0.881800	0.719200	0.423300
C131	C13	0.858400	0.662400	0.375200
C141	C14	0.828900	0.740100	0.308700
C151	C15	0.824600	0.871200	0.290300
C161	C16	0.847800	0.929200	0.339100
C171	C17	0.869600	0.515600	0.393800
C181	C18	0.798000	0.954000	0.217100
C191	C19	0.913800	0.906800	0.956200
C201	C20	0.850400	0.878200	0.904900
C211	C21	0.719200	0.881800	0.923300
C221	C22	0.662400	0.858400	0.875200
C231	C23	0.740100	0.828900	0.808700
C241	C24	0.871200	0.824600	0.790300
C251	C25	0.929200	0.847800	0.839100
C261	C26	0.515600	0.869600	0.893800
C271	C27	0.954000	0.798000	0.717100
C281	C28	0.093200	0.086200	0.543800
C291	C29	0.121800	0.149600	0.595100
C301	C30	0.118200	0.280800	0.576700
C311	C31	0.141600	0.337600	0.624800
C321	C32	0.171100	0.259900	0.691300
C331	C33	0.175400	0.128800	0.709700
C341	C34	0.152200	0.070800	0.660900
C351	C35	0.130400	0.484400	0.606200
C361	C36	0.202000	0.046000	0.782900
O11	O1	0.150900	0.081500	0.981600
O21	O2	0.554100	0.099700	0.050900
O31	O3	0.528500	0.159100	0.151000
O41	O4	0.105000	0.205000	0.329100
O51	O5	0.925200	0.216800	0.295200
O61	O6	0.972700	0.081900	0.065400
O71	O7	0.918500	0.849100	0.518400
O81	O8	0.900300	0.445900	0.449100
O91	O9	0.840900	0.471500	0.349000
O101	O10	0.795000	0.895000	0.170900
O111	O11	0.783200	0.074800	0.204800
O121	O12	0.918100	0.027300	0.434600
O131	O13	0.849100	0.918500	0.018400
O141	O14	0.445900	0.900300	0.949100
O151	O15	0.471500	0.840900	0.849000
O161	O16	0.895000	0.795000	0.670900
O171	O17	0.074800	0.783200	0.704800
O181	O18	0.027300	0.918100	0.934600
O191	O19	0.081500	0.150900	0.481600
O201	O20	0.099700	0.554100	0.550900
O211	O21	0.159100	0.528500	0.651000
O221	O22	0.205000	0.105000	0.829100
O231	O23	0.216800	0.925200	0.795200
O241	O24	0.081900	0.972700	0.565400
