data_NIGFIT_clean_PM
_symmetry_space_group_name_H-M	'P1'
_cell_length_a	10.889400
_cell_length_b	10.889400
_cell_length_c	19.680300
_cell_angle_alpha	75.715600
_cell_angle_beta	75.715600
_cell_angle_gamma	64.672600
_symmetry_Int_Tables_number 1

loop_
_symmetry_equiv_pos_as_xyz
'x,y,z'

loop_
_atom_site_label
_atom_site_type_symbol
_atom_site_fract_x
_atom_site_fract_y
_atom_site_fract_z
Er11	Er1	0.594590	0.255070	0.083300
Er21	Er2	0.744930	0.405410	0.416700
Er31	Er3	0.405410	0.744930	0.916700
Er41	Er4	0.255070	0.594590	0.583300
H11	H1	0.201500	0.311900	0.275500
H21	H2	0.169400	0.400800	0.466800
H31	H3	0.519400	0.344000	0.327500
H41	H4	0.688100	0.798500	0.224500
H51	H5	0.599200	0.830600	0.033200
H61	H6	0.656000	0.480600	0.172500
H71	H7	0.798500	0.688100	0.724500
H81	H8	0.830600	0.599200	0.533200
H91	H9	0.480600	0.656000	0.672500
H101	H10	0.311900	0.201500	0.775500
H111	H11	0.400800	0.169400	0.966800
H121	H12	0.344000	0.519400	0.827500
C11	C1	0.453400	0.298200	0.217300
C21	C2	0.017000	0.368200	0.391500
C31	C3	0.415500	0.406700	0.456400
C41	C4	0.373600	0.321200	0.289700
C51	C5	0.240500	0.327100	0.308000
C61	C6	0.164100	0.355300	0.374000
C71	C7	0.220700	0.380700	0.422600
C81	C8	0.353900	0.376100	0.404900
C91	C9	0.430200	0.346800	0.339200
C101	C10	0.701800	0.546600	0.282700
C111	C11	0.631800	0.983000	0.108500
C121	C12	0.593300	0.584500	0.043600
C131	C13	0.678800	0.626400	0.210300
C141	C14	0.672900	0.759500	0.192000
C151	C15	0.644700	0.835900	0.126000
C161	C16	0.619300	0.779300	0.077400
C171	C17	0.623900	0.646100	0.095100
C181	C18	0.653200	0.569800	0.160800
C191	C19	0.546600	0.701800	0.782700
C201	C20	0.983000	0.631800	0.608500
C211	C21	0.584500	0.593300	0.543600
C221	C22	0.626400	0.678800	0.710300
C231	C23	0.759500	0.672900	0.692000
C241	C24	0.835900	0.644700	0.626000
C251	C25	0.779300	0.619300	0.577400
C261	C26	0.646100	0.623900	0.595100
C271	C27	0.569800	0.653200	0.660800
C281	C28	0.298200	0.453400	0.717300
C291	C29	0.368200	0.017000	0.891500
C301	C30	0.406700	0.415500	0.956400
C311	C31	0.321200	0.373600	0.789700
C321	C32	0.327100	0.240500	0.808000
C331	C33	0.355300	0.164100	0.874000
C341	C34	0.380700	0.220700	0.922600
C351	C35	0.376100	0.353900	0.904900
C361	C36	0.346800	0.430200	0.839200
O11	O1	0.395000	0.293400	0.170300
O21	O2	0.577000	0.283400	0.203600
O31	O3	0.971500	0.332700	0.350300
O41	O4	0.941900	0.410500	0.445900
O51	O5	0.350600	0.417800	0.518400
O61	O6	0.528500	0.419900	0.434100
O71	O7	0.706600	0.605000	0.329700
O81	O8	0.716600	0.423000	0.296400
O91	O9	0.667300	0.028500	0.149700
O101	O10	0.589500	0.058100	0.054100
O111	O11	0.582200	0.649400	0.981600
O121	O12	0.580100	0.471500	0.065900
O131	O13	0.605000	0.706600	0.829700
O141	O14	0.423000	0.716600	0.796400
O151	O15	0.028500	0.667300	0.649700
O161	O16	0.058100	0.589500	0.554100
O171	O17	0.649400	0.582200	0.481600
O181	O18	0.471500	0.580100	0.565900
O191	O19	0.293400	0.395000	0.670300
O201	O20	0.283400	0.577000	0.703600
O211	O21	0.332700	0.971500	0.850300
O221	O22	0.410500	0.941900	0.945900
O231	O23	0.417800	0.350600	0.018400
O241	O24	0.419900	0.528500	0.934100
