data_NIGHOA_charged_PM
_symmetry_space_group_name_H-M	'P1'
_cell_length_a	12.280000
_cell_length_b	12.553000
_cell_length_c	19.490000
_cell_angle_alpha	90.000000
_cell_angle_beta	92.170000
_cell_angle_gamma	90.000000
_symmetry_Int_Tables_number 1

loop_
_symmetry_equiv_pos_as_xyz
'x,y,z'

loop_
_atom_site_label
_atom_site_type_symbol
_atom_site_fract_x
_atom_site_fract_y
_atom_site_fract_z
Cu11	Cu1	0.235200	0.888260	0.754870
Cu21	Cu2	0.264800	0.388260	0.245130
Cu31	Cu3	0.764800	0.111740	0.245130
Cu41	Cu4	0.735200	0.611740	0.754870
H11	H1	0.448700	0.848000	0.833200
H21	H2	0.571000	0.823900	0.920000
H31	H3	0.354700	0.037100	0.871700
H41	H4	0.475500	0.077600	0.959400
H51	H5	0.593200	0.027000	0.965200
H61	H6	0.039300	0.049300	0.754000
H71	H7	0.900100	0.073700	0.862600
H81	H8	0.152400	0.875600	0.908600
H91	H9	0.011300	0.898900	0.993500
H101	H10	0.947200	0.980200	0.965600
H111	H11	0.010600	0.781300	0.698700
H121	H12	0.896200	0.867800	0.599400
H131	H13	0.174800	0.029600	0.619700
H141	H14	0.020600	0.103500	0.528200
H151	H15	0.915500	0.046300	0.532700
H161	H16	0.680000	0.156200	0.400800
H171	H17	0.504400	0.053600	0.446300
H181	H18	0.549800	0.954100	0.253800
H191	H19	0.400600	0.883700	0.315400
H201	H20	0.419500	0.875700	0.401100
H211	H21	0.301400	0.015000	0.388000
H221	H22	0.232400	0.925500	0.348600
H231	H23	0.278500	0.946900	0.210400
H241	H24	0.243200	0.646900	0.847800
H251	H25	0.203900	0.695700	0.645600
H261	H26	0.051300	0.348000	0.166800
H271	H27	0.929000	0.323900	0.080000
H281	H28	0.145300	0.537100	0.128300
H291	H29	0.024500	0.577600	0.040600
H301	H30	0.906800	0.527000	0.034800
H311	H31	0.460700	0.549300	0.246000
H321	H32	0.599900	0.573700	0.137400
H331	H33	0.347600	0.375600	0.091400
H341	H34	0.488700	0.398900	0.006500
H351	H35	0.552800	0.480200	0.034400
H361	H36	0.489400	0.281300	0.301300
H371	H37	0.603800	0.367800	0.400600
H381	H38	0.325200	0.529600	0.380300
H391	H39	0.479400	0.603500	0.471800
H401	H40	0.584500	0.546300	0.467300
H411	H41	0.820000	0.656200	0.599200
H421	H42	0.995600	0.553600	0.553700
H431	H43	0.950200	0.454100	0.746200
H441	H44	0.099400	0.383700	0.684600
H451	H45	0.080500	0.375700	0.598900
H461	H46	0.198600	0.515000	0.612000
H471	H47	0.267600	0.425500	0.651400
H481	H48	0.221500	0.446900	0.789600
H491	H49	0.256800	0.146900	0.152200
H501	H50	0.296100	0.195700	0.354400
H511	H51	0.551300	0.152000	0.166800
H521	H52	0.429000	0.176100	0.080000
H531	H53	0.645300	0.962900	0.128300
H541	H54	0.524500	0.922400	0.040600
H551	H55	0.406800	0.973000	0.034800
H561	H56	0.960700	0.950700	0.246000
H571	H57	0.099900	0.926300	0.137400
H581	H58	0.847600	0.124400	0.091400
H591	H59	0.988700	0.101100	0.006500
H601	H60	0.052800	0.019800	0.034400
H611	H61	0.989400	0.218700	0.301300
H621	H62	0.103800	0.132200	0.400600
H631	H63	0.825200	0.970400	0.380300
H641	H64	0.979400	0.896500	0.471800
H651	H65	0.084500	0.953700	0.467300
H661	H66	0.320000	0.843800	0.599200
H671	H67	0.495600	0.946400	0.553700
H681	H68	0.450200	0.045900	0.746200
H691	H69	0.599400	0.116300	0.684600
H701	H70	0.580500	0.124300	0.598900
H711	H71	0.698600	0.985000	0.612000
H721	H72	0.767600	0.074500	0.651400
H731	H73	0.721500	0.053100	0.789600
H741	H74	0.756800	0.353100	0.152200
H751	H75	0.796100	0.304300	0.354400
H761	H76	0.948700	0.652000	0.833200
H771	H77	0.071000	0.676100	0.920000
H781	H78	0.854700	0.462900	0.871700
H791	H79	0.975500	0.422400	0.959400
H801	H80	0.093200	0.473000	0.965200
H811	H81	0.539300	0.450700	0.754000
H821	H82	0.400100	0.426300	0.862600
H831	H83	0.652400	0.624400	0.908600
H841	H84	0.511300	0.601100	0.993500
H851	H85	0.447200	0.519800	0.965600
H861	H86	0.510600	0.718700	0.698700
H871	H87	0.396200	0.632200	0.599400
H881	H88	0.674800	0.470400	0.619700
H891	H89	0.520600	0.396500	0.528200
H901	H90	0.415500	0.453700	0.532700
H911	H91	0.180000	0.343800	0.400800
H921	H92	0.004400	0.446400	0.446300
H931	H93	0.049800	0.545900	0.253800
H941	H94	0.900600	0.616300	0.315400
H951	H95	0.919500	0.624300	0.401100
H961	H96	0.801400	0.485000	0.388000
H971	H97	0.732400	0.574500	0.348600
H981	H98	0.778500	0.553100	0.210400
H991	H99	0.743200	0.853100	0.847800
H1001	H100	0.703900	0.804300	0.645600
C11	C1	0.425700	0.810400	0.844600
C21	C2	0.494000	0.847100	0.896600
C31	C3	0.366100	0.965600	0.876500
C41	C4	0.515500	0.017700	0.965400
C51	C5	0.035800	0.013200	0.803100
C61	C6	0.974900	0.028700	0.858200
C71	C7	0.105300	0.914500	0.882900
C81	C8	0.980500	0.951900	0.979500
C91	C9	0.028900	0.842100	0.670500
C101	C10	0.968300	0.880500	0.617400
C111	C11	0.118100	0.973000	0.628800
C121	C12	0.990400	0.030300	0.533100
C131	C13	0.628600	0.106200	0.376500
C141	C14	0.540500	0.057000	0.401000
C151	C15	0.565000	0.003400	0.296700
C161	C16	0.408600	0.918400	0.353100
C171	C17	0.299700	0.976300	0.355000
C181	C18	0.275000	0.036900	0.230400
C191	C19	0.233700	0.633800	0.798600
C201	C20	0.213200	0.660900	0.690100
C211	C21	0.074300	0.310400	0.155400
C221	C22	0.006000	0.347100	0.103400
C231	C23	0.133900	0.465600	0.123500
C241	C24	0.984500	0.517700	0.034600
C251	C25	0.464200	0.513200	0.196900
C261	C26	0.525100	0.528700	0.141800
C271	C27	0.394700	0.414500	0.117100
C281	C28	0.519500	0.451900	0.020500
C291	C29	0.471100	0.342100	0.329500
C301	C30	0.531700	0.380500	0.382600
C311	C31	0.381900	0.473000	0.371200
C321	C32	0.509600	0.530300	0.466900
C331	C33	0.871400	0.606200	0.623500
C341	C34	0.959500	0.557000	0.599000
C351	C35	0.935000	0.503400	0.703300
C361	C36	0.091400	0.418400	0.646900
C371	C37	0.200300	0.476300	0.645000
C381	C38	0.225000	0.536900	0.769600
C391	C39	0.266300	0.133800	0.201400
C401	C40	0.286800	0.160900	0.309900
C411	C41	0.574300	0.189600	0.155400
C421	C42	0.506000	0.152900	0.103400
C431	C43	0.633900	0.034400	0.123500
C441	C44	0.484500	0.982300	0.034600
C451	C45	0.964200	0.986800	0.196900
C461	C46	0.025100	0.971300	0.141800
C471	C47	0.894700	0.085500	0.117100
C481	C48	0.019500	0.048100	0.020500
C491	C49	0.971100	0.157900	0.329500
C501	C50	0.031700	0.119500	0.382600
C511	C51	0.881900	0.027000	0.371200
C521	C52	0.009600	0.969700	0.466900
C531	C53	0.371400	0.893800	0.623500
C541	C54	0.459500	0.943000	0.599000
C551	C55	0.435000	0.996600	0.703300
C561	C56	0.591400	0.081600	0.646900
C571	C57	0.700300	0.023700	0.645000
C581	C58	0.725000	0.963100	0.769600
C591	C59	0.766300	0.366200	0.201400
C601	C60	0.786800	0.339100	0.309900
C611	C61	0.925700	0.689600	0.844600
C621	C62	0.994000	0.652900	0.896600
C631	C63	0.866100	0.534400	0.876500
C641	C64	0.015500	0.482300	0.965400
C651	C65	0.535800	0.486800	0.803100
C661	C66	0.474900	0.471300	0.858200
C671	C67	0.605300	0.585500	0.882900
C681	C68	0.480500	0.548100	0.979500
C691	C69	0.528900	0.657900	0.670500
C701	C70	0.468300	0.619500	0.617400
C711	C71	0.618100	0.527000	0.628800
C721	C72	0.490400	0.469700	0.533100
C731	C73	0.128600	0.393800	0.376500
C741	C74	0.040500	0.443000	0.401000
C751	C75	0.065000	0.496600	0.296700
C761	C76	0.908600	0.581600	0.353100
C771	C77	0.799700	0.523700	0.355000
C781	C78	0.775000	0.463100	0.230400
C791	C79	0.733700	0.866200	0.798600
C801	C80	0.713200	0.839100	0.690100
N11	N1	0.346000	0.888000	0.832700
N21	N2	0.457700	0.945400	0.914400
N31	N3	0.119400	0.942300	0.818100
N41	N4	0.019200	0.963700	0.908400
N51	N5	0.124100	0.900400	0.677300
N61	N6	0.024300	0.966100	0.591800
N71	N7	0.643600	0.072300	0.310100
N81	N8	0.501100	0.991200	0.349900
N91	N9	0.287200	0.055600	0.300200
N101	N10	0.227200	0.712800	0.748900
N111	N11	0.154000	0.388000	0.167300
N121	N12	0.042300	0.445400	0.085600
N131	N13	0.380600	0.442300	0.181900
N141	N14	0.480800	0.463700	0.091600
N151	N15	0.375900	0.400400	0.322700
N161	N16	0.475700	0.466100	0.408200
N171	N17	0.856400	0.572300	0.689900
N181	N18	0.998900	0.491200	0.650100
N191	N19	0.212800	0.555600	0.699800
N201	N20	0.272800	0.212800	0.251100
N211	N21	0.654000	0.112000	0.167300
N221	N22	0.542300	0.054600	0.085600
N231	N23	0.880600	0.057700	0.181900
N241	N24	0.980800	0.036300	0.091600
N251	N25	0.875900	0.099600	0.322700
N261	N26	0.975700	0.033900	0.408200
N271	N27	0.356400	0.927700	0.689900
N281	N28	0.498900	0.008800	0.650100
N291	N29	0.712800	0.944400	0.699800
N301	N30	0.772800	0.287200	0.251100
N311	N31	0.846000	0.612000	0.832700
N321	N32	0.957700	0.554600	0.914400
N331	N33	0.619400	0.557700	0.818100
N341	N34	0.519200	0.536300	0.908400
N351	N35	0.624100	0.599600	0.677300
N361	N36	0.524300	0.533900	0.591800
N371	N37	0.143600	0.427700	0.310100
N381	N38	0.001100	0.508800	0.349900
N391	N39	0.787200	0.444400	0.300200
N401	N40	0.727200	0.787200	0.748900
Cl11	Cl1	0.745700	0.746800	0.045300
O11	O1	0.742200	0.637200	0.044300
O21	O2	0.736600	0.790000	0.980400
O31	O3	0.651900	0.771400	0.077800
O41	O4	0.838100	0.785300	0.077000
Cl21	Cl2	0.701800	0.790500	0.466470
O51	O5	0.593700	0.794200	0.457100
O61	O6	0.738000	0.801700	0.402000
O71	O7	0.742600	0.876300	0.501600
O81	O8	0.732500	0.695100	0.489300
Cl31	Cl3	0.754300	0.246800	0.954700
O91	O9	0.757800	0.137200	0.955700
O101	O10	0.763400	0.290000	0.019600
O111	O11	0.848100	0.271400	0.922200
O121	O12	0.661900	0.285300	0.923000
Cl41	Cl4	0.798200	0.290500	0.533530
O131	O13	0.906300	0.294200	0.542900
O141	O14	0.762000	0.301700	0.598000
O151	O15	0.757400	0.376300	0.498400
O161	O16	0.767500	0.195100	0.510700
Cl51	Cl5	0.254300	0.253200	0.954700
O171	O17	0.257800	0.362800	0.955700
O181	O18	0.263400	0.210000	0.019600
O191	O19	0.348100	0.228600	0.922200
O201	O20	0.161900	0.214700	0.923000
Cl61	Cl6	0.298200	0.209500	0.533530
O211	O21	0.406300	0.205800	0.542900
O221	O22	0.262000	0.198300	0.598000
O231	O23	0.257400	0.123700	0.498400
O241	O24	0.267500	0.304900	0.510700
Cl71	Cl7	0.245700	0.753200	0.045300
O251	O25	0.242200	0.862800	0.044300
O261	O26	0.236600	0.710000	0.980400
O271	O27	0.151900	0.728600	0.077800
O281	O28	0.338100	0.714700	0.077000
Cl81	Cl8	0.201800	0.709500	0.466470
O291	O29	0.093700	0.705800	0.457100
O301	O30	0.238000	0.698300	0.402000
O311	O31	0.242600	0.623700	0.501600
O321	O32	0.232500	0.804900	0.489300
