data_NIGPEA_clean_PM
_symmetry_space_group_name_H-M	'P1'
_cell_length_a	17.413000
_cell_length_b	24.924000
_cell_length_c	22.279000
_cell_angle_alpha	90.000000
_cell_angle_beta	90.000000
_cell_angle_gamma	90.000000
_symmetry_Int_Tables_number 1

loop_
_symmetry_equiv_pos_as_xyz
'x,y,z'

loop_
_atom_site_label
_atom_site_type_symbol
_atom_site_fract_x
_atom_site_fract_y
_atom_site_fract_z
C11	C1	0.003400	0.511140	0.104640
C21	C2	0.933250	0.530480	0.085720
H11	H1	0.888800	0.517700	0.103900
C31	C3	0.926910	0.567210	0.041830
C41	C4	0.992250	0.588090	0.016110
H21	H2	0.988000	0.614500	0.986800
C51	C5	0.064170	0.570260	0.033380
C61	C6	0.069820	0.531710	0.077720
H31	H3	0.117800	0.519400	0.089700
C71	C7	0.010420	0.470020	0.152880
C81	C8	0.060810	0.427270	0.147610
H41	H4	0.091300	0.424600	0.113400
C91	C9	0.067210	0.388100	0.192140
H51	H5	0.101900	0.360000	0.187900
C101	C10	0.021340	0.391680	0.242530
C111	C11	0.969080	0.435740	0.249470
H61	H6	0.940100	0.439800	0.284200
C121	C12	0.963320	0.472360	0.202150
H71	H7	0.926300	0.499200	0.204100
C131	C13	0.027320	0.350690	0.293180
C141	C14	0.850030	0.585820	0.019450
C151	C15	0.787690	0.551390	0.020710
H81	H8	0.793700	0.516400	0.034500
C161	C16	0.715420	0.569090	0.001240
H91	H9	0.673700	0.545800	0.003000
C171	C17	0.705130	0.620580	0.979400
C181	C18	0.767080	0.654710	0.978560
H101	H10	0.761000	0.689400	0.964100
C191	C19	0.837340	0.638520	0.998610
H111	H11	0.877900	0.662800	0.998500
C201	C20	0.626550	0.639140	0.958900
C211	C21	0.136110	0.591220	0.003670
C221	C22	0.135980	0.614710	0.947450
H121	H12	0.090500	0.615300	0.925600
C231	C23	0.200090	0.636930	0.923080
H131	H13	0.197400	0.651800	0.884800
C241	C24	0.268860	0.638030	0.953600
C251	C25	0.270560	0.614120	0.010320
H141	H14	0.316600	0.612400	0.031400
C261	C26	0.205060	0.593190	0.035190
H151	H15	0.206800	0.579900	0.074200
C271	C27	0.337910	0.663790	0.925860
Co11	Co1	0.997450	0.321860	0.421490
O11	O1	0.063800	0.309600	0.280240
O21	O2	0.996140	0.363000	0.341220
O31	O3	0.571320	0.612300	0.969100
O41	O4	0.622180	0.680780	0.932600
O51	O5	0.329320	0.691670	0.881780
O61	O6	0.401870	0.655750	0.953470
C281	C28	0.496600	0.488860	0.604640
C291	C29	0.566750	0.469520	0.585720
H161	H16	0.611200	0.482300	0.603900
C301	C30	0.573090	0.432790	0.541830
C311	C31	0.507750	0.411910	0.516110
H171	H17	0.512000	0.385500	0.486800
C321	C32	0.435830	0.429740	0.533380
C331	C33	0.430180	0.468290	0.577720
H181	H18	0.382200	0.480600	0.589700
C341	C34	0.489580	0.529980	0.652880
C351	C35	0.439190	0.572730	0.647610
H191	H19	0.408700	0.575400	0.613400
C361	C36	0.432790	0.611900	0.692140
H201	H20	0.398100	0.640000	0.687900
C371	C37	0.478660	0.608320	0.742530
C381	C38	0.530920	0.564260	0.749470
H211	H21	0.559900	0.560200	0.784200
C391	C39	0.536680	0.527640	0.702150
H221	H22	0.573700	0.500800	0.704100
C401	C40	0.472680	0.649310	0.793180
C411	C41	0.649970	0.414180	0.519450
C421	C42	0.712310	0.448610	0.520710
H231	H23	0.706300	0.483600	0.534500
C431	C43	0.784580	0.430910	0.501240
H241	H24	0.826300	0.454200	0.503000
C441	C44	0.794870	0.379420	0.479400
C451	C45	0.732920	0.345290	0.478560
H251	H25	0.739000	0.310600	0.464100
C461	C46	0.662660	0.361480	0.498610
H261	H26	0.622100	0.337200	0.498500
C471	C47	0.873450	0.360860	0.458900
C481	C48	0.363890	0.408780	0.503670
C491	C49	0.364020	0.385290	0.447450
H271	H27	0.409500	0.384700	0.425600
C501	C50	0.299910	0.363070	0.423080
H281	H28	0.302600	0.348200	0.384800
C511	C51	0.231140	0.361970	0.453600
C521	C52	0.229440	0.385880	0.510320
H291	H29	0.183400	0.387600	0.531400
C531	C53	0.294940	0.406810	0.535190
H301	H30	0.293200	0.420100	0.574200
C541	C54	0.162090	0.336210	0.425860
Co21	Co2	0.502550	0.678140	0.921490
O71	O7	0.436200	0.690400	0.780240
O81	O8	0.503860	0.637000	0.841220
O91	O9	0.928680	0.387700	0.469100
O101	O10	0.877820	0.319220	0.432600
O111	O11	0.170680	0.308330	0.381780
O121	O12	0.098130	0.344250	0.453470
C551	C55	0.003400	0.988860	0.104640
C561	C56	0.933250	0.969520	0.085720
H311	H31	0.888800	0.982300	0.103900
C571	C57	0.926910	0.932790	0.041830
C581	C58	0.992250	0.911910	0.016110
H321	H32	0.988000	0.885500	0.986800
C591	C59	0.064170	0.929740	0.033380
C601	C60	0.069820	0.968290	0.077720
H331	H33	0.117800	0.980600	0.089700
C611	C61	0.010420	0.029980	0.152880
C621	C62	0.060810	0.072730	0.147610
H341	H34	0.091300	0.075400	0.113400
C631	C63	0.067210	0.111900	0.192140
H351	H35	0.101900	0.140000	0.187900
C641	C64	0.021340	0.108320	0.242530
C651	C65	0.969080	0.064260	0.249470
H361	H36	0.940100	0.060200	0.284200
C661	C66	0.963320	0.027640	0.202150
H371	H37	0.926300	0.000800	0.204100
C671	C67	0.027320	0.149310	0.293180
C681	C68	0.850030	0.914180	0.019450
C691	C69	0.787690	0.948610	0.020710
H381	H38	0.793700	0.983600	0.034500
C701	C70	0.715420	0.930910	0.001240
H391	H39	0.673700	0.954200	0.003000
C711	C71	0.705130	0.879420	0.979400
C721	C72	0.767080	0.845290	0.978560
H401	H40	0.761000	0.810600	0.964100
C731	C73	0.837340	0.861480	0.998610
H411	H41	0.877900	0.837200	0.998500
C741	C74	0.626550	0.860860	0.958900
C751	C75	0.136110	0.908780	0.003670
C761	C76	0.135980	0.885290	0.947450
H421	H42	0.090500	0.884700	0.925600
C771	C77	0.200090	0.863070	0.923080
H431	H43	0.197400	0.848200	0.884800
C781	C78	0.268860	0.861970	0.953600
C791	C79	0.270560	0.885880	0.010320
H441	H44	0.316600	0.887600	0.031400
C801	C80	0.205060	0.906810	0.035190
H451	H45	0.206800	0.920100	0.074200
C811	C81	0.337910	0.836210	0.925860
Co31	Co3	0.997450	0.178140	0.421490
O131	O13	0.063800	0.190400	0.280240
O141	O14	0.996140	0.137000	0.341220
O151	O15	0.571320	0.887700	0.969100
O161	O16	0.622180	0.819220	0.932600
O171	O17	0.329320	0.808330	0.881780
O181	O18	0.401870	0.844250	0.953470
C821	C82	0.496600	0.011140	0.604640
C831	C83	0.566750	0.030480	0.585720
H461	H46	0.611200	0.017700	0.603900
C841	C84	0.573090	0.067210	0.541830
C851	C85	0.507750	0.088090	0.516110
H471	H47	0.512000	0.114500	0.486800
C861	C86	0.435830	0.070260	0.533380
C871	C87	0.430180	0.031710	0.577720
H481	H48	0.382200	0.019400	0.589700
C881	C88	0.489580	0.970020	0.652880
C891	C89	0.439190	0.927270	0.647610
H491	H49	0.408700	0.924600	0.613400
C901	C90	0.432790	0.888100	0.692140
H501	H50	0.398100	0.860000	0.687900
C911	C91	0.478660	0.891680	0.742530
C921	C92	0.530920	0.935740	0.749470
H511	H51	0.559900	0.939800	0.784200
C931	C93	0.536680	0.972360	0.702150
H521	H52	0.573700	0.999200	0.704100
C941	C94	0.472680	0.850690	0.793180
C951	C95	0.649970	0.085820	0.519450
C961	C96	0.712310	0.051390	0.520710
H531	H53	0.706300	0.016400	0.534500
C971	C97	0.784580	0.069090	0.501240
H541	H54	0.826300	0.045800	0.503000
C981	C98	0.794870	0.120580	0.479400
C991	C99	0.732920	0.154710	0.478560
H551	H55	0.739000	0.189400	0.464100
C1001	C100	0.662660	0.138520	0.498610
H561	H56	0.622100	0.162800	0.498500
C1011	C101	0.873450	0.139140	0.458900
C1021	C102	0.363890	0.091220	0.503670
C1031	C103	0.364020	0.114710	0.447450
H571	H57	0.409500	0.115300	0.425600
C1041	C104	0.299910	0.136930	0.423080
H581	H58	0.302600	0.151800	0.384800
C1051	C105	0.231140	0.138030	0.453600
C1061	C106	0.229440	0.114120	0.510320
H591	H59	0.183400	0.112400	0.531400
C1071	C107	0.294940	0.093190	0.535190
H601	H60	0.293200	0.079900	0.574200
C1081	C108	0.162090	0.163790	0.425860
Co41	Co4	0.502550	0.821860	0.921490
O191	O19	0.436200	0.809600	0.780240
O201	O20	0.503860	0.863000	0.841220
O211	O21	0.928680	0.112300	0.469100
O221	O22	0.877820	0.180780	0.432600
O231	O23	0.170680	0.191670	0.381780
O241	O24	0.098130	0.155750	0.453470
Co51	Co5	0.113140	0.250000	0.333660
O251	O25	0.011090	0.250000	0.384210
Co61	Co6	0.386860	0.750000	0.833660
O261	O26	0.488910	0.750000	0.884210
C1091	C109	0.996600	0.011140	0.895360
C1101	C110	0.066750	0.030480	0.914280
H611	H61	0.111200	0.017700	0.896100
C1111	C111	0.073090	0.067210	0.958170
C1121	C112	0.007750	0.088090	0.983890
H621	H62	0.012000	0.114500	0.013200
C1131	C113	0.935830	0.070260	0.966620
C1141	C114	0.930180	0.031710	0.922280
H631	H63	0.882200	0.019400	0.910300
C1151	C115	0.989580	0.970020	0.847120
C1161	C116	0.939190	0.927270	0.852390
H641	H64	0.908700	0.924600	0.886600
C1171	C117	0.932790	0.888100	0.807860
H651	H65	0.898100	0.860000	0.812100
C1181	C118	0.978660	0.891680	0.757470
C1191	C119	0.030920	0.935740	0.750530
H661	H66	0.059900	0.939800	0.715800
C1201	C120	0.036680	0.972360	0.797850
H671	H67	0.073700	0.999200	0.795900
C1211	C121	0.972680	0.850690	0.706820
C1221	C122	0.149970	0.085820	0.980550
C1231	C123	0.212310	0.051390	0.979290
H681	H68	0.206300	0.016400	0.965500
C1241	C124	0.284580	0.069090	0.998760
H691	H69	0.326300	0.045800	0.997000
C1251	C125	0.294870	0.120580	0.020600
C1261	C126	0.232920	0.154710	0.021440
H701	H70	0.239000	0.189400	0.035900
C1271	C127	0.162660	0.138520	0.001390
H711	H71	0.122100	0.162800	0.001500
C1281	C128	0.373450	0.139140	0.041100
C1291	C129	0.863890	0.091220	0.996330
C1301	C130	0.864020	0.114710	0.052550
H721	H72	0.909500	0.115300	0.074400
C1311	C131	0.799910	0.136930	0.076920
H731	H73	0.802600	0.151800	0.115200
C1321	C132	0.731140	0.138030	0.046400
C1331	C133	0.729440	0.114120	0.989680
H741	H74	0.683400	0.112400	0.968600
C1341	C134	0.794940	0.093190	0.964810
H751	H75	0.793200	0.079900	0.925800
C1351	C135	0.662090	0.163790	0.074140
Co71	Co7	0.002550	0.821860	0.578510
O271	O27	0.936200	0.809600	0.719760
O281	O28	0.003860	0.863000	0.658780
O291	O29	0.428680	0.112300	0.030900
O301	O30	0.377820	0.180780	0.067400
O311	O31	0.670680	0.191670	0.118220
O321	O32	0.598130	0.155750	0.046530
C1361	C136	0.503400	0.988860	0.395360
C1371	C137	0.433250	0.969520	0.414280
H761	H76	0.388800	0.982300	0.396100
C1381	C138	0.426910	0.932790	0.458170
C1391	C139	0.492250	0.911910	0.483890
H771	H77	0.488000	0.885500	0.513200
C1401	C140	0.564170	0.929740	0.466620
C1411	C141	0.569820	0.968290	0.422280
H781	H78	0.617800	0.980600	0.410300
C1421	C142	0.510420	0.029980	0.347120
C1431	C143	0.560810	0.072730	0.352390
H791	H79	0.591300	0.075400	0.386600
C1441	C144	0.567210	0.111900	0.307860
H801	H80	0.601900	0.140000	0.312100
C1451	C145	0.521340	0.108320	0.257470
C1461	C146	0.469080	0.064260	0.250530
H811	H81	0.440100	0.060200	0.215800
C1471	C147	0.463320	0.027640	0.297850
H821	H82	0.426300	0.000800	0.295900
C1481	C148	0.527320	0.149310	0.206820
C1491	C149	0.350030	0.914180	0.480550
C1501	C150	0.287690	0.948610	0.479290
H831	H83	0.293700	0.983600	0.465500
C1511	C151	0.215420	0.930910	0.498760
H841	H84	0.173700	0.954200	0.497000
C1521	C152	0.205130	0.879420	0.520600
C1531	C153	0.267080	0.845290	0.521440
H851	H85	0.261000	0.810600	0.535900
C1541	C154	0.337340	0.861480	0.501390
H861	H86	0.377900	0.837200	0.501500
C1551	C155	0.126550	0.860860	0.541100
C1561	C156	0.636110	0.908780	0.496330
C1571	C157	0.635980	0.885290	0.552550
H871	H87	0.590500	0.884700	0.574400
C1581	C158	0.700090	0.863070	0.576920
H881	H88	0.697400	0.848200	0.615200
C1591	C159	0.768860	0.861970	0.546400
C1601	C160	0.770560	0.885880	0.489680
H891	H89	0.816600	0.887600	0.468600
C1611	C161	0.705060	0.906810	0.464810
H901	H90	0.706800	0.920100	0.425800
C1621	C162	0.837910	0.836210	0.574140
Co81	Co8	0.497450	0.178140	0.078510
O331	O33	0.563800	0.190400	0.219760
O341	O34	0.496140	0.137000	0.158780
O351	O35	0.071320	0.887700	0.530900
O361	O36	0.122180	0.819220	0.567400
O371	O37	0.829320	0.808330	0.618220
O381	O38	0.901870	0.844250	0.546530
C1631	C163	0.996600	0.488860	0.895360
C1641	C164	0.066750	0.469520	0.914280
H911	H91	0.111200	0.482300	0.896100
C1651	C165	0.073090	0.432790	0.958170
C1661	C166	0.007750	0.411910	0.983890
H921	H92	0.012000	0.385500	0.013200
C1671	C167	0.935830	0.429740	0.966620
C1681	C168	0.930180	0.468290	0.922280
H931	H93	0.882200	0.480600	0.910300
C1691	C169	0.989580	0.529980	0.847120
C1701	C170	0.939190	0.572730	0.852390
H941	H94	0.908700	0.575400	0.886600
C1711	C171	0.932790	0.611900	0.807860
H951	H95	0.898100	0.640000	0.812100
C1721	C172	0.978660	0.608320	0.757470
C1731	C173	0.030920	0.564260	0.750530
H961	H96	0.059900	0.560200	0.715800
C1741	C174	0.036680	0.527640	0.797850
H971	H97	0.073700	0.500800	0.795900
C1751	C175	0.972680	0.649310	0.706820
C1761	C176	0.149970	0.414180	0.980550
C1771	C177	0.212310	0.448610	0.979290
H981	H98	0.206300	0.483600	0.965500
C1781	C178	0.284580	0.430910	0.998760
H991	H99	0.326300	0.454200	0.997000
C1791	C179	0.294870	0.379420	0.020600
C1801	C180	0.232920	0.345290	0.021440
H1001	H100	0.239000	0.310600	0.035900
C1811	C181	0.162660	0.361480	0.001390
H1011	H101	0.122100	0.337200	0.001500
C1821	C182	0.373450	0.360860	0.041100
C1831	C183	0.863890	0.408780	0.996330
C1841	C184	0.864020	0.385290	0.052550
H1021	H102	0.909500	0.384700	0.074400
C1851	C185	0.799910	0.363070	0.076920
H1031	H103	0.802600	0.348200	0.115200
C1861	C186	0.731140	0.361970	0.046400
C1871	C187	0.729440	0.385880	0.989680
H1041	H104	0.683400	0.387600	0.968600
C1881	C188	0.794940	0.406810	0.964810
H1051	H105	0.793200	0.420100	0.925800
C1891	C189	0.662090	0.336210	0.074140
Co91	Co9	0.002550	0.678140	0.578510
O391	O39	0.936200	0.690400	0.719760
O401	O40	0.003860	0.637000	0.658780
O411	O41	0.428680	0.387700	0.030900
O421	O42	0.377820	0.319220	0.067400
O431	O43	0.670680	0.308330	0.118220
O441	O44	0.598130	0.344250	0.046530
C1901	C190	0.503400	0.511140	0.395360
C1911	C191	0.433250	0.530480	0.414280
H1061	H106	0.388800	0.517700	0.396100
C1921	C192	0.426910	0.567210	0.458170
C1931	C193	0.492250	0.588090	0.483890
H1071	H107	0.488000	0.614500	0.513200
C1941	C194	0.564170	0.570260	0.466620
C1951	C195	0.569820	0.531710	0.422280
H1081	H108	0.617800	0.519400	0.410300
C1961	C196	0.510420	0.470020	0.347120
C1971	C197	0.560810	0.427270	0.352390
H1091	H109	0.591300	0.424600	0.386600
C1981	C198	0.567210	0.388100	0.307860
H1101	H110	0.601900	0.360000	0.312100
C1991	C199	0.521340	0.391680	0.257470
C2001	C200	0.469080	0.435740	0.250530
H1111	H111	0.440100	0.439800	0.215800
C2011	C201	0.463320	0.472360	0.297850
H1121	H112	0.426300	0.499200	0.295900
C2021	C202	0.527320	0.350690	0.206820
C2031	C203	0.350030	0.585820	0.480550
C2041	C204	0.287690	0.551390	0.479290
H1131	H113	0.293700	0.516400	0.465500
C2051	C205	0.215420	0.569090	0.498760
H1141	H114	0.173700	0.545800	0.497000
C2061	C206	0.205130	0.620580	0.520600
C2071	C207	0.267080	0.654710	0.521440
H1151	H115	0.261000	0.689400	0.535900
C2081	C208	0.337340	0.638520	0.501390
H1161	H116	0.377900	0.662800	0.501500
C2091	C209	0.126550	0.639140	0.541100
C2101	C210	0.636110	0.591220	0.496330
C2111	C211	0.635980	0.614710	0.552550
H1171	H117	0.590500	0.615300	0.574400
C2121	C212	0.700090	0.636930	0.576920
H1181	H118	0.697400	0.651800	0.615200
C2131	C213	0.768860	0.638030	0.546400
C2141	C214	0.770560	0.614120	0.489680
H1191	H119	0.816600	0.612400	0.468600
C2151	C215	0.705060	0.593190	0.464810
H1201	H120	0.706800	0.579900	0.425800
C2161	C216	0.837910	0.663790	0.574140
Co101	Co10	0.497450	0.321860	0.078510
O451	O45	0.563800	0.309600	0.219760
O461	O46	0.496140	0.363000	0.158780
O471	O47	0.071320	0.612300	0.530900
O481	O48	0.122180	0.680780	0.567400
O491	O49	0.829320	0.691670	0.618220
O501	O50	0.901870	0.655750	0.546530
Co111	Co11	0.886860	0.750000	0.666340
O511	O51	0.988910	0.750000	0.615790
Co121	Co12	0.613140	0.250000	0.166340
O521	O52	0.511090	0.250000	0.115790
