data_NIHVUX_clean_PM
_symmetry_space_group_name_H-M	'P1'
_cell_length_a	15.369000
_cell_length_b	15.403000
_cell_length_c	20.104000
_cell_angle_alpha	84.835000
_cell_angle_beta	89.828000
_cell_angle_gamma	74.460000
_symmetry_Int_Tables_number 1

loop_
_symmetry_equiv_pos_as_xyz
'x,y,z'

loop_
_atom_site_label
_atom_site_type_symbol
_atom_site_fract_x
_atom_site_fract_y
_atom_site_fract_z
Ce11	Ce1	0.359750	0.362480	0.501510
Ce21	Ce2	0.646720	0.308810	0.861780
Ce31	Ce3	0.353280	0.691190	0.138220
Ce41	Ce4	0.640250	0.637520	0.498490
Mn11	Mn1	0.930690	0.930770	0.500950
Mn21	Mn2	0.905140	0.086160	0.608400
Mn31	Mn3	0.094860	0.913840	0.391600
Mn41	Mn4	0.069310	0.069230	0.499050
P11	P1	0.263900	0.715100	0.759400
P21	P2	0.914400	0.096000	0.374200
P31	P3	0.736100	0.284900	0.240600
P41	P4	0.085600	0.904000	0.625800
H11	H1	0.217500	0.969400	0.103100
H21	H2	0.269900	0.059400	0.381200
H31	H3	0.845100	0.739800	0.456800
H41	H4	0.087200	0.784200	0.119300
H51	H5	0.116000	0.057500	0.032700
H61	H6	0.101200	0.524100	0.536900
H71	H7	0.303400	0.011900	0.274100
H81	H8	0.458600	0.233900	0.722200
H91	H9	0.898800	0.475900	0.463100
H101	H10	0.730100	0.940600	0.618800
H111	H11	0.258900	0.162700	0.449900
H121	H12	0.009300	0.470300	0.385200
H131	H13	0.990700	0.529700	0.614800
H141	H14	0.461900	0.135800	0.643600
H151	H15	0.978900	0.867700	0.038700
H161	H16	0.473400	0.894400	0.533800
H171	H17	0.782500	0.030600	0.896900
H181	H18	0.538000	0.996400	0.392000
H191	H19	0.884000	0.942500	0.967300
H201	H20	0.741100	0.837300	0.550100
H211	H21	0.888400	0.533700	0.680900
H221	H22	0.154900	0.260200	0.543200
H231	H23	0.696600	0.988100	0.725900
H241	H24	0.538100	0.864200	0.356400
H251	H25	0.841600	0.266800	0.770700
H261	H26	0.215300	0.468900	0.238000
H271	H27	0.111600	0.466300	0.319100
H281	H28	0.526600	0.105600	0.466200
H291	H29	0.784700	0.531100	0.762000
H301	H30	0.037400	0.266200	0.620400
H311	H31	0.158400	0.733200	0.229300
H321	H32	0.310800	0.905600	0.201000
H331	H33	0.956400	0.268200	0.694700
H341	H34	0.912800	0.215800	0.880700
H351	H35	0.541400	0.766100	0.277800
H361	H36	0.021100	0.132300	0.961300
H371	H37	0.043600	0.731800	0.305300
H381	H38	0.462000	0.003600	0.608000
H391	H39	0.962600	0.733800	0.379600
H401	H40	0.689200	0.094400	0.799000
W11	W1	0.450440	0.526020	0.780230
W21	W2	0.760120	0.962640	0.373900
W31	W3	0.730960	0.121970	0.482250
W41	W4	0.404560	0.863680	0.746980
W51	W5	0.885620	0.421770	0.245830
W61	W6	0.084660	0.752840	0.873860
W71	W7	0.114380	0.578230	0.754170
W81	W8	0.432400	0.705440	0.639210
W91	W9	0.915340	0.247160	0.126140
W101	W10	0.777580	0.111630	0.129390
W111	W11	0.119250	0.730040	0.520150
W121	W12	0.048390	0.248870	0.369020
W131	W13	0.269040	0.878030	0.517750
W141	W14	0.058990	0.059570	0.747320
W151	W15	0.576700	0.312300	0.109840
W161	W16	0.549560	0.473980	0.219770
W171	W17	0.941010	0.940430	0.252680
W181	W18	0.281340	0.549330	0.894150
W191	W19	0.595440	0.136320	0.253020
W201	W20	0.078330	0.077250	0.250270
W211	W21	0.951610	0.751130	0.630980
W221	W22	0.720020	0.443640	0.357520
W231	W23	0.880750	0.269960	0.479850
W241	W24	0.423300	0.687700	0.890160
W251	W25	0.279980	0.556360	0.642480
W261	W26	0.239880	0.037360	0.626100
W271	W27	0.921670	0.922750	0.749730
W281	W28	0.222420	0.888370	0.870610
W291	W29	0.567600	0.294560	0.360790
W301	W30	0.718660	0.450670	0.105850
C11	C1	0.818000	0.476000	0.748000
C21	C2	0.525300	0.904000	0.552000
C31	C3	0.109600	0.000700	0.047800
C41	C4	0.506000	0.181000	0.723100
C51	C5	0.353000	0.961000	0.276000
C61	C6	0.677100	0.930700	0.603000
C71	C7	0.415500	0.949700	0.326000
C81	C8	0.878300	0.685200	0.442300
C91	C9	0.118000	0.521700	0.301000
C101	C10	0.089300	0.470900	0.555000
C111	C11	0.003000	0.397100	0.629000
C121	C12	0.051000	0.319700	0.605100
C131	C13	0.508600	0.125000	0.675100
C141	C14	0.593800	0.983700	0.626200
C151	C15	0.121700	0.314800	0.557700
C161	C16	0.684300	0.870800	0.562000
C171	C17	0.039000	0.974000	0.024600
C181	C18	0.491400	0.875000	0.324900
C191	C19	0.647000	0.039000	0.724000
C201	C20	0.933900	0.400300	0.677000
C211	C21	0.518900	0.969000	0.597200
C221	C22	0.977100	0.526100	0.398400
C231	C23	0.910700	0.529100	0.445000
C241	C24	0.168000	0.949700	0.090400
C251	C25	0.949000	0.680300	0.394900
C261	C26	0.907000	0.161000	0.900400
C271	C27	0.973000	0.111000	0.948200
C281	C28	0.890400	0.999300	0.952200
C291	C29	0.080100	0.677000	0.293500
C301	C30	0.182000	0.524000	0.252000
C311	C31	0.882000	0.478300	0.699000
C321	C32	0.315700	0.129200	0.438000
C331	C33	0.961000	0.026000	0.975400
C341	C34	0.832000	0.050300	0.909600
C351	C35	0.853000	0.320900	0.754100
C361	C36	0.997000	0.602900	0.371000
C371	C37	0.584500	0.050300	0.674000
C381	C38	0.642000	0.099000	0.769000
C391	C39	0.494000	0.819000	0.276900
C401	C40	0.027000	0.889000	0.051800
C411	C41	0.022900	0.473900	0.601600
C421	C42	0.481100	0.031000	0.402800
C431	C43	0.322900	0.069300	0.397000
C441	C44	0.147000	0.679100	0.245900
C451	C45	0.093000	0.839000	0.099600
C461	C46	0.358000	0.901000	0.231000
C471	C47	0.406200	0.016300	0.373800
C481	C48	0.474700	0.096000	0.448000
C491	C49	0.066100	0.599700	0.323000
C501	C50	0.919900	0.323000	0.706500
N11	N1	0.160600	0.868000	0.117300
N21	N2	0.195900	0.596800	0.224900
N31	N3	0.392900	0.144400	0.464700
N41	N4	0.804100	0.403200	0.775100
N51	N5	0.607100	0.855600	0.535300
N61	N6	0.839400	0.132000	0.882700
N71	N7	0.566000	0.164200	0.770900
N81	N8	0.136000	0.392200	0.536300
N91	N9	0.864000	0.607800	0.463700
N101	N10	0.434000	0.835800	0.229100
O11	O1	0.060000	0.189000	0.291000
O21	O2	0.190400	0.651700	0.909700
O31	O3	0.044600	0.647000	0.689500
O41	O4	0.818500	0.086000	0.387000
O51	O5	0.211900	0.528400	0.825300
O61	O6	0.302500	0.974600	0.553200
O71	O7	0.963800	0.016200	0.786800
O81	O8	0.631700	0.494300	0.280300
O91	O9	0.850700	0.900700	0.428500
O101	O10	0.612900	0.797900	0.488400
O111	O11	0.942700	0.073500	0.302700
O121	O12	0.869700	0.992800	0.677800
O131	O13	0.940000	0.811000	0.709000
O141	O14	0.192500	0.631300	0.587100
O151	O15	0.020900	0.693100	0.557400
O161	O16	0.368300	0.505700	0.719700
O171	O17	0.646000	0.389200	0.065100
O181	O18	0.130300	0.007200	0.322200
O191	O19	0.993600	0.116100	0.675200
O201	O20	0.006400	0.883900	0.324800
O211	O21	0.541600	0.433200	0.781200
O221	O22	0.359000	0.631400	0.624800
O231	O23	0.496500	0.590700	0.841400
O241	O24	0.011500	0.842800	0.820400
O251	O25	0.168700	0.948300	0.470800
O261	O26	0.196000	0.510600	0.695100
O271	O27	0.036200	0.983800	0.213200
O281	O28	0.200000	0.779300	0.801000
O291	O29	0.788100	0.471600	0.174700
O301	O30	0.859200	0.170900	0.081600
O311	O31	0.018200	0.975700	0.573100
O321	O32	0.979100	0.306900	0.442600
O331	O33	0.809600	0.348300	0.090300
O341	O34	0.981800	0.024300	0.426900
O351	O35	0.677900	0.238200	0.283200
O361	O36	0.320400	0.470900	0.591200
O371	O37	0.926400	0.333500	0.184900
O381	O38	0.641000	0.368600	0.375200
O391	O39	0.748500	0.404100	0.829000
O401	O40	0.988500	0.157200	0.179600
O411	O41	0.149300	0.099300	0.571500
O421	O42	0.478500	0.783900	0.690500
O431	O43	0.800000	0.220700	0.199000
O441	O44	0.784500	0.339200	0.277400
O451	O45	0.339100	0.939500	0.681500
O461	O46	0.523200	0.388700	0.283600
O471	O47	0.776500	0.183800	0.840700
O481	O48	0.223500	0.816200	0.159300
O491	O49	0.331300	0.645500	0.813000
O501	O50	0.052300	0.833200	0.473000
O511	O51	0.476800	0.611300	0.716400
O521	O52	0.687600	0.099700	0.191100
O531	O53	0.824300	0.955500	0.295300
O541	O54	0.523900	0.666600	0.591200
O551	O55	0.175700	0.044500	0.704700
O561	O56	0.312400	0.900300	0.808900
O571	O57	0.552800	0.240100	0.184200
O581	O58	0.476100	0.333400	0.408800
O591	O59	0.387100	0.202100	0.511600
O601	O60	0.521500	0.216100	0.309500
O611	O61	0.503500	0.409300	0.158600
O621	O62	0.140800	0.829100	0.918400
O631	O63	0.199000	0.390700	0.491100
O641	O64	0.697500	0.025400	0.446800
O651	O65	0.681500	0.222300	0.091500
O661	O66	0.923200	0.189100	0.384800
O671	O67	0.831300	0.051700	0.529200
O681	O68	0.443300	0.780800	0.184000
O691	O69	0.668700	0.354500	0.187000
O701	O70	0.380700	0.477900	0.843700
O711	O71	0.322100	0.761800	0.716800
O721	O72	0.251500	0.595900	0.171000
O731	O73	0.807500	0.368700	0.412900
O741	O74	0.215500	0.660800	0.722600
O751	O75	0.804000	0.489400	0.304900
O761	O76	0.104300	0.154200	0.422400
O771	O77	0.447200	0.759900	0.815800
O781	O78	0.801000	0.609300	0.508900
O791	O79	0.636600	0.203100	0.415000
O801	O80	0.219500	0.776900	0.524500
O811	O81	0.181500	0.914000	0.613000
O821	O82	0.619300	0.522100	0.156300
O831	O83	0.057300	0.926500	0.697300
O841	O84	0.679600	0.529100	0.408800
O851	O85	0.780500	0.223100	0.475500
O861	O86	0.363400	0.796900	0.585000
O871	O87	0.076800	0.810900	0.615200
O881	O88	0.660900	0.060500	0.318500
O891	O89	0.556700	0.219200	0.816000
O901	O90	0.073600	0.666500	0.815100
O911	O91	0.318500	0.777700	0.908500
O921	O92	0.354000	0.610800	0.934900
O931	O93	0.458400	0.566800	0.218800
O941	O94	0.895700	0.845800	0.577600
O951	O95	0.863600	0.033800	0.181000
O961	O96	0.136400	0.966200	0.819000
O971	O97	0.955400	0.353000	0.310500
O981	O98	0.947700	0.166800	0.527000
