data_NIJTOR_clean_PM
_symmetry_space_group_name_H-M	'P1'
_cell_length_a	11.196000
_cell_length_b	13.020000
_cell_length_c	16.520000
_cell_angle_alpha	84.072000
_cell_angle_beta	85.182000
_cell_angle_gamma	79.138000
_symmetry_Int_Tables_number 1

loop_
_symmetry_equiv_pos_as_xyz
'x,y,z'

loop_
_atom_site_label
_atom_site_type_symbol
_atom_site_fract_x
_atom_site_fract_y
_atom_site_fract_z
Co11	Co1	0.250040	0.079190	0.481570
Co21	Co2	0.346650	0.142080	0.674490
N11	N1	0.487400	0.198540	0.726280
N21	N2	0.647000	0.275560	0.728420
N31	N3	0.208400	0.761200	0.514400
N41	N4	0.265400	0.915900	0.487020
N51	N5	0.201600	0.228000	0.741230
N61	N6	0.041000	0.264890	0.827180
N71	N7	0.358100	0.155720	0.233440
N81	N8	0.271900	0.112100	0.353740
O11	O1	0.460800	0.593280	0.228750
O21	O2	0.324300	0.502570	0.195590
O31	O3	0.350910	0.268900	0.583600
O41	O4	0.218780	0.241680	0.495510
O51	O5	0.061740	0.095620	0.469040
O61	O6	0.994100	0.101080	0.600430
O71	O7	0.437490	0.076280	0.477770
O81	O8	0.486700	0.052480	0.607850
C11	C1	0.391700	0.526900	0.244580
C21	C2	0.392100	0.472700	0.328690
C31	C3	0.464300	0.480700	0.389700
H11	H1	0.522000	0.524100	0.384800
C41	C4	0.441400	0.415700	0.460800
H21	H2	0.485100	0.409200	0.507100
C51	C5	0.348600	0.363400	0.454620
C61	C6	0.302400	0.285000	0.516040
C71	C7	0.978800	0.102000	0.525440
C81	C8	0.851700	0.106800	0.502390
C91	C9	0.808100	0.122700	0.426700
H31	H3	0.854900	0.136900	0.379000
C101	C10	0.682300	0.115100	0.428850
H41	H4	0.637800	0.125000	0.382700
C111	C11	0.634500	0.091900	0.505610
C121	C12	0.509400	0.072300	0.532480
C131	C13	0.569200	0.138700	0.779230
H51	H5	0.557600	0.076400	0.809100
C141	C14	0.538400	0.279300	0.697540
H61	H6	0.503500	0.332700	0.660300
C151	C15	0.668200	0.184200	0.780940
H71	H7	0.736100	0.159500	0.810900
C161	C16	0.732300	0.344200	0.703710
C171	C17	0.847500	0.300900	0.671060
H81	H8	0.869500	0.228700	0.668700
C181	C18	0.929300	0.366500	0.642050
H91	H9	0.005700	0.338000	0.619500
C191	C19	0.897500	0.475500	0.646530
C201	C20	0.783000	0.516000	0.682400
H101	H10	0.761700	0.587700	0.687400
C211	C21	0.700400	0.451000	0.710850
H111	H11	0.624400	0.479000	0.734400
C221	C22	0.982900	0.547100	0.613040
C231	C23	0.057100	0.527800	0.541600
H121	H12	0.056400	0.467700	0.515800
C241	C24	0.131800	0.597800	0.509100
H131	H13	0.179200	0.585400	0.460900
C251	C25	0.135700	0.686400	0.548350
C261	C26	0.066700	0.704000	0.620780
H141	H14	0.071900	0.761300	0.648700
C271	C27	0.990300	0.635600	0.651020
H151	H15	0.941800	0.649300	0.698600
C281	C28	0.310800	0.747400	0.459700
H161	H16	0.348800	0.685200	0.438400
C291	C29	0.343700	0.842700	0.443900
H171	H17	0.409500	0.856800	0.409100
C301	C30	0.186100	0.863200	0.528550
H181	H18	0.122500	0.893200	0.563400
C311	C31	0.111100	0.191200	0.783610
H191	H19	0.097400	0.123000	0.783400
C321	C32	0.189400	0.330500	0.759220
H201	H20	0.241200	0.376400	0.738400
C331	C33	0.090800	0.354600	0.811700
H211	H21	0.062400	0.418800	0.833100
C341	C34	0.935800	0.250500	0.880150
C351	C35	0.925100	0.150800	0.915310
H221	H22	0.985100	0.093300	0.903900
C361	C36	0.824800	0.137600	0.967360
H231	H23	0.817000	0.070300	0.989300
C371	C37	0.735000	0.222400	0.988030
C381	C38	0.747500	0.320900	0.951290
H241	H24	0.687700	0.378500	0.962600
C391	C39	0.846500	0.335700	0.898240
H251	H25	0.853000	0.402600	0.874800
C401	C40	0.632900	0.205400	0.048860
C411	C41	0.601100	0.106100	0.066780
H261	H26	0.640700	0.050500	0.037700
C421	C42	0.511300	0.089400	0.127160
H271	H27	0.491300	0.023000	0.138200
C431	C43	0.451300	0.170800	0.171050
C441	C44	0.475600	0.270500	0.151500
H281	H28	0.431500	0.326500	0.178200
C451	C45	0.567300	0.286800	0.091300
H291	H29	0.584900	0.354000	0.079400
C461	C46	0.234500	0.198200	0.231500
H301	H30	0.195100	0.238400	0.188400
C471	C47	0.183200	0.168700	0.305850
H311	H31	0.100700	0.184500	0.321800
C481	C48	0.374900	0.105800	0.308040
H321	H32	0.450000	0.070900	0.325300
S11	S1	0.291780	0.388180	0.359620
S21	S2	0.740600	0.082560	0.577080
Co31	Co3	0.357830	0.636290	0.934920
Co41	Co4	0.445000	0.717350	0.135980
N91	N9	0.376400	0.635430	0.807010
N101	N10	0.448900	0.659040	0.680060
N111	N11	0.123200	0.819070	0.285830
N121	N12	0.289500	0.792840	0.203220
N131	N13	0.572000	0.781600	0.191500
N141	N14	0.719200	0.868320	0.206380
N151	N15	0.298100	0.324900	0.974360
N161	N16	0.372700	0.471110	0.950110
O91	O9	0.543330	0.630480	0.934450
O101	O10	0.589240	0.638270	0.064250
O111	O11	0.093700	0.668300	0.055140
O121	O12	0.170100	0.647500	0.926920
O131	O13	0.326190	0.645660	0.067390
H331	H33	0.328000	0.574500	0.092100
H341	H34	0.243700	0.683400	0.077100
C491	C49	0.454000	0.679600	0.757960
H351	H35	0.506000	0.720000	0.774700
C501	C50	0.316300	0.584300	0.757640
H361	H36	0.255400	0.546100	0.775800
C511	C51	0.360200	0.598700	0.679020
H371	H37	0.335500	0.573100	0.633800
C521	C52	0.531000	0.687700	0.613360
C531	C53	0.580300	0.617500	0.558030
H381	H38	0.552000	0.554700	0.558500
C541	C54	0.672900	0.640200	0.500940
H391	H39	0.705400	0.592400	0.463200
C551	C55	0.717600	0.733700	0.499570
C561	C56	0.660100	0.805600	0.553200
H401	H40	0.685000	0.870100	0.551600
C571	C57	0.566200	0.783900	0.609200
H411	H41	0.527600	0.834100	0.643500
C581	C58	0.824000	0.754800	0.443700
C591	C59	0.875200	0.688600	0.384900
H421	H42	0.844000	0.628000	0.381300
C601	C60	0.971700	0.709200	0.331000
H431	H43	0.002400	0.664600	0.290700
C611	C61	0.021500	0.797500	0.338230
C621	C62	0.972300	0.865400	0.396720
H441	H44	0.004500	0.925200	0.401600
C631	C63	0.874100	0.842500	0.447700
H451	H45	0.840700	0.888600	0.486400
C641	C64	0.200900	0.750600	0.242080
H461	H46	0.192700	0.681300	0.239600
C651	C65	0.268000	0.895800	0.223510
H471	H47	0.316200	0.945500	0.205400
C661	C66	0.166300	0.912200	0.273500
H481	H48	0.131600	0.974700	0.295600
C671	C67	0.615100	0.631300	0.990210
C681	C68	0.746800	0.624200	0.962750
C691	C69	0.965800	0.632700	0.960340
C701	C70	0.085600	0.650900	0.982430
C711	C71	0.929300	0.623500	0.884910
H491	H49	0.981500	0.620500	0.838000
C721	C72	0.803400	0.618900	0.885580
H501	H50	0.764000	0.613000	0.839400
C731	C73	0.572000	0.800700	0.272070
H511	H51	0.518800	0.779100	0.313900
C741	C74	0.661700	0.824000	0.153490
H521	H52	0.682900	0.823600	0.097900
C751	C75	0.660900	0.855300	0.281470
H531	H53	0.678500	0.879200	0.329500
C761	C76	0.816400	0.925500	0.182360
C771	C77	0.908700	0.886900	0.125800
H541	H54	0.912900	0.820600	0.108200
C781	C78	0.994500	0.948100	0.095880
H551	H55	0.055500	0.923100	0.057300
C791	C79	0.990000	0.047100	0.123150
C801	C80	0.900900	0.081300	0.185000
H561	H56	0.899900	0.144900	0.206300
C811	C81	0.815400	0.020500	0.214080
H571	H57	0.757000	0.043200	0.255000
C821	C82	0.071900	0.117600	0.084810
C831	C83	0.188100	0.080100	0.051700
H581	H58	0.216400	0.008000	0.054800
C841	C84	0.263100	0.146400	0.014260
H591	H59	0.340500	0.119400	0.992400
C851	C85	0.220700	0.254200	0.009800
C861	C86	0.103000	0.295400	0.038690
H601	H60	0.073400	0.367300	0.032400
C871	C87	0.030000	0.226300	0.077410
H611	H61	0.952100	0.253100	0.098700
C881	C88	0.391700	0.308400	0.914430
H621	H62	0.418700	0.247200	0.888700
C891	C89	0.436300	0.398000	0.900420
H631	H63	0.500300	0.408900	0.862900
C901	C90	0.290800	0.424900	0.994580
H641	H64	0.235800	0.456200	0.034100
S31	S3	0.847280	0.635300	0.033240
