data_NIKJOH_clean_PM
_symmetry_space_group_name_H-M	'P1'
_cell_length_a	16.159600
_cell_length_b	16.159600
_cell_length_c	31.232700
_cell_angle_alpha	99.955000
_cell_angle_beta	99.955000
_cell_angle_gamma	96.314400
_symmetry_Int_Tables_number 1

loop_
_symmetry_equiv_pos_as_xyz
'x,y,z'

loop_
_atom_site_label
_atom_site_type_symbol
_atom_site_fract_x
_atom_site_fract_y
_atom_site_fract_z
Sm11	Sm1	0.315210	0.856020	0.800730
Sm21	Sm2	0.137280	0.517440	0.586870
Sm31	Sm3	0.143980	0.684790	0.699270
Sm41	Sm4	0.482560	0.862720	0.913130
Sm51	Sm5	0.684790	0.143980	0.199270
Sm61	Sm6	0.862720	0.482560	0.413130
Sm71	Sm7	0.856020	0.315210	0.300730
Sm81	Sm8	0.517440	0.137280	0.086870
H11	H1	0.521000	0.129200	0.430600
H21	H2	0.435600	0.182800	0.484200
H31	H3	0.486300	0.220900	0.663500
H41	H4	0.547900	0.136100	0.715700
H51	H5	0.702000	0.854800	0.694200
H61	H6	0.790500	0.802500	0.640900
H71	H7	0.867700	0.894900	0.494600
H81	H8	0.801200	0.974800	0.440800
H91	H9	0.610400	0.062000	0.545800
H101	H10	0.671700	0.986300	0.595100
H111	H11	0.499800	0.312400	0.547300
H121	H12	0.403500	0.411900	0.551300
H131	H13	0.257900	0.256700	0.607300
H141	H14	0.352800	0.158000	0.601300
H151	H15	0.533100	0.863100	0.691300
H161	H16	0.497000	0.831000	0.756000
H171	H17	0.640100	0.052100	0.824800
H181	H18	0.673800	0.084400	0.759400
H191	H19	0.950100	0.916100	0.609800
H201	H20	0.044500	0.818700	0.622100
H211	H21	0.874600	0.629800	0.542400
H221	H22	0.780900	0.725500	0.529000
H231	H23	0.775400	0.163400	0.446900
H241	H24	0.790400	0.201000	0.379900
H251	H25	0.591700	0.020700	0.316200
H261	H26	0.577700	0.983700	0.383400
H271	H27	0.905300	0.081100	0.834600
H281	H28	0.818500	0.140900	0.887000
H291	H29	0.591400	0.355600	0.886100
H301	H30	0.536000	0.445800	0.833100
H311	H31	0.027900	0.135500	0.799600
H321	H32	0.127000	0.041800	0.798300
H331	H33	0.585400	0.148000	0.871500
H341	H34	0.551100	0.123900	0.938200
H351	H35	0.746600	0.296600	0.004500
H361	H36	0.784600	0.318600	0.938800
H371	H37	0.603600	0.578400	0.790800
H381	H38	0.503300	0.676100	0.790400
H391	H39	0.870800	0.479000	0.069400
H401	H40	0.817200	0.564400	0.015800
H411	H41	0.779100	0.513700	0.836500
H421	H42	0.863900	0.452100	0.784300
H431	H43	0.145200	0.298000	0.805800
H441	H44	0.197500	0.209500	0.859100
H451	H45	0.105100	0.132300	0.005400
H461	H46	0.025200	0.198800	0.059200
H471	H47	0.938000	0.389600	0.954200
H481	H48	0.013700	0.328300	0.904900
H491	H49	0.687600	0.500200	0.952700
H501	H50	0.588100	0.596500	0.948700
H511	H51	0.743300	0.742100	0.892700
H521	H52	0.842000	0.647200	0.898700
H531	H53	0.136900	0.466900	0.808700
H541	H54	0.169000	0.503000	0.744000
H551	H55	0.947900	0.359900	0.675200
H561	H56	0.915600	0.326200	0.740600
H571	H57	0.083900	0.049900	0.890200
H581	H58	0.181300	0.955500	0.877900
H591	H59	0.370200	0.125400	0.957600
H601	H60	0.274500	0.219100	0.971000
H611	H61	0.836600	0.224600	0.053100
H621	H62	0.799000	0.209600	0.120100
H631	H63	0.979300	0.408300	0.183800
H641	H64	0.016300	0.422300	0.116600
H651	H65	0.918900	0.094700	0.665400
H661	H66	0.859100	0.181500	0.613000
H671	H67	0.644400	0.408600	0.613900
H681	H68	0.554200	0.464000	0.666900
H691	H69	0.864500	0.972100	0.700400
H701	H70	0.958200	0.873000	0.701700
H711	H71	0.852000	0.414600	0.628500
H721	H72	0.876100	0.448900	0.561800
H731	H73	0.703400	0.253400	0.495500
H741	H74	0.681400	0.215400	0.561200
H751	H75	0.421600	0.396400	0.709200
H761	H76	0.323900	0.496700	0.709600
H771	H77	0.479000	0.870800	0.569400
H781	H78	0.564400	0.817200	0.515800
H791	H79	0.513700	0.779100	0.336500
H801	H80	0.452100	0.863900	0.284300
H811	H81	0.298000	0.145200	0.305800
H821	H82	0.209500	0.197500	0.359100
H831	H83	0.132300	0.105100	0.505400
H841	H84	0.198800	0.025200	0.559200
H851	H85	0.389600	0.938000	0.454200
H861	H86	0.328300	0.013700	0.404900
H871	H87	0.500200	0.687600	0.452700
H881	H88	0.596500	0.588100	0.448700
H891	H89	0.742100	0.743300	0.392700
H901	H90	0.647200	0.842000	0.398700
H911	H91	0.466900	0.136900	0.308700
H921	H92	0.503000	0.169000	0.244000
H931	H93	0.359900	0.947900	0.175200
H941	H94	0.326200	0.915600	0.240600
H951	H95	0.049900	0.083900	0.390200
H961	H96	0.955500	0.181300	0.377900
H971	H97	0.125400	0.370200	0.457600
H981	H98	0.219100	0.274500	0.471000
H991	H99	0.224600	0.836600	0.553100
H1001	H100	0.209600	0.799000	0.620100
H1011	H101	0.408300	0.979300	0.683800
H1021	H102	0.422300	0.016300	0.616600
H1031	H103	0.094700	0.918900	0.165400
H1041	H104	0.181500	0.859100	0.113000
H1051	H105	0.408600	0.644400	0.113900
H1061	H106	0.464000	0.554200	0.166900
H1071	H107	0.972100	0.864500	0.200400
H1081	H108	0.873000	0.958200	0.201700
H1091	H109	0.414600	0.852000	0.128500
H1101	H110	0.448900	0.876100	0.061800
H1111	H111	0.253400	0.703400	0.995500
H1121	H112	0.215400	0.681400	0.061200
H1131	H113	0.396400	0.421600	0.209200
H1141	H114	0.496700	0.323900	0.209600
H1151	H115	0.129200	0.521000	0.930600
H1161	H116	0.182800	0.435600	0.984200
H1171	H117	0.220900	0.486300	0.163500
H1181	H118	0.136100	0.547900	0.215700
H1191	H119	0.854800	0.702000	0.194200
H1201	H120	0.802500	0.790500	0.140900
H1211	H121	0.894900	0.867700	0.994600
H1221	H122	0.974800	0.801200	0.940800
H1231	H123	0.062000	0.610400	0.045800
H1241	H124	0.986300	0.671700	0.095100
H1251	H125	0.312400	0.499800	0.047300
H1261	H126	0.411900	0.403500	0.051300
H1271	H127	0.256700	0.257900	0.107300
H1281	H128	0.158000	0.352800	0.101300
H1291	H129	0.863100	0.533100	0.191300
H1301	H130	0.831000	0.497000	0.256000
H1311	H131	0.052100	0.640100	0.324800
H1321	H132	0.084400	0.673800	0.259400
H1331	H133	0.916100	0.950100	0.109800
H1341	H134	0.818700	0.044500	0.122100
H1351	H135	0.629800	0.874600	0.042400
H1361	H136	0.725500	0.780900	0.029000
H1371	H137	0.163400	0.775400	0.946900
H1381	H138	0.201000	0.790400	0.879900
H1391	H139	0.020700	0.591700	0.816200
H1401	H140	0.983700	0.577700	0.883400
H1411	H141	0.081100	0.905300	0.334600
H1421	H142	0.140900	0.818500	0.387000
H1431	H143	0.355600	0.591400	0.386100
H1441	H144	0.445800	0.536000	0.333100
H1451	H145	0.135500	0.027900	0.299600
H1461	H146	0.041800	0.127000	0.298300
H1471	H147	0.148000	0.585400	0.371500
H1481	H148	0.123900	0.551100	0.438200
H1491	H149	0.296600	0.746600	0.504500
H1501	H150	0.318600	0.784600	0.438800
H1511	H151	0.578400	0.603600	0.290800
H1521	H152	0.676100	0.503300	0.290400
C11	C1	0.592100	0.082500	0.483300
C21	C2	0.528900	0.123900	0.460900
C31	C3	0.483100	0.153700	0.490000
C41	C4	0.518600	0.133800	0.532100
C51	C5	0.498400	0.164600	0.573000
C61	C6	0.532300	0.141100	0.613100
C71	C7	0.516000	0.174400	0.656500
C81	C8	0.549600	0.128400	0.685000
C91	C9	0.588800	0.065200	0.660400
C101	C10	0.621800	0.997600	0.675190
C111	C11	0.668700	0.942500	0.652300
C121	C12	0.708400	0.875200	0.668070
C131	C13	0.756300	0.846300	0.638950
C141	C14	0.745200	0.895000	0.604110
C151	C15	0.787800	0.887400	0.568500
C161	C16	0.775400	0.930000	0.533100
C171	C17	0.820800	0.924600	0.497200
C181	C18	0.785300	0.968700	0.468100
C191	C19	0.717600	0.005400	0.486570
C201	C20	0.660300	0.051100	0.465580
C211	C21	0.435600	0.225800	0.575100
C221	C22	0.450700	0.301300	0.559400
C231	C23	0.393200	0.360600	0.561800
C241	C24	0.319500	0.343300	0.579900
C251	C25	0.306400	0.268600	0.594800
C261	C26	0.363900	0.209900	0.591600
C271	C27	0.255900	0.405100	0.583000
C281	C28	0.605500	0.977300	0.718610
C291	C29	0.553700	0.902100	0.718600
C301	C30	0.531800	0.882800	0.756700
C311	C31	0.562400	0.941600	0.796990
C321	C32	0.616700	0.014500	0.797400
C331	C33	0.637800	0.033400	0.758600
C341	C34	0.533000	0.926000	0.837860
C351	C35	0.854200	0.828800	0.570410
C361	C36	0.934000	0.857800	0.596700
C371	C37	0.990100	0.799500	0.603700
C381	C38	0.968700	0.715100	0.584540
C391	C39	0.889700	0.687900	0.556500
C401	C40	0.833800	0.744200	0.549000
C411	C41	0.026700	0.651700	0.594000
C421	C42	0.672400	0.070600	0.421770
C431	C43	0.737600	0.135200	0.420400
C441	C44	0.746500	0.157500	0.380600
C451	C45	0.691200	0.116200	0.341310
C461	C46	0.628600	0.050400	0.342700
C471	C47	0.620300	0.028700	0.382800
C481	C48	0.699500	0.141700	0.299200
C491	C49	0.845900	0.152300	0.789520
C501	C50	0.865800	0.119400	0.829400
C511	C51	0.818800	0.152400	0.858200
C521	C52	0.768800	0.208800	0.836980
C531	C53	0.708600	0.252200	0.854910
C541	C54	0.660900	0.307300	0.836010
C551	C55	0.604200	0.356600	0.857700
C561	C56	0.573100	0.405100	0.828100
C571	C57	0.605600	0.384200	0.788700
C581	C58	0.014400	0.082800	0.779100
C591	C59	0.073100	0.026900	0.779000
C601	C60	0.689900	0.236100	0.898800
C611	C61	0.619300	0.178300	0.898800
C621	C62	0.598200	0.164800	0.938500
C631	C63	0.645800	0.211000	0.978600
C641	C64	0.713000	0.265600	0.977300
C651	C65	0.736200	0.279000	0.938100
C661	C66	0.634000	0.211600	0.024700
C671	C67	0.547200	0.561400	0.774400
C681	C68	0.486800	0.619600	0.773900
C691	C69	0.917500	0.407900	0.016700
C701	C70	0.876100	0.471100	0.039100
C711	C71	0.846300	0.516900	0.010000
C721	C72	0.866200	0.481400	0.967900
C731	C73	0.835400	0.501600	0.927000
C741	C74	0.858900	0.467700	0.886900
C751	C75	0.825600	0.484000	0.843500
C761	C76	0.871600	0.450400	0.815000
C771	C77	0.934800	0.411200	0.839600
C781	C78	0.002400	0.378200	0.824810
C791	C79	0.057500	0.331300	0.847700
C801	C80	0.124800	0.291600	0.831930
C811	C81	0.153700	0.243700	0.861050
C821	C82	0.105000	0.254800	0.895890
C831	C83	0.112600	0.212200	0.931500
C841	C84	0.070000	0.224600	0.966900
C851	C85	0.075400	0.179200	0.002800
C861	C86	0.031300	0.214700	0.031900
C871	C87	0.994600	0.282400	0.013430
C881	C88	0.948900	0.339700	0.034420
C891	C89	0.774200	0.564400	0.924900
C901	C90	0.698700	0.549300	0.940600
C911	C91	0.639400	0.606800	0.938200
C921	C92	0.656700	0.680500	0.920100
C931	C93	0.731400	0.693600	0.905200
C941	C94	0.790100	0.636100	0.908400
C951	C95	0.594900	0.744100	0.917000
C961	C96	0.022700	0.394500	0.781390
C971	C97	0.097900	0.446300	0.781400
C981	C98	0.117200	0.468200	0.743300
C991	C99	0.058400	0.437600	0.703010
C1001	C100	0.985500	0.383300	0.702600
C1011	C101	0.966600	0.362200	0.741400
C1021	C102	0.074000	0.467000	0.662140
C1031	C103	0.171200	0.145800	0.929590
C1041	C104	0.142200	0.066000	0.903300
C1051	C105	0.200500	0.009900	0.896300
C1061	C106	0.284900	0.031300	0.915460
C1071	C107	0.312100	0.110300	0.943500
C1081	C108	0.255800	0.166200	0.951000
C1091	C109	0.348300	0.973300	0.906000
C1101	C110	0.929400	0.327600	0.078230
C1111	C111	0.864800	0.262400	0.079600
C1121	C112	0.842500	0.253500	0.119400
C1131	C113	0.883800	0.308800	0.158690
C1141	C114	0.949600	0.371400	0.157300
C1151	C115	0.971300	0.379700	0.117200
C1161	C116	0.858300	0.300500	0.200800
C1171	C117	0.847700	0.154100	0.710480
C1181	C118	0.880600	0.134200	0.670600
C1191	C119	0.847600	0.181200	0.641800
C1201	C120	0.791200	0.231200	0.663020
C1211	C121	0.747800	0.291400	0.645090
C1221	C122	0.692700	0.339100	0.663990
C1231	C123	0.643400	0.395800	0.642300
C1241	C124	0.594900	0.426900	0.671900
C1251	C125	0.615800	0.394400	0.711300
C1261	C126	0.917200	0.985600	0.720900
C1271	C127	0.973100	0.926900	0.721000
C1281	C128	0.763900	0.310100	0.601200
C1291	C129	0.821700	0.380700	0.601200
C1301	C130	0.835200	0.401800	0.561500
C1311	C131	0.789000	0.354200	0.521400
C1321	C132	0.734400	0.287000	0.522700
C1331	C133	0.721000	0.263800	0.561900
C1341	C134	0.788400	0.366000	0.475300
C1351	C135	0.438600	0.452800	0.725600
C1361	C136	0.380400	0.513200	0.726100
C1371	C137	0.407900	0.917500	0.516700
C1381	C138	0.471100	0.876100	0.539100
C1391	C139	0.516900	0.846300	0.510000
C1401	C140	0.481400	0.866200	0.467900
C1411	C141	0.501600	0.835400	0.427000
C1421	C142	0.467700	0.858900	0.386900
C1431	C143	0.484000	0.825600	0.343500
C1441	C144	0.450400	0.871600	0.315000
C1451	C145	0.411200	0.934800	0.339600
C1461	C146	0.378200	0.002400	0.324810
C1471	C147	0.331300	0.057500	0.347700
C1481	C148	0.291600	0.124800	0.331930
C1491	C149	0.243700	0.153700	0.361050
C1501	C150	0.254800	0.105000	0.395890
C1511	C151	0.212200	0.112600	0.431500
C1521	C152	0.224600	0.070000	0.466900
C1531	C153	0.179200	0.075400	0.502800
C1541	C154	0.214700	0.031300	0.531900
C1551	C155	0.282400	0.994600	0.513430
C1561	C156	0.339700	0.948900	0.534420
C1571	C157	0.564400	0.774200	0.424900
C1581	C158	0.549300	0.698700	0.440600
C1591	C159	0.606800	0.639400	0.438200
C1601	C160	0.680500	0.656700	0.420100
C1611	C161	0.693600	0.731400	0.405200
C1621	C162	0.636100	0.790100	0.408400
C1631	C163	0.744100	0.594900	0.417000
C1641	C164	0.394500	0.022700	0.281390
C1651	C165	0.446300	0.097900	0.281400
C1661	C166	0.468200	0.117200	0.243300
C1671	C167	0.437600	0.058400	0.203010
C1681	C168	0.383300	0.985500	0.202600
C1691	C169	0.362200	0.966600	0.241400
C1701	C170	0.467000	0.074000	0.162140
C1711	C171	0.145800	0.171200	0.429590
C1721	C172	0.066000	0.142200	0.403300
C1731	C173	0.009900	0.200500	0.396300
C1741	C174	0.031300	0.284900	0.415460
C1751	C175	0.110300	0.312100	0.443500
C1761	C176	0.166200	0.255800	0.451000
C1771	C177	0.973300	0.348300	0.406000
C1781	C178	0.327600	0.929400	0.578230
C1791	C179	0.262400	0.864800	0.579600
C1801	C180	0.253500	0.842500	0.619400
C1811	C181	0.308800	0.883800	0.658690
C1821	C182	0.371400	0.949600	0.657300
C1831	C183	0.379700	0.971300	0.617200
C1841	C184	0.300500	0.858300	0.700800
C1851	C185	0.154100	0.847700	0.210480
C1861	C186	0.134200	0.880600	0.170600
C1871	C187	0.181200	0.847600	0.141800
C1881	C188	0.231200	0.791200	0.163020
C1891	C189	0.291400	0.747800	0.145090
C1901	C190	0.339100	0.692700	0.163990
C1911	C191	0.395800	0.643400	0.142300
C1921	C192	0.426900	0.594900	0.171900
C1931	C193	0.394400	0.615800	0.211300
C1941	C194	0.985600	0.917200	0.220900
C1951	C195	0.926900	0.973100	0.221000
C1961	C196	0.310100	0.763900	0.101200
C1971	C197	0.380700	0.821700	0.101200
C1981	C198	0.401800	0.835200	0.061500
C1991	C199	0.354200	0.789000	0.021400
C2001	C200	0.287000	0.734400	0.022700
C2011	C201	0.263800	0.721000	0.061900
C2021	C202	0.366000	0.788400	0.975300
C2031	C203	0.452800	0.438600	0.225600
C2041	C204	0.513200	0.380400	0.226100
C2051	C205	0.082500	0.592100	0.983300
C2061	C206	0.123900	0.528900	0.960900
C2071	C207	0.153700	0.483100	0.990000
C2081	C208	0.133800	0.518600	0.032100
C2091	C209	0.164600	0.498400	0.073000
C2101	C210	0.141100	0.532300	0.113100
C2111	C211	0.174400	0.516000	0.156500
C2121	C212	0.128400	0.549600	0.185000
C2131	C213	0.065200	0.588800	0.160400
C2141	C214	0.997600	0.621800	0.175190
C2151	C215	0.942500	0.668700	0.152300
C2161	C216	0.875200	0.708400	0.168070
C2171	C217	0.846300	0.756300	0.138950
C2181	C218	0.895000	0.745200	0.104110
C2191	C219	0.887400	0.787800	0.068500
C2201	C220	0.930000	0.775400	0.033100
C2211	C221	0.924600	0.820800	0.997200
C2221	C222	0.968700	0.785300	0.968100
C2231	C223	0.005400	0.717600	0.986570
C2241	C224	0.051100	0.660300	0.965580
C2251	C225	0.225800	0.435600	0.075100
C2261	C226	0.301300	0.450700	0.059400
C2271	C227	0.360600	0.393200	0.061800
C2281	C228	0.343300	0.319500	0.079900
C2291	C229	0.268600	0.306400	0.094800
C2301	C230	0.209900	0.363900	0.091600
C2311	C231	0.405100	0.255900	0.083000
C2321	C232	0.977300	0.605500	0.218610
C2331	C233	0.902100	0.553700	0.218600
C2341	C234	0.882800	0.531800	0.256700
C2351	C235	0.941600	0.562400	0.296990
C2361	C236	0.014500	0.616700	0.297400
C2371	C237	0.033400	0.637800	0.258600
C2381	C238	0.926000	0.533000	0.337860
C2391	C239	0.828800	0.854200	0.070410
C2401	C240	0.857800	0.934000	0.096700
C2411	C241	0.799500	0.990100	0.103700
C2421	C242	0.715100	0.968700	0.084540
C2431	C243	0.687900	0.889700	0.056500
C2441	C244	0.744200	0.833800	0.049000
C2451	C245	0.651700	0.026700	0.094000
C2461	C246	0.070600	0.672400	0.921770
C2471	C247	0.135200	0.737600	0.920400
C2481	C248	0.157500	0.746500	0.880600
C2491	C249	0.116200	0.691200	0.841310
C2501	C250	0.050400	0.628600	0.842700
C2511	C251	0.028700	0.620300	0.882800
C2521	C252	0.141700	0.699500	0.799200
C2531	C253	0.152300	0.845900	0.289520
C2541	C254	0.119400	0.865800	0.329400
C2551	C255	0.152400	0.818800	0.358200
C2561	C256	0.208800	0.768800	0.336980
C2571	C257	0.252200	0.708600	0.354910
C2581	C258	0.307300	0.660900	0.336010
C2591	C259	0.356600	0.604200	0.357700
C2601	C260	0.405100	0.573100	0.328100
C2611	C261	0.384200	0.605600	0.288700
C2621	C262	0.082800	0.014400	0.279100
C2631	C263	0.026900	0.073100	0.279000
C2641	C264	0.236100	0.689900	0.398800
C2651	C265	0.178300	0.619300	0.398800
C2661	C266	0.164800	0.598200	0.438500
C2671	C267	0.211000	0.645800	0.478600
C2681	C268	0.265600	0.713000	0.477300
C2691	C269	0.279000	0.736200	0.438100
C2701	C270	0.211600	0.634000	0.524700
C2711	C271	0.561400	0.547200	0.274400
C2721	C272	0.619600	0.486800	0.273900
C2731	C273	0.584100	0.415900	0.750000
C2741	C274	0.873800	0.126200	0.750000
C2751	C275	0.935700	0.064300	0.750000
C2761	C276	0.052500	0.947500	0.750000
C2771	C277	0.114800	0.885200	0.750000
C2781	C278	0.521300	0.478700	0.750000
C2791	C279	0.404700	0.595300	0.750000
C2801	C280	0.343200	0.656800	0.750000
C2811	C281	0.415900	0.584100	0.250000
C2821	C282	0.126200	0.873800	0.250000
C2831	C283	0.064300	0.935700	0.250000
C2841	C284	0.947500	0.052500	0.250000
C2851	C285	0.885200	0.114800	0.250000
C2861	C286	0.478700	0.521300	0.250000
C2871	C287	0.595300	0.404700	0.250000
C2881	C288	0.656800	0.343200	0.250000
N11	N1	0.581760	0.086040	0.525960
N21	N2	0.582130	0.079270	0.617700
N31	N3	0.689980	0.951420	0.612060
N41	N4	0.715150	0.981650	0.526490
N51	N5	0.786920	0.208280	0.795670
N61	N6	0.658930	0.325270	0.794350
N71	N7	0.913960	0.418240	0.974040
N81	N8	0.920730	0.417870	0.882300
N91	N9	0.048580	0.310020	0.887940
N101	N10	0.018350	0.284850	0.973510
N111	N11	0.791720	0.213080	0.704330
N121	N12	0.674730	0.341070	0.705650
N131	N13	0.418240	0.913960	0.474040
N141	N14	0.417870	0.920730	0.382300
N151	N15	0.310020	0.048580	0.387940
N161	N16	0.284850	0.018350	0.473510
N171	N17	0.213080	0.791720	0.204330
N181	N18	0.341070	0.674730	0.205650
N191	N19	0.086040	0.581760	0.025960
N201	N20	0.079270	0.582130	0.117700
N211	N21	0.951420	0.689980	0.112060
N221	N22	0.981650	0.715150	0.026490
N231	N23	0.208280	0.786920	0.295670
N241	N24	0.325270	0.658930	0.294350
O11	O1	0.268100	0.470900	0.563800
O21	O2	0.200300	0.393900	0.605100
O31	O3	0.463870	0.873650	0.833510
O41	O4	0.572490	0.962510	0.875320
O51	O5	0.004660	0.577340	0.573850
O61	O6	0.096240	0.675960	0.621490
O71	O7	0.751310	0.205690	0.298730
O81	O8	0.651630	0.098970	0.264130
O91	O9	0.186820	0.908980	0.774660
O101	O10	0.668200	0.264400	0.057700
O111	O11	0.591300	0.150700	0.032000
O121	O12	0.369090	0.731810	0.771600
O131	O13	0.529100	0.731900	0.936200
O141	O14	0.606100	0.799700	0.894900
O151	O15	0.126350	0.536130	0.666490
O161	O16	0.037490	0.427510	0.624680
O171	O17	0.422660	0.995340	0.926150
O181	O18	0.324040	0.903760	0.878510
O191	O19	0.794310	0.248690	0.201270
O201	O20	0.901030	0.348370	0.235870
O211	O21	0.091020	0.813180	0.725340
O221	O22	0.735600	0.331800	0.442300
O231	O23	0.849300	0.408700	0.468000
O241	O24	0.268190	0.630910	0.728400
O251	O25	0.731900	0.529100	0.436200
O261	O26	0.799700	0.606100	0.394900
O271	O27	0.536130	0.126350	0.166490
O281	O28	0.427510	0.037490	0.124680
O291	O29	0.995340	0.422660	0.426150
O301	O30	0.903760	0.324040	0.378510
O311	O31	0.248690	0.794310	0.701270
O321	O32	0.348370	0.901030	0.735870
O331	O33	0.813180	0.091020	0.225340
O341	O34	0.331800	0.735600	0.942300
O351	O35	0.408700	0.849300	0.968000
O361	O36	0.630910	0.268190	0.228400
O371	O37	0.470900	0.268100	0.063800
O381	O38	0.393900	0.200300	0.105100
O391	O39	0.873650	0.463870	0.333510
O401	O40	0.962510	0.572490	0.375320
O411	O41	0.577340	0.004660	0.073850
O421	O42	0.675960	0.096240	0.121490
O431	O43	0.205690	0.751310	0.798730
O441	O44	0.098970	0.651630	0.764130
O451	O45	0.908980	0.186820	0.274660
O461	O46	0.264400	0.668200	0.557700
O471	O47	0.150700	0.591300	0.532000
O481	O48	0.731810	0.369090	0.271600
