data_NIKKIC_clean_PM
_symmetry_space_group_name_H-M	'P1'
_cell_length_a	8.517500
_cell_length_b	28.174500
_cell_length_c	21.421700
_cell_angle_alpha	90.000000
_cell_angle_beta	97.102600
_cell_angle_gamma	90.000000
_symmetry_Int_Tables_number 1

loop_
_symmetry_equiv_pos_as_xyz
'x,y,z'

loop_
_atom_site_label
_atom_site_type_symbol
_atom_site_fract_x
_atom_site_fract_y
_atom_site_fract_z
Er11	Er1	0.294970	0.058310	0.006440
C11	C1	0.696400	0.944650	0.525100
C21	C2	0.609700	0.916100	0.566100
H11	H1	0.588200	0.883000	0.562600
C31	C3	0.566300	0.945860	0.610200
H21	H2	0.507100	0.937600	0.643400
C41	C4	0.625200	0.992280	0.598000
C51	C5	0.614600	0.032800	0.636600
C61	C6	0.656200	0.078730	0.620100
C71	C7	0.659200	0.120530	0.658900
H31	H3	0.645300	0.121300	0.702200
C81	C8	0.685000	0.158100	0.623500
H41	H4	0.690700	0.190300	0.636700
C91	C9	0.702800	0.140160	0.560700
C101	C10	0.719100	0.168600	0.507800
C111	C11	0.752100	0.150690	0.449300
C121	C12	0.769900	0.179650	0.394700
H51	H5	0.752300	0.212900	0.390700
C131	C13	0.816400	0.150380	0.350600
H61	H6	0.835700	0.159300	0.309500
C141	C14	0.831500	0.103280	0.376800
C151	C15	0.885900	0.063000	0.347700
C161	C16	0.889400	0.016690	0.373000
C171	C17	0.959800	0.975400	0.347700
H71	H7	0.017200	0.975000	0.312400
C181	C18	0.929800	0.937600	0.383000
H81	H8	0.962500	0.905800	0.377300
C191	C19	0.838900	0.954580	0.430700
C201	C20	0.772300	0.926710	0.475200
N11	N1	0.697100	0.990620	0.544320
H91	H9	0.736500	0.014900	0.525600
N21	N2	0.689000	0.092210	0.561320
H101	H10	0.699200	0.073000	0.529600
N31	N3	0.787800	0.104810	0.436320
H111	H11	0.783500	0.080400	0.461700
N41	N4	0.821200	0.002970	0.424610
H121	H12	0.774400	0.021700	0.449500
C211	C21	0.566600	0.025600	0.700500
C221	C22	0.452700	0.054150	0.723400
H131	H13	0.395200	0.076300	0.696100
C231	C23	0.422100	0.050780	0.785100
H141	H14	0.347300	0.071400	0.800400
C241	C24	0.500800	0.017140	0.824600
C251	C25	0.605300	0.986400	0.801200
H151	H15	0.653300	0.961700	0.827000
C261	C26	0.640300	0.991500	0.740300
H161	H16	0.716500	0.971100	0.725400
C271	C27	0.476100	0.015100	0.892800
O11	O1	0.396000	0.046890	0.914060
O21	O2	0.538000	0.980770	0.925670
C281	C28	0.695900	0.220370	0.513800
C291	C29	0.555100	0.241100	0.481300
H171	H17	0.480700	0.222400	0.455400
C301	C30	0.530800	0.289500	0.488800
H181	H18	0.437800	0.303900	0.468000
C311	C31	0.639000	0.317100	0.526000
C321	C32	0.774100	0.297200	0.555800
H191	H19	0.850400	0.316500	0.579900
C331	C33	0.800100	0.248800	0.550800
H201	H20	0.891800	0.235000	0.573500
C341	C34	0.608100	0.370000	0.530100
O31	O3	0.722700	0.396030	0.549800
O41	O4	0.469000	0.384040	0.512100
C351	C35	0.937800	0.069250	0.284200
C361	C36	0.874500	0.041100	0.234400
H211	H21	0.793800	0.019000	0.240800
C371	C37	0.925200	0.044150	0.175500
H221	H22	0.881400	0.023900	0.142500
C381	C38	0.041400	0.077290	0.165100
C391	C39	0.103800	0.107080	0.213700
H231	H23	0.180100	0.130300	0.206300
C401	C40	0.054400	0.102890	0.273400
H241	H24	0.099500	0.122700	0.306700
C411	C41	0.112400	0.076650	0.104400
O51	O5	0.084900	0.041230	0.067640
O61	O6	0.212500	0.107330	0.092290
C421	C42	0.784500	0.873900	0.470300
C431	C43	0.853400	0.847300	0.522200
H251	H25	0.893300	0.863000	0.560100
C441	C44	0.863400	0.798300	0.518300
H261	H26	0.910700	0.780700	0.553500
C451	C45	0.804100	0.774600	0.462900
C461	C46	0.736300	0.800400	0.411900
H271	H27	0.696400	0.784600	0.374100
C471	C47	0.725900	0.849600	0.415600
H281	H28	0.678100	0.867000	0.380200
C481	C48	0.821200	0.721900	0.461200
O71	O7	0.870300	0.698410	0.506840
O81	O8	0.772800	0.703200	0.404940
H291	H29	0.787400	0.673700	0.406200
Er21	Er2	0.705030	0.558310	0.493560
C491	C49	0.303600	0.444650	0.974900
C501	C50	0.390300	0.416100	0.933900
H301	H30	0.411800	0.383000	0.937400
C511	C51	0.433700	0.445860	0.889800
H311	H31	0.492900	0.437600	0.856600
C521	C52	0.374800	0.492280	0.902000
C531	C53	0.385400	0.532800	0.863400
C541	C54	0.343800	0.578730	0.879900
C551	C55	0.340800	0.620530	0.841100
H321	H32	0.354700	0.621300	0.797800
C561	C56	0.315000	0.658100	0.876500
H331	H33	0.309300	0.690300	0.863300
C571	C57	0.297200	0.640160	0.939300
C581	C58	0.280900	0.668600	0.992200
C591	C59	0.247900	0.650690	0.050700
C601	C60	0.230100	0.679650	0.105300
H341	H34	0.247700	0.712900	0.109300
C611	C61	0.183600	0.650380	0.149400
H351	H35	0.164300	0.659300	0.190500
C621	C62	0.168500	0.603280	0.123200
C631	C63	0.114100	0.563000	0.152300
C641	C64	0.110600	0.516690	0.127000
C651	C65	0.040200	0.475400	0.152300
H361	H36	0.982800	0.475000	0.187600
C661	C66	0.070200	0.437600	0.117000
H371	H37	0.037500	0.405800	0.122700
C671	C67	0.161100	0.454580	0.069300
C681	C68	0.227700	0.426710	0.024800
N51	N5	0.302900	0.490620	0.955680
H381	H38	0.263500	0.514900	0.974400
N61	N6	0.311000	0.592210	0.938680
H391	H39	0.300800	0.573000	0.970400
N71	N7	0.212200	0.604810	0.063680
H401	H40	0.216500	0.580400	0.038300
N81	N8	0.178800	0.502970	0.075390
H411	H41	0.225600	0.521700	0.050500
C691	C69	0.433400	0.525600	0.799500
C701	C70	0.547300	0.554150	0.776600
H421	H42	0.604800	0.576300	0.803900
C711	C71	0.577900	0.550780	0.714900
H431	H43	0.652700	0.571400	0.699600
C721	C72	0.499200	0.517140	0.675400
C731	C73	0.394700	0.486400	0.698800
H441	H44	0.346700	0.461700	0.673000
C741	C74	0.359700	0.491500	0.759700
H451	H45	0.283500	0.471100	0.774600
C751	C75	0.523900	0.515100	0.607200
O91	O9	0.604000	0.546890	0.585940
O101	O10	0.462000	0.480770	0.574330
C761	C76	0.304100	0.720370	0.986200
C771	C77	0.444900	0.741100	0.018700
H461	H46	0.519300	0.722400	0.044600
C781	C78	0.469200	0.789500	0.011200
H471	H47	0.562200	0.803900	0.032000
C791	C79	0.361000	0.817100	0.974000
C801	C80	0.225900	0.797200	0.944200
H481	H48	0.149600	0.816500	0.920100
C811	C81	0.199900	0.748800	0.949200
H491	H49	0.108200	0.735000	0.926500
C821	C82	0.391900	0.870000	0.969900
O111	O11	0.277300	0.896030	0.950200
O121	O12	0.531000	0.884040	0.987900
C831	C83	0.062200	0.569250	0.215800
C841	C84	0.125500	0.541100	0.265600
H501	H50	0.206200	0.519000	0.259200
C851	C85	0.074800	0.544150	0.324500
H511	H51	0.118600	0.523900	0.357500
C861	C86	0.958600	0.577290	0.334900
C871	C87	0.896200	0.607080	0.286300
H521	H52	0.819900	0.630300	0.293700
C881	C88	0.945600	0.602890	0.226600
H531	H53	0.900500	0.622700	0.193300
C891	C89	0.887600	0.576650	0.395600
O131	O13	0.915100	0.541230	0.432360
O141	O14	0.787500	0.607330	0.407710
C901	C90	0.215500	0.373900	0.029700
C911	C91	0.146600	0.347300	0.977800
H541	H54	0.106700	0.363000	0.939900
C921	C92	0.136600	0.298300	0.981700
H551	H55	0.089300	0.280700	0.946500
C931	C93	0.195900	0.274600	0.037100
C941	C94	0.263700	0.300400	0.088100
H561	H56	0.303600	0.284600	0.125900
C951	C95	0.274100	0.349600	0.084400
H571	H57	0.321900	0.367000	0.119800
C961	C96	0.178800	0.221900	0.038800
O151	O15	0.129700	0.198410	0.993160
O161	O16	0.227200	0.203200	0.095060
H581	H58	0.212600	0.173700	0.093800
Er31	Er3	0.705030	0.941690	0.993560
C971	C97	0.303600	0.055350	0.474900
C981	C98	0.390300	0.083900	0.433900
H591	H59	0.411800	0.117000	0.437400
C991	C99	0.433700	0.054140	0.389800
H601	H60	0.492900	0.062400	0.356600
C1001	C100	0.374800	0.007720	0.402000
C1011	C101	0.385400	0.967200	0.363400
C1021	C102	0.343800	0.921270	0.379900
C1031	C103	0.340800	0.879470	0.341100
H611	H61	0.354700	0.878700	0.297800
C1041	C104	0.315000	0.841900	0.376500
H621	H62	0.309300	0.809700	0.363300
C1051	C105	0.297200	0.859840	0.439300
C1061	C106	0.280900	0.831400	0.492200
C1071	C107	0.247900	0.849310	0.550700
C1081	C108	0.230100	0.820350	0.605300
H631	H63	0.247700	0.787100	0.609300
C1091	C109	0.183600	0.849620	0.649400
H641	H64	0.164300	0.840700	0.690500
C1101	C110	0.168500	0.896720	0.623200
C1111	C111	0.114100	0.937000	0.652300
C1121	C112	0.110600	0.983310	0.627000
C1131	C113	0.040200	0.024600	0.652300
H651	H65	0.982800	0.025000	0.687600
C1141	C114	0.070200	0.062400	0.617000
H661	H66	0.037500	0.094200	0.622700
C1151	C115	0.161100	0.045420	0.569300
C1161	C116	0.227700	0.073290	0.524800
N91	N9	0.302900	0.009380	0.455680
H671	H67	0.263500	0.985100	0.474400
N101	N10	0.311000	0.907790	0.438680
H681	H68	0.300800	0.927000	0.470400
N111	N11	0.212200	0.895190	0.563680
H691	H69	0.216500	0.919600	0.538300
N121	N12	0.178800	0.997030	0.575390
H701	H70	0.225600	0.978300	0.550500
C1171	C117	0.433400	0.974400	0.299500
C1181	C118	0.547300	0.945850	0.276600
H711	H71	0.604800	0.923700	0.303900
C1191	C119	0.577900	0.949220	0.214900
H721	H72	0.652700	0.928600	0.199600
C1201	C120	0.499200	0.982860	0.175400
C1211	C121	0.394700	0.013600	0.198800
H731	H73	0.346700	0.038300	0.173000
C1221	C122	0.359700	0.008500	0.259700
H741	H74	0.283500	0.028900	0.274600
C1231	C123	0.523900	0.984900	0.107200
O171	O17	0.604000	0.953110	0.085940
O181	O18	0.462000	0.019230	0.074330
C1241	C124	0.304100	0.779630	0.486200
C1251	C125	0.444900	0.758900	0.518700
H751	H75	0.519300	0.777600	0.544600
C1261	C126	0.469200	0.710500	0.511200
H761	H76	0.562200	0.696100	0.532000
C1271	C127	0.361000	0.682900	0.474000
C1281	C128	0.225900	0.702800	0.444200
H771	H77	0.149600	0.683500	0.420100
C1291	C129	0.199900	0.751200	0.449200
H781	H78	0.108200	0.765000	0.426500
C1301	C130	0.391900	0.630000	0.469900
O191	O19	0.277300	0.603970	0.450200
O201	O20	0.531000	0.615960	0.487900
C1311	C131	0.062200	0.930750	0.715800
C1321	C132	0.125500	0.958900	0.765600
H791	H79	0.206200	0.981000	0.759200
C1331	C133	0.074800	0.955850	0.824500
H801	H80	0.118600	0.976100	0.857500
C1341	C134	0.958600	0.922710	0.834900
C1351	C135	0.896200	0.892920	0.786300
H811	H81	0.819900	0.869700	0.793700
C1361	C136	0.945600	0.897110	0.726600
H821	H82	0.900500	0.877300	0.693300
C1371	C137	0.887600	0.923350	0.895600
O211	O21	0.915100	0.958770	0.932360
O221	O22	0.787500	0.892670	0.907710
C1381	C138	0.215500	0.126100	0.529700
C1391	C139	0.146600	0.152700	0.477800
H831	H83	0.106700	0.137000	0.439900
C1401	C140	0.136600	0.201700	0.481700
H841	H84	0.089300	0.219300	0.446500
C1411	C141	0.195900	0.225400	0.537100
C1421	C142	0.263700	0.199600	0.588100
H851	H85	0.303600	0.215400	0.625900
C1431	C143	0.274100	0.150400	0.584400
H861	H86	0.321900	0.133000	0.619800
C1441	C144	0.178800	0.278100	0.538800
O231	O23	0.129700	0.301590	0.493160
O241	O24	0.227200	0.296800	0.595060
H871	H87	0.212600	0.326300	0.593800
Er41	Er4	0.294970	0.441690	0.506440
C1451	C145	0.696400	0.555350	0.025100
C1461	C146	0.609700	0.583900	0.066100
H881	H88	0.588200	0.617000	0.062600
C1471	C147	0.566300	0.554140	0.110200
H891	H89	0.507100	0.562400	0.143400
C1481	C148	0.625200	0.507720	0.098000
C1491	C149	0.614600	0.467200	0.136600
C1501	C150	0.656200	0.421270	0.120100
C1511	C151	0.659200	0.379470	0.158900
H901	H90	0.645300	0.378700	0.202200
C1521	C152	0.685000	0.341900	0.123500
H911	H91	0.690700	0.309700	0.136700
C1531	C153	0.702800	0.359840	0.060700
C1541	C154	0.719100	0.331400	0.007800
C1551	C155	0.752100	0.349310	0.949300
C1561	C156	0.769900	0.320350	0.894700
H921	H92	0.752300	0.287100	0.890700
C1571	C157	0.816400	0.349620	0.850600
H931	H93	0.835700	0.340700	0.809500
C1581	C158	0.831500	0.396720	0.876800
C1591	C159	0.885900	0.437000	0.847700
C1601	C160	0.889400	0.483310	0.873000
C1611	C161	0.959800	0.524600	0.847700
H941	H94	0.017200	0.525000	0.812400
C1621	C162	0.929800	0.562400	0.883000
H951	H95	0.962500	0.594200	0.877300
C1631	C163	0.838900	0.545420	0.930700
C1641	C164	0.772300	0.573290	0.975200
N131	N13	0.697100	0.509380	0.044320
H961	H96	0.736500	0.485100	0.025600
N141	N14	0.689000	0.407790	0.061320
H971	H97	0.699200	0.427000	0.029600
N151	N15	0.787800	0.395190	0.936320
H981	H98	0.783500	0.419600	0.961700
N161	N16	0.821200	0.497030	0.924610
H991	H99	0.774400	0.478300	0.949500
C1651	C165	0.566600	0.474400	0.200500
C1661	C166	0.452700	0.445850	0.223400
H1001	H100	0.395200	0.423700	0.196100
C1671	C167	0.422100	0.449220	0.285100
H1011	H101	0.347300	0.428600	0.300400
C1681	C168	0.500800	0.482860	0.324600
C1691	C169	0.605300	0.513600	0.301200
H1021	H102	0.653300	0.538300	0.327000
C1701	C170	0.640300	0.508500	0.240300
H1031	H103	0.716500	0.528900	0.225400
C1711	C171	0.476100	0.484900	0.392800
O251	O25	0.396000	0.453110	0.414060
O261	O26	0.538000	0.519230	0.425670
C1721	C172	0.695900	0.279630	0.013800
C1731	C173	0.555100	0.258900	0.981300
H1041	H104	0.480700	0.277600	0.955400
C1741	C174	0.530800	0.210500	0.988800
H1051	H105	0.437800	0.196100	0.968000
C1751	C175	0.639000	0.182900	0.026000
C1761	C176	0.774100	0.202800	0.055800
H1061	H106	0.850400	0.183500	0.079900
C1771	C177	0.800100	0.251200	0.050800
H1071	H107	0.891800	0.265000	0.073500
C1781	C178	0.608100	0.130000	0.030100
O271	O27	0.722700	0.103970	0.049800
O281	O28	0.469000	0.115960	0.012100
C1791	C179	0.937800	0.430750	0.784200
C1801	C180	0.874500	0.458900	0.734400
H1081	H108	0.793800	0.481000	0.740800
C1811	C181	0.925200	0.455850	0.675500
H1091	H109	0.881400	0.476100	0.642500
C1821	C182	0.041400	0.422710	0.665100
C1831	C183	0.103800	0.392920	0.713700
H1101	H110	0.180100	0.369700	0.706300
C1841	C184	0.054400	0.397110	0.773400
H1111	H111	0.099500	0.377300	0.806700
C1851	C185	0.112400	0.423350	0.604400
O291	O29	0.084900	0.458770	0.567640
O301	O30	0.212500	0.392670	0.592290
C1861	C186	0.784500	0.626100	0.970300
C1871	C187	0.853400	0.652700	0.022200
H1121	H112	0.893300	0.637000	0.060100
C1881	C188	0.863400	0.701700	0.018300
H1131	H113	0.910700	0.719300	0.053500
C1891	C189	0.804100	0.725400	0.962900
C1901	C190	0.736300	0.699600	0.911900
H1141	H114	0.696400	0.715400	0.874100
C1911	C191	0.725900	0.650400	0.915600
H1151	H115	0.678100	0.633000	0.880200
C1921	C192	0.821200	0.778100	0.961200
O311	O31	0.870300	0.801590	0.006840
O321	O32	0.772800	0.796800	0.904940
H1161	H116	0.787400	0.826300	0.906200
