data_NIKYOW_clean_PM
_symmetry_space_group_name_H-M	'P1'
_cell_length_a	9.847400
_cell_length_b	11.336900
_cell_length_c	14.450700
_cell_angle_alpha	91.141700
_cell_angle_beta	90.000000
_cell_angle_gamma	90.000000
_symmetry_Int_Tables_number 1

loop_
_symmetry_equiv_pos_as_xyz
'x,y,z'

loop_
_atom_site_label
_atom_site_type_symbol
_atom_site_fract_x
_atom_site_fract_y
_atom_site_fract_z
Fe11	Fe1	0.917820	0.755290	0.132350
Fe21	Fe2	0.896070	0.260950	0.685360
Fe31	Fe3	0.417820	0.744710	0.367650
Fe41	Fe4	0.396070	0.239050	0.814640
Fe51	Fe5	0.082180	0.244710	0.867650
Fe61	Fe6	0.103930	0.739050	0.314640
Fe71	Fe7	0.582180	0.255290	0.632350
Fe81	Fe8	0.603930	0.760950	0.185360
Fe91	Fe9	0.000000	0.500000	0.000000
Fe101	Fe10	0.500000	0.000000	0.500000
Fe111	Fe11	0.000000	0.000000	0.000000
Fe121	Fe12	0.500000	0.500000	0.500000
H11	H1	0.747200	0.860700	0.368400
H21	H2	0.022200	0.472900	0.269900
H31	H3	0.615000	0.557200	0.034100
H41	H4	0.172500	0.990500	0.242200
H51	H5	0.169700	0.698000	0.931500
H61	H6	0.698700	0.983400	0.996700
H71	H7	0.247200	0.639300	0.131600
H81	H8	0.522200	0.027100	0.230100
H91	H9	0.115000	0.942800	0.465900
H101	H10	0.672500	0.509500	0.257800
H111	H11	0.669700	0.802000	0.568500
H121	H12	0.198700	0.516600	0.503300
H131	H13	0.252800	0.139300	0.631600
H141	H14	0.977800	0.527100	0.730100
H151	H15	0.385000	0.442800	0.965900
H161	H16	0.827500	0.009500	0.757800
H171	H17	0.830300	0.302000	0.068500
H181	H18	0.301300	0.016600	0.003300
H191	H19	0.752800	0.360700	0.868400
H201	H20	0.477800	0.972900	0.769900
H211	H21	0.885000	0.057200	0.534100
H221	H22	0.327500	0.490500	0.742200
H231	H23	0.330300	0.198000	0.431500
H241	H24	0.801300	0.483400	0.496700
C11	C1	0.819700	0.829600	0.332000
C21	C2	0.005400	0.514200	0.214500
C31	C3	0.708500	0.574800	0.042900
C41	C4	0.119000	0.959500	0.192800
C51	C5	0.111500	0.743800	0.970500
C61	C6	0.714800	0.926900	0.043100
C71	C7	0.319700	0.670400	0.168000
C81	C8	0.505400	0.985800	0.285500
C91	C9	0.208500	0.925200	0.457100
C101	C10	0.619000	0.540500	0.307200
C111	C11	0.611500	0.756200	0.529500
C121	C12	0.214800	0.573100	0.456900
C131	C13	0.180300	0.170400	0.668000
C141	C14	0.994600	0.485800	0.785500
C151	C15	0.291500	0.425200	0.957100
C161	C16	0.881000	0.040500	0.807200
C171	C17	0.888500	0.256200	0.029500
C181	C18	0.285200	0.073100	0.956900
C191	C19	0.680300	0.329600	0.832000
C201	C20	0.494600	0.014200	0.714500
C211	C21	0.791500	0.074800	0.542900
C221	C22	0.381000	0.459500	0.692800
C231	C23	0.388500	0.243800	0.470500
C241	C24	0.785200	0.426900	0.543100
O11	O1	0.795250	0.809390	0.246290
O21	O2	0.928690	0.812660	0.372060
O31	O3	0.999550	0.625920	0.220920
O41	O4	0.991100	0.454170	0.142670
O51	O5	0.738090	0.651650	0.105050
O61	O6	0.790500	0.520830	0.992730
O71	O7	0.079550	0.852250	0.198850
O81	O8	0.093910	0.025890	0.128990
O91	O9	0.030070	0.687100	0.023100
O101	O10	0.121150	0.851160	0.965860
O111	O11	0.838300	0.895880	0.056880
O121	O12	0.614330	0.889080	0.085380
O131	O13	0.295250	0.690610	0.253710
O141	O14	0.428690	0.687340	0.127940
O151	O15	0.499550	0.874080	0.279080
O161	O16	0.491100	0.045830	0.357330
O171	O17	0.238090	0.848350	0.394950
O181	O18	0.290500	0.979170	0.507270
O191	O19	0.579550	0.647750	0.301150
O201	O20	0.593910	0.474110	0.371010
O211	O21	0.530070	0.812900	0.476900
O221	O22	0.621150	0.648840	0.534140
O231	O23	0.338300	0.604120	0.443120
O241	O24	0.114330	0.610920	0.414620
O251	O25	0.204750	0.190610	0.753710
O261	O26	0.071310	0.187340	0.627940
O271	O27	0.000450	0.374080	0.779080
O281	O28	0.008900	0.545830	0.857330
O291	O29	0.261910	0.348350	0.894950
O301	O30	0.209500	0.479170	0.007270
O311	O31	0.920450	0.147750	0.801150
O321	O32	0.906090	0.974110	0.871010
O331	O33	0.969930	0.312900	0.976900
O341	O34	0.878850	0.148840	0.034140
O351	O35	0.161700	0.104120	0.943120
O361	O36	0.385670	0.110920	0.914620
O371	O37	0.704750	0.309390	0.746290
O381	O38	0.571310	0.312660	0.872060
O391	O39	0.500450	0.125920	0.720920
O401	O40	0.508900	0.954170	0.642670
O411	O41	0.761910	0.151650	0.605050
O421	O42	0.709500	0.020830	0.492730
O431	O43	0.420450	0.352250	0.698850
O441	O44	0.406090	0.525890	0.628990
O451	O45	0.469930	0.187100	0.523100
O461	O46	0.378850	0.351160	0.465860
O471	O47	0.661700	0.395880	0.556880
O481	O48	0.885670	0.389080	0.585380
