data_NIKZAJ01_clean_PM
_symmetry_space_group_name_H-M	'P1'
_cell_length_a	9.805800
_cell_length_b	11.341600
_cell_length_c	14.553400
_cell_angle_alpha	91.196200
_cell_angle_beta	90.000000
_cell_angle_gamma	90.000000
_symmetry_Int_Tables_number 1

loop_
_symmetry_equiv_pos_as_xyz
'x,y,z'

loop_
_atom_site_label
_atom_site_type_symbol
_atom_site_fract_x
_atom_site_fract_y
_atom_site_fract_z
Fe11	Fe1	0.916730	0.755940	0.131640
Fe21	Fe2	0.898200	0.260850	0.685760
Fe31	Fe3	0.416730	0.744060	0.368360
Fe41	Fe4	0.398200	0.239150	0.814240
Fe51	Fe5	0.083270	0.244060	0.868360
Fe61	Fe6	0.101800	0.739150	0.314240
Fe71	Fe7	0.583270	0.255940	0.631640
Fe81	Fe8	0.601800	0.760850	0.185760
Fe91	Fe9	0.000000	0.500000	0.000000
Fe101	Fe10	0.500000	0.000000	0.500000
Fe111	Fe11	0.000000	0.000000	0.000000
Fe121	Fe12	0.500000	0.500000	0.500000
H11	H1	0.745500	0.864300	0.366000
H21	H2	0.018500	0.472800	0.269200
H31	H3	0.613200	0.559000	0.034400
H41	H4	0.184600	0.983400	0.237000
H51	H5	0.174800	0.698000	0.935600
H61	H6	0.697200	0.992400	0.005500
H71	H7	0.245500	0.635700	0.134000
H81	H8	0.518500	0.027200	0.230800
H91	H9	0.113200	0.941000	0.465600
H101	H10	0.684600	0.516600	0.263000
H111	H11	0.674800	0.802000	0.564400
H121	H12	0.197200	0.507600	0.494500
H131	H13	0.254500	0.135700	0.634000
H141	H14	0.981500	0.527200	0.730800
H151	H15	0.386800	0.441000	0.965600
H161	H16	0.815400	0.016600	0.763000
H171	H17	0.825200	0.302000	0.064400
H181	H18	0.302800	0.007600	0.994500
H191	H19	0.754500	0.364300	0.866000
H201	H20	0.481500	0.972800	0.769200
H211	H21	0.886800	0.059000	0.534400
H221	H22	0.315400	0.483400	0.737000
H231	H23	0.325200	0.198000	0.435600
H241	H24	0.802800	0.492400	0.505500
C11	C1	0.818100	0.832890	0.329790
C21	C2	0.003000	0.514180	0.214080
C31	C3	0.707100	0.576790	0.043090
C41	C4	0.126900	0.954790	0.189090
C51	C5	0.111900	0.743270	0.971270
C61	C6	0.713600	0.931380	0.047880
C71	C7	0.318100	0.667110	0.170210
C81	C8	0.503000	0.985820	0.285920
C91	C9	0.207100	0.923210	0.456910
C101	C10	0.626900	0.545210	0.310910
C111	C11	0.611900	0.756730	0.528730
C121	C12	0.213600	0.568620	0.452120
C131	C13	0.181900	0.167110	0.670210
C141	C14	0.997000	0.485820	0.785920
C151	C15	0.292900	0.423210	0.956910
C161	C16	0.873100	0.045210	0.810910
C171	C17	0.888100	0.256730	0.028730
C181	C18	0.286400	0.068620	0.952120
C191	C19	0.681900	0.332890	0.829790
C201	C20	0.497000	0.014180	0.714080
C211	C21	0.792900	0.076790	0.543090
C221	C22	0.373100	0.454790	0.689090
C231	C23	0.388100	0.243270	0.471270
C241	C24	0.786400	0.431380	0.547880
O11	O1	0.793440	0.810980	0.244940
O21	O2	0.928360	0.816710	0.368910
O31	O3	0.996310	0.626000	0.220210
O41	O4	0.991100	0.454610	0.142210
O51	O5	0.736330	0.652380	0.105090
O61	O6	0.789350	0.523560	0.992560
O71	O7	0.080190	0.850660	0.197180
O81	O8	0.105030	0.021840	0.125580
O91	O9	0.031260	0.686250	0.023760
O101	O10	0.115380	0.850620	0.962820
O111	O11	0.837330	0.898060	0.057870
O121	O12	0.613200	0.891370	0.088470
O131	O13	0.293440	0.689020	0.255060
O141	O14	0.428360	0.683290	0.131090
O151	O15	0.496310	0.874000	0.279790
O161	O16	0.491100	0.045390	0.357790
O171	O17	0.236330	0.847620	0.394910
O181	O18	0.289350	0.976440	0.507440
O191	O19	0.580190	0.649340	0.302820
O201	O20	0.605030	0.478160	0.374420
O211	O21	0.531260	0.813750	0.476240
O221	O22	0.615380	0.649380	0.537180
O231	O23	0.337330	0.601940	0.442130
O241	O24	0.113200	0.608630	0.411530
O251	O25	0.206560	0.189020	0.755060
O261	O26	0.071640	0.183290	0.631090
O271	O27	0.003690	0.374000	0.779790
O281	O28	0.008900	0.545390	0.857790
O291	O29	0.263670	0.347620	0.894910
O301	O30	0.210650	0.476440	0.007440
O311	O31	0.919810	0.149340	0.802820
O321	O32	0.894970	0.978160	0.874420
O331	O33	0.968740	0.313750	0.976240
O341	O34	0.884620	0.149380	0.037180
O351	O35	0.162670	0.101940	0.942130
O361	O36	0.386800	0.108630	0.911530
O371	O37	0.706560	0.310980	0.744940
O381	O38	0.571640	0.316710	0.868910
O391	O39	0.503690	0.126000	0.720210
O401	O40	0.508900	0.954610	0.642210
O411	O41	0.763670	0.152380	0.605090
O421	O42	0.710650	0.023560	0.492560
O431	O43	0.419810	0.350660	0.697180
O441	O44	0.394970	0.521840	0.625580
O451	O45	0.468740	0.186250	0.523760
O461	O46	0.384620	0.350620	0.462820
O471	O47	0.662670	0.398060	0.557870
O481	O48	0.886800	0.391370	0.588470
