data_NIKZEN02_clean_PM
_symmetry_space_group_name_H-M	'P1'
_cell_length_a	10.020500
_cell_length_b	11.496400
_cell_length_c	14.845200
_cell_angle_alpha	91.547600
_cell_angle_beta	90.000000
_cell_angle_gamma	90.000000
_symmetry_Int_Tables_number 1

loop_
_symmetry_equiv_pos_as_xyz
'x,y,z'

loop_
_atom_site_label
_atom_site_type_symbol
_atom_site_fract_x
_atom_site_fract_y
_atom_site_fract_z
Fe11	Fe1	0.925950	0.756180	0.133020
Fe21	Fe2	0.881810	0.259580	0.692730
Fe31	Fe3	0.425950	0.743820	0.366980
Fe41	Fe4	0.381810	0.240420	0.807270
Fe51	Fe5	0.074050	0.243820	0.866980
Fe61	Fe6	0.118190	0.740420	0.307270
Fe71	Fe7	0.574050	0.256180	0.633020
Fe81	Fe8	0.618190	0.759580	0.192730
Fe91	Fe9	0.000000	0.500000	0.000000
Fe101	Fe10	0.500000	0.000000	0.500000
Fe111	Fe11	0.000000	0.000000	0.000000
Fe121	Fe12	0.500000	0.500000	0.500000
H11	H1	0.768700	0.849600	0.369000
H21	H2	0.053400	0.481000	0.258300
H31	H3	0.626100	0.555400	0.049100
H41	H4	0.200800	0.976900	0.223600
H51	H5	0.150000	0.698600	0.926400
H61	H6	0.710300	0.994700	0.023000
H71	H7	0.268700	0.650400	0.131000
H81	H8	0.553400	0.019000	0.241700
H91	H9	0.126100	0.944600	0.450900
H101	H10	0.700800	0.523100	0.276400
H111	H11	0.650000	0.801400	0.573600
H121	H12	0.210300	0.505300	0.477000
H131	H13	0.231300	0.150400	0.631000
H141	H14	0.946600	0.519000	0.741700
H151	H15	0.373900	0.444600	0.950900
H161	H16	0.799200	0.023100	0.776400
H171	H17	0.850000	0.301400	0.073600
H181	H18	0.289700	0.005300	0.977000
H191	H19	0.731300	0.349600	0.869000
H201	H20	0.446600	0.981000	0.758300
H211	H21	0.873900	0.055400	0.549100
H221	H22	0.299200	0.476900	0.723600
H231	H23	0.350000	0.198600	0.426400
H241	H24	0.789700	0.494700	0.523000
C11	C1	0.836900	0.821860	0.331860
C21	C2	0.027900	0.519620	0.206820
C31	C3	0.716300	0.573570	0.053770
C41	C4	0.139000	0.950240	0.181140
C51	C5	0.097400	0.742620	0.966020
C61	C6	0.727800	0.933550	0.061050
C71	C7	0.336900	0.678140	0.168140
C81	C8	0.527900	0.980380	0.293180
C91	C9	0.216300	0.926430	0.446230
C101	C10	0.639000	0.549760	0.318860
C111	C11	0.597400	0.757380	0.533980
C121	C12	0.227800	0.566450	0.438950
C131	C13	0.163100	0.178140	0.668140
C141	C14	0.972100	0.480380	0.793180
C151	C15	0.283700	0.426430	0.946230
C161	C16	0.861000	0.049760	0.818860
C171	C17	0.902600	0.257380	0.033980
C181	C18	0.272200	0.066450	0.938950
C191	C19	0.663100	0.321860	0.831860
C201	C20	0.472100	0.019620	0.706820
C211	C21	0.783700	0.073570	0.553770
C221	C22	0.361000	0.450240	0.681140
C231	C23	0.402600	0.242620	0.466020
C241	C24	0.772200	0.433550	0.561050
O11	O1	0.808550	0.803560	0.249340
O21	O2	0.946730	0.806190	0.367340
O31	O3	0.016090	0.628940	0.214200
O41	O4	0.009070	0.459330	0.138510
O51	O5	0.747660	0.654370	0.109850
O61	O6	0.792810	0.516610	0.004970
O71	O7	0.087920	0.851620	0.194010
O81	O8	0.115510	0.014230	0.118370
O91	O9	0.026520	0.686730	0.021590
O101	O10	0.103250	0.848270	0.959540
O111	O11	0.848070	0.900000	0.065500
O121	O12	0.631250	0.893860	0.101830
O131	O13	0.308550	0.696440	0.250660
O141	O14	0.446730	0.693810	0.132660
O151	O15	0.516090	0.871060	0.285800
O161	O16	0.509070	0.040670	0.361490
O171	O17	0.247660	0.845630	0.390150
O181	O18	0.292810	0.983390	0.495030
O191	O19	0.587920	0.648380	0.305990
O201	O20	0.615510	0.485770	0.381630
O211	O21	0.526520	0.813270	0.478410
O221	O22	0.603250	0.651730	0.540460
O231	O23	0.348070	0.600000	0.434500
O241	O24	0.131250	0.606140	0.398170
O251	O25	0.191450	0.196440	0.750660
O261	O26	0.053270	0.193810	0.632660
O271	O27	0.983910	0.371060	0.785800
O281	O28	0.990930	0.540670	0.861490
O291	O29	0.252340	0.345630	0.890150
O301	O30	0.207190	0.483390	0.995030
O311	O31	0.912080	0.148380	0.805990
O321	O32	0.884490	0.985770	0.881630
O331	O33	0.973480	0.313270	0.978410
O341	O34	0.896750	0.151730	0.040460
O351	O35	0.151930	0.100000	0.934500
O361	O36	0.368750	0.106140	0.898170
O371	O37	0.691450	0.303560	0.749340
O381	O38	0.553270	0.306190	0.867340
O391	O39	0.483910	0.128940	0.714200
O401	O40	0.490930	0.959330	0.638510
O411	O41	0.752340	0.154370	0.609850
O421	O42	0.707190	0.016610	0.504970
O431	O43	0.412080	0.351620	0.694010
O441	O44	0.384490	0.514230	0.618370
O451	O45	0.473480	0.186730	0.521590
O461	O46	0.396750	0.348270	0.459540
O471	O47	0.651930	0.400000	0.565500
O481	O48	0.868750	0.393860	0.601830
