data_NIMPEG_clean_PM
_symmetry_space_group_name_H-M	'P1'
_cell_length_a	14.603100
_cell_length_b	14.603100
_cell_length_c	18.804000
_cell_angle_alpha	90.664300
_cell_angle_beta	90.664300
_cell_angle_gamma	90.674200
_symmetry_Int_Tables_number 1

loop_
_symmetry_equiv_pos_as_xyz
'x,y,z'

loop_
_atom_site_label
_atom_site_type_symbol
_atom_site_fract_x
_atom_site_fract_y
_atom_site_fract_z
Cu11	Cu1	0.525080	0.548060	0.444680
Cu21	Cu2	0.548060	0.525080	0.944680
Cu31	Cu3	0.451940	0.474920	0.055320
Cu41	Cu4	0.474920	0.451940	0.555320
H11	H1	0.864800	0.888600	0.193400
H21	H2	0.820800	0.430600	0.018500
H31	H3	0.179200	0.569400	0.981500
H41	H4	0.094800	0.879000	0.835900
H51	H5	0.766200	0.675000	0.530700
H61	H6	0.966900	0.981100	0.645500
H71	H7	0.560600	0.084600	0.239000
H81	H8	0.999400	0.583400	0.687400
H91	H9	0.084600	0.976000	0.173700
H101	H10	0.448400	0.925800	0.211400
H111	H11	0.084600	0.560600	0.739000
H121	H12	0.351600	0.709800	0.856900
H131	H13	0.684800	0.540800	0.704100
H141	H14	0.915400	0.024000	0.826300
H151	H15	0.416600	0.000600	0.812600
H161	H16	0.881300	0.748700	0.598900
H171	H17	0.976000	0.084600	0.673700
H181	H18	0.583400	0.999400	0.187400
H191	H19	0.771600	0.225000	0.203700
H201	H20	0.964500	0.446100	0.791300
H211	H21	0.121000	0.905200	0.664100
H221	H22	0.035500	0.553900	0.208700
H231	H23	0.459200	0.315200	0.795900
H241	H24	0.233800	0.325000	0.469300
H251	H25	0.801100	0.611300	0.770700
H261	H26	0.585500	0.972100	0.773100
H271	H27	0.611300	0.801100	0.270700
H281	H28	0.977500	0.109500	0.803400
H291	H29	0.135200	0.111400	0.806600
H301	H30	0.945900	0.364900	0.077100
H311	H31	0.033100	0.018900	0.354500
H321	H32	0.888600	0.864800	0.693400
H331	H33	0.022500	0.890500	0.196600
H341	H34	0.364900	0.945900	0.577100
H351	H35	0.225000	0.771600	0.703700
H361	H36	0.198900	0.388700	0.229300
H371	H37	0.972100	0.585500	0.273100
H381	H38	0.118700	0.251300	0.401100
H391	H39	0.635100	0.054100	0.422900
H401	H40	0.315200	0.459200	0.295900
H411	H41	0.290200	0.648400	0.643100
H421	H42	0.648400	0.290200	0.143100
H431	H43	0.325000	0.233800	0.969300
H441	H44	0.879000	0.094800	0.335900
H451	H45	0.775000	0.228400	0.296300
H461	H46	0.569400	0.179200	0.481500
H471	H47	0.981100	0.966900	0.145500
H481	H48	0.915400	0.439400	0.261000
H491	H49	0.553900	0.035500	0.708700
H501	H50	0.551600	0.074200	0.788600
H511	H51	0.675000	0.766200	0.030700
H521	H52	0.430600	0.820800	0.518500
H531	H53	0.905200	0.121000	0.164100
H541	H54	0.027900	0.414500	0.726900
H551	H55	0.111400	0.135200	0.306600
H561	H56	0.890500	0.022500	0.696600
H571	H57	0.388700	0.198900	0.729300
H581	H58	0.018900	0.033100	0.854500
H591	H59	0.054100	0.635100	0.922900
H601	H60	0.228400	0.775000	0.796300
H611	H61	0.414500	0.027900	0.226900
H621	H62	0.925800	0.448400	0.711400
H631	H63	0.024000	0.915400	0.326300
H641	H64	0.540800	0.684800	0.204100
H651	H65	0.709800	0.351600	0.356900
H661	H66	0.109500	0.977500	0.303400
H671	H67	0.748700	0.881300	0.098900
H681	H68	0.251300	0.118700	0.901100
H691	H69	0.439400	0.915400	0.761000
H701	H70	0.446100	0.964500	0.291300
H711	H71	0.074200	0.551600	0.288600
H721	H72	0.000600	0.416600	0.312600
C11	C1	0.990500	0.009500	0.250000
C21	C2	0.457300	0.980300	0.241700
C31	C3	0.698400	0.982400	0.279200
C41	C4	0.360110	0.581190	0.955800
C51	C5	0.581190	0.360110	0.455800
C61	C6	0.781800	0.267200	0.166500
C71	C7	0.017100	0.558300	0.734200
C81	C8	0.416510	0.275310	0.817900
C91	C9	0.078400	0.259000	0.267000
C101	C10	0.308350	0.148670	0.808500
C111	C11	0.977500	0.043900	0.814200
C121	C12	0.872900	0.292300	0.144900
C131	C13	0.809900	0.390100	0.056700
C141	C14	0.190100	0.609900	0.943300
C151	C15	0.275310	0.416510	0.317900
C161	C16	0.293200	0.159080	0.878700
C171	C17	0.290900	0.692700	0.869500
C181	C18	0.279350	0.627950	0.923800
C191	C19	0.164900	0.070500	0.774900
C201	C20	0.227780	0.337320	0.420000
C211	C21	0.156300	0.947700	0.691700
C221	C22	0.052300	0.843700	0.808300
C231	C23	0.732800	0.218200	0.333500
C241	C24	0.772220	0.662680	0.580000
C251	C25	0.218200	0.732800	0.833500
C261	C26	0.724690	0.583490	0.682100
C271	C27	0.542700	0.019700	0.758300
C281	C28	0.350100	0.885500	0.591700
C291	C29	0.440990	0.362490	0.931880
C301	C30	0.929500	0.835100	0.725100
C311	C31	0.980300	0.457300	0.741700
C321	C32	0.114500	0.649900	0.908300
C331	C33	0.982900	0.441700	0.265800
C341	C34	0.337320	0.227780	0.920000
C351	C35	0.112500	0.005900	0.738700
C361	C36	0.649900	0.114500	0.408300
C371	C37	0.885500	0.350100	0.091700
C381	C38	0.741000	0.921600	0.233000
C391	C39	0.292300	0.872900	0.644900
C401	C40	0.994100	0.887500	0.761300
C411	C41	0.017600	0.301600	0.220800
C421	C42	0.259000	0.078400	0.767000
C431	C43	0.609900	0.190100	0.443300
C441	C44	0.418810	0.639890	0.544200
C451	C45	0.583490	0.724690	0.182100
C461	C46	0.070500	0.164900	0.274900
C471	C47	0.840920	0.706800	0.621300
C481	C48	0.720650	0.372050	0.076200
C491	C49	0.285840	0.398140	0.388280
C501	C50	0.947700	0.156300	0.191700
C511	C51	0.843700	0.052300	0.308300
C521	C52	0.373700	0.206700	0.778000
C531	C53	0.127100	0.707700	0.855100
C541	C54	0.159080	0.293200	0.378700
C551	C55	0.206700	0.373700	0.278000
C561	C56	0.307300	0.709100	0.630500
C571	C57	0.559010	0.637510	0.068120
C581	C58	0.009500	0.990500	0.750000
C591	C59	0.691650	0.851330	0.191500
C601	C60	0.627950	0.279350	0.423800
C611	C61	0.372050	0.720650	0.576200
C621	C62	0.049800	0.749600	0.816000
C631	C63	0.005900	0.112500	0.238700
C641	C64	0.662680	0.772220	0.080000
C651	C65	0.950200	0.250400	0.184000
C661	C66	0.956100	0.022500	0.685800
C671	C67	0.887500	0.994100	0.261300
C681	C68	0.626300	0.793300	0.222000
C691	C69	0.793300	0.626300	0.722000
C701	C70	0.714160	0.601860	0.611720
C711	C71	0.043900	0.977500	0.314200
C721	C72	0.707700	0.127100	0.355100
C731	C73	0.982400	0.698400	0.779200
C741	C74	0.148670	0.308350	0.308500
C751	C75	0.601860	0.714160	0.111720
C761	C76	0.639890	0.418810	0.044200
C771	C77	0.692700	0.290900	0.369500
C781	C78	0.250400	0.950200	0.684000
C791	C79	0.851330	0.691650	0.691500
C801	C80	0.921600	0.741000	0.733000
C811	C81	0.441700	0.982900	0.765800
C821	C82	0.362490	0.440990	0.431880
C831	C83	0.398140	0.285840	0.888280
C841	C84	0.390100	0.809900	0.556700
C851	C85	0.835100	0.929500	0.225100
C861	C86	0.022500	0.956100	0.185800
C871	C87	0.019700	0.542700	0.258300
C881	C88	0.301600	0.017600	0.720800
C891	C89	0.749600	0.049800	0.316000
C901	C90	0.706800	0.840920	0.121300
C911	C91	0.637510	0.559010	0.568120
C921	C92	0.558300	0.017100	0.234200
C931	C93	0.709100	0.307300	0.130500
C941	C94	0.267200	0.781800	0.666500
O11	O1	0.501020	0.587280	0.098850
O21	O2	0.432530	0.584810	0.920640
O31	O3	0.498980	0.412720	0.901150
O41	O4	0.022020	0.393260	0.212540
O51	O5	0.544240	0.350440	0.514180
O61	O6	0.583460	0.628280	0.005930
O71	O7	0.584810	0.432530	0.420640
O81	O8	0.350440	0.544240	0.014180
O91	O9	0.393260	0.022020	0.712540
O101	O10	0.412720	0.498980	0.401150
O111	O11	0.416540	0.371720	0.994070
O121	O12	0.415190	0.567470	0.579360
O131	O13	0.649560	0.455760	0.985820
O141	O14	0.371720	0.416540	0.494070
O151	O15	0.567470	0.415190	0.079360
O161	O16	0.455760	0.649560	0.485820
O171	O17	0.977980	0.606740	0.787460
O181	O18	0.628280	0.583460	0.505930
O191	O19	0.606740	0.977980	0.287460
O201	O20	0.587280	0.501020	0.598850
