data_NIMPEG01_clean_PM
_symmetry_space_group_name_H-M	'P1'
_cell_length_a	15.010000
_cell_length_b	16.620000
_cell_length_c	19.290000
_cell_angle_alpha	102.288000
_cell_angle_beta	91.786000
_cell_angle_gamma	93.300000
_symmetry_Int_Tables_number 1

loop_
_symmetry_equiv_pos_as_xyz
'x,y,z'

loop_
_atom_site_label
_atom_site_type_symbol
_atom_site_fract_x
_atom_site_fract_y
_atom_site_fract_z
Cu11	Cu1	0.472740	0.457140	0.047160
Cu21	Cu2	0.527260	0.542860	0.952840
Cu31	Cu3	0.456420	0.493360	0.557710
Cu41	Cu4	0.543580	0.506640	0.442290
H11	H1	0.984300	0.549200	0.188600
H21	H2	0.650600	0.110300	0.890500
H31	H3	0.906300	0.820600	0.252200
H41	H4	0.145100	0.836600	0.235900
H51	H5	0.123800	0.825600	0.383200
H61	H6	0.690500	0.532900	0.204800
H71	H7	0.446000	0.012400	0.330400
H81	H8	0.093700	0.179400	0.747800
H91	H9	0.889900	0.724300	0.134600
H101	H10	0.554000	0.987600	0.669600
H111	H11	0.188800	0.404700	0.719300
H121	H12	0.908000	0.336800	0.529100
H131	H13	0.309500	0.467100	0.795200
H141	H14	0.019800	0.975400	0.711500
H151	H15	0.727800	0.876000	0.565600
H161	H16	0.854900	0.163400	0.764100
H171	H17	0.571800	0.719700	0.703200
H181	H18	0.069100	0.942000	0.434500
H191	H19	0.587600	0.225900	0.957200
H201	H20	0.033100	0.043800	0.582400
H211	H21	0.665900	0.359800	0.814400
H221	H22	0.343500	0.252000	0.488100
H231	H23	0.728800	0.244100	0.747700
H241	H24	0.462100	0.925700	0.276900
H251	H25	0.043400	0.025600	0.412600
H261	H26	0.028600	0.061300	0.768200
H271	H27	0.971400	0.938700	0.231800
H281	H28	0.783900	0.392900	0.485800
H291	H29	0.084800	0.561000	0.224900
H301	H30	0.643000	0.847700	0.756900
H311	H31	0.092000	0.663200	0.470900
H321	H32	0.811200	0.595300	0.280700
H331	H33	0.956600	0.974400	0.587400
H341	H34	0.230700	0.338200	0.941300
H351	H35	0.428200	0.280300	0.296800
H361	H36	0.357000	0.152300	0.243100
H371	H37	0.537900	0.074300	0.723100
H381	H38	0.272200	0.124000	0.434400
H391	H39	0.966900	0.956200	0.417600
H401	H40	0.149600	0.067000	0.359400
H411	H41	0.789500	0.344300	0.716000
H421	H42	0.334700	0.599700	0.327300
H431	H43	0.850400	0.933000	0.640600
H441	H44	0.665300	0.400300	0.672700
H451	H45	0.093400	0.045800	0.703100
H461	H46	0.271200	0.755900	0.252300
H471	H47	0.980200	0.024600	0.288500
H481	H48	0.930900	0.058000	0.565500
H491	H49	0.876200	0.174400	0.616800
H501	H50	0.216100	0.607100	0.514200
H511	H51	0.412400	0.774100	0.042800
H521	H52	0.915200	0.439000	0.775100
H531	H53	0.769300	0.661800	0.058700
H541	H54	0.656500	0.748000	0.511900
H551	H55	0.334100	0.640200	0.185600
H561	H56	0.210500	0.655700	0.284000
H571	H57	0.110100	0.275700	0.865400
H581	H58	0.349400	0.889700	0.109500
H591	H59	0.906600	0.954200	0.296900
H601	H60	0.015700	0.450800	0.811400
C11	C1	0.052700	0.207600	0.724800
C21	C2	0.700100	0.240500	0.790200
C31	C3	0.016500	0.836600	0.319300
C41	C4	0.932600	0.290100	0.657200
C51	C5	0.738600	0.955600	0.697000
C61	C6	0.302000	0.984900	0.254600
C71	C7	0.061800	0.293000	0.735100
C81	C8	0.269000	0.428300	0.809500
C91	C9	0.712900	0.401900	0.575200
C101	C10	0.788300	0.354100	0.669300
C111	C11	0.141200	0.650300	0.441700
C121	C12	0.544800	0.014600	0.719500
C131	C13	0.346300	0.839100	0.125000
C141	C14	0.822600	0.973600	0.673700
C151	C15	0.379200	0.696300	0.107900
C161	C16	0.849400	0.685400	0.148900
C171	C17	0.866000	0.051000	0.698700
C181	C18	0.696100	0.844300	0.593600
C191	C19	0.923500	0.204600	0.646900
C201	C20	0.038500	0.927500	0.329400
C211	C21	0.281500	0.408500	0.875400
C221	C22	0.579500	0.373400	0.931400
C231	C23	0.698000	0.015100	0.745400
C241	C24	0.134000	0.949000	0.301300
C251	C25	0.197300	0.391200	0.764400
C261	C26	0.620800	0.303700	0.892100
C271	C27	0.455200	0.985400	0.280500
C281	C28	0.177400	0.026400	0.326300
C291	C29	0.640300	0.557700	0.072300
C301	C30	0.967100	0.965000	0.282000
C311	C31	0.354200	0.172500	0.292800
C321	C32	0.947300	0.792400	0.275200
C331	C33	0.022100	0.541600	0.229400
C341	C34	0.215000	0.617000	0.467400
C351	C35	0.977900	0.458400	0.770600
C361	C36	0.858800	0.349700	0.558300
C371	C37	0.337300	0.690900	0.170200
C381	C38	0.983500	0.163400	0.680700
C391	C39	0.569000	0.637700	0.565200
C401	C40	0.287100	0.598100	0.424800
C411	C41	0.662700	0.309100	0.829800
C421	C42	0.396600	0.248600	0.324700
C431	C43	0.616300	0.229600	0.914700
C441	C44	0.307900	0.126100	0.333700
C451	C45	0.971300	0.033900	0.595100
C461	C46	0.139600	0.664700	0.373400
C471	C47	0.261400	0.044400	0.303000
C481	C48	0.938200	0.707000	0.264900
C491	C49	0.285400	0.612600	0.356400
C501	C50	0.714600	0.387400	0.643600
C511	C51	0.785000	0.383000	0.532600
C521	C52	0.431000	0.362300	0.434800
C531	C53	0.174700	0.889500	0.253000
C541	C54	0.299900	0.759500	0.209800
C551	C55	0.076500	0.795400	0.353100
C561	C56	0.150600	0.314600	0.851100
C571	C57	0.346200	0.231800	0.438300
C581	C58	0.032900	0.035000	0.718000
C591	C59	0.638800	0.434900	0.548300
C601	C60	0.860400	0.335300	0.626600
C611	C61	0.861900	0.665600	0.214800
C621	C62	0.138100	0.334400	0.785200
C631	C63	0.692100	0.873900	0.666300
C641	C64	0.420500	0.626600	0.068600
C651	C65	0.392500	0.278200	0.397500
C661	C66	0.653700	0.160900	0.875000
C671	C67	0.303900	0.155700	0.406400
C681	C68	0.653800	0.768200	0.561700
C691	C69	0.361200	0.565100	0.451700
C701	C70	0.383700	0.770400	0.085300
C711	C71	0.211700	0.645900	0.330700
C721	C72	0.304400	0.833700	0.187200
C731	C73	0.607500	0.721800	0.602500
C741	C74	0.067400	0.709900	0.342800
C751	C75	0.777800	0.648300	0.103800
C761	C76	0.359700	0.442300	0.927700
C771	C77	0.645800	0.827500	0.707200
C781	C78	0.718500	0.591500	0.124600
C791	C79	0.695600	0.166300	0.812800
C801	C80	0.825300	0.110500	0.747000
C811	C81	0.802700	0.608800	0.235600
C821	C82	0.961500	0.072500	0.670600
C831	C83	0.731000	0.571700	0.190500
C841	C84	0.222200	0.351700	0.896200
C851	C85	0.258700	0.907500	0.229600
C861	C86	0.603400	0.751400	0.675300
C871	C87	0.001700	0.334300	0.701300
C881	C88	0.028700	0.966100	0.404900
C891	C89	0.741300	0.092500	0.770400
C901	C90	0.998300	0.665700	0.298700
O11	O1	0.012200	0.423500	0.704300
O21	O2	0.643300	0.457400	0.482900
O31	O3	0.564200	0.444400	0.583500
O41	O4	0.384400	0.000100	0.232300
O51	O5	0.987800	0.576500	0.295700
O61	O6	0.462000	0.634900	0.009100
O71	O7	0.356700	0.542600	0.517100
O81	O8	0.615600	0.999900	0.767700
O91	O9	0.580400	0.442100	0.909700
O101	O10	0.414900	0.497400	0.896300
O111	O11	0.582500	0.612900	0.504400
O121	O12	0.585100	0.502600	0.103700
O131	O13	0.538000	0.365100	0.990900
O141	O14	0.369500	0.421300	0.982900
O151	O15	0.630500	0.578700	0.017100
O161	O16	0.512800	0.601200	0.604000
O171	O17	0.417500	0.387100	0.495600
O181	O18	0.435800	0.555600	0.416500
O191	O19	0.487200	0.398800	0.396000
O201	O20	0.419600	0.557900	0.090300
