data_NIMVIP_clean_PM
_symmetry_space_group_name_H-M	'P1'
_cell_length_a	9.306000
_cell_length_b	11.536500
_cell_length_c	17.348000
_cell_angle_alpha	104.950000
_cell_angle_beta	90.000000
_cell_angle_gamma	113.787000
_symmetry_Int_Tables_number 1

loop_
_symmetry_equiv_pos_as_xyz
'x,y,z'

loop_
_atom_site_label
_atom_site_type_symbol
_atom_site_fract_x
_atom_site_fract_y
_atom_site_fract_z
Pr11	Pr1	0.670040	0.972530	0.926860
Pr21	Pr2	0.697510	0.027470	0.573140
Pr31	Pr3	0.329960	0.027470	0.073140
Pr41	Pr4	0.302490	0.972530	0.426860
Cu11	Cu1	0.094350	0.329260	0.135740
Cu21	Cu2	0.765090	0.670740	0.364260
Cu31	Cu3	0.905650	0.670740	0.864260
Cu41	Cu4	0.234910	0.329260	0.635740
H11	H1	0.561400	0.196400	0.779100
H21	H2	0.501600	0.296200	0.692800
H31	H3	0.091600	0.230400	0.767200
H41	H4	0.140000	0.131800	0.857100
H51	H5	0.181500	0.717800	0.053800
H61	H6	0.082200	0.563800	0.123000
H71	H7	0.278400	0.350200	0.997700
H81	H8	0.390300	0.503600	0.927300
H91	H9	0.365000	0.803600	0.720900
H101	H10	0.205400	0.703800	0.807200
H111	H11	0.861200	0.769600	0.732800
H121	H12	0.008200	0.868200	0.642900
H131	H13	0.463700	0.282200	0.446200
H141	H14	0.518400	0.436200	0.377000
H151	H15	0.928200	0.649800	0.502300
H161	H16	0.886700	0.496400	0.572700
H171	H17	0.438600	0.803600	0.220900
H181	H18	0.498400	0.703800	0.307200
H191	H19	0.908400	0.769600	0.232800
H201	H20	0.860000	0.868200	0.142900
H211	H21	0.818500	0.282200	0.946200
H221	H22	0.917800	0.436200	0.877000
H231	H23	0.721600	0.649800	0.002300
H241	H24	0.609700	0.496400	0.072700
H251	H25	0.635000	0.196400	0.279100
H261	H26	0.794600	0.296200	0.192800
H271	H27	0.138800	0.230400	0.267200
H281	H28	0.991800	0.131800	0.357100
H291	H29	0.536300	0.717800	0.553800
H301	H30	0.481600	0.563800	0.623000
H311	H31	0.071800	0.350200	0.497700
H321	H32	0.113300	0.503600	0.427300
C11	C1	0.388750	0.081500	0.883050
C21	C2	0.355050	0.150700	0.827150
C31	C3	0.464200	0.201400	0.777500
C41	C4	0.426500	0.260200	0.725300
C51	C5	0.186800	0.222200	0.769000
C61	C6	0.215100	0.163000	0.823400
C71	C7	0.393150	0.742700	0.949230
C81	C8	0.304940	0.631880	0.985800
C91	C9	0.207100	0.645600	0.042700
C101	C10	0.146800	0.551800	0.083700
C111	C11	0.262200	0.427200	0.010800
C121	C12	0.329400	0.519000	0.967800
C131	C13	0.980420	0.928240	0.976570
C141	C14	0.706850	0.925100	0.731890
C151	C15	0.307250	0.918500	0.616950
C161	C16	0.204350	0.849300	0.672850
C171	C17	0.262800	0.798600	0.722500
C181	C18	0.166300	0.739800	0.774700
C191	C19	0.964600	0.777800	0.731000
C201	C20	0.052100	0.837000	0.676600
C211	C21	0.650450	0.257300	0.550770
C221	C22	0.673060	0.368120	0.514200
C231	C23	0.561500	0.354400	0.457300
C241	C24	0.595000	0.448200	0.416300
C251	C25	0.835000	0.572800	0.489200
C261	C26	0.810400	0.481000	0.532200
C271	C27	0.052180	0.071760	0.523430
C281	C28	0.781750	0.074900	0.768110
C291	C29	0.611250	0.918500	0.116950
C301	C30	0.644950	0.849300	0.172850
C311	C31	0.535800	0.798600	0.222500
C321	C32	0.573500	0.739800	0.274700
C331	C33	0.813200	0.777800	0.231000
C341	C34	0.784900	0.837000	0.176600
C351	C35	0.606850	0.257300	0.050770
C361	C36	0.695060	0.368120	0.014200
C371	C37	0.792900	0.354400	0.957300
C381	C38	0.853200	0.448200	0.916300
C391	C39	0.737800	0.572800	0.989200
C401	C40	0.670600	0.481000	0.032200
C411	C41	0.019580	0.071760	0.023430
C421	C42	0.293150	0.074900	0.268110
C431	C43	0.692750	0.081500	0.383050
C441	C44	0.795650	0.150700	0.327150
C451	C45	0.737200	0.201400	0.277500
C461	C46	0.833700	0.260200	0.225300
C471	C47	0.035400	0.222200	0.269000
C481	C48	0.947900	0.163000	0.323400
C491	C49	0.349550	0.742700	0.449230
C501	C50	0.326940	0.631880	0.485800
C511	C51	0.438500	0.645600	0.542700
C521	C52	0.405000	0.551800	0.583700
C531	C53	0.165000	0.427200	0.510800
C541	C54	0.189600	0.519000	0.467800
C551	C55	0.947820	0.928240	0.476570
C561	C56	0.218250	0.925100	0.231890
N11	N1	0.288530	0.267660	0.719200
N21	N2	0.176110	0.445420	0.069800
N31	N3	0.020870	0.732340	0.780800
N41	N4	0.730690	0.554580	0.430200
N51	N5	0.711470	0.732340	0.280800
N61	N6	0.823890	0.554580	0.930200
N71	N7	0.979130	0.267660	0.219200
N81	N8	0.269310	0.445420	0.569800
O11	O1	0.490050	0.036500	0.864930
O21	O2	0.316410	0.078420	0.943610
O31	O3	0.487440	0.728680	0.900780
O41	O4	0.375520	0.849040	0.972290
O51	O5	0.863870	0.870740	0.923190
O61	O6	0.066260	0.877320	0.995610
O71	O7	0.654700	0.856800	0.780300
O81	O8	0.706420	0.882840	0.657940
O91	O9	0.453550	0.963500	0.635070
O101	O10	0.237990	0.921580	0.556390
O111	O11	0.758760	0.271320	0.599220
O121	O12	0.526480	0.150960	0.527710
O131	O13	0.993130	0.129260	0.576810
O141	O14	0.188940	0.122680	0.504390
O151	O15	0.797900	0.143200	0.719700
O161	O16	0.823580	0.117160	0.842060
O171	O17	0.509950	0.963500	0.135070
O181	O18	0.683590	0.921580	0.056390
O191	O19	0.512560	0.271320	0.099220
O201	O20	0.624480	0.150960	0.027710
O211	O21	0.136130	0.129260	0.076810
O221	O22	0.933740	0.122680	0.004390
O231	O23	0.345300	0.143200	0.219700
O241	O24	0.293580	0.117160	0.342060
O251	O25	0.546450	0.036500	0.364930
O261	O26	0.762010	0.078420	0.443610
O271	O27	0.241240	0.728680	0.400780
O281	O28	0.473520	0.849040	0.472290
O291	O29	0.006870	0.870740	0.423190
O301	O30	0.811060	0.877320	0.495610
O311	O31	0.202100	0.856800	0.280300
O321	O32	0.176420	0.882840	0.157940
