data_NIRGAY_clean_PM
_symmetry_space_group_name_H-M	'P1'
_cell_length_a	16.179600
_cell_length_b	19.150500
_cell_length_c	19.584800
_cell_angle_alpha	112.451000
_cell_angle_beta	93.548000
_cell_angle_gamma	104.215000
_symmetry_Int_Tables_number 1

loop_
_symmetry_equiv_pos_as_xyz
'x,y,z'

loop_
_atom_site_label
_atom_site_type_symbol
_atom_site_fract_x
_atom_site_fract_y
_atom_site_fract_z
Mn11	Mn1	0.426870	0.177090	0.826010
Mn21	Mn2	0.785850	0.118550	0.906550
Mn31	Mn3	0.614040	0.112890	0.783110
H11	H1	0.688300	0.512800	0.597800
H21	H2	0.691900	0.641000	0.368900
H31	H3	0.981100	0.287200	0.435400
H41	H4	0.510900	0.308000	0.307600
H51	H5	0.770500	0.665300	0.459500
H61	H6	0.166300	0.514400	0.403600
H71	H7	0.054600	0.169800	0.120100
H81	H8	0.730900	0.598800	0.605100
H91	H9	0.918400	0.335200	0.275900
H101	H10	0.943400	0.305800	0.510100
H111	H11	0.484800	0.311200	0.384200
H121	H12	0.121000	0.249800	0.239900
H131	H13	0.073900	0.335800	0.627900
H141	H14	0.048100	0.330200	0.748100
H151	H15	0.279600	0.626400	0.649300
H161	H16	0.865800	0.270500	0.148900
H171	H17	0.256400	0.943000	0.712200
H181	H18	0.619500	0.920900	0.648000
H191	H19	0.485400	0.385000	0.498900
H201	H20	0.517200	0.282900	0.995600
H211	H21	0.277100	0.621100	0.567100
H221	H22	0.463200	0.864000	0.691300
H231	H23	0.223500	0.532900	0.723900
H241	H24	0.461000	0.286400	0.679200
H251	H25	0.820400	0.780200	0.620300
H261	H26	0.635100	0.574000	0.617400
H271	H27	0.725600	0.572400	0.316900
H281	H28	0.965200	0.364800	0.393000
H291	H29	0.649800	0.193900	0.605800
H301	H30	0.204500	0.607900	0.720300
H311	H31	0.681400	0.257000	0.180400
H321	H32	0.630800	0.573400	0.296600
H331	H33	0.203100	0.595000	0.473800
H341	H34	0.478200	0.357100	0.604900
H351	H35	0.497700	0.397300	0.248200
H361	H36	0.024400	0.274000	0.501500
H371	H37	0.166300	0.811300	0.661500
H381	H38	0.683300	0.183500	0.057500
H391	H39	0.592600	0.799200	0.547700
H401	H40	0.110500	0.417800	0.697300
H411	H41	0.105100	0.566000	0.437300
H421	H42	0.668200	0.261500	0.524500
H431	H43	0.847300	0.901900	0.720700
H441	H44	0.020900	0.435800	0.378200
H451	H45	0.826700	0.356400	0.672900
H461	H46	0.775000	0.663100	0.539400
H471	H47	0.514200	0.355000	0.120800
H481	H48	0.434400	0.341600	0.335900
H491	H49	0.133000	0.546700	0.735900
H501	H50	0.972600	0.267200	0.815100
H511	H51	0.374700	0.734100	0.641800
H521	H52	0.578600	0.457700	0.240300
H531	H53	0.753200	0.293100	0.739900
H541	H54	0.551700	0.451800	0.569300
C11	C1	0.913300	0.170300	0.036700
C21	C2	0.703850	0.777610	0.574050
C31	C3	0.226200	0.821780	0.669200
C41	C4	0.131900	0.507040	0.500600
C51	C5	0.659750	0.892700	0.642450
C61	C6	0.560000	0.420420	0.262620
C71	C7	0.029800	0.207100	0.150000
C81	C8	0.586900	0.460930	0.348760
C91	C9	0.604300	0.180180	0.932760
C101	C10	0.643650	0.819760	0.582340
C111	C11	0.553100	0.419810	0.391340
C121	C12	0.995400	0.306770	0.488940
C131	C13	0.645100	0.529100	0.503490
C141	C14	0.988900	0.323300	0.746210
C151	C15	0.615200	0.225800	0.604800
C161	C16	0.550500	0.233200	0.650340
C171	C17	0.070300	0.389500	0.650140
C181	C18	0.675400	0.570700	0.460580
C191	C19	0.856700	0.338500	0.701740
C201	C20	0.599800	0.316000	0.163440
C211	C21	0.780150	0.808400	0.625870
C221	C22	0.736050	0.923480	0.694270
C231	C23	0.093100	0.430610	0.596690
C241	C24	0.403500	0.854000	0.686900
C251	C25	0.916400	0.264200	0.167560
C261	C26	0.582900	0.455140	0.469290
C271	C27	0.549400	0.321800	0.108140
C281	C28	0.262400	0.760900	0.651760
C291	C29	0.242300	0.620700	0.605610
C301	C30	0.676100	0.585600	0.336990
C311	C31	0.855600	0.273170	0.785380
C321	C32	0.643800	0.536980	0.383200
C331	C33	0.812400	0.300500	0.741990
C341	C34	0.949100	0.305500	0.243980
C351	C35	0.627900	0.268000	0.556500
C361	C36	0.171800	0.544220	0.577550
C371	C37	0.648900	0.262600	0.142990
C381	C38	0.153600	0.549550	0.449030
C391	C39	0.146900	0.507800	0.625920
C401	C40	0.804900	0.227940	0.826040
C411	C41	0.513100	0.325000	0.604620
C421	C42	0.578300	0.317900	0.559700
C431	C43	0.550700	0.278000	0.032930
C441	C44	0.027400	0.301900	0.271670
C451	C45	0.054800	0.391320	0.520460
C461	C46	0.546100	0.413700	0.518150
C471	C47	0.736300	0.654690	0.495300
C481	C48	0.350400	0.775650	0.657390
C491	C49	0.067300	0.252200	0.222600
C501	C50	0.540200	0.191000	0.701600
C511	C51	0.369200	0.916100	0.709270
C521	C52	0.602000	0.226900	0.013200
C531	C53	0.023800	0.394500	0.394720
C541	C54	0.180000	0.552900	0.709060
C551	C55	0.678100	0.556300	0.589270
C561	C56	0.490000	0.337600	0.351100
C571	C57	0.954100	0.215500	0.119050
C581	C58	0.748900	0.000700	0.760830
C591	C59	0.650300	0.218700	0.069780
C601	C60	0.280600	0.901400	0.699400
C611	C61	0.427600	0.999410	0.742440
C621	C62	0.073300	0.430560	0.473390
C631	C63	0.945500	0.350400	0.703770
C641	C64	0.796250	0.881340	0.685980
C651	C65	0.503100	0.281500	0.648890
C661	C66	0.942800	0.285200	0.786400
O11	O1	0.204810	0.686560	0.625410
O21	O2	0.945400	0.123680	0.993360
O31	O3	0.604840	0.358760	0.239600
O41	O4	0.068020	0.342050	0.345390
O51	O5	0.596650	0.359130	0.515670
O61	O6	0.698710	0.040520	0.762800
O71	O7	0.679420	0.704680	0.515290
O81	O8	0.508740	0.009860	0.750410
O91	O9	0.655840	0.138710	0.915740
O101	O10	0.579930	0.142880	0.693960
O111	O11	0.812640	0.023750	0.812220
O121	O12	0.723570	0.218100	0.818170
O131	O13	0.392990	0.053830	0.760610
O141	O14	0.982720	0.389180	0.662820
O151	O15	0.847710	0.183350	0.017270
O161	O16	0.489370	0.209990	0.749030
O171	O17	0.845620	0.202540	0.863050
O181	O18	0.555360	0.182750	0.882220
Mn41	Mn4	0.573130	0.822910	0.173990
Mn51	Mn5	0.385960	0.887110	0.216890
Mn61	Mn6	0.214150	0.881450	0.093450
H551	H55	0.945400	0.830200	0.879900
H561	H56	0.502300	0.602700	0.751800
H571	H57	0.743600	0.057000	0.287800
H581	H58	0.364900	0.426000	0.382600
H591	H59	0.894900	0.434000	0.562700
H601	H60	0.975600	0.726000	0.498500
H611	H61	0.318600	0.743000	0.819600
H621	H62	0.274400	0.427600	0.683100
H631	H63	0.369200	0.426600	0.703400
H641	H64	0.482800	0.717100	0.004400
H651	H65	0.536800	0.136000	0.308700
H661	H66	0.027400	0.732800	0.184900
H671	H67	0.152700	0.098100	0.279300
H681	H68	0.421400	0.542300	0.759700
H691	H69	0.018900	0.712800	0.564600
H701	H70	0.485800	0.645000	0.879200
H711	H71	0.056600	0.694200	0.489900
H721	H72	0.926100	0.664200	0.372100
H731	H73	0.879000	0.750200	0.760100
H741	H74	0.979100	0.564200	0.621800
H751	H75	0.269100	0.401200	0.394900
H761	H76	0.776500	0.467100	0.276100
H771	H77	0.833700	0.485600	0.596400
H781	H78	0.448300	0.548200	0.430700
H791	H79	0.539000	0.713600	0.320800
H801	H80	0.134200	0.729500	0.851100
H811	H81	0.521800	0.642900	0.395100
H821	H82	0.796900	0.405000	0.526200
H831	H83	0.565600	0.658400	0.664100
H841	H84	0.720400	0.373600	0.350700
H851	H85	0.350200	0.806100	0.394200
H861	H86	0.225000	0.336900	0.460600
H871	H87	0.407400	0.200800	0.452300
H881	H88	0.179600	0.219800	0.379700
H891	H89	0.380500	0.079100	0.352000
H901	H90	0.229500	0.334700	0.540500
H911	H91	0.515200	0.688800	0.615800
H921	H92	0.308100	0.359000	0.631100
H931	H93	0.625300	0.265900	0.358200
H941	H94	0.867000	0.453300	0.264100
H951	H95	0.489100	0.692000	0.692400
H961	H96	0.311700	0.487200	0.402200
H971	H97	0.722900	0.378900	0.432900
H981	H98	0.514600	0.615000	0.501100
H991	H99	0.173300	0.643600	0.327100
H1001	H100	0.889500	0.582200	0.302700
H1011	H101	0.034800	0.635200	0.607000
H1021	H102	0.081600	0.664800	0.724100
H1031	H103	0.316700	0.816500	0.942500
H1041	H104	0.331800	0.738500	0.475500
H1051	H105	0.246800	0.706900	0.260100
H1061	H106	0.951900	0.669800	0.251900
H1071	H107	0.833700	0.188700	0.338500
H1081	H108	0.795500	0.392100	0.279700
C671	C67	0.510000	0.662400	0.648900
C681	C68	0.395700	0.819820	0.067240
C691	C69	0.057200	0.714800	0.213600
C701	C70	0.737600	0.239100	0.348240
C711	C71	0.453900	0.586300	0.481850
C721	C72	0.596500	0.146000	0.313100
C731	C73	0.349700	0.781300	0.930220
C741	C74	0.004600	0.693230	0.511060
C751	C75	0.932700	0.747800	0.777400
C761	C76	0.321900	0.443700	0.410730
C771	C77	0.853100	0.492200	0.374080
C781	C78	0.045900	0.784500	0.880950
C791	C79	0.486900	0.675000	0.395380
C801	C80	0.398000	0.773100	0.986800
C811	C81	0.400200	0.684000	0.836560
C821	C82	0.496900	0.718500	0.351110
C831	C83	0.083600	0.735800	0.832440
C841	C84	0.820000	0.447100	0.290940
C851	C85	0.719400	0.098600	0.300600
C861	C86	0.449500	0.766800	0.349660
C871	C87	0.757700	0.379300	0.394390
C881	C88	0.846400	0.450450	0.550970
C891	C89	0.251100	0.999300	0.239170
C901	C90	0.324600	0.429300	0.539420
C911	C91	0.384800	0.774200	0.395200
C921	C92	0.219850	0.191600	0.374130
C931	C93	0.649600	0.224350	0.342610
C941	C94	0.054500	0.649600	0.296230
C951	C95	0.050900	0.694500	0.756020
C961	C96	0.263700	0.345310	0.504700
C971	C97	0.195100	0.772060	0.173960
C981	C98	0.263950	0.076520	0.305730
C991	C99	0.323900	0.414400	0.663010
C1001	C100	0.413100	0.539070	0.651240
C1011	C101	0.356200	0.463020	0.616800
C1021	C102	0.972600	0.698100	0.728330
C1031	C103	0.187600	0.699500	0.258010
C1041	C104	0.970200	0.792900	0.850000
C1051	C105	0.086700	0.829700	0.963300
C1061	C106	0.356350	0.180240	0.417660
C1071	C107	0.572400	0.000590	0.257560
C1081	C108	0.351100	0.737400	0.857010
C1091	C109	0.296150	0.222390	0.425950
C1101	C110	0.440000	0.579580	0.737380
C1111	C111	0.828200	0.455780	0.422450
C1121	C112	0.449300	0.722000	0.967070
C1131	C113	0.976200	0.605500	0.605280
C1141	C114	0.868100	0.492960	0.499400
C1151	C115	0.203750	0.118660	0.314020
C1161	C116	0.929700	0.610500	0.349860
C1171	C117	0.945200	0.608680	0.479540
C1181	C118	0.011100	0.676700	0.253790
C1191	C119	0.354900	0.470900	0.496510
C1201	C120	0.459800	0.809000	0.298400
C1211	C121	0.906900	0.569390	0.403310
C1221	C122	0.417100	0.544860	0.530710
C1231	C123	0.446900	0.580190	0.608660
C1241	C124	0.372100	0.732000	0.443500
C1251	C125	0.340250	0.107300	0.357550
C1261	C126	0.773800	0.178220	0.330800
C1271	C127	0.450600	0.678200	0.891860
C1281	C128	0.144400	0.726830	0.214620
C1291	C129	0.630800	0.083900	0.290730
C1301	C130	0.926700	0.569440	0.526610
C1311	C131	0.143300	0.661500	0.298260
C1321	C132	0.421700	0.682100	0.440300
O191	O19	0.017280	0.610820	0.337180
O201	O20	0.491260	0.990140	0.249590
O211	O21	0.403350	0.640870	0.484330
O221	O22	0.420070	0.857120	0.306040
O231	O23	0.054600	0.876320	0.006640
O241	O24	0.444640	0.817250	0.117780
O251	O25	0.931980	0.657950	0.654610
O261	O26	0.607010	0.946170	0.239390
O271	O27	0.795190	0.313440	0.374590
O281	O28	0.154380	0.797460	0.136950
O291	O29	0.344160	0.861290	0.084260
O301	O30	0.320580	0.295320	0.484710
O311	O31	0.187360	0.976250	0.187780
O321	O32	0.510630	0.790010	0.250970
O331	O33	0.395160	0.641240	0.760400
O341	O34	0.152290	0.816650	0.982730
O351	O35	0.276430	0.781900	0.181830
O361	O36	0.301290	0.959480	0.237200
