data_NIRMUW_clean_PM
_symmetry_space_group_name_H-M	'P1'
_cell_length_a	7.481000
_cell_length_b	8.336000
_cell_length_c	10.420000
_cell_angle_alpha	93.560000
_cell_angle_beta	105.390000
_cell_angle_gamma	109.350000
_symmetry_Int_Tables_number 1

loop_
_symmetry_equiv_pos_as_xyz
'x,y,z'

loop_
_atom_site_label
_atom_site_type_symbol
_atom_site_fract_x
_atom_site_fract_y
_atom_site_fract_z
Ba11	Ba1	0.312650	0.559410	0.627450
Ba21	Ba2	0.687350	0.440590	0.372550
H11	H1	0.814100	0.059600	0.196500
H21	H2	0.812100	0.103500	0.813600
H31	H3	0.238500	0.452300	0.119900
H41	H4	0.468900	0.706600	0.991900
H51	H5	0.185900	0.940400	0.803500
H61	H6	0.187900	0.896500	0.186400
H71	H7	0.761500	0.547700	0.880100
H81	H8	0.531100	0.293400	0.008100
C11	C1	0.037600	0.268900	0.180700
C21	C2	0.870500	0.117400	0.135200
C31	C3	0.788500	0.053200	0.997400
C41	C4	0.869900	0.144200	0.905700
C51	C5	0.036700	0.295400	0.951000
C61	C6	0.123100	0.354800	0.088800
C71	C7	0.124100	0.339100	0.330200
C81	C8	0.617700	0.889200	0.941300
C91	C9	0.120900	0.388900	0.849000
C101	C10	0.962400	0.731100	0.819300
C111	C11	0.129500	0.882600	0.864800
C121	C12	0.211500	0.946800	0.002600
C131	C13	0.130100	0.855800	0.094300
C141	C14	0.963300	0.704600	0.049000
C151	C15	0.876900	0.645200	0.911200
C161	C16	0.875900	0.660900	0.669800
C171	C17	0.382300	0.110800	0.058700
C181	C18	0.879100	0.611100	0.151000
O11	O1	0.311000	0.407200	0.377000
O21	O2	0.007400	0.325900	0.399400
O31	O3	0.558400	0.798000	0.030900
O41	O4	0.537900	0.842900	0.819300
O51	O5	0.023800	0.340200	0.727200
O61	O6	0.286700	0.511100	0.890100
O71	O7	0.689000	0.592800	0.623000
O81	O8	0.992600	0.674100	0.600600
O91	O9	0.441600	0.202000	0.969100
O101	O10	0.462100	0.157100	0.180700
O111	O11	0.976200	0.659800	0.272800
O121	O12	0.713300	0.488900	0.109900
