data_NIRMUW01_clean_PM
_symmetry_space_group_name_H-M	'P1'
_cell_length_a	9.162500
_cell_length_b	11.089000
_cell_length_c	12.906500
_cell_angle_alpha	115.371000
_cell_angle_beta	96.593000
_cell_angle_gamma	95.177000
_symmetry_Int_Tables_number 1

loop_
_symmetry_equiv_pos_as_xyz
'x,y,z'

loop_
_atom_site_label
_atom_site_type_symbol
_atom_site_fract_x
_atom_site_fract_y
_atom_site_fract_z
Ba11	Ba1	0.372110	0.372480	0.812970
Ba21	Ba2	0.127860	0.627500	0.687130
Ba31	Ba3	0.872140	0.372500	0.312870
Ba41	Ba4	0.627890	0.627520	0.187030
H11	H1	0.587800	0.801200	0.528100
H21	H2	0.800600	0.189600	0.699600
H31	H3	0.914800	0.198800	0.974100
H41	H4	0.460100	0.121900	0.917200
H51	H5	0.412200	0.198800	0.471900
H61	H6	0.832700	0.021000	0.139200
H71	H7	0.085200	0.801200	0.025900
H81	H8	0.167300	0.979000	0.860800
H91	H9	0.698800	0.811700	0.802100
H101	H10	0.962900	0.121200	0.417000
H111	H11	0.334200	0.016800	0.639600
H121	H12	0.539900	0.878100	0.082800
H131	H13	0.301200	0.188300	0.197900
H141	H14	0.665800	0.983200	0.360400
H151	H15	0.199400	0.810400	0.300400
H161	H16	0.037100	0.878800	0.583000
C11	C1	0.535400	0.059700	0.643400
C21	C2	0.446200	0.910800	0.089400
C31	C3	0.080500	0.150900	0.691400
C41	C4	0.823700	0.136000	0.942100
C51	C5	0.803300	0.094300	0.661300
C61	C6	0.967300	0.942300	0.857400
C71	C7	0.943600	0.911700	0.590100
C81	C8	0.441800	0.048200	0.144100
C91	C9	0.919500	0.849100	0.308600
C101	C10	0.322200	0.134600	0.440900
C111	C11	0.188600	0.180000	0.455400
C121	C12	0.061700	0.950700	0.355300
C131	C13	0.695200	0.906600	0.842700
C141	C14	0.464600	0.940300	0.356600
C151	C15	0.417700	0.848600	0.808800
C161	C16	0.327000	0.996900	0.381300
C171	C17	0.304800	0.093400	0.157300
C181	C18	0.032700	0.057700	0.142600
C191	C19	0.172500	0.002100	0.118500
C201	C20	0.315700	0.669200	0.977500
C211	C21	0.312700	0.819200	0.043500
C221	C22	0.687300	0.180800	0.956500
C231	C23	0.558200	0.951800	0.855900
C241	C24	0.553800	0.089200	0.910600
C251	C25	0.811400	0.820000	0.544600
C261	C26	0.827500	0.997900	0.881500
C271	C27	0.176300	0.864000	0.057900
C281	C28	0.582300	0.151400	0.191200
C291	C29	0.196700	0.905700	0.338700
C301	C30	0.677800	0.865400	0.559100
C311	C31	0.684300	0.330800	0.022500
C321	C32	0.181800	0.329200	0.521900
C331	C33	0.673000	0.003100	0.618700
C341	C34	0.938300	0.049300	0.644700
C351	C35	0.818200	0.670800	0.478100
C361	C36	0.056400	0.088300	0.409900
O11	O1	0.587400	0.031000	0.385900
O21	O2	0.913000	0.970000	0.114400
O31	O3	0.431300	0.727100	0.772500
O41	O4	0.568700	0.272900	0.227500
O51	O5	0.467600	0.819200	0.312000
O61	O6	0.030400	0.179800	0.187000
O71	O7	0.921300	0.623400	0.513200
O81	O8	0.705400	0.110100	0.193300
O91	O9	0.420300	0.623300	0.012900
O101	O10	0.412600	0.969000	0.614100
O111	O11	0.203800	0.110000	0.691900
O121	O12	0.796200	0.890000	0.308100
O131	O13	0.969600	0.820200	0.813000
O141	O14	0.282300	0.399200	0.609300
O151	O15	0.294600	0.889900	0.806700
O161	O16	0.087000	0.030000	0.885600
O171	O17	0.931400	0.726800	0.271400
O181	O18	0.579700	0.376700	0.987100
O191	O19	0.078700	0.376600	0.486800
O201	O20	0.068600	0.273200	0.728600
O211	O21	0.217200	0.600900	0.890600
O221	O22	0.532400	0.180800	0.688000
O231	O23	0.782800	0.399100	0.109400
O241	O24	0.717700	0.600800	0.390700
