data_NIRNAD_clean_PM
_symmetry_space_group_name_H-M	'P1'
_cell_length_a	7.266000
_cell_length_b	8.368000
_cell_length_c	10.163000
_cell_angle_alpha	94.810000
_cell_angle_beta	105.180000
_cell_angle_gamma	109.180000
_symmetry_Int_Tables_number 1

loop_
_symmetry_equiv_pos_as_xyz
'x,y,z'

loop_
_atom_site_label
_atom_site_type_symbol
_atom_site_fract_x
_atom_site_fract_y
_atom_site_fract_z
Sr11	Sr1	0.310400	0.552350	0.624820
Sr21	Sr2	0.689600	0.447650	0.375180
H11	H1	0.808800	0.062500	0.194900
H21	H2	0.801500	0.093100	0.802200
H31	H3	0.235400	0.455000	0.114400
H41	H4	0.542000	0.692000	0.005000
H51	H5	0.191200	0.937500	0.805100
H61	H6	0.198500	0.906900	0.197800
H71	H7	0.764600	0.545000	0.885600
H81	H8	0.458000	0.308000	0.995000
C11	C1	0.036700	0.272800	0.178700
C21	C2	0.866600	0.118100	0.131900
C31	C3	0.784700	0.048300	0.990700
C41	C4	0.863200	0.136900	0.896700
C51	C5	0.034500	0.292100	0.940900
C61	C6	0.119400	0.354800	0.082600
C71	C7	0.126000	0.347100	0.331700
C81	C8	0.612700	0.881400	0.933700
C91	C9	0.120600	0.381900	0.836600
C101	C10	0.963300	0.727200	0.821300
C111	C11	0.133400	0.881900	0.868100
C121	C12	0.215300	0.951700	0.009300
C131	C13	0.136800	0.863100	0.103300
C141	C14	0.965500	0.707900	0.059100
C151	C15	0.880600	0.645200	0.917400
C161	C16	0.874000	0.652900	0.668300
C171	C17	0.387300	0.118600	0.066300
C181	C18	0.879400	0.618100	0.163400
O11	O1	0.316500	0.409200	0.378500
O21	O2	0.004100	0.342900	0.400400
O31	O3	0.554400	0.792000	0.027000
O41	O4	0.532200	0.827700	0.809200
O51	O5	0.022700	0.333800	0.711600
O61	O6	0.294200	0.507200	0.879000
O71	O7	0.683500	0.590800	0.621500
O81	O8	0.995900	0.657100	0.599600
O91	O9	0.445600	0.208000	0.973000
O101	O10	0.467800	0.172300	0.190800
O111	O11	0.977300	0.666200	0.288400
O121	O12	0.705800	0.492800	0.121000
