data_NISBEX_clean_PM
_symmetry_space_group_name_H-M	'P1'
_cell_length_a	8.779400
_cell_length_b	12.401100
_cell_length_c	24.897100
_cell_angle_alpha	90.000000
_cell_angle_beta	90.000000
_cell_angle_gamma	92.262000
_symmetry_Int_Tables_number 1

loop_
_symmetry_equiv_pos_as_xyz
'x,y,z'

loop_
_atom_site_label
_atom_site_type_symbol
_atom_site_fract_x
_atom_site_fract_y
_atom_site_fract_z
La11	La1	0.245250	0.997960	0.991540
La21	La2	0.254750	0.002040	0.491540
La31	La3	0.754750	0.002040	0.008460
La41	La4	0.745250	0.997960	0.508460
H11	H1	0.410500	0.845600	0.823400
H21	H2	0.331100	0.945500	0.797900
H31	H3	0.097200	0.714500	0.853300
H41	H4	0.902900	0.566800	0.694000
H51	H5	0.548100	0.275200	0.705600
H61	H6	0.627200	0.369900	0.783700
H71	H7	0.897500	0.597900	0.855600
H81	H8	0.518100	0.327500	0.868200
H91	H9	0.375000	0.277900	0.961400
H101	H10	0.445200	0.335300	0.013200
H111	H11	0.397400	0.273100	0.568400
H121	H12	0.383000	0.200800	0.620800
H131	H13	0.089500	0.154400	0.323400
H141	H14	0.168900	0.054500	0.297900
H151	H15	0.402800	0.285500	0.353300
H161	H16	0.597100	0.433200	0.194000
H171	H17	0.951900	0.724800	0.205600
H181	H18	0.872800	0.630100	0.283700
H191	H19	0.602500	0.402100	0.355600
H201	H20	0.981900	0.672500	0.368200
H211	H21	0.125000	0.722100	0.461400
H221	H22	0.054800	0.664700	0.513200
H231	H23	0.102600	0.726900	0.068400
H241	H24	0.117000	0.799200	0.120800
H251	H25	0.589500	0.154400	0.176600
H261	H26	0.668900	0.054500	0.202100
H271	H27	0.902800	0.285500	0.146700
H281	H28	0.097100	0.433200	0.306000
H291	H29	0.451900	0.724800	0.294400
H301	H30	0.372800	0.630100	0.216300
H311	H31	0.102500	0.402100	0.144400
H321	H32	0.481900	0.672500	0.131800
H331	H33	0.625000	0.722100	0.038600
H341	H34	0.554800	0.664700	0.986800
H351	H35	0.602600	0.726900	0.431600
H361	H36	0.617000	0.799200	0.379200
H371	H37	0.910500	0.845600	0.676600
H381	H38	0.831100	0.945500	0.702100
H391	H39	0.597200	0.714500	0.646700
H401	H40	0.402900	0.566800	0.806000
H411	H41	0.048100	0.275200	0.794400
H421	H42	0.127200	0.369900	0.716300
H431	H43	0.397500	0.597900	0.644400
H441	H44	0.018100	0.327500	0.631800
H451	H45	0.875000	0.277900	0.538600
H461	H46	0.945200	0.335300	0.486800
H471	H47	0.897400	0.273100	0.931600
H481	H48	0.883000	0.200800	0.879200
C11	C1	0.272800	0.920900	0.876420
C21	C2	0.313900	0.882300	0.821000
C31	C3	0.035100	0.682900	0.773600
C41	C4	0.109000	0.731700	0.816700
C51	C5	0.918700	0.594600	0.774800
C61	C6	0.864600	0.544500	0.727600
C71	C7	0.752100	0.460500	0.731200
C81	C8	0.683600	0.410600	0.682600
C91	C9	0.583700	0.321600	0.678000
C101	C10	0.699400	0.427700	0.781400
C111	C11	0.751000	0.478600	0.828500
C121	C12	0.861600	0.562700	0.824400
C131	C13	0.689600	0.446000	0.880500
C141	C14	0.575000	0.370800	0.892500
C151	C15	0.559600	0.199100	0.991850
C161	C16	0.470500	0.299000	0.979600
C171	C17	0.552300	0.152900	0.570000
C181	C18	0.455700	0.236600	0.596100
C191	C19	0.227200	0.079100	0.376420
C201	C20	0.186100	0.117700	0.321000
C211	C21	0.464900	0.317100	0.273600
C221	C22	0.391000	0.268300	0.316700
C231	C23	0.581300	0.405400	0.274800
C241	C24	0.635400	0.455500	0.227600
C251	C25	0.747900	0.539500	0.231200
C261	C26	0.816400	0.589400	0.182600
C271	C27	0.916300	0.678400	0.178000
C281	C28	0.800600	0.572300	0.281400
C291	C29	0.749000	0.521400	0.328500
C301	C30	0.638400	0.437300	0.324400
C311	C31	0.810400	0.554000	0.380500
C321	C32	0.925000	0.629200	0.392500
C331	C33	0.940400	0.800900	0.491850
C341	C34	0.029500	0.701000	0.479600
C351	C35	0.947700	0.847100	0.070000
C361	C36	0.044300	0.763400	0.096100
C371	C37	0.727200	0.079100	0.123580
C381	C38	0.686100	0.117700	0.179000
C391	C39	0.964900	0.317100	0.226400
C401	C40	0.891000	0.268300	0.183300
C411	C41	0.081300	0.405400	0.225200
C421	C42	0.135400	0.455500	0.272400
C431	C43	0.247900	0.539500	0.268800
C441	C44	0.316400	0.589400	0.317400
C451	C45	0.416300	0.678400	0.322000
C461	C46	0.300600	0.572300	0.218600
C471	C47	0.249000	0.521400	0.171500
C481	C48	0.138400	0.437300	0.175600
C491	C49	0.310400	0.554000	0.119500
C501	C50	0.425000	0.629200	0.107500
C511	C51	0.440400	0.800900	0.008150
C521	C52	0.529500	0.701000	0.020400
C531	C53	0.447700	0.847100	0.430000
C541	C54	0.544300	0.763400	0.403900
C551	C55	0.772800	0.920900	0.623580
C561	C56	0.813900	0.882300	0.679000
C571	C57	0.535100	0.682900	0.726400
C581	C58	0.609000	0.731700	0.683300
C591	C59	0.418700	0.594600	0.725200
C601	C60	0.364600	0.544500	0.772400
C611	C61	0.252100	0.460500	0.768800
C621	C62	0.183600	0.410600	0.817400
C631	C63	0.083700	0.321600	0.822000
C641	C64	0.199400	0.427700	0.718600
C651	C65	0.251000	0.478600	0.671500
C661	C66	0.361600	0.562700	0.675600
C671	C67	0.189600	0.446000	0.619500
C681	C68	0.075000	0.370800	0.607500
C691	C69	0.059600	0.199100	0.508150
C701	C70	0.970500	0.299000	0.520400
C711	C71	0.052300	0.152900	0.930000
C721	C72	0.955700	0.236600	0.903900
N11	N1	0.201900	0.809400	0.795000
N21	N2	0.190300	0.808800	0.741450
N31	N3	0.088900	0.732300	0.728370
N41	N4	0.704900	0.453000	0.632930
N51	N5	0.622700	0.394800	0.598020
N61	N6	0.549400	0.316600	0.625630
N71	N7	0.561400	0.372400	0.945560
N81	N8	0.661900	0.444400	0.968050
N91	N9	0.739100	0.489900	0.927940
N101	N10	0.298100	0.190600	0.295000
N111	N11	0.309700	0.191200	0.241450
N121	N12	0.411100	0.267700	0.228370
N131	N13	0.795100	0.547000	0.132930
N141	N14	0.877300	0.605200	0.098020
N151	N15	0.950600	0.683400	0.125630
N161	N16	0.938600	0.627600	0.445560
N171	N17	0.838100	0.555600	0.468050
N181	N18	0.760900	0.510100	0.427940
N191	N19	0.798100	0.190600	0.205000
N201	N20	0.809700	0.191200	0.258550
N211	N21	0.911100	0.267700	0.271630
N221	N22	0.295100	0.547000	0.367070
N231	N23	0.377300	0.605200	0.401980
N241	N24	0.450600	0.683400	0.374370
N251	N25	0.438600	0.627600	0.054440
N261	N26	0.338100	0.555600	0.031950
N271	N27	0.260900	0.510100	0.072060
N281	N28	0.701900	0.809400	0.705000
N291	N29	0.690300	0.808800	0.758550
N301	N30	0.588900	0.732300	0.771630
N311	N31	0.204900	0.453000	0.867070
N321	N32	0.122700	0.394800	0.901980
N331	N33	0.049400	0.316600	0.874370
N341	N34	0.061400	0.372400	0.554440
N351	N35	0.161900	0.444400	0.531950
N361	N36	0.239100	0.489900	0.572060
O11	O1	0.381000	0.968900	0.901380
O21	O2	0.142700	0.908200	0.896500
O31	O3	0.701100	0.206200	0.997580
O41	O4	0.486300	0.109100	0.996360
O51	O5	0.691700	0.151600	0.577940
O61	O6	0.483600	0.083800	0.538840
O71	O7	0.119000	0.031100	0.401380
O81	O8	0.357300	0.091800	0.396500
O91	O9	0.798900	0.793800	0.497580
O101	O10	0.013700	0.890900	0.496360
O111	O11	0.808300	0.848400	0.077940
O121	O12	0.016400	0.916200	0.038840
O131	O13	0.619000	0.031100	0.098620
O141	O14	0.857300	0.091800	0.103500
O151	O15	0.298900	0.793800	0.002420
O161	O16	0.513700	0.890900	0.003640
O171	O17	0.308300	0.848400	0.422060
O181	O18	0.516400	0.916200	0.461160
O191	O19	0.881000	0.968900	0.598620
O201	O20	0.642700	0.908200	0.603500
O211	O21	0.201100	0.206200	0.502420
O221	O22	0.986300	0.109100	0.503640
O231	O23	0.191700	0.151600	0.922060
O241	O24	0.983600	0.083800	0.961160
