data_NISPEL_charged_PM
_symmetry_space_group_name_H-M	'P1'
_cell_length_a	8.577000
_cell_length_b	13.687700
_cell_length_c	25.822000
_cell_angle_alpha	92.301900
_cell_angle_beta	90.000000
_cell_angle_gamma	108.259000
_symmetry_Int_Tables_number 1

loop_
_symmetry_equiv_pos_as_xyz
'x,y,z'

loop_
_atom_site_label
_atom_site_type_symbol
_atom_site_fract_x
_atom_site_fract_y
_atom_site_fract_z
Zn11	Zn1	0.315730	0.717560	0.891720
Zn21	Zn2	0.763620	0.541180	0.001620
Zn31	Zn3	0.598170	0.282440	0.608280
Zn41	Zn4	0.222440	0.458820	0.498380
Zn51	Zn5	0.684270	0.282440	0.108280
Zn61	Zn6	0.236380	0.458820	0.998380
Zn71	Zn7	0.401830	0.717560	0.391720
Zn81	Zn8	0.777560	0.541180	0.501620
P11	P1	0.132710	0.665680	0.000850
P21	P2	0.511600	0.549480	0.912030
P31	P3	0.467030	0.334320	0.499150
P41	P4	0.962120	0.450520	0.587970
P51	P5	0.867290	0.334320	0.999150
P61	P6	0.488400	0.450520	0.087970
P71	P7	0.532970	0.665680	0.500850
P81	P8	0.037880	0.549480	0.412030
H11	H1	0.110400	0.857000	0.044400
H21	H2	0.291500	0.007200	0.078700
H31	H3	0.659400	0.894000	0.054000
H41	H4	0.473600	0.738800	0.024700
H51	H5	0.633700	0.385400	0.884800
H61	H6	0.639600	0.287000	0.810300
H71	H7	0.455800	0.462000	0.729700
H81	H8	0.449900	0.562000	0.804300
H91	H9	0.253400	0.143000	0.455600
H101	H10	0.284300	0.992800	0.421300
H111	H11	0.765400	0.106000	0.446000
H121	H12	0.734800	0.261200	0.475300
H131	H13	0.248300	0.614600	0.615200
H141	H14	0.352600	0.713000	0.689700
H151	H15	0.993800	0.538000	0.770300
H161	H16	0.887900	0.438000	0.695700
H171	H17	0.889600	0.143000	0.955600
H181	H18	0.708500	0.992800	0.921300
H191	H19	0.340600	0.106000	0.946000
H201	H20	0.526400	0.261200	0.975300
H211	H21	0.366300	0.614600	0.115200
H221	H22	0.360400	0.713000	0.189700
H231	H23	0.544200	0.538000	0.270300
H241	H24	0.550100	0.438000	0.195700
H251	H25	0.746600	0.857000	0.544400
H261	H26	0.715700	0.007200	0.578700
H271	H27	0.234600	0.894000	0.554000
H281	H28	0.265200	0.738800	0.524700
H291	H29	0.751700	0.385400	0.384800
H301	H30	0.647400	0.287000	0.310300
H311	H31	0.006200	0.462000	0.229700
H321	H32	0.112100	0.562000	0.304300
C11	C1	0.272230	0.782460	0.029580
C21	C2	0.221400	0.863400	0.046500
C31	C3	0.330600	0.954400	0.066500
C41	C4	0.495350	0.967900	0.068700
C51	C5	0.548000	0.887000	0.052600
C61	C6	0.436100	0.793800	0.034100
C71	C7	0.612120	0.069840	0.087500
C81	C8	0.531870	0.480740	0.852630
C91	C9	0.594800	0.401400	0.853700
C101	C10	0.601700	0.343400	0.808500
C111	C11	0.554700	0.367400	0.762660
C121	C12	0.493800	0.446200	0.761100
C131	C13	0.486600	0.505200	0.806400
C141	C14	0.575700	0.308600	0.714000
C151	C15	0.489770	0.217540	0.470420
C161	C16	0.358000	0.136600	0.453500
C171	C17	0.376200	0.045600	0.433500
C181	C18	0.527450	0.032100	0.431300
C191	C19	0.661000	0.113000	0.447400
C201	C20	0.642300	0.206200	0.465900
C211	C21	0.542280	0.930160	0.412500
C221	C22	0.051130	0.519260	0.647370
C231	C23	0.193400	0.598600	0.646300
C241	C24	0.258300	0.656600	0.691500
C251	C25	0.187300	0.632600	0.737340
C261	C26	0.047600	0.553800	0.738900
C271	C27	0.981400	0.494800	0.693600
C281	C28	0.267100	0.691400	0.786000
C291	C29	0.727770	0.217540	0.970420
C301	C30	0.778600	0.136600	0.953500
C311	C31	0.669400	0.045600	0.933500
C321	C32	0.504650	0.032100	0.931300
C331	C33	0.452000	0.113000	0.947400
C341	C34	0.563900	0.206200	0.965900
C351	C35	0.387880	0.930160	0.912500
C361	C36	0.468130	0.519260	0.147370
C371	C37	0.405200	0.598600	0.146300
C381	C38	0.398300	0.656600	0.191500
C391	C39	0.445300	0.632600	0.237340
C401	C40	0.506200	0.553800	0.238900
C411	C41	0.513400	0.494800	0.193600
C421	C42	0.424300	0.691400	0.286000
C431	C43	0.510230	0.782460	0.529580
C441	C44	0.642000	0.863400	0.546500
C451	C45	0.623800	0.954400	0.566500
C461	C46	0.472550	0.967900	0.568700
C471	C47	0.339000	0.887000	0.552600
C481	C48	0.357700	0.793800	0.534100
C491	C49	0.457720	0.069840	0.587500
C501	C50	0.948870	0.480740	0.352630
C511	C51	0.806600	0.401400	0.353700
C521	C52	0.741700	0.343400	0.308500
C531	C53	0.812700	0.367400	0.262660
C541	C54	0.952400	0.446200	0.261100
C551	C55	0.018600	0.505200	0.306400
C561	C56	0.732900	0.308600	0.214000
O11	O1	0.142310	0.673020	0.942610
O21	O2	0.959750	0.659100	0.018540
O31	O3	0.187570	0.579740	0.021180
O41	O4	0.549730	0.140660	0.095030
O51	O5	0.762250	0.080300	0.093450
O61	O6	0.677960	0.581920	0.939710
O71	O7	0.381310	0.472420	0.940980
O81	O8	0.470680	0.643560	0.897350
O91	O9	0.648500	0.244000	0.716300
O101	O10	0.523680	0.332760	0.672310
O111	O11	0.469290	0.326980	0.557390
O121	O12	0.300650	0.340900	0.481460
O131	O13	0.607830	0.420260	0.478820
O141	O14	0.409070	0.859340	0.404970
O151	O15	0.681950	0.919700	0.406550
O161	O16	0.096040	0.418080	0.560290
O171	O17	0.908890	0.527580	0.559020
O181	O18	0.827120	0.356440	0.602650
O191	O19	0.404500	0.756000	0.783700
O201	O20	0.190920	0.667240	0.827690
O211	O21	0.857690	0.326980	0.057390
O221	O22	0.040250	0.340900	0.981460
O231	O23	0.812430	0.420260	0.978820
O241	O24	0.450270	0.859340	0.904970
O251	O25	0.237750	0.919700	0.906550
O261	O26	0.322040	0.418080	0.060290
O271	O27	0.618690	0.527580	0.059020
O281	O28	0.529320	0.356440	0.102650
O291	O29	0.351500	0.756000	0.283700
O301	O30	0.476320	0.667240	0.327690
O311	O31	0.530710	0.673020	0.442610
O321	O32	0.699350	0.659100	0.518540
O331	O33	0.392170	0.579740	0.521180
O341	O34	0.590930	0.140660	0.595030
O351	O35	0.318050	0.080300	0.593450
O361	O36	0.903960	0.581920	0.439710
O371	O37	0.091110	0.472420	0.440980
O381	O38	0.172880	0.643560	0.397350
O391	O39	0.595500	0.244000	0.216300
O401	O40	0.809080	0.332760	0.172310
H331	H33	0.152400	0.297600	0.080600
H341	H34	0.992500	0.221400	0.085900
H351	H35	0.092000	0.281400	0.164600
H361	H36	0.075800	0.164200	0.158300
H371	H37	0.247500	0.247800	0.152700
H381	H38	0.125200	0.169000	0.022300
H391	H39	0.268400	0.175200	0.061300
H401	H40	0.096200	0.092400	0.067500
C571	C57	0.131700	0.231600	0.146400
C581	C58	0.152000	0.161400	0.057700
N11	N1	0.100900	0.233600	0.090900
H411	H41	0.854800	0.702400	0.419400
H421	H42	0.771100	0.778600	0.414100
H431	H43	0.810600	0.718600	0.335400
H441	H44	0.911600	0.835800	0.341700
H451	H45	0.999700	0.752200	0.347300
H461	H46	0.956200	0.831000	0.477700
H471	H47	0.093200	0.824800	0.438700
H481	H48	0.003800	0.907600	0.432500
C591	C59	0.900100	0.768400	0.353600
C601	C60	0.990600	0.838600	0.442300
N21	N2	0.867300	0.766400	0.409100
H491	H49	0.847600	0.702400	0.919400
H501	H50	0.007500	0.778600	0.914100
H511	H51	0.908000	0.718600	0.835400
H521	H52	0.924200	0.835800	0.841700
H531	H53	0.752500	0.752200	0.847300
H541	H54	0.874800	0.831000	0.977700
H551	H55	0.731600	0.824800	0.938700
H561	H56	0.903800	0.907600	0.932500
C611	C61	0.868300	0.768400	0.853600
C621	C62	0.848000	0.838600	0.942300
N31	N3	0.899100	0.766400	0.909100
H571	H57	0.145200	0.297600	0.580600
H581	H58	0.228900	0.221400	0.585900
H591	H59	0.189400	0.281400	0.664600
H601	H60	0.088400	0.164200	0.658300
H611	H61	0.000300	0.247800	0.652700
H621	H62	0.043800	0.169000	0.522300
H631	H63	0.906800	0.175200	0.561300
H641	H64	0.996200	0.092400	0.567500
C631	C63	0.099900	0.231600	0.646400
C641	C64	0.009400	0.161400	0.557700
N41	N4	0.132700	0.233600	0.590900
