data_NITADY_clean_PM
_symmetry_space_group_name_H-M	'P1'
_cell_length_a	21.535000
_cell_length_b	9.028000
_cell_length_c	12.186000
_cell_angle_alpha	90.000000
_cell_angle_beta	90.000000
_cell_angle_gamma	90.000000
_symmetry_Int_Tables_number 1

loop_
_symmetry_equiv_pos_as_xyz
'x,y,z'

loop_
_atom_site_label
_atom_site_type_symbol
_atom_site_fract_x
_atom_site_fract_y
_atom_site_fract_z
C11	C1	0.995700	0.794900	0.796700
C21	C2	0.006800	0.956000	0.754600
C31	C3	0.036300	0.632700	0.937200
C41	C4	0.081000	0.646000	0.036300
C51	C5	0.942600	0.775900	0.967500
C61	C6	0.915300	0.936400	0.981900
C71	C7	0.254700	0.260300	0.361600
C81	C8	0.250000	0.412800	0.424400
C91	C9	0.240200	0.141500	0.190500
C101	C10	0.171900	0.161100	0.156800
C111	C11	0.329400	0.305600	0.218400
C121	C12	0.344400	0.465900	0.194100
Dy11	Dy1	0.061200	0.998700	0.000000
Dy21	Dy2	0.195500	0.499400	0.186600
N11	N1	0.004100	0.777200	0.912900
N21	N2	0.262500	0.276400	0.246000
O11	O1	0.041500	0.037400	0.813200
O21	O2	0.983400	0.994800	0.670000
O31	O3	0.088900	0.774100	0.074800
O41	O4	0.108000	0.531000	0.062500
O51	O5	0.953000	0.045600	0.979700
O61	O6	0.858400	0.945500	0.991200
O71	O7	0.226900	0.515800	0.374800
O81	O8	0.270200	0.410600	0.519800
O91	O9	0.145000	0.272300	0.179600
O101	O10	0.149100	0.049600	0.106700
O111	O11	0.301900	0.557000	0.185000
O121	O12	0.399700	0.498800	0.181100
C131	C13	0.004300	0.205100	0.296700
C141	C14	0.993200	0.044000	0.254600
C151	C15	0.963700	0.367300	0.437200
C161	C16	0.919000	0.354000	0.536300
C171	C17	0.057400	0.224100	0.467500
C181	C18	0.084700	0.063600	0.481900
C191	C19	0.745300	0.739700	0.861600
C201	C20	0.750000	0.587200	0.924400
C211	C21	0.759800	0.858500	0.690500
C221	C22	0.828100	0.838900	0.656800
C231	C23	0.670600	0.694400	0.718400
C241	C24	0.655600	0.534100	0.694100
Dy31	Dy3	0.938800	0.001300	0.500000
Dy41	Dy4	0.804500	0.500600	0.686600
N31	N3	0.995900	0.222800	0.412900
N41	N4	0.737500	0.723600	0.746000
O131	O13	0.958500	0.962600	0.313200
O141	O14	0.016600	0.005200	0.170000
O151	O15	0.911100	0.225900	0.574800
O161	O16	0.892000	0.469000	0.562500
O171	O17	0.047000	0.954400	0.479700
O181	O18	0.141600	0.054500	0.491200
O191	O19	0.773100	0.484200	0.874800
O201	O20	0.729800	0.589400	0.019800
O211	O21	0.855000	0.727700	0.679600
O221	O22	0.850900	0.950400	0.606700
O231	O23	0.698100	0.443000	0.685000
O241	O24	0.600300	0.501200	0.681100
C251	C25	0.495700	0.205100	0.796700
C261	C26	0.506800	0.044000	0.754600
C271	C27	0.536300	0.367300	0.937200
C281	C28	0.581000	0.354000	0.036300
C291	C29	0.442600	0.224100	0.967500
C301	C30	0.415300	0.063600	0.981900
C311	C31	0.754700	0.739700	0.361600
C321	C32	0.750000	0.587200	0.424400
C331	C33	0.740200	0.858500	0.190500
C341	C34	0.671900	0.838900	0.156800
C351	C35	0.829400	0.694400	0.218400
C361	C36	0.844400	0.534100	0.194100
Dy51	Dy5	0.561200	0.001300	0.000000
Dy61	Dy6	0.695500	0.500600	0.186600
N51	N5	0.504100	0.222800	0.912900
N61	N6	0.762500	0.723600	0.246000
O251	O25	0.541500	0.962600	0.813200
O261	O26	0.483400	0.005200	0.670000
O271	O27	0.588900	0.225900	0.074800
O281	O28	0.608000	0.469000	0.062500
O291	O29	0.453000	0.954400	0.979700
O301	O30	0.358400	0.054500	0.991200
O311	O31	0.726900	0.484200	0.374800
O321	O32	0.770200	0.589400	0.519800
O331	O33	0.645000	0.727700	0.179600
O341	O34	0.649100	0.950400	0.106700
O351	O35	0.801900	0.443000	0.185000
O361	O36	0.899700	0.501200	0.181100
C371	C37	0.504300	0.794900	0.296700
C381	C38	0.493200	0.956000	0.254600
C391	C39	0.463700	0.632700	0.437200
C401	C40	0.419000	0.646000	0.536300
C411	C41	0.557400	0.775900	0.467500
C421	C42	0.584700	0.936400	0.481900
C431	C43	0.245300	0.260300	0.861600
C441	C44	0.250000	0.412800	0.924400
C451	C45	0.259800	0.141500	0.690500
C461	C46	0.328100	0.161100	0.656800
C471	C47	0.170600	0.305600	0.718400
C481	C48	0.155600	0.465900	0.694100
Dy71	Dy7	0.438800	0.998700	0.500000
Dy81	Dy8	0.304500	0.499400	0.686600
N71	N7	0.495900	0.777200	0.412900
N81	N8	0.237500	0.276400	0.746000
O371	O37	0.458500	0.037400	0.313200
O381	O38	0.516600	0.994800	0.170000
O391	O39	0.411100	0.774100	0.574800
O401	O40	0.392000	0.531000	0.562500
O411	O41	0.547000	0.045600	0.479700
O421	O42	0.641600	0.945500	0.491200
O431	O43	0.273100	0.515800	0.874800
O441	O44	0.229800	0.410600	0.019800
O451	O45	0.355000	0.272300	0.679600
O461	O46	0.350900	0.049600	0.606700
O471	O47	0.198100	0.557000	0.685000
O481	O48	0.100300	0.498800	0.681100
