data_NIVNOW_clean_PM
_symmetry_space_group_name_H-M	'P1'
_cell_length_a	11.512000
_cell_length_b	14.780000
_cell_length_c	15.174600
_cell_angle_alpha	119.144000
_cell_angle_beta	105.968000
_cell_angle_gamma	90.000000
_symmetry_Int_Tables_number 1

loop_
_symmetry_equiv_pos_as_xyz
'x,y,z'

loop_
_atom_site_label
_atom_site_type_symbol
_atom_site_fract_x
_atom_site_fract_y
_atom_site_fract_z
Cu11	Cu1	0.500000	0.000000	0.500000
Cu21	Cu2	0.500000	0.500000	0.500000
Cu31	Cu3	0.000000	0.000000	0.500000
Cu41	Cu4	0.000000	0.500000	0.500000
Cu51	Cu5	0.000000	0.764500	0.000000
Cu61	Cu6	0.000000	0.235500	0.000000
H11	H1	0.504000	0.156800	0.726800
H21	H2	0.364500	0.221700	0.818000
H31	H3	0.160000	0.155700	0.727400
H41	H4	0.238100	0.983100	0.467200
H51	H5	0.496000	0.430000	0.273200
H61	H6	0.635500	0.403700	0.182000
H71	H7	0.840000	0.428300	0.272600
H81	H8	0.761900	0.515900	0.532800
H91	H9	0.496000	0.843200	0.273200
H101	H10	0.635500	0.778300	0.182000
H111	H11	0.840000	0.844300	0.272600
H121	H12	0.761900	0.016900	0.532800
H131	H13	0.504000	0.570000	0.726800
H141	H14	0.364500	0.596300	0.818000
H151	H15	0.160000	0.571700	0.727400
H161	H16	0.238100	0.484100	0.467200
W11	W1	0.200640	0.150350	0.300700
W21	W2	0.799360	0.849650	0.699300
W31	W3	0.141860	0.638320	0.276640
W41	W4	0.858140	0.361680	0.723360
C11	C1	0.331600	0.070600	0.356200
C21	C2	0.116300	0.994820	0.172640
C31	C3	0.082700	0.080190	0.347380
C41	C4	0.093000	0.697550	0.168900
C51	C5	0.290300	0.768320	0.359640
C61	C6	0.079200	0.780490	0.374980
C71	C7	0.420700	0.133100	0.691000
C81	C8	0.338500	0.171300	0.746200
C91	C9	0.217100	0.132500	0.691400
C101	C10	0.264300	0.031110	0.539820
C111	C11	0.668400	0.714400	0.643800
C121	C12	0.883700	0.822180	0.827360
C131	C13	0.917300	0.732810	0.652620
C141	C14	0.907000	0.528650	0.831100
C151	C15	0.709700	0.408680	0.640360
C161	C16	0.920800	0.405510	0.625020
C171	C17	0.579300	0.442100	0.309000
C181	C18	0.661500	0.425100	0.253800
C191	C19	0.782900	0.441100	0.308600
C201	C20	0.735700	0.491290	0.460180
C211	C21	0.668400	0.929400	0.643800
C221	C22	0.883700	0.005180	0.827360
C231	C23	0.917300	0.919810	0.652620
C241	C24	0.907000	0.302450	0.831100
C251	C25	0.709700	0.231680	0.640360
C261	C26	0.920800	0.219510	0.625020
C271	C27	0.579300	0.866900	0.309000
C281	C28	0.661500	0.828700	0.253800
C291	C29	0.782900	0.867500	0.308600
C301	C30	0.735700	0.968890	0.460180
C311	C31	0.331600	0.285600	0.356200
C321	C32	0.116300	0.177820	0.172640
C331	C33	0.082700	0.267190	0.347380
C341	C34	0.093000	0.471350	0.168900
C351	C35	0.290300	0.591320	0.359640
C361	C36	0.079200	0.594490	0.374980
C371	C37	0.420700	0.557900	0.691000
C381	C38	0.338500	0.574900	0.746200
C391	C39	0.217100	0.558900	0.691400
C401	C40	0.264300	0.508710	0.539820
C411	C41	0.315800	0.099000	0.198000
C421	C42	0.257300	0.236300	0.472600
C431	C43	0.684200	0.901000	0.802000
C441	C44	0.742700	0.763700	0.527400
C451	C45	0.266500	0.592800	0.185600
C461	C46	0.942700	0.605500	0.211000
C471	C47	0.733500	0.407200	0.814400
C481	C48	0.057300	0.394500	0.789000
N11	N1	0.400000	0.033780	0.393360
N21	N2	0.073000	0.911680	0.105760
N31	N3	0.027500	0.040180	0.374160
N41	N4	0.064800	0.725060	0.109520
N51	N5	0.368500	0.836640	0.402680
N61	N6	0.047400	0.857650	0.422100
N71	N7	0.383300	0.063060	0.587520
N81	N8	0.178900	0.062260	0.587720
N91	N9	0.600000	0.640420	0.606640
N101	N10	0.927000	0.805920	0.894240
N111	N11	0.972500	0.666020	0.625840
N121	N12	0.935200	0.615540	0.890480
N131	N13	0.631500	0.433960	0.597320
N141	N14	0.952600	0.435550	0.577900
N151	N15	0.616700	0.475540	0.412480
N161	N16	0.821100	0.474540	0.412280
N171	N17	0.600000	0.966220	0.606640
N181	N18	0.927000	0.088320	0.894240
N191	N19	0.972500	0.959820	0.625840
N201	N20	0.935200	0.274940	0.890480
N211	N21	0.631500	0.163360	0.597320
N221	N22	0.952600	0.142350	0.577900
N231	N23	0.616700	0.936940	0.412480
N241	N24	0.821100	0.937740	0.412280
N251	N25	0.400000	0.359580	0.393360
N261	N26	0.073000	0.194080	0.105760
N271	N27	0.027500	0.333980	0.374160
N281	N28	0.064800	0.384460	0.109520
N291	N29	0.368500	0.566040	0.402680
N301	N30	0.047400	0.564450	0.422100
N311	N31	0.383300	0.524460	0.587520
N321	N32	0.178900	0.525460	0.587720
N331	N33	0.376100	0.073400	0.146800
N341	N34	0.287700	0.282000	0.564000
N351	N35	0.623900	0.926600	0.853200
N361	N36	0.712300	0.718000	0.436000
N371	N37	0.332500	0.568400	0.136800
N381	N38	0.839800	0.587800	0.175600
N391	N39	0.667500	0.431600	0.863200
N401	N40	0.160200	0.412200	0.824400
