data_NIVNUC_clean_PM
_symmetry_space_group_name_H-M	'P1'
_cell_length_a	11.516000
_cell_length_b	14.777600
_cell_length_c	15.274900
_cell_angle_alpha	118.929000
_cell_angle_beta	106.292000
_cell_angle_gamma	90.000000
_symmetry_Int_Tables_number 1

loop_
_symmetry_equiv_pos_as_xyz
'x,y,z'

loop_
_atom_site_label
_atom_site_type_symbol
_atom_site_fract_x
_atom_site_fract_y
_atom_site_fract_z
Cu11	Cu1	0.500000	0.500000	0.500000
Cu21	Cu2	0.500000	0.000000	0.500000
Cu31	Cu3	0.000000	0.500000	0.500000
Cu41	Cu4	0.000000	0.000000	0.500000
Cu51	Cu5	0.000000	0.264240	0.000000
Cu61	Cu6	0.000000	0.735760	0.000000
H11	H1	0.506000	0.657400	0.725400
H21	H2	0.366900	0.718600	0.817400
H31	H3	0.160900	0.653900	0.726200
H41	H4	0.237300	0.485400	0.468000
H51	H5	0.494000	0.932000	0.274600
H61	H6	0.633100	0.901200	0.182600
H71	H7	0.839100	0.927700	0.273800
H81	H8	0.762700	0.017400	0.532000
H91	H9	0.494000	0.342600	0.274600
H101	H10	0.633100	0.281400	0.182600
H111	H11	0.839100	0.346100	0.273800
H121	H12	0.762700	0.514600	0.532000
H131	H13	0.506000	0.068000	0.725400
H141	H14	0.366900	0.098800	0.817400
H151	H15	0.160900	0.072300	0.726200
H161	H16	0.237300	0.982600	0.468000
W11	W1	0.198480	0.650510	0.301020
W21	W2	0.801520	0.349490	0.698980
W31	W3	0.140180	0.138420	0.276840
W41	W4	0.859820	0.861580	0.723160
C11	C1	0.330200	0.570580	0.356960
C21	C2	0.114200	0.494960	0.172920
C31	C3	0.080700	0.579750	0.347100
C41	C4	0.089600	0.196550	0.168100
C51	C5	0.288800	0.268310	0.359020
C61	C6	0.078000	0.280450	0.374100
C71	C7	0.422600	0.633160	0.690120
C81	C8	0.340300	0.669740	0.745480
C91	C9	0.218000	0.631370	0.690740
C101	C10	0.264300	0.532480	0.540360
C111	C11	0.669800	0.213620	0.643040
C121	C12	0.885800	0.322040	0.827080
C131	C13	0.919300	0.232650	0.652900
C141	C14	0.910400	0.028450	0.831900
C151	C15	0.711200	0.909290	0.640980
C161	C16	0.922000	0.906350	0.625900
C171	C17	0.577400	0.943040	0.309880
C181	C18	0.659700	0.924260	0.254520
C191	C19	0.782000	0.940630	0.309260
C201	C20	0.735700	0.992120	0.459640
C211	C21	0.669800	0.429420	0.643040
C221	C22	0.885800	0.505040	0.827080
C231	C23	0.919300	0.420250	0.652900
C241	C24	0.910400	0.803450	0.831900
C251	C25	0.711200	0.731690	0.640980
C261	C26	0.922000	0.719550	0.625900
C271	C27	0.577400	0.366840	0.309880
C281	C28	0.659700	0.330260	0.254520
C291	C29	0.782000	0.368630	0.309260
C301	C30	0.735700	0.467520	0.459640
C311	C31	0.330200	0.786380	0.356960
C321	C32	0.114200	0.677960	0.172920
C331	C33	0.080700	0.767350	0.347100
C341	C34	0.089600	0.971550	0.168100
C351	C35	0.288800	0.090710	0.359020
C361	C36	0.078000	0.093650	0.374100
C371	C37	0.422600	0.056960	0.690120
C381	C38	0.340300	0.075740	0.745480
C391	C39	0.218000	0.059370	0.690740
C401	C40	0.264300	0.007880	0.540360
C411	C41	0.311400	0.599800	0.199600
C421	C42	0.256000	0.736000	0.472000
C431	C43	0.688600	0.400200	0.800400
C441	C44	0.744000	0.264000	0.528000
C451	C45	0.264700	0.092800	0.185600
C461	C46	0.942100	0.105700	0.211400
C471	C47	0.735300	0.907200	0.814400
C481	C48	0.057900	0.894300	0.788600
N11	N1	0.399800	0.534190	0.393720
N21	N2	0.071000	0.411790	0.106980
N31	N3	0.025300	0.539460	0.373320
N41	N4	0.061500	0.223960	0.108720
N51	N5	0.367700	0.337390	0.402380
N61	N6	0.047500	0.357980	0.422300
N71	N7	0.384600	0.563870	0.587540
N81	N8	0.180000	0.562590	0.587800
N91	N9	0.600200	0.140470	0.606280
N101	N10	0.929000	0.304810	0.893020
N111	N11	0.974700	0.166140	0.626680
N121	N12	0.938500	0.115240	0.891280
N131	N13	0.632300	0.935010	0.597620
N141	N14	0.952500	0.935680	0.577700
N151	N15	0.615400	0.976330	0.412460
N161	N16	0.820000	0.974790	0.412200
N171	N17	0.600200	0.465810	0.606280
N181	N18	0.929000	0.588210	0.893020
N191	N19	0.974700	0.460540	0.626680
N201	N20	0.938500	0.776040	0.891280
N211	N21	0.632300	0.662610	0.597620
N221	N22	0.952500	0.642020	0.577700
N231	N23	0.615400	0.436130	0.412460
N241	N24	0.820000	0.437410	0.412200
N251	N25	0.399800	0.859530	0.393720
N261	N26	0.071000	0.695190	0.106980
N271	N27	0.025300	0.833860	0.373320
N281	N28	0.061500	0.884760	0.108720
N291	N29	0.367700	0.064990	0.402380
N301	N30	0.047500	0.064320	0.422300
N311	N31	0.384600	0.023670	0.587540
N321	N32	0.180000	0.025210	0.587800
N331	N33	0.369300	0.572500	0.145000
N341	N34	0.287100	0.781180	0.562360
N351	N35	0.630700	0.427500	0.855000
N361	N36	0.712900	0.218820	0.437640
N371	N37	0.332400	0.069700	0.139400
N381	N38	0.837300	0.088900	0.177800
N391	N39	0.667600	0.930300	0.860600
N401	N40	0.162700	0.911100	0.822200
