data_NIVWIY_clean_PM
_symmetry_space_group_name_H-M	'P1'
_cell_length_a	4.793100
_cell_length_b	7.894100
_cell_length_c	8.531500
_cell_angle_alpha	117.558000
_cell_angle_beta	90.000000
_cell_angle_gamma	90.000000
_symmetry_Int_Tables_number 1

loop_
_symmetry_equiv_pos_as_xyz
'x,y,z'

loop_
_atom_site_label
_atom_site_type_symbol
_atom_site_fract_x
_atom_site_fract_y
_atom_site_fract_z
Gd11	Gd1	0.500000	0.792820	0.585640
Gd21	Gd2	0.500000	0.207180	0.414360
C11	C1	0.000000	0.417100	0.449800
C21	C2	0.000000	0.967300	0.550200
C31	C3	0.500000	0.896600	0.000000
C41	C4	0.500000	0.091700	0.000000
O11	O1	0.764400	0.499500	0.491600
O21	O2	0.235600	0.007900	0.508400
O31	O3	0.764400	0.007900	0.508400
O41	O4	0.235600	0.499500	0.491600
O51	O5	0.500000	0.902400	0.149000
O61	O6	0.500000	0.239500	0.146600
O71	O7	0.500000	0.753400	0.851000
O81	O8	0.500000	0.092900	0.853400
O91	O9	0.000000	0.232700	0.361200
O101	O10	0.000000	0.871500	0.638800
