data_NIWZIE09_clean_PM
_symmetry_space_group_name_H-M	'P1'
_cell_length_a	12.569300
_cell_length_b	12.569300
_cell_length_c	8.221600
_cell_angle_alpha	90.000000
_cell_angle_beta	90.000000
_cell_angle_gamma	120.000000
_symmetry_Int_Tables_number 1

loop_
_symmetry_equiv_pos_as_xyz
'x,y,z'

loop_
_atom_site_label
_atom_site_type_symbol
_atom_site_fract_x
_atom_site_fract_y
_atom_site_fract_z
Mg11	Mg1	0.334310	0.332300	0.587470
O11	O1	0.423310	0.264520	0.442070
O21	O2	0.424200	0.155670	0.229980
O31	O3	0.400280	0.489030	0.440950
O41	O4	0.507660	0.599670	0.228880
O51	O5	0.176060	0.240590	0.444630
O61	O6	0.069230	0.245350	0.232410
C11	C1	0.373030	0.186610	0.333900
H11	H1	0.286800	0.146500	0.329800
C21	C2	0.476450	0.516040	0.329900
H21	H2	0.514400	0.468100	0.321500
C31	C3	0.143380	0.293320	0.346600
H31	H3	0.178200	0.378600	0.359600
Mg21	Mg2	0.667700	0.002010	0.587470
O71	O7	0.735480	0.158790	0.442070
O81	O8	0.844330	0.268530	0.229980
O91	O9	0.510970	0.911250	0.440950
O101	O10	0.400330	0.907990	0.228880
O111	O11	0.759410	0.935470	0.444630
O121	O12	0.754650	0.823880	0.232410
C41	C4	0.813390	0.186420	0.333900
H41	H4	0.853500	0.140300	0.329800
C51	C5	0.483960	0.960410	0.329900
H51	H5	0.531900	0.046300	0.321500
C61	C6	0.706680	0.850060	0.346600
H61	H6	0.621400	0.799600	0.359600
Mg31	Mg3	0.997990	0.665690	0.587470
O131	O13	0.841210	0.576690	0.442070
O141	O14	0.731470	0.575800	0.229980
O151	O15	0.088750	0.599720	0.440950
O161	O16	0.092010	0.492340	0.228880
O171	O17	0.064530	0.823940	0.444630
O181	O18	0.176120	0.930770	0.232410
C71	C7	0.813580	0.626970	0.333900
H71	H7	0.859700	0.713200	0.329800
C81	C8	0.039590	0.523550	0.329900
H81	H8	0.953700	0.485600	0.321500
C91	C9	0.149940	0.856620	0.346600
H91	H9	0.200400	0.821800	0.359600
Mg41	Mg4	0.665690	0.667700	0.087470
O191	O19	0.576690	0.735480	0.942070
O201	O20	0.575800	0.844330	0.729980
O211	O21	0.599720	0.510970	0.940950
O221	O22	0.492340	0.400330	0.728880
O231	O23	0.823940	0.759410	0.944630
O241	O24	0.930770	0.754650	0.732410
C101	C10	0.626970	0.813390	0.833900
H101	H10	0.713200	0.853500	0.829800
C111	C11	0.523550	0.483960	0.829900
H111	H11	0.485600	0.531900	0.821500
C121	C12	0.856620	0.706680	0.846600
H121	H12	0.821800	0.621400	0.859600
Mg51	Mg5	0.332300	0.997990	0.087470
O251	O25	0.264520	0.841210	0.942070
O261	O26	0.155670	0.731470	0.729980
O271	O27	0.489030	0.088750	0.940950
O281	O28	0.599670	0.092010	0.728880
O291	O29	0.240590	0.064530	0.944630
O301	O30	0.245350	0.176120	0.732410
C131	C13	0.186610	0.813580	0.833900
H131	H13	0.146500	0.859700	0.829800
C141	C14	0.516040	0.039590	0.829900
H141	H14	0.468100	0.953700	0.821500
C151	C15	0.293320	0.149940	0.846600
H151	H15	0.378600	0.200400	0.859600
Mg61	Mg6	0.002010	0.334310	0.087470
O311	O31	0.158790	0.423310	0.942070
O321	O32	0.268530	0.424200	0.729980
O331	O33	0.911250	0.400280	0.940950
O341	O34	0.907990	0.507660	0.728880
O351	O35	0.935470	0.176060	0.944630
O361	O36	0.823880	0.069230	0.732410
C161	C16	0.186420	0.373030	0.833900
H161	H16	0.140300	0.286800	0.829800
C171	C17	0.960410	0.476450	0.829900
H171	H17	0.046300	0.514400	0.821500
C181	C18	0.850060	0.143380	0.846600
H181	H18	0.799600	0.178200	0.859600
