data_NIWZIE11_clean_PM
_symmetry_space_group_name_H-M	'P1'
_cell_length_a	7.260500
_cell_length_b	7.260500
_cell_length_c	8.215600
_cell_angle_alpha	90.000000
_cell_angle_beta	90.000000
_cell_angle_gamma	120.000000
_symmetry_Int_Tables_number 1

loop_
_symmetry_equiv_pos_as_xyz
'x,y,z'

loop_
_atom_site_label
_atom_site_type_symbol
_atom_site_fract_x
_atom_site_fract_y
_atom_site_fract_z
O11	O1	0.890730	0.310090	0.893980
O21	O2	0.689910	0.580640	0.893980
O31	O3	0.419360	0.109270	0.893980
O41	O4	0.109270	0.689910	0.393980
O51	O5	0.310090	0.419360	0.393980
O61	O6	0.580640	0.890730	0.393980
O71	O7	0.310090	0.890730	0.106020
O81	O8	0.580640	0.689910	0.106020
O91	O9	0.109270	0.419360	0.106020
O101	O10	0.689910	0.109270	0.606020
O111	O11	0.419360	0.310090	0.606020
O121	O12	0.890730	0.580640	0.606020
Mg11	Mg1	0.666670	0.333330	0.750000
Mg21	Mg2	0.333330	0.666670	0.250000
C11	C1	0.000000	0.440200	0.000000
H11	H1	0.000000	0.568300	0.000000
C21	C2	0.559800	0.559800	0.000000
H21	H2	0.431700	0.431700	0.000000
C31	C3	0.440200	0.000000	0.000000
H31	H3	0.568300	0.000000	0.000000
C41	C4	0.000000	0.559800	0.500000
H41	H4	0.000000	0.431700	0.500000
C51	C5	0.440200	0.440200	0.500000
H51	H5	0.568300	0.568300	0.500000
C61	C6	0.559800	0.000000	0.500000
H61	H6	0.431700	0.000000	0.500000
