data_NIXPOA_clean_PM
_symmetry_space_group_name_H-M	'P1'
_cell_length_a	26.870000
_cell_length_b	12.316000
_cell_length_c	21.468000
_cell_angle_alpha	90.000000
_cell_angle_beta	90.000000
_cell_angle_gamma	90.000000
_symmetry_Int_Tables_number 1

loop_
_symmetry_equiv_pos_as_xyz
'x,y,z'

loop_
_atom_site_label
_atom_site_type_symbol
_atom_site_fract_x
_atom_site_fract_y
_atom_site_fract_z
Ag11	Ag1	0.774260	0.905060	0.245780
S11	S1	0.551270	0.266100	0.318580
S21	S2	0.552580	0.288500	0.182190
S31	S3	0.562470	0.551400	0.196720
S41	S4	0.564170	0.528100	0.333150
S51	S5	0.582530	0.053900	0.162450
S61	S6	0.581680	0.027900	0.312480
S71	S7	0.592670	0.788000	0.202670
S81	S8	0.592830	0.760000	0.354760
F11	F1	0.494500	0.362400	0.450000
O11	O1	0.520400	0.131700	0.443600
N11	N1	0.717000	0.012800	0.192100
N21	N2	0.690300	0.266700	0.303600
N31	N3	0.696400	0.548400	0.204100
N41	N4	0.725500	0.794100	0.307600
C11	C1	0.557200	0.354100	0.254600
C21	C2	0.571900	0.163200	0.212800
C31	C3	0.572000	0.153400	0.275300
C41	C4	0.562300	0.463100	0.260500
C51	C5	0.583100	0.663900	0.240600
C61	C6	0.583500	0.653000	0.302500
C71	C7	0.620700	0.112900	0.101200
C81	C8	0.670300	0.156100	0.125600
C91	C9	0.696900	0.075900	0.163100
C101	C10	0.622400	0.061100	0.377100
C111	C11	0.676000	0.081400	0.358400
C121	C12	0.683500	0.185900	0.326600
C131	C13	0.626700	0.750600	0.133200
C141	C14	0.681000	0.726100	0.142300
C151	C15	0.689800	0.625100	0.177600
C161	C16	0.635600	0.701200	0.410300
C171	C17	0.683100	0.656700	0.381300
C181	C18	0.707300	0.735100	0.340500
H11	H1	0.627200	0.058700	0.070700
H21	H2	0.602800	0.171000	0.082600
H31	H3	0.690500	0.175900	0.091100
H41	H4	0.664000	0.218400	0.150500
H51	H5	0.610100	0.124700	0.396800
H61	H6	0.621800	0.002400	0.405800
H71	H7	0.696000	0.080300	0.394900
H81	H8	0.686200	0.024800	0.331200
H91	H9	0.611400	0.687700	0.116100
H101	H10	0.624100	0.808900	0.104400
H111	H11	0.696300	0.719400	0.102600
H121	H12	0.695800	0.784800	0.164300
H131	H13	0.644500	0.755600	0.439600
H141	H14	0.619100	0.643500	0.431100
H151	H15	0.705600	0.637700	0.413800
H161	H16	0.675100	0.593700	0.357800
Ag21	Ag2	0.225740	0.094940	0.245780
S91	S9	0.448730	0.733900	0.318580
S101	S10	0.447420	0.711500	0.182190
S111	S11	0.437530	0.448600	0.196720
S121	S12	0.435830	0.471900	0.333150
S131	S13	0.417470	0.946100	0.162450
S141	S14	0.418320	0.972100	0.312480
S151	S15	0.407330	0.212000	0.202670
S161	S16	0.407170	0.240000	0.354760
F21	F2	0.505500	0.637600	0.450000
O21	O2	0.479600	0.868300	0.443600
N51	N5	0.283000	0.987200	0.192100
N61	N6	0.309700	0.733300	0.303600
N71	N7	0.303600	0.451600	0.204100
N81	N8	0.274500	0.205900	0.307600
C191	C19	0.442800	0.645900	0.254600
C201	C20	0.428100	0.836800	0.212800
C211	C21	0.428000	0.846600	0.275300
C221	C22	0.437700	0.536900	0.260500
C231	C23	0.416900	0.336100	0.240600
C241	C24	0.416500	0.347000	0.302500
C251	C25	0.379300	0.887100	0.101200
C261	C26	0.329700	0.843900	0.125600
C271	C27	0.303100	0.924100	0.163100
C281	C28	0.377600	0.938900	0.377100
C291	C29	0.324000	0.918600	0.358400
C301	C30	0.316500	0.814100	0.326600
C311	C31	0.373300	0.249400	0.133200
C321	C32	0.319000	0.273900	0.142300
C331	C33	0.310200	0.374900	0.177600
C341	C34	0.364400	0.298800	0.410300
C351	C35	0.316900	0.343300	0.381300
C361	C36	0.292700	0.264900	0.340500
H171	H17	0.372800	0.941300	0.070700
H181	H18	0.397200	0.829000	0.082600
H191	H19	0.309500	0.824100	0.091100
H201	H20	0.336000	0.781600	0.150500
H211	H21	0.389900	0.875300	0.396800
H221	H22	0.378200	0.997600	0.405800
H231	H23	0.304000	0.919700	0.394900
H241	H24	0.313800	0.975200	0.331200
H251	H25	0.388600	0.312300	0.116100
H261	H26	0.375900	0.191100	0.104400
H271	H27	0.303700	0.280600	0.102600
H281	H28	0.304200	0.215200	0.164300
H291	H29	0.355500	0.244400	0.439600
H301	H30	0.380900	0.356500	0.431100
H311	H31	0.294400	0.362300	0.413800
H321	H32	0.324900	0.406300	0.357800
Ag31	Ag3	0.725740	0.405060	0.254220
S171	S17	0.948730	0.766100	0.181420
S181	S18	0.947420	0.788500	0.317810
S191	S19	0.937530	0.051400	0.303280
S201	S20	0.935830	0.028100	0.166850
S211	S21	0.917470	0.553900	0.337550
S221	S22	0.918320	0.527900	0.187520
S231	S23	0.907330	0.288000	0.297330
S241	S24	0.907170	0.260000	0.145240
F31	F3	0.005500	0.862400	0.050000
O31	O3	0.979600	0.631700	0.056400
N91	N9	0.783000	0.512800	0.307900
N101	N10	0.809700	0.766700	0.196400
N111	N11	0.803600	0.048400	0.295900
N121	N12	0.774500	0.294100	0.192400
C371	C37	0.942800	0.854100	0.245400
C381	C38	0.928100	0.663200	0.287200
C391	C39	0.928000	0.653400	0.224700
C401	C40	0.937700	0.963100	0.239500
C411	C41	0.916900	0.163900	0.259400
C421	C42	0.916500	0.153000	0.197500
C431	C43	0.879300	0.612900	0.398800
C441	C44	0.829700	0.656100	0.374400
C451	C45	0.803100	0.575900	0.336900
C461	C46	0.877600	0.561100	0.122900
C471	C47	0.824000	0.581400	0.141600
C481	C48	0.816500	0.685900	0.173400
C491	C49	0.873300	0.250600	0.366800
C501	C50	0.819000	0.226100	0.357700
C511	C51	0.810200	0.125100	0.322400
C521	C52	0.864400	0.201200	0.089700
C531	C53	0.816900	0.156700	0.118700
C541	C54	0.792700	0.235100	0.159500
H331	H33	0.872800	0.558700	0.429300
H341	H34	0.897200	0.671000	0.417400
H351	H35	0.809500	0.675900	0.408900
H361	H36	0.836000	0.718400	0.349500
H371	H37	0.889900	0.624700	0.103200
H381	H38	0.878200	0.502400	0.094200
H391	H39	0.804000	0.580300	0.105100
H401	H40	0.813800	0.524800	0.168800
H411	H41	0.888600	0.187700	0.383900
H421	H42	0.875900	0.308900	0.395600
H431	H43	0.803700	0.219400	0.397400
H441	H44	0.804200	0.284800	0.335700
H451	H45	0.855500	0.255600	0.060400
H461	H46	0.880900	0.143500	0.068900
H471	H47	0.794400	0.137700	0.086200
H481	H48	0.824900	0.093700	0.142200
Ag41	Ag4	0.274260	0.594940	0.254220
S251	S25	0.051270	0.233900	0.181420
S261	S26	0.052580	0.211500	0.317810
S271	S27	0.062470	0.948600	0.303280
S281	S28	0.064170	0.971900	0.166850
S291	S29	0.082530	0.446100	0.337550
S301	S30	0.081680	0.472100	0.187520
S311	S31	0.092670	0.712000	0.297330
S321	S32	0.092830	0.740000	0.145240
F41	F4	0.994500	0.137600	0.050000
O41	O4	0.020400	0.368300	0.056400
N131	N13	0.217000	0.487200	0.307900
N141	N14	0.190300	0.233300	0.196400
N151	N15	0.196400	0.951600	0.295900
N161	N16	0.225500	0.705900	0.192400
C551	C55	0.057200	0.145900	0.245400
C561	C56	0.071900	0.336800	0.287200
C571	C57	0.072000	0.346600	0.224700
C581	C58	0.062300	0.036900	0.239500
C591	C59	0.083100	0.836100	0.259400
C601	C60	0.083500	0.847000	0.197500
C611	C61	0.120700	0.387100	0.398800
C621	C62	0.170300	0.343900	0.374400
C631	C63	0.196900	0.424100	0.336900
C641	C64	0.122400	0.438900	0.122900
C651	C65	0.176000	0.418600	0.141600
C661	C66	0.183500	0.314100	0.173400
C671	C67	0.126700	0.749400	0.366800
C681	C68	0.181000	0.773900	0.357700
C691	C69	0.189800	0.874900	0.322400
C701	C70	0.135600	0.798800	0.089700
C711	C71	0.183100	0.843300	0.118700
C721	C72	0.207300	0.764900	0.159500
H491	H49	0.127200	0.441300	0.429300
H501	H50	0.102800	0.329000	0.417400
H511	H51	0.190500	0.324100	0.408900
H521	H52	0.164000	0.281600	0.349500
H531	H53	0.110100	0.375300	0.103200
H541	H54	0.121800	0.497600	0.094200
H551	H55	0.196000	0.419700	0.105100
H561	H56	0.186200	0.475200	0.168800
H571	H57	0.111400	0.812300	0.383900
H581	H58	0.124100	0.691100	0.395600
H591	H59	0.196300	0.780600	0.397400
H601	H60	0.195800	0.715200	0.335700
H611	H61	0.144500	0.744400	0.060400
H621	H62	0.119100	0.856500	0.068900
H631	H63	0.205600	0.862300	0.086200
H641	H64	0.175100	0.906300	0.142200
Ag51	Ag5	0.225740	0.094940	0.754220
S331	S33	0.448730	0.733900	0.681420
S341	S34	0.447420	0.711500	0.817810
S351	S35	0.437530	0.448600	0.803280
S361	S36	0.435830	0.471900	0.666850
S371	S37	0.417470	0.946100	0.837550
S381	S38	0.418320	0.972100	0.687520
S391	S39	0.407330	0.212000	0.797330
S401	S40	0.407170	0.240000	0.645240
F51	F5	0.505500	0.637600	0.550000
O51	O5	0.479600	0.868300	0.556400
N171	N17	0.283000	0.987200	0.807900
N181	N18	0.309700	0.733300	0.696400
N191	N19	0.303600	0.451600	0.795900
N201	N20	0.274500	0.205900	0.692400
C731	C73	0.442800	0.645900	0.745400
C741	C74	0.428100	0.836800	0.787200
C751	C75	0.428000	0.846600	0.724700
C761	C76	0.437700	0.536900	0.739500
C771	C77	0.416900	0.336100	0.759400
C781	C78	0.416500	0.347000	0.697500
C791	C79	0.379300	0.887100	0.898800
C801	C80	0.329700	0.843900	0.874400
C811	C81	0.303100	0.924100	0.836900
C821	C82	0.377600	0.938900	0.622900
C831	C83	0.324000	0.918600	0.641600
C841	C84	0.316500	0.814100	0.673400
C851	C85	0.373300	0.249400	0.866800
C861	C86	0.319000	0.273900	0.857700
C871	C87	0.310200	0.374900	0.822400
C881	C88	0.364400	0.298800	0.589700
C891	C89	0.316900	0.343300	0.618700
C901	C90	0.292700	0.264900	0.659500
H651	H65	0.372800	0.941300	0.929300
H661	H66	0.397200	0.829000	0.917400
H671	H67	0.309500	0.824100	0.908900
H681	H68	0.336000	0.781600	0.849500
H691	H69	0.389900	0.875300	0.603200
H701	H70	0.378200	0.997600	0.594200
H711	H71	0.304000	0.919700	0.605100
H721	H72	0.313800	0.975200	0.668800
H731	H73	0.388600	0.312300	0.883900
H741	H74	0.375900	0.191100	0.895600
H751	H75	0.303700	0.280600	0.897400
H761	H76	0.304200	0.215200	0.835700
H771	H77	0.355500	0.244400	0.560400
H781	H78	0.380900	0.356500	0.568900
H791	H79	0.294400	0.362300	0.586200
H801	H80	0.324900	0.406300	0.642200
Ag61	Ag6	0.774260	0.905060	0.754220
S411	S41	0.551270	0.266100	0.681420
S421	S42	0.552580	0.288500	0.817810
S431	S43	0.562470	0.551400	0.803280
S441	S44	0.564170	0.528100	0.666850
S451	S45	0.582530	0.053900	0.837550
S461	S46	0.581680	0.027900	0.687520
S471	S47	0.592670	0.788000	0.797330
S481	S48	0.592830	0.760000	0.645240
F61	F6	0.494500	0.362400	0.550000
O61	O6	0.520400	0.131700	0.556400
N211	N21	0.717000	0.012800	0.807900
N221	N22	0.690300	0.266700	0.696400
N231	N23	0.696400	0.548400	0.795900
N241	N24	0.725500	0.794100	0.692400
C911	C91	0.557200	0.354100	0.745400
C921	C92	0.571900	0.163200	0.787200
C931	C93	0.572000	0.153400	0.724700
C941	C94	0.562300	0.463100	0.739500
C951	C95	0.583100	0.663900	0.759400
C961	C96	0.583500	0.653000	0.697500
C971	C97	0.620700	0.112900	0.898800
C981	C98	0.670300	0.156100	0.874400
C991	C99	0.696900	0.075900	0.836900
C1001	C100	0.622400	0.061100	0.622900
C1011	C101	0.676000	0.081400	0.641600
C1021	C102	0.683500	0.185900	0.673400
C1031	C103	0.626700	0.750600	0.866800
C1041	C104	0.681000	0.726100	0.857700
C1051	C105	0.689800	0.625100	0.822400
C1061	C106	0.635600	0.701200	0.589700
C1071	C107	0.683100	0.656700	0.618700
C1081	C108	0.707300	0.735100	0.659500
H811	H81	0.627200	0.058700	0.929300
H821	H82	0.602800	0.171000	0.917400
H831	H83	0.690500	0.175900	0.908900
H841	H84	0.664000	0.218400	0.849500
H851	H85	0.610100	0.124700	0.603200
H861	H86	0.621800	0.002400	0.594200
H871	H87	0.696000	0.080300	0.605100
H881	H88	0.686200	0.024800	0.668800
H891	H89	0.611400	0.687700	0.883900
H901	H90	0.624100	0.808900	0.895600
H911	H91	0.696300	0.719400	0.897400
H921	H92	0.695800	0.784800	0.835700
H931	H93	0.644500	0.755600	0.560400
H941	H94	0.619100	0.643500	0.568900
H951	H95	0.705600	0.637700	0.586200
H961	H96	0.675100	0.593700	0.642200
Ag71	Ag7	0.274260	0.594940	0.745780
S491	S49	0.051270	0.233900	0.818580
S501	S50	0.052580	0.211500	0.682190
S511	S51	0.062470	0.948600	0.696720
S521	S52	0.064170	0.971900	0.833150
S531	S53	0.082530	0.446100	0.662450
S541	S54	0.081680	0.472100	0.812480
S551	S55	0.092670	0.712000	0.702670
S561	S56	0.092830	0.740000	0.854760
F71	F7	0.994500	0.137600	0.950000
O71	O7	0.020400	0.368300	0.943600
N251	N25	0.217000	0.487200	0.692100
N261	N26	0.190300	0.233300	0.803600
N271	N27	0.196400	0.951600	0.704100
N281	N28	0.225500	0.705900	0.807600
C1091	C109	0.057200	0.145900	0.754600
C1101	C110	0.071900	0.336800	0.712800
C1111	C111	0.072000	0.346600	0.775300
C1121	C112	0.062300	0.036900	0.760500
C1131	C113	0.083100	0.836100	0.740600
C1141	C114	0.083500	0.847000	0.802500
C1151	C115	0.120700	0.387100	0.601200
C1161	C116	0.170300	0.343900	0.625600
C1171	C117	0.196900	0.424100	0.663100
C1181	C118	0.122400	0.438900	0.877100
C1191	C119	0.176000	0.418600	0.858400
C1201	C120	0.183500	0.314100	0.826600
C1211	C121	0.126700	0.749400	0.633200
C1221	C122	0.181000	0.773900	0.642300
C1231	C123	0.189800	0.874900	0.677600
C1241	C124	0.135600	0.798800	0.910300
C1251	C125	0.183100	0.843300	0.881300
C1261	C126	0.207300	0.764900	0.840500
H971	H97	0.127200	0.441300	0.570700
H981	H98	0.102800	0.329000	0.582600
H991	H99	0.190500	0.324100	0.591100
H1001	H100	0.164000	0.281600	0.650500
H1011	H101	0.110100	0.375300	0.896800
H1021	H102	0.121800	0.497600	0.905800
H1031	H103	0.196000	0.419700	0.894900
H1041	H104	0.186200	0.475200	0.831200
H1051	H105	0.111400	0.812300	0.616100
H1061	H106	0.124100	0.691100	0.604400
H1071	H107	0.196300	0.780600	0.602600
H1081	H108	0.195800	0.715200	0.664300
H1091	H109	0.144500	0.744400	0.939600
H1101	H110	0.119100	0.856500	0.931100
H1111	H111	0.205600	0.862300	0.913800
H1121	H112	0.175100	0.906300	0.857800
Ag81	Ag8	0.725740	0.405060	0.745780
S571	S57	0.948730	0.766100	0.818580
S581	S58	0.947420	0.788500	0.682190
S591	S59	0.937530	0.051400	0.696720
S601	S60	0.935830	0.028100	0.833150
S611	S61	0.917470	0.553900	0.662450
S621	S62	0.918320	0.527900	0.812480
S631	S63	0.907330	0.288000	0.702670
S641	S64	0.907170	0.260000	0.854760
F81	F8	0.005500	0.862400	0.950000
O81	O8	0.979600	0.631700	0.943600
N291	N29	0.783000	0.512800	0.692100
N301	N30	0.809700	0.766700	0.803600
N311	N31	0.803600	0.048400	0.704100
N321	N32	0.774500	0.294100	0.807600
C1271	C127	0.942800	0.854100	0.754600
C1281	C128	0.928100	0.663200	0.712800
C1291	C129	0.928000	0.653400	0.775300
C1301	C130	0.937700	0.963100	0.760500
C1311	C131	0.916900	0.163900	0.740600
C1321	C132	0.916500	0.153000	0.802500
C1331	C133	0.879300	0.612900	0.601200
C1341	C134	0.829700	0.656100	0.625600
C1351	C135	0.803100	0.575900	0.663100
C1361	C136	0.877600	0.561100	0.877100
C1371	C137	0.824000	0.581400	0.858400
C1381	C138	0.816500	0.685900	0.826600
C1391	C139	0.873300	0.250600	0.633200
C1401	C140	0.819000	0.226100	0.642300
C1411	C141	0.810200	0.125100	0.677600
C1421	C142	0.864400	0.201200	0.910300
C1431	C143	0.816900	0.156700	0.881300
C1441	C144	0.792700	0.235100	0.840500
H1131	H113	0.872800	0.558700	0.570700
H1141	H114	0.897200	0.671000	0.582600
H1151	H115	0.809500	0.675900	0.591100
H1161	H116	0.836000	0.718400	0.650500
H1171	H117	0.889900	0.624700	0.896800
H1181	H118	0.878200	0.502400	0.905800
H1191	H119	0.804000	0.580300	0.894900
H1201	H120	0.813800	0.524800	0.831200
H1211	H121	0.888600	0.187700	0.616100
H1221	H122	0.875900	0.308900	0.604400
H1231	H123	0.803700	0.219400	0.602600
H1241	H124	0.804200	0.284800	0.664300
H1251	H125	0.855500	0.255600	0.939600
H1261	H126	0.880900	0.143500	0.931100
H1271	H127	0.794400	0.137700	0.913800
H1281	H128	0.824900	0.093700	0.857800
Ag91	Ag9	0.500000	0.000000	0.117940
Ag101	Ag10	0.500000	0.000000	0.367940
Ag111	Ag11	0.000000	0.500000	0.382060
Ag121	Ag12	0.000000	0.500000	0.132060
Ag131	Ag13	0.500000	0.000000	0.882060
Ag141	Ag14	0.500000	0.000000	0.632060
Ag151	Ag15	0.000000	0.500000	0.617940
Ag161	Ag16	0.000000	0.500000	0.867940
S651	S65	0.496670	0.168700	0.500000
F91	F9	0.560500	0.327900	0.500000
O91	O9	0.443300	0.162400	0.500000
C1451	C145	0.511500	0.314000	0.500000
S661	S66	0.503330	0.831300	0.500000
F101	F10	0.439500	0.672100	0.500000
O101	O10	0.556700	0.837600	0.500000
C1461	C146	0.488500	0.686000	0.500000
S671	S67	0.003330	0.668700	0.000000
F111	F11	0.939500	0.827900	0.000000
O111	O11	0.056700	0.662400	0.000000
C1471	C147	0.988500	0.814000	0.000000
S681	S68	0.996670	0.331300	0.000000
F121	F12	0.060500	0.172100	0.000000
O121	O12	0.943300	0.337600	0.000000
C1481	C148	0.011500	0.186000	0.000000
