data_NIYJAI_clean_PM
_symmetry_space_group_name_H-M	'P1'
_cell_length_a	27.168300
_cell_length_b	15.384600
_cell_length_c	19.271300
_cell_angle_alpha	90.000000
_cell_angle_beta	98.162000
_cell_angle_gamma	90.000000
_symmetry_Int_Tables_number 1

loop_
_symmetry_equiv_pos_as_xyz
'x,y,z'

loop_
_atom_site_label
_atom_site_type_symbol
_atom_site_fract_x
_atom_site_fract_y
_atom_site_fract_z
Br11	Br1	0.183880	0.643760	0.423360
C11	C1	0.530180	0.813500	0.316300
C21	C2	0.505380	0.749100	0.348700
C31	C3	0.532140	0.700800	0.402700
C41	C4	0.581490	0.722600	0.427500
H11	H1	0.599300	0.689500	0.464500
C51	C5	0.605060	0.792100	0.399100
C61	C6	0.579430	0.834400	0.342500
H21	H2	0.595600	0.879200	0.320400
O11	O1	0.455090	0.735900	0.329900
C71	C7	0.428880	0.792200	0.373100
H31	H3	0.436000	0.853800	0.363500
H41	H4	0.440400	0.780700	0.423300
C81	C8	0.373730	0.775600	0.357000
C91	C9	0.346090	0.774700	0.411600
H51	H5	0.363000	0.780600	0.458000
N11	N1	0.296270	0.765700	0.402700
C101	C10	0.273300	0.756800	0.337600
H61	H6	0.238200	0.750300	0.330300
C111	C11	0.298200	0.756600	0.280200
H71	H7	0.280500	0.750800	0.234300
C121	C12	0.349700	0.764800	0.290400
H81	H8	0.367800	0.762900	0.251700
C131	C13	0.658100	0.818800	0.430500
C141	C14	0.693300	0.743000	0.424700
H91	H9	0.727500	0.761300	0.441300
H101	H10	0.690800	0.724500	0.375600
H111	H11	0.684400	0.694500	0.453400
C151	C15	0.676800	0.897300	0.391900
H121	H12	0.654000	0.946300	0.393700
H131	H13	0.678200	0.881700	0.343000
H141	H14	0.710000	0.913700	0.414700
C161	C16	0.658600	0.843900	0.507800
H151	H15	0.643700	0.797000	0.532200
H161	H16	0.639500	0.897500	0.510600
H171	H17	0.693000	0.853100	0.529800
S11	S1	0.503670	0.621850	0.451090
C171	C17	0.471300	0.550600	0.387700
C181	C18	0.496850	0.496700	0.347400
C191	C19	0.469760	0.436700	0.302100
C201	C20	0.419100	0.428300	0.301200
H181	H18	0.401300	0.387500	0.270200
C211	C21	0.393240	0.478200	0.344600
C221	C22	0.420050	0.541200	0.385700
H191	H19	0.403000	0.579000	0.413200
O21	O2	0.548030	0.500900	0.352300
C231	C23	0.570460	0.437600	0.401700
H201	H20	0.559400	0.378700	0.385900
H211	H21	0.559800	0.448100	0.448000
C241	C24	0.626100	0.443100	0.408200
C251	C25	0.653730	0.372600	0.434300
H221	H22	0.636500	0.320700	0.442500
N21	N2	0.703760	0.372400	0.449100
C261	C26	0.727320	0.444900	0.434000
H231	H23	0.762600	0.446600	0.444200
C271	C27	0.702900	0.516800	0.404500
H241	H24	0.721100	0.566000	0.392600
C281	C28	0.651300	0.516800	0.392200
H251	H25	0.633600	0.566600	0.373200
C291	C29	0.337900	0.462400	0.348100
C301	C30	0.335000	0.390700	0.402500
H261	H26	0.353400	0.408700	0.447600
H271	H27	0.349500	0.337100	0.386800
H281	H28	0.300100	0.380400	0.407800
C311	C31	0.311500	0.425400	0.283200
H291	H29	0.325500	0.368200	0.275000
H301	H30	0.315200	0.464000	0.243900
H311	H31	0.276100	0.419200	0.287500
C321	C32	0.312100	0.537700	0.376000
H321	H32	0.320100	0.591100	0.352100
H331	H33	0.323100	0.543500	0.426400
H341	H34	0.276100	0.528100	0.367700
Br21	Br2	0.683880	0.143760	0.423360
C331	C33	0.030180	0.313500	0.316300
C341	C34	0.005380	0.249100	0.348700
C351	C35	0.032140	0.200800	0.402700
C361	C36	0.081490	0.222600	0.427500
H351	H35	0.099300	0.189500	0.464500
C371	C37	0.105060	0.292100	0.399100
C381	C38	0.079430	0.334400	0.342500
H361	H36	0.095600	0.379200	0.320400
O31	O3	0.955090	0.235900	0.329900
C391	C39	0.928880	0.292200	0.373100
H371	H37	0.936000	0.353800	0.363500
H381	H38	0.940400	0.280700	0.423300
C401	C40	0.873730	0.275600	0.357000
C411	C41	0.846090	0.274700	0.411600
H391	H39	0.863000	0.280600	0.458000
N31	N3	0.796270	0.265700	0.402700
C421	C42	0.773300	0.256800	0.337600
H401	H40	0.738200	0.250300	0.330300
C431	C43	0.798200	0.256600	0.280200
H411	H41	0.780500	0.250800	0.234300
C441	C44	0.849700	0.264800	0.290400
H421	H42	0.867800	0.262900	0.251700
C451	C45	0.158100	0.318800	0.430500
C461	C46	0.193300	0.243000	0.424700
H431	H43	0.227500	0.261300	0.441300
H441	H44	0.190800	0.224500	0.375600
H451	H45	0.184400	0.194500	0.453400
C471	C47	0.176800	0.397300	0.391900
H461	H46	0.154000	0.446300	0.393700
H471	H47	0.178200	0.381700	0.343000
H481	H48	0.210000	0.413700	0.414700
C481	C48	0.158600	0.343900	0.507800
H491	H49	0.143700	0.297000	0.532200
H501	H50	0.139500	0.397500	0.510600
H511	H51	0.193000	0.353100	0.529800
S21	S2	0.003670	0.121850	0.451090
C491	C49	0.971300	0.050600	0.387700
C501	C50	0.996850	0.996700	0.347400
C511	C51	0.969760	0.936700	0.302100
C521	C52	0.919100	0.928300	0.301200
H521	H52	0.901300	0.887500	0.270200
C531	C53	0.893240	0.978200	0.344600
C541	C54	0.920050	0.041200	0.385700
H531	H53	0.903000	0.079000	0.413200
O41	O4	0.048030	0.000900	0.352300
C551	C55	0.070460	0.937600	0.401700
H541	H54	0.059400	0.878700	0.385900
H551	H55	0.059800	0.948100	0.448000
C561	C56	0.126100	0.943100	0.408200
C571	C57	0.153730	0.872600	0.434300
H561	H56	0.136500	0.820700	0.442500
N41	N4	0.203760	0.872400	0.449100
C581	C58	0.227320	0.944900	0.434000
H571	H57	0.262600	0.946600	0.444200
C591	C59	0.202900	0.016800	0.404500
H581	H58	0.221100	0.066000	0.392600
C601	C60	0.151300	0.016800	0.392200
H591	H59	0.133600	0.066600	0.373200
C611	C61	0.837900	0.962400	0.348100
C621	C62	0.835000	0.890700	0.402500
H601	H60	0.853400	0.908700	0.447600
H611	H61	0.849500	0.837100	0.386800
H621	H62	0.800100	0.880400	0.407800
C631	C63	0.811500	0.925400	0.283200
H631	H63	0.825500	0.868200	0.275000
H641	H64	0.815200	0.964000	0.243900
H651	H65	0.776100	0.919200	0.287500
C641	C64	0.812100	0.037700	0.376000
H661	H66	0.820100	0.091100	0.352100
H671	H67	0.823100	0.043500	0.426400
H681	H68	0.776100	0.028100	0.367700
Br31	Br3	0.816120	0.643760	0.076640
C651	C65	0.469820	0.813500	0.183700
C661	C66	0.494620	0.749100	0.151300
C671	C67	0.467860	0.700800	0.097300
C681	C68	0.418510	0.722600	0.072500
H691	H69	0.400700	0.689500	0.035500
C691	C69	0.394940	0.792100	0.100900
C701	C70	0.420570	0.834400	0.157500
H701	H70	0.404400	0.879200	0.179600
O51	O5	0.544910	0.735900	0.170100
C711	C71	0.571120	0.792200	0.126900
H711	H71	0.564000	0.853800	0.136500
H721	H72	0.559600	0.780700	0.076700
C721	C72	0.626270	0.775600	0.143000
C731	C73	0.653910	0.774700	0.088400
H731	H73	0.637000	0.780600	0.042000
N51	N5	0.703730	0.765700	0.097300
C741	C74	0.726700	0.756800	0.162400
H741	H74	0.761800	0.750300	0.169700
C751	C75	0.701800	0.756600	0.219800
H751	H75	0.719500	0.750800	0.265700
C761	C76	0.650300	0.764800	0.209600
H761	H76	0.632200	0.762900	0.248300
C771	C77	0.341900	0.818800	0.069500
C781	C78	0.306700	0.743000	0.075300
H771	H77	0.272500	0.761300	0.058700
H781	H78	0.309200	0.724500	0.124400
H791	H79	0.315600	0.694500	0.046600
C791	C79	0.323200	0.897300	0.108100
H801	H80	0.346000	0.946300	0.106300
H811	H81	0.321800	0.881700	0.157000
H821	H82	0.290000	0.913700	0.085300
C801	C80	0.341400	0.843900	0.992200
H831	H83	0.356300	0.797000	0.967800
H841	H84	0.360500	0.897500	0.989400
H851	H85	0.307000	0.853100	0.970200
S31	S3	0.496330	0.621850	0.048910
C811	C81	0.528700	0.550600	0.112300
C821	C82	0.503150	0.496700	0.152600
C831	C83	0.530240	0.436700	0.197900
C841	C84	0.580900	0.428300	0.198800
H861	H86	0.598700	0.387500	0.229800
C851	C85	0.606760	0.478200	0.155400
C861	C86	0.579950	0.541200	0.114300
H871	H87	0.597000	0.579000	0.086800
O61	O6	0.451970	0.500900	0.147700
C871	C87	0.429540	0.437600	0.098300
H881	H88	0.440600	0.378700	0.114100
H891	H89	0.440200	0.448100	0.052000
C881	C88	0.373900	0.443100	0.091800
C891	C89	0.346270	0.372600	0.065700
H901	H90	0.363500	0.320700	0.057500
N61	N6	0.296240	0.372400	0.050900
C901	C90	0.272680	0.444900	0.066000
H911	H91	0.237400	0.446600	0.055800
C911	C91	0.297100	0.516800	0.095500
H921	H92	0.278900	0.566000	0.107400
C921	C92	0.348700	0.516800	0.107800
H931	H93	0.366400	0.566600	0.126800
C931	C93	0.662100	0.462400	0.151900
C941	C94	0.665000	0.390700	0.097500
H941	H94	0.646600	0.408700	0.052400
H951	H95	0.650500	0.337100	0.113200
H961	H96	0.699900	0.380400	0.092200
C951	C95	0.688500	0.425400	0.216800
H971	H97	0.674500	0.368200	0.225000
H981	H98	0.684800	0.464000	0.256100
H991	H99	0.723900	0.419200	0.212500
C961	C96	0.687900	0.537700	0.124000
H1001	H100	0.679900	0.591100	0.147900
H1011	H101	0.676900	0.543500	0.073600
H1021	H102	0.723900	0.528100	0.132300
Br41	Br4	0.316120	0.143760	0.076640
C971	C97	0.969820	0.313500	0.183700
C981	C98	0.994620	0.249100	0.151300
C991	C99	0.967860	0.200800	0.097300
C1001	C100	0.918510	0.222600	0.072500
H1031	H103	0.900700	0.189500	0.035500
C1011	C101	0.894940	0.292100	0.100900
C1021	C102	0.920570	0.334400	0.157500
H1041	H104	0.904400	0.379200	0.179600
O71	O7	0.044910	0.235900	0.170100
C1031	C103	0.071120	0.292200	0.126900
H1051	H105	0.064000	0.353800	0.136500
H1061	H106	0.059600	0.280700	0.076700
C1041	C104	0.126270	0.275600	0.143000
C1051	C105	0.153910	0.274700	0.088400
H1071	H107	0.137000	0.280600	0.042000
N71	N7	0.203730	0.265700	0.097300
C1061	C106	0.226700	0.256800	0.162400
H1081	H108	0.261800	0.250300	0.169700
C1071	C107	0.201800	0.256600	0.219800
H1091	H109	0.219500	0.250800	0.265700
C1081	C108	0.150300	0.264800	0.209600
H1101	H110	0.132200	0.262900	0.248300
C1091	C109	0.841900	0.318800	0.069500
C1101	C110	0.806700	0.243000	0.075300
H1111	H111	0.772500	0.261300	0.058700
H1121	H112	0.809200	0.224500	0.124400
H1131	H113	0.815600	0.194500	0.046600
C1111	C111	0.823200	0.397300	0.108100
H1141	H114	0.846000	0.446300	0.106300
H1151	H115	0.821800	0.381700	0.157000
H1161	H116	0.790000	0.413700	0.085300
C1121	C112	0.841400	0.343900	0.992200
H1171	H117	0.856300	0.297000	0.967800
H1181	H118	0.860500	0.397500	0.989400
H1191	H119	0.807000	0.353100	0.970200
S41	S4	0.996330	0.121850	0.048910
C1131	C113	0.028700	0.050600	0.112300
C1141	C114	0.003150	0.996700	0.152600
C1151	C115	0.030240	0.936700	0.197900
C1161	C116	0.080900	0.928300	0.198800
H1201	H120	0.098700	0.887500	0.229800
C1171	C117	0.106760	0.978200	0.155400
C1181	C118	0.079950	0.041200	0.114300
H1211	H121	0.097000	0.079000	0.086800
O81	O8	0.951970	0.000900	0.147700
C1191	C119	0.929540	0.937600	0.098300
H1221	H122	0.940600	0.878700	0.114100
H1231	H123	0.940200	0.948100	0.052000
C1201	C120	0.873900	0.943100	0.091800
C1211	C121	0.846270	0.872600	0.065700
H1241	H124	0.863500	0.820700	0.057500
N81	N8	0.796240	0.872400	0.050900
C1221	C122	0.772680	0.944900	0.066000
H1251	H125	0.737400	0.946600	0.055800
C1231	C123	0.797100	0.016800	0.095500
H1261	H126	0.778900	0.066000	0.107400
C1241	C124	0.848700	0.016800	0.107800
H1271	H127	0.866400	0.066600	0.126800
C1251	C125	0.162100	0.962400	0.151900
C1261	C126	0.165000	0.890700	0.097500
H1281	H128	0.146600	0.908700	0.052400
H1291	H129	0.150500	0.837100	0.113200
H1301	H130	0.199900	0.880400	0.092200
C1271	C127	0.188500	0.925400	0.216800
H1311	H131	0.174500	0.868200	0.225000
H1321	H132	0.184800	0.964000	0.256100
H1331	H133	0.223900	0.919200	0.212500
C1281	C128	0.187900	0.037700	0.124000
H1341	H134	0.179900	0.091100	0.147900
H1351	H135	0.176900	0.043500	0.073600
H1361	H136	0.223900	0.028100	0.132300
Br51	Br5	0.816120	0.356240	0.576640
C1291	C129	0.469820	0.186500	0.683700
C1301	C130	0.494620	0.250900	0.651300
C1311	C131	0.467860	0.299200	0.597300
C1321	C132	0.418510	0.277400	0.572500
H1371	H137	0.400700	0.310500	0.535500
C1331	C133	0.394940	0.207900	0.600900
C1341	C134	0.420570	0.165600	0.657500
H1381	H138	0.404400	0.120800	0.679600
O91	O9	0.544910	0.264100	0.670100
C1351	C135	0.571120	0.207800	0.626900
H1391	H139	0.564000	0.146200	0.636500
H1401	H140	0.559600	0.219300	0.576700
C1361	C136	0.626270	0.224400	0.643000
C1371	C137	0.653910	0.225300	0.588400
H1411	H141	0.637000	0.219400	0.542000
N91	N9	0.703730	0.234300	0.597300
C1381	C138	0.726700	0.243200	0.662400
H1421	H142	0.761800	0.249700	0.669700
C1391	C139	0.701800	0.243400	0.719800
H1431	H143	0.719500	0.249200	0.765700
C1401	C140	0.650300	0.235200	0.709600
H1441	H144	0.632200	0.237100	0.748300
C1411	C141	0.341900	0.181200	0.569500
C1421	C142	0.306700	0.257000	0.575300
H1451	H145	0.272500	0.238700	0.558700
H1461	H146	0.309200	0.275500	0.624400
H1471	H147	0.315600	0.305500	0.546600
C1431	C143	0.323200	0.102700	0.608100
H1481	H148	0.346000	0.053700	0.606300
H1491	H149	0.321800	0.118300	0.657000
H1501	H150	0.290000	0.086300	0.585300
C1441	C144	0.341400	0.156100	0.492200
H1511	H151	0.356300	0.203000	0.467800
H1521	H152	0.360500	0.102500	0.489400
H1531	H153	0.307000	0.146900	0.470200
S51	S5	0.496330	0.378150	0.548910
C1451	C145	0.528700	0.449400	0.612300
C1461	C146	0.503150	0.503300	0.652600
C1471	C147	0.530240	0.563300	0.697900
C1481	C148	0.580900	0.571700	0.698800
H1541	H154	0.598700	0.612500	0.729800
C1491	C149	0.606760	0.521800	0.655400
C1501	C150	0.579950	0.458800	0.614300
H1551	H155	0.597000	0.421000	0.586800
O101	O10	0.451970	0.499100	0.647700
C1511	C151	0.429540	0.562400	0.598300
H1561	H156	0.440600	0.621300	0.614100
H1571	H157	0.440200	0.551900	0.552000
C1521	C152	0.373900	0.556900	0.591800
C1531	C153	0.346270	0.627400	0.565700
H1581	H158	0.363500	0.679300	0.557500
N101	N10	0.296240	0.627600	0.550900
C1541	C154	0.272680	0.555100	0.566000
H1591	H159	0.237400	0.553400	0.555800
C1551	C155	0.297100	0.483200	0.595500
H1601	H160	0.278900	0.434000	0.607400
C1561	C156	0.348700	0.483200	0.607800
H1611	H161	0.366400	0.433400	0.626800
C1571	C157	0.662100	0.537600	0.651900
C1581	C158	0.665000	0.609300	0.597500
H1621	H162	0.646600	0.591300	0.552400
H1631	H163	0.650500	0.662900	0.613200
H1641	H164	0.699900	0.619600	0.592200
C1591	C159	0.688500	0.574600	0.716800
H1651	H165	0.674500	0.631800	0.725000
H1661	H166	0.684800	0.536000	0.756100
H1671	H167	0.723900	0.580800	0.712500
C1601	C160	0.687900	0.462300	0.624000
H1681	H168	0.679900	0.408900	0.647900
H1691	H169	0.676900	0.456500	0.573600
H1701	H170	0.723900	0.471900	0.632300
Br61	Br6	0.316120	0.856240	0.576640
C1611	C161	0.969820	0.686500	0.683700
C1621	C162	0.994620	0.750900	0.651300
C1631	C163	0.967860	0.799200	0.597300
C1641	C164	0.918510	0.777400	0.572500
H1711	H171	0.900700	0.810500	0.535500
C1651	C165	0.894940	0.707900	0.600900
C1661	C166	0.920570	0.665600	0.657500
H1721	H172	0.904400	0.620800	0.679600
O111	O11	0.044910	0.764100	0.670100
C1671	C167	0.071120	0.707800	0.626900
H1731	H173	0.064000	0.646200	0.636500
H1741	H174	0.059600	0.719300	0.576700
C1681	C168	0.126270	0.724400	0.643000
C1691	C169	0.153910	0.725300	0.588400
H1751	H175	0.137000	0.719400	0.542000
N111	N11	0.203730	0.734300	0.597300
C1701	C170	0.226700	0.743200	0.662400
H1761	H176	0.261800	0.749700	0.669700
C1711	C171	0.201800	0.743400	0.719800
H1771	H177	0.219500	0.749200	0.765700
C1721	C172	0.150300	0.735200	0.709600
H1781	H178	0.132200	0.737100	0.748300
C1731	C173	0.841900	0.681200	0.569500
C1741	C174	0.806700	0.757000	0.575300
H1791	H179	0.772500	0.738700	0.558700
H1801	H180	0.809200	0.775500	0.624400
H1811	H181	0.815600	0.805500	0.546600
C1751	C175	0.823200	0.602700	0.608100
H1821	H182	0.846000	0.553700	0.606300
H1831	H183	0.821800	0.618300	0.657000
H1841	H184	0.790000	0.586300	0.585300
C1761	C176	0.841400	0.656100	0.492200
H1851	H185	0.856300	0.703000	0.467800
H1861	H186	0.860500	0.602500	0.489400
H1871	H187	0.807000	0.646900	0.470200
S61	S6	0.996330	0.878150	0.548910
C1771	C177	0.028700	0.949400	0.612300
C1781	C178	0.003150	0.003300	0.652600
C1791	C179	0.030240	0.063300	0.697900
C1801	C180	0.080900	0.071700	0.698800
H1881	H188	0.098700	0.112500	0.729800
C1811	C181	0.106760	0.021800	0.655400
C1821	C182	0.079950	0.958800	0.614300
H1891	H189	0.097000	0.921000	0.586800
O121	O12	0.951970	0.999100	0.647700
C1831	C183	0.929540	0.062400	0.598300
H1901	H190	0.940600	0.121300	0.614100
H1911	H191	0.940200	0.051900	0.552000
C1841	C184	0.873900	0.056900	0.591800
C1851	C185	0.846270	0.127400	0.565700
H1921	H192	0.863500	0.179300	0.557500
N121	N12	0.796240	0.127600	0.550900
C1861	C186	0.772680	0.055100	0.566000
H1931	H193	0.737400	0.053400	0.555800
C1871	C187	0.797100	0.983200	0.595500
H1941	H194	0.778900	0.934000	0.607400
C1881	C188	0.848700	0.983200	0.607800
H1951	H195	0.866400	0.933400	0.626800
C1891	C189	0.162100	0.037600	0.651900
C1901	C190	0.165000	0.109300	0.597500
H1961	H196	0.146600	0.091300	0.552400
H1971	H197	0.150500	0.162900	0.613200
H1981	H198	0.199900	0.119600	0.592200
C1911	C191	0.188500	0.074600	0.716800
H1991	H199	0.174500	0.131800	0.725000
H2001	H200	0.184800	0.036000	0.756100
H2011	H201	0.223900	0.080800	0.712500
C1921	C192	0.187900	0.962300	0.624000
H2021	H202	0.179900	0.908900	0.647900
H2031	H203	0.176900	0.956500	0.573600
H2041	H204	0.223900	0.971900	0.632300
Br71	Br7	0.183880	0.356240	0.923360
C1931	C193	0.530180	0.186500	0.816300
C1941	C194	0.505380	0.250900	0.848700
C1951	C195	0.532140	0.299200	0.902700
C1961	C196	0.581490	0.277400	0.927500
H2051	H205	0.599300	0.310500	0.964500
C1971	C197	0.605060	0.207900	0.899100
C1981	C198	0.579430	0.165600	0.842500
H2061	H206	0.595600	0.120800	0.820400
O131	O13	0.455090	0.264100	0.829900
C1991	C199	0.428880	0.207800	0.873100
H2071	H207	0.436000	0.146200	0.863500
H2081	H208	0.440400	0.219300	0.923300
C2001	C200	0.373730	0.224400	0.857000
C2011	C201	0.346090	0.225300	0.911600
H2091	H209	0.363000	0.219400	0.958000
N131	N13	0.296270	0.234300	0.902700
C2021	C202	0.273300	0.243200	0.837600
H2101	H210	0.238200	0.249700	0.830300
C2031	C203	0.298200	0.243400	0.780200
H2111	H211	0.280500	0.249200	0.734300
C2041	C204	0.349700	0.235200	0.790400
H2121	H212	0.367800	0.237100	0.751700
C2051	C205	0.658100	0.181200	0.930500
C2061	C206	0.693300	0.257000	0.924700
H2131	H213	0.727500	0.238700	0.941300
H2141	H214	0.690800	0.275500	0.875600
H2151	H215	0.684400	0.305500	0.953400
C2071	C207	0.676800	0.102700	0.891900
H2161	H216	0.654000	0.053700	0.893700
H2171	H217	0.678200	0.118300	0.843000
H2181	H218	0.710000	0.086300	0.914700
C2081	C208	0.658600	0.156100	0.007800
H2191	H219	0.643700	0.203000	0.032200
H2201	H220	0.639500	0.102500	0.010600
H2211	H221	0.693000	0.146900	0.029800
S71	S7	0.503670	0.378150	0.951090
C2091	C209	0.471300	0.449400	0.887700
C2101	C210	0.496850	0.503300	0.847400
C2111	C211	0.469760	0.563300	0.802100
C2121	C212	0.419100	0.571700	0.801200
H2221	H222	0.401300	0.612500	0.770200
C2131	C213	0.393240	0.521800	0.844600
C2141	C214	0.420050	0.458800	0.885700
H2231	H223	0.403000	0.421000	0.913200
O141	O14	0.548030	0.499100	0.852300
C2151	C215	0.570460	0.562400	0.901700
H2241	H224	0.559400	0.621300	0.885900
H2251	H225	0.559800	0.551900	0.948000
C2161	C216	0.626100	0.556900	0.908200
C2171	C217	0.653730	0.627400	0.934300
H2261	H226	0.636500	0.679300	0.942500
N141	N14	0.703760	0.627600	0.949100
C2181	C218	0.727320	0.555100	0.934000
H2271	H227	0.762600	0.553400	0.944200
C2191	C219	0.702900	0.483200	0.904500
H2281	H228	0.721100	0.434000	0.892600
C2201	C220	0.651300	0.483200	0.892200
H2291	H229	0.633600	0.433400	0.873200
C2211	C221	0.337900	0.537600	0.848100
C2221	C222	0.335000	0.609300	0.902500
H2301	H230	0.353400	0.591300	0.947600
H2311	H231	0.349500	0.662900	0.886800
H2321	H232	0.300100	0.619600	0.907800
C2231	C223	0.311500	0.574600	0.783200
H2331	H233	0.325500	0.631800	0.775000
H2341	H234	0.315200	0.536000	0.743900
H2351	H235	0.276100	0.580800	0.787500
C2241	C224	0.312100	0.462300	0.876000
H2361	H236	0.320100	0.408900	0.852100
H2371	H237	0.323100	0.456500	0.926400
H2381	H238	0.276100	0.471900	0.867700
Br81	Br8	0.683880	0.856240	0.923360
C2251	C225	0.030180	0.686500	0.816300
C2261	C226	0.005380	0.750900	0.848700
C2271	C227	0.032140	0.799200	0.902700
C2281	C228	0.081490	0.777400	0.927500
H2391	H239	0.099300	0.810500	0.964500
C2291	C229	0.105060	0.707900	0.899100
C2301	C230	0.079430	0.665600	0.842500
H2401	H240	0.095600	0.620800	0.820400
O151	O15	0.955090	0.764100	0.829900
C2311	C231	0.928880	0.707800	0.873100
H2411	H241	0.936000	0.646200	0.863500
H2421	H242	0.940400	0.719300	0.923300
C2321	C232	0.873730	0.724400	0.857000
C2331	C233	0.846090	0.725300	0.911600
H2431	H243	0.863000	0.719400	0.958000
N151	N15	0.796270	0.734300	0.902700
C2341	C234	0.773300	0.743200	0.837600
H2441	H244	0.738200	0.749700	0.830300
C2351	C235	0.798200	0.743400	0.780200
H2451	H245	0.780500	0.749200	0.734300
C2361	C236	0.849700	0.735200	0.790400
H2461	H246	0.867800	0.737100	0.751700
C2371	C237	0.158100	0.681200	0.930500
C2381	C238	0.193300	0.757000	0.924700
H2471	H247	0.227500	0.738700	0.941300
H2481	H248	0.190800	0.775500	0.875600
H2491	H249	0.184400	0.805500	0.953400
C2391	C239	0.176800	0.602700	0.891900
H2501	H250	0.154000	0.553700	0.893700
H2511	H251	0.178200	0.618300	0.843000
H2521	H252	0.210000	0.586300	0.914700
C2401	C240	0.158600	0.656100	0.007800
H2531	H253	0.143700	0.703000	0.032200
H2541	H254	0.139500	0.602500	0.010600
H2551	H255	0.193000	0.646900	0.029800
S81	S8	0.003670	0.878150	0.951090
C2411	C241	0.971300	0.949400	0.887700
C2421	C242	0.996850	0.003300	0.847400
C2431	C243	0.969760	0.063300	0.802100
C2441	C244	0.919100	0.071700	0.801200
H2561	H256	0.901300	0.112500	0.770200
C2451	C245	0.893240	0.021800	0.844600
C2461	C246	0.920050	0.958800	0.885700
H2571	H257	0.903000	0.921000	0.913200
O161	O16	0.048030	0.999100	0.852300
C2471	C247	0.070460	0.062400	0.901700
H2581	H258	0.059400	0.121300	0.885900
H2591	H259	0.059800	0.051900	0.948000
C2481	C248	0.126100	0.056900	0.908200
C2491	C249	0.153730	0.127400	0.934300
H2601	H260	0.136500	0.179300	0.942500
N161	N16	0.203760	0.127600	0.949100
C2501	C250	0.227320	0.055100	0.934000
H2611	H261	0.262600	0.053400	0.944200
C2511	C251	0.202900	0.983200	0.904500
H2621	H262	0.221100	0.934000	0.892600
C2521	C252	0.151300	0.983200	0.892200
H2631	H263	0.133600	0.933400	0.873200
C2531	C253	0.837900	0.037600	0.848100
C2541	C254	0.835000	0.109300	0.902500
H2641	H264	0.853400	0.091300	0.947600
H2651	H265	0.849500	0.162900	0.886800
H2661	H266	0.800100	0.119600	0.907800
C2551	C255	0.811500	0.074600	0.783200
H2671	H267	0.825500	0.131800	0.775000
H2681	H268	0.815200	0.036000	0.743900
H2691	H269	0.776100	0.080800	0.787500
C2561	C256	0.812100	0.962300	0.876000
H2701	H270	0.820100	0.908900	0.852100
H2711	H271	0.823100	0.956500	0.926400
H2721	H272	0.776100	0.971900	0.867700
Cd11	Cd1	0.250000	0.750000	0.500000
Cd21	Cd2	0.750000	0.750000	0.000000
Cd31	Cd3	0.750000	0.250000	0.500000
Cd41	Cd4	0.250000	0.250000	0.000000
S91	S9	0.500000	0.882480	0.250000
S101	S10	0.500000	0.364290	0.250000
S111	S11	0.000000	0.382480	0.250000
S121	S12	0.000000	0.864290	0.250000
S131	S13	0.500000	0.117520	0.750000
S141	S14	0.500000	0.635710	0.750000
S151	S15	0.000000	0.617520	0.750000
S161	S16	0.000000	0.135710	0.750000
