data_NIZZOM_clean_PM
_symmetry_space_group_name_H-M	'P1'
_cell_length_a	14.012000
_cell_length_b	28.280000
_cell_length_c	44.907000
_cell_angle_alpha	90.000000
_cell_angle_beta	90.000000
_cell_angle_gamma	90.000000
_symmetry_Int_Tables_number 1

loop_
_symmetry_equiv_pos_as_xyz
'x,y,z'

loop_
_atom_site_label
_atom_site_type_symbol
_atom_site_fract_x
_atom_site_fract_y
_atom_site_fract_z
Zn11	Zn1	0.331310	0.763400	0.181060
Zn21	Zn2	0.367120	0.948380	0.915110
Zn31	Zn3	0.116920	0.980420	0.084880
Zn41	Zn4	0.668690	0.736600	0.681060
Zn51	Zn5	0.632880	0.551620	0.415110
Zn61	Zn6	0.883080	0.519580	0.584880
Zn71	Zn7	0.831310	0.236600	0.318940
Zn81	Zn8	0.867120	0.051620	0.584890
Zn91	Zn9	0.616920	0.019580	0.415120
Zn101	Zn10	0.168690	0.263400	0.818940
Zn111	Zn11	0.132880	0.448380	0.084890
Zn121	Zn12	0.383080	0.480420	0.915120
H11	H1	0.297100	0.826400	0.130400
H21	H2	0.377900	0.867900	0.093500
H31	H3	0.625700	0.822000	0.129900
H41	H4	0.537500	0.783100	0.165500
H51	H5	0.971100	0.923600	0.117400
H61	H6	0.815900	0.897700	0.112400
H71	H7	0.819200	0.945200	0.027600
H81	H8	0.974000	0.970900	0.035000
H91	H9	0.306400	0.931300	0.979700
H101	H10	0.377400	0.914200	0.025500
H111	H11	0.632600	0.942300	0.987700
H121	H12	0.554900	0.959800	0.943900
H131	H13	0.619800	0.655100	0.431500
H141	H14	0.592800	0.728200	0.408700
H151	H15	0.522200	0.657500	0.333900
H161	H16	0.546900	0.587600	0.358800
H171	H17	0.591200	0.917200	0.430500
H181	H18	0.565600	0.844700	0.407300
H191	H19	0.544200	0.912400	0.328700
H201	H20	0.570500	0.983400	0.353900
H211	H21	0.391100	0.840700	0.222600
H221	H22	0.452300	0.849500	0.270600
H231	H23	0.488300	0.708500	0.274200
H241	H24	0.430700	0.702700	0.226200
H251	H25	0.702900	0.673600	0.630400
H261	H26	0.622100	0.632100	0.593500
H271	H27	0.374300	0.678000	0.629900
H281	H28	0.462500	0.716900	0.665500
H291	H29	0.028900	0.576400	0.617400
H301	H30	0.184100	0.602300	0.612400
H311	H31	0.180800	0.554800	0.527600
H321	H32	0.026000	0.529100	0.535000
H331	H33	0.693600	0.568700	0.479700
H341	H34	0.622600	0.585800	0.525500
H351	H35	0.367400	0.557700	0.487700
H361	H36	0.445100	0.540200	0.443900
H371	H37	0.380200	0.844900	0.931500
H381	H38	0.407200	0.771800	0.908700
H391	H39	0.477800	0.842500	0.833900
H401	H40	0.453100	0.912400	0.858800
H411	H41	0.408800	0.582800	0.930500
H421	H42	0.434400	0.655300	0.907300
H431	H43	0.455800	0.587600	0.828700
H441	H44	0.429500	0.516600	0.853900
H451	H45	0.608900	0.659300	0.722600
H461	H46	0.547700	0.650500	0.770600
H471	H47	0.511700	0.791500	0.774200
H481	H48	0.569300	0.797300	0.726200
H491	H49	0.797100	0.173600	0.369600
H501	H50	0.877900	0.132100	0.406500
H511	H51	0.125700	0.178000	0.370100
H521	H52	0.037500	0.216900	0.334500
H531	H53	0.471100	0.076400	0.382600
H541	H54	0.315900	0.102300	0.387600
H551	H55	0.319200	0.054800	0.472400
H561	H56	0.474000	0.029100	0.465000
H571	H57	0.806400	0.068700	0.520300
H581	H58	0.877400	0.085800	0.474500
H591	H59	0.132600	0.057700	0.512300
H601	H60	0.054900	0.040200	0.556100
H611	H61	0.119800	0.344900	0.068500
H621	H62	0.092800	0.271800	0.091300
H631	H63	0.022200	0.342500	0.166100
H641	H64	0.046900	0.412400	0.141200
H651	H65	0.091200	0.082800	0.069500
H661	H66	0.065600	0.155300	0.092700
H671	H67	0.044200	0.087600	0.171300
H681	H68	0.070500	0.016600	0.146100
H691	H69	0.891100	0.159300	0.277400
H701	H70	0.952300	0.150500	0.229400
H711	H71	0.988300	0.291500	0.225800
H721	H72	0.930700	0.297300	0.273800
H731	H73	0.202900	0.326400	0.869600
H741	H74	0.122100	0.367900	0.906500
H751	H75	0.874300	0.322000	0.870100
H761	H76	0.962500	0.283100	0.834500
H771	H77	0.528900	0.423600	0.882600
H781	H78	0.684100	0.397700	0.887600
H791	H79	0.680800	0.445200	0.972400
H801	H80	0.526000	0.470900	0.965000
H811	H81	0.193600	0.431300	0.020300
H821	H82	0.122600	0.414200	0.974500
H831	H83	0.867400	0.442300	0.012300
H841	H84	0.945100	0.459800	0.056100
H851	H85	0.880200	0.155100	0.568500
H861	H86	0.907200	0.228200	0.591300
H871	H87	0.977800	0.157500	0.666100
H881	H88	0.953100	0.087600	0.641200
H891	H89	0.908800	0.417200	0.569500
H901	H90	0.934400	0.344700	0.592700
H911	H91	0.955800	0.412400	0.671300
H921	H92	0.929500	0.483400	0.646100
H931	H93	0.108900	0.340700	0.777400
H941	H94	0.047700	0.349500	0.729400
H951	H95	0.011700	0.208500	0.725800
H961	H96	0.069300	0.202700	0.773800
C11	C1	0.364900	0.825800	0.130210
C21	C2	0.412400	0.850200	0.107840
C31	C3	0.511200	0.848200	0.106960
C41	C4	0.558000	0.823200	0.129300
C51	C5	0.505000	0.800500	0.150520
C61	C6	0.564200	0.873600	0.082970
C71	C7	0.698500	0.905900	0.065430
C81	C8	0.563500	0.910500	0.038580
C91	C9	0.939200	0.928700	0.099050
C101	C10	0.847000	0.912800	0.096220
C111	C11	0.799900	0.919200	0.069300
C121	C12	0.848900	0.940900	0.046440
C131	C13	0.941000	0.956100	0.050960
C141	C14	0.373900	0.932700	0.981280
C151	C15	0.415600	0.922300	0.008800
C161	C16	0.513500	0.924100	0.010880
C171	C17	0.565200	0.939000	0.986440
C181	C18	0.518400	0.949100	0.960350
C191	C19	0.599800	0.655700	0.411320
C201	C20	0.584600	0.699700	0.397770
C211	C21	0.557500	0.700600	0.368320
C221	C22	0.542800	0.658000	0.354080
C231	C23	0.558000	0.616500	0.368960
C241	C24	0.543100	0.825100	0.350340
C251	C25	0.543200	0.745700	0.352030
C261	C26	0.505700	0.783000	0.309260
C271	C27	0.582700	0.916300	0.409500
C281	C28	0.567600	0.872800	0.395780
C291	C29	0.555600	0.870900	0.365570
C301	C30	0.555000	0.912500	0.349540
C311	C31	0.570500	0.954600	0.364800
C321	C32	0.411200	0.813400	0.233260
C331	C33	0.446900	0.818900	0.262010
C341	C34	0.474200	0.779500	0.277850
C351	C35	0.468300	0.736200	0.263970
C361	C36	0.433800	0.732900	0.235440
C371	C37	0.635100	0.674200	0.630210
C381	C38	0.587600	0.649800	0.607840
C391	C39	0.488800	0.651800	0.606960
C401	C40	0.442000	0.676800	0.629300
C411	C41	0.495000	0.699500	0.650520
C421	C42	0.435800	0.626400	0.582970
C431	C43	0.301500	0.594100	0.565430
C441	C44	0.436500	0.589500	0.538580
C451	C45	0.060800	0.571300	0.599050
C461	C46	0.153000	0.587200	0.596220
C471	C47	0.200100	0.580800	0.569300
C481	C48	0.151100	0.559100	0.546440
C491	C49	0.059000	0.543900	0.550960
C501	C50	0.626100	0.567300	0.481280
C511	C51	0.584400	0.577700	0.508800
C521	C52	0.486500	0.575900	0.510880
C531	C53	0.434800	0.561000	0.486440
C541	C54	0.481600	0.550900	0.460350
C551	C55	0.400200	0.844300	0.911320
C561	C56	0.415400	0.800300	0.897770
C571	C57	0.442500	0.799400	0.868320
C581	C58	0.457200	0.842000	0.854080
C591	C59	0.442000	0.883500	0.868960
C601	C60	0.456900	0.674900	0.850340
C611	C61	0.456800	0.754300	0.852030
C621	C62	0.494300	0.717000	0.809260
C631	C63	0.417300	0.583700	0.909500
C641	C64	0.432400	0.627200	0.895780
C651	C65	0.444400	0.629100	0.865570
C661	C66	0.445000	0.587500	0.849540
C671	C67	0.429500	0.545400	0.864800
C681	C68	0.588800	0.686600	0.733260
C691	C69	0.553100	0.681100	0.762010
C701	C70	0.525800	0.720500	0.777850
C711	C71	0.531700	0.763800	0.763970
C721	C72	0.566200	0.767100	0.735440
C731	C73	0.864900	0.174200	0.369790
C741	C74	0.912400	0.149800	0.392160
C751	C75	0.011200	0.151800	0.393040
C761	C76	0.058000	0.176800	0.370700
C771	C77	0.005000	0.199500	0.349480
C781	C78	0.064200	0.126400	0.417030
C791	C79	0.198500	0.094100	0.434570
C801	C80	0.063500	0.089500	0.461420
C811	C81	0.439200	0.071300	0.400950
C821	C82	0.347000	0.087200	0.403780
C831	C83	0.299900	0.080800	0.430700
C841	C84	0.348900	0.059100	0.453560
C851	C85	0.441000	0.043900	0.449040
C861	C86	0.873900	0.067300	0.518720
C871	C87	0.915600	0.077700	0.491200
C881	C88	0.013500	0.075900	0.489120
C891	C89	0.065200	0.061000	0.513560
C901	C90	0.018400	0.050900	0.539650
C911	C91	0.099800	0.344300	0.088680
C921	C92	0.084600	0.300300	0.102230
C931	C93	0.057500	0.299400	0.131680
C941	C94	0.042800	0.342000	0.145920
C951	C95	0.058000	0.383500	0.131040
C961	C96	0.043100	0.174900	0.149660
C971	C97	0.043200	0.254300	0.147970
C981	C98	0.005700	0.217000	0.190740
C991	C99	0.082700	0.083700	0.090500
C1001	C100	0.067600	0.127200	0.104220
C1011	C101	0.055600	0.129100	0.134430
C1021	C102	0.055000	0.087500	0.150460
C1031	C103	0.070500	0.045400	0.135200
C1041	C104	0.911200	0.186600	0.266740
C1051	C105	0.946900	0.181100	0.237990
C1061	C106	0.974200	0.220500	0.222150
C1071	C107	0.968300	0.263800	0.236030
C1081	C108	0.933800	0.267100	0.264560
C1091	C109	0.135100	0.325800	0.869790
C1101	C110	0.087600	0.350200	0.892160
C1111	C111	0.988800	0.348200	0.893040
C1121	C112	0.942000	0.323200	0.870700
C1131	C113	0.995000	0.300500	0.849480
C1141	C114	0.935800	0.373600	0.917030
C1151	C115	0.801500	0.405900	0.934570
C1161	C116	0.936500	0.410500	0.961420
C1171	C117	0.560800	0.428700	0.900950
C1181	C118	0.653000	0.412800	0.903780
C1191	C119	0.700100	0.419200	0.930700
C1201	C120	0.651100	0.440900	0.953560
C1211	C121	0.559000	0.456100	0.949040
C1221	C122	0.126100	0.432700	0.018720
C1231	C123	0.084400	0.422300	0.991200
C1241	C124	0.986500	0.424100	0.989120
C1251	C125	0.934800	0.439000	0.013560
C1261	C126	0.981600	0.449100	0.039650
C1271	C127	0.900200	0.155700	0.588680
C1281	C128	0.915400	0.199700	0.602230
C1291	C129	0.942500	0.200600	0.631680
C1301	C130	0.957200	0.158000	0.645920
C1311	C131	0.942000	0.116500	0.631040
C1321	C132	0.956900	0.325100	0.649660
C1331	C133	0.956800	0.245700	0.647970
C1341	C134	0.994300	0.283000	0.690740
C1351	C135	0.917300	0.416300	0.590500
C1361	C136	0.932400	0.372800	0.604220
C1371	C137	0.944400	0.370900	0.634430
C1381	C138	0.945000	0.412500	0.650460
C1391	C139	0.929500	0.454600	0.635200
C1401	C140	0.088800	0.313400	0.766740
C1411	C141	0.053100	0.318900	0.737990
C1421	C142	0.025800	0.279500	0.722150
C1431	C143	0.031700	0.236200	0.736030
C1441	C144	0.066200	0.232900	0.764560
I11	I1	0.168950	0.803280	0.187560
I21	I2	0.335360	0.677230	0.164880
I31	I3	0.187130	0.941830	0.917750
I41	I4	0.454780	0.012070	0.885930
I51	I5	0.192540	0.999100	0.034370
I61	I6	0.202760	0.929370	0.122270
I71	I7	0.831050	0.696720	0.687560
I81	I8	0.664640	0.822770	0.664880
I91	I9	0.812870	0.558170	0.417750
I101	I10	0.545220	0.487930	0.385930
I111	I11	0.807460	0.500900	0.534370
I121	I12	0.797240	0.570630	0.622270
I131	I13	0.668950	0.196720	0.312440
I141	I14	0.835360	0.322770	0.335120
I151	I15	0.687130	0.058170	0.582250
I161	I16	0.954780	0.987930	0.614070
I171	I17	0.692540	0.000900	0.465630
I181	I18	0.702760	0.070630	0.377730
I191	I19	0.331050	0.303280	0.812440
I201	I20	0.164640	0.177230	0.835120
I211	I21	0.312870	0.441830	0.082250
I221	I22	0.045220	0.512070	0.114070
I231	I23	0.307460	0.499100	0.965630
I241	I24	0.297240	0.429370	0.877730
N11	N1	0.409200	0.801800	0.151160
N21	N2	0.513600	0.887400	0.059210
N31	N3	0.657200	0.881100	0.087110
N41	N4	0.654800	0.921300	0.040810
N51	N5	0.986200	0.950800	0.077270
N61	N6	0.424000	0.944600	0.956980
N71	N7	0.587700	0.614900	0.397290
N81	N8	0.556300	0.785800	0.366520
N91	N9	0.517400	0.742100	0.323490
N101	N10	0.517200	0.825500	0.321130
N111	N11	0.585600	0.956300	0.394320
N121	N12	0.404300	0.770800	0.220180
N131	N13	0.590800	0.698200	0.651160
N141	N14	0.486400	0.612600	0.559210
N151	N15	0.342800	0.618900	0.587110
N161	N16	0.345200	0.578700	0.540810
N171	N17	0.013800	0.549200	0.577270
N181	N18	0.576000	0.555400	0.456980
N191	N19	0.412300	0.885100	0.897290
N201	N20	0.443700	0.714200	0.866520
N211	N21	0.482600	0.757900	0.823490
N221	N22	0.482800	0.674500	0.821130
N231	N23	0.414400	0.543700	0.894320
N241	N24	0.595700	0.729200	0.720180
N251	N25	0.909200	0.198200	0.348840
N261	N26	0.013600	0.112600	0.440790
N271	N27	0.157200	0.118900	0.412890
N281	N28	0.154800	0.078700	0.459190
N291	N29	0.486200	0.049200	0.422730
N301	N30	0.924000	0.055400	0.543020
N311	N31	0.087700	0.385100	0.102710
N321	N32	0.056300	0.214200	0.133480
N331	N33	0.017400	0.257900	0.176510
N341	N34	0.017200	0.174500	0.178870
N351	N35	0.085600	0.043700	0.105680
N361	N36	0.904300	0.229200	0.279820
N371	N37	0.090800	0.301800	0.848840
N381	N38	0.986400	0.387400	0.940790
N391	N39	0.842800	0.381100	0.912890
N401	N40	0.845200	0.421300	0.959190
N411	N41	0.513800	0.450800	0.922730
N421	N42	0.076000	0.444600	0.043020
N431	N43	0.912300	0.114900	0.602710
N441	N44	0.943700	0.285800	0.633480
N451	N45	0.982600	0.242100	0.676510
N461	N46	0.982800	0.325500	0.678870
N471	N47	0.914400	0.456300	0.605680
N481	N48	0.095700	0.270800	0.779820
Zn131	Zn13	0.668690	0.236600	0.818940
Zn141	Zn14	0.632880	0.051620	0.084890
Zn151	Zn15	0.883080	0.019580	0.915120
Zn161	Zn16	0.331310	0.263400	0.318940
Zn171	Zn17	0.367120	0.448380	0.584890
Zn181	Zn18	0.116920	0.480420	0.415120
Zn191	Zn19	0.168690	0.763400	0.681060
Zn201	Zn20	0.132880	0.948380	0.415110
Zn211	Zn21	0.383080	0.980420	0.584880
Zn221	Zn22	0.831310	0.736600	0.181060
Zn231	Zn23	0.867120	0.551620	0.915110
Zn241	Zn24	0.616920	0.519580	0.084880
H971	H97	0.702900	0.173600	0.869600
H981	H98	0.622100	0.132100	0.906500
H991	H99	0.374300	0.178000	0.870100
H1001	H100	0.462500	0.216900	0.834500
H1011	H101	0.028900	0.076400	0.882600
H1021	H102	0.184100	0.102300	0.887600
H1031	H103	0.180800	0.054800	0.972400
H1041	H104	0.026000	0.029100	0.965000
H1051	H105	0.693600	0.068700	0.020300
H1061	H106	0.622600	0.085800	0.974500
H1071	H107	0.367400	0.057700	0.012300
H1081	H108	0.445100	0.040200	0.056100
H1091	H109	0.380200	0.344900	0.568500
H1101	H110	0.407200	0.271800	0.591300
H1111	H111	0.477800	0.342500	0.666100
H1121	H112	0.453100	0.412400	0.641200
H1131	H113	0.408800	0.082800	0.569500
H1141	H114	0.434400	0.155300	0.592700
H1151	H115	0.455800	0.087600	0.671300
H1161	H116	0.429500	0.016600	0.646100
H1171	H117	0.608900	0.159300	0.777400
H1181	H118	0.547700	0.150500	0.729400
H1191	H119	0.511700	0.291500	0.725800
H1201	H120	0.569300	0.297300	0.773800
H1211	H121	0.297100	0.326400	0.369600
H1221	H122	0.377900	0.367900	0.406500
H1231	H123	0.625700	0.322000	0.370100
H1241	H124	0.537500	0.283100	0.334500
H1251	H125	0.971100	0.423600	0.382600
H1261	H126	0.815900	0.397700	0.387600
H1271	H127	0.819200	0.445200	0.472400
H1281	H128	0.974000	0.470900	0.465000
H1291	H129	0.306400	0.431300	0.520300
H1301	H130	0.377400	0.414200	0.474500
H1311	H131	0.632600	0.442300	0.512300
H1321	H132	0.554900	0.459800	0.556100
H1331	H133	0.619800	0.155100	0.068500
H1341	H134	0.592800	0.228200	0.091300
H1351	H135	0.522200	0.157500	0.166100
H1361	H136	0.546900	0.087600	0.141200
H1371	H137	0.591200	0.417200	0.069500
H1381	H138	0.565600	0.344700	0.092700
H1391	H139	0.544200	0.412400	0.171300
H1401	H140	0.570500	0.483400	0.146100
H1411	H141	0.391100	0.340700	0.277400
H1421	H142	0.452300	0.349500	0.229400
H1431	H143	0.488300	0.208500	0.225800
H1441	H144	0.430700	0.202700	0.273800
H1451	H145	0.202900	0.826400	0.630400
H1461	H146	0.122100	0.867900	0.593500
H1471	H147	0.874300	0.822000	0.629900
H1481	H148	0.962500	0.783100	0.665500
H1491	H149	0.528900	0.923600	0.617400
H1501	H150	0.684100	0.897700	0.612400
H1511	H151	0.680800	0.945200	0.527600
H1521	H152	0.526000	0.970900	0.535000
H1531	H153	0.193600	0.931300	0.479700
H1541	H154	0.122600	0.914200	0.525500
H1551	H155	0.867400	0.942300	0.487700
H1561	H156	0.945100	0.959800	0.443900
H1571	H157	0.880200	0.655100	0.931500
H1581	H158	0.907200	0.728200	0.908700
H1591	H159	0.977800	0.657500	0.833900
H1601	H160	0.953100	0.587600	0.858800
H1611	H161	0.908800	0.917200	0.930500
H1621	H162	0.934400	0.844700	0.907300
H1631	H163	0.955800	0.912400	0.828700
H1641	H164	0.929500	0.983400	0.853900
H1651	H165	0.108900	0.840700	0.722600
H1661	H166	0.047700	0.849500	0.770600
H1671	H167	0.011700	0.708500	0.774200
H1681	H168	0.069300	0.702700	0.726200
H1691	H169	0.797100	0.673600	0.130400
H1701	H170	0.877900	0.632100	0.093500
H1711	H171	0.125700	0.678000	0.129900
H1721	H172	0.037500	0.716900	0.165500
H1731	H173	0.471100	0.576400	0.117400
H1741	H174	0.315900	0.602300	0.112400
H1751	H175	0.319200	0.554800	0.027600
H1761	H176	0.474000	0.529100	0.035000
H1771	H177	0.806400	0.568700	0.979700
H1781	H178	0.877400	0.585800	0.025500
H1791	H179	0.132600	0.557700	0.987700
H1801	H180	0.054900	0.540200	0.943900
H1811	H181	0.119800	0.844900	0.431500
H1821	H182	0.092800	0.771800	0.408700
H1831	H183	0.022200	0.842500	0.333900
H1841	H184	0.046900	0.912400	0.358800
H1851	H185	0.091200	0.582800	0.430500
H1861	H186	0.065600	0.655300	0.407300
H1871	H187	0.044200	0.587600	0.328700
H1881	H188	0.070500	0.516600	0.353900
H1891	H189	0.891100	0.659300	0.222600
H1901	H190	0.952300	0.650500	0.270600
H1911	H191	0.988300	0.791500	0.274200
H1921	H192	0.930700	0.797300	0.226200
C1451	C145	0.635100	0.174200	0.869790
C1461	C146	0.587600	0.149800	0.892160
C1471	C147	0.488800	0.151800	0.893040
C1481	C148	0.442000	0.176800	0.870700
C1491	C149	0.495000	0.199500	0.849480
C1501	C150	0.435800	0.126400	0.917030
C1511	C151	0.301500	0.094100	0.934570
C1521	C152	0.436500	0.089500	0.961420
C1531	C153	0.060800	0.071300	0.900950
C1541	C154	0.153000	0.087200	0.903780
C1551	C155	0.200100	0.080800	0.930700
C1561	C156	0.151100	0.059100	0.953560
C1571	C157	0.059000	0.043900	0.949040
C1581	C158	0.626100	0.067300	0.018720
C1591	C159	0.584400	0.077700	0.991200
C1601	C160	0.486500	0.075900	0.989120
C1611	C161	0.434800	0.061000	0.013560
C1621	C162	0.481600	0.050900	0.039650
C1631	C163	0.400200	0.344300	0.588680
C1641	C164	0.415400	0.300300	0.602230
C1651	C165	0.442500	0.299400	0.631680
C1661	C166	0.457200	0.342000	0.645920
C1671	C167	0.442000	0.383500	0.631040
C1681	C168	0.456900	0.174900	0.649660
C1691	C169	0.456800	0.254300	0.647970
C1701	C170	0.494300	0.217000	0.690740
C1711	C171	0.417300	0.083700	0.590500
C1721	C172	0.432400	0.127200	0.604220
C1731	C173	0.444400	0.129100	0.634430
C1741	C174	0.445000	0.087500	0.650460
C1751	C175	0.429500	0.045400	0.635200
C1761	C176	0.588800	0.186600	0.766740
C1771	C177	0.553100	0.181100	0.737990
C1781	C178	0.525800	0.220500	0.722150
C1791	C179	0.531700	0.263800	0.736030
C1801	C180	0.566200	0.267100	0.764560
C1811	C181	0.364900	0.325800	0.369790
C1821	C182	0.412400	0.350200	0.392160
C1831	C183	0.511200	0.348200	0.393040
C1841	C184	0.558000	0.323200	0.370700
C1851	C185	0.505000	0.300500	0.349480
C1861	C186	0.564200	0.373600	0.417030
C1871	C187	0.698500	0.405900	0.434570
C1881	C188	0.563500	0.410500	0.461420
C1891	C189	0.939200	0.428700	0.400950
C1901	C190	0.847000	0.412800	0.403780
C1911	C191	0.799900	0.419200	0.430700
C1921	C192	0.848900	0.440900	0.453560
C1931	C193	0.941000	0.456100	0.449040
C1941	C194	0.373900	0.432700	0.518720
C1951	C195	0.415600	0.422300	0.491200
C1961	C196	0.513500	0.424100	0.489120
C1971	C197	0.565200	0.439000	0.513560
C1981	C198	0.518400	0.449100	0.539650
C1991	C199	0.599800	0.155700	0.088680
C2001	C200	0.584600	0.199700	0.102230
C2011	C201	0.557500	0.200600	0.131680
C2021	C202	0.542800	0.158000	0.145920
C2031	C203	0.558000	0.116500	0.131040
C2041	C204	0.543100	0.325100	0.149660
C2051	C205	0.543200	0.245700	0.147970
C2061	C206	0.505700	0.283000	0.190740
C2071	C207	0.582700	0.416300	0.090500
C2081	C208	0.567600	0.372800	0.104220
C2091	C209	0.555600	0.370900	0.134430
C2101	C210	0.555000	0.412500	0.150460
C2111	C211	0.570500	0.454600	0.135200
C2121	C212	0.411200	0.313400	0.266740
C2131	C213	0.446900	0.318900	0.237990
C2141	C214	0.474200	0.279500	0.222150
C2151	C215	0.468300	0.236200	0.236030
C2161	C216	0.433800	0.232900	0.264560
C2171	C217	0.135100	0.825800	0.630210
C2181	C218	0.087600	0.850200	0.607840
C2191	C219	0.988800	0.848200	0.606960
C2201	C220	0.942000	0.823200	0.629300
C2211	C221	0.995000	0.800500	0.650520
C2221	C222	0.935800	0.873600	0.582970
C2231	C223	0.801500	0.905900	0.565430
C2241	C224	0.936500	0.910500	0.538580
C2251	C225	0.560800	0.928700	0.599050
C2261	C226	0.653000	0.912800	0.596220
C2271	C227	0.700100	0.919200	0.569300
C2281	C228	0.651100	0.940900	0.546440
C2291	C229	0.559000	0.956100	0.550960
C2301	C230	0.126100	0.932700	0.481280
C2311	C231	0.084400	0.922300	0.508800
C2321	C232	0.986500	0.924100	0.510880
C2331	C233	0.934800	0.939000	0.486440
C2341	C234	0.981600	0.949100	0.460350
C2351	C235	0.900200	0.655700	0.911320
C2361	C236	0.915400	0.699700	0.897770
C2371	C237	0.942500	0.700600	0.868320
C2381	C238	0.957200	0.658000	0.854080
C2391	C239	0.942000	0.616500	0.868960
C2401	C240	0.956900	0.825100	0.850340
C2411	C241	0.956800	0.745700	0.852030
C2421	C242	0.994300	0.783000	0.809260
C2431	C243	0.917300	0.916300	0.909500
C2441	C244	0.932400	0.872800	0.895780
C2451	C245	0.944400	0.870900	0.865570
C2461	C246	0.945000	0.912500	0.849540
C2471	C247	0.929500	0.954600	0.864800
C2481	C248	0.088800	0.813400	0.733260
C2491	C249	0.053100	0.818900	0.762010
C2501	C250	0.025800	0.779500	0.777850
C2511	C251	0.031700	0.736200	0.763970
C2521	C252	0.066200	0.732900	0.735440
C2531	C253	0.864900	0.674200	0.130210
C2541	C254	0.912400	0.649800	0.107840
C2551	C255	0.011200	0.651800	0.106960
C2561	C256	0.058000	0.676800	0.129300
C2571	C257	0.005000	0.699500	0.150520
C2581	C258	0.064200	0.626400	0.082970
C2591	C259	0.198500	0.594100	0.065430
C2601	C260	0.063500	0.589500	0.038580
C2611	C261	0.439200	0.571300	0.099050
C2621	C262	0.347000	0.587200	0.096220
C2631	C263	0.299900	0.580800	0.069300
C2641	C264	0.348900	0.559100	0.046440
C2651	C265	0.441000	0.543900	0.050960
C2661	C266	0.873900	0.567300	0.981280
C2671	C267	0.915600	0.577700	0.008800
C2681	C268	0.013500	0.575900	0.010880
C2691	C269	0.065200	0.561000	0.986440
C2701	C270	0.018400	0.550900	0.960350
C2711	C271	0.099800	0.844300	0.411320
C2721	C272	0.084600	0.800300	0.397770
C2731	C273	0.057500	0.799400	0.368320
C2741	C274	0.042800	0.842000	0.354080
C2751	C275	0.058000	0.883500	0.368960
C2761	C276	0.043100	0.674900	0.350340
C2771	C277	0.043200	0.754300	0.352030
C2781	C278	0.005700	0.717000	0.309260
C2791	C279	0.082700	0.583700	0.409500
C2801	C280	0.067600	0.627200	0.395780
C2811	C281	0.055600	0.629100	0.365570
C2821	C282	0.055000	0.587500	0.349540
C2831	C283	0.070500	0.545400	0.364800
C2841	C284	0.911200	0.686600	0.233260
C2851	C285	0.946900	0.681100	0.262010
C2861	C286	0.974200	0.720500	0.277850
C2871	C287	0.968300	0.763800	0.263970
C2881	C288	0.933800	0.767100	0.235440
I251	I25	0.831050	0.196720	0.812440
I261	I26	0.664640	0.322770	0.835120
I271	I27	0.812870	0.058170	0.082250
I281	I28	0.545220	0.987930	0.114070
I291	I29	0.807460	0.000900	0.965630
I301	I30	0.797240	0.070630	0.877730
I311	I31	0.168950	0.303280	0.312440
I321	I32	0.335360	0.177230	0.335120
I331	I33	0.187130	0.441830	0.582250
I341	I34	0.454780	0.512070	0.614070
I351	I35	0.192540	0.499100	0.465630
I361	I36	0.202760	0.429370	0.377730
I371	I37	0.331050	0.803280	0.687560
I381	I38	0.164640	0.677230	0.664880
I391	I39	0.312870	0.941830	0.417750
I401	I40	0.045220	0.012070	0.385930
I411	I41	0.307460	0.999100	0.534370
I421	I42	0.297240	0.929370	0.622270
I431	I43	0.668950	0.696720	0.187560
I441	I44	0.835360	0.822770	0.164880
I451	I45	0.687130	0.558170	0.917750
I461	I46	0.954780	0.487930	0.885930
I471	I47	0.692540	0.500900	0.034370
I481	I48	0.702760	0.570630	0.122270
N491	N49	0.590800	0.198200	0.848840
N501	N50	0.486400	0.112600	0.940790
N511	N51	0.342800	0.118900	0.912890
N521	N52	0.345200	0.078700	0.959190
N531	N53	0.013800	0.049200	0.922730
N541	N54	0.576000	0.055400	0.043020
N551	N55	0.412300	0.385100	0.602710
N561	N56	0.443700	0.214200	0.633480
N571	N57	0.482600	0.257900	0.676510
N581	N58	0.482800	0.174500	0.678870
N591	N59	0.414400	0.043700	0.605680
N601	N60	0.595700	0.229200	0.779820
N611	N61	0.409200	0.301800	0.348840
N621	N62	0.513600	0.387400	0.440790
N631	N63	0.657200	0.381100	0.412890
N641	N64	0.654800	0.421300	0.459190
N651	N65	0.986200	0.450800	0.422730
N661	N66	0.424000	0.444600	0.543020
N671	N67	0.587700	0.114900	0.102710
N681	N68	0.556300	0.285800	0.133480
N691	N69	0.517400	0.242100	0.176510
N701	N70	0.517200	0.325500	0.178870
N711	N71	0.585600	0.456300	0.105680
N721	N72	0.404300	0.270800	0.279820
N731	N73	0.090800	0.801800	0.651160
N741	N74	0.986400	0.887400	0.559210
N751	N75	0.842800	0.881100	0.587110
N761	N76	0.845200	0.921300	0.540810
N771	N77	0.513800	0.950800	0.577270
N781	N78	0.076000	0.944600	0.456980
N791	N79	0.912300	0.614900	0.897290
N801	N80	0.943700	0.785800	0.866520
N811	N81	0.982600	0.742100	0.823490
N821	N82	0.982800	0.825500	0.821130
N831	N83	0.914400	0.956300	0.894320
N841	N84	0.095700	0.770800	0.720180
N851	N85	0.909200	0.698200	0.151160
N861	N86	0.013600	0.612600	0.059210
N871	N87	0.157200	0.618900	0.087110
N881	N88	0.154800	0.578700	0.040810
N891	N89	0.486200	0.549200	0.077270
N901	N90	0.924000	0.555400	0.956980
N911	N91	0.087700	0.885100	0.397290
N921	N92	0.056300	0.714200	0.366520
N931	N93	0.017400	0.757900	0.323490
N941	N94	0.017200	0.674500	0.321130
N951	N95	0.085600	0.543700	0.394320
N961	N96	0.904300	0.729200	0.220180
