data_NIZZEC_clean_PM
_symmetry_space_group_name_H-M	'P1'
_cell_length_a	13.872000
_cell_length_b	28.400000
_cell_length_c	44.180000
_cell_angle_alpha	90.000000
_cell_angle_beta	90.000000
_cell_angle_gamma	90.000000
_symmetry_Int_Tables_number 1

loop_
_symmetry_equiv_pos_as_xyz
'x,y,z'

loop_
_atom_site_label
_atom_site_type_symbol
_atom_site_fract_x
_atom_site_fract_y
_atom_site_fract_z
Zn11	Zn1	0.115920	0.980050	0.086120
Zn21	Zn2	0.138490	0.449300	0.086820
Zn31	Zn3	0.818360	0.236430	0.319720
Zn41	Zn4	0.884080	0.519950	0.586120
Zn51	Zn5	0.861510	0.050700	0.586820
Zn61	Zn6	0.181640	0.263570	0.819720
Zn71	Zn7	0.615920	0.019950	0.413880
Zn81	Zn8	0.638490	0.550700	0.413180
Zn91	Zn9	0.318360	0.763570	0.180280
Zn101	Zn10	0.384080	0.480050	0.913880
Zn111	Zn11	0.361510	0.949300	0.913180
Zn121	Zn12	0.681640	0.736430	0.680280
H11	H1	0.060600	0.017600	0.146300
H21	H2	0.037600	0.088300	0.171600
H31	H3	0.076500	0.155200	0.092300
H41	H4	0.097600	0.082700	0.069200
H51	H5	0.864200	0.160900	0.275700
H61	H6	0.930600	0.151100	0.227200
H71	H7	0.998600	0.290100	0.228400
H81	H8	0.936900	0.294900	0.277200
H91	H9	0.045100	0.412300	0.142300
H101	H10	0.016800	0.341600	0.167000
H111	H11	0.100000	0.272800	0.091500
H121	H12	0.128000	0.345800	0.068900
H131	H13	0.302200	0.926800	0.977700
H141	H14	0.372000	0.911000	0.023500
H151	H15	0.628900	0.949300	0.987900
H161	H16	0.549000	0.967500	0.943400
H171	H17	0.288300	0.829300	0.129800
H181	H18	0.372100	0.869100	0.092500
H191	H19	0.619600	0.823200	0.130100
H201	H20	0.527300	0.783200	0.165200
H211	H21	0.975600	0.966800	0.034900
H221	H22	0.821200	0.942400	0.026600
H231	H23	0.808300	0.900700	0.113800
H241	H24	0.965300	0.925300	0.119600
H251	H25	0.939400	0.482400	0.646300
H261	H26	0.962400	0.411700	0.671600
H271	H27	0.923500	0.344800	0.592300
H281	H28	0.902400	0.417300	0.569200
H291	H29	0.135800	0.339100	0.775700
H301	H30	0.069400	0.348900	0.727200
H311	H31	0.001400	0.209900	0.728400
H321	H32	0.063100	0.205100	0.777200
H331	H33	0.954900	0.087700	0.642300
H341	H34	0.983200	0.158400	0.667000
H351	H35	0.900000	0.227200	0.591500
H361	H36	0.872000	0.154200	0.568900
H371	H37	0.697800	0.573200	0.477700
H381	H38	0.628000	0.589000	0.523500
H391	H39	0.371100	0.550700	0.487900
H401	H40	0.451000	0.532500	0.443400
H411	H41	0.711700	0.670700	0.629800
H421	H42	0.627900	0.630900	0.592500
H431	H43	0.380400	0.676800	0.630100
H441	H44	0.472700	0.716800	0.665200
H451	H45	0.024400	0.533200	0.534900
H461	H46	0.178800	0.557600	0.526600
H471	H47	0.191700	0.599300	0.613800
H481	H48	0.034700	0.574700	0.619600
H491	H49	0.560600	0.982400	0.353700
H501	H50	0.537600	0.911700	0.328400
H511	H51	0.576500	0.844800	0.407700
H521	H52	0.597600	0.917300	0.430800
H531	H53	0.364200	0.839100	0.224300
H541	H54	0.430600	0.848900	0.272800
H551	H55	0.498600	0.709900	0.271600
H561	H56	0.436900	0.705100	0.222800
H571	H57	0.545100	0.587700	0.357700
H581	H58	0.516800	0.658400	0.333000
H591	H59	0.600000	0.727200	0.408500
H601	H60	0.628000	0.654200	0.431100
H611	H61	0.802200	0.073200	0.522300
H621	H62	0.872000	0.089000	0.476500
H631	H63	0.128900	0.050700	0.512100
H641	H64	0.049000	0.032500	0.556600
H651	H65	0.788300	0.170700	0.370200
H661	H66	0.872100	0.130900	0.407500
H671	H67	0.119600	0.176800	0.369900
H681	H68	0.027300	0.216800	0.334800
H691	H69	0.475600	0.033200	0.465100
H701	H70	0.321200	0.057600	0.473400
H711	H71	0.308300	0.099300	0.386200
H721	H72	0.465300	0.074700	0.380400
H731	H73	0.439400	0.517600	0.853700
H741	H74	0.462400	0.588300	0.828400
H751	H75	0.423500	0.655200	0.907700
H761	H76	0.402400	0.582700	0.930800
H771	H77	0.635800	0.660900	0.724300
H781	H78	0.569400	0.651100	0.772800
H791	H79	0.501400	0.790100	0.771600
H801	H80	0.563100	0.794900	0.722800
H811	H81	0.454900	0.912300	0.857700
H821	H82	0.483200	0.841600	0.833000
H831	H83	0.400000	0.772800	0.908500
H841	H84	0.372000	0.845800	0.931100
H851	H85	0.197800	0.426800	0.022300
H861	H86	0.128000	0.411000	0.976500
H871	H87	0.871100	0.449300	0.012100
H881	H88	0.951000	0.467500	0.056600
H891	H89	0.211700	0.329300	0.870200
H901	H90	0.127900	0.369100	0.907500
H911	H91	0.880400	0.323200	0.869900
H921	H92	0.972700	0.283200	0.834800
H931	H93	0.524400	0.466800	0.965100
H941	H94	0.678800	0.442400	0.973400
H951	H95	0.691700	0.400700	0.886200
H961	H96	0.534700	0.425300	0.880400
C11	C1	0.064600	0.046100	0.135160
C21	C2	0.050600	0.088200	0.150460
C31	C3	0.055700	0.129700	0.134630
C41	C4	0.073300	0.127200	0.104020
C51	C5	0.086300	0.083800	0.090440
C61	C6	0.042900	0.175900	0.149950
C71	C7	0.004500	0.217200	0.191140
C81	C8	0.043400	0.254500	0.148170
C91	C9	0.892200	0.187200	0.265810
C101	C10	0.931000	0.181000	0.236790
C111	C11	0.969800	0.220000	0.222640
C121	C12	0.971700	0.263000	0.237820
C131	C13	0.933800	0.265800	0.266680
C141	C14	0.058300	0.383600	0.132040
C151	C15	0.040800	0.341600	0.146840
C161	C16	0.058400	0.299800	0.132120
C171	C17	0.089800	0.301000	0.102530
C181	C18	0.106300	0.344700	0.089240
C191	C19	0.369800	0.931100	0.979730
C201	C20	0.410600	0.921200	0.007010
C211	C21	0.509200	0.926400	0.010340
C221	C22	0.561400	0.944100	0.986210
C231	C23	0.513500	0.954300	0.959700
C241	C24	0.559900	0.912000	0.038250
C251	C25	0.558900	0.874500	0.082830
C261	C26	0.695400	0.906500	0.065280
C271	C27	0.356700	0.827500	0.129560
C281	C28	0.405700	0.851400	0.107370
C291	C29	0.504600	0.849000	0.107130
C301	C30	0.551200	0.824300	0.129240
C311	C31	0.495500	0.801200	0.150070
C321	C32	0.940600	0.953400	0.051210
C331	C33	0.849300	0.939100	0.046150
C341	C34	0.797100	0.919700	0.069750
C351	C35	0.841700	0.914500	0.097240
C361	C36	0.934600	0.929400	0.100590
C371	C37	0.935400	0.453900	0.635160
C381	C38	0.949400	0.411800	0.650460
C391	C39	0.944300	0.370300	0.634630
C401	C40	0.926700	0.372800	0.604020
C411	C41	0.913700	0.416200	0.590440
C421	C42	0.957100	0.324100	0.649950
C431	C43	0.995500	0.282800	0.691140
C441	C44	0.956600	0.245500	0.648170
C451	C45	0.107800	0.312800	0.765810
C461	C46	0.069000	0.319000	0.736790
C471	C47	0.030200	0.280000	0.722640
C481	C48	0.028300	0.237000	0.737820
C491	C49	0.066200	0.234200	0.766680
C501	C50	0.941700	0.116400	0.632040
C511	C51	0.959200	0.158400	0.646840
C521	C52	0.941600	0.200200	0.632120
C531	C53	0.910200	0.199000	0.602530
C541	C54	0.893700	0.155300	0.589240
C551	C55	0.630200	0.568900	0.479730
C561	C56	0.589400	0.578800	0.507010
C571	C57	0.490800	0.573600	0.510340
C581	C58	0.438600	0.555900	0.486210
C591	C59	0.486500	0.545700	0.459700
C601	C60	0.440100	0.588000	0.538250
C611	C61	0.441100	0.625500	0.582830
C621	C62	0.304600	0.593500	0.565280
C631	C63	0.643300	0.672500	0.629560
C641	C64	0.594300	0.648600	0.607370
C651	C65	0.495400	0.651000	0.607130
C661	C66	0.448800	0.675700	0.629240
C671	C67	0.504500	0.698800	0.650070
C681	C68	0.059400	0.546600	0.551210
C691	C69	0.150700	0.560900	0.546150
C701	C70	0.202900	0.580300	0.569750
C711	C71	0.158300	0.585500	0.597240
C721	C72	0.065400	0.570600	0.600590
C731	C73	0.564600	0.953900	0.364840
C741	C74	0.550600	0.911800	0.349540
C751	C75	0.555700	0.870300	0.365370
C761	C76	0.573300	0.872800	0.395980
C771	C77	0.586300	0.916200	0.409560
C781	C78	0.542900	0.824100	0.350050
C791	C79	0.504500	0.782800	0.308860
C801	C80	0.543400	0.745500	0.351830
C811	C81	0.392200	0.812800	0.234190
C821	C82	0.431000	0.819000	0.263210
C831	C83	0.469800	0.780000	0.277360
C841	C84	0.471700	0.737000	0.262180
C851	C85	0.433800	0.734200	0.233320
C861	C86	0.558300	0.616400	0.367960
C871	C87	0.540800	0.658400	0.353160
C881	C88	0.558400	0.700200	0.367880
C891	C89	0.589800	0.699000	0.397470
C901	C90	0.606300	0.655300	0.410760
C911	C91	0.869800	0.068900	0.520270
C921	C92	0.910600	0.078800	0.492990
C931	C93	0.009200	0.073600	0.489660
C941	C94	0.061400	0.055900	0.513790
C951	C95	0.013500	0.045700	0.540300
C961	C96	0.059900	0.088000	0.461750
C971	C97	0.058900	0.125500	0.417170
C981	C98	0.195400	0.093500	0.434720
C991	C99	0.856700	0.172500	0.370440
C1001	C100	0.905700	0.148600	0.392630
C1011	C101	0.004600	0.151000	0.392870
C1021	C102	0.051200	0.175700	0.370760
C1031	C103	0.995500	0.198800	0.349930
C1041	C104	0.440600	0.046600	0.448790
C1051	C105	0.349300	0.060900	0.453850
C1061	C106	0.297100	0.080300	0.430250
C1071	C107	0.341700	0.085500	0.402760
C1081	C108	0.434600	0.070600	0.399410
C1091	C109	0.435400	0.546100	0.864840
C1101	C110	0.449400	0.588200	0.849540
C1111	C111	0.444300	0.629700	0.865370
C1121	C112	0.426700	0.627200	0.895980
C1131	C113	0.413700	0.583800	0.909560
C1141	C114	0.457100	0.675900	0.850050
C1151	C115	0.495500	0.717200	0.808860
C1161	C116	0.456600	0.754500	0.851830
C1171	C117	0.607800	0.687200	0.734190
C1181	C118	0.569000	0.681000	0.763210
C1191	C119	0.530200	0.720000	0.777360
C1201	C120	0.528300	0.763000	0.762180
C1211	C121	0.566200	0.765800	0.733320
C1221	C122	0.441700	0.883600	0.867960
C1231	C123	0.459200	0.841600	0.853160
C1241	C124	0.441600	0.799800	0.867880
C1251	C125	0.410200	0.801000	0.897470
C1261	C126	0.393700	0.844700	0.910760
C1271	C127	0.130200	0.431100	0.020270
C1281	C128	0.089400	0.421200	0.992990
C1291	C129	0.990800	0.426400	0.989660
C1301	C130	0.938600	0.444100	0.013790
C1311	C131	0.986500	0.454300	0.040300
C1321	C132	0.940100	0.412000	0.961750
C1331	C133	0.941100	0.374500	0.917170
C1341	C134	0.804600	0.406500	0.934720
C1351	C135	0.143300	0.327500	0.870440
C1361	C136	0.094300	0.351400	0.892630
C1371	C137	0.995400	0.349000	0.892870
C1381	C138	0.948800	0.324300	0.870760
C1391	C139	0.004500	0.301200	0.849930
C1401	C140	0.559400	0.453400	0.948790
C1411	C141	0.650700	0.439100	0.953850
C1421	C142	0.702900	0.419700	0.930250
C1431	C143	0.658300	0.414500	0.902760
C1441	C144	0.565400	0.429400	0.899410
I11	I1	0.199050	0.932260	0.126510
I21	I2	0.193280	0.997030	0.034860
I31	I3	0.319630	0.441930	0.082850
I41	I4	0.051840	0.512020	0.117000
I51	I5	0.657130	0.194880	0.313500
I61	I6	0.820790	0.322750	0.334550
I71	I7	0.800950	0.567740	0.626510
I81	I8	0.806720	0.502970	0.534860
I91	I9	0.680370	0.058070	0.582850
I101	I10	0.948160	0.987980	0.617000
I111	I11	0.342870	0.305120	0.813500
I121	I12	0.179210	0.177250	0.834550
I131	I13	0.699050	0.067740	0.373490
I141	I14	0.693280	0.002970	0.465140
I151	I15	0.819630	0.558070	0.417150
I161	I16	0.551840	0.487980	0.383000
I171	I17	0.157130	0.805120	0.186500
I181	I18	0.320790	0.677250	0.165450
I191	I19	0.300950	0.432260	0.873490
I201	I20	0.306720	0.497030	0.965140
I211	I21	0.180370	0.941930	0.917150
I221	I22	0.448160	0.012020	0.883000
I231	I23	0.842870	0.694880	0.686500
I241	I24	0.679210	0.822750	0.665450
N11	N1	0.083500	0.043550	0.105800
N21	N2	0.016600	0.174750	0.178930
N31	N3	0.057300	0.214170	0.133330
N41	N4	0.017000	0.257890	0.177030
N51	N5	0.892900	0.228650	0.280180
N61	N6	0.092800	0.385420	0.103980
N71	N7	0.418700	0.946330	0.955900
N81	N8	0.508400	0.888910	0.059010
N91	N9	0.652500	0.922720	0.040560
N101	N10	0.652800	0.880860	0.087130
N111	N11	0.399800	0.802330	0.150400
N121	N12	0.984200	0.949720	0.078090
N131	N13	0.916500	0.456450	0.605800
N141	N14	0.983400	0.325250	0.678930
N151	N15	0.942700	0.285830	0.633330
N161	N16	0.983000	0.242110	0.677030
N171	N17	0.107100	0.271350	0.780180
N181	N18	0.907200	0.114580	0.603980
N191	N19	0.581300	0.553670	0.455900
N201	N20	0.491600	0.611090	0.559010
N211	N21	0.347500	0.577280	0.540560
N221	N22	0.347200	0.619140	0.587130
N231	N23	0.600200	0.697670	0.650400
N241	N24	0.015800	0.550280	0.578090
N251	N25	0.583500	0.956450	0.394200
N261	N26	0.516600	0.825250	0.321070
N271	N27	0.557300	0.785830	0.366670
N281	N28	0.517000	0.742110	0.322970
N291	N29	0.392900	0.771350	0.219820
N301	N30	0.592800	0.614580	0.396020
N311	N31	0.918700	0.053670	0.544100
N321	N32	0.008400	0.111090	0.440990
N331	N33	0.152500	0.077280	0.459440
N341	N34	0.152800	0.119140	0.412870
N351	N35	0.899800	0.197670	0.349600
N361	N36	0.484200	0.050280	0.421910
N371	N37	0.416500	0.543550	0.894200
N381	N38	0.483400	0.674750	0.821070
N391	N39	0.442700	0.714170	0.866670
N401	N40	0.483000	0.757890	0.822970
N411	N41	0.607100	0.728650	0.719820
N421	N42	0.407200	0.885420	0.896020
N431	N43	0.081300	0.446330	0.044100
N441	N44	0.991600	0.388910	0.940990
N451	N45	0.847500	0.422720	0.959440
N461	N46	0.847200	0.380860	0.912870
N471	N47	0.100200	0.302330	0.849600
N481	N48	0.515800	0.449720	0.921910
Zn131	Zn13	0.884080	0.019950	0.913880
Zn141	Zn14	0.861510	0.550700	0.913180
Zn151	Zn15	0.181640	0.763570	0.680280
Zn161	Zn16	0.115920	0.480050	0.413880
Zn171	Zn17	0.138490	0.949300	0.413180
Zn181	Zn18	0.818360	0.736430	0.180280
Zn191	Zn19	0.384080	0.980050	0.586120
Zn201	Zn20	0.361510	0.449300	0.586820
Zn211	Zn21	0.681640	0.236430	0.819720
Zn221	Zn22	0.615920	0.519950	0.086120
Zn231	Zn23	0.638490	0.050700	0.086820
Zn241	Zn24	0.318360	0.263570	0.319720
H971	H97	0.939400	0.982400	0.853700
H981	H98	0.962400	0.911700	0.828400
H991	H99	0.923500	0.844800	0.907700
H1001	H100	0.902400	0.917300	0.930800
H1011	H101	0.135800	0.839100	0.724300
H1021	H102	0.069400	0.848900	0.772800
H1031	H103	0.001400	0.709900	0.771600
H1041	H104	0.063100	0.705100	0.722800
H1051	H105	0.954900	0.587700	0.857700
H1061	H106	0.983200	0.658400	0.833000
H1071	H107	0.900000	0.727200	0.908500
H1081	H108	0.872000	0.654200	0.931100
H1091	H109	0.697800	0.073200	0.022300
H1101	H110	0.628000	0.089000	0.976500
H1111	H111	0.371100	0.050700	0.012100
H1121	H112	0.451000	0.032500	0.056600
H1131	H113	0.711700	0.170700	0.870200
H1141	H114	0.627900	0.130900	0.907500
H1151	H115	0.380400	0.176800	0.869900
H1161	H116	0.472700	0.216800	0.834800
H1171	H117	0.024400	0.033200	0.965100
H1181	H118	0.178800	0.057600	0.973400
H1191	H119	0.191700	0.099300	0.886200
H1201	H120	0.034700	0.074700	0.880400
H1211	H121	0.060600	0.517600	0.353700
H1221	H122	0.037600	0.588300	0.328400
H1231	H123	0.076500	0.655200	0.407700
H1241	H124	0.097600	0.582700	0.430800
H1251	H125	0.864200	0.660900	0.224300
H1261	H126	0.930600	0.651100	0.272800
H1271	H127	0.998600	0.790100	0.271600
H1281	H128	0.936900	0.794900	0.222800
H1291	H129	0.045100	0.912300	0.357700
H1301	H130	0.016800	0.841600	0.333000
H1311	H131	0.100000	0.772800	0.408500
H1321	H132	0.128000	0.845800	0.431100
H1331	H133	0.302200	0.426800	0.522300
H1341	H134	0.372000	0.411000	0.476500
H1351	H135	0.628900	0.449300	0.512100
H1361	H136	0.549000	0.467500	0.556600
H1371	H137	0.288300	0.329300	0.370200
H1381	H138	0.372100	0.369100	0.407500
H1391	H139	0.619600	0.323200	0.369900
H1401	H140	0.527300	0.283200	0.334800
H1411	H141	0.975600	0.466800	0.465100
H1421	H142	0.821200	0.442400	0.473400
H1431	H143	0.808300	0.400700	0.386200
H1441	H144	0.965300	0.425300	0.380400
H1451	H145	0.439400	0.017600	0.646300
H1461	H146	0.462400	0.088300	0.671600
H1471	H147	0.423500	0.155200	0.592300
H1481	H148	0.402400	0.082700	0.569200
H1491	H149	0.635800	0.160900	0.775700
H1501	H150	0.569400	0.151100	0.727200
H1511	H151	0.501400	0.290100	0.728400
H1521	H152	0.563100	0.294900	0.777200
H1531	H153	0.454900	0.412300	0.642300
H1541	H154	0.483200	0.341600	0.667000
H1551	H155	0.400000	0.272800	0.591500
H1561	H156	0.372000	0.345800	0.568900
H1571	H157	0.197800	0.926800	0.477700
H1581	H158	0.128000	0.911000	0.523500
H1591	H159	0.871100	0.949300	0.487900
H1601	H160	0.951000	0.967500	0.443400
H1611	H161	0.211700	0.829300	0.629800
H1621	H162	0.127900	0.869100	0.592500
H1631	H163	0.880400	0.823200	0.630100
H1641	H164	0.972700	0.783200	0.665200
H1651	H165	0.524400	0.966800	0.534900
H1661	H166	0.678800	0.942400	0.526600
H1671	H167	0.691700	0.900700	0.613800
H1681	H168	0.534700	0.925300	0.619600
H1691	H169	0.560600	0.482400	0.146300
H1701	H170	0.537600	0.411700	0.171600
H1711	H171	0.576500	0.344800	0.092300
H1721	H172	0.597600	0.417300	0.069200
H1731	H173	0.364200	0.339100	0.275700
H1741	H174	0.430600	0.348900	0.227200
H1751	H175	0.498600	0.209900	0.228400
H1761	H176	0.436900	0.205100	0.277200
H1771	H177	0.545100	0.087700	0.142300
H1781	H178	0.516800	0.158400	0.167000
H1791	H179	0.600000	0.227200	0.091500
H1801	H180	0.628000	0.154200	0.068900
H1811	H181	0.802200	0.573200	0.977700
H1821	H182	0.872000	0.589000	0.023500
H1831	H183	0.128900	0.550700	0.987900
H1841	H184	0.049000	0.532500	0.943400
H1851	H185	0.788300	0.670700	0.129800
H1861	H186	0.872100	0.630900	0.092500
H1871	H187	0.119600	0.676800	0.130100
H1881	H188	0.027300	0.716800	0.165200
H1891	H189	0.475600	0.533200	0.034900
H1901	H190	0.321200	0.557600	0.026600
H1911	H191	0.308300	0.599300	0.113800
H1921	H192	0.465300	0.574700	0.119600
C1451	C145	0.935400	0.953900	0.864840
C1461	C146	0.949400	0.911800	0.849540
C1471	C147	0.944300	0.870300	0.865370
C1481	C148	0.926700	0.872800	0.895980
C1491	C149	0.913700	0.916200	0.909560
C1501	C150	0.957100	0.824100	0.850050
C1511	C151	0.995500	0.782800	0.808860
C1521	C152	0.956600	0.745500	0.851830
C1531	C153	0.107800	0.812800	0.734190
C1541	C154	0.069000	0.819000	0.763210
C1551	C155	0.030200	0.780000	0.777360
C1561	C156	0.028300	0.737000	0.762180
C1571	C157	0.066200	0.734200	0.733320
C1581	C158	0.941700	0.616400	0.867960
C1591	C159	0.959200	0.658400	0.853160
C1601	C160	0.941600	0.700200	0.867880
C1611	C161	0.910200	0.699000	0.897470
C1621	C162	0.893700	0.655300	0.910760
C1631	C163	0.630200	0.068900	0.020270
C1641	C164	0.589400	0.078800	0.992990
C1651	C165	0.490800	0.073600	0.989660
C1661	C166	0.438600	0.055900	0.013790
C1671	C167	0.486500	0.045700	0.040300
C1681	C168	0.440100	0.088000	0.961750
C1691	C169	0.441100	0.125500	0.917170
C1701	C170	0.304600	0.093500	0.934720
C1711	C171	0.643300	0.172500	0.870440
C1721	C172	0.594300	0.148600	0.892630
C1731	C173	0.495400	0.151000	0.892870
C1741	C174	0.448800	0.175700	0.870760
C1751	C175	0.504500	0.198800	0.849930
C1761	C176	0.059400	0.046600	0.948790
C1771	C177	0.150700	0.060900	0.953850
C1781	C178	0.202900	0.080300	0.930250
C1791	C179	0.158300	0.085500	0.902760
C1801	C180	0.065400	0.070600	0.899410
C1811	C181	0.064600	0.546100	0.364840
C1821	C182	0.050600	0.588200	0.349540
C1831	C183	0.055700	0.629700	0.365370
C1841	C184	0.073300	0.627200	0.395980
C1851	C185	0.086300	0.583800	0.409560
C1861	C186	0.042900	0.675900	0.350050
C1871	C187	0.004500	0.717200	0.308860
C1881	C188	0.043400	0.754500	0.351830
C1891	C189	0.892200	0.687200	0.234190
C1901	C190	0.931000	0.681000	0.263210
C1911	C191	0.969800	0.720000	0.277360
C1921	C192	0.971700	0.763000	0.262180
C1931	C193	0.933800	0.765800	0.233320
C1941	C194	0.058300	0.883600	0.367960
C1951	C195	0.040800	0.841600	0.353160
C1961	C196	0.058400	0.799800	0.367880
C1971	C197	0.089800	0.801000	0.397470
C1981	C198	0.106300	0.844700	0.410760
C1991	C199	0.369800	0.431100	0.520270
C2001	C200	0.410600	0.421200	0.492990
C2011	C201	0.509200	0.426400	0.489660
C2021	C202	0.561400	0.444100	0.513790
C2031	C203	0.513500	0.454300	0.540300
C2041	C204	0.559900	0.412000	0.461750
C2051	C205	0.558900	0.374500	0.417170
C2061	C206	0.695400	0.406500	0.434720
C2071	C207	0.356700	0.327500	0.370440
C2081	C208	0.405700	0.351400	0.392630
C2091	C209	0.504600	0.349000	0.392870
C2101	C210	0.551200	0.324300	0.370760
C2111	C211	0.495500	0.301200	0.349930
C2121	C212	0.940600	0.453400	0.448790
C2131	C213	0.849300	0.439100	0.453850
C2141	C214	0.797100	0.419700	0.430250
C2151	C215	0.841700	0.414500	0.402760
C2161	C216	0.934600	0.429400	0.399410
C2171	C217	0.435400	0.046100	0.635160
C2181	C218	0.449400	0.088200	0.650460
C2191	C219	0.444300	0.129700	0.634630
C2201	C220	0.426700	0.127200	0.604020
C2211	C221	0.413700	0.083800	0.590440
C2221	C222	0.457100	0.175900	0.649950
C2231	C223	0.495500	0.217200	0.691140
C2241	C224	0.456600	0.254500	0.648170
C2251	C225	0.607800	0.187200	0.765810
C2261	C226	0.569000	0.181000	0.736790
C2271	C227	0.530200	0.220000	0.722640
C2281	C228	0.528300	0.263000	0.737820
C2291	C229	0.566200	0.265800	0.766680
C2301	C230	0.441700	0.383600	0.632040
C2311	C231	0.459200	0.341600	0.646840
C2321	C232	0.441600	0.299800	0.632120
C2331	C233	0.410200	0.301000	0.602530
C2341	C234	0.393700	0.344700	0.589240
C2351	C235	0.130200	0.931100	0.479730
C2361	C236	0.089400	0.921200	0.507010
C2371	C237	0.990800	0.926400	0.510340
C2381	C238	0.938600	0.944100	0.486210
C2391	C239	0.986500	0.954300	0.459700
C2401	C240	0.940100	0.912000	0.538250
C2411	C241	0.941100	0.874500	0.582830
C2421	C242	0.804600	0.906500	0.565280
C2431	C243	0.143300	0.827500	0.629560
C2441	C244	0.094300	0.851400	0.607370
C2451	C245	0.995400	0.849000	0.607130
C2461	C246	0.948800	0.824300	0.629240
C2471	C247	0.004500	0.801200	0.650070
C2481	C248	0.559400	0.953400	0.551210
C2491	C249	0.650700	0.939100	0.546150
C2501	C250	0.702900	0.919700	0.569750
C2511	C251	0.658300	0.914500	0.597240
C2521	C252	0.565400	0.929400	0.600590
C2531	C253	0.564600	0.453900	0.135160
C2541	C254	0.550600	0.411800	0.150460
C2551	C255	0.555700	0.370300	0.134630
C2561	C256	0.573300	0.372800	0.104020
C2571	C257	0.586300	0.416200	0.090440
C2581	C258	0.542900	0.324100	0.149950
C2591	C259	0.504500	0.282800	0.191140
C2601	C260	0.543400	0.245500	0.148170
C2611	C261	0.392200	0.312800	0.265810
C2621	C262	0.431000	0.319000	0.236790
C2631	C263	0.469800	0.280000	0.222640
C2641	C264	0.471700	0.237000	0.237820
C2651	C265	0.433800	0.234200	0.266680
C2661	C266	0.558300	0.116400	0.132040
C2671	C267	0.540800	0.158400	0.146840
C2681	C268	0.558400	0.200200	0.132120
C2691	C269	0.589800	0.199000	0.102530
C2701	C270	0.606300	0.155300	0.089240
C2711	C271	0.869800	0.568900	0.979730
C2721	C272	0.910600	0.578800	0.007010
C2731	C273	0.009200	0.573600	0.010340
C2741	C274	0.061400	0.555900	0.986210
C2751	C275	0.013500	0.545700	0.959700
C2761	C276	0.059900	0.588000	0.038250
C2771	C277	0.058900	0.625500	0.082830
C2781	C278	0.195400	0.593500	0.065280
C2791	C279	0.856700	0.672500	0.129560
C2801	C280	0.905700	0.648600	0.107370
C2811	C281	0.004600	0.651000	0.107130
C2821	C282	0.051200	0.675700	0.129240
C2831	C283	0.995500	0.698800	0.150070
C2841	C284	0.440600	0.546600	0.051210
C2851	C285	0.349300	0.560900	0.046150
C2861	C286	0.297100	0.580300	0.069750
C2871	C287	0.341700	0.585500	0.097240
C2881	C288	0.434600	0.570600	0.100590
I251	I25	0.800950	0.067740	0.873490
I261	I26	0.806720	0.002970	0.965140
I271	I27	0.680370	0.558070	0.917150
I281	I28	0.948160	0.487980	0.883000
I291	I29	0.342870	0.805120	0.686500
I301	I30	0.179210	0.677250	0.665450
I311	I31	0.199050	0.432260	0.373490
I321	I32	0.193280	0.497030	0.465140
I331	I33	0.319630	0.941930	0.417150
I341	I34	0.051840	0.012020	0.383000
I351	I35	0.657130	0.694880	0.186500
I361	I36	0.820790	0.822750	0.165450
I371	I37	0.300950	0.932260	0.626510
I381	I38	0.306720	0.997030	0.534860
I391	I39	0.180370	0.441930	0.582850
I401	I40	0.448160	0.512020	0.617000
I411	I41	0.842870	0.194880	0.813500
I421	I42	0.679210	0.322750	0.834550
I431	I43	0.699050	0.567740	0.126510
I441	I44	0.693280	0.502970	0.034860
I451	I45	0.819630	0.058070	0.082850
I461	I46	0.551840	0.987980	0.117000
I471	I47	0.157130	0.305120	0.313500
I481	I48	0.320790	0.177250	0.334550
N491	N49	0.916500	0.956450	0.894200
N501	N50	0.983400	0.825250	0.821070
N511	N51	0.942700	0.785830	0.866670
N521	N52	0.983000	0.742110	0.822970
N531	N53	0.107100	0.771350	0.719820
N541	N54	0.907200	0.614580	0.896020
N551	N55	0.581300	0.053670	0.044100
N561	N56	0.491600	0.111090	0.940990
N571	N57	0.347500	0.077280	0.959440
N581	N58	0.347200	0.119140	0.912870
N591	N59	0.600200	0.197670	0.849600
N601	N60	0.015800	0.050280	0.921910
N611	N61	0.083500	0.543550	0.394200
N621	N62	0.016600	0.674750	0.321070
N631	N63	0.057300	0.714170	0.366670
N641	N64	0.017000	0.757890	0.322970
N651	N65	0.892900	0.728650	0.219820
N661	N66	0.092800	0.885420	0.396020
N671	N67	0.418700	0.446330	0.544100
N681	N68	0.508400	0.388910	0.440990
N691	N69	0.652500	0.422720	0.459440
N701	N70	0.652800	0.380860	0.412870
N711	N71	0.399800	0.302330	0.349600
N721	N72	0.984200	0.449720	0.421910
N731	N73	0.416500	0.043550	0.605800
N741	N74	0.483400	0.174750	0.678930
N751	N75	0.442700	0.214170	0.633330
N761	N76	0.483000	0.257890	0.677030
N771	N77	0.607100	0.228650	0.780180
N781	N78	0.407200	0.385420	0.603980
N791	N79	0.081300	0.946330	0.455900
N801	N80	0.991600	0.888910	0.559010
N811	N81	0.847500	0.922720	0.540560
N821	N82	0.847200	0.880860	0.587130
N831	N83	0.100200	0.802330	0.650400
N841	N84	0.515800	0.949720	0.578090
N851	N85	0.583500	0.456450	0.105800
N861	N86	0.516600	0.325250	0.178930
N871	N87	0.557300	0.285830	0.133330
N881	N88	0.517000	0.242110	0.177030
N891	N89	0.392900	0.271350	0.280180
N901	N90	0.592800	0.114580	0.103980
N911	N91	0.918700	0.553670	0.955900
N921	N92	0.008400	0.611090	0.059010
N931	N93	0.152500	0.577280	0.040560
N941	N94	0.152800	0.619140	0.087130
N951	N95	0.899800	0.697670	0.150400
N961	N96	0.484200	0.550280	0.078090
