data_NOCLOH01_clean_PM
_symmetry_space_group_name_H-M	'P1'
_cell_length_a	9.828900
_cell_length_b	10.612300
_cell_length_c	10.612300
_cell_angle_alpha	120.000000
_cell_angle_beta	90.000000
_cell_angle_gamma	90.000000
_symmetry_Int_Tables_number 1

loop_
_symmetry_equiv_pos_as_xyz
'x,y,z'

loop_
_atom_site_label
_atom_site_type_symbol
_atom_site_fract_x
_atom_site_fract_y
_atom_site_fract_z
Sr11	Sr1	0.166650	0.901390	0.021780
Sr21	Sr2	0.833320	0.120390	0.098610
Sr31	Sr3	0.499980	0.978220	0.879610
H11	H1	0.896700	0.133000	0.784400
H21	H2	0.827900	0.148100	0.584400
H31	H3	0.193300	0.007400	0.402200
H41	H4	0.262300	0.992500	0.601800
H51	H5	0.563370	0.651400	0.867000
H61	H6	0.494570	0.436300	0.851900
H71	H7	0.859970	0.394800	0.992600
H81	H8	0.928970	0.609300	0.007500
H91	H9	0.230030	0.215600	0.348600
H101	H10	0.161230	0.415600	0.563700
H111	H11	0.526630	0.597800	0.605200
H121	H12	0.595630	0.398200	0.390700
C11	C1	0.128300	0.049100	0.844200
C21	C2	0.086200	0.061900	0.714100
C31	C3	0.956800	0.107800	0.707700
C41	C4	0.915600	0.116800	0.587500
C51	C5	0.003300	0.079800	0.472000
C61	C6	0.954300	0.088500	0.342300
C71	C7	0.133300	0.033000	0.479000
C81	C8	0.174800	0.024000	0.598500
C91	C9	0.794970	0.795100	0.950900
C101	C10	0.752870	0.652200	0.938100
C111	C11	0.623470	0.599900	0.892200
C121	C12	0.582270	0.470700	0.883200
C131	C13	0.669970	0.392200	0.920200
C141	C14	0.620970	0.253800	0.911500
C151	C15	0.799970	0.446000	0.967000
C161	C16	0.841470	0.574500	0.976000
C171	C17	0.461630	0.155800	0.204900
C181	C18	0.419530	0.285900	0.347800
C191	C19	0.290130	0.292300	0.400100
C201	C20	0.248930	0.412500	0.529300
C211	C21	0.336630	0.528000	0.607800
C221	C22	0.287630	0.657700	0.746200
C231	C23	0.466630	0.521000	0.554000
C241	C24	0.508130	0.401500	0.425500
O11	O1	0.041500	0.074700	0.941800
O21	O2	0.246100	0.007100	0.847600
O31	O3	0.831900	0.114600	0.335900
O41	O4	0.039600	0.074100	0.247000
O51	O5	0.708170	0.867100	0.925300
O61	O6	0.912770	0.840500	0.992900
O71	O7	0.498570	0.221300	0.885400
O81	O8	0.706270	0.172900	0.925900
O91	O9	0.374830	0.058200	0.132900
O101	O10	0.579430	0.152400	0.159500
O111	O11	0.165230	0.664100	0.778700
O121	O12	0.372930	0.753000	0.827100
