data_NOCLUN_clean_PM
_symmetry_space_group_name_H-M	'P1'
_cell_length_a	6.897000
_cell_length_b	12.186400
_cell_length_c	18.516000
_cell_angle_alpha	90.000000
_cell_angle_beta	90.000000
_cell_angle_gamma	90.000000
_symmetry_Int_Tables_number 1

loop_
_symmetry_equiv_pos_as_xyz
'x,y,z'

loop_
_atom_site_label
_atom_site_type_symbol
_atom_site_fract_x
_atom_site_fract_y
_atom_site_fract_z
Sr11	Sr1	0.250000	0.084640	0.517640
Sr21	Sr2	0.750000	0.415360	0.017640
Sr31	Sr3	0.750000	0.915360	0.482360
Sr41	Sr4	0.250000	0.584640	0.982360
H11	H1	0.957300	0.837900	0.325700
H21	H2	0.958100	0.756800	0.211900
H31	H3	0.042700	0.662100	0.825700
H41	H4	0.041900	0.743200	0.711900
H51	H5	0.457300	0.162100	0.674300
H61	H6	0.458100	0.243200	0.788100
H71	H7	0.542700	0.337900	0.174300
H81	H8	0.541900	0.256800	0.288100
H91	H9	0.042700	0.162100	0.674300
H101	H10	0.041900	0.243200	0.788100
H111	H11	0.957300	0.337900	0.174300
H121	H12	0.958100	0.256800	0.288100
H131	H13	0.542700	0.837900	0.325700
H141	H14	0.541900	0.756800	0.211900
H151	H15	0.457300	0.662100	0.825700
H161	H16	0.458100	0.743200	0.711900
C11	C1	0.077100	0.821200	0.302800
C21	C2	0.077800	0.773100	0.234900
C31	C3	0.922900	0.678800	0.802800
C41	C4	0.922200	0.726900	0.734900
C51	C5	0.577100	0.178800	0.697200
C61	C6	0.577800	0.226900	0.765100
C71	C7	0.422900	0.321200	0.197200
C81	C8	0.422200	0.273100	0.265100
C91	C9	0.922900	0.178800	0.697200
C101	C10	0.922200	0.226900	0.765100
C111	C11	0.077100	0.321200	0.197200
C121	C12	0.077800	0.273100	0.265100
C131	C13	0.422900	0.821200	0.302800
C141	C14	0.422200	0.773100	0.234900
C151	C15	0.577100	0.678800	0.802800
C161	C16	0.577800	0.726900	0.734900
C171	C17	0.250000	0.899200	0.410700
C181	C18	0.250000	0.845100	0.337500
C191	C19	0.250000	0.699400	0.125600
C201	C20	0.250000	0.748500	0.200000
C211	C21	0.750000	0.600800	0.910700
C221	C22	0.750000	0.654900	0.837500
C231	C23	0.750000	0.800600	0.625600
C241	C24	0.750000	0.751500	0.700000
C251	C25	0.750000	0.100800	0.589300
C261	C26	0.750000	0.154900	0.662500
C271	C27	0.750000	0.300600	0.874400
C281	C28	0.750000	0.251500	0.800000
C291	C29	0.250000	0.399200	0.089300
C301	C30	0.250000	0.345100	0.162500
C311	C31	0.250000	0.199400	0.374400
C321	C32	0.250000	0.248500	0.300000
O11	O1	0.090600	0.923400	0.439460
O21	O2	0.090400	0.680300	0.095500
O31	O3	0.909400	0.576600	0.939460
O41	O4	0.909600	0.819700	0.595500
O51	O5	0.590600	0.076600	0.560540
O61	O6	0.590400	0.319700	0.904500
O71	O7	0.409400	0.423400	0.060540
O81	O8	0.409600	0.180300	0.404500
O91	O9	0.909400	0.076600	0.560540
O101	O10	0.909600	0.319700	0.904500
O111	O11	0.090600	0.423400	0.060540
O121	O12	0.090400	0.180300	0.404500
O131	O13	0.409400	0.923400	0.439460
O141	O14	0.409600	0.680300	0.095500
O151	O15	0.590600	0.576600	0.939460
O161	O16	0.590400	0.819700	0.595500
