data_NOCLOH03_clean_PM
_symmetry_space_group_name_H-M	'P1'
_cell_length_a	9.873100
_cell_length_b	10.639600
_cell_length_c	10.639600
_cell_angle_alpha	120.000000
_cell_angle_beta	90.000000
_cell_angle_gamma	90.000000
_symmetry_Int_Tables_number 1

loop_
_symmetry_equiv_pos_as_xyz
'x,y,z'

loop_
_atom_site_label
_atom_site_type_symbol
_atom_site_fract_x
_atom_site_fract_y
_atom_site_fract_z
Sr11	Sr1	0.863200	0.765650	0.453680
Sr21	Sr2	0.529870	0.688030	0.234350
Sr31	Sr3	0.196530	0.546320	0.311970
H11	H1	0.768600	0.673900	0.943500
H21	H2	0.835600	0.653900	0.726100
H31	H3	0.200400	0.520700	0.770300
H41	H4	0.133100	0.535700	0.984100
H51	H5	0.435270	0.269600	0.326100
H61	H6	0.502270	0.072200	0.346100
H71	H7	0.867070	0.249600	0.479300
H81	H8	0.799770	0.448400	0.464300
H91	H9	0.101930	0.056500	0.730400
H101	H10	0.168930	0.273900	0.927800
H111	H11	0.533730	0.229700	0.750400
H121	H12	0.466430	0.015900	0.551600
C11	C1	0.902000	0.619300	0.128400
C21	C2	0.943700	0.604800	0.987400
C31	C3	0.855600	0.641700	0.908700
C41	C4	0.896400	0.630800	0.778200
C51	C5	0.024900	0.586700	0.725500
C61	C6	0.072800	0.577300	0.586400
C71	C7	0.112900	0.551100	0.804400
C81	C8	0.072200	0.560200	0.933100
C91	C9	0.568670	0.509100	0.380700
C101	C10	0.610370	0.382600	0.395200
C111	C11	0.522270	0.267000	0.358300
C121	C12	0.563070	0.147400	0.369200
C131	C13	0.691570	0.138800	0.413300
C141	C14	0.739470	0.009100	0.422700
C151	C15	0.779570	0.253300	0.448900
C161	C16	0.738870	0.372900	0.439800
C171	C17	0.235330	0.871600	0.490900
C181	C18	0.277030	0.012600	0.617400
C191	C19	0.188930	0.091300	0.733000
C201	C20	0.229730	0.221800	0.852600
C211	C21	0.358230	0.274500	0.861200
C221	C22	0.406130	0.413600	0.990900
C231	C23	0.446230	0.195600	0.746700
C241	C24	0.405530	0.066900	0.627100
O11	O1	0.784900	0.658300	0.172900
O21	O2	0.988500	0.594700	0.201000
O31	O3	0.989400	0.595200	0.508100
O41	O4	0.195200	0.550100	0.553500
O51	O5	0.451570	0.514600	0.341700
O61	O6	0.655170	0.606300	0.405300
O71	O7	0.656070	0.912900	0.404800
O81	O8	0.861870	0.003400	0.449900
O91	O9	0.118230	0.827100	0.485400
O101	O10	0.321830	0.799000	0.393700
O111	O11	0.322730	0.491900	0.087100
O121	O12	0.528530	0.446500	0.996600
