data_NOCLOH02_clean_PM
_symmetry_space_group_name_H-M	'P1'
_cell_length_a	9.841700
_cell_length_b	10.620200
_cell_length_c	10.620200
_cell_angle_alpha	120.000000
_cell_angle_beta	90.000000
_cell_angle_gamma	90.000000
_symmetry_Int_Tables_number 1

loop_
_symmetry_equiv_pos_as_xyz
'x,y,z'

loop_
_atom_site_label
_atom_site_type_symbol
_atom_site_fract_x
_atom_site_fract_y
_atom_site_fract_z
Sr11	Sr1	0.500100	0.688300	0.453650
Sr21	Sr2	0.166770	0.765350	0.311700
Sr31	Sr3	0.833430	0.546350	0.234650
H11	H1	0.230900	0.450400	0.984500
H21	H2	0.161800	0.250800	0.770300
H31	H3	0.527200	0.069700	0.727900
H41	H4	0.595500	0.269300	0.942600
H51	H5	0.897570	0.534100	0.549600
H61	H6	0.828470	0.519500	0.749200
H71	H7	0.193870	0.658200	0.930300
H81	H8	0.262170	0.673300	0.730700
H91	H9	0.564230	0.015500	0.465900
H101	H10	0.495130	0.229700	0.480500
H111	H11	0.860530	0.272100	0.341800
H121	H12	0.928830	0.057400	0.326700
C11	C1	0.461800	0.510400	0.129100
C21	C2	0.418800	0.380700	0.985700
C31	C3	0.291000	0.373800	0.933200
C41	C4	0.249400	0.254100	0.804400
C51	C5	0.337800	0.138700	0.725600
C61	C6	0.288200	0.009400	0.587400
C71	C7	0.466900	0.146100	0.779100
C81	C8	0.508000	0.265700	0.907900
C91	C9	0.128470	0.618700	0.489600
C101	C10	0.085470	0.605000	0.619300
C111	C11	0.957670	0.559400	0.626200
C121	C12	0.916070	0.550300	0.745900
C131	C13	0.004470	0.586900	0.861300
C141	C14	0.954870	0.578000	0.990600
C151	C15	0.133570	0.633000	0.853900
C161	C16	0.174670	0.642200	0.734300
C171	C17	0.795130	0.870900	0.381300
C181	C18	0.752130	0.014300	0.395000
C191	C19	0.624330	0.066800	0.440600
C201	C20	0.582730	0.195600	0.449700
C211	C21	0.671130	0.274400	0.413100
C221	C22	0.621530	0.412600	0.422000
C231	C23	0.800230	0.220900	0.367000
C241	C24	0.841330	0.092100	0.357800
O11	O1	0.374900	0.607600	0.200500
O21	O2	0.579400	0.514500	0.173800
O31	O3	0.166400	0.003800	0.553600
O41	O4	0.373500	0.913500	0.507000
O51	O5	0.041570	0.592900	0.392400
O61	O6	0.246070	0.659300	0.485500
O71	O7	0.833070	0.549800	0.996200
O81	O8	0.040170	0.593500	0.086500
O91	O9	0.708230	0.799500	0.407100
O101	O10	0.912730	0.826200	0.340700
O111	O11	0.499730	0.446400	0.450200
O121	O12	0.706830	0.493000	0.406500
