data_NOCYUB_clean_PM
_symmetry_space_group_name_H-M	'P1'
_cell_length_a	7.875000
_cell_length_b	13.898000
_cell_length_c	13.910000
_cell_angle_alpha	107.624000
_cell_angle_beta	97.416000
_cell_angle_gamma	97.310000
_symmetry_Int_Tables_number 1

loop_
_symmetry_equiv_pos_as_xyz
'x,y,z'

loop_
_atom_site_label
_atom_site_type_symbol
_atom_site_fract_x
_atom_site_fract_y
_atom_site_fract_z
Sr11	Sr1	0.953280	0.373710	0.873540
Sr21	Sr2	0.394810	0.296600	0.796730
Sr31	Sr3	0.046720	0.626290	0.126460
Sr41	Sr4	0.605190	0.703400	0.203270
Zn11	Zn1	0.001200	0.240820	0.259140
Zn21	Zn2	0.998800	0.759180	0.740860
H11	H1	0.720000	0.824000	0.975000
H21	H2	0.394100	0.598000	0.902500
H31	H3	0.427700	0.226500	0.258100
H41	H4	0.280000	0.176000	0.025000
H51	H5	0.263300	0.530000	0.661500
H61	H6	0.732000	0.554900	0.636900
H71	H7	0.365100	0.024300	0.061700
H81	H8	0.269500	0.862500	0.946000
H91	H9	0.634900	0.975700	0.938300
H101	H10	0.730500	0.137500	0.054000
H111	H11	0.572300	0.773500	0.741900
H121	H12	0.654100	0.294300	0.193200
H131	H13	0.736700	0.470000	0.338500
H141	H14	0.361700	0.562600	0.522400
H151	H15	0.268000	0.445100	0.363100
H161	H16	0.638300	0.437400	0.477600
H171	H17	0.605900	0.402000	0.097500
H181	H18	0.345900	0.705700	0.806800
C11	C1	0.649500	0.601200	0.895000
C21	C2	0.879000	0.247300	0.449100
C31	C3	0.912500	0.920300	0.095700
C41	C4	0.785100	0.641800	0.856100
C51	C5	0.515100	0.374800	0.123500
C61	C6	0.719000	0.986300	0.995800
C71	C7	0.408400	0.269700	0.219700
C81	C8	0.972600	0.827000	0.111100
C91	C9	0.214900	0.358200	0.143900
C101	C10	0.281000	0.013700	0.004200
C111	C11	0.974900	0.611700	0.327400
C121	C12	0.218000	0.486600	0.595200
C131	C13	0.782000	0.513400	0.404800
C141	C14	0.484900	0.625200	0.876500
C151	C15	0.027400	0.173000	0.888900
C161	C16	0.591600	0.730300	0.780300
C171	C17	0.720000	0.495500	0.487000
C181	C18	0.456000	0.689700	0.819100
C191	C19	0.879700	0.949100	0.747600
C201	C20	0.970500	0.626800	0.873600
C211	C21	0.280000	0.504500	0.513000
C221	C22	0.025100	0.388300	0.672600
C231	C23	0.784000	0.906300	0.013500
C241	C24	0.029500	0.373200	0.126400
C251	C25	0.673000	0.526400	0.952000
C261	C26	0.216000	0.093700	0.986500
C271	C27	0.025200	0.337900	0.479000
C281	C28	0.973600	0.020200	0.161900
C291	C29	0.120300	0.050900	0.252400
C301	C30	0.974800	0.662100	0.521000
C311	C31	0.222000	0.917400	0.936100
C321	C32	0.220000	0.435500	0.418000
C331	C33	0.026400	0.979800	0.838100
C341	C34	0.350500	0.398800	0.105000
C351	C35	0.327000	0.473600	0.048000
C361	C36	0.544000	0.310300	0.180900
C371	C37	0.087500	0.079700	0.904300
C381	C38	0.121000	0.752700	0.550900
C391	C39	0.778000	0.082600	0.063900
C401	C40	0.780000	0.564500	0.582000
C411	C41	0.087300	0.403400	0.578400
C421	C42	0.912700	0.596600	0.421600
N11	N1	0.756200	0.706400	0.798800
N21	N2	0.905700	0.099700	0.145500
N31	N3	0.243800	0.293600	0.201200
N41	N4	0.096000	0.355000	0.400600
N51	N5	0.904000	0.645000	0.599400
N61	N6	0.094300	0.900300	0.854500
O11	O1	0.871000	0.647300	0.275600
O21	O2	0.338300	0.582400	0.080500
O31	O3	0.187700	0.773100	0.482500
O41	O4	0.869200	0.774500	0.146200
O51	O5	0.129000	0.352700	0.724400
O61	O6	0.831700	0.204600	0.354800
O71	O7	0.811300	0.017100	0.726300
O81	O8	0.166900	0.145400	0.298000
O91	O9	0.107200	0.581100	0.299500
O101	O10	0.107100	0.799800	0.080500
O111	O11	0.999000	0.573100	0.926400
O121	O12	0.296300	0.443200	0.943200
O131	O13	0.168300	0.795400	0.645200
O141	O14	0.001000	0.426900	0.073600
O151	O15	0.703700	0.556800	0.056800
O161	O16	0.892900	0.200200	0.919500
O171	O17	0.892800	0.418900	0.700500
O181	O18	0.936300	0.336400	0.177600
O191	O19	0.063700	0.663600	0.822400
O201	O20	0.188700	0.982900	0.273700
O211	O21	0.833100	0.854600	0.702000
O221	O22	0.130800	0.225500	0.853800
O231	O23	0.661700	0.417600	0.919500
O241	O24	0.812300	0.226900	0.517500
