data_NOFDUI_clean_PM
_symmetry_space_group_name_H-M	'P1'
_cell_length_a	13.334600
_cell_length_b	13.461300
_cell_length_c	17.511500
_cell_angle_alpha	90.000000
_cell_angle_beta	90.000000
_cell_angle_gamma	90.000000
_symmetry_Int_Tables_number 1

loop_
_symmetry_equiv_pos_as_xyz
'x,y,z'

loop_
_atom_site_label
_atom_site_type_symbol
_atom_site_fract_x
_atom_site_fract_y
_atom_site_fract_z
Co11	Co1	0.733060	0.509920	0.574020
Co21	Co2	0.765740	0.491070	0.416130
O11	O1	0.596500	0.471700	0.530100
O21	O2	0.621100	0.441500	0.406800
O31	O3	0.305600	0.151000	0.550600
O41	O4	0.268900	0.137600	0.425400
O51	O5	0.706600	0.652300	0.543900
O61	O6	0.715600	0.634300	0.418800
O71	O7	0.380000	0.956800	0.422300
O81	O8	0.403300	0.961900	0.547800
O91	O9	0.686300	0.524800	0.807700
O101	O10	0.686900	0.522100	0.683000
C11	C1	0.453800	0.419300	0.455200
C21	C2	0.443200	0.303700	0.446500
C31	C3	0.331300	0.291600	0.469700
H11	H1	0.290300	0.318400	0.428100
C41	C4	0.317400	0.360800	0.539800
H21	H2	0.249200	0.385700	0.542300
H31	H3	0.332300	0.325800	0.586900
C51	C5	0.390200	0.444200	0.527400
H41	H4	0.433500	0.451300	0.571500
H51	H5	0.354300	0.506100	0.519900
C61	C6	0.415000	0.477000	0.388300
H61	H6	0.422800	0.546800	0.398000
H71	H7	0.345400	0.462100	0.380700
H81	H8	0.452200	0.459200	0.343400
C71	C7	0.462700	0.267400	0.365500
H91	H9	0.420300	0.302800	0.330500
H101	H10	0.448400	0.197600	0.362400
H111	H11	0.531700	0.278800	0.352500
C81	C8	0.516200	0.243700	0.500500
H121	H12	0.508100	0.266200	0.552200
H131	H13	0.584300	0.254200	0.484600
H141	H14	0.500600	0.174100	0.497600
C91	C9	0.568800	0.447100	0.468000
C101	C10	0.298900	0.186100	0.482700
C111	C11	0.673700	0.794600	0.466100
C121	C12	0.557400	0.808100	0.450300
C131	C13	0.542900	0.921200	0.467200
H151	H15	0.568200	0.958100	0.423000
C141	C14	0.611500	0.943600	0.533800
H161	H16	0.573200	0.949500	0.580700
H171	H17	0.647500	0.005200	0.525300
C151	C15	0.685400	0.855000	0.538600
H181	H18	0.753700	0.879000	0.543200
H191	H19	0.670200	0.814400	0.582900
C161	C16	0.734800	0.837300	0.399800
H201	H20	0.805000	0.828700	0.409900
H211	H21	0.720300	0.906800	0.394400
H221	H22	0.717400	0.803300	0.353500
C171	C17	0.528000	0.779200	0.367900
H231	H23	0.457400	0.789400	0.360900
H241	H24	0.543800	0.710500	0.359300
H251	H25	0.564500	0.819700	0.332400
C181	C18	0.496000	0.750000	0.501700
H261	H26	0.426400	0.760400	0.489900
H271	H27	0.508700	0.770200	0.553400
H281	H28	0.511900	0.680800	0.496000
C191	C19	0.699900	0.683800	0.478100
C201	C20	0.436500	0.948400	0.477500
C211	C21	0.827400	0.451300	0.744000
H291	H29	0.847800	0.441200	0.692000
H301	H30	0.821500	0.388200	0.769200
H311	H31	0.876600	0.491200	0.769800
C221	C22	0.729800	0.502600	0.745400
Co31	Co3	0.766940	0.490080	0.074020
Co41	Co4	0.734260	0.508930	0.916130
O111	O11	0.903500	0.528300	0.030100
O121	O12	0.878900	0.558500	0.906800
O131	O13	0.194400	0.849000	0.050600
O141	O14	0.231100	0.862400	0.925400
O151	O15	0.793400	0.347700	0.043900
O161	O16	0.784400	0.365700	0.918800
O171	O17	0.120000	0.043200	0.922300
O181	O18	0.096700	0.038100	0.047800
O191	O19	0.813700	0.475200	0.307700
O201	O20	0.813100	0.477900	0.183000
C231	C23	0.046200	0.580700	0.955200
C241	C24	0.056800	0.696300	0.946500
C251	C25	0.168700	0.708400	0.969700
H321	H32	0.209700	0.681600	0.928100
C261	C26	0.182600	0.639200	0.039800
H331	H33	0.250800	0.614300	0.042300
H341	H34	0.167700	0.674200	0.086900
C271	C27	0.109800	0.555800	0.027400
H351	H35	0.066500	0.548700	0.071500
H361	H36	0.145700	0.493900	0.019900
C281	C28	0.085000	0.523000	0.888300
H371	H37	0.077200	0.453200	0.898000
H381	H38	0.154600	0.537900	0.880700
H391	H39	0.047800	0.540800	0.843400
C291	C29	0.037300	0.732600	0.865500
H401	H40	0.079700	0.697200	0.830500
H411	H41	0.051600	0.802400	0.862400
H421	H42	0.968300	0.721200	0.852500
C301	C30	0.983800	0.756300	0.000500
H431	H43	0.991900	0.733800	0.052200
H441	H44	0.915700	0.745800	0.984600
H451	H45	0.999400	0.825900	0.997600
C311	C31	0.931200	0.552900	0.968000
C321	C32	0.201100	0.813900	0.982700
C331	C33	0.826300	0.205400	0.966100
C341	C34	0.942600	0.191900	0.950300
C351	C35	0.957100	0.078800	0.967200
H461	H46	0.931800	0.041900	0.923000
C361	C36	0.888500	0.056400	0.033800
H471	H47	0.926800	0.050500	0.080700
H481	H48	0.852500	0.994800	0.025300
C371	C37	0.814600	0.145000	0.038600
H491	H49	0.746300	0.121000	0.043200
H501	H50	0.829800	0.185600	0.082900
C381	C38	0.765200	0.162700	0.899800
H511	H51	0.695000	0.171300	0.909900
H521	H52	0.779700	0.093200	0.894400
H531	H53	0.782600	0.196700	0.853500
C391	C39	0.972000	0.220800	0.867900
H541	H54	0.042600	0.210600	0.860900
H551	H55	0.956200	0.289500	0.859300
H561	H56	0.935500	0.180300	0.832400
C401	C40	0.004000	0.250000	0.001700
H571	H57	0.073600	0.239600	0.989900
H581	H58	0.991300	0.229800	0.053400
H591	H59	0.988100	0.319200	0.996000
C411	C41	0.800100	0.316200	0.978100
C421	C42	0.063500	0.051600	0.977500
C431	C43	0.672600	0.548700	0.244000
H601	H60	0.652200	0.558800	0.192000
H611	H61	0.678500	0.611800	0.269200
H621	H62	0.623400	0.508800	0.269800
C441	C44	0.770200	0.497400	0.245400
Co51	Co5	0.266940	0.009920	0.925980
Co61	Co6	0.234260	0.991070	0.083870
O211	O21	0.403500	0.971700	0.969900
O221	O22	0.378900	0.941500	0.093200
O231	O23	0.694400	0.651000	0.949400
O241	O24	0.731100	0.637600	0.074600
O251	O25	0.293400	0.152300	0.956100
O261	O26	0.284400	0.134300	0.081200
O271	O27	0.620000	0.456800	0.077700
O281	O28	0.596700	0.461900	0.952200
O291	O29	0.313700	0.024800	0.692300
O301	O30	0.313100	0.022100	0.817000
C451	C45	0.546200	0.919300	0.044800
C461	C46	0.556800	0.803700	0.053500
C471	C47	0.668700	0.791600	0.030300
H631	H63	0.709700	0.818400	0.071900
C481	C48	0.682600	0.860800	0.960200
H641	H64	0.750800	0.885700	0.957700
H651	H65	0.667700	0.825800	0.913100
C491	C49	0.609800	0.944200	0.972600
H661	H66	0.566500	0.951300	0.928500
H671	H67	0.645700	0.006100	0.980100
C501	C50	0.585000	0.977000	0.111700
H681	H68	0.577200	0.046800	0.102000
H691	H69	0.654600	0.962100	0.119300
H701	H70	0.547800	0.959200	0.156600
C511	C51	0.537300	0.767400	0.134500
H711	H71	0.579700	0.802800	0.169500
H721	H72	0.551600	0.697600	0.137600
H731	H73	0.468300	0.778800	0.147500
C521	C52	0.483800	0.743700	0.999500
H741	H74	0.491900	0.766200	0.947800
H751	H75	0.415700	0.754200	0.015400
H761	H76	0.499400	0.674100	0.002400
C531	C53	0.431200	0.947100	0.032000
C541	C54	0.701100	0.686100	0.017300
C551	C55	0.326300	0.294600	0.033900
C561	C56	0.442600	0.308100	0.049700
C571	C57	0.457100	0.421200	0.032800
H771	H77	0.431800	0.458100	0.077000
C581	C58	0.388500	0.443600	0.966200
H781	H78	0.426800	0.449500	0.919300
H791	H79	0.352500	0.505200	0.974700
C591	C59	0.314600	0.355000	0.961400
H801	H80	0.246300	0.379000	0.956800
H811	H81	0.329800	0.314400	0.917100
C601	C60	0.265200	0.337300	0.100200
H821	H82	0.195000	0.328700	0.090100
H831	H83	0.279700	0.406800	0.105600
H841	H84	0.282600	0.303300	0.146500
C611	C61	0.472000	0.279200	0.132100
H851	H85	0.542600	0.289400	0.139100
H861	H86	0.456200	0.210500	0.140700
H871	H87	0.435500	0.319700	0.167600
C621	C62	0.504000	0.250000	0.998300
H881	H88	0.573600	0.260400	0.010100
H891	H89	0.491300	0.270200	0.946600
H901	H90	0.488100	0.180800	0.004000
C631	C63	0.300100	0.183800	0.021900
C641	C64	0.563500	0.448400	0.022500
C651	C65	0.172600	0.951300	0.756000
H911	H91	0.152200	0.941200	0.808000
H921	H92	0.178500	0.888200	0.730800
H931	H93	0.123400	0.991200	0.730200
C661	C66	0.270200	0.002600	0.754600
Co71	Co7	0.233060	0.990080	0.425980
Co81	Co8	0.265740	0.008930	0.583870
O311	O31	0.096500	0.028300	0.469900
O321	O32	0.121100	0.058500	0.593200
O331	O33	0.805600	0.349000	0.449400
O341	O34	0.768900	0.362400	0.574600
O351	O35	0.206600	0.847700	0.456100
O361	O36	0.215600	0.865700	0.581200
O371	O37	0.880000	0.543200	0.577700
O381	O38	0.903300	0.538100	0.452200
O391	O39	0.186300	0.975200	0.192300
O401	O40	0.186900	0.977900	0.317000
C671	C67	0.953800	0.080700	0.544800
C681	C68	0.943200	0.196300	0.553500
C691	C69	0.831300	0.208400	0.530300
H941	H94	0.790300	0.181600	0.571900
C701	C70	0.817400	0.139200	0.460200
H951	H95	0.749200	0.114300	0.457700
H961	H96	0.832300	0.174200	0.413100
C711	C71	0.890200	0.055800	0.472600
H971	H97	0.933500	0.048700	0.428500
H981	H98	0.854300	0.993900	0.480100
C721	C72	0.915000	0.023000	0.611700
H991	H99	0.922800	0.953200	0.602000
H1001	H100	0.845400	0.037900	0.619300
H1011	H101	0.952200	0.040800	0.656600
C731	C73	0.962700	0.232600	0.634500
H1021	H102	0.920300	0.197200	0.669500
H1031	H103	0.948400	0.302400	0.637600
H1041	H104	0.031700	0.221200	0.647500
C741	C74	0.016200	0.256300	0.499500
H1051	H105	0.008100	0.233800	0.447800
H1061	H106	0.084300	0.245800	0.515400
H1071	H107	0.000600	0.325900	0.502400
C751	C75	0.068800	0.052900	0.532000
C761	C76	0.798900	0.313900	0.517300
C771	C77	0.173700	0.705400	0.533900
C781	C78	0.057400	0.691900	0.549700
C791	C79	0.042900	0.578800	0.532800
H1081	H108	0.068200	0.541900	0.577000
C801	C80	0.111500	0.556400	0.466200
H1091	H109	0.073200	0.550500	0.419300
H1101	H110	0.147500	0.494800	0.474700
C811	C81	0.185400	0.645000	0.461400
H1111	H111	0.253700	0.621000	0.456800
H1121	H112	0.170200	0.685600	0.417100
C821	C82	0.234800	0.662700	0.600200
H1131	H113	0.305000	0.671300	0.590100
H1141	H114	0.220300	0.593200	0.605600
H1151	H115	0.217400	0.696700	0.646500
C831	C83	0.028000	0.720800	0.632100
H1161	H116	0.957400	0.710600	0.639100
H1171	H117	0.043800	0.789500	0.640700
H1181	H118	0.064500	0.680300	0.667600
C841	C84	0.996000	0.750000	0.498300
H1191	H119	0.926400	0.739600	0.510100
H1201	H120	0.008700	0.729800	0.446600
H1211	H121	0.011900	0.819200	0.504000
C851	C85	0.199900	0.816200	0.521900
C861	C86	0.936500	0.551600	0.522500
C871	C87	0.327400	0.048700	0.256000
H1221	H122	0.347800	0.058800	0.308000
H1231	H123	0.321500	0.111800	0.230800
H1241	H124	0.376600	0.008800	0.230200
C881	C88	0.229800	0.997400	0.254600
