data_NOHHID_clean_PM
_symmetry_space_group_name_H-M	'P1'
_cell_length_a	10.331400
_cell_length_b	12.319600
_cell_length_c	19.042000
_cell_angle_alpha	106.785000
_cell_angle_beta	93.694000
_cell_angle_gamma	94.284000
_symmetry_Int_Tables_number 1

loop_
_symmetry_equiv_pos_as_xyz
'x,y,z'

loop_
_atom_site_label
_atom_site_type_symbol
_atom_site_fract_x
_atom_site_fract_y
_atom_site_fract_z
Cu11	Cu1	0.108690	0.479260	0.224950
Cu21	Cu2	0.345950	0.545780	0.289940
Cu31	Cu3	0.588500	0.206780	0.397640
Cu41	Cu4	0.881050	0.833830	0.032460
O11	O1	0.169400	0.327800	0.192700
O21	O2	0.748000	0.298700	0.437000
O31	O3	0.717700	0.744100	0.991100
O41	O4	0.373400	0.572200	0.196800
O51	O5	0.084300	0.639700	0.263300
O61	O6	0.082500	0.457700	0.321000
O71	O7	0.285600	0.700000	0.319400
O81	O8	0.286300	0.504600	0.373800
N11	N1	0.383000	0.427200	0.620800
O91	O9	0.042500	0.927600	0.070100
O101	O10	0.432200	0.107000	0.357400
O111	O11	0.178600	0.508600	0.134800
O121	O12	0.733700	0.730400	0.104600
N21	N2	0.095800	0.556900	0.810000
N31	N3	0.283300	0.347500	0.592700
O131	O13	0.291300	0.225900	0.340000
O141	O14	0.374400	0.385200	0.241200
N41	N4	0.786800	0.968100	0.082200
N51	N5	0.264800	0.570800	0.883400
N61	N6	0.689700	0.081600	0.331900
N71	N7	0.853100	0.991200	0.298600
C11	C1	0.060300	0.316000	0.538500
H11	H1	0.037000	0.281400	0.573900
C21	C2	0.463300	0.642600	0.963900
H21	H2	0.500700	0.663100	0.925900
C31	C3	0.337000	0.592000	0.953600
N81	N8	0.135400	0.577600	0.879400
N91	N9	0.817300	0.085900	0.345400
N101	N10	0.456000	0.388900	0.665100
C41	C4	0.187100	0.360600	0.538800
N111	N11	0.658800	0.958300	0.078600
N121	N12	0.623500	0.056500	0.118400
C51	C5	0.290300	0.259000	0.620100
H31	H3	0.232500	0.193600	0.609700
O151	O15	0.805500	0.209900	0.519500
C61	C6	0.170100	0.463600	0.371500
C71	C7	0.533100	0.662500	0.031100
C81	C8	0.277100	0.562900	0.009600
H41	H4	0.191600	0.529500	0.001800
C91	C9	0.229700	0.105700	0.133800
H51	H5	0.142100	0.117600	0.136600
C101	C10	0.829800	0.272300	0.481000
C111	C11	0.225300	0.412200	0.486500
H61	H6	0.311000	0.442200	0.487900
C121	C12	0.967400	0.324000	0.483700
C131	C13	0.084100	0.057500	0.317300
H71	H7	0.063600	0.130600	0.319800
C141	C14	0.986100	0.968000	0.303400
C151	C15	0.474600	0.634300	0.087600
H81	H8	0.521400	0.649000	0.133300
C161	C16	0.393600	0.981700	0.091800
H91	H9	0.417800	0.910400	0.067100
C171	C17	0.293400	0.552400	0.140900
C181	C18	0.318800	0.133100	0.343000
C191	C19	0.401800	0.287000	0.666700
H101	H10	0.434700	0.243000	0.694700
C201	C20	0.003900	0.372600	0.431400
H111	H11	0.942300	0.375900	0.394400
C211	C21	0.132200	0.417600	0.432200
C221	C22	0.212000	0.035800	0.327400
C231	C23	0.306800	0.545600	0.815800
H121	H12	0.391600	0.535800	0.803200
O161	O16	0.191400	0.814200	0.020700
C241	C24	0.644900	0.985400	0.278400
H131	H13	0.558500	0.963200	0.259700
C251	C25	0.198100	0.537500	0.770000
H141	H14	0.195100	0.521200	0.719000
C261	C26	0.671100	0.714400	0.044100
C271	C27	0.174000	0.716600	0.296800
C281	C28	0.487700	0.073500	0.125200
C291	C29	0.749300	0.926400	0.256400
H151	H15	0.749000	0.856900	0.220300
C301	C30	0.143300	0.836800	0.305700
C311	C31	0.014400	0.858700	0.295700
H161	H16	0.947900	0.799500	0.283900
C321	C32	0.242000	0.926300	0.322500
H171	H17	0.328200	0.912500	0.330400
C331	C33	0.347600	0.584800	0.077400
C341	C34	0.323200	0.194900	0.167100
C351	C35	0.159900	0.904300	0.059300
C361	C36	0.286200	0.311300	0.204300
C371	C37	0.262500	0.000800	0.096900
C381	C38	0.455100	0.177400	0.163700
H181	H18	0.519300	0.235900	0.187500
C391	C39	0.729700	0.130400	0.148900
H191	H19	0.731600	0.204600	0.179600
C401	C40	0.832300	0.072800	0.125100
H201	H20	0.919600	0.100800	0.136500
Cu51	Cu5	0.891310	0.520740	0.775050
Cu61	Cu6	0.654050	0.454220	0.710060
Cu71	Cu7	0.411500	0.793220	0.602360
Cu81	Cu8	0.118950	0.166170	0.967540
O171	O17	0.830600	0.672200	0.807300
O181	O18	0.252000	0.701300	0.563000
O191	O19	0.282300	0.255900	0.008900
O201	O20	0.626600	0.427800	0.803200
O211	O21	0.915700	0.360300	0.736700
O221	O22	0.917500	0.542300	0.679000
O231	O23	0.714400	0.300000	0.680600
O241	O24	0.713700	0.495400	0.626200
N131	N13	0.617000	0.572800	0.379200
O251	O25	0.957500	0.072400	0.929900
O261	O26	0.567800	0.893000	0.642600
O271	O27	0.821400	0.491400	0.865200
O281	O28	0.266300	0.269600	0.895400
N141	N14	0.904200	0.443100	0.190000
N151	N15	0.716700	0.652500	0.407300
O291	O29	0.708700	0.774100	0.660000
O301	O30	0.625600	0.614800	0.758800
N161	N16	0.213200	0.031900	0.917800
N171	N17	0.735200	0.429200	0.116600
N181	N18	0.310300	0.918400	0.668100
N191	N19	0.146900	0.008800	0.701400
C411	C41	0.939700	0.684000	0.461500
H211	H21	0.963000	0.718600	0.426100
C421	C42	0.536700	0.357400	0.036100
H221	H22	0.499300	0.336900	0.074100
C431	C43	0.663000	0.408000	0.046400
N201	N20	0.864600	0.422400	0.120600
N211	N21	0.182700	0.914100	0.654600
N221	N22	0.544000	0.611100	0.334900
C441	C44	0.812900	0.639400	0.461200
N231	N23	0.341200	0.041700	0.921400
N241	N24	0.376500	0.943500	0.881600
C451	C45	0.709700	0.741000	0.379900
H231	H23	0.767500	0.806400	0.390300
O311	O31	0.194500	0.790100	0.480500
C461	C46	0.829900	0.536400	0.628500
C471	C47	0.466900	0.337500	0.968900
C481	C48	0.722900	0.437100	0.990400
H241	H24	0.808400	0.470500	0.998200
C491	C49	0.770300	0.894300	0.866200
H251	H25	0.857900	0.882400	0.863400
C501	C50	0.170200	0.727700	0.519000
C511	C51	0.774700	0.587800	0.513500
H261	H26	0.689000	0.557800	0.512100
C521	C52	0.032600	0.676000	0.516300
C531	C53	0.915900	0.942500	0.682700
H271	H27	0.936400	0.869400	0.680200
C541	C54	0.013900	0.032000	0.696600
C551	C55	0.525400	0.365700	0.912400
H281	H28	0.478600	0.351000	0.866700
C561	C56	0.606400	0.018300	0.908200
H291	H29	0.582200	0.089600	0.932900
C571	C57	0.706600	0.447600	0.859100
C581	C58	0.681200	0.866900	0.657000
C591	C59	0.598200	0.713000	0.333300
H301	H30	0.565300	0.757000	0.305300
C601	C60	0.996100	0.627400	0.568600
H311	H31	0.057700	0.624100	0.605600
C611	C61	0.867800	0.582400	0.567800
C621	C62	0.788000	0.964200	0.672600
C631	C63	0.693200	0.454400	0.184200
H321	H32	0.608400	0.464200	0.196800
O321	O32	0.808600	0.185800	0.979300
C641	C64	0.355100	0.014600	0.721600
H331	H33	0.441500	0.036800	0.740300
C651	C65	0.801900	0.462500	0.230000
H341	H34	0.804900	0.478800	0.281000
C661	C66	0.328900	0.285600	0.955900
C671	C67	0.826000	0.283400	0.703200
C681	C68	0.512300	0.926500	0.874800
C691	C69	0.250700	0.073600	0.743600
H351	H35	0.251000	0.143100	0.779700
C701	C70	0.856700	0.163200	0.694300
C711	C71	0.985600	0.141300	0.704300
H361	H36	0.052100	0.200500	0.716100
C721	C72	0.758000	0.073700	0.677500
H371	H37	0.671800	0.087500	0.669600
C731	C73	0.652400	0.415200	0.922600
C741	C74	0.676800	0.805100	0.832900
C751	C75	0.840100	0.095700	0.940700
C761	C76	0.713800	0.688700	0.795700
C771	C77	0.737500	0.999200	0.903100
C781	C78	0.544900	0.822600	0.836300
H381	H38	0.480700	0.764100	0.812500
C791	C79	0.270300	0.869600	0.851100
H391	H39	0.268400	0.795400	0.820400
C801	C80	0.167700	0.927200	0.874900
H401	H40	0.080400	0.899200	0.863500
