data_NOHSIM_clean_PM
_symmetry_space_group_name_H-M	'P1'
_cell_length_a	8.443000
_cell_length_b	13.779000
_cell_length_c	10.170000
_cell_angle_alpha	90.000000
_cell_angle_beta	91.910000
_cell_angle_gamma	90.000000
_symmetry_Int_Tables_number 1

loop_
_symmetry_equiv_pos_as_xyz
'x,y,z'

loop_
_atom_site_label
_atom_site_type_symbol
_atom_site_fract_x
_atom_site_fract_y
_atom_site_fract_z
Zn11	Zn1	0.121100	0.926420	0.039600
Zn21	Zn2	0.622800	0.369100	0.650400
P11	P1	0.810600	0.806200	0.028500
P21	P2	0.150300	0.113300	0.225800
P31	P3	0.310900	0.726800	0.059100
P41	P4	0.653900	0.537000	0.859900
O11	O1	0.904100	0.894300	0.074500
O21	O2	0.754600	0.746500	0.142500
O31	O3	0.661800	0.847600	0.949800
O41	O4	0.906100	0.746000	0.930600
O51	O5	0.156800	0.941600	0.853000
O61	O6	0.990100	0.170000	0.212400
O71	O7	0.167300	0.055700	0.102900
O81	O8	0.283600	0.191000	0.220900
O91	O9	0.257800	0.824700	0.107400
O101	O10	0.405700	0.672200	0.163100
O111	O11	0.162400	0.661200	0.028300
O121	O12	0.405400	0.735600	0.931300
O131	O13	0.663700	0.544400	0.006100
O141	O14	0.490600	0.574500	0.805000
O151	O15	0.785000	0.602200	0.796900
O161	O16	0.675100	0.435400	0.811700
Zn31	Zn3	0.121100	0.073580	0.539600
Zn41	Zn4	0.622800	0.630900	0.150400
P51	P5	0.810600	0.193800	0.528500
P61	P6	0.150300	0.886700	0.725800
P71	P7	0.310900	0.273200	0.559100
P81	P8	0.653900	0.463000	0.359900
O171	O17	0.904100	0.105700	0.574500
O181	O18	0.754600	0.253500	0.642500
O191	O19	0.661800	0.152400	0.449800
O201	O20	0.906100	0.254000	0.430600
O211	O21	0.156800	0.058400	0.353000
O221	O22	0.990100	0.830000	0.712400
O231	O23	0.167300	0.944300	0.602900
O241	O24	0.283600	0.809000	0.720900
O251	O25	0.257800	0.175300	0.607400
O261	O26	0.405700	0.327800	0.663100
O271	O27	0.162400	0.338800	0.528300
O281	O28	0.405400	0.264400	0.431300
O291	O29	0.663700	0.455600	0.506100
O301	O30	0.490600	0.425500	0.305000
O311	O31	0.785000	0.397800	0.296900
O321	O32	0.675100	0.564600	0.311700
