data_NOJBOF_clean_PM
_symmetry_space_group_name_H-M	'P1'
_cell_length_a	12.780000
_cell_length_b	10.494000
_cell_length_c	15.870000
_cell_angle_alpha	90.000000
_cell_angle_beta	109.310000
_cell_angle_gamma	90.000000
_symmetry_Int_Tables_number 1

loop_
_symmetry_equiv_pos_as_xyz
'x,y,z'

loop_
_atom_site_label
_atom_site_type_symbol
_atom_site_fract_x
_atom_site_fract_y
_atom_site_fract_z
Cd11	Cd1	0.638800	0.532510	0.887540
N11	N1	0.736300	0.432100	0.031300
N21	N2	0.815000	0.469700	0.893600
N31	N3	0.968600	0.352800	0.950900
C11	C1	0.567000	0.458200	0.692100
C21	C2	0.528600	0.477700	0.592300
C31	C3	0.562100	0.588000	0.559100
H11	H1	0.603300	0.648000	0.599600
C41	C4	0.463100	0.387700	0.531300
C51	C5	0.419500	0.266800	0.559600
C61	C6	0.082300	0.915600	0.042100
H21	H2	0.138500	0.858600	0.070800
C71	C7	0.105800	0.043600	0.043800
H31	H3	0.177500	0.072000	0.073500
C81	C8	0.024000	0.130200	0.001900
C91	C9	0.052100	0.270200	0.009700
H41	H4	0.064700	0.296600	0.070800
H51	H5	0.121000	0.282200	0.997500
C101	C10	0.971900	0.400800	0.870300
C111	C11	0.049400	0.387800	0.826700
H61	H6	0.112400	0.337500	0.849700
C121	C12	0.028000	0.453100	0.748000
H71	H7	0.078300	0.447700	0.717200
C131	C13	0.932700	0.527600	0.712600
H81	H8	0.920800	0.569900	0.658700
C141	C14	0.856200	0.539500	0.756200
H91	H9	0.793200	0.589600	0.732700
C151	C15	0.875500	0.475000	0.835500
C161	C16	0.873600	0.395700	0.961600
C171	C17	0.831900	0.369200	0.035100
C181	C18	0.871300	0.287500	0.105300
H101	H10	0.935400	0.238800	0.117100
C191	C19	0.704700	0.396500	0.097800
H111	H11	0.641100	0.428900	0.106200
O11	O1	0.578700	0.555500	0.740200
O21	O2	0.587300	0.347000	0.719300
O31	O3	0.449500	0.163000	0.535200
O41	O4	0.351900	0.268800	0.600100
S11	S1	0.786800	0.287400	0.168270
Cd21	Cd2	0.361200	0.032510	0.612460
N41	N4	0.263700	0.932100	0.468700
N51	N5	0.185000	0.969700	0.606400
N61	N6	0.031400	0.852800	0.549100
C201	C20	0.433000	0.958200	0.807900
C211	C21	0.471400	0.977700	0.907700
C221	C22	0.437900	0.088000	0.940900
H121	H12	0.396700	0.148000	0.900400
C231	C23	0.536900	0.887700	0.968700
C241	C24	0.580500	0.766800	0.940400
C251	C25	0.917700	0.415600	0.457900
H131	H13	0.861500	0.358600	0.429200
C261	C26	0.894200	0.543600	0.456200
H141	H14	0.822500	0.572000	0.426500
C271	C27	0.976000	0.630200	0.498100
C281	C28	0.947900	0.770200	0.490300
H151	H15	0.935300	0.796600	0.429200
H161	H16	0.879000	0.782200	0.502500
C291	C29	0.028100	0.900800	0.629700
C301	C30	0.950600	0.887800	0.673300
H171	H17	0.887600	0.837500	0.650300
C311	C31	0.972000	0.953100	0.752000
H181	H18	0.921700	0.947700	0.782800
C321	C32	0.067300	0.027600	0.787400
H191	H19	0.079200	0.069900	0.841300
C331	C33	0.143800	0.039500	0.743800
H201	H20	0.206800	0.089600	0.767300
C341	C34	0.124500	0.975000	0.664500
C351	C35	0.126400	0.895700	0.538400
C361	C36	0.168100	0.869200	0.464900
C371	C37	0.128700	0.787500	0.394700
H211	H21	0.064600	0.738800	0.382900
C381	C38	0.295300	0.896500	0.402200
H221	H22	0.358900	0.928900	0.393800
O51	O5	0.421300	0.055500	0.759800
O61	O6	0.412700	0.847000	0.780700
O71	O7	0.550500	0.663000	0.964800
O81	O8	0.648100	0.768800	0.899900
S21	S2	0.213200	0.787400	0.331730
Cd31	Cd3	0.361200	0.467490	0.112460
N71	N7	0.263700	0.567900	0.968700
N81	N8	0.185000	0.530300	0.106400
N91	N9	0.031400	0.647200	0.049100
C391	C39	0.433000	0.541800	0.307900
C401	C40	0.471400	0.522300	0.407700
C411	C41	0.437900	0.412000	0.440900
H231	H23	0.396700	0.352000	0.400400
C421	C42	0.536900	0.612300	0.468700
C431	C43	0.580500	0.733200	0.440400
C441	C44	0.917700	0.084400	0.957900
H241	H24	0.861500	0.141400	0.929200
C451	C45	0.894200	0.956400	0.956200
H251	H25	0.822500	0.928000	0.926500
C461	C46	0.976000	0.869800	0.998100
C471	C47	0.947900	0.729800	0.990300
H261	H26	0.935300	0.703400	0.929200
H271	H27	0.879000	0.717800	0.002500
C481	C48	0.028100	0.599200	0.129700
C491	C49	0.950600	0.612200	0.173300
H281	H28	0.887600	0.662500	0.150300
C501	C50	0.972000	0.546900	0.252000
H291	H29	0.921700	0.552300	0.282800
C511	C51	0.067300	0.472400	0.287400
H301	H30	0.079200	0.430100	0.341300
C521	C52	0.143800	0.460500	0.243800
H311	H31	0.206800	0.410400	0.267300
C531	C53	0.124500	0.525000	0.164500
C541	C54	0.126400	0.604300	0.038400
C551	C55	0.168100	0.630800	0.964900
C561	C56	0.128700	0.712500	0.894700
H321	H32	0.064600	0.761200	0.882900
C571	C57	0.295300	0.603500	0.902200
H331	H33	0.358900	0.571100	0.893800
O91	O9	0.421300	0.444500	0.259800
O101	O10	0.412700	0.653000	0.280700
O111	O11	0.550500	0.837000	0.464800
O121	O12	0.648100	0.731200	0.399900
S31	S3	0.213200	0.712600	0.831730
Cd41	Cd4	0.638800	0.967490	0.387540
N101	N10	0.736300	0.067900	0.531300
N111	N11	0.815000	0.030300	0.393600
N121	N12	0.968600	0.147200	0.450900
C581	C58	0.567000	0.041800	0.192100
C591	C59	0.528600	0.022300	0.092300
C601	C60	0.562100	0.912000	0.059100
H341	H34	0.603300	0.852000	0.099600
C611	C61	0.463100	0.112300	0.031300
C621	C62	0.419500	0.233200	0.059600
C631	C63	0.082300	0.584400	0.542100
H351	H35	0.138500	0.641400	0.570800
C641	C64	0.105800	0.456400	0.543800
H361	H36	0.177500	0.428000	0.573500
C651	C65	0.024000	0.369800	0.501900
C661	C66	0.052100	0.229800	0.509700
H371	H37	0.064700	0.203400	0.570800
H381	H38	0.121000	0.217800	0.497500
C671	C67	0.971900	0.099200	0.370300
C681	C68	0.049400	0.112200	0.326700
H391	H39	0.112400	0.162500	0.349700
C691	C69	0.028000	0.046900	0.248000
H401	H40	0.078300	0.052300	0.217200
C701	C70	0.932700	0.972400	0.212600
H411	H41	0.920800	0.930100	0.158700
C711	C71	0.856200	0.960500	0.256200
H421	H42	0.793200	0.910400	0.232700
C721	C72	0.875500	0.025000	0.335500
C731	C73	0.873600	0.104300	0.461600
C741	C74	0.831900	0.130800	0.535100
C751	C75	0.871300	0.212500	0.605300
H431	H43	0.935400	0.261200	0.617100
C761	C76	0.704700	0.103500	0.597800
H441	H44	0.641100	0.071100	0.606200
O131	O13	0.578700	0.944500	0.240200
O141	O14	0.587300	0.153000	0.219300
O151	O15	0.449500	0.337000	0.035200
O161	O16	0.351900	0.231200	0.100100
S41	S4	0.786800	0.212600	0.668270
