data_NOJMOP_clean_PM
_symmetry_space_group_name_H-M	'P1'
_cell_length_a	24.561000
_cell_length_b	20.118000
_cell_length_c	8.084500
_cell_angle_alpha	90.000000
_cell_angle_beta	106.176000
_cell_angle_gamma	90.000000
_symmetry_Int_Tables_number 1

loop_
_symmetry_equiv_pos_as_xyz
'x,y,z'

loop_
_atom_site_label
_atom_site_type_symbol
_atom_site_fract_x
_atom_site_fract_y
_atom_site_fract_z
Cu11	Cu1	0.050330	0.412610	0.666730
Cu21	Cu2	0.315660	0.682500	0.220360
N11	N1	0.020360	0.331320	0.707700
N21	N2	0.085260	0.491700	0.638200
N31	N3	0.063040	0.552590	0.665500
N41	N4	0.270040	0.659800	0.392400
N51	N5	0.386900	0.642600	0.256300
C11	C1	0.266700	0.735700	0.054000
C21	C2	0.074000	0.253200	0.579900
H11	H1	0.085800	0.293900	0.538500
H21	H2	0.056200	0.225200	0.483900
H31	H3	0.106400	0.230800	0.652700
C31	C3	0.033100	0.268200	0.679500
C41	C4	0.045400	0.116400	0.736900
H41	H4	0.077900	0.138100	0.728100
C51	C5	0.043200	0.047300	0.736700
H51	H5	0.074900	0.024200	0.726200
C61	C6	0.165600	0.444800	0.553100
H61	H6	0.198700	0.437300	0.647900
H71	H7	0.177000	0.454300	0.451200
H81	H8	0.142200	0.405800	0.534500
C71	C7	0.133000	0.502400	0.593300
C81	C8	0.142390	0.570800	0.586600
C91	C9	0.096900	0.600300	0.634200
C101	C10	0.085600	0.671800	0.662800
H91	H9	0.076600	0.695000	0.554900
H101	H10	0.118600	0.691200	0.740400
H111	H11	0.054200	0.675000	0.711600
C111	C11	0.187200	0.603400	0.531100
C121	C12	0.178500	0.662200	0.439900
H121	H12	0.144300	0.684700	0.423300
C131	C13	0.219700	0.688100	0.373100
H131	H13	0.212000	0.727500	0.311000
C141	C14	0.280100	0.604800	0.489300
H141	H14	0.315700	0.585400	0.510600
C151	C15	0.241200	0.575300	0.559200
H151	H15	0.250700	0.536900	0.624900
C161	C16	0.430900	0.621200	0.260500
Cu31	Cu3	0.949670	0.412610	0.833270
Cu41	Cu4	0.684340	0.682500	0.279640
N61	N6	0.979640	0.331320	0.792300
N71	N7	0.914740	0.491700	0.861800
N81	N8	0.936960	0.552590	0.834500
N91	N9	0.729960	0.659800	0.107600
N101	N10	0.613100	0.642600	0.243700
C171	C17	0.733300	0.735700	0.446000
C181	C18	0.926000	0.253200	0.920100
H161	H16	0.914200	0.293900	0.961500
H171	H17	0.943800	0.225200	0.016100
H181	H18	0.893600	0.230800	0.847300
C191	C19	0.966900	0.268200	0.820500
C201	C20	0.954600	0.116400	0.763100
H191	H19	0.922100	0.138100	0.771900
C211	C21	0.956800	0.047300	0.763300
H201	H20	0.925100	0.024200	0.773800
C221	C22	0.834400	0.444800	0.946900
H211	H21	0.801300	0.437300	0.852100
H221	H22	0.823000	0.454300	0.048800
H231	H23	0.857800	0.405800	0.965500
C231	C23	0.867000	0.502400	0.906700
C241	C24	0.857610	0.570800	0.913400
C251	C25	0.903100	0.600300	0.865800
C261	C26	0.914400	0.671800	0.837200
H241	H24	0.923400	0.695000	0.945100
H251	H25	0.881400	0.691200	0.759600
H261	H26	0.945800	0.675000	0.788400
C271	C27	0.812800	0.603400	0.968900
C281	C28	0.821500	0.662200	0.060100
H271	H27	0.855700	0.684700	0.076700
C291	C29	0.780300	0.688100	0.126900
H281	H28	0.788000	0.727500	0.189000
C301	C30	0.719900	0.604800	0.010700
H291	H29	0.684300	0.585400	0.989400
C311	C31	0.758800	0.575300	0.940800
H301	H30	0.749300	0.536900	0.875100
C321	C32	0.569100	0.621200	0.239500
Cu51	Cu5	0.449670	0.087390	0.333270
Cu61	Cu6	0.184340	0.817500	0.779640
N111	N11	0.479640	0.168680	0.292300
N121	N12	0.414740	0.008300	0.361800
N131	N13	0.436960	0.947410	0.334500
N141	N14	0.229960	0.840200	0.607600
N151	N15	0.113100	0.857400	0.743700
C331	C33	0.233300	0.764300	0.946000
C341	C34	0.426000	0.246800	0.420100
H311	H31	0.414200	0.206100	0.461500
H321	H32	0.443800	0.274800	0.516100
H331	H33	0.393600	0.269200	0.347300
C351	C35	0.466900	0.231800	0.320500
C361	C36	0.454600	0.383600	0.263100
H341	H34	0.422100	0.361900	0.271900
C371	C37	0.456800	0.452700	0.263300
H351	H35	0.425100	0.475800	0.273800
C381	C38	0.334400	0.055200	0.446900
H361	H36	0.301300	0.062700	0.352100
H371	H37	0.323000	0.045700	0.548800
H381	H38	0.357800	0.094200	0.465500
C391	C39	0.367000	0.997600	0.406700
C401	C40	0.357610	0.929200	0.413400
C411	C41	0.403100	0.899700	0.365800
C421	C42	0.414400	0.828200	0.337200
H391	H39	0.423400	0.805000	0.445100
H401	H40	0.381400	0.808800	0.259600
H411	H41	0.445800	0.825000	0.288400
C431	C43	0.312800	0.896600	0.468900
C441	C44	0.321500	0.837800	0.560100
H421	H42	0.355700	0.815300	0.576700
C451	C45	0.280300	0.811900	0.626900
H431	H43	0.288000	0.772500	0.689000
C461	C46	0.219900	0.895200	0.510700
H441	H44	0.184300	0.914600	0.489400
C471	C47	0.258800	0.924700	0.440800
H451	H45	0.249300	0.963100	0.375100
C481	C48	0.069100	0.878800	0.739500
Cu71	Cu7	0.550330	0.087390	0.166730
Cu81	Cu8	0.815660	0.817500	0.720360
N161	N16	0.520360	0.168680	0.207700
N171	N17	0.585260	0.008300	0.138200
N181	N18	0.563040	0.947410	0.165500
N191	N19	0.770040	0.840200	0.892400
N201	N20	0.886900	0.857400	0.756300
C491	C49	0.766700	0.764300	0.554000
C501	C50	0.574000	0.246800	0.079900
H461	H46	0.585800	0.206100	0.038500
H471	H47	0.556200	0.274800	0.983900
H481	H48	0.606400	0.269200	0.152700
C511	C51	0.533100	0.231800	0.179500
C521	C52	0.545400	0.383600	0.236900
H491	H49	0.577900	0.361900	0.228100
C531	C53	0.543200	0.452700	0.236700
H501	H50	0.574900	0.475800	0.226200
C541	C54	0.665600	0.055200	0.053100
H511	H51	0.698700	0.062700	0.147900
H521	H52	0.677000	0.045700	0.951200
H531	H53	0.642200	0.094200	0.034500
C551	C55	0.633000	0.997600	0.093300
C561	C56	0.642390	0.929200	0.086600
C571	C57	0.596900	0.899700	0.134200
C581	C58	0.585600	0.828200	0.162800
H541	H54	0.576600	0.805000	0.054900
H551	H55	0.618600	0.808800	0.240400
H561	H56	0.554200	0.825000	0.211600
C591	C59	0.687200	0.896600	0.031100
C601	C60	0.678500	0.837800	0.939900
H571	H57	0.644300	0.815300	0.923300
C611	C61	0.719700	0.811900	0.873100
H581	H58	0.712000	0.772500	0.811000
C621	C62	0.780100	0.895200	0.989300
H591	H59	0.815700	0.914600	0.010600
C631	C63	0.741200	0.924700	0.059200
H601	H60	0.750700	0.963100	0.124900
C641	C64	0.930900	0.878800	0.760500
Cu91	Cu9	0.000000	0.554150	0.750000
Cu101	Cu10	0.000000	0.910490	0.750000
N211	N21	0.000000	0.012800	0.750000
C651	C65	0.000000	0.225800	0.750000
C661	C66	0.000000	0.151800	0.750000
Cu111	Cu11	0.500000	0.945850	0.250000
Cu121	Cu12	0.500000	0.589510	0.250000
N221	N22	0.500000	0.487200	0.250000
C671	C67	0.500000	0.274200	0.250000
C681	C68	0.500000	0.348200	0.250000
Cu131	Cu13	0.550330	0.912610	0.666730
Cu141	Cu14	0.815660	0.182500	0.220360
N231	N23	0.520360	0.831320	0.707700
N241	N24	0.585260	0.991700	0.638200
N251	N25	0.563040	0.052590	0.665500
N261	N26	0.770040	0.159800	0.392400
N271	N27	0.886900	0.142600	0.256300
C691	C69	0.766700	0.235700	0.054000
C701	C70	0.574000	0.753200	0.579900
H611	H61	0.585800	0.793900	0.538500
H621	H62	0.556200	0.725200	0.483900
H631	H63	0.606400	0.730800	0.652700
C711	C71	0.533100	0.768200	0.679500
C721	C72	0.545400	0.616400	0.736900
H641	H64	0.577900	0.638100	0.728100
C731	C73	0.543200	0.547300	0.736700
H651	H65	0.574900	0.524200	0.726200
C741	C74	0.665600	0.944800	0.553100
H661	H66	0.698700	0.937300	0.647900
H671	H67	0.677000	0.954300	0.451200
H681	H68	0.642200	0.905800	0.534500
C751	C75	0.633000	0.002400	0.593300
C761	C76	0.642390	0.070800	0.586600
C771	C77	0.596900	0.100300	0.634200
C781	C78	0.585600	0.171800	0.662800
H691	H69	0.576600	0.195000	0.554900
H701	H70	0.618600	0.191200	0.740400
H711	H71	0.554200	0.175000	0.711600
C791	C79	0.687200	0.103400	0.531100
C801	C80	0.678500	0.162200	0.439900
H721	H72	0.644300	0.184700	0.423300
C811	C81	0.719700	0.188100	0.373100
H731	H73	0.712000	0.227500	0.311000
C821	C82	0.780100	0.104800	0.489300
H741	H74	0.815700	0.085400	0.510600
C831	C83	0.741200	0.075300	0.559200
H751	H75	0.750700	0.036900	0.624900
C841	C84	0.930900	0.121200	0.260500
Cu151	Cu15	0.449670	0.912610	0.833270
Cu161	Cu16	0.184340	0.182500	0.279640
N281	N28	0.479640	0.831320	0.792300
N291	N29	0.414740	0.991700	0.861800
N301	N30	0.436960	0.052590	0.834500
N311	N31	0.229960	0.159800	0.107600
N321	N32	0.113100	0.142600	0.243700
C851	C85	0.233300	0.235700	0.446000
C861	C86	0.426000	0.753200	0.920100
H761	H76	0.414200	0.793900	0.961500
H771	H77	0.443800	0.725200	0.016100
H781	H78	0.393600	0.730800	0.847300
C871	C87	0.466900	0.768200	0.820500
C881	C88	0.454600	0.616400	0.763100
H791	H79	0.422100	0.638100	0.771900
C891	C89	0.456800	0.547300	0.763300
H801	H80	0.425100	0.524200	0.773800
C901	C90	0.334400	0.944800	0.946900
H811	H81	0.301300	0.937300	0.852100
H821	H82	0.323000	0.954300	0.048800
H831	H83	0.357800	0.905800	0.965500
C911	C91	0.367000	0.002400	0.906700
C921	C92	0.357610	0.070800	0.913400
C931	C93	0.403100	0.100300	0.865800
C941	C94	0.414400	0.171800	0.837200
H841	H84	0.423400	0.195000	0.945100
H851	H85	0.381400	0.191200	0.759600
H861	H86	0.445800	0.175000	0.788400
C951	C95	0.312800	0.103400	0.968900
C961	C96	0.321500	0.162200	0.060100
H871	H87	0.355700	0.184700	0.076700
C971	C97	0.280300	0.188100	0.126900
H881	H88	0.288000	0.227500	0.189000
C981	C98	0.219900	0.104800	0.010700
H891	H89	0.184300	0.085400	0.989400
C991	C99	0.258800	0.075300	0.940800
H901	H90	0.249300	0.036900	0.875100
C1001	C100	0.069100	0.121200	0.239500
Cu171	Cu17	0.949670	0.587390	0.333270
Cu181	Cu18	0.684340	0.317500	0.779640
N331	N33	0.979640	0.668680	0.292300
N341	N34	0.914740	0.508300	0.361800
N351	N35	0.936960	0.447410	0.334500
N361	N36	0.729960	0.340200	0.607600
N371	N37	0.613100	0.357400	0.743700
C1011	C101	0.733300	0.264300	0.946000
C1021	C102	0.926000	0.746800	0.420100
H911	H91	0.914200	0.706100	0.461500
H921	H92	0.943800	0.774800	0.516100
H931	H93	0.893600	0.769200	0.347300
C1031	C103	0.966900	0.731800	0.320500
C1041	C104	0.954600	0.883600	0.263100
H941	H94	0.922100	0.861900	0.271900
C1051	C105	0.956800	0.952700	0.263300
H951	H95	0.925100	0.975800	0.273800
C1061	C106	0.834400	0.555200	0.446900
H961	H96	0.801300	0.562700	0.352100
H971	H97	0.823000	0.545700	0.548800
H981	H98	0.857800	0.594200	0.465500
C1071	C107	0.867000	0.497600	0.406700
C1081	C108	0.857610	0.429200	0.413400
C1091	C109	0.903100	0.399700	0.365800
C1101	C110	0.914400	0.328200	0.337200
H991	H99	0.923400	0.305000	0.445100
H1001	H100	0.881400	0.308800	0.259600
H1011	H101	0.945800	0.325000	0.288400
C1111	C111	0.812800	0.396600	0.468900
C1121	C112	0.821500	0.337800	0.560100
H1021	H102	0.855700	0.315300	0.576700
C1131	C113	0.780300	0.311900	0.626900
H1031	H103	0.788000	0.272500	0.689000
C1141	C114	0.719900	0.395200	0.510700
H1041	H104	0.684300	0.414600	0.489400
C1151	C115	0.758800	0.424700	0.440800
H1051	H105	0.749300	0.463100	0.375100
C1161	C116	0.569100	0.378800	0.739500
Cu191	Cu19	0.050330	0.587390	0.166730
Cu201	Cu20	0.315660	0.317500	0.720360
N381	N38	0.020360	0.668680	0.207700
N391	N39	0.085260	0.508300	0.138200
N401	N40	0.063040	0.447410	0.165500
N411	N41	0.270040	0.340200	0.892400
N421	N42	0.386900	0.357400	0.756300
C1171	C117	0.266700	0.264300	0.554000
C1181	C118	0.074000	0.746800	0.079900
H1061	H106	0.085800	0.706100	0.038500
H1071	H107	0.056200	0.774800	0.983900
H1081	H108	0.106400	0.769200	0.152700
C1191	C119	0.033100	0.731800	0.179500
C1201	C120	0.045400	0.883600	0.236900
H1091	H109	0.077900	0.861900	0.228100
C1211	C121	0.043200	0.952700	0.236700
H1101	H110	0.074900	0.975800	0.226200
C1221	C122	0.165600	0.555200	0.053100
H1111	H111	0.198700	0.562700	0.147900
H1121	H112	0.177000	0.545700	0.951200
H1131	H113	0.142200	0.594200	0.034500
C1231	C123	0.133000	0.497600	0.093300
C1241	C124	0.142390	0.429200	0.086600
C1251	C125	0.096900	0.399700	0.134200
C1261	C126	0.085600	0.328200	0.162800
H1141	H114	0.076600	0.305000	0.054900
H1151	H115	0.118600	0.308800	0.240400
H1161	H116	0.054200	0.325000	0.211600
C1271	C127	0.187200	0.396600	0.031100
C1281	C128	0.178500	0.337800	0.939900
H1171	H117	0.144300	0.315300	0.923300
C1291	C129	0.219700	0.311900	0.873100
H1181	H118	0.212000	0.272500	0.811000
C1301	C130	0.280100	0.395200	0.989300
H1191	H119	0.315700	0.414600	0.010600
C1311	C131	0.241200	0.424700	0.059200
H1201	H120	0.250700	0.463100	0.124900
C1321	C132	0.430900	0.378800	0.760500
Cu211	Cu21	0.500000	0.054150	0.750000
Cu221	Cu22	0.500000	0.410490	0.750000
N431	N43	0.500000	0.512800	0.750000
C1331	C133	0.500000	0.725800	0.750000
C1341	C134	0.500000	0.651800	0.750000
Cu231	Cu23	0.000000	0.445850	0.250000
Cu241	Cu24	0.000000	0.089510	0.250000
N441	N44	0.000000	0.987200	0.250000
C1351	C135	0.000000	0.774200	0.250000
C1361	C136	0.000000	0.848200	0.250000
