data_NOLQUA_clean_PM
_symmetry_space_group_name_H-M	'P1'
_cell_length_a	11.521000
_cell_length_b	11.663700
_cell_length_c	11.853000
_cell_angle_alpha	92.926000
_cell_angle_beta	93.350000
_cell_angle_gamma	113.619000
_symmetry_Int_Tables_number 1

loop_
_symmetry_equiv_pos_as_xyz
'x,y,z'

loop_
_atom_site_label
_atom_site_type_symbol
_atom_site_fract_x
_atom_site_fract_y
_atom_site_fract_z
O11	O1	0.386200	0.001600	0.347800
O21	O2	0.410700	0.796300	0.462600
O31	O3	0.349900	0.992100	0.607500
C11	C1	0.337000	0.075100	0.315000
C21	C2	0.333800	0.176100	0.381300
C31	C3	0.284300	0.255600	0.340700
C41	C4	0.229400	0.230800	0.229400
C51	C5	0.229700	0.132700	0.166600
N11	N1	0.281900	0.054900	0.205700
C61	C6	0.284200	0.365900	0.413000
C71	C7	0.280100	0.948500	0.129800
C81	C8	0.395600	0.978100	0.064000
C91	C9	0.420200	0.060100	0.979800
C101	C10	0.478000	0.920200	0.085200
C111	C11	0.375300	0.729900	0.369100
C121	C12	0.453800	0.689900	0.305200
C131	C13	0.412700	0.615300	0.208700
C141	C14	0.285400	0.576700	0.165800
C151	C15	0.208900	0.614600	0.227500
N21	N2	0.251800	0.689400	0.325400
C161	C16	0.497400	0.570600	0.143600
C171	C17	0.159000	0.718800	0.388300
C181	C18	0.074400	0.604800	0.446700
C191	C19	0.128300	0.560400	0.532400
C201	C20	0.948100	0.544400	0.415100
C211	C21	0.297700	0.921400	0.681600
C221	C22	0.328500	0.822100	0.718800
C231	C23	0.268800	0.746400	0.799900
C241	C24	0.168400	0.764200	0.847000
C251	C25	0.137100	0.857800	0.815800
N31	N3	0.200100	0.936300	0.733700
C261	C26	0.308100	0.644000	0.837000
C271	C27	0.168800	0.041100	0.705900
C281	C28	0.081400	0.017000	0.599400
C291	C29	0.055600	0.115500	0.559000
C301	C30	0.024300	0.902900	0.537800
H11	H1	0.367100	0.189700	0.456500
H21	H2	0.193000	0.282000	0.199300
H31	H3	0.192400	0.116800	0.092600
H41	H4	0.302000	0.436200	0.368000
H51	H5	0.384200	0.387700	0.475300
H61	H6	0.202300	0.343900	0.441500
H71	H7	0.205200	0.920600	0.076400
H81	H8	0.272100	0.879400	0.175300
H91	H9	0.368100	0.102500	0.966400
H101	H10	0.464900	0.867300	0.143700
H111	H11	0.538900	0.716800	0.331600
H121	H12	0.254400	0.527200	0.097800
H131	H13	0.123800	0.587900	0.201300
H141	H14	0.521100	0.617300	0.078200
H151	H15	0.452600	0.483000	0.119900
H161	H16	0.572400	0.583200	0.191300
H171	H17	0.106700	0.743600	0.336300
H181	H18	0.203700	0.788500	0.444600
H191	H19	0.214900	0.600400	0.554700
H201	H20	0.911900	0.573700	0.357200
H211	H21	0.393500	0.808200	0.685700
H221	H22	0.123400	0.711300	0.899900
H231	H23	0.071900	0.870600	0.849500
H241	H24	0.245600	0.563700	0.806400
H251	H25	0.314800	0.646500	0.918300
H261	H26	0.389000	0.656700	0.809900
H271	H27	0.247100	0.113100	0.697600
H281	H28	0.129100	0.062600	0.768800
H291	H29	0.092700	0.194700	0.597900
H301	H30	0.039900	0.835500	0.562200
O41	O4	0.613800	0.998400	0.652200
O51	O5	0.589300	0.203700	0.537400
O61	O6	0.650100	0.007900	0.392500
C311	C31	0.663000	0.924900	0.685000
C321	C32	0.666200	0.823900	0.618700
C331	C33	0.715700	0.744400	0.659300
C341	C34	0.770600	0.769200	0.770600
C351	C35	0.770300	0.867300	0.833400
N41	N4	0.718100	0.945100	0.794300
C361	C36	0.715800	0.634100	0.587000
C371	C37	0.719900	0.051500	0.870200
C381	C38	0.604400	0.021900	0.936000
C391	C39	0.579800	0.939900	0.020200
C401	C40	0.522000	0.079800	0.914800
C411	C41	0.624700	0.270100	0.630900
C421	C42	0.546200	0.310100	0.694800
C431	C43	0.587300	0.384700	0.791300
C441	C44	0.714600	0.423300	0.834200
C451	C45	0.791100	0.385400	0.772500
N51	N5	0.748200	0.310600	0.674600
C461	C46	0.502600	0.429400	0.856400
C471	C47	0.841000	0.281200	0.611700
C481	C48	0.925600	0.395200	0.553300
C491	C49	0.871700	0.439600	0.467600
C501	C50	0.051900	0.455600	0.584900
C511	C51	0.702300	0.078600	0.318400
C521	C52	0.671500	0.177900	0.281200
C531	C53	0.731200	0.253600	0.200100
C541	C54	0.831600	0.235800	0.153000
C551	C55	0.862900	0.142200	0.184200
N61	N6	0.799900	0.063700	0.266300
C561	C56	0.691900	0.356000	0.163000
C571	C57	0.831200	0.958900	0.294100
C581	C58	0.918600	0.983000	0.400600
C591	C59	0.944400	0.884500	0.441000
C601	C60	0.975700	0.097100	0.462200
H311	H31	0.632900	0.810300	0.543500
H321	H32	0.807000	0.718000	0.800700
H331	H33	0.807600	0.883200	0.907400
H341	H34	0.698000	0.563800	0.632000
H351	H35	0.615800	0.612300	0.524700
H361	H36	0.797700	0.656100	0.558500
H371	H37	0.794800	0.079400	0.923600
H381	H38	0.727900	0.120600	0.824700
H391	H39	0.631900	0.897500	0.033600
H401	H40	0.535100	0.132700	0.856300
H411	H41	0.461100	0.283200	0.668400
H421	H42	0.745600	0.472800	0.902200
H431	H43	0.876200	0.412100	0.798700
H441	H44	0.478900	0.382700	0.921800
H451	H45	0.547400	0.517000	0.880100
H461	H46	0.427600	0.416800	0.808700
H471	H47	0.893300	0.256400	0.663700
H481	H48	0.796300	0.211500	0.555400
H491	H49	0.785100	0.399600	0.445300
H501	H50	0.088100	0.426300	0.642800
H511	H51	0.606500	0.191800	0.314300
H521	H52	0.876600	0.288700	0.100100
H531	H53	0.928100	0.129400	0.150500
H541	H54	0.754400	0.436300	0.193600
H551	H55	0.685200	0.353500	0.081700
H561	H56	0.611000	0.343300	0.190100
H571	H57	0.752900	0.886900	0.302400
H581	H58	0.870900	0.937400	0.231200
H591	H59	0.907300	0.805300	0.402100
H601	H60	0.960100	0.164500	0.437800
Mn11	Mn1	0.500000	0.000000	0.500000
