data_NOLRIR_clean_PM
_symmetry_space_group_name_H-M	'P1'
_cell_length_a	19.524000
_cell_length_b	10.049000
_cell_length_c	25.359000
_cell_angle_alpha	90.000000
_cell_angle_beta	95.409000
_cell_angle_gamma	90.000000
_symmetry_Int_Tables_number 1

loop_
_symmetry_equiv_pos_as_xyz
'x,y,z'

loop_
_atom_site_label
_atom_site_type_symbol
_atom_site_fract_x
_atom_site_fract_y
_atom_site_fract_z
Cd11	Cd1	0.589280	0.048700	0.983690
O11	O1	0.688910	0.107200	0.942800
O21	O2	0.606740	0.012500	0.894240
O31	O3	0.024150	0.583200	0.547680
O41	O4	0.108230	0.667500	0.506620
O51	O5	0.074730	0.282400	0.535380
O61	O6	0.151800	0.143800	0.506770
C11	C1	0.665900	0.059800	0.899360
C21	C2	0.709000	0.052000	0.854080
C31	C3	0.686400	0.985200	0.808310
H11	H1	0.642700	0.947500	0.804400
C41	C4	0.729200	0.974800	0.768300
H21	H2	0.713400	0.930300	0.737300
C51	C5	0.795400	0.028600	0.772460
C61	C6	0.817100	0.097500	0.818100
H31	H3	0.860400	0.136600	0.821800
C71	C7	0.773600	0.108500	0.858900
H41	H4	0.788600	0.154600	0.889600
C81	C8	0.841600	0.014700	0.728750
C91	C9	0.833500	0.910600	0.692300
H51	H5	0.797500	0.850900	0.694300
C101	C10	0.877500	0.894100	0.653740
H61	H6	0.871600	0.821800	0.630800
C111	C11	0.931100	0.984300	0.648210
C121	C12	0.936000	0.087600	0.683800
H71	H7	0.971100	0.149200	0.681400
C131	C13	0.892600	0.106400	0.722900
H81	H8	0.897700	0.180200	0.745000
C141	C14	0.981300	0.963400	0.608520
C151	C15	0.998000	0.835600	0.591570
H91	H9	0.976600	0.761900	0.604900
C161	C16	0.046100	0.817300	0.555090
C171	C17	0.079700	0.925900	0.537490
H101	H10	0.114200	0.913400	0.515100
C181	C18	0.063600	0.053900	0.552320
C191	C19	0.014900	0.071900	0.588160
H111	H11	0.004500	0.157600	0.598800
C201	C20	0.059900	0.680100	0.535440
C211	C21	0.099300	0.170700	0.529760
Cd21	Cd2	0.089280	0.548700	0.983690
O71	O7	0.188910	0.607200	0.942800
O81	O8	0.106740	0.512500	0.894240
O91	O9	0.524150	0.083200	0.547680
O101	O10	0.608230	0.167500	0.506620
O111	O11	0.574730	0.782400	0.535380
O121	O12	0.651800	0.643800	0.506770
C221	C22	0.165900	0.559800	0.899360
C231	C23	0.209000	0.552000	0.854080
C241	C24	0.186400	0.485200	0.808310
H121	H12	0.142700	0.447500	0.804400
C251	C25	0.229200	0.474800	0.768300
H131	H13	0.213400	0.430300	0.737300
C261	C26	0.295400	0.528600	0.772460
C271	C27	0.317100	0.597500	0.818100
H141	H14	0.360400	0.636600	0.821800
C281	C28	0.273600	0.608500	0.858900
H151	H15	0.288600	0.654600	0.889600
C291	C29	0.341600	0.514700	0.728750
C301	C30	0.333500	0.410600	0.692300
H161	H16	0.297500	0.350900	0.694300
C311	C31	0.377500	0.394100	0.653740
H171	H17	0.371600	0.321800	0.630800
C321	C32	0.431100	0.484300	0.648210
C331	C33	0.436000	0.587600	0.683800
H181	H18	0.471100	0.649200	0.681400
C341	C34	0.392600	0.606400	0.722900
H191	H19	0.397700	0.680200	0.745000
C351	C35	0.481300	0.463400	0.608520
C361	C36	0.498000	0.335600	0.591570
H201	H20	0.476600	0.261900	0.604900
C371	C37	0.546100	0.317300	0.555090
C381	C38	0.579700	0.425900	0.537490
H211	H21	0.614200	0.413400	0.515100
C391	C39	0.563600	0.553900	0.552320
C401	C40	0.514900	0.571900	0.588160
H221	H22	0.504500	0.657600	0.598800
C411	C41	0.559900	0.180100	0.535440
C421	C42	0.599300	0.670700	0.529760
Cd31	Cd3	0.410720	0.048700	0.516310
O131	O13	0.311090	0.107200	0.557200
O141	O14	0.393260	0.012500	0.605760
O151	O15	0.975850	0.583200	0.952320
O161	O16	0.891770	0.667500	0.993380
O171	O17	0.925270	0.282400	0.964620
O181	O18	0.848200	0.143800	0.993230
C431	C43	0.334100	0.059800	0.600640
C441	C44	0.291000	0.052000	0.645920
C451	C45	0.313600	0.985200	0.691690
H231	H23	0.357300	0.947500	0.695600
C461	C46	0.270800	0.974800	0.731700
H241	H24	0.286600	0.930300	0.762700
C471	C47	0.204600	0.028600	0.727540
C481	C48	0.182900	0.097500	0.681900
H251	H25	0.139600	0.136600	0.678200
C491	C49	0.226400	0.108500	0.641100
H261	H26	0.211400	0.154600	0.610400
C501	C50	0.158400	0.014700	0.771250
C511	C51	0.166500	0.910600	0.807700
H271	H27	0.202500	0.850900	0.805700
C521	C52	0.122500	0.894100	0.846260
H281	H28	0.128400	0.821800	0.869200
C531	C53	0.068900	0.984300	0.851790
C541	C54	0.064000	0.087600	0.816200
H291	H29	0.028900	0.149200	0.818600
C551	C55	0.107400	0.106400	0.777100
H301	H30	0.102300	0.180200	0.755000
C561	C56	0.018700	0.963400	0.891480
C571	C57	0.002000	0.835600	0.908430
H311	H31	0.023400	0.761900	0.895100
C581	C58	0.953900	0.817300	0.944910
C591	C59	0.920300	0.925900	0.962510
H321	H32	0.885800	0.913400	0.984900
C601	C60	0.936400	0.053900	0.947680
C611	C61	0.985100	0.071900	0.911840
H331	H33	0.995500	0.157600	0.901200
C621	C62	0.940100	0.680100	0.964560
C631	C63	0.900700	0.170700	0.970240
Cd41	Cd4	0.910720	0.548700	0.516310
O191	O19	0.811090	0.607200	0.557200
O201	O20	0.893260	0.512500	0.605760
O211	O21	0.475850	0.083200	0.952320
O221	O22	0.391770	0.167500	0.993380
O231	O23	0.425270	0.782400	0.964620
O241	O24	0.348200	0.643800	0.993230
C641	C64	0.834100	0.559800	0.600640
C651	C65	0.791000	0.552000	0.645920
C661	C66	0.813600	0.485200	0.691690
H341	H34	0.857300	0.447500	0.695600
C671	C67	0.770800	0.474800	0.731700
H351	H35	0.786600	0.430300	0.762700
C681	C68	0.704600	0.528600	0.727540
C691	C69	0.682900	0.597500	0.681900
H361	H36	0.639600	0.636600	0.678200
C701	C70	0.726400	0.608500	0.641100
H371	H37	0.711400	0.654600	0.610400
C711	C71	0.658400	0.514700	0.771250
C721	C72	0.666500	0.410600	0.807700
H381	H38	0.702500	0.350900	0.805700
C731	C73	0.622500	0.394100	0.846260
H391	H39	0.628400	0.321800	0.869200
C741	C74	0.568900	0.484300	0.851790
C751	C75	0.564000	0.587600	0.816200
H401	H40	0.528900	0.649200	0.818600
C761	C76	0.607400	0.606400	0.777100
H411	H41	0.602300	0.680200	0.755000
C771	C77	0.518700	0.463400	0.891480
C781	C78	0.502000	0.335600	0.908430
H421	H42	0.523400	0.261900	0.895100
C791	C79	0.453900	0.317300	0.944910
C801	C80	0.420300	0.425900	0.962510
H431	H43	0.385800	0.413400	0.984900
C811	C81	0.436400	0.553900	0.947680
C821	C82	0.485100	0.571900	0.911840
H441	H44	0.495500	0.657600	0.901200
C831	C83	0.440100	0.180100	0.964560
C841	C84	0.400700	0.670700	0.970240
Cd51	Cd5	0.410720	0.951300	0.016310
O251	O25	0.311090	0.892800	0.057200
O261	O26	0.393260	0.987500	0.105760
O271	O27	0.975850	0.416800	0.452320
O281	O28	0.891770	0.332500	0.493380
O291	O29	0.925270	0.717600	0.464620
O301	O30	0.848200	0.856200	0.493230
C851	C85	0.334100	0.940200	0.100640
C861	C86	0.291000	0.948000	0.145920
C871	C87	0.313600	0.014800	0.191690
H451	H45	0.357300	0.052500	0.195600
C881	C88	0.270800	0.025200	0.231700
H461	H46	0.286600	0.069700	0.262700
C891	C89	0.204600	0.971400	0.227540
C901	C90	0.182900	0.902500	0.181900
H471	H47	0.139600	0.863400	0.178200
C911	C91	0.226400	0.891500	0.141100
H481	H48	0.211400	0.845400	0.110400
C921	C92	0.158400	0.985300	0.271250
C931	C93	0.166500	0.089400	0.307700
H491	H49	0.202500	0.149100	0.305700
C941	C94	0.122500	0.105900	0.346260
H501	H50	0.128400	0.178200	0.369200
C951	C95	0.068900	0.015700	0.351790
C961	C96	0.064000	0.912400	0.316200
H511	H51	0.028900	0.850800	0.318600
C971	C97	0.107400	0.893600	0.277100
H521	H52	0.102300	0.819800	0.255000
C981	C98	0.018700	0.036600	0.391480
C991	C99	0.002000	0.164400	0.408430
H531	H53	0.023400	0.238100	0.395100
C1001	C100	0.953900	0.182700	0.444910
C1011	C101	0.920300	0.074100	0.462510
H541	H54	0.885800	0.086600	0.484900
C1021	C102	0.936400	0.946100	0.447680
C1031	C103	0.985100	0.928100	0.411840
H551	H55	0.995500	0.842400	0.401200
C1041	C104	0.940100	0.319900	0.464560
C1051	C105	0.900700	0.829300	0.470240
Cd61	Cd6	0.910720	0.451300	0.016310
O311	O31	0.811090	0.392800	0.057200
O321	O32	0.893260	0.487500	0.105760
O331	O33	0.475850	0.916800	0.452320
O341	O34	0.391770	0.832500	0.493380
O351	O35	0.425270	0.217600	0.464620
O361	O36	0.348200	0.356200	0.493230
C1061	C106	0.834100	0.440200	0.100640
C1071	C107	0.791000	0.448000	0.145920
C1081	C108	0.813600	0.514800	0.191690
H561	H56	0.857300	0.552500	0.195600
C1091	C109	0.770800	0.525200	0.231700
H571	H57	0.786600	0.569700	0.262700
C1101	C110	0.704600	0.471400	0.227540
C1111	C111	0.682900	0.402500	0.181900
H581	H58	0.639600	0.363400	0.178200
C1121	C112	0.726400	0.391500	0.141100
H591	H59	0.711400	0.345400	0.110400
C1131	C113	0.658400	0.485300	0.271250
C1141	C114	0.666500	0.589400	0.307700
H601	H60	0.702500	0.649100	0.305700
C1151	C115	0.622500	0.605900	0.346260
H611	H61	0.628400	0.678200	0.369200
C1161	C116	0.568900	0.515700	0.351790
C1171	C117	0.564000	0.412400	0.316200
H621	H62	0.528900	0.350800	0.318600
C1181	C118	0.607400	0.393600	0.277100
H631	H63	0.602300	0.319800	0.255000
C1191	C119	0.518700	0.536600	0.391480
C1201	C120	0.502000	0.664400	0.408430
H641	H64	0.523400	0.738100	0.395100
C1211	C121	0.453900	0.682700	0.444910
C1221	C122	0.420300	0.574100	0.462510
H651	H65	0.385800	0.586600	0.484900
C1231	C123	0.436400	0.446100	0.447680
C1241	C124	0.485100	0.428100	0.411840
H661	H66	0.495500	0.342400	0.401200
C1251	C125	0.440100	0.819900	0.464560
C1261	C126	0.400700	0.329300	0.470240
Cd71	Cd7	0.589280	0.951300	0.483690
O371	O37	0.688910	0.892800	0.442800
O381	O38	0.606740	0.987500	0.394240
O391	O39	0.024150	0.416800	0.047680
O401	O40	0.108230	0.332500	0.006620
O411	O41	0.074730	0.717600	0.035380
O421	O42	0.151800	0.856200	0.006770
C1271	C127	0.665900	0.940200	0.399360
C1281	C128	0.709000	0.948000	0.354080
C1291	C129	0.686400	0.014800	0.308310
H671	H67	0.642700	0.052500	0.304400
C1301	C130	0.729200	0.025200	0.268300
H681	H68	0.713400	0.069700	0.237300
C1311	C131	0.795400	0.971400	0.272460
C1321	C132	0.817100	0.902500	0.318100
H691	H69	0.860400	0.863400	0.321800
C1331	C133	0.773600	0.891500	0.358900
H701	H70	0.788600	0.845400	0.389600
C1341	C134	0.841600	0.985300	0.228750
C1351	C135	0.833500	0.089400	0.192300
H711	H71	0.797500	0.149100	0.194300
C1361	C136	0.877500	0.105900	0.153740
H721	H72	0.871600	0.178200	0.130800
C1371	C137	0.931100	0.015700	0.148210
C1381	C138	0.936000	0.912400	0.183800
H731	H73	0.971100	0.850800	0.181400
C1391	C139	0.892600	0.893600	0.222900
H741	H74	0.897700	0.819800	0.245000
C1401	C140	0.981300	0.036600	0.108520
C1411	C141	0.998000	0.164400	0.091570
H751	H75	0.976600	0.238100	0.104900
C1421	C142	0.046100	0.182700	0.055090
C1431	C143	0.079700	0.074100	0.037490
H761	H76	0.114200	0.086600	0.015100
C1441	C144	0.063600	0.946100	0.052320
C1451	C145	0.014900	0.928100	0.088160
H771	H77	0.004500	0.842400	0.098800
C1461	C146	0.059900	0.319900	0.035440
C1471	C147	0.099300	0.829300	0.029760
Cd81	Cd8	0.089280	0.451300	0.483690
O431	O43	0.188910	0.392800	0.442800
O441	O44	0.106740	0.487500	0.394240
O451	O45	0.524150	0.916800	0.047680
O461	O46	0.608230	0.832500	0.006620
O471	O47	0.574730	0.217600	0.035380
O481	O48	0.651800	0.356200	0.006770
C1481	C148	0.165900	0.440200	0.399360
C1491	C149	0.209000	0.448000	0.354080
C1501	C150	0.186400	0.514800	0.308310
H781	H78	0.142700	0.552500	0.304400
C1511	C151	0.229200	0.525200	0.268300
H791	H79	0.213400	0.569700	0.237300
C1521	C152	0.295400	0.471400	0.272460
C1531	C153	0.317100	0.402500	0.318100
H801	H80	0.360400	0.363400	0.321800
C1541	C154	0.273600	0.391500	0.358900
H811	H81	0.288600	0.345400	0.389600
C1551	C155	0.341600	0.485300	0.228750
C1561	C156	0.333500	0.589400	0.192300
H821	H82	0.297500	0.649100	0.194300
C1571	C157	0.377500	0.605900	0.153740
H831	H83	0.371600	0.678200	0.130800
C1581	C158	0.431100	0.515700	0.148210
C1591	C159	0.436000	0.412400	0.183800
H841	H84	0.471100	0.350800	0.181400
C1601	C160	0.392600	0.393600	0.222900
H851	H85	0.397700	0.319800	0.245000
C1611	C161	0.481300	0.536600	0.108520
C1621	C162	0.498000	0.664400	0.091570
H861	H86	0.476600	0.738100	0.104900
C1631	C163	0.546100	0.682700	0.055090
C1641	C164	0.579700	0.574100	0.037490
H871	H87	0.614200	0.586600	0.015100
C1651	C165	0.563600	0.446100	0.052320
C1661	C166	0.514900	0.428100	0.088160
H881	H88	0.504500	0.342400	0.098800
C1671	C167	0.559900	0.819900	0.035440
C1681	C168	0.599300	0.329300	0.029760
Cd91	Cd9	0.750000	0.250000	0.000000
Cd101	Cd10	0.250000	0.250000	0.500000
Cd111	Cd11	0.250000	0.750000	0.000000
Cd121	Cd12	0.750000	0.750000	0.500000
