data_NOPJUZ_clean_PM
_symmetry_space_group_name_H-M	'P1'
_cell_length_a	9.335900
_cell_length_b	11.268400
_cell_length_c	18.850800
_cell_angle_alpha	79.415000
_cell_angle_beta	79.414000
_cell_angle_gamma	66.270000
_symmetry_Int_Tables_number 1

loop_
_symmetry_equiv_pos_as_xyz
'x,y,z'

loop_
_atom_site_label
_atom_site_type_symbol
_atom_site_fract_x
_atom_site_fract_y
_atom_site_fract_z
N11	N1	0.998800	0.316400	0.497250
O11	O1	0.847300	0.587990	0.421490
C11	C1	0.867800	0.297900	0.497500
C21	C2	0.131000	0.211200	0.497000
C31	C3	0.873800	0.579300	0.355140
H11	H1	0.773500	0.370500	0.496900
C41	C4	0.862800	0.176500	0.498700
H21	H2	0.225100	0.221600	0.496400
C51	C5	0.136500	0.087000	0.497500
C61	C6	0.757500	0.683700	0.307250
O21	O2	0.991700	0.496000	0.323790
H31	H3	0.766800	0.169300	0.499300
C71	C7	0.999600	0.066400	0.499110
H41	H4	0.232900	0.016500	0.496700
C81	C8	0.808500	0.701400	0.233310
C91	C9	0.609800	0.769900	0.334410
C101	C10	0.715600	0.802500	0.187860
H51	H5	0.906200	0.644500	0.214400
C111	C11	0.519600	0.871800	0.287930
C121	C12	0.539800	0.756700	0.413230
C131	C13	0.573900	0.888200	0.213800
O31	O3	0.784800	0.823000	0.116350
H61	H6	0.421900	0.929900	0.306100
O41	O4	0.500500	0.661100	0.435620
O51	O5	0.516100	0.847000	0.449270
H71	H7	0.513300	0.957100	0.182900
C141	C14	0.718000	0.818700	0.058010
C151	C15	0.598000	0.775100	0.062650
C161	C16	0.787200	0.856100	0.991160
C171	C17	0.553400	0.763200	0.998160
H81	H8	0.547800	0.754000	0.107600
C181	C18	0.742900	0.842800	0.928210
H91	H9	0.863700	0.890300	0.988600
C191	C19	0.626100	0.794100	0.931010
H101	H10	0.472600	0.733800	0.000700
H111	H11	0.791500	0.866600	0.883400
C201	C20	0.591500	0.769300	0.861340
O61	O6	0.481500	0.727470	0.866060
O71	O7	0.674400	0.788300	0.804180
Ni11	Ni1	0.393830	0.687330	0.783610
N21	N2	0.568700	0.491600	0.787380
N31	N3	0.249400	0.614100	0.864190
N41	N4	0.213000	0.878500	0.781860
C211	C21	0.597800	0.416800	0.735540
C221	C22	0.661600	0.440200	0.840110
C231	C23	0.142500	0.578900	0.847910
C241	C24	0.262000	0.600000	0.935080
H121	H12	0.531000	0.447000	0.699600
C251	C25	0.720500	0.297600	0.731720
H131	H13	0.642100	0.488000	0.878500
C261	C26	0.784800	0.320400	0.841030
H141	H14	0.133700	0.584000	0.799000
C271	C27	0.041800	0.534700	0.898730
H151	H15	0.338400	0.621600	0.948800
C281	C28	0.167300	0.555000	0.989170
H161	H16	0.737100	0.251400	0.692800
C291	C29	0.819300	0.246000	0.785370
H171	H17	0.845000	0.289500	0.879600
H181	H18	0.967100	0.512800	0.883700
C301	C30	0.053300	0.523200	0.971740
H191	H19	0.181800	0.546400	0.037600
C311	C31	0.954700	0.118300	0.783860
C321	C32	0.038700	0.072500	0.719350
C331	C33	0.005600	0.040300	0.847830
H201	H20	0.010300	0.121600	0.675200
C341	C34	0.164900	0.953700	0.720560
H211	H21	0.953600	0.066400	0.892700
C351	C35	0.133400	0.924200	0.843930
H221	H22	0.219000	0.924700	0.676500
H231	H23	0.166600	0.874400	0.887300
N51	N5	0.001200	0.683600	0.502750
O81	O8	0.152700	0.412010	0.578510
C361	C36	0.132200	0.702100	0.502500
C371	C37	0.869000	0.788800	0.503000
C381	C38	0.126200	0.420700	0.644860
H241	H24	0.226500	0.629500	0.503100
C391	C39	0.137200	0.823500	0.501300
H251	H25	0.774900	0.778400	0.503600
C401	C40	0.863500	0.913000	0.502500
C411	C41	0.242500	0.316300	0.692750
O91	O9	0.008300	0.504000	0.676210
H261	H26	0.233200	0.830700	0.500700
C421	C42	0.000400	0.933600	0.500890
H271	H27	0.767100	0.983500	0.503300
C431	C43	0.191500	0.298600	0.766690
C441	C44	0.390200	0.230100	0.665590
C451	C45	0.284400	0.197500	0.812140
H281	H28	0.093800	0.355500	0.785600
C461	C46	0.480400	0.128200	0.712070
C471	C47	0.460200	0.243300	0.586770
C481	C48	0.426100	0.111800	0.786200
O101	O10	0.215200	0.177000	0.883650
H291	H29	0.578100	0.070100	0.693900
O111	O11	0.499500	0.338900	0.564380
O121	O12	0.483900	0.153000	0.550730
H301	H30	0.486700	0.042900	0.817100
C491	C49	0.282000	0.181300	0.941990
C501	C50	0.402000	0.224900	0.937350
C511	C51	0.212800	0.143900	0.008840
C521	C52	0.446600	0.236800	0.001840
H311	H31	0.452200	0.246000	0.892400
C531	C53	0.257100	0.157200	0.071790
H321	H32	0.136300	0.109700	0.011400
C541	C54	0.373900	0.205900	0.068990
H331	H33	0.527400	0.266200	0.999300
H341	H34	0.208500	0.133400	0.116600
C551	C55	0.408500	0.230700	0.138660
O131	O13	0.518500	0.272530	0.133940
O141	O14	0.325600	0.211700	0.195820
Ni21	Ni2	0.606170	0.312670	0.216390
N61	N6	0.431300	0.508400	0.212620
N71	N7	0.750600	0.385900	0.135810
N81	N8	0.787000	0.121500	0.218140
C561	C56	0.402200	0.583200	0.264460
C571	C57	0.338400	0.559800	0.159890
C581	C58	0.857500	0.421100	0.152090
C591	C59	0.738000	0.400000	0.064920
H351	H35	0.469000	0.553000	0.300400
C601	C60	0.279500	0.702400	0.268280
H361	H36	0.357900	0.512000	0.121500
C611	C61	0.215200	0.679600	0.158970
H371	H37	0.866300	0.416000	0.201000
C621	C62	0.958200	0.465300	0.101270
H381	H38	0.661600	0.378400	0.051200
C631	C63	0.832700	0.445000	0.010830
H391	H39	0.262900	0.748600	0.307200
C641	C64	0.180700	0.754000	0.214630
H401	H40	0.155000	0.710500	0.120400
H411	H41	0.032900	0.487200	0.116300
C651	C65	0.946700	0.476800	0.028260
H421	H42	0.818200	0.453600	0.962400
C661	C66	0.045300	0.881700	0.216140
C671	C67	0.961300	0.927500	0.280650
C681	C68	0.994400	0.959700	0.152170
H431	H43	0.989700	0.878400	0.324800
C691	C69	0.835100	0.046300	0.279440
H441	H44	0.046400	0.933600	0.107300
C701	C70	0.866600	0.075800	0.156070
H451	H45	0.781000	0.075300	0.323500
H461	H46	0.833400	0.125600	0.112700
Ni31	Ni3	0.000000	0.500000	0.500000
