data_NOPJOT_clean_PM
_symmetry_space_group_name_H-M	'P1'
_cell_length_a	19.702000
_cell_length_b	18.118100
_cell_length_c	14.318500
_cell_angle_alpha	90.000000
_cell_angle_beta	97.583000
_cell_angle_gamma	90.000000
_symmetry_Int_Tables_number 1

loop_
_symmetry_equiv_pos_as_xyz
'x,y,z'

loop_
_atom_site_label
_atom_site_type_symbol
_atom_site_fract_x
_atom_site_fract_y
_atom_site_fract_z
Mn11	Mn1	0.247800	0.855540	0.057810
Mn21	Mn2	0.292840	0.856590	0.393120
Mn31	Mn3	0.273250	0.990250	0.227960
C11	C1	0.826000	0.980600	0.911100
C21	C2	0.884000	0.962000	0.985800
C31	C3	0.907200	0.013100	0.053700
H11	H1	0.885800	0.058700	0.055100
C41	C4	0.916300	0.893900	0.984700
H21	H2	0.901800	0.859600	0.938100
C51	C5	0.963200	0.996000	0.120400
H31	H3	0.979800	0.030600	0.165600
C61	C6	0.970300	0.877900	0.053600
H41	H4	0.991000	0.831700	0.055000
C71	C7	0.993000	0.929500	0.119200
C81	C8	0.048700	0.860100	0.247900
C91	C9	0.988400	0.841300	0.282100
H51	H5	0.947500	0.864900	0.260200
C101	C10	0.111100	0.827200	0.281800
C111	C11	0.173300	0.851700	0.236900
C121	C12	0.990700	0.786100	0.350300
H61	H6	0.950600	0.771200	0.372600
C131	C13	0.111800	0.774300	0.352100
C141	C14	0.177200	0.736700	0.393500
C151	C15	0.051500	0.754100	0.384300
H71	H7	0.052300	0.717700	0.430300
C161	C16	0.665700	0.972600	0.600000
C171	C17	0.621700	0.955500	0.512100
C181	C18	0.580600	0.008300	0.465100
H81	H8	0.581800	0.056300	0.488300
C191	C19	0.619100	0.883100	0.475000
H91	H9	0.647700	0.846600	0.504000
C201	C20	0.537800	0.991700	0.384500
H101	H10	0.510600	0.028400	0.353500
C211	C21	0.573500	0.866500	0.394400
H111	H11	0.569700	0.818300	0.371800
C221	C22	0.534800	0.921200	0.349200
C231	C23	0.491600	0.852500	0.209900
C241	C24	0.551900	0.832100	0.178200
H121	H12	0.593100	0.854200	0.202400
C251	C25	0.429000	0.822000	0.173200
C261	C26	0.366700	0.847100	0.214800
C271	C27	0.550100	0.778400	0.110000
H131	H13	0.590500	0.763700	0.088600
C281	C28	0.428900	0.768600	0.101900
C291	C29	0.362800	0.733800	0.057300
C301	C30	0.489700	0.746100	0.073300
H141	H14	0.489600	0.708800	0.028700
O11	O1	0.789000	0.035100	0.923900
O21	O2	0.813800	0.941900	0.838300
O31	O3	0.051300	0.916600	0.183300
O41	O4	0.182300	0.822400	0.161800
O51	O5	0.209180	0.903000	0.279700
O61	O6	0.233550	0.760000	0.369400
O71	O7	0.171800	0.685600	0.452100
O81	O8	0.703200	0.926500	0.644500
O91	O9	0.664700	0.037500	0.633200
O101	O10	0.487200	0.911600	0.270900
O111	O11	0.356560	0.819200	0.289300
O121	O12	0.331510	0.898800	0.171400
O131	O13	0.307030	0.757800	0.080200
O141	O14	0.368100	0.684100	0.998500
Mn41	Mn4	0.752200	0.355540	0.442190
Mn51	Mn5	0.707160	0.356590	0.106880
Mn61	Mn6	0.726750	0.490250	0.272040
C311	C31	0.174000	0.480600	0.588900
C321	C32	0.116000	0.462000	0.514200
C331	C33	0.092800	0.513100	0.446300
H151	H15	0.114200	0.558700	0.444900
C341	C34	0.083700	0.393900	0.515300
H161	H16	0.098200	0.359600	0.561900
C351	C35	0.036800	0.496000	0.379600
H171	H17	0.020200	0.530600	0.334400
C361	C36	0.029700	0.377900	0.446400
H181	H18	0.009000	0.331700	0.445000
C371	C37	0.007000	0.429500	0.380800
C381	C38	0.951300	0.360100	0.252100
C391	C39	0.011600	0.341300	0.217900
H191	H19	0.052500	0.364900	0.239800
C401	C40	0.888900	0.327200	0.218200
C411	C41	0.826700	0.351700	0.263100
C421	C42	0.009300	0.286100	0.149700
H201	H20	0.049400	0.271200	0.127400
C431	C43	0.888200	0.274300	0.147900
C441	C44	0.822800	0.236700	0.106500
C451	C45	0.948500	0.254100	0.115700
H211	H21	0.947700	0.217700	0.069700
C461	C46	0.334300	0.472600	0.900000
C471	C47	0.378300	0.455500	0.987900
C481	C48	0.419400	0.508300	0.034900
H221	H22	0.418200	0.556300	0.011700
C491	C49	0.380900	0.383100	0.025000
H231	H23	0.352300	0.346600	0.996000
C501	C50	0.462200	0.491700	0.115500
H241	H24	0.489400	0.528400	0.146500
C511	C51	0.426500	0.366500	0.105600
H251	H25	0.430300	0.318300	0.128200
C521	C52	0.465200	0.421200	0.150800
C531	C53	0.508400	0.352500	0.290100
C541	C54	0.448100	0.332100	0.321800
H261	H26	0.406900	0.354200	0.297600
C551	C55	0.571000	0.322000	0.326800
C561	C56	0.633300	0.347100	0.285200
C571	C57	0.449900	0.278400	0.390000
H271	H27	0.409500	0.263700	0.411400
C581	C58	0.571100	0.268600	0.398100
C591	C59	0.637200	0.233800	0.442700
C601	C60	0.510300	0.246100	0.426700
H281	H28	0.510400	0.208800	0.471300
O151	O15	0.211000	0.535100	0.576100
O161	O16	0.186200	0.441900	0.661700
O171	O17	0.948700	0.416600	0.316700
O181	O18	0.817700	0.322400	0.338200
O191	O19	0.790820	0.403000	0.220300
O201	O20	0.766450	0.260000	0.130600
O211	O21	0.828200	0.185600	0.047900
O221	O22	0.296800	0.426500	0.855500
O231	O23	0.335300	0.537500	0.866800
O241	O24	0.512800	0.411600	0.229100
O251	O25	0.643440	0.319200	0.210700
O261	O26	0.668490	0.398800	0.328600
O271	O27	0.692970	0.257800	0.419800
O281	O28	0.631900	0.184100	0.501500
Mn71	Mn7	0.752200	0.144460	0.942190
Mn81	Mn8	0.707160	0.143410	0.606880
Mn91	Mn9	0.726750	0.009750	0.772040
C611	C61	0.174000	0.019400	0.088900
C621	C62	0.116000	0.038000	0.014200
C631	C63	0.092800	0.986900	0.946300
H291	H29	0.114200	0.941300	0.944900
C641	C64	0.083700	0.106100	0.015300
H301	H30	0.098200	0.140400	0.061900
C651	C65	0.036800	0.004000	0.879600
H311	H31	0.020200	0.969400	0.834400
C661	C66	0.029700	0.122100	0.946400
H321	H32	0.009000	0.168300	0.945000
C671	C67	0.007000	0.070500	0.880800
C681	C68	0.951300	0.139900	0.752100
C691	C69	0.011600	0.158700	0.717900
H331	H33	0.052500	0.135100	0.739800
C701	C70	0.888900	0.172800	0.718200
C711	C71	0.826700	0.148300	0.763100
C721	C72	0.009300	0.213900	0.649700
H341	H34	0.049400	0.228800	0.627400
C731	C73	0.888200	0.225700	0.647900
C741	C74	0.822800	0.263300	0.606500
C751	C75	0.948500	0.245900	0.615700
H351	H35	0.947700	0.282300	0.569700
C761	C76	0.334300	0.027400	0.400000
C771	C77	0.378300	0.044500	0.487900
C781	C78	0.419400	0.991700	0.534900
H361	H36	0.418200	0.943700	0.511700
C791	C79	0.380900	0.116900	0.525000
H371	H37	0.352300	0.153400	0.496000
C801	C80	0.462200	0.008300	0.615500
H381	H38	0.489400	0.971600	0.646500
C811	C81	0.426500	0.133500	0.605600
H391	H39	0.430300	0.181700	0.628200
C821	C82	0.465200	0.078800	0.650800
C831	C83	0.508400	0.147500	0.790100
C841	C84	0.448100	0.167900	0.821800
H401	H40	0.406900	0.145800	0.797600
C851	C85	0.571000	0.178000	0.826800
C861	C86	0.633300	0.152900	0.785200
C871	C87	0.449900	0.221600	0.890000
H411	H41	0.409500	0.236300	0.911400
C881	C88	0.571100	0.231400	0.898100
C891	C89	0.637200	0.266200	0.942700
C901	C90	0.510300	0.253900	0.926700
H421	H42	0.510400	0.291200	0.971300
O291	O29	0.211000	0.964900	0.076100
O301	O30	0.186200	0.058100	0.161700
O311	O31	0.948700	0.083400	0.816700
O321	O32	0.817700	0.177600	0.838200
O331	O33	0.790820	0.097000	0.720300
O341	O34	0.766450	0.240000	0.630600
O351	O35	0.828200	0.314400	0.547900
O361	O36	0.296800	0.073500	0.355500
O371	O37	0.335300	0.962500	0.366800
O381	O38	0.512800	0.088400	0.729100
O391	O39	0.643440	0.180800	0.710700
O401	O40	0.668490	0.101200	0.828600
O411	O41	0.692970	0.242200	0.919800
O421	O42	0.631900	0.315900	0.001500
Mn101	Mn10	0.247800	0.644460	0.557810
Mn111	Mn11	0.292840	0.643410	0.893120
Mn121	Mn12	0.273250	0.509750	0.727960
C911	C91	0.826000	0.519400	0.411100
C921	C92	0.884000	0.538000	0.485800
C931	C93	0.907200	0.486900	0.553700
H431	H43	0.885800	0.441300	0.555100
C941	C94	0.916300	0.606100	0.484700
H441	H44	0.901800	0.640400	0.438100
C951	C95	0.963200	0.504000	0.620400
H451	H45	0.979800	0.469400	0.665600
C961	C96	0.970300	0.622100	0.553600
H461	H46	0.991000	0.668300	0.555000
C971	C97	0.993000	0.570500	0.619200
C981	C98	0.048700	0.639900	0.747900
C991	C99	0.988400	0.658700	0.782100
H471	H47	0.947500	0.635100	0.760200
C1001	C100	0.111100	0.672800	0.781800
C1011	C101	0.173300	0.648300	0.736900
C1021	C102	0.990700	0.713900	0.850300
H481	H48	0.950600	0.728800	0.872600
C1031	C103	0.111800	0.725700	0.852100
C1041	C104	0.177200	0.763300	0.893500
C1051	C105	0.051500	0.745900	0.884300
H491	H49	0.052300	0.782300	0.930300
C1061	C106	0.665700	0.527400	0.100000
C1071	C107	0.621700	0.544500	0.012100
C1081	C108	0.580600	0.491700	0.965100
H501	H50	0.581800	0.443700	0.988300
C1091	C109	0.619100	0.616900	0.975000
H511	H51	0.647700	0.653400	0.004000
C1101	C110	0.537800	0.508300	0.884500
H521	H52	0.510600	0.471600	0.853500
C1111	C111	0.573500	0.633500	0.894400
H531	H53	0.569700	0.681700	0.871800
C1121	C112	0.534800	0.578800	0.849200
C1131	C113	0.491600	0.647500	0.709900
C1141	C114	0.551900	0.667900	0.678200
H541	H54	0.593100	0.645800	0.702400
C1151	C115	0.429000	0.678000	0.673200
C1161	C116	0.366700	0.652900	0.714800
C1171	C117	0.550100	0.721600	0.610000
H551	H55	0.590500	0.736300	0.588600
C1181	C118	0.428900	0.731400	0.601900
C1191	C119	0.362800	0.766200	0.557300
C1201	C120	0.489700	0.753900	0.573300
H561	H56	0.489600	0.791200	0.528700
O431	O43	0.789000	0.464900	0.423900
O441	O44	0.813800	0.558100	0.338300
O451	O45	0.051300	0.583400	0.683300
O461	O46	0.182300	0.677600	0.661800
O471	O47	0.209180	0.597000	0.779700
O481	O48	0.233550	0.740000	0.869400
O491	O49	0.171800	0.814400	0.952100
O501	O50	0.703200	0.573500	0.144500
O511	O51	0.664700	0.462500	0.133200
O521	O52	0.487200	0.588400	0.770900
O531	O53	0.356560	0.680800	0.789300
O541	O54	0.331510	0.601200	0.671400
O551	O55	0.307030	0.742200	0.580200
O561	O56	0.368100	0.815900	0.498500
