data_NOQKUB_clean_PM
_symmetry_space_group_name_H-M	'P1'
_cell_length_a	11.471200
_cell_length_b	11.614700
_cell_length_c	19.878100
_cell_angle_alpha	81.156000
_cell_angle_beta	74.921000
_cell_angle_gamma	65.987000
_symmetry_Int_Tables_number 1

loop_
_symmetry_equiv_pos_as_xyz
'x,y,z'

loop_
_atom_site_label
_atom_site_type_symbol
_atom_site_fract_x
_atom_site_fract_y
_atom_site_fract_z
N11	N1	0.322100	0.648700	0.012900
N21	N2	0.145700	0.826100	0.012600
N31	N3	0.454700	0.426000	0.106900
N41	N4	0.100500	0.017700	0.891100
N51	N5	0.025100	0.523400	0.100500
O11	O1	0.392100	0.419500	0.968900
O21	O2	0.195000	0.454800	0.955000
O31	O3	0.952000	0.687000	0.967400
O41	O4	0.923600	0.885500	0.971900
C11	C1	0.272400	0.490000	0.971400
C21	C2	0.231800	0.621500	0.992100
C31	C3	0.121600	0.731600	0.992600
C41	C4	0.265600	0.770900	0.024900
H11	H1	0.306800	0.814600	0.040700
C51	C5	0.990700	0.768200	0.975900
C61	C6	0.424600	0.493800	0.159400
H21	H2	0.410900	0.580500	0.150200
C71	C7	0.411200	0.447800	0.227900
H31	H3	0.388100	0.502800	0.264100
C81	C8	0.431200	0.322200	0.244000
C91	C9	0.462000	0.250300	0.186800
H41	H4	0.475600	0.163500	0.194100
C101	C10	0.472700	0.304400	0.120200
H51	H5	0.493700	0.253500	0.082300
C111	C11	0.415100	0.268800	0.316800
C121	C12	0.427300	0.325900	0.368100
H61	H6	0.448700	0.398500	0.356500
C131	C13	0.408500	0.278700	0.438100
H71	H7	0.419400	0.318700	0.473000
C141	C14	0.374500	0.174400	0.456800
C151	C15	0.365400	0.118500	0.404500
H81	H8	0.346100	0.044800	0.415100
C161	C16	0.383700	0.166200	0.335500
H91	H9	0.373900	0.125500	0.300600
C171	C17	0.343300	0.133600	0.532000
C181	C18	0.377300	0.175000	0.583800
H101	H10	0.427500	0.225900	0.570300
C191	C19	0.340700	0.144700	0.653500
H111	H11	0.365500	0.174700	0.687200
C201	C20	0.267000	0.069900	0.674800
C211	C21	0.239100	0.025800	0.623700
H121	H12	0.192500	0.971500	0.637100
C221	C22	0.275300	0.056000	0.553300
H131	H13	0.253100	0.023000	0.519800
C231	C23	0.213500	0.047200	0.749200
C241	C24	0.274000	0.044200	0.802700
H141	H14	0.355100	0.054200	0.791300
C251	C25	0.216800	0.026800	0.871900
H151	H15	0.262100	0.021200	0.906800
C261	C26	0.090300	0.040000	0.772100
H161	H16	0.041500	0.045100	0.738900
C271	C27	0.039400	0.025500	0.842200
H171	H17	0.955600	0.020800	0.855900
C281	C28	0.115600	0.432000	0.129400
H181	H18	0.180800	0.366900	0.101000
C291	C29	0.120300	0.426300	0.197900
H191	H19	0.185700	0.356900	0.216000
C301	C30	0.030500	0.521000	0.241000
C311	C31	0.938900	0.619800	0.208600
H201	H20	0.875700	0.689300	0.234600
C321	C32	0.940200	0.616400	0.140100
H211	H21	0.876700	0.684500	0.119900
C331	C33	0.027200	0.517300	0.316100
C341	C34	0.063900	0.400900	0.354300
H221	H22	0.096700	0.325000	0.330800
C351	C35	0.053100	0.394800	0.425300
H231	H23	0.077600	0.314800	0.450000
C361	C36	0.007200	0.503600	0.461300
C371	C37	0.984100	0.610700	0.423100
H241	H24	0.958600	0.686600	0.445400
C381	C38	0.995600	0.616600	0.351500
H251	H25	0.979800	0.696400	0.326800
N61	N6	0.677900	0.351300	0.987100
N71	N7	0.854300	0.173900	0.987400
N81	N8	0.545300	0.574000	0.893100
N91	N9	0.899500	0.982300	0.108900
N101	N10	0.974900	0.476600	0.899500
O51	O5	0.607900	0.580500	0.031100
O61	O6	0.805000	0.545200	0.045000
O71	O7	0.048000	0.313000	0.032600
O81	O8	0.076400	0.114500	0.028100
C391	C39	0.727600	0.510000	0.028600
C401	C40	0.768200	0.378500	0.007900
C411	C41	0.878400	0.268400	0.007400
C421	C42	0.734400	0.229100	0.975100
H261	H26	0.693200	0.185400	0.959300
C431	C43	0.009300	0.231800	0.024100
C441	C44	0.575400	0.506200	0.840600
H271	H27	0.589100	0.419500	0.849800
C451	C45	0.588800	0.552200	0.772100
H281	H28	0.611900	0.497200	0.735900
C461	C46	0.568800	0.677800	0.756000
C471	C47	0.538000	0.749700	0.813200
H291	H29	0.524400	0.836500	0.805900
C481	C48	0.527300	0.695600	0.879800
H301	H30	0.506300	0.746500	0.917700
C491	C49	0.584900	0.731200	0.683200
C501	C50	0.572700	0.674100	0.631900
H311	H31	0.551300	0.601500	0.643500
C511	C51	0.591500	0.721300	0.561900
H321	H32	0.580600	0.681300	0.527000
C521	C52	0.625500	0.825600	0.543200
C531	C53	0.634600	0.881500	0.595500
H331	H33	0.653900	0.955200	0.584900
C541	C54	0.616300	0.833800	0.664500
H341	H34	0.626100	0.874500	0.699400
C551	C55	0.656700	0.866400	0.468000
C561	C56	0.622700	0.825000	0.416200
H351	H35	0.572500	0.774100	0.429700
C571	C57	0.659300	0.855300	0.346500
H361	H36	0.634500	0.825300	0.312800
C581	C58	0.733000	0.930100	0.325200
C591	C59	0.760900	0.974200	0.376300
H371	H37	0.807500	0.028500	0.362900
C601	C60	0.724700	0.944000	0.446700
H381	H38	0.746900	0.977000	0.480200
C611	C61	0.786500	0.952800	0.250800
C621	C62	0.726000	0.955800	0.197300
H391	H39	0.644900	0.945800	0.208700
C631	C63	0.783200	0.973200	0.128100
H401	H40	0.737900	0.978800	0.093200
C641	C64	0.909700	0.960000	0.227900
H411	H41	0.958500	0.954900	0.261100
C651	C65	0.960600	0.974500	0.157800
H421	H42	0.044400	0.979200	0.144100
C661	C66	0.884400	0.568000	0.870600
H431	H43	0.819200	0.633100	0.899000
C671	C67	0.879700	0.573700	0.802100
H441	H44	0.814300	0.643100	0.784000
C681	C68	0.969500	0.479000	0.759000
C691	C69	0.061100	0.380200	0.791400
H451	H45	0.124300	0.310700	0.765400
C701	C70	0.059800	0.383600	0.859900
H461	H46	0.123300	0.315500	0.880100
C711	C71	0.972800	0.482700	0.683900
C721	C72	0.936100	0.599100	0.645700
H471	H47	0.903300	0.675000	0.669200
C731	C73	0.946900	0.605200	0.574700
H481	H48	0.922400	0.685200	0.550000
C741	C74	0.992800	0.496400	0.538700
C751	C75	0.015900	0.389300	0.576900
H491	H49	0.041400	0.313400	0.554600
C761	C76	0.004400	0.383400	0.648500
H501	H50	0.020200	0.303600	0.673200
Co11	Co1	0.500000	0.500000	0.000000
Co21	Co2	0.000000	0.500000	0.000000
Co31	Co3	0.000000	0.000000	0.000000
