data_NOQLOV_charged_PM
_symmetry_space_group_name_H-M	'P1'
_cell_length_a	8.661800
_cell_length_b	9.031100
_cell_length_c	16.172800
_cell_angle_alpha	82.621700
_cell_angle_beta	74.467200
_cell_angle_gamma	61.343700
_symmetry_Int_Tables_number 1

loop_
_symmetry_equiv_pos_as_xyz
'x,y,z'

loop_
_atom_site_label
_atom_site_type_symbol
_atom_site_fract_x
_atom_site_fract_y
_atom_site_fract_z
In11	In1	0.968340	0.027380	0.370630
In21	In2	0.366350	0.972610	0.629380
In31	In3	0.088960	0.527390	0.129370
In41	In4	0.745720	0.472620	0.870620
C11	C1	0.202830	0.933200	0.497740
C21	C2	0.101220	0.124000	0.508960
C31	C3	0.127090	0.225600	0.248820
C41	C4	0.922850	0.348000	0.267100
C51	C5	0.633770	0.066800	0.502260
C61	C6	0.734180	0.876000	0.491040
C71	C7	0.601510	0.774400	0.751180
C81	C8	0.537950	0.652000	0.732900
C91	C9	0.450570	0.433200	0.002260
C101	C10	0.360180	0.624000	0.991040
C111	C11	0.125910	0.725600	0.251180
C121	C12	0.939950	0.848000	0.232900
C131	C13	0.886030	0.566800	0.997740
C141	C14	0.975220	0.376000	0.008960
C151	C15	0.102690	0.274400	0.748820
C161	C16	0.020850	0.152000	0.767100
O11	O1	0.174830	0.871020	0.442720
O21	O2	0.991960	0.203300	0.462780
O31	O3	0.175100	0.083040	0.283560
O41	O4	0.821230	0.298400	0.316540
O51	O5	0.310710	0.846160	0.544620
O61	O6	0.139510	0.180500	0.562880
O71	O7	0.230690	0.276760	0.201460
O81	O8	0.877180	0.490600	0.230040
O91	O9	0.488570	0.128980	0.557280
O101	O10	0.658040	0.796700	0.537220
O111	O11	0.541700	0.916960	0.716440
O121	O12	0.436170	0.701600	0.683460
O131	O13	0.701490	0.153840	0.455380
O141	O14	0.882890	0.819500	0.437120
O151	O15	0.708910	0.723240	0.798540
O161	O16	0.597820	0.509400	0.769960
O171	O17	0.367550	0.371020	0.057280
O181	O18	0.204740	0.703300	0.037220
O191	O19	0.208660	0.583040	0.216440
O201	O20	0.887770	0.798400	0.183460
O211	O21	0.605330	0.346160	0.955380
O221	O22	0.452390	0.680500	0.937120
O231	O23	0.182150	0.776760	0.298540
O241	O24	0.857220	0.990600	0.269960
O251	O25	0.795850	0.628980	0.942720
O261	O26	0.945260	0.296700	0.962780
O271	O27	0.008140	0.416960	0.783560
O281	O28	0.869630	0.201600	0.816540
O291	O29	0.906870	0.653840	0.044620
O301	O30	0.070010	0.319500	0.062880
O311	O31	0.257450	0.223240	0.701460
O321	O32	0.117780	0.009400	0.730040
H11	H1	0.326400	0.337400	0.464800
H21	H2	0.175200	0.488800	0.427200
H31	H3	0.382700	0.607000	0.417400
H41	H4	0.404400	0.506800	0.347600
H51	H5	0.516400	0.430000	0.409200
H61	H6	0.128600	0.662600	0.535200
H71	H7	0.091200	0.511200	0.572800
H81	H8	0.407100	0.393000	0.582600
H91	H9	0.258800	0.493200	0.652400
H101	H10	0.355600	0.570000	0.590800
C171	C17	0.269800	0.458800	0.457000
C181	C18	0.185600	0.541200	0.543000
N11	N1	0.406930	0.505400	0.402340
N21	N2	0.314670	0.494600	0.597660
H111	H11	0.541200	0.837400	0.035200
H121	H12	0.352400	0.988800	0.072800
H131	H13	0.550100	0.107000	0.082600
H141	H14	0.502000	0.006800	0.152400
H151	H15	0.675600	0.930000	0.090800
H161	H16	0.413800	0.162600	0.964800
H171	H17	0.414000	0.011200	0.927200
H181	H18	0.739700	0.893000	0.917400
H191	H19	0.661200	0.993200	0.847600
H201	H20	0.696400	0.070000	0.909200
C191	C19	0.476800	0.958800	0.043000
C201	C20	0.478600	0.041200	0.957000
N31	N3	0.559270	0.005400	0.097660
N41	N4	0.662330	0.994600	0.902340
