data_NORJEL_clean_PM
_symmetry_space_group_name_H-M	'P1'
_cell_length_a	14.605000
_cell_length_b	14.931000
_cell_length_c	16.946000
_cell_angle_alpha	112.160000
_cell_angle_beta	103.198000
_cell_angle_gamma	100.390000
_symmetry_Int_Tables_number 1

loop_
_symmetry_equiv_pos_as_xyz
'x,y,z'

loop_
_atom_site_label
_atom_site_type_symbol
_atom_site_fract_x
_atom_site_fract_y
_atom_site_fract_z
Cd11	Cd1	0.360240	0.441220	0.594630
Cd21	Cd2	0.639760	0.558780	0.405370
Cd31	Cd3	0.072680	0.126230	0.134010
Cd41	Cd4	0.927320	0.873770	0.865990
H11	H1	0.119600	0.466200	0.117400
H21	H2	0.874400	0.124800	0.345900
H31	H3	0.151200	0.342500	0.158000
H41	H4	0.733300	0.011300	0.653400
H51	H5	0.691200	0.314800	0.892200
H61	H6	0.128200	0.064500	0.430000
H71	H7	0.910100	0.435900	0.942300
H81	H8	0.520300	0.865200	0.180600
H91	H9	0.914200	0.768000	0.342200
H101	H10	0.276000	0.223600	0.050500
H111	H11	0.908300	0.146000	0.977600
H121	H12	0.510600	0.006300	0.428600
H131	H13	0.870200	0.264500	0.931900
H141	H14	0.583400	0.721000	0.144200
H151	H15	0.724000	0.776400	0.949500
H161	H16	0.418100	0.962300	0.214000
H171	H17	0.471600	0.140000	0.399400
H181	H18	0.490700	0.526100	0.850800
H191	H19	0.357700	0.173400	0.724600
H201	H20	0.479700	0.134800	0.819400
H211	H21	0.231800	0.617600	0.505200
H221	H22	0.528400	0.860000	0.600600
H231	H23	0.699800	0.955400	0.417900
H241	H24	0.122900	0.938700	0.809100
H251	H25	0.209900	0.463200	0.883100
H261	H26	0.990200	0.057400	0.579900
H271	H27	0.245400	0.203700	0.452700
H281	H28	0.800200	0.632000	0.328600
H291	H29	0.815300	0.105400	0.452500
H301	H30	0.848800	0.657500	0.842000
H311	H31	0.653600	0.552800	0.848600
H321	H32	0.183100	0.764600	0.427800
H331	H33	0.496300	0.834900	0.352600
H341	H34	0.719800	0.312500	0.154800
H351	H35	0.720300	0.055600	0.896900
H361	H36	0.271200	0.822100	0.410800
H371	H37	0.308800	0.685200	0.107800
H381	H38	0.898000	0.495800	0.212800
H391	H39	0.503700	0.165100	0.647400
H401	H40	0.509300	0.473900	0.149200
H411	H41	0.266700	0.988700	0.346600
H421	H42	0.323600	0.433600	0.286000
H431	H43	0.441200	0.292600	0.443700
H441	H44	0.091700	0.854000	0.022400
H451	H45	0.768200	0.382400	0.494800
H461	H46	0.676400	0.566400	0.714000
H471	H47	0.880400	0.533800	0.882600
H481	H48	0.642300	0.826600	0.275400
H491	H49	0.160300	0.311400	0.889500
H501	H50	0.051000	0.601000	0.298500
H511	H51	0.102000	0.504200	0.787200
H521	H52	0.877100	0.061300	0.190900
H531	H53	0.816900	0.235400	0.572200
H541	H54	0.129800	0.735500	0.068100
H551	H55	0.300200	0.044600	0.582100
H561	H56	0.558800	0.707400	0.556300
H571	H57	0.949000	0.399000	0.701500
H581	H58	0.243700	0.826900	0.957600
H591	H59	0.348100	0.533200	0.064400
H601	H60	0.346400	0.447200	0.151400
H611	H61	0.280200	0.687500	0.845200
H621	H62	0.089900	0.564100	0.057700
H631	H63	0.489400	0.993700	0.571400
H641	H64	0.416600	0.279000	0.855800
H651	H65	0.790100	0.536800	0.116900
H661	H66	0.651900	0.466800	0.935600
H671	H67	0.279700	0.944400	0.103100
H681	H68	0.378100	0.333200	0.934600
H691	H69	0.471800	0.319000	0.685300
H701	H70	0.754600	0.796300	0.547300
H711	H71	0.125600	0.875200	0.654100
H721	H72	0.621900	0.666800	0.065400
H731	H73	0.581900	0.037700	0.786000
H741	H74	0.736400	0.252300	0.766300
H751	H75	0.966500	0.850600	0.160600
H761	H76	0.728800	0.177900	0.589200
H771	H77	0.528200	0.681000	0.314700
H781	H78	0.871800	0.935500	0.570000
H791	H79	0.184700	0.894600	0.547500
H801	H80	0.199800	0.368000	0.671400
H811	H81	0.263600	0.747700	0.233700
H821	H82	0.009800	0.942600	0.420100
H831	H83	0.839700	0.688600	0.110500
H841	H84	0.756300	0.173100	0.042400
H851	H85	0.085800	0.232000	0.657800
H861	H86	0.033500	0.149400	0.839400
C11	C1	0.898100	0.100720	0.752150
C21	C2	0.304900	0.492590	0.302310
C31	C3	0.719420	0.472150	0.620450
C41	C4	0.827000	0.064900	0.330700
C51	C5	0.983200	0.954100	0.466700
C61	C6	0.207400	0.946600	0.605700
C71	C7	0.990100	0.380000	0.738900
C81	C8	0.687500	0.886600	0.287600
C91	C9	0.471600	0.635700	0.936800
C101	C10	0.091500	0.131500	0.541700
C111	C11	0.141900	0.125400	0.480270
C121	C12	0.045300	0.714790	0.259800
C131	C13	0.882600	0.671600	0.148400
C141	C14	0.167900	0.874160	0.306640
C151	C15	0.093600	0.326700	0.111900
C161	C16	0.048600	0.788620	0.993730
C171	C17	0.510300	0.810900	0.395900
C181	C18	0.832100	0.125840	0.693360
C191	C19	0.720900	0.313000	0.782210
C201	C20	0.859700	0.216370	0.686650
C211	C21	0.464500	0.855390	0.135180
C221	C22	0.277300	0.036700	0.626700
C231	C23	0.281000	0.103200	0.783390
C241	C24	0.147300	0.418800	0.848000
C251	C25	0.306400	0.649600	0.142300
C261	C26	0.249000	0.616900	0.402780
C271	C27	0.846100	0.943850	0.022360
C281	C28	0.470900	0.173900	0.457900
C291	C29	0.280580	0.527850	0.379550
C301	C30	0.529100	0.826100	0.542100
C311	C31	0.866300	0.005280	0.762970
C321	C32	0.169900	0.999000	0.824920
C331	C33	0.201040	0.073040	0.911820
C341	C34	0.830100	0.001000	0.175080
C351	C35	0.133700	0.994720	0.237030
C361	C36	0.016800	0.045900	0.533300
C371	C37	0.598600	0.724230	0.092310
C381	C38	0.489700	0.189100	0.604100
C391	C39	0.883700	0.775800	0.385800
C401	C40	0.302360	0.543640	0.246680
C411	C41	0.556000	0.220980	0.954190
C421	C42	0.212300	0.764600	0.381760
C431	C43	0.918100	0.556800	0.209800
C441	C44	0.990200	0.166620	0.801990
C451	C45	0.081900	0.443200	0.790200
C461	C46	0.009900	0.620000	0.261100
C471	C47	0.611600	0.373240	0.131810
C481	C48	0.452600	0.266000	0.485400
C491	C49	0.117400	0.328400	0.851600
C501	C50	0.298500	0.832800	0.002100
C511	C51	0.970500	0.454460	0.986140
C521	C52	0.719000	0.896800	0.216610
C531	C53	0.401400	0.275770	0.907690
C541	C54	0.529600	0.717950	0.373300
C551	C55	0.793100	0.988300	0.240710
C561	C56	0.954700	0.285210	0.740200
C571	C57	0.751000	0.383100	0.597220
C581	C58	0.707960	0.524230	0.559940
C591	C59	0.009800	0.833380	0.198010
C601	C60	0.755600	0.331090	0.649920
C611	C61	0.153900	0.056150	0.977640
C621	C62	0.275090	0.164500	0.935720
C631	C63	0.511700	0.867700	0.482800
C641	C64	0.363700	0.552600	0.771500
C651	C65	0.787700	0.235400	0.618240
C661	C66	0.906400	0.673300	0.888100
C671	C67	0.722700	0.963300	0.373300
C681	C68	0.488300	0.132300	0.517200
C691	C69	0.813800	0.694100	0.377400
C701	C70	0.496600	0.286680	0.976050
C711	C71	0.292040	0.475770	0.440060
C721	C72	0.858100	0.874600	0.519730
C731	C73	0.535500	0.144610	0.864820
C741	C74	0.724910	0.835500	0.064280
C751	C75	0.274110	0.634270	0.272290
C761	C76	0.679800	0.096400	0.911400
C771	C77	0.528400	0.364300	0.063200
C781	C78	0.798960	0.926960	0.088180
C791	C79	0.991400	0.379730	0.017980
C801	C80	0.693600	0.350400	0.857700
C811	C81	0.329400	0.507100	0.168160
C821	C82	0.116300	0.224200	0.614200
C831	C83	0.500400	0.029100	0.484200
C841	C84	0.071500	0.717700	0.021870
C851	C85	0.279100	0.687000	0.217790
C861	C86	0.503400	0.713320	0.023950
C871	C87	0.334100	0.692600	0.889970
C881	C88	0.924600	0.598600	0.912700
C891	C89	0.330900	0.558400	0.116400
C901	C90	0.186200	0.305900	0.622600
C911	C91	0.075400	0.401400	0.087300
C921	C92	0.977900	0.739600	0.201300
C931	C93	0.596400	0.085800	0.844900
C941	C94	0.403600	0.914200	0.155100
C951	C95	0.787900	0.790170	0.505740
C961	C96	0.444000	0.779020	0.045810
C971	C97	0.642000	0.231950	0.021070
C981	C98	0.244400	0.668910	0.350080
C991	C99	0.008600	0.620270	0.982020
C1001	C100	0.547400	0.734000	0.514600
C1011	C101	0.101900	0.899280	0.247850
C1021	C102	0.928500	0.282300	0.978130
C1031	C103	0.665900	0.307400	0.110030
C1041	C104	0.022100	0.260400	0.798700
C1051	C105	0.206900	0.011700	0.759290
C1061	C106	0.173000	0.935100	0.669300
C1071	C107	0.951400	0.211380	0.006270
C1081	C108	0.908500	0.868500	0.458300
C1091	C109	0.697640	0.456360	0.753320
C1101	C110	0.701500	0.167200	0.997900
C1111	C111	0.695100	0.507410	0.697690
C1121	C112	0.318600	0.179370	0.875090
C1131	C113	0.320200	0.903600	0.088600
C1141	C114	0.852700	0.581200	0.152000
C1151	C115	0.792600	0.053400	0.394300
C1161	C116	0.470400	0.282050	0.626700
C1171	C117	0.312500	0.113400	0.712400
C1181	C118	0.670600	0.492900	0.831840
C1191	C119	0.029500	0.545540	0.013860
C1201	C120	0.636300	0.447400	0.228500
C1211	C121	0.140300	0.783630	0.313350
C1221	C122	0.212100	0.209830	0.494260
C1231	C123	0.499600	0.970900	0.515800
C1241	C124	0.725890	0.365730	0.727710
C1251	C125	0.669100	0.441600	0.883600
C1261	C126	0.358000	0.768050	0.978930
C1271	C127	0.388400	0.626760	0.868190
C1281	C128	0.681400	0.820630	0.124910
N11	N1	0.235100	0.300460	0.564510
N21	N2	0.032790	0.232900	0.072860
N31	N3	0.550160	0.680030	0.432810
N41	N4	0.764900	0.699540	0.435490
N51	N5	0.449840	0.319970	0.567190
N61	N6	0.967210	0.767100	0.927140
O11	O1	0.325770	0.401110	0.420480
O21	O2	0.814850	0.873270	0.942760
O31	O3	0.088850	0.975790	0.953610
O41	O4	0.417600	0.494230	0.752260
O51	O5	0.295800	0.550640	0.711020
O61	O6	0.259430	0.939310	0.357490
O71	O7	0.729730	0.489380	0.488190
O81	O8	0.478340	0.433690	0.081490
O91	O9	0.740570	0.060690	0.642510
O101	O10	0.223220	0.652750	0.478460
O111	O11	0.582400	0.505770	0.247740
O121	O12	0.781620	0.944370	0.714490
O131	O13	0.674230	0.598890	0.579520
O141	O14	0.185150	0.126730	0.057240
O151	O15	0.776780	0.347250	0.521540
O161	O16	0.704200	0.449360	0.288980
O171	O17	0.305240	0.240650	0.020080
O181	O18	0.694760	0.759350	0.979920
O191	O19	0.270270	0.510620	0.511810
O201	O20	0.521660	0.566310	0.918510
O211	O21	0.073030	0.006510	0.179160
O221	O22	0.218380	0.055630	0.285510
O231	O23	0.911150	0.024210	0.046390
O241	O24	0.926970	0.993490	0.820840
