data_NOSHIO_clean_PM
_symmetry_space_group_name_H-M	'P1'
_cell_length_a	15.052000
_cell_length_b	8.147000
_cell_length_c	16.164000
_cell_angle_alpha	90.000000
_cell_angle_beta	102.843000
_cell_angle_gamma	90.000000
_symmetry_Int_Tables_number 1

loop_
_symmetry_equiv_pos_as_xyz
'x,y,z'

loop_
_atom_site_label
_atom_site_type_symbol
_atom_site_fract_x
_atom_site_fract_y
_atom_site_fract_z
U11	U1	0.203980	0.131980	0.258070
P11	P1	0.984130	0.985000	0.299260
P21	P2	0.441470	0.995600	0.297440
F11	F1	0.253400	0.870700	0.298800
O11	O1	0.080000	0.987400	0.284900
O21	O2	0.932800	0.145900	0.260200
O31	O3	0.926300	0.839100	0.264800
O41	O4	0.867500	0.800300	0.406000
H11	H1	0.873500	0.793100	0.355700
O51	O5	0.364900	0.116700	0.266700
O61	O6	0.528800	0.049500	0.267000
O71	O7	0.424200	0.820000	0.268700
O81	O8	0.454000	0.297300	0.418000
H21	H2	0.424500	0.284900	0.367800
C11	C1	0.990900	0.993500	0.411500
C21	C2	0.933600	0.903300	0.451100
C31	C3	0.057600	0.088400	0.462700
H31	H3	0.098400	0.149400	0.437400
C41	C4	0.471000	0.000000	0.412400
C51	C5	0.475600	0.146000	0.454900
C61	C6	0.494800	0.853600	0.456500
H41	H4	0.491000	0.753000	0.426300
U21	U2	0.296020	0.631980	0.241930
P31	P3	0.515870	0.485000	0.200740
P41	P4	0.058530	0.495600	0.202560
F21	F2	0.246600	0.370700	0.201200
O91	O9	0.420000	0.487400	0.215100
O101	O10	0.567200	0.645900	0.239800
O111	O11	0.573700	0.339100	0.235200
O121	O12	0.632500	0.300300	0.094000
H51	H5	0.626500	0.293100	0.144300
O131	O13	0.135100	0.616700	0.233300
O141	O14	0.971200	0.549500	0.233000
O151	O15	0.075800	0.320000	0.231300
O161	O16	0.046000	0.797300	0.082000
H61	H6	0.075500	0.784900	0.132200
C71	C7	0.509100	0.493500	0.088500
C81	C8	0.566400	0.403300	0.048900
C91	C9	0.442400	0.588400	0.037300
H71	H7	0.401600	0.649400	0.062600
C101	C10	0.029000	0.500000	0.087600
C111	C11	0.024400	0.646000	0.045100
C121	C12	0.005200	0.353600	0.043500
H81	H8	0.009000	0.253000	0.073700
U31	U3	0.796020	0.868020	0.741930
P51	P5	0.015870	0.015000	0.700740
P61	P6	0.558530	0.004400	0.702560
F31	F3	0.746600	0.129300	0.701200
O171	O17	0.920000	0.012600	0.715100
O181	O18	0.067200	0.854100	0.739800
O191	O19	0.073700	0.160900	0.735200
O201	O20	0.132500	0.199700	0.594000
H91	H9	0.126500	0.206900	0.644300
O211	O21	0.635100	0.883300	0.733300
O221	O22	0.471200	0.950500	0.733000
O231	O23	0.575800	0.180000	0.731300
O241	O24	0.546000	0.702700	0.582000
H101	H10	0.575500	0.715100	0.632200
C131	C13	0.009100	0.006500	0.588500
C141	C14	0.066400	0.096700	0.548900
C151	C15	0.942400	0.911600	0.537300
H111	H11	0.901600	0.850600	0.562600
C161	C16	0.529000	0.000000	0.587600
C171	C17	0.524400	0.854000	0.545100
C181	C18	0.505200	0.146400	0.543500
H121	H12	0.509000	0.247000	0.573700
U41	U4	0.703980	0.368020	0.758070
P71	P7	0.484130	0.515000	0.799260
P81	P8	0.941470	0.504400	0.797440
F41	F4	0.753400	0.629300	0.798800
O251	O25	0.580000	0.512600	0.784900
O261	O26	0.432800	0.354100	0.760200
O271	O27	0.426300	0.660900	0.764800
O281	O28	0.367500	0.699700	0.906000
H131	H13	0.373500	0.706900	0.855700
O291	O29	0.864900	0.383300	0.766700
O301	O30	0.028800	0.450500	0.767000
O311	O31	0.924200	0.680000	0.768700
O321	O32	0.954000	0.202700	0.918000
H141	H14	0.924500	0.215100	0.867800
C191	C19	0.490900	0.506500	0.911500
C201	C20	0.433600	0.596700	0.951100
C211	C21	0.557600	0.411600	0.962700
H151	H15	0.598400	0.350600	0.937400
C221	C22	0.971000	0.500000	0.912400
C231	C23	0.975600	0.354000	0.954900
C241	C24	0.994800	0.646400	0.956500
H161	H16	0.991000	0.747000	0.926300
