data_NOSHEK_clean_PM
_symmetry_space_group_name_H-M	'P1'
_cell_length_a	15.958400
_cell_length_b	8.237600
_cell_length_c	16.255400
_cell_angle_alpha	90.000000
_cell_angle_beta	105.368000
_cell_angle_gamma	90.000000
_symmetry_Int_Tables_number 1

loop_
_symmetry_equiv_pos_as_xyz
'x,y,z'

loop_
_atom_site_label
_atom_site_type_symbol
_atom_site_fract_x
_atom_site_fract_y
_atom_site_fract_z
U11	U1	0.707520	0.122660	0.258690
P11	P1	0.932450	0.983100	0.296390
P21	P2	0.503450	0.974350	0.303730
F11	F1	0.754710	0.859500	0.298130
O11	O1	0.858580	0.099900	0.263590
O21	O2	0.013500	0.035100	0.265530
O31	O3	0.915800	0.807100	0.269890
O41	O4	0.965180	0.289400	0.411380
H11	H1	0.933200	0.275100	0.361800
O51	O5	0.595880	0.982800	0.298470
O61	O6	0.454340	0.131500	0.260400
O71	O7	0.450470	0.827800	0.266120
O81	O8	0.382250	0.793000	0.396160
H21	H2	0.391800	0.784700	0.347900
C11	C1	0.966640	0.993400	0.410860
C21	C2	0.980000	0.143500	0.453100
C31	C3	0.986700	0.851400	0.458800
H31	H3	0.977400	0.749300	0.430700
C41	C4	0.501340	0.984000	0.414150
C51	C5	0.441600	0.896000	0.445800
C61	C6	0.559200	0.087200	0.469500
H41	H4	0.600100	0.147400	0.448700
U21	U2	0.792480	0.622660	0.241310
P31	P3	0.567550	0.483100	0.203610
P41	P4	0.996550	0.474350	0.196270
F21	F2	0.745290	0.359500	0.201870
O91	O9	0.641420	0.599900	0.236410
O101	O10	0.486500	0.535100	0.234470
O111	O11	0.584200	0.307100	0.230110
O121	O12	0.534820	0.789400	0.088620
H51	H5	0.566800	0.775100	0.138200
O131	O13	0.904120	0.482800	0.201530
O141	O14	0.045660	0.631500	0.239600
O151	O15	0.049530	0.327800	0.233880
O161	O16	0.117750	0.293000	0.103840
H61	H6	0.108200	0.284700	0.152100
C71	C7	0.533360	0.493400	0.089140
C81	C8	0.520000	0.643500	0.046900
C91	C9	0.513300	0.351400	0.041200
H71	H7	0.522600	0.249300	0.069300
C101	C10	0.998660	0.484000	0.085850
C111	C11	0.058400	0.396000	0.054200
C121	C12	0.940800	0.587200	0.030500
H81	H8	0.899900	0.647400	0.051300
U31	U3	0.292480	0.877340	0.741310
P51	P5	0.067550	0.016900	0.703610
P61	P6	0.496550	0.025650	0.696270
F31	F3	0.245290	0.140500	0.701870
O171	O17	0.141420	0.900100	0.736410
O181	O18	0.986500	0.964900	0.734470
O191	O19	0.084200	0.192900	0.730110
O201	O20	0.034820	0.710600	0.588620
H91	H9	0.066800	0.724900	0.638200
O211	O21	0.404120	0.017200	0.701530
O221	O22	0.545660	0.868500	0.739600
O231	O23	0.549530	0.172200	0.733880
O241	O24	0.617750	0.207000	0.603840
H101	H10	0.608200	0.215300	0.652100
C131	C13	0.033360	0.006600	0.589140
C141	C14	0.020000	0.856500	0.546900
C151	C15	0.013300	0.148600	0.541200
H111	H11	0.022600	0.250700	0.569300
C161	C16	0.498660	0.016000	0.585850
C171	C17	0.558400	0.104000	0.554200
C181	C18	0.440800	0.912800	0.530500
H121	H12	0.399900	0.852600	0.551300
U41	U4	0.207520	0.377340	0.758690
P71	P7	0.432450	0.516900	0.796390
P81	P8	0.003450	0.525650	0.803730
F41	F4	0.254710	0.640500	0.798130
O251	O25	0.358580	0.400100	0.763590
O261	O26	0.513500	0.464900	0.765530
O271	O27	0.415800	0.692900	0.769890
O281	O28	0.465180	0.210600	0.911380
H131	H13	0.433200	0.224900	0.861800
O291	O29	0.095880	0.517200	0.798470
O301	O30	0.954340	0.368500	0.760400
O311	O31	0.950470	0.672200	0.766120
O321	O32	0.882250	0.707000	0.896160
H141	H14	0.891800	0.715300	0.847900
C191	C19	0.466640	0.506600	0.910860
C201	C20	0.480000	0.356500	0.953100
C211	C21	0.486700	0.648600	0.958800
H151	H15	0.477400	0.750700	0.930700
C221	C22	0.001340	0.516000	0.914150
C231	C23	0.941600	0.604000	0.945800
C241	C24	0.059200	0.412800	0.969500
H161	H16	0.100100	0.352600	0.948700
