data_NUBBAP_clean_PM
_symmetry_space_group_name_H-M	'P1'
_cell_length_a	20.442100
_cell_length_b	20.442100
_cell_length_c	20.442100
_cell_angle_alpha	90.000000
_cell_angle_beta	90.000000
_cell_angle_gamma	90.000000
_symmetry_Int_Tables_number 1

loop_
_symmetry_equiv_pos_as_xyz
'x,y,z'

loop_
_atom_site_label
_atom_site_type_symbol
_atom_site_fract_x
_atom_site_fract_y
_atom_site_fract_z
Zn11	Zn1	0.000000	0.000000	0.427640
Zn21	Zn2	0.000000	0.000000	0.572360
Zn31	Zn3	0.427640	0.000000	0.000000
Zn41	Zn4	0.572360	0.000000	0.000000
Zn51	Zn5	0.000000	0.427640	0.000000
Zn61	Zn6	0.000000	0.572360	0.000000
Zn71	Zn7	0.337030	0.337030	0.337030
Zn81	Zn8	0.237690	0.237690	0.237690
Zn91	Zn9	0.662970	0.662970	0.337030
Zn101	Zn10	0.762310	0.762310	0.237690
Zn111	Zn11	0.662970	0.337030	0.662970
Zn121	Zn12	0.762310	0.237690	0.762310
Zn131	Zn13	0.337030	0.662970	0.662970
Zn141	Zn14	0.237690	0.762310	0.762310
Zn151	Zn15	0.337030	0.337030	0.662970
Zn161	Zn16	0.237690	0.237690	0.762310
Zn171	Zn17	0.662970	0.662970	0.662970
Zn181	Zn18	0.762310	0.762310	0.762310
Zn191	Zn19	0.337030	0.662970	0.337030
Zn201	Zn20	0.237690	0.762310	0.237690
Zn211	Zn21	0.662970	0.337030	0.337030
Zn221	Zn22	0.762310	0.237690	0.237690
O11	O1	0.281900	0.281900	0.387000
O21	O2	0.217000	0.217000	0.327900
O31	O3	0.068810	0.068810	0.444500
C11	C1	0.211600	0.211600	0.441400
C21	C2	0.239000	0.239000	0.379800
C31	C3	0.164300	0.164300	0.441600
H11	H1	0.148300	0.148300	0.402200
O41	O4	0.718100	0.718100	0.387000
O51	O5	0.783000	0.783000	0.327900
O61	O6	0.931190	0.931190	0.444500
C41	C4	0.788400	0.788400	0.441400
C51	C5	0.761000	0.761000	0.379800
C61	C6	0.835700	0.835700	0.441600
H21	H2	0.851700	0.851700	0.402200
O71	O7	0.718100	0.281900	0.613000
O81	O8	0.783000	0.217000	0.672100
O91	O9	0.931190	0.068810	0.555500
C71	C7	0.788400	0.211600	0.558600
C81	C8	0.761000	0.239000	0.620200
C91	C9	0.835700	0.164300	0.558400
H31	H3	0.851700	0.148300	0.597800
O101	O10	0.281900	0.718100	0.613000
O111	O11	0.217000	0.783000	0.672100
O121	O12	0.068810	0.931190	0.555500
C101	C10	0.211600	0.788400	0.558600
C111	C11	0.239000	0.761000	0.620200
C121	C12	0.164300	0.835700	0.558400
H41	H4	0.148300	0.851700	0.597800
O131	O13	0.387000	0.281900	0.281900
O141	O14	0.327900	0.217000	0.217000
O151	O15	0.444500	0.068810	0.068810
C131	C13	0.441400	0.211600	0.211600
C141	C14	0.379800	0.239000	0.239000
C151	C15	0.441600	0.164300	0.164300
H51	H5	0.402200	0.148300	0.148300
O161	O16	0.387000	0.718100	0.718100
O171	O17	0.327900	0.783000	0.783000
O181	O18	0.444500	0.931190	0.931190
C161	C16	0.441400	0.788400	0.788400
C171	C17	0.379800	0.761000	0.761000
C181	C18	0.441600	0.835700	0.835700
H61	H6	0.402200	0.851700	0.851700
O191	O19	0.613000	0.718100	0.281900
O201	O20	0.672100	0.783000	0.217000
O211	O21	0.555500	0.931190	0.068810
C191	C19	0.558600	0.788400	0.211600
C201	C20	0.620200	0.761000	0.239000
C211	C21	0.558400	0.835700	0.164300
H71	H7	0.597800	0.851700	0.148300
O221	O22	0.613000	0.281900	0.718100
O231	O23	0.672100	0.217000	0.783000
O241	O24	0.555500	0.068810	0.931190
C221	C22	0.558600	0.211600	0.788400
C231	C23	0.620200	0.239000	0.761000
C241	C24	0.558400	0.164300	0.835700
H81	H8	0.597800	0.148300	0.851700
O251	O25	0.281900	0.387000	0.281900
O261	O26	0.217000	0.327900	0.217000
O271	O27	0.068810	0.444500	0.068810
C251	C25	0.211600	0.441400	0.211600
C261	C26	0.239000	0.379800	0.239000
C271	C27	0.164300	0.441600	0.164300
H91	H9	0.148300	0.402200	0.148300
O281	O28	0.718100	0.387000	0.718100
O291	O29	0.783000	0.327900	0.783000
O301	O30	0.931190	0.444500	0.931190
C281	C28	0.788400	0.441400	0.788400
C291	C29	0.761000	0.379800	0.761000
C301	C30	0.835700	0.441600	0.835700
H101	H10	0.851700	0.402200	0.851700
O311	O31	0.281900	0.613000	0.718100
O321	O32	0.217000	0.672100	0.783000
O331	O33	0.068810	0.555500	0.931190
C311	C31	0.211600	0.558600	0.788400
C321	C32	0.239000	0.620200	0.761000
C331	C33	0.164300	0.558400	0.835700
H111	H11	0.148300	0.597800	0.851700
O341	O34	0.718100	0.613000	0.281900
O351	O35	0.783000	0.672100	0.217000
O361	O36	0.931190	0.555500	0.068810
C341	C34	0.788400	0.558600	0.211600
C351	C35	0.761000	0.620200	0.239000
C361	C36	0.835700	0.558400	0.164300
H121	H12	0.851700	0.597800	0.148300
O371	O37	0.281900	0.281900	0.613000
O381	O38	0.217000	0.217000	0.672100
O391	O39	0.068810	0.068810	0.555500
C371	C37	0.211600	0.211600	0.558600
C381	C38	0.239000	0.239000	0.620200
C391	C39	0.164300	0.164300	0.558400
H131	H13	0.148300	0.148300	0.597800
O401	O40	0.718100	0.718100	0.613000
O411	O41	0.783000	0.783000	0.672100
O421	O42	0.931190	0.931190	0.555500
C401	C40	0.788400	0.788400	0.558600
C411	C41	0.761000	0.761000	0.620200
C421	C42	0.835700	0.835700	0.558400
H141	H14	0.851700	0.851700	0.597800
O431	O43	0.281900	0.718100	0.387000
O441	O44	0.217000	0.783000	0.327900
O451	O45	0.068810	0.931190	0.444500
C431	C43	0.211600	0.788400	0.441400
C441	C44	0.239000	0.761000	0.379800
C451	C45	0.164300	0.835700	0.441600
H151	H15	0.148300	0.851700	0.402200
O461	O46	0.718100	0.281900	0.387000
O471	O47	0.783000	0.217000	0.327900
O481	O48	0.931190	0.068810	0.444500
C461	C46	0.788400	0.211600	0.441400
C471	C47	0.761000	0.239000	0.379800
C481	C48	0.835700	0.164300	0.441600
H161	H16	0.851700	0.148300	0.402200
O491	O49	0.281900	0.387000	0.718100
O501	O50	0.217000	0.327900	0.783000
O511	O51	0.068810	0.444500	0.931190
C491	C49	0.211600	0.441400	0.788400
C501	C50	0.239000	0.379800	0.761000
C511	C51	0.164300	0.441600	0.835700
H171	H17	0.148300	0.402200	0.851700
O521	O52	0.718100	0.387000	0.281900
O531	O53	0.783000	0.327900	0.217000
O541	O54	0.931190	0.444500	0.068810
C521	C52	0.788400	0.441400	0.211600
C531	C53	0.761000	0.379800	0.239000
C541	C54	0.835700	0.441600	0.164300
H181	H18	0.851700	0.402200	0.148300
O551	O55	0.718100	0.613000	0.718100
O561	O56	0.783000	0.672100	0.783000
O571	O57	0.931190	0.555500	0.931190
C551	C55	0.788400	0.558600	0.788400
C561	C56	0.761000	0.620200	0.761000
C571	C57	0.835700	0.558400	0.835700
H191	H19	0.851700	0.597800	0.851700
O581	O58	0.281900	0.613000	0.281900
O591	O59	0.217000	0.672100	0.217000
O601	O60	0.068810	0.555500	0.068810
C581	C58	0.211600	0.558600	0.211600
C591	C59	0.239000	0.620200	0.239000
C601	C60	0.164300	0.558400	0.164300
H201	H20	0.148300	0.597800	0.148300
O611	O61	0.387000	0.281900	0.718100
O621	O62	0.327900	0.217000	0.783000
O631	O63	0.444500	0.068810	0.931190
C611	C61	0.441400	0.211600	0.788400
C621	C62	0.379800	0.239000	0.761000
C631	C63	0.441600	0.164300	0.835700
H211	H21	0.402200	0.148300	0.851700
O641	O64	0.387000	0.718100	0.281900
O651	O65	0.327900	0.783000	0.217000
O661	O66	0.444500	0.931190	0.068810
C641	C64	0.441400	0.788400	0.211600
C651	C65	0.379800	0.761000	0.239000
C661	C66	0.441600	0.835700	0.164300
H221	H22	0.402200	0.851700	0.148300
O671	O67	0.613000	0.281900	0.281900
O681	O68	0.672100	0.217000	0.217000
O691	O69	0.555500	0.068810	0.068810
C671	C67	0.558600	0.211600	0.211600
C681	C68	0.620200	0.239000	0.239000
C691	C69	0.558400	0.164300	0.164300
H231	H23	0.597800	0.148300	0.148300
O701	O70	0.613000	0.718100	0.718100
O711	O71	0.672100	0.783000	0.783000
O721	O72	0.555500	0.931190	0.931190
C701	C70	0.558600	0.788400	0.788400
C711	C71	0.620200	0.761000	0.761000
C721	C72	0.558400	0.835700	0.835700
H241	H24	0.597800	0.851700	0.851700
C731	C73	0.233900	0.233900	0.500000
H251	H25	0.266100	0.266100	0.500000
C741	C74	0.139900	0.139900	0.500000
C751	C75	0.087400	0.087400	0.500000
C761	C76	0.766100	0.766100	0.500000
H261	H26	0.733900	0.733900	0.500000
C771	C77	0.860100	0.860100	0.500000
C781	C78	0.912600	0.912600	0.500000
C791	C79	0.766100	0.233900	0.500000
H271	H27	0.733900	0.266100	0.500000
C801	C80	0.860100	0.139900	0.500000
C811	C81	0.912600	0.087400	0.500000
C821	C82	0.233900	0.766100	0.500000
H281	H28	0.266100	0.733900	0.500000
C831	C83	0.139900	0.860100	0.500000
C841	C84	0.087400	0.912600	0.500000
C851	C85	0.500000	0.233900	0.233900
H291	H29	0.500000	0.266100	0.266100
C861	C86	0.500000	0.139900	0.139900
C871	C87	0.500000	0.087400	0.087400
C881	C88	0.500000	0.766100	0.766100
H301	H30	0.500000	0.733900	0.733900
C891	C89	0.500000	0.860100	0.860100
C901	C90	0.500000	0.912600	0.912600
C911	C91	0.500000	0.766100	0.233900
H311	H31	0.500000	0.733900	0.266100
C921	C92	0.500000	0.860100	0.139900
C931	C93	0.500000	0.912600	0.087400
C941	C94	0.500000	0.233900	0.766100
H321	H32	0.500000	0.266100	0.733900
C951	C95	0.500000	0.139900	0.860100
C961	C96	0.500000	0.087400	0.912600
C971	C97	0.233900	0.500000	0.233900
H331	H33	0.266100	0.500000	0.266100
C981	C98	0.139900	0.500000	0.139900
C991	C99	0.087400	0.500000	0.087400
C1001	C100	0.766100	0.500000	0.766100
H341	H34	0.733900	0.500000	0.733900
C1011	C101	0.860100	0.500000	0.860100
C1021	C102	0.912600	0.500000	0.912600
C1031	C103	0.233900	0.500000	0.766100
H351	H35	0.266100	0.500000	0.733900
C1041	C104	0.139900	0.500000	0.860100
C1051	C105	0.087400	0.500000	0.912600
C1061	C106	0.766100	0.500000	0.233900
H361	H36	0.733900	0.500000	0.266100
C1071	C107	0.860100	0.500000	0.139900
C1081	C108	0.912600	0.500000	0.087400
