data_NUBPIL_clean_PM
_symmetry_space_group_name_H-M	'P1'
_cell_length_a	14.611600
_cell_length_b	15.562300
_cell_length_c	15.562300
_cell_angle_alpha	112.887000
_cell_angle_beta	95.875300
_cell_angle_gamma	95.875300
_symmetry_Int_Tables_number 1

loop_
_symmetry_equiv_pos_as_xyz
'x,y,z'

loop_
_atom_site_label
_atom_site_type_symbol
_atom_site_fract_x
_atom_site_fract_y
_atom_site_fract_z
Cu11	Cu1	0.487110	0.922030	0.922030
Cu21	Cu2	0.000000	0.000000	0.500000
Cu31	Cu3	0.512890	0.077970	0.077970
Cu41	Cu4	0.000000	0.500000	0.000000
H11	H1	0.689100	0.004800	0.774400
H21	H2	0.310900	0.995200	0.225600
H31	H3	0.211400	0.515400	0.096600
H41	H4	0.730700	0.012700	0.240700
H51	H5	0.876000	0.804100	0.224100
H61	H6	0.124000	0.195900	0.775900
H71	H7	0.788600	0.484600	0.903400
H81	H8	0.310900	0.225600	0.995200
H91	H9	0.269300	0.987300	0.759300
H101	H10	0.211400	0.096600	0.515400
H111	H11	0.055800	0.303300	0.891300
H121	H12	0.269300	0.759300	0.987300
H131	H13	0.055800	0.891300	0.303300
H141	H14	0.306000	0.042400	0.393800
H151	H15	0.306000	0.393800	0.042400
H161	H16	0.876000	0.224100	0.804100
H171	H17	0.944200	0.696700	0.108700
H181	H18	0.944200	0.108700	0.696700
H191	H19	0.124000	0.775900	0.195900
H201	H20	0.788600	0.903400	0.484600
H211	H21	0.689100	0.774400	0.004800
H221	H22	0.694000	0.957600	0.606200
H231	H23	0.694000	0.606200	0.957600
H241	H24	0.730700	0.240700	0.012700
C11	C1	0.893400	0.658400	0.064600
C21	C2	0.832300	0.829400	0.197000
C31	C3	0.106600	0.341600	0.935400
C41	C4	0.788100	0.105800	0.777400
C51	C5	0.255300	0.792800	0.047200
C61	C6	0.744700	0.952800	0.207200
C71	C7	0.211900	0.222600	0.894200
C81	C8	0.832300	0.197000	0.829400
C91	C9	0.167700	0.803000	0.170600
C101	C10	0.866300	0.978700	0.345500
C111	C11	0.187200	0.751300	0.081900
C121	C12	0.720000	0.810900	0.065700
C131	C13	0.623600	0.937000	0.074600
C141	C14	0.866300	0.345500	0.978700
C151	C15	0.133700	0.654500	0.021300
C161	C16	0.807800	0.953100	0.543300
C171	C17	0.192200	0.456700	0.046900
C181	C18	0.106600	0.935400	0.341600
C191	C19	0.788100	0.777400	0.105800
C201	C20	0.812800	0.918100	0.248700
C211	C21	0.187200	0.081900	0.751300
C221	C22	0.167700	0.170600	0.803000
C231	C23	0.893400	0.064600	0.658400
C241	C24	0.376400	0.925400	0.063000
C251	C25	0.697500	0.898800	0.116000
C261	C26	0.192200	0.046900	0.456700
C271	C27	0.744700	0.207200	0.952800
C281	C28	0.720000	0.065700	0.810900
C291	C29	0.756000	0.981300	0.609500
C301	C30	0.697500	0.116000	0.898800
C311	C31	0.133700	0.021300	0.654500
C321	C32	0.807800	0.543300	0.953100
C331	C33	0.812800	0.248700	0.918100
C341	C34	0.302500	0.101200	0.884000
C351	C35	0.376400	0.063000	0.925400
C361	C36	0.302500	0.884000	0.101200
C371	C37	0.255300	0.047200	0.792800
C381	C38	0.280000	0.189100	0.934300
C391	C39	0.211900	0.894200	0.222600
C401	C40	0.623600	0.074600	0.937000
C411	C41	0.244000	0.390500	0.018700
C421	C42	0.756000	0.609500	0.981300
C431	C43	0.244000	0.018700	0.390500
C441	C44	0.280000	0.934300	0.189100
N11	N1	0.895100	0.572470	0.007330
N21	N2	0.812800	0.054420	0.686380
N31	N3	0.187200	0.313620	0.945580
N41	N4	0.187200	0.945580	0.313620
N51	N5	0.812800	0.686380	0.054420
N61	N6	0.104900	0.427530	0.992670
N71	N7	0.104900	0.992670	0.427530
N81	N8	0.895100	0.007330	0.572470
O11	O1	0.084600	0.618100	0.064300
O21	O2	0.859500	0.383300	0.060500
O31	O3	0.915400	0.935700	0.381900
O41	O4	0.393500	0.982380	0.876420
O51	O5	0.084600	0.064300	0.618100
O61	O6	0.393500	0.876420	0.982380
O71	O7	0.584600	0.886180	0.992020
O81	O8	0.415400	0.113820	0.007980
O91	O9	0.915400	0.381900	0.935700
O101	O10	0.415400	0.007980	0.113820
O111	O11	0.584600	0.992020	0.886180
O121	O12	0.606500	0.017620	0.123580
O131	O13	0.140500	0.939500	0.616700
O141	O14	0.606500	0.123580	0.017620
O151	O15	0.859500	0.060500	0.383300
O161	O16	0.140500	0.616700	0.939500
