data_NUCCEV_clean_PM
_symmetry_space_group_name_H-M	'P1'
_cell_length_a	23.592700
_cell_length_b	23.592700
_cell_length_c	11.735600
_cell_angle_alpha	90.000000
_cell_angle_beta	90.000000
_cell_angle_gamma	90.000000
_symmetry_Int_Tables_number 1

loop_
_symmetry_equiv_pos_as_xyz
'x,y,z'

loop_
_atom_site_label
_atom_site_type_symbol
_atom_site_fract_x
_atom_site_fract_y
_atom_site_fract_z
O11	O1	0.447800	0.540790	0.403230
N11	N1	0.223010	0.644780	0.866100
H11	H1	0.192500	0.644100	0.826000
O21	O2	0.443090	0.458460	0.312800
N21	N2	0.263530	0.685700	0.857350
C11	C1	0.380550	0.595470	0.246200
H21	H2	0.396900	0.616400	0.304700
C21	C2	0.288260	0.621300	0.989600
C31	C3	0.390240	0.537250	0.239400
C41	C4	0.346720	0.622180	0.165900
H31	H3	0.340500	0.661000	0.171200
C51	C5	0.321900	0.591470	0.077300
C61	C6	0.303650	0.671700	0.932500
C71	C7	0.236190	0.605760	0.944200
C81	C8	0.330810	0.532860	0.072700
H41	H4	0.313800	0.511600	0.015400
C91	C9	0.429440	0.509330	0.323800
C101	C10	0.197750	0.556920	0.967500
H51	H5	0.159100	0.568500	0.956600
H61	H6	0.202900	0.544400	0.044700
H71	H7	0.206500	0.526400	0.916300
C111	C11	0.364690	0.506190	0.153000
H81	H8	0.370400	0.467200	0.148900
C121	C12	0.357230	0.705040	0.944900
H91	H9	0.365900	0.723400	0.874100
H101	H10	0.387700	0.680000	0.965300
H111	H11	0.352500	0.733100	0.003500
O31	O3	0.947800	0.040790	0.903230
N31	N3	0.723010	0.144780	0.366100
H121	H12	0.692500	0.144100	0.326000
O41	O4	0.943090	0.958460	0.812800
N41	N4	0.763530	0.185700	0.357350
C131	C13	0.880550	0.095470	0.746200
H131	H13	0.896900	0.116400	0.804700
C141	C14	0.788260	0.121300	0.489600
C151	C15	0.890240	0.037250	0.739400
C161	C16	0.846720	0.122180	0.665900
H141	H14	0.840500	0.161000	0.671200
C171	C17	0.821900	0.091470	0.577300
C181	C18	0.803650	0.171700	0.432500
C191	C19	0.736190	0.105760	0.444200
C201	C20	0.830810	0.032860	0.572700
H151	H15	0.813800	0.011600	0.515400
C211	C21	0.929440	0.009330	0.823800
C221	C22	0.697750	0.056920	0.467500
H161	H16	0.659100	0.068500	0.456600
H171	H17	0.702900	0.044400	0.544700
H181	H18	0.706500	0.026400	0.416300
C231	C23	0.864690	0.006190	0.653000
H191	H19	0.870400	0.967200	0.648900
C241	C24	0.857230	0.205040	0.444900
H201	H20	0.865900	0.223400	0.374100
H211	H21	0.887700	0.180000	0.465300
H221	H22	0.852500	0.233100	0.503500
O51	O5	0.052200	0.459210	0.903230
N51	N5	0.276990	0.355220	0.366100
H231	H23	0.307500	0.355900	0.326000
O61	O6	0.056910	0.541540	0.812800
N61	N6	0.236470	0.314300	0.357350
C251	C25	0.119450	0.404530	0.746200
H241	H24	0.103100	0.383600	0.804700
C261	C26	0.211740	0.378700	0.489600
C271	C27	0.109760	0.462750	0.739400
C281	C28	0.153280	0.377820	0.665900
H251	H25	0.159500	0.339000	0.671200
C291	C29	0.178100	0.408530	0.577300
C301	C30	0.196350	0.328300	0.432500
C311	C31	0.263810	0.394240	0.444200
C321	C32	0.169190	0.467140	0.572700
H261	H26	0.186200	0.488400	0.515400
C331	C33	0.070560	0.490670	0.823800
C341	C34	0.302250	0.443080	0.467500
H271	H27	0.340900	0.431500	0.456600
H281	H28	0.297100	0.455600	0.544700
H291	H29	0.293500	0.473600	0.416300
C351	C35	0.135310	0.493810	0.653000
H301	H30	0.129600	0.532800	0.648900
C361	C36	0.142770	0.294960	0.444900
H311	H31	0.134100	0.276600	0.374100
H321	H32	0.112300	0.320000	0.465300
H331	H33	0.147500	0.266900	0.503500
O71	O7	0.552200	0.959210	0.403230
N71	N7	0.776990	0.855220	0.866100
H341	H34	0.807500	0.855900	0.826000
O81	O8	0.556910	0.041540	0.312800
N81	N8	0.736470	0.814300	0.857350
C371	C37	0.619450	0.904530	0.246200
H351	H35	0.603100	0.883600	0.304700
C381	C38	0.711740	0.878700	0.989600
C391	C39	0.609760	0.962750	0.239400
C401	C40	0.653280	0.877820	0.165900
H361	H36	0.659500	0.839000	0.171200
C411	C41	0.678100	0.908530	0.077300
C421	C42	0.696350	0.828300	0.932500
C431	C43	0.763810	0.894240	0.944200
C441	C44	0.669190	0.967140	0.072700
H371	H37	0.686200	0.988400	0.015400
C451	C45	0.570560	0.990670	0.323800
C461	C46	0.802250	0.943080	0.967500
H381	H38	0.840900	0.931500	0.956600
H391	H39	0.797100	0.955600	0.044700
H401	H40	0.793500	0.973600	0.916300
C471	C47	0.635310	0.993810	0.153000
H411	H41	0.629600	0.032800	0.148900
C481	C48	0.642770	0.794960	0.944900
H421	H42	0.634100	0.776600	0.874100
H431	H43	0.612300	0.820000	0.965300
H441	H44	0.647500	0.766900	0.003500
O91	O9	0.209210	0.697800	0.653230
N91	N9	0.105220	0.473010	0.116100
H451	H45	0.105900	0.442500	0.076000
O101	O10	0.291540	0.693090	0.562800
N101	N10	0.064300	0.513530	0.107350
C491	C49	0.154530	0.630550	0.496200
H461	H46	0.133600	0.646900	0.554700
C501	C50	0.128700	0.538260	0.239600
C511	C51	0.212750	0.640240	0.489400
C521	C52	0.127820	0.596720	0.415900
H471	H47	0.089000	0.590500	0.421200
C531	C53	0.158530	0.571900	0.327300
C541	C54	0.078300	0.553650	0.182500
C551	C55	0.144240	0.486190	0.194200
C561	C56	0.217140	0.580810	0.322700
H481	H48	0.238400	0.563800	0.265400
C571	C57	0.240670	0.679440	0.573800
C581	C58	0.193080	0.447750	0.217500
H491	H49	0.181500	0.409100	0.206600
H501	H50	0.205600	0.452900	0.294700
H511	H51	0.223600	0.456500	0.166300
C591	C59	0.243810	0.614690	0.403000
H521	H52	0.282800	0.620400	0.398900
C601	C60	0.044960	0.607230	0.194900
H531	H53	0.026600	0.615900	0.124100
H541	H54	0.070000	0.637700	0.215300
H551	H55	0.016900	0.602500	0.253500
O111	O11	0.709210	0.197800	0.153230
N111	N11	0.605220	0.973010	0.616100
H561	H56	0.605900	0.942500	0.576000
O121	O12	0.791540	0.193090	0.062800
N121	N12	0.564300	0.013530	0.607350
C611	C61	0.654530	0.130550	0.996200
H571	H57	0.633600	0.146900	0.054700
C621	C62	0.628700	0.038260	0.739600
C631	C63	0.712750	0.140240	0.989400
C641	C64	0.627820	0.096720	0.915900
H581	H58	0.589000	0.090500	0.921200
C651	C65	0.658530	0.071900	0.827300
C661	C66	0.578300	0.053650	0.682500
C671	C67	0.644240	0.986190	0.694200
C681	C68	0.717140	0.080810	0.822700
H591	H59	0.738400	0.063800	0.765400
C691	C69	0.740670	0.179440	0.073800
C701	C70	0.693080	0.947750	0.717500
H601	H60	0.681500	0.909100	0.706600
H611	H61	0.705600	0.952900	0.794700
H621	H62	0.723600	0.956500	0.666300
C711	C71	0.743810	0.114690	0.903000
H631	H63	0.782800	0.120400	0.898900
C721	C72	0.544960	0.107230	0.694900
H641	H64	0.526600	0.115900	0.624100
H651	H65	0.570000	0.137700	0.715300
H661	H66	0.516900	0.102500	0.753500
O131	O13	0.290790	0.302200	0.153230
N131	N13	0.394780	0.526990	0.616100
H671	H67	0.394100	0.557500	0.576000
O141	O14	0.208460	0.306910	0.062800
N141	N14	0.435700	0.486470	0.607350
C731	C73	0.345470	0.369450	0.996200
H681	H68	0.366400	0.353100	0.054700
C741	C74	0.371300	0.461740	0.739600
C751	C75	0.287250	0.359760	0.989400
C761	C76	0.372180	0.403280	0.915900
H691	H69	0.411000	0.409500	0.921200
C771	C77	0.341470	0.428100	0.827300
C781	C78	0.421700	0.446350	0.682500
C791	C79	0.355760	0.513810	0.694200
C801	C80	0.282860	0.419190	0.822700
H701	H70	0.261600	0.436200	0.765400
C811	C81	0.259330	0.320560	0.073800
C821	C82	0.306920	0.552250	0.717500
H711	H71	0.318500	0.590900	0.706600
H721	H72	0.294400	0.547100	0.794700
H731	H73	0.276400	0.543500	0.666300
C831	C83	0.256190	0.385310	0.903000
H741	H74	0.217200	0.379600	0.898900
C841	C84	0.455040	0.392770	0.694900
H751	H75	0.473400	0.384100	0.624100
H761	H76	0.430000	0.362300	0.715300
H771	H77	0.483100	0.397500	0.753500
O151	O15	0.790790	0.802200	0.653230
N151	N15	0.894780	0.026990	0.116100
H781	H78	0.894100	0.057500	0.076000
O161	O16	0.708460	0.806910	0.562800
N161	N16	0.935700	0.986470	0.107350
C851	C85	0.845470	0.869450	0.496200
H791	H79	0.866400	0.853100	0.554700
C861	C86	0.871300	0.961740	0.239600
C871	C87	0.787250	0.859760	0.489400
C881	C88	0.872180	0.903280	0.415900
H801	H80	0.911000	0.909500	0.421200
C891	C89	0.841470	0.928100	0.327300
C901	C90	0.921700	0.946350	0.182500
C911	C91	0.855760	0.013810	0.194200
C921	C92	0.782860	0.919190	0.322700
H811	H81	0.761600	0.936200	0.265400
C931	C93	0.759330	0.820560	0.573800
C941	C94	0.806920	0.052250	0.217500
H821	H82	0.818500	0.090900	0.206600
H831	H83	0.794400	0.047100	0.294700
H841	H84	0.776400	0.043500	0.166300
C951	C95	0.756190	0.885310	0.403000
H851	H85	0.717200	0.879600	0.398900
C961	C96	0.955040	0.892770	0.194900
H861	H86	0.973400	0.884100	0.124100
H871	H87	0.930000	0.862300	0.215300
H881	H88	0.983100	0.897500	0.253500
O171	O17	0.552200	0.459210	0.596770
N171	N17	0.776990	0.355220	0.133900
H891	H89	0.807500	0.355900	0.174000
O181	O18	0.556910	0.541540	0.687200
N181	N18	0.736470	0.314300	0.142650
C971	C97	0.619450	0.404530	0.753800
H901	H90	0.603100	0.383600	0.695300
C981	C98	0.711740	0.378700	0.010400
C991	C99	0.609760	0.462750	0.760600
C1001	C100	0.653280	0.377820	0.834100
H911	H91	0.659500	0.339000	0.828800
C1011	C101	0.678100	0.408530	0.922700
C1021	C102	0.696350	0.328300	0.067500
C1031	C103	0.763810	0.394240	0.055800
C1041	C104	0.669190	0.467140	0.927300
H921	H92	0.686200	0.488400	0.984600
C1051	C105	0.570560	0.490670	0.676200
C1061	C106	0.802250	0.443080	0.032500
H931	H93	0.840900	0.431500	0.043400
H941	H94	0.797100	0.455600	0.955300
H951	H95	0.793500	0.473600	0.083700
C1071	C107	0.635310	0.493810	0.847000
H961	H96	0.629600	0.532800	0.851100
C1081	C108	0.642770	0.294960	0.055100
H971	H97	0.634100	0.276600	0.125900
H981	H98	0.612300	0.320000	0.034700
H991	H99	0.647500	0.266900	0.996500
O191	O19	0.052200	0.959210	0.096770
N191	N19	0.276990	0.855220	0.633900
H1001	H100	0.307500	0.855900	0.674000
O201	O20	0.056910	0.041540	0.187200
N201	N20	0.236470	0.814300	0.642650
C1091	C109	0.119450	0.904530	0.253800
H1011	H101	0.103100	0.883600	0.195300
C1101	C110	0.211740	0.878700	0.510400
C1111	C111	0.109760	0.962750	0.260600
C1121	C112	0.153280	0.877820	0.334100
H1021	H102	0.159500	0.839000	0.328800
C1131	C113	0.178100	0.908530	0.422700
C1141	C114	0.196350	0.828300	0.567500
C1151	C115	0.263810	0.894240	0.555800
C1161	C116	0.169190	0.967140	0.427300
H1031	H103	0.186200	0.988400	0.484600
C1171	C117	0.070560	0.990670	0.176200
C1181	C118	0.302250	0.943080	0.532500
H1041	H104	0.340900	0.931500	0.543400
H1051	H105	0.297100	0.955600	0.455300
H1061	H106	0.293500	0.973600	0.583700
C1191	C119	0.135310	0.993810	0.347000
H1071	H107	0.129600	0.032800	0.351100
C1201	C120	0.142770	0.794960	0.555100
H1081	H108	0.134100	0.776600	0.625900
H1091	H109	0.112300	0.820000	0.534700
H1101	H110	0.147500	0.766900	0.496500
O211	O21	0.947800	0.540790	0.096770
N211	N21	0.723010	0.644780	0.633900
H1111	H111	0.692500	0.644100	0.674000
O221	O22	0.943090	0.458460	0.187200
N221	N22	0.763530	0.685700	0.642650
C1211	C121	0.880550	0.595470	0.253800
H1121	H112	0.896900	0.616400	0.195300
C1221	C122	0.788260	0.621300	0.510400
C1231	C123	0.890240	0.537250	0.260600
C1241	C124	0.846720	0.622180	0.334100
H1131	H113	0.840500	0.661000	0.328800
C1251	C125	0.821900	0.591470	0.422700
C1261	C126	0.803650	0.671700	0.567500
C1271	C127	0.736190	0.605760	0.555800
C1281	C128	0.830810	0.532860	0.427300
H1141	H114	0.813800	0.511600	0.484600
C1291	C129	0.929440	0.509330	0.176200
C1301	C130	0.697750	0.556920	0.532500
H1151	H115	0.659100	0.568500	0.543400
H1161	H116	0.702900	0.544400	0.455300
H1171	H117	0.706500	0.526400	0.583700
C1311	C131	0.864690	0.506190	0.347000
H1181	H118	0.870400	0.467200	0.351100
C1321	C132	0.857230	0.705040	0.555100
H1191	H119	0.865900	0.723400	0.625900
H1201	H120	0.887700	0.680000	0.534700
H1211	H121	0.852500	0.733100	0.496500
O231	O23	0.447800	0.040790	0.596770
N231	N23	0.223010	0.144780	0.133900
H1221	H122	0.192500	0.144100	0.174000
O241	O24	0.443090	0.958460	0.687200
N241	N24	0.263530	0.185700	0.142650
C1331	C133	0.380550	0.095470	0.753800
H1231	H123	0.396900	0.116400	0.695300
C1341	C134	0.288260	0.121300	0.010400
C1351	C135	0.390240	0.037250	0.760600
C1361	C136	0.346720	0.122180	0.834100
H1241	H124	0.340500	0.161000	0.828800
C1371	C137	0.321900	0.091470	0.922700
C1381	C138	0.303650	0.171700	0.067500
C1391	C139	0.236190	0.105760	0.055800
C1401	C140	0.330810	0.032860	0.927300
H1251	H125	0.313800	0.011600	0.984600
C1411	C141	0.429440	0.009330	0.676200
C1421	C142	0.197750	0.056920	0.032500
H1261	H126	0.159100	0.068500	0.043400
H1271	H127	0.202900	0.044400	0.955300
H1281	H128	0.206500	0.026400	0.083700
C1431	C143	0.364690	0.006190	0.847000
H1291	H129	0.370400	0.967200	0.851100
C1441	C144	0.357230	0.205040	0.055100
H1301	H130	0.365900	0.223400	0.125900
H1311	H131	0.387700	0.180000	0.034700
H1321	H132	0.352500	0.233100	0.996500
O251	O25	0.790790	0.302200	0.346770
N251	N25	0.894780	0.526990	0.883900
H1331	H133	0.894100	0.557500	0.924000
O261	O26	0.708460	0.306910	0.437200
N261	N26	0.935700	0.486470	0.892650
C1451	C145	0.845470	0.369450	0.503800
H1341	H134	0.866400	0.353100	0.445300
C1461	C146	0.871300	0.461740	0.760400
C1471	C147	0.787250	0.359760	0.510600
C1481	C148	0.872180	0.403280	0.584100
H1351	H135	0.911000	0.409500	0.578800
C1491	C149	0.841470	0.428100	0.672700
C1501	C150	0.921700	0.446350	0.817500
C1511	C151	0.855760	0.513810	0.805800
C1521	C152	0.782860	0.419190	0.677300
H1361	H136	0.761600	0.436200	0.734600
C1531	C153	0.759330	0.320560	0.426200
C1541	C154	0.806920	0.552250	0.782500
H1371	H137	0.818500	0.590900	0.793400
H1381	H138	0.794400	0.547100	0.705300
H1391	H139	0.776400	0.543500	0.833700
C1551	C155	0.756190	0.385310	0.597000
H1401	H140	0.717200	0.379600	0.601100
C1561	C156	0.955040	0.392770	0.805100
H1411	H141	0.973400	0.384100	0.875900
H1421	H142	0.930000	0.362300	0.784700
H1431	H143	0.983100	0.397500	0.746500
O271	O27	0.290790	0.802200	0.846770
N271	N27	0.394780	0.026990	0.383900
H1441	H144	0.394100	0.057500	0.424000
O281	O28	0.208460	0.806910	0.937200
N281	N28	0.435700	0.986470	0.392650
C1571	C157	0.345470	0.869450	0.003800
H1451	H145	0.366400	0.853100	0.945300
C1581	C158	0.371300	0.961740	0.260400
C1591	C159	0.287250	0.859760	0.010600
C1601	C160	0.372180	0.903280	0.084100
H1461	H146	0.411000	0.909500	0.078800
C1611	C161	0.341470	0.928100	0.172700
C1621	C162	0.421700	0.946350	0.317500
C1631	C163	0.355760	0.013810	0.305800
C1641	C164	0.282860	0.919190	0.177300
H1471	H147	0.261600	0.936200	0.234600
C1651	C165	0.259330	0.820560	0.926200
C1661	C166	0.306920	0.052250	0.282500
H1481	H148	0.318500	0.090900	0.293400
H1491	H149	0.294400	0.047100	0.205300
H1501	H150	0.276400	0.043500	0.333700
C1671	C167	0.256190	0.885310	0.097000
H1511	H151	0.217200	0.879600	0.101100
C1681	C168	0.455040	0.892770	0.305100
H1521	H152	0.473400	0.884100	0.375900
H1531	H153	0.430000	0.862300	0.284700
H1541	H154	0.483100	0.897500	0.246500
O291	O29	0.709210	0.697800	0.846770
N291	N29	0.605220	0.473010	0.383900
H1551	H155	0.605900	0.442500	0.424000
O301	O30	0.791540	0.693090	0.937200
N301	N30	0.564300	0.513530	0.392650
C1691	C169	0.654530	0.630550	0.003800
H1561	H156	0.633600	0.646900	0.945300
C1701	C170	0.628700	0.538260	0.260400
C1711	C171	0.712750	0.640240	0.010600
C1721	C172	0.627820	0.596720	0.084100
H1571	H157	0.589000	0.590500	0.078800
C1731	C173	0.658530	0.571900	0.172700
C1741	C174	0.578300	0.553650	0.317500
C1751	C175	0.644240	0.486190	0.305800
C1761	C176	0.717140	0.580810	0.177300
H1581	H158	0.738400	0.563800	0.234600
C1771	C177	0.740670	0.679440	0.926200
C1781	C178	0.693080	0.447750	0.282500
H1591	H159	0.681500	0.409100	0.293400
H1601	H160	0.705600	0.452900	0.205300
H1611	H161	0.723600	0.456500	0.333700
C1791	C179	0.743810	0.614690	0.097000
H1621	H162	0.782800	0.620400	0.101100
C1801	C180	0.544960	0.607230	0.305100
H1631	H163	0.526600	0.615900	0.375900
H1641	H164	0.570000	0.637700	0.284700
H1651	H165	0.516900	0.602500	0.246500
O311	O31	0.209210	0.197800	0.346770
N311	N31	0.105220	0.973010	0.883900
H1661	H166	0.105900	0.942500	0.924000
O321	O32	0.291540	0.193090	0.437200
N321	N32	0.064300	0.013530	0.892650
C1811	C181	0.154530	0.130550	0.503800
H1671	H167	0.133600	0.146900	0.445300
C1821	C182	0.128700	0.038260	0.760400
C1831	C183	0.212750	0.140240	0.510600
C1841	C184	0.127820	0.096720	0.584100
H1681	H168	0.089000	0.090500	0.578800
C1851	C185	0.158530	0.071900	0.672700
C1861	C186	0.078300	0.053650	0.817500
C1871	C187	0.144240	0.986190	0.805800
C1881	C188	0.217140	0.080810	0.677300
H1691	H169	0.238400	0.063800	0.734600
C1891	C189	0.240670	0.179440	0.426200
C1901	C190	0.193080	0.947750	0.782500
H1701	H170	0.181500	0.909100	0.793400
H1711	H171	0.205600	0.952900	0.705300
H1721	H172	0.223600	0.956500	0.833700
C1911	C191	0.243810	0.114690	0.597000
H1731	H173	0.282800	0.120400	0.601100
C1921	C192	0.044960	0.107230	0.805100
H1741	H174	0.026600	0.115900	0.875900
H1751	H175	0.070000	0.137700	0.784700
H1761	H176	0.016900	0.102500	0.746500
Cu11	Cu1	0.500000	0.500000	0.500000
Cu21	Cu2	0.000000	0.000000	0.000000
Cu31	Cu3	0.000000	0.500000	0.000000
Cu41	Cu4	0.500000	0.000000	0.500000
Cu51	Cu5	0.250000	0.750000	0.750000
Cu61	Cu6	0.250000	0.250000	0.250000
Cu71	Cu7	0.750000	0.250000	0.250000
Cu81	Cu8	0.750000	0.750000	0.750000
