data_NUDMOQ_clean_PM
_symmetry_space_group_name_H-M	'P1'
_cell_length_a	17.807400
_cell_length_b	13.114500
_cell_length_c	11.051400
_cell_angle_alpha	90.000000
_cell_angle_beta	103.844000
_cell_angle_gamma	90.000000
_symmetry_Int_Tables_number 1

loop_
_symmetry_equiv_pos_as_xyz
'x,y,z'

loop_
_atom_site_label
_atom_site_type_symbol
_atom_site_fract_x
_atom_site_fract_y
_atom_site_fract_z
Mg11	Mg1	0.586620	0.034030	0.543470
N11	N1	0.686770	0.931200	0.615500
O11	O1	0.577150	0.984860	0.722290
O21	O2	0.635850	0.914440	0.904320
O31	O3	0.851570	0.659440	0.867600
O41	O4	0.916110	0.703140	0.724000
O51	O5	0.478740	0.084450	0.553800
H11	H1	0.467000	0.136000	0.528000
C11	C1	0.690940	0.892600	0.730300
C21	C2	0.746210	0.822000	0.787400
H21	H2	0.747000	0.799000	0.877000
C31	C3	0.800810	0.790300	0.723800
C41	C4	0.798190	0.832300	0.607300
H31	H3	0.835000	0.808000	0.555000
C51	C5	0.740460	0.901200	0.556500
H41	H4	0.734000	0.930000	0.475000
C61	C6	0.630050	0.933300	0.792100
C71	C7	0.861400	0.710800	0.777200
Mg21	Mg2	0.086620	0.534030	0.543470
N21	N2	0.186770	0.431200	0.615500
O61	O6	0.077150	0.484860	0.722290
O71	O7	0.135850	0.414440	0.904320
O81	O8	0.351570	0.159440	0.867600
O91	O9	0.416110	0.203140	0.724000
O101	O10	0.978740	0.584450	0.553800
H51	H5	0.967000	0.636000	0.528000
C81	C8	0.190940	0.392600	0.730300
C91	C9	0.246210	0.322000	0.787400
H61	H6	0.247000	0.299000	0.877000
C101	C10	0.300810	0.290300	0.723800
C111	C11	0.298190	0.332300	0.607300
H71	H7	0.335000	0.308000	0.555000
C121	C12	0.240460	0.401200	0.556500
H81	H8	0.234000	0.430000	0.475000
C131	C13	0.130050	0.433300	0.792100
C141	C14	0.361400	0.210800	0.777200
Mg31	Mg3	0.413380	0.034030	0.956530
N31	N3	0.313230	0.931200	0.884500
O111	O11	0.422850	0.984860	0.777710
O121	O12	0.364150	0.914440	0.595680
O131	O13	0.148430	0.659440	0.632400
O141	O14	0.083890	0.703140	0.776000
O151	O15	0.521260	0.084450	0.946200
H91	H9	0.533000	0.136000	0.972000
C151	C15	0.309060	0.892600	0.769700
C161	C16	0.253790	0.822000	0.712600
H101	H10	0.253000	0.799000	0.623000
C171	C17	0.199190	0.790300	0.776200
C181	C18	0.201810	0.832300	0.892700
H111	H11	0.165000	0.808000	0.945000
C191	C19	0.259540	0.901200	0.943500
H121	H12	0.266000	0.930000	0.025000
C201	C20	0.369950	0.933300	0.707900
C211	C21	0.138600	0.710800	0.722800
Mg41	Mg4	0.913380	0.534030	0.956530
N41	N4	0.813230	0.431200	0.884500
O161	O16	0.922850	0.484860	0.777710
O171	O17	0.864150	0.414440	0.595680
O181	O18	0.648430	0.159440	0.632400
O191	O19	0.583890	0.203140	0.776000
O201	O20	0.021260	0.584450	0.946200
H131	H13	0.033000	0.636000	0.972000
C221	C22	0.809060	0.392600	0.769700
C231	C23	0.753790	0.322000	0.712600
H141	H14	0.753000	0.299000	0.623000
C241	C24	0.699190	0.290300	0.776200
C251	C25	0.701810	0.332300	0.892700
H151	H15	0.665000	0.308000	0.945000
C261	C26	0.759540	0.401200	0.943500
H161	H16	0.766000	0.430000	0.025000
C271	C27	0.869950	0.433300	0.707900
C281	C28	0.638600	0.210800	0.722800
Mg51	Mg5	0.413380	0.965970	0.456530
N51	N5	0.313230	0.068800	0.384500
O211	O21	0.422850	0.015140	0.277710
O221	O22	0.364150	0.085560	0.095680
O231	O23	0.148430	0.340560	0.132400
O241	O24	0.083890	0.296860	0.276000
O251	O25	0.521260	0.915550	0.446200
H171	H17	0.533000	0.864000	0.472000
C291	C29	0.309060	0.107400	0.269700
C301	C30	0.253790	0.178000	0.212600
H181	H18	0.253000	0.201000	0.123000
C311	C31	0.199190	0.209700	0.276200
C321	C32	0.201810	0.167700	0.392700
H191	H19	0.165000	0.192000	0.445000
C331	C33	0.259540	0.098800	0.443500
H201	H20	0.266000	0.070000	0.525000
C341	C34	0.369950	0.066700	0.207900
C351	C35	0.138600	0.289200	0.222800
Mg61	Mg6	0.913380	0.465970	0.456530
N61	N6	0.813230	0.568800	0.384500
O261	O26	0.922850	0.515140	0.277710
O271	O27	0.864150	0.585560	0.095680
O281	O28	0.648430	0.840560	0.132400
O291	O29	0.583890	0.796860	0.276000
O301	O30	0.021260	0.415550	0.446200
H211	H21	0.033000	0.364000	0.472000
C361	C36	0.809060	0.607400	0.269700
C371	C37	0.753790	0.678000	0.212600
H221	H22	0.753000	0.701000	0.123000
C381	C38	0.699190	0.709700	0.276200
C391	C39	0.701810	0.667700	0.392700
H231	H23	0.665000	0.692000	0.445000
C401	C40	0.759540	0.598800	0.443500
H241	H24	0.766000	0.570000	0.525000
C411	C41	0.869950	0.566700	0.207900
C421	C42	0.638600	0.789200	0.222800
Mg71	Mg7	0.586620	0.965970	0.043470
N71	N7	0.686770	0.068800	0.115500
O311	O31	0.577150	0.015140	0.222290
O321	O32	0.635850	0.085560	0.404320
O331	O33	0.851570	0.340560	0.367600
O341	O34	0.916110	0.296860	0.224000
O351	O35	0.478740	0.915550	0.053800
H251	H25	0.467000	0.864000	0.028000
C431	C43	0.690940	0.107400	0.230300
C441	C44	0.746210	0.178000	0.287400
H261	H26	0.747000	0.201000	0.377000
C451	C45	0.800810	0.209700	0.223800
C461	C46	0.798190	0.167700	0.107300
H271	H27	0.835000	0.192000	0.055000
C471	C47	0.740460	0.098800	0.056500
H281	H28	0.734000	0.070000	0.975000
C481	C48	0.630050	0.066700	0.292100
C491	C49	0.861400	0.289200	0.277200
Mg81	Mg8	0.086620	0.465970	0.043470
N81	N8	0.186770	0.568800	0.115500
O361	O36	0.077150	0.515140	0.222290
O371	O37	0.135850	0.585560	0.404320
O381	O38	0.351570	0.840560	0.367600
O391	O39	0.416110	0.796860	0.224000
O401	O40	0.978740	0.415550	0.053800
H291	H29	0.967000	0.364000	0.028000
C501	C50	0.190940	0.607400	0.230300
C511	C51	0.246210	0.678000	0.287400
H301	H30	0.247000	0.701000	0.377000
C521	C52	0.300810	0.709700	0.223800
C531	C53	0.298190	0.667700	0.107300
H311	H31	0.335000	0.692000	0.055000
C541	C54	0.240460	0.598800	0.056500
H321	H32	0.234000	0.570000	0.975000
C551	C55	0.130050	0.566700	0.292100
C561	C56	0.361400	0.789200	0.277200
Mg91	Mg9	0.500000	0.095020	0.750000
Mg101	Mg10	0.000000	0.595020	0.750000
Mg111	Mg11	0.500000	0.904980	0.250000
Mg121	Mg12	0.000000	0.404980	0.250000
