data_NUGROX_clean_PM
_symmetry_space_group_name_H-M	'P1'
_cell_length_a	26.321500
_cell_length_b	26.321500
_cell_length_c	26.321500
_cell_angle_alpha	109.471000
_cell_angle_beta	109.471000
_cell_angle_gamma	109.471000
_symmetry_Int_Tables_number 1

loop_
_symmetry_equiv_pos_as_xyz
'x,y,z'

loop_
_atom_site_label
_atom_site_type_symbol
_atom_site_fract_x
_atom_site_fract_y
_atom_site_fract_z
Cu11	Cu1	0.261430	0.322480	0.199430
Cu21	Cu2	0.623050	0.062000	0.300570
Cu31	Cu3	0.876950	0.177520	0.438950
Cu41	Cu4	0.238570	0.438000	0.061050
Cu51	Cu5	0.938950	0.876950	0.677520
Cu61	Cu6	0.561050	0.238570	0.938000
Cu71	Cu7	0.699430	0.261430	0.822480
Cu81	Cu8	0.800570	0.623050	0.562000
Cu91	Cu9	0.062000	0.800570	0.123050
Cu101	Cu10	0.322480	0.699430	0.761430
Cu111	Cu11	0.438000	0.561050	0.738570
Cu121	Cu12	0.177520	0.938950	0.376950
Cu131	Cu13	0.562000	0.123050	0.800570
Cu141	Cu14	0.822480	0.761430	0.699430
Cu151	Cu15	0.938000	0.738570	0.561050
Cu161	Cu16	0.677520	0.376950	0.938950
Cu171	Cu17	0.761430	0.199430	0.322480
Cu181	Cu18	0.123050	0.300570	0.062000
Cu191	Cu19	0.376950	0.438950	0.177520
Cu201	Cu20	0.738570	0.061050	0.438000
Cu211	Cu21	0.438950	0.677520	0.876950
Cu221	Cu22	0.061050	0.938000	0.238570
Cu231	Cu23	0.199430	0.822480	0.261430
Cu241	Cu24	0.300570	0.562000	0.623050
Cu251	Cu25	0.250000	0.287390	0.037390
Cu261	Cu26	0.750000	0.212610	0.462610
Cu271	Cu27	0.962610	0.750000	0.712610
Cu281	Cu28	0.537390	0.250000	0.787390
Cu291	Cu29	0.212610	0.962610	0.250000
Cu301	Cu30	0.287390	0.537390	0.750000
Cu311	Cu31	0.712610	0.250000	0.962610
Cu321	Cu32	0.787390	0.750000	0.537390
Cu331	Cu33	0.750000	0.037390	0.287390
Cu341	Cu34	0.250000	0.462610	0.212610
Cu351	Cu35	0.462610	0.712610	0.750000
Cu361	Cu36	0.037390	0.787390	0.250000
H11	H1	0.398000	0.420300	0.324100
H21	H2	0.249500	0.315800	0.315300
H31	H3	0.324600	0.385000	0.424000
H41	H4	0.491900	0.462800	0.402300
H51	H5	0.292700	0.360400	0.969900
H61	H6	0.319400	0.229200	0.990400
H71	H7	0.351600	0.245300	0.916500
H81	H8	0.317700	0.399300	0.917600
H91	H9	0.596200	0.073900	0.175900
H101	H10	0.500500	0.934200	0.184700
H111	H11	0.461000	0.900600	0.076000
H121	H12	0.560500	0.089600	0.097700
H131	H13	0.890500	0.322800	0.530100
H141	H14	0.738800	0.329000	0.509600
H151	H15	0.828800	0.435100	0.583500
H161	H16	0.981700	0.400100	0.582400
H171	H17	0.903800	0.079700	0.477700
H181	H18	0.999500	0.184200	0.433700
H191	H19	0.039000	0.115000	0.439600
H201	H20	0.939500	0.037200	0.529100
H211	H21	0.609500	0.139600	0.432300
H221	H22	0.761200	0.270800	0.590200
H231	H23	0.671200	0.254700	0.606300
H241	H24	0.518300	0.100700	0.418400
H251	H25	0.102000	0.426100	0.022300
H261	H26	0.250500	0.565800	0.066300
H271	H27	0.175400	0.599400	0.060400
H281	H28	0.008100	0.410400	0.970900
H291	H29	0.207300	0.177200	0.067700
H301	H30	0.180600	0.171000	0.909800
H311	H31	0.148400	0.064900	0.893700
H321	H32	0.182300	0.099900	0.081600
H331	H33	0.977700	0.903800	0.579700
H341	H34	0.933700	0.999500	0.684200
H351	H35	0.939600	0.039000	0.615000
H361	H36	0.029100	0.939500	0.537200
H371	H37	0.932300	0.609500	0.639600
H381	H38	0.090200	0.761200	0.770800
H391	H39	0.106300	0.671200	0.754700
H401	H40	0.918400	0.518300	0.600700
H411	H41	0.522300	0.102000	0.926100
H421	H42	0.566300	0.250500	0.065800
H431	H43	0.560400	0.175400	0.099400
H441	H44	0.470900	0.008100	0.910400
H451	H45	0.567700	0.207300	0.677200
H461	H46	0.409800	0.180600	0.671000
H471	H47	0.393700	0.148400	0.564900
H481	H48	0.581600	0.182300	0.599900
H491	H49	0.824100	0.398000	0.920300
H501	H50	0.815300	0.249500	0.815800
H511	H51	0.924000	0.324600	0.885000
H521	H52	0.902300	0.491900	0.962800
H531	H53	0.469900	0.292700	0.860400
H541	H54	0.490400	0.319400	0.729200
H551	H55	0.416500	0.351600	0.745300
H561	H56	0.417600	0.317700	0.899300
H571	H57	0.675900	0.596200	0.573900
H581	H58	0.684700	0.500500	0.434200
H591	H59	0.576000	0.461000	0.400600
H601	H60	0.597700	0.560500	0.589600
H611	H61	0.030100	0.890500	0.822800
H621	H62	0.009600	0.738800	0.829000
H631	H63	0.083500	0.828800	0.935100
H641	H64	0.082400	0.981700	0.900100
H651	H65	0.073900	0.675900	0.096200
H661	H66	0.934200	0.684700	0.000500
H671	H67	0.900600	0.576000	0.961000
H681	H68	0.089600	0.597700	0.060500
H691	H69	0.322800	0.030100	0.390500
H701	H70	0.329000	0.009600	0.238800
H711	H71	0.435100	0.083500	0.328800
H721	H72	0.400100	0.082400	0.481700
H731	H73	0.420300	0.824100	0.898000
H741	H74	0.315800	0.815300	0.749500
H751	H75	0.385000	0.924000	0.824600
H761	H76	0.462800	0.902300	0.991900
H771	H77	0.360400	0.469900	0.792700
H781	H78	0.229200	0.490400	0.819400
H791	H79	0.245300	0.416500	0.851600
H801	H80	0.399300	0.417600	0.817700
H811	H81	0.426100	0.522300	0.602000
H821	H82	0.565800	0.566300	0.750500
H831	H83	0.599400	0.560400	0.675400
H841	H84	0.410400	0.470900	0.508100
H851	H85	0.177200	0.567700	0.707300
H861	H86	0.171000	0.409800	0.680600
H871	H87	0.064900	0.393700	0.648400
H881	H88	0.099900	0.581600	0.682300
H891	H89	0.079700	0.977700	0.403800
H901	H90	0.184200	0.933700	0.499500
H911	H91	0.115000	0.939600	0.539000
H921	H92	0.037200	0.029100	0.439500
H931	H93	0.139600	0.932300	0.109500
H941	H94	0.270800	0.090200	0.261200
H951	H95	0.254700	0.106300	0.171200
H961	H96	0.100700	0.918400	0.018300
H971	H97	0.573900	0.096200	0.675900
H981	H98	0.434200	0.000500	0.684700
H991	H99	0.400600	0.961000	0.576000
H1001	H100	0.589600	0.060500	0.597700
H1011	H101	0.822800	0.390500	0.030100
H1021	H102	0.829000	0.238800	0.009600
H1031	H103	0.935100	0.328800	0.083500
H1041	H104	0.900100	0.481700	0.082400
H1051	H105	0.920300	0.898000	0.824100
H1061	H106	0.815800	0.749500	0.815300
H1071	H107	0.885000	0.824600	0.924000
H1081	H108	0.962800	0.991900	0.902300
H1091	H109	0.860400	0.792700	0.469900
H1101	H110	0.729200	0.819400	0.490400
H1111	H111	0.745300	0.851600	0.416500
H1121	H112	0.899300	0.817700	0.417600
H1131	H113	0.926100	0.602000	0.522300
H1141	H114	0.065800	0.750500	0.566300
H1151	H115	0.099400	0.675400	0.560400
H1161	H116	0.910400	0.508100	0.470900
H1171	H117	0.677200	0.707300	0.567700
H1181	H118	0.671000	0.680600	0.409800
H1191	H119	0.564900	0.648400	0.393700
H1201	H120	0.599900	0.682300	0.581600
H1211	H121	0.579700	0.403800	0.977700
H1221	H122	0.684200	0.499500	0.933700
H1231	H123	0.615000	0.539000	0.939600
H1241	H124	0.537200	0.439500	0.029100
H1251	H125	0.639600	0.109500	0.932300
H1261	H126	0.770800	0.261200	0.090200
H1271	H127	0.754700	0.171200	0.106300
H1281	H128	0.600700	0.018300	0.918400
H1291	H129	0.898000	0.324100	0.420300
H1301	H130	0.749500	0.315300	0.315800
H1311	H131	0.824600	0.424000	0.385000
H1321	H132	0.991900	0.402300	0.462800
H1331	H133	0.792700	0.969900	0.360400
H1341	H134	0.819400	0.990400	0.229200
H1351	H135	0.851600	0.916500	0.245300
H1361	H136	0.817700	0.917600	0.399300
H1371	H137	0.096200	0.175900	0.073900
H1381	H138	0.000500	0.184700	0.934200
H1391	H139	0.961000	0.076000	0.900600
H1401	H140	0.060500	0.097700	0.089600
H1411	H141	0.390500	0.530100	0.322800
H1421	H142	0.238800	0.509600	0.329000
H1431	H143	0.328800	0.583500	0.435100
H1441	H144	0.481700	0.582400	0.400100
H1451	H145	0.403800	0.477700	0.079700
H1461	H146	0.499500	0.433700	0.184200
H1471	H147	0.539000	0.439600	0.115000
H1481	H148	0.439500	0.529100	0.037200
H1491	H149	0.109500	0.432300	0.139600
H1501	H150	0.261200	0.590200	0.270800
H1511	H151	0.171200	0.606300	0.254700
H1521	H152	0.018300	0.418400	0.100700
H1531	H153	0.602000	0.022300	0.426100
H1541	H154	0.750500	0.066300	0.565800
H1551	H155	0.675400	0.060400	0.599400
H1561	H156	0.508100	0.970900	0.410400
H1571	H157	0.707300	0.067700	0.177200
H1581	H158	0.680600	0.909800	0.171000
H1591	H159	0.648400	0.893700	0.064900
H1601	H160	0.682300	0.081600	0.099900
H1611	H161	0.477700	0.579700	0.903800
H1621	H162	0.433700	0.684200	0.999500
H1631	H163	0.439600	0.615000	0.039000
H1641	H164	0.529100	0.537200	0.939500
H1651	H165	0.432300	0.639600	0.609500
H1661	H166	0.590200	0.770800	0.761200
H1671	H167	0.606300	0.754700	0.671200
H1681	H168	0.418400	0.600700	0.518300
H1691	H169	0.022300	0.926100	0.102000
H1701	H170	0.066300	0.065800	0.250500
H1711	H171	0.060400	0.099400	0.175400
H1721	H172	0.970900	0.910400	0.008100
H1731	H173	0.067700	0.677200	0.207300
H1741	H174	0.909800	0.671000	0.180600
H1751	H175	0.893700	0.564900	0.148400
H1761	H176	0.081600	0.599900	0.182300
H1771	H177	0.324100	0.920300	0.398000
H1781	H178	0.315300	0.815800	0.249500
H1791	H179	0.424000	0.885000	0.324600
H1801	H180	0.402300	0.962800	0.491900
H1811	H181	0.969900	0.860400	0.292700
H1821	H182	0.990400	0.729200	0.319400
H1831	H183	0.916500	0.745300	0.351600
H1841	H184	0.917600	0.899300	0.317700
H1851	H185	0.175900	0.573900	0.596200
H1861	H186	0.184700	0.434200	0.500500
H1871	H187	0.076000	0.400600	0.461000
H1881	H188	0.097700	0.589600	0.560500
H1891	H189	0.530100	0.822800	0.890500
H1901	H190	0.509600	0.829000	0.738800
H1911	H191	0.583500	0.935100	0.828800
H1921	H192	0.582400	0.900100	0.981700
W11	W1	0.250000	0.375000	0.125000
W21	W2	0.750000	0.125000	0.375000
W31	W3	0.875000	0.750000	0.625000
W41	W4	0.625000	0.250000	0.875000
W51	W5	0.125000	0.875000	0.250000
W61	W6	0.375000	0.625000	0.750000
C11	C1	0.369300	0.404100	0.335600
C21	C2	0.288800	0.348100	0.330900
C31	C3	0.329900	0.383500	0.390400
C41	C4	0.442200	0.463500	0.446900
C51	C5	0.495100	0.478200	0.441300
C61	C6	0.301300	0.328100	0.963400
C71	C7	0.315500	0.255300	0.974600
C81	C8	0.335200	0.265900	0.936100
C91	C9	0.348600	0.338000	0.898600
C101	C10	0.332200	0.381700	0.892900
C111	C11	0.568500	0.033700	0.164400
C121	C12	0.517200	0.957900	0.169100
C131	C13	0.493100	0.939500	0.109600
C141	C14	0.516600	0.995300	0.053100
C151	C15	0.536900	0.053800	0.058700
C161	C16	0.864700	0.337900	0.536600
C171	C17	0.780700	0.340900	0.525400
C181	C18	0.829800	0.399100	0.563900
C191	C19	0.939400	0.450000	0.601400
C201	C20	0.988800	0.439300	0.607100
C211	C21	0.931500	0.095900	0.465200
C221	C22	0.982800	0.151900	0.440700
C231	C23	0.006900	0.116500	0.446400
C241	C24	0.983400	0.036500	0.478700
C251	C25	0.963100	0.021800	0.516900
C261	C26	0.635300	0.171900	0.473200
C271	C27	0.719300	0.244700	0.560200
C281	C28	0.670200	0.234100	0.569300
C291	C29	0.560600	0.162000	0.510600
C301	C30	0.511200	0.118300	0.450500
C311	C31	0.130700	0.466300	0.034800
C321	C32	0.211200	0.542100	0.059300
C331	C33	0.170100	0.560500	0.053600
C341	C34	0.057800	0.504700	0.021300
C351	C35	0.004900	0.446200	0.983100
C361	C36	0.198700	0.162100	0.026800
C371	C37	0.184500	0.159100	0.939800
C381	C38	0.164800	0.100900	0.930700
C391	C39	0.151400	0.050000	0.989400
C401	C40	0.167800	0.060700	0.049500
C411	C41	0.965200	0.931500	0.595900
C421	C42	0.940700	0.982800	0.651900
C431	C43	0.946400	0.006900	0.616500
C441	C44	0.978700	0.983400	0.536500
C451	C45	0.016900	0.963100	0.521800
C461	C46	0.973200	0.635300	0.671900
C471	C47	0.060200	0.719300	0.744700
C481	C48	0.069300	0.670200	0.734100
C491	C49	0.010600	0.560600	0.662000
C501	C50	0.950500	0.511200	0.618300
C511	C51	0.534800	0.130700	0.966300
C521	C52	0.559300	0.211200	0.042100
C531	C53	0.553600	0.170100	0.060500
C541	C54	0.521300	0.057800	0.004700
C551	C55	0.483100	0.004900	0.946200
C561	C56	0.526800	0.198700	0.662100
C571	C57	0.439800	0.184500	0.659100
C581	C58	0.430700	0.164800	0.600900
C591	C59	0.489400	0.151400	0.550000
C601	C60	0.549500	0.167800	0.560700
C611	C61	0.835600	0.369300	0.904100
C621	C62	0.830900	0.288800	0.848100
C631	C63	0.890400	0.329900	0.883500
C641	C64	0.946900	0.442200	0.963500
C651	C65	0.941300	0.495100	0.978200
C661	C66	0.463400	0.301300	0.828100
C671	C67	0.474600	0.315500	0.755300
C681	C68	0.436100	0.335200	0.765900
C691	C69	0.398600	0.348600	0.838000
C701	C70	0.392900	0.332200	0.881700
C711	C71	0.664400	0.568500	0.533700
C721	C72	0.669100	0.517200	0.457900
C731	C73	0.609600	0.493100	0.439500
C741	C74	0.553100	0.516600	0.495300
C751	C75	0.558700	0.536900	0.553800
C761	C76	0.036600	0.864700	0.837900
C771	C77	0.025400	0.780700	0.840900
C781	C78	0.063900	0.829800	0.899100
C791	C79	0.101400	0.939400	0.950000
C801	C80	0.107100	0.988800	0.939300
C811	C81	0.033700	0.664400	0.068500
C821	C82	0.957900	0.669100	0.017200
C831	C83	0.939500	0.609600	0.993100
C841	C84	0.995300	0.553100	0.016600
C851	C85	0.053800	0.558700	0.036900
C861	C86	0.337900	0.036600	0.364700
C871	C87	0.340900	0.025400	0.280700
C881	C88	0.399100	0.063900	0.329800
C891	C89	0.450000	0.101400	0.439400
C901	C90	0.439300	0.107100	0.488800
C911	C91	0.404100	0.835600	0.869300
C921	C92	0.348100	0.830900	0.788800
C931	C93	0.383500	0.890400	0.829900
C941	C94	0.463500	0.946900	0.942200
C951	C95	0.478200	0.941300	0.995100
C961	C96	0.328100	0.463400	0.801300
C971	C97	0.255300	0.474600	0.815500
C981	C98	0.265900	0.436100	0.835200
C991	C99	0.338000	0.398600	0.848600
C1001	C100	0.381700	0.392900	0.832200
C1011	C101	0.466300	0.534800	0.630700
C1021	C102	0.542100	0.559300	0.711200
C1031	C103	0.560500	0.553600	0.670100
C1041	C104	0.504700	0.521300	0.557800
C1051	C105	0.446200	0.483100	0.504900
C1061	C106	0.162100	0.526800	0.698700
C1071	C107	0.159100	0.439800	0.684500
C1081	C108	0.100900	0.430700	0.664800
C1091	C109	0.050000	0.489400	0.651400
C1101	C110	0.060700	0.549500	0.667800
C1111	C111	0.095900	0.965200	0.431500
C1121	C112	0.151900	0.940700	0.482800
C1131	C113	0.116500	0.946400	0.506900
C1141	C114	0.036500	0.978700	0.483400
C1151	C115	0.021800	0.016900	0.463100
C1161	C116	0.171900	0.973200	0.135300
C1171	C117	0.244700	0.060200	0.219300
C1181	C118	0.234100	0.069300	0.170200
C1191	C119	0.162000	0.010600	0.060600
C1201	C120	0.118300	0.950500	0.011200
C1211	C121	0.533700	0.068500	0.664400
C1221	C122	0.457900	0.017200	0.669100
C1231	C123	0.439500	0.993100	0.609600
C1241	C124	0.495300	0.016600	0.553100
C1251	C125	0.553800	0.036900	0.558700
C1261	C126	0.837900	0.364700	0.036600
C1271	C127	0.840900	0.280700	0.025400
C1281	C128	0.899100	0.329800	0.063900
C1291	C129	0.950000	0.439400	0.101400
C1301	C130	0.939300	0.488800	0.107100
C1311	C131	0.904100	0.869300	0.835600
C1321	C132	0.848100	0.788800	0.830900
C1331	C133	0.883500	0.829900	0.890400
C1341	C134	0.963500	0.942200	0.946900
C1351	C135	0.978200	0.995100	0.941300
C1361	C136	0.828100	0.801300	0.463400
C1371	C137	0.755300	0.815500	0.474600
C1381	C138	0.765900	0.835200	0.436100
C1391	C139	0.838000	0.848600	0.398600
C1401	C140	0.881700	0.832200	0.392900
C1411	C141	0.966300	0.630700	0.534800
C1421	C142	0.042100	0.711200	0.559300
C1431	C143	0.060500	0.670100	0.553600
C1441	C144	0.004700	0.557800	0.521300
C1451	C145	0.946200	0.504900	0.483100
C1461	C146	0.662100	0.698700	0.526800
C1471	C147	0.659100	0.684500	0.439800
C1481	C148	0.600900	0.664800	0.430700
C1491	C149	0.550000	0.651400	0.489400
C1501	C150	0.560700	0.667800	0.549500
C1511	C151	0.595900	0.431500	0.965200
C1521	C152	0.651900	0.482800	0.940700
C1531	C153	0.616500	0.506900	0.946400
C1541	C154	0.536500	0.483400	0.978700
C1551	C155	0.521800	0.463100	0.016900
C1561	C156	0.671900	0.135300	0.973200
C1571	C157	0.744700	0.219300	0.060200
C1581	C158	0.734100	0.170200	0.069300
C1591	C159	0.662000	0.060600	0.010600
C1601	C160	0.618300	0.011200	0.950500
C1611	C161	0.869300	0.335600	0.404100
C1621	C162	0.788800	0.330900	0.348100
C1631	C163	0.829900	0.390400	0.383500
C1641	C164	0.942200	0.446900	0.463500
C1651	C165	0.995100	0.441300	0.478200
C1661	C166	0.801300	0.963400	0.328100
C1671	C167	0.815500	0.974600	0.255300
C1681	C168	0.835200	0.936100	0.265900
C1691	C169	0.848600	0.898600	0.338000
C1701	C170	0.832200	0.892900	0.381700
C1711	C171	0.068500	0.164400	0.033700
C1721	C172	0.017200	0.169100	0.957900
C1731	C173	0.993100	0.109600	0.939500
C1741	C174	0.016600	0.053100	0.995300
C1751	C175	0.036900	0.058700	0.053800
C1761	C176	0.364700	0.536600	0.337900
C1771	C177	0.280700	0.525400	0.340900
C1781	C178	0.329800	0.563900	0.399100
C1791	C179	0.439400	0.601400	0.450000
C1801	C180	0.488800	0.607100	0.439300
C1811	C181	0.431500	0.465200	0.095900
C1821	C182	0.482800	0.440700	0.151900
C1831	C183	0.506900	0.446400	0.116500
C1841	C184	0.483400	0.478700	0.036500
C1851	C185	0.463100	0.516900	0.021800
C1861	C186	0.135300	0.473200	0.171900
C1871	C187	0.219300	0.560200	0.244700
C1881	C188	0.170200	0.569300	0.234100
C1891	C189	0.060600	0.510600	0.162000
C1901	C190	0.011200	0.450500	0.118300
C1911	C191	0.630700	0.034800	0.466300
C1921	C192	0.711200	0.059300	0.542100
C1931	C193	0.670100	0.053600	0.560500
C1941	C194	0.557800	0.021300	0.504700
C1951	C195	0.504900	0.983100	0.446200
C1961	C196	0.698700	0.026800	0.162100
C1971	C197	0.684500	0.939800	0.159100
C1981	C198	0.664800	0.930700	0.100900
C1991	C199	0.651400	0.989400	0.050000
C2001	C200	0.667800	0.049500	0.060700
C2011	C201	0.465200	0.595900	0.931500
C2021	C202	0.440700	0.651900	0.982800
C2031	C203	0.446400	0.616500	0.006900
C2041	C204	0.478700	0.536500	0.983400
C2051	C205	0.516900	0.521800	0.963100
C2061	C206	0.473200	0.671900	0.635300
C2071	C207	0.560200	0.744700	0.719300
C2081	C208	0.569300	0.734100	0.670200
C2091	C209	0.510600	0.662000	0.560600
C2101	C210	0.450500	0.618300	0.511200
C2111	C211	0.034800	0.966300	0.130700
C2121	C212	0.059300	0.042100	0.211200
C2131	C213	0.053600	0.060500	0.170100
C2141	C214	0.021300	0.004700	0.057800
C2151	C215	0.983100	0.946200	0.004900
C2161	C216	0.026800	0.662100	0.198700
C2171	C217	0.939800	0.659100	0.184500
C2181	C218	0.930700	0.600900	0.164800
C2191	C219	0.989400	0.550000	0.151400
C2201	C220	0.049500	0.560700	0.167800
C2211	C221	0.335600	0.904100	0.369300
C2221	C222	0.330900	0.848100	0.288800
C2231	C223	0.390400	0.883500	0.329900
C2241	C224	0.446900	0.963500	0.442200
C2251	C225	0.441300	0.978200	0.495100
C2261	C226	0.963400	0.828100	0.301300
C2271	C227	0.974600	0.755300	0.315500
C2281	C228	0.936100	0.765900	0.335200
C2291	C229	0.898600	0.838000	0.348600
C2301	C230	0.892900	0.881700	0.332200
C2311	C231	0.164400	0.533700	0.568500
C2321	C232	0.169100	0.457900	0.517200
C2331	C233	0.109600	0.439500	0.493100
C2341	C234	0.053100	0.495300	0.516600
C2351	C235	0.058700	0.553800	0.536900
C2361	C236	0.536600	0.837900	0.864700
C2371	C237	0.525400	0.840900	0.780700
C2381	C238	0.563900	0.899100	0.829800
C2391	C239	0.601400	0.950000	0.939400
C2401	C240	0.607100	0.939300	0.988800
S11	S1	0.311080	0.334620	0.142520
S21	S2	0.692100	0.168560	0.357480
S31	S3	0.807900	0.165380	0.476460
S41	S4	0.188920	0.331440	0.023540
S51	S5	0.976460	0.807900	0.665380
S61	S6	0.523540	0.188920	0.831440
S71	S7	0.642520	0.311080	0.834620
S81	S8	0.857480	0.692100	0.668560
S91	S9	0.168560	0.857480	0.192100
S101	S10	0.334620	0.642520	0.811080
S111	S11	0.331440	0.523540	0.688920
S121	S12	0.165380	0.976460	0.307900
S131	S13	0.668560	0.192100	0.857480
S141	S14	0.834620	0.811080	0.642520
S151	S15	0.831440	0.688920	0.523540
S161	S16	0.665380	0.307900	0.976460
S171	S17	0.811080	0.142520	0.334620
S181	S18	0.192100	0.357480	0.168560
S191	S19	0.307900	0.476460	0.165380
S201	S20	0.688920	0.023540	0.331440
S211	S21	0.476460	0.665380	0.807900
S221	S22	0.023540	0.831440	0.188920
S231	S23	0.142520	0.834620	0.311080
S241	S24	0.357480	0.668560	0.692100
Br11	Br1	0.206120	0.214400	0.173860
Br21	Br2	0.540540	0.032260	0.326140
Br31	Br3	0.959460	0.285600	0.491720
Br41	Br4	0.293880	0.467740	0.008280
Br51	Br5	0.991720	0.959460	0.785600
Br61	Br6	0.508280	0.293880	0.967740
Br71	Br7	0.673860	0.206120	0.714400
Br81	Br8	0.826140	0.540540	0.532260
Br91	Br9	0.032260	0.826140	0.040540
Br101	Br10	0.214400	0.673860	0.706120
Br111	Br11	0.467740	0.508280	0.793880
Br121	Br12	0.285600	0.991720	0.459460
Br131	Br13	0.532260	0.040540	0.826140
Br141	Br14	0.714400	0.706120	0.673860
Br151	Br15	0.967740	0.793880	0.508280
Br161	Br16	0.785600	0.459460	0.991720
Br171	Br17	0.706120	0.173860	0.214400
Br181	Br18	0.040540	0.326140	0.032260
Br191	Br19	0.459460	0.491720	0.285600
Br201	Br20	0.793880	0.008280	0.467740
Br211	Br21	0.491720	0.785600	0.959460
Br221	Br22	0.008280	0.967740	0.293880
Br231	Br23	0.173860	0.714400	0.206120
Br241	Br24	0.326140	0.532260	0.540540
N11	N1	0.309890	0.363830	0.293940
N21	N2	0.385150	0.419660	0.391490
N31	N3	0.289780	0.289810	0.985310
N41	N4	0.326380	0.312470	0.931630
N51	N5	0.569890	0.015950	0.206060
N61	N6	0.528170	0.993660	0.108510
N71	N7	0.804500	0.304470	0.514690
N81	N8	0.880840	0.394750	0.568370
N91	N9	0.930110	0.136170	0.446060
N101	N10	0.971830	0.080340	0.465490
N111	N11	0.695500	0.210190	0.499970
N121	N12	0.619160	0.187530	0.513910
N131	N13	0.190110	0.484050	0.053940
N141	N14	0.114850	0.506340	0.034510
N151	N15	0.210220	0.195530	0.000030
N161	N16	0.173620	0.105250	0.986090
N171	N17	0.946060	0.930110	0.636170
N181	N18	0.965490	0.971830	0.580340
N191	N19	0.999970	0.695500	0.710190
N201	N20	0.013910	0.619160	0.687530
N211	N21	0.553940	0.190110	0.984050
N221	N22	0.534510	0.114850	0.006340
N231	N23	0.500030	0.210220	0.695530
N241	N24	0.486090	0.173620	0.605250
N251	N25	0.793940	0.309890	0.863830
N261	N26	0.891490	0.385150	0.919660
N271	N27	0.485310	0.289780	0.789810
N281	N28	0.431630	0.326380	0.812470
N291	N29	0.706060	0.569890	0.515950
N301	N30	0.608510	0.528170	0.493660
N311	N31	0.014690	0.804500	0.804470
N321	N32	0.068370	0.880840	0.894750
N331	N33	0.015950	0.706060	0.069890
N341	N34	0.993660	0.608510	0.028170
N351	N35	0.304470	0.014690	0.304500
N361	N36	0.394750	0.068370	0.380840
N371	N37	0.363830	0.793940	0.809890
N381	N38	0.419660	0.891490	0.885150
N391	N39	0.289810	0.485310	0.789780
N401	N40	0.312470	0.431630	0.826380
N411	N41	0.484050	0.553940	0.690110
N421	N42	0.506340	0.534510	0.614850
N431	N43	0.195530	0.500030	0.710220
N441	N44	0.105250	0.486090	0.673620
N451	N45	0.136170	0.946060	0.430110
N461	N46	0.080340	0.965490	0.471830
N471	N47	0.210190	0.999970	0.195500
N481	N48	0.187530	0.013910	0.119160
N491	N49	0.515950	0.069890	0.706060
N501	N50	0.493660	0.028170	0.608510
N511	N51	0.804470	0.304500	0.014690
N521	N52	0.894750	0.380840	0.068370
N531	N53	0.863830	0.809890	0.793940
N541	N54	0.919660	0.885150	0.891490
N551	N55	0.789810	0.789780	0.485310
N561	N56	0.812470	0.826380	0.431630
N571	N57	0.984050	0.690110	0.553940
N581	N58	0.006340	0.614850	0.534510
N591	N59	0.695530	0.710220	0.500030
N601	N60	0.605250	0.673620	0.486090
N611	N61	0.636170	0.430110	0.946060
N621	N62	0.580340	0.471830	0.965490
N631	N63	0.710190	0.195500	0.999970
N641	N64	0.687530	0.119160	0.013910
N651	N65	0.809890	0.293940	0.363830
N661	N66	0.885150	0.391490	0.419660
N671	N67	0.789780	0.985310	0.289810
N681	N68	0.826380	0.931630	0.312470
N691	N69	0.069890	0.206060	0.015950
N701	N70	0.028170	0.108510	0.993660
N711	N71	0.304500	0.514690	0.304470
N721	N72	0.380840	0.568370	0.394750
N731	N73	0.430110	0.446060	0.136170
N741	N74	0.471830	0.465490	0.080340
N751	N75	0.195500	0.499970	0.210190
N761	N76	0.119160	0.513910	0.187530
N771	N77	0.690110	0.053940	0.484050
N781	N78	0.614850	0.034510	0.506340
N791	N79	0.710220	0.000030	0.195530
N801	N80	0.673620	0.986090	0.105250
N811	N81	0.446060	0.636170	0.930110
N821	N82	0.465490	0.580340	0.971830
N831	N83	0.499970	0.710190	0.695500
N841	N84	0.513910	0.687530	0.619160
N851	N85	0.053940	0.984050	0.190110
N861	N86	0.034510	0.006340	0.114850
N871	N87	0.000030	0.695530	0.210220
N881	N88	0.986090	0.605250	0.173620
N891	N89	0.293940	0.863830	0.309890
N901	N90	0.391490	0.919660	0.385150
N911	N91	0.985310	0.789810	0.289780
N921	N92	0.931630	0.812470	0.326380
N931	N93	0.206060	0.515950	0.569890
N941	N94	0.108510	0.493660	0.528170
N951	N95	0.514690	0.804470	0.804500
N961	N96	0.568370	0.894750	0.880840
