data_NUHZAS_clean_PM
_symmetry_space_group_name_H-M	'P1'
_cell_length_a	19.619000
_cell_length_b	15.511600
_cell_length_c	13.286200
_cell_angle_alpha	90.000000
_cell_angle_beta	94.343000
_cell_angle_gamma	90.000000
_symmetry_Int_Tables_number 1

loop_
_symmetry_equiv_pos_as_xyz
'x,y,z'

loop_
_atom_site_label
_atom_site_type_symbol
_atom_site_fract_x
_atom_site_fract_y
_atom_site_fract_z
Zn11	Zn1	0.268160	0.041660	0.660580
O11	O1	0.330600	0.951700	0.707100
O21	O2	0.249000	0.903600	0.798000
O31	O3	0.325200	0.982300	0.976400
O41	O4	0.311600	0.872600	0.077500
O51	O5	0.546500	0.625500	0.819100
N11	N1	0.172100	0.018400	0.599500
N21	N2	0.258300	0.119000	0.785400
C11	C1	0.309400	0.904300	0.775800
C21	C2	0.362100	0.848700	0.829100
C31	C3	0.402300	0.794200	0.774300
H11	H1	0.395700	0.792900	0.704300
C41	C4	0.451600	0.742500	0.822700
C51	C5	0.462700	0.743200	0.924600
H21	H2	0.496800	0.709100	0.956500
C61	C6	0.422700	0.795200	0.980500
H31	H3	0.429900	0.795100	0.050500
C71	C7	0.372400	0.847100	0.935300
C81	C8	0.333000	0.906500	0.998600
C91	C9	0.126900	0.972600	0.645500
H41	H4	0.141300	0.944900	0.705400
C101	C10	0.059200	0.963500	0.609300
H51	H5	0.029000	0.931200	0.644800
C111	C11	0.037500	0.002800	0.520800
C121	C12	0.084100	0.050000	0.472100
H61	H6	0.071200	0.076600	0.410900
C131	C13	0.149700	0.057800	0.513800
H71	H7	0.180100	0.092000	0.481100
C141	C14	0.208600	0.115600	0.842700
H81	H8	0.173100	0.077600	0.824500
C151	C15	0.203300	0.162900	0.927400
H91	H9	0.166400	0.154800	0.966200
C161	C16	0.251900	0.221900	0.955500
C171	C17	0.285100	0.255600	0.870400
C181	C18	0.288500	0.198200	0.788400
C191	C19	0.320300	0.200300	0.915400
C201	C20	0.319800	0.146800	0.830800
Zn21	Zn2	0.768160	0.541660	0.660580
O61	O6	0.830600	0.451700	0.707100
O71	O7	0.749000	0.403600	0.798000
O81	O8	0.825200	0.482300	0.976400
O91	O9	0.811600	0.372600	0.077500
O101	O10	0.046500	0.125500	0.819100
N31	N3	0.672100	0.518400	0.599500
N41	N4	0.758300	0.619000	0.785400
C211	C21	0.809400	0.404300	0.775800
C221	C22	0.862100	0.348700	0.829100
C231	C23	0.902300	0.294200	0.774300
H101	H10	0.895700	0.292900	0.704300
C241	C24	0.951600	0.242500	0.822700
C251	C25	0.962700	0.243200	0.924600
H111	H11	0.996800	0.209100	0.956500
C261	C26	0.922700	0.295200	0.980500
H121	H12	0.929900	0.295100	0.050500
C271	C27	0.872400	0.347100	0.935300
C281	C28	0.833000	0.406500	0.998600
C291	C29	0.626900	0.472600	0.645500
H131	H13	0.641300	0.444900	0.705400
C301	C30	0.559200	0.463500	0.609300
H141	H14	0.529000	0.431200	0.644800
C311	C31	0.537500	0.502800	0.520800
C321	C32	0.584100	0.550000	0.472100
H151	H15	0.571200	0.576600	0.410900
C331	C33	0.649700	0.557800	0.513800
H161	H16	0.680100	0.592000	0.481100
C341	C34	0.708600	0.615600	0.842700
H171	H17	0.673100	0.577600	0.824500
C351	C35	0.703300	0.662900	0.927400
H181	H18	0.666400	0.654800	0.966200
C361	C36	0.751900	0.721900	0.955500
C371	C37	0.785100	0.755600	0.870400
C381	C38	0.788500	0.698200	0.788400
C391	C39	0.820300	0.700300	0.915400
C401	C40	0.819800	0.646800	0.830800
Zn31	Zn3	0.731840	0.041660	0.839420
O111	O11	0.669400	0.951700	0.792900
O121	O12	0.751000	0.903600	0.702000
O131	O13	0.674800	0.982300	0.523600
O141	O14	0.688400	0.872600	0.422500
O151	O15	0.453500	0.625500	0.680900
N51	N5	0.827900	0.018400	0.900500
N61	N6	0.741700	0.119000	0.714600
C411	C41	0.690600	0.904300	0.724200
C421	C42	0.637900	0.848700	0.670900
C431	C43	0.597700	0.794200	0.725700
H191	H19	0.604300	0.792900	0.795700
C441	C44	0.548400	0.742500	0.677300
C451	C45	0.537300	0.743200	0.575400
H201	H20	0.503200	0.709100	0.543500
C461	C46	0.577300	0.795200	0.519500
H211	H21	0.570100	0.795100	0.449500
C471	C47	0.627600	0.847100	0.564700
C481	C48	0.667000	0.906500	0.501400
C491	C49	0.873100	0.972600	0.854500
H221	H22	0.858700	0.944900	0.794600
C501	C50	0.940800	0.963500	0.890700
H231	H23	0.971000	0.931200	0.855200
C511	C51	0.962500	0.002800	0.979200
C521	C52	0.915900	0.050000	0.027900
H241	H24	0.928800	0.076600	0.089100
C531	C53	0.850300	0.057800	0.986200
H251	H25	0.819900	0.092000	0.018900
C541	C54	0.791400	0.115600	0.657300
H261	H26	0.826900	0.077600	0.675500
C551	C55	0.796700	0.162900	0.572600
H271	H27	0.833600	0.154800	0.533800
C561	C56	0.748100	0.221900	0.544500
C571	C57	0.714900	0.255600	0.629600
C581	C58	0.711500	0.198200	0.711600
C591	C59	0.679700	0.200300	0.584600
C601	C60	0.680200	0.146800	0.669200
Zn41	Zn4	0.231840	0.541660	0.839420
O161	O16	0.169400	0.451700	0.792900
O171	O17	0.251000	0.403600	0.702000
O181	O18	0.174800	0.482300	0.523600
O191	O19	0.188400	0.372600	0.422500
O201	O20	0.953500	0.125500	0.680900
N71	N7	0.327900	0.518400	0.900500
N81	N8	0.241700	0.619000	0.714600
C611	C61	0.190600	0.404300	0.724200
C621	C62	0.137900	0.348700	0.670900
C631	C63	0.097700	0.294200	0.725700
H281	H28	0.104300	0.292900	0.795700
C641	C64	0.048400	0.242500	0.677300
C651	C65	0.037300	0.243200	0.575400
H291	H29	0.003200	0.209100	0.543500
C661	C66	0.077300	0.295200	0.519500
H301	H30	0.070100	0.295100	0.449500
C671	C67	0.127600	0.347100	0.564700
C681	C68	0.167000	0.406500	0.501400
C691	C69	0.373100	0.472600	0.854500
H311	H31	0.358700	0.444900	0.794600
C701	C70	0.440800	0.463500	0.890700
H321	H32	0.471000	0.431200	0.855200
C711	C71	0.462500	0.502800	0.979200
C721	C72	0.415900	0.550000	0.027900
H331	H33	0.428800	0.576600	0.089100
C731	C73	0.350300	0.557800	0.986200
H341	H34	0.319900	0.592000	0.018900
C741	C74	0.291400	0.615600	0.657300
H351	H35	0.326900	0.577600	0.675500
C751	C75	0.296700	0.662900	0.572600
H361	H36	0.333600	0.654800	0.533800
C761	C76	0.248100	0.721900	0.544500
C771	C77	0.214900	0.755600	0.629600
C781	C78	0.211500	0.698200	0.711600
C791	C79	0.179700	0.700300	0.584600
C801	C80	0.180200	0.646800	0.669200
Zn51	Zn5	0.731840	0.958340	0.339420
O211	O21	0.669400	0.048300	0.292900
O221	O22	0.751000	0.096400	0.202000
O231	O23	0.674800	0.017700	0.023600
O241	O24	0.688400	0.127400	0.922500
O251	O25	0.453500	0.374500	0.180900
N91	N9	0.827900	0.981600	0.400500
N101	N10	0.741700	0.881000	0.214600
C811	C81	0.690600	0.095700	0.224200
C821	C82	0.637900	0.151300	0.170900
C831	C83	0.597700	0.205800	0.225700
H371	H37	0.604300	0.207100	0.295700
C841	C84	0.548400	0.257500	0.177300
C851	C85	0.537300	0.256800	0.075400
H381	H38	0.503200	0.290900	0.043500
C861	C86	0.577300	0.204800	0.019500
H391	H39	0.570100	0.204900	0.949500
C871	C87	0.627600	0.152900	0.064700
C881	C88	0.667000	0.093500	0.001400
C891	C89	0.873100	0.027400	0.354500
H401	H40	0.858700	0.055100	0.294600
C901	C90	0.940800	0.036500	0.390700
H411	H41	0.971000	0.068800	0.355200
C911	C91	0.962500	0.997200	0.479200
C921	C92	0.915900	0.950000	0.527900
H421	H42	0.928800	0.923400	0.589100
C931	C93	0.850300	0.942200	0.486200
H431	H43	0.819900	0.908000	0.518900
C941	C94	0.791400	0.884400	0.157300
H441	H44	0.826900	0.922400	0.175500
C951	C95	0.796700	0.837100	0.072600
H451	H45	0.833600	0.845200	0.033800
C961	C96	0.748100	0.778100	0.044500
C971	C97	0.714900	0.744400	0.129600
C981	C98	0.711500	0.801800	0.211600
C991	C99	0.679700	0.799700	0.084600
C1001	C100	0.680200	0.853200	0.169200
Zn61	Zn6	0.231840	0.458340	0.339420
O261	O26	0.169400	0.548300	0.292900
O271	O27	0.251000	0.596400	0.202000
O281	O28	0.174800	0.517700	0.023600
O291	O29	0.188400	0.627400	0.922500
O301	O30	0.953500	0.874500	0.180900
N111	N11	0.327900	0.481600	0.400500
N121	N12	0.241700	0.381000	0.214600
C1011	C101	0.190600	0.595700	0.224200
C1021	C102	0.137900	0.651300	0.170900
C1031	C103	0.097700	0.705800	0.225700
H461	H46	0.104300	0.707100	0.295700
C1041	C104	0.048400	0.757500	0.177300
C1051	C105	0.037300	0.756800	0.075400
H471	H47	0.003200	0.790900	0.043500
C1061	C106	0.077300	0.704800	0.019500
H481	H48	0.070100	0.704900	0.949500
C1071	C107	0.127600	0.652900	0.064700
C1081	C108	0.167000	0.593500	0.001400
C1091	C109	0.373100	0.527400	0.354500
H491	H49	0.358700	0.555100	0.294600
C1101	C110	0.440800	0.536500	0.390700
H501	H50	0.471000	0.568800	0.355200
C1111	C111	0.462500	0.497200	0.479200
C1121	C112	0.415900	0.450000	0.527900
H511	H51	0.428800	0.423400	0.589100
C1131	C113	0.350300	0.442200	0.486200
H521	H52	0.319900	0.408000	0.518900
C1141	C114	0.291400	0.384400	0.157300
H531	H53	0.326900	0.422400	0.175500
C1151	C115	0.296700	0.337100	0.072600
H541	H54	0.333600	0.345200	0.033800
C1161	C116	0.248100	0.278100	0.044500
C1171	C117	0.214900	0.244400	0.129600
C1181	C118	0.211500	0.301800	0.211600
C1191	C119	0.179700	0.299700	0.084600
C1201	C120	0.180200	0.353200	0.169200
Zn71	Zn7	0.268160	0.958340	0.160580
O311	O31	0.330600	0.048300	0.207100
O321	O32	0.249000	0.096400	0.298000
O331	O33	0.325200	0.017700	0.476400
O341	O34	0.311600	0.127400	0.577500
O351	O35	0.546500	0.374500	0.319100
N131	N13	0.172100	0.981600	0.099500
N141	N14	0.258300	0.881000	0.285400
C1211	C121	0.309400	0.095700	0.275800
C1221	C122	0.362100	0.151300	0.329100
C1231	C123	0.402300	0.205800	0.274300
H551	H55	0.395700	0.207100	0.204300
C1241	C124	0.451600	0.257500	0.322700
C1251	C125	0.462700	0.256800	0.424600
H561	H56	0.496800	0.290900	0.456500
C1261	C126	0.422700	0.204800	0.480500
H571	H57	0.429900	0.204900	0.550500
C1271	C127	0.372400	0.152900	0.435300
C1281	C128	0.333000	0.093500	0.498600
C1291	C129	0.126900	0.027400	0.145500
H581	H58	0.141300	0.055100	0.205400
C1301	C130	0.059200	0.036500	0.109300
H591	H59	0.029000	0.068800	0.144800
C1311	C131	0.037500	0.997200	0.020800
C1321	C132	0.084100	0.950000	0.972100
H601	H60	0.071200	0.923400	0.910900
C1331	C133	0.149700	0.942200	0.013800
H611	H61	0.180100	0.908000	0.981100
C1341	C134	0.208600	0.884400	0.342700
H621	H62	0.173100	0.922400	0.324500
C1351	C135	0.203300	0.837100	0.427400
H631	H63	0.166400	0.845200	0.466200
C1361	C136	0.251900	0.778100	0.455500
C1371	C137	0.285100	0.744400	0.370400
C1381	C138	0.288500	0.801800	0.288400
C1391	C139	0.320300	0.799700	0.415400
C1401	C140	0.319800	0.853200	0.330800
Zn81	Zn8	0.768160	0.458340	0.160580
O361	O36	0.830600	0.548300	0.207100
O371	O37	0.749000	0.596400	0.298000
O381	O38	0.825200	0.517700	0.476400
O391	O39	0.811600	0.627400	0.577500
O401	O40	0.046500	0.874500	0.319100
N151	N15	0.672100	0.481600	0.099500
N161	N16	0.758300	0.381000	0.285400
C1411	C141	0.809400	0.595700	0.275800
C1421	C142	0.862100	0.651300	0.329100
C1431	C143	0.902300	0.705800	0.274300
H641	H64	0.895700	0.707100	0.204300
C1441	C144	0.951600	0.757500	0.322700
C1451	C145	0.962700	0.756800	0.424600
H651	H65	0.996800	0.790900	0.456500
C1461	C146	0.922700	0.704800	0.480500
H661	H66	0.929900	0.704900	0.550500
C1471	C147	0.872400	0.652900	0.435300
C1481	C148	0.833000	0.593500	0.498600
C1491	C149	0.626900	0.527400	0.145500
H671	H67	0.641300	0.555100	0.205400
C1501	C150	0.559200	0.536500	0.109300
H681	H68	0.529000	0.568800	0.144800
C1511	C151	0.537500	0.497200	0.020800
C1521	C152	0.584100	0.450000	0.972100
H691	H69	0.571200	0.423400	0.910900
C1531	C153	0.649700	0.442200	0.013800
H701	H70	0.680100	0.408000	0.981100
C1541	C154	0.708600	0.384400	0.342700
H711	H71	0.673100	0.422400	0.324500
C1551	C155	0.703300	0.337100	0.427400
H721	H72	0.666400	0.345200	0.466200
C1561	C156	0.751900	0.278100	0.455500
C1571	C157	0.785100	0.244400	0.370400
C1581	C158	0.788500	0.301800	0.288400
C1591	C159	0.820300	0.299700	0.415400
C1601	C160	0.819800	0.353200	0.330800
S11	S1	0.500000	0.672900	0.750000
S21	S2	0.000000	0.172900	0.750000
S31	S3	0.500000	0.327100	0.250000
S41	S4	0.000000	0.827100	0.250000
