data_NUJCEA_clean_PM
_symmetry_space_group_name_H-M	'P1'
_cell_length_a	13.838000
_cell_length_b	26.893000
_cell_length_c	7.543000
_cell_angle_alpha	90.000000
_cell_angle_beta	90.000000
_cell_angle_gamma	90.920000
_symmetry_Int_Tables_number 1

loop_
_symmetry_equiv_pos_as_xyz
'x,y,z'

loop_
_atom_site_label
_atom_site_type_symbol
_atom_site_fract_x
_atom_site_fract_y
_atom_site_fract_z
Cd11	Cd1	0.265920	0.369600	0.379520
Cd21	Cd2	0.191540	0.637030	0.379370
Ni11	Ni1	0.196690	0.500060	0.872300
Ni21	Ni2	0.995900	0.236060	0.260400
N11	N1	0.222000	0.421500	0.148000
N21	N2	0.209700	0.422700	0.587000
N31	N3	0.130200	0.318400	0.372000
N41	N4	0.334200	0.316200	0.602000
N51	N5	0.326600	0.313900	0.157000
N61	N6	0.428800	0.392430	0.338000
N71	N7	0.205200	0.575700	0.163000
N81	N8	0.186100	0.582100	0.604000
N91	N9	0.853400	0.157900	0.130000
N101	N10	0.832100	0.293000	0.420000
N111	N11	0.168700	0.694400	0.144000
N121	N12	0.023800	0.634600	0.326000
C11	C1	0.211600	0.450600	0.044000
C21	C2	0.201000	0.451900	0.694000
C31	C3	0.078900	0.286900	0.333000
C41	C4	0.399200	0.296900	0.664000
C51	C5	0.200600	0.547700	0.051000
C61	C6	0.188300	0.551000	0.704000
C71	C7	0.909700	0.186800	0.181000
C81	C8	0.894000	0.270900	0.358000
C91	C9	0.429000	0.321200	0.148000
C101	C10	0.470000	0.366800	0.189000
C111	C11	0.580000	0.373000	0.167000
C121	C12	0.068000	0.697100	0.114000
C131	C13	0.999100	0.669800	0.187000
C141	C14	0.894400	0.676100	0.147000
Cd31	Cd3	0.234080	0.130400	0.879520
Cd41	Cd4	0.308460	0.862970	0.879370
Ni31	Ni3	0.303310	0.999940	0.372300
Ni41	Ni4	0.504100	0.263940	0.760400
N131	N13	0.278000	0.078500	0.648000
N141	N14	0.290300	0.077300	0.087000
N151	N15	0.369800	0.181600	0.872000
N161	N16	0.165800	0.183800	0.102000
N171	N17	0.173400	0.186100	0.657000
N181	N18	0.071200	0.107570	0.838000
N191	N19	0.294800	0.924300	0.663000
N201	N20	0.313900	0.917900	0.104000
N211	N21	0.646600	0.342100	0.630000
N221	N22	0.667900	0.207000	0.920000
N231	N23	0.331300	0.805600	0.644000
N241	N24	0.476200	0.865400	0.826000
C151	C15	0.288400	0.049400	0.544000
C161	C16	0.299000	0.048100	0.194000
C171	C17	0.421100	0.213100	0.833000
C181	C18	0.100800	0.203100	0.164000
C191	C19	0.299400	0.952300	0.551000
C201	C20	0.311700	0.949000	0.204000
C211	C21	0.590300	0.313200	0.681000
C221	C22	0.606000	0.229100	0.858000
C231	C23	0.071000	0.178800	0.648000
C241	C24	0.030000	0.133200	0.689000
C251	C25	0.920000	0.127000	0.667000
C261	C26	0.432000	0.802900	0.614000
C271	C27	0.500900	0.830200	0.687000
C281	C28	0.605600	0.823900	0.647000
Cd51	Cd5	0.734080	0.630400	0.620480
Cd61	Cd6	0.808460	0.362970	0.620630
Ni51	Ni5	0.803310	0.499940	0.127700
Ni61	Ni6	0.004100	0.763940	0.739600
N251	N25	0.778000	0.578500	0.852000
N261	N26	0.790300	0.577300	0.413000
N271	N27	0.869800	0.681600	0.628000
N281	N28	0.665800	0.683800	0.398000
N291	N29	0.673400	0.686100	0.843000
N301	N30	0.571200	0.607570	0.662000
N311	N31	0.794800	0.424300	0.837000
N321	N32	0.813900	0.417900	0.396000
N331	N33	0.146600	0.842100	0.870000
N341	N34	0.167900	0.707000	0.580000
N351	N35	0.831300	0.305600	0.856000
N361	N36	0.976200	0.365400	0.674000
C291	C29	0.788400	0.549400	0.956000
C301	C30	0.799000	0.548100	0.306000
C311	C31	0.921100	0.713100	0.667000
C321	C32	0.600800	0.703100	0.336000
C331	C33	0.799400	0.452300	0.949000
C341	C34	0.811700	0.449000	0.296000
C351	C35	0.090300	0.813200	0.819000
C361	C36	0.106000	0.729100	0.642000
C371	C37	0.571000	0.678800	0.852000
C381	C38	0.530000	0.633200	0.811000
C391	C39	0.420000	0.627000	0.833000
C401	C40	0.932000	0.302900	0.886000
C411	C41	0.000900	0.330200	0.813000
C421	C42	0.105600	0.323900	0.853000
Cd71	Cd7	0.765920	0.869600	0.120480
Cd81	Cd8	0.691540	0.137030	0.120630
Ni71	Ni7	0.696690	0.000060	0.627700
Ni81	Ni8	0.495900	0.736060	0.239600
N371	N37	0.722000	0.921500	0.352000
N381	N38	0.709700	0.922700	0.913000
N391	N39	0.630200	0.818400	0.128000
N401	N40	0.834200	0.816200	0.898000
N411	N41	0.826600	0.813900	0.343000
N421	N42	0.928800	0.892430	0.162000
N431	N43	0.705200	0.075700	0.337000
N441	N44	0.686100	0.082100	0.896000
N451	N45	0.353400	0.657900	0.370000
N461	N46	0.332100	0.793000	0.080000
N471	N47	0.668700	0.194400	0.356000
N481	N48	0.523800	0.134600	0.174000
C431	C43	0.711600	0.950600	0.456000
C441	C44	0.701000	0.951900	0.806000
C451	C45	0.578900	0.786900	0.167000
C461	C46	0.899200	0.796900	0.836000
C471	C47	0.700600	0.047700	0.449000
C481	C48	0.688300	0.051000	0.796000
C491	C49	0.409700	0.686800	0.319000
C501	C50	0.394000	0.770900	0.142000
C511	C51	0.929000	0.821200	0.352000
C521	C52	0.970000	0.866800	0.311000
C531	C53	0.080000	0.873000	0.333000
C541	C54	0.568000	0.197100	0.386000
C551	C55	0.499100	0.169800	0.313000
C561	C56	0.394400	0.176100	0.353000
