data_NUNNUH_clean_PM
_symmetry_space_group_name_H-M	'P1'
_cell_length_a	11.181300
_cell_length_b	11.181300
_cell_length_c	31.552000
_cell_angle_alpha	90.000000
_cell_angle_beta	90.000000
_cell_angle_gamma	90.000000
_symmetry_Int_Tables_number 1

loop_
_symmetry_equiv_pos_as_xyz
'x,y,z'

loop_
_atom_site_label
_atom_site_type_symbol
_atom_site_fract_x
_atom_site_fract_y
_atom_site_fract_z
C11	C1	0.088040	0.869520	0.651440
C21	C2	0.101200	0.953290	0.619250
H11	H1	0.175600	0.988000	0.614600
C31	C3	0.004440	0.986010	0.593860
C41	C4	0.893180	0.934470	0.600820
H21	H2	0.827800	0.957500	0.584600
C51	C5	0.879930	0.847630	0.632440
C61	C6	0.976920	0.816080	0.657620
H31	H3	0.967500	0.758900	0.678800
C71	C7	0.192980	0.841750	0.680100
C81	C8	0.024930	0.077960	0.559590
C91	C9	0.759350	0.791860	0.639060
O11	O1	0.179610	0.757330	0.706070
O21	O2	0.284130	0.906500	0.676080
O31	O3	0.129360	0.084880	0.545180
O41	O4	0.937860	0.142470	0.547870
O51	O5	0.671460	0.818570	0.618930
O61	O6	0.760900	0.710430	0.669390
H41	H4	0.686000	0.683000	0.676500
C101	C10	0.911960	0.130480	0.151440
C111	C11	0.898800	0.046710	0.119250
H51	H5	0.824400	0.012000	0.114600
C121	C12	0.995560	0.013990	0.093860
C131	C13	0.106820	0.065530	0.100820
H61	H6	0.172200	0.042500	0.084600
C141	C14	0.120070	0.152370	0.132440
C151	C15	0.023080	0.183920	0.157620
H71	H7	0.032500	0.241100	0.178800
C161	C16	0.807020	0.158250	0.180100
C171	C17	0.975070	0.922040	0.059590
C181	C18	0.240650	0.208140	0.139060
O71	O7	0.820390	0.242670	0.206070
O81	O8	0.715870	0.093500	0.176080
O91	O9	0.870640	0.915120	0.045180
O101	O10	0.062140	0.857530	0.047870
O111	O11	0.328540	0.181430	0.118930
O121	O12	0.239100	0.289570	0.169390
H81	H8	0.314000	0.317000	0.176500
C191	C19	0.630480	0.588040	0.901440
C201	C20	0.546710	0.601200	0.869250
H91	H9	0.512000	0.675600	0.864600
C211	C21	0.513990	0.504440	0.843860
C221	C22	0.565530	0.393180	0.850820
H101	H10	0.542500	0.327800	0.834600
C231	C23	0.652370	0.379930	0.882440
C241	C24	0.683920	0.476920	0.907620
H111	H11	0.741100	0.467500	0.928800
C251	C25	0.658250	0.692980	0.930100
C261	C26	0.422040	0.524930	0.809590
C271	C27	0.708140	0.259350	0.889060
O131	O13	0.742670	0.679610	0.956070
O141	O14	0.593500	0.784130	0.926080
O151	O15	0.415120	0.629360	0.795180
O161	O16	0.357530	0.437860	0.797870
O171	O17	0.681430	0.171460	0.868930
O181	O18	0.789570	0.260900	0.919390
H121	H12	0.817000	0.186000	0.926500
C281	C28	0.369520	0.411960	0.401440
C291	C29	0.453290	0.398800	0.369250
H131	H13	0.488000	0.324400	0.364600
C301	C30	0.486010	0.495560	0.343860
C311	C31	0.434470	0.606820	0.350820
H141	H14	0.457500	0.672200	0.334600
C321	C32	0.347630	0.620070	0.382440
C331	C33	0.316080	0.523080	0.407620
H151	H15	0.258900	0.532500	0.428800
C341	C34	0.341750	0.307020	0.430100
C351	C35	0.577960	0.475070	0.309590
C361	C36	0.291860	0.740650	0.389060
O191	O19	0.257330	0.320390	0.456070
O201	O20	0.406500	0.215870	0.426080
O211	O21	0.584880	0.370640	0.295180
O221	O22	0.642470	0.562140	0.297870
O231	O23	0.318570	0.828540	0.368930
O241	O24	0.210430	0.739100	0.419390
H161	H16	0.183000	0.814000	0.426500
C371	C37	0.411960	0.369520	0.598560
C381	C38	0.398800	0.453290	0.630750
H171	H17	0.324400	0.488000	0.635400
C391	C39	0.495560	0.486010	0.656140
C401	C40	0.606820	0.434470	0.649180
H181	H18	0.672200	0.457500	0.665400
C411	C41	0.620070	0.347630	0.617560
C421	C42	0.523080	0.316080	0.592380
H191	H19	0.532500	0.258900	0.571200
C431	C43	0.307020	0.341750	0.569900
C441	C44	0.475070	0.577960	0.690410
C451	C45	0.740650	0.291860	0.610940
O251	O25	0.320390	0.257330	0.543930
O261	O26	0.215870	0.406500	0.573920
O271	O27	0.370640	0.584880	0.704820
O281	O28	0.562140	0.642470	0.702130
O291	O29	0.828540	0.318570	0.631070
O301	O30	0.739100	0.210430	0.580610
H201	H20	0.814000	0.183000	0.573500
C461	C46	0.588040	0.630480	0.098560
C471	C47	0.601200	0.546710	0.130750
H211	H21	0.675600	0.512000	0.135400
C481	C48	0.504440	0.513990	0.156140
C491	C49	0.393180	0.565530	0.149180
H221	H22	0.327800	0.542500	0.165400
C501	C50	0.379930	0.652370	0.117560
C511	C51	0.476920	0.683920	0.092380
H231	H23	0.467500	0.741100	0.071200
C521	C52	0.692980	0.658250	0.069900
C531	C53	0.524930	0.422040	0.190410
C541	C54	0.259350	0.708140	0.110940
O311	O31	0.679610	0.742670	0.043930
O321	O32	0.784130	0.593500	0.073920
O331	O33	0.629360	0.415120	0.204820
O341	O34	0.437860	0.357530	0.202130
O351	O35	0.171460	0.681430	0.131070
O361	O36	0.260900	0.789570	0.080610
H241	H24	0.186000	0.817000	0.073500
C551	C55	0.869520	0.088040	0.348560
C561	C56	0.953290	0.101200	0.380750
H251	H25	0.988000	0.175600	0.385400
C571	C57	0.986010	0.004440	0.406140
C581	C58	0.934470	0.893180	0.399180
H261	H26	0.957500	0.827800	0.415400
C591	C59	0.847630	0.879930	0.367560
C601	C60	0.816080	0.976920	0.342380
H271	H27	0.758900	0.967500	0.321200
C611	C61	0.841750	0.192980	0.319900
C621	C62	0.077960	0.024930	0.440410
C631	C63	0.791860	0.759350	0.360940
O371	O37	0.757330	0.179610	0.293930
O381	O38	0.906500	0.284130	0.323920
O391	O39	0.084880	0.129360	0.454820
O401	O40	0.142470	0.937860	0.452130
O411	O41	0.818570	0.671460	0.381070
O421	O42	0.710430	0.760900	0.330610
H281	H28	0.683000	0.686000	0.323500
C641	C64	0.130480	0.911960	0.848560
C651	C65	0.046710	0.898800	0.880750
H291	H29	0.012000	0.824400	0.885400
C661	C66	0.013990	0.995560	0.906140
C671	C67	0.065530	0.106820	0.899180
H301	H30	0.042500	0.172200	0.915400
C681	C68	0.152370	0.120070	0.867560
C691	C69	0.183920	0.023080	0.842380
H311	H31	0.241100	0.032500	0.821200
C701	C70	0.158250	0.807020	0.819900
C711	C71	0.922040	0.975070	0.940410
C721	C72	0.208140	0.240650	0.860940
O431	O43	0.242670	0.820390	0.793930
O441	O44	0.093500	0.715870	0.823920
O451	O45	0.915120	0.870640	0.954820
O461	O46	0.857530	0.062140	0.952130
O471	O47	0.181430	0.328540	0.881070
O481	O48	0.289570	0.239100	0.830610
H321	H32	0.317000	0.314000	0.823500
Ni11	Ni1	0.300510	0.699490	0.750000
Ni21	Ni2	0.699490	0.300510	0.250000
Ni31	Ni3	0.800510	0.800510	0.000000
Ni41	Ni4	0.199490	0.199490	0.500000
