data_NUNWIE_clean_PM
_symmetry_space_group_name_H-M	'P1'
_cell_length_a	14.873700
_cell_length_b	9.681500
_cell_length_c	13.635400
_cell_angle_alpha	90.000000
_cell_angle_beta	90.000000
_cell_angle_gamma	90.000000
_symmetry_Int_Tables_number 1

loop_
_symmetry_equiv_pos_as_xyz
'x,y,z'

loop_
_atom_site_label
_atom_site_type_symbol
_atom_site_fract_x
_atom_site_fract_y
_atom_site_fract_z
O11	O1	0.107000	0.353300	0.657000
O21	O2	0.085500	0.196000	0.368600
O31	O3	0.607000	0.853300	0.657000
O41	O4	0.585500	0.696000	0.368600
O51	O5	0.893000	0.646700	0.157000
O61	O6	0.914500	0.804000	0.868600
O71	O7	0.393000	0.146700	0.157000
O81	O8	0.414500	0.304000	0.868600
O91	O9	0.893000	0.353300	0.843000
O101	O10	0.914500	0.196000	0.131400
O111	O11	0.393000	0.853300	0.843000
O121	O12	0.414500	0.696000	0.131400
O131	O13	0.107000	0.646700	0.343000
O141	O14	0.085500	0.804000	0.631400
O151	O15	0.607000	0.146700	0.343000
O161	O16	0.585500	0.304000	0.631400
O171	O17	0.893000	0.646700	0.343000
O181	O18	0.914500	0.804000	0.631400
O191	O19	0.393000	0.146700	0.343000
O201	O20	0.414500	0.304000	0.631400
O211	O21	0.107000	0.353300	0.843000
O221	O22	0.085500	0.196000	0.131400
O231	O23	0.607000	0.853300	0.843000
O241	O24	0.585500	0.696000	0.131400
O251	O25	0.107000	0.646700	0.157000
O261	O26	0.085500	0.804000	0.868600
O271	O27	0.607000	0.146700	0.157000
O281	O28	0.585500	0.304000	0.868600
O291	O29	0.893000	0.353300	0.657000
O301	O30	0.914500	0.196000	0.368600
O311	O31	0.393000	0.853300	0.657000
O321	O32	0.414500	0.696000	0.368600
Co11	Co1	0.129680	0.709280	0.750000
P11	P1	0.161730	0.381560	0.750000
O331	O33	0.194000	0.532900	0.750000
O341	O34	0.243000	0.287400	0.750000
Co21	Co2	0.629680	0.209280	0.750000
P21	P2	0.661730	0.881560	0.750000
O351	O35	0.694000	0.032900	0.750000
O361	O36	0.743000	0.787400	0.750000
Co31	Co3	0.870320	0.290720	0.250000
P31	P3	0.838270	0.618440	0.250000
O371	O37	0.806000	0.467100	0.250000
O381	O38	0.757000	0.712600	0.250000
Co41	Co4	0.370320	0.790720	0.250000
P41	P4	0.338270	0.118440	0.250000
O391	O39	0.306000	0.967100	0.250000
O401	O40	0.257000	0.212600	0.250000
Co51	Co5	0.870320	0.709280	0.750000
P51	P5	0.838270	0.381560	0.750000
O411	O41	0.806000	0.532900	0.750000
O421	O42	0.757000	0.287400	0.750000
Co61	Co6	0.370320	0.209280	0.750000
P61	P6	0.338270	0.881560	0.750000
O431	O43	0.306000	0.032900	0.750000
O441	O44	0.257000	0.787400	0.750000
Co71	Co7	0.129680	0.290720	0.250000
P71	P7	0.161730	0.618440	0.250000
O451	O45	0.194000	0.467100	0.250000
O461	O46	0.243000	0.712600	0.250000
Co81	Co8	0.629680	0.790720	0.250000
P81	P8	0.661730	0.118440	0.250000
O471	O47	0.694000	0.967100	0.250000
O481	O48	0.743000	0.212600	0.250000
Co91	Co9	0.000000	0.448800	0.612410
P91	P9	0.000000	0.226000	0.426740
O491	O49	0.000000	0.375700	0.464900
F11	F1	0.000000	0.129600	0.517700
Co101	Co10	0.500000	0.948800	0.612410
P101	P10	0.500000	0.726000	0.426740
O501	O50	0.500000	0.875700	0.464900
F21	F2	0.500000	0.629600	0.517700
Co111	Co11	0.000000	0.551200	0.112410
P111	P11	0.000000	0.774000	0.926740
O511	O51	0.000000	0.624300	0.964900
F31	F3	0.000000	0.870400	0.017700
Co121	Co12	0.500000	0.051200	0.112410
P121	P12	0.500000	0.274000	0.926740
O521	O52	0.500000	0.124300	0.964900
F41	F4	0.500000	0.370400	0.017700
Co131	Co13	0.000000	0.448800	0.887590
P131	P13	0.000000	0.226000	0.073260
O531	O53	0.000000	0.375700	0.035100
F51	F5	0.000000	0.129600	0.982300
Co141	Co14	0.500000	0.948800	0.887590
P141	P14	0.500000	0.726000	0.073260
O541	O54	0.500000	0.875700	0.035100
F61	F6	0.500000	0.629600	0.982300
Co151	Co15	0.000000	0.551200	0.387590
P151	P15	0.000000	0.774000	0.573260
O551	O55	0.000000	0.624300	0.535100
F71	F7	0.000000	0.870400	0.482300
Co161	Co16	0.500000	0.051200	0.387590
P161	P16	0.500000	0.274000	0.573260
O561	O56	0.500000	0.124300	0.535100
F81	F8	0.500000	0.370400	0.482300
