data_NURMUJ_clean_PM
_symmetry_space_group_name_H-M	'P1'
_cell_length_a	10.086100
_cell_length_b	10.252700
_cell_length_c	16.401300
_cell_angle_alpha	90.000000
_cell_angle_beta	95.478000
_cell_angle_gamma	90.000000
_symmetry_Int_Tables_number 1

loop_
_symmetry_equiv_pos_as_xyz
'x,y,z'

loop_
_atom_site_label
_atom_site_type_symbol
_atom_site_fract_x
_atom_site_fract_y
_atom_site_fract_z
Zn11	Zn1	0.227900	0.760870	0.076450
Zn21	Zn2	0.772100	0.260870	0.423550
Zn31	Zn3	0.772100	0.239130	0.923550
Zn41	Zn4	0.227900	0.739130	0.576450
Zn51	Zn5	0.000000	0.000000	0.000000
Zn61	Zn6	0.000000	0.500000	0.500000
H11	H1	0.679300	0.777100	0.077700
H21	H2	0.955100	0.643800	0.250100
H31	H3	0.568700	0.563600	0.264300
H41	H4	0.320700	0.277100	0.422300
H51	H5	0.044900	0.143800	0.249900
H61	H6	0.431300	0.063600	0.235700
H71	H7	0.320700	0.222900	0.922300
H81	H8	0.044900	0.356200	0.749900
H91	H9	0.431300	0.436400	0.735700
H101	H10	0.679300	0.722900	0.577700
H111	H11	0.955100	0.856200	0.750100
H121	H12	0.568700	0.936400	0.764300
C11	C1	0.457700	0.692600	0.134400
C21	C2	0.941100	0.779400	0.110620
C31	C3	0.802300	0.521800	0.349250
C41	C4	0.601000	0.674000	0.166580
C51	C5	0.701300	0.730700	0.125820
C61	C6	0.834600	0.718700	0.156590
C71	C7	0.866500	0.650900	0.228830
C81	C8	0.767200	0.593400	0.269880
C91	C9	0.635000	0.604000	0.237750
C101	C10	0.542300	0.192600	0.365600
C111	C11	0.058900	0.279400	0.389380
C121	C12	0.197700	0.021800	0.150750
C131	C13	0.399000	0.174000	0.333420
C141	C14	0.298700	0.230700	0.374180
C151	C15	0.165400	0.218700	0.343410
C161	C16	0.133500	0.150900	0.271170
C171	C17	0.232800	0.093400	0.230120
C181	C18	0.365000	0.104000	0.262250
C191	C19	0.542300	0.307400	0.865600
C201	C20	0.058900	0.220600	0.889380
C211	C21	0.197700	0.478200	0.650750
C221	C22	0.399000	0.326000	0.833420
C231	C23	0.298700	0.269300	0.874180
C241	C24	0.165400	0.281300	0.843410
C251	C25	0.133500	0.349100	0.771170
C261	C26	0.232800	0.406600	0.730120
C271	C27	0.365000	0.396000	0.762250
C281	C28	0.457700	0.807400	0.634400
C291	C29	0.941100	0.720600	0.610620
C301	C30	0.802300	0.978200	0.849250
C311	C31	0.601000	0.826000	0.666580
C321	C32	0.701300	0.769300	0.625820
C331	C33	0.834600	0.781300	0.656590
C341	C34	0.866500	0.849100	0.728830
C351	C35	0.767200	0.906600	0.769880
C361	C36	0.635000	0.896000	0.737750
O11	O1	0.367320	0.664430	0.178170
O21	O2	0.433430	0.738310	0.063060
O31	O3	0.902100	0.855290	0.053550
O41	O4	0.059720	0.747240	0.132800
O51	O5	0.909700	0.553400	0.388210
O61	O6	0.720930	0.437640	0.368460
O71	O7	0.632680	0.164430	0.321830
O81	O8	0.566570	0.238310	0.436940
O91	O9	0.097900	0.355290	0.446450
O101	O10	0.940280	0.247240	0.367200
O111	O11	0.090300	0.053400	0.111790
O121	O12	0.279070	0.937640	0.131540
O131	O13	0.632680	0.335570	0.821830
O141	O14	0.566570	0.261690	0.936940
O151	O15	0.097900	0.144710	0.946450
O161	O16	0.940280	0.252760	0.867200
O171	O17	0.090300	0.446600	0.611790
O181	O18	0.279070	0.562360	0.631540
O191	O19	0.367320	0.835570	0.678170
O201	O20	0.433430	0.761690	0.563060
O211	O21	0.902100	0.644710	0.553550
O221	O22	0.059720	0.752760	0.632800
O231	O23	0.909700	0.946600	0.888210
O241	O24	0.720930	0.062360	0.868460
