data_NUSSEA_clean_PM
_symmetry_space_group_name_H-M	'P1'
_cell_length_a	18.204000
_cell_length_b	12.830000
_cell_length_c	13.987000
_cell_angle_alpha	90.000000
_cell_angle_beta	99.260000
_cell_angle_gamma	90.000000
_symmetry_Int_Tables_number 1

loop_
_symmetry_equiv_pos_as_xyz
'x,y,z'

loop_
_atom_site_label
_atom_site_type_symbol
_atom_site_fract_x
_atom_site_fract_y
_atom_site_fract_z
Zn11	Zn1	0.734150	0.009940	0.282410
O11	O1	0.653440	0.024860	0.170900
O21	O2	0.603730	0.077590	0.022990
C11	C1	0.653250	0.082100	0.095500
C21	C2	0.715470	0.160200	0.097300
H11	H1	0.708200	0.216300	0.141500
H21	H2	0.762400	0.126500	0.122200
C31	C3	0.720250	0.206800	0.997400
H31	H3	0.671700	0.236200	0.970100
C41	C4	0.740560	0.121700	0.929400
O31	O3	0.793580	0.061930	0.956480
O41	O4	0.702100	0.117380	0.844620
O51	O5	0.826120	0.963820	0.233420
O61	O6	0.897210	0.857830	0.161850
C51	C5	0.835510	0.895500	0.170000
C61	C6	0.767700	0.860600	0.098200
H41	H4	0.726300	0.849300	0.132900
H51	H5	0.753700	0.916000	0.051600
C71	C7	0.781330	0.760200	0.043400
H61	H6	0.828600	0.767200	0.018900
C81	C8	0.786860	0.667300	0.111800
O71	O7	0.841510	0.607600	0.120160
O81	O8	0.732980	0.649040	0.157880
O91	O9	0.026000	0.009800	0.194500
O101	O10	0.042000	0.944000	0.139400
Zn21	Zn2	0.234150	0.509940	0.282410
O111	O11	0.153440	0.524860	0.170900
O121	O12	0.103730	0.577590	0.022990
C91	C9	0.153250	0.582100	0.095500
C101	C10	0.215470	0.660200	0.097300
H71	H7	0.208200	0.716300	0.141500
H81	H8	0.262400	0.626500	0.122200
C111	C11	0.220250	0.706800	0.997400
H91	H9	0.171700	0.736200	0.970100
C121	C12	0.240560	0.621700	0.929400
O131	O13	0.293580	0.561930	0.956480
O141	O14	0.202100	0.617380	0.844620
O151	O15	0.326120	0.463820	0.233420
O161	O16	0.397210	0.357830	0.161850
C131	C13	0.335510	0.395500	0.170000
C141	C14	0.267700	0.360600	0.098200
H101	H10	0.226300	0.349300	0.132900
H111	H11	0.253700	0.416000	0.051600
C151	C15	0.281330	0.260200	0.043400
H121	H12	0.328600	0.267200	0.018900
C161	C16	0.286860	0.167300	0.111800
O171	O17	0.341510	0.107600	0.120160
O181	O18	0.232980	0.149040	0.157880
O191	O19	0.526000	0.509800	0.194500
O201	O20	0.542000	0.444000	0.139400
Zn31	Zn3	0.265850	0.009940	0.217590
O211	O21	0.346560	0.024860	0.329100
O221	O22	0.396270	0.077590	0.477010
C171	C17	0.346750	0.082100	0.404500
C181	C18	0.284530	0.160200	0.402700
H131	H13	0.291800	0.216300	0.358500
H141	H14	0.237600	0.126500	0.377800
C191	C19	0.279750	0.206800	0.502600
H151	H15	0.328300	0.236200	0.529900
C201	C20	0.259440	0.121700	0.570600
O231	O23	0.206420	0.061930	0.543520
O241	O24	0.297900	0.117380	0.655380
O251	O25	0.173880	0.963820	0.266580
O261	O26	0.102790	0.857830	0.338150
C211	C21	0.164490	0.895500	0.330000
C221	C22	0.232300	0.860600	0.401800
H161	H16	0.273700	0.849300	0.367100
H171	H17	0.246300	0.916000	0.448400
C231	C23	0.218670	0.760200	0.456600
H181	H18	0.171400	0.767200	0.481100
C241	C24	0.213140	0.667300	0.388200
O271	O27	0.158490	0.607600	0.379840
O281	O28	0.267020	0.649040	0.342120
O291	O29	0.974000	0.009800	0.305500
O301	O30	0.958000	0.944000	0.360600
Zn41	Zn4	0.765850	0.509940	0.217590
O311	O31	0.846560	0.524860	0.329100
O321	O32	0.896270	0.577590	0.477010
C251	C25	0.846750	0.582100	0.404500
C261	C26	0.784530	0.660200	0.402700
H191	H19	0.791800	0.716300	0.358500
H201	H20	0.737600	0.626500	0.377800
C271	C27	0.779750	0.706800	0.502600
H211	H21	0.828300	0.736200	0.529900
C281	C28	0.759440	0.621700	0.570600
O331	O33	0.706420	0.561930	0.543520
O341	O34	0.797900	0.617380	0.655380
O351	O35	0.673880	0.463820	0.266580
O361	O36	0.602790	0.357830	0.338150
C291	C29	0.664490	0.395500	0.330000
C301	C30	0.732300	0.360600	0.401800
H221	H22	0.773700	0.349300	0.367100
H231	H23	0.746300	0.416000	0.448400
C311	C31	0.718670	0.260200	0.456600
H241	H24	0.671400	0.267200	0.481100
C321	C32	0.713140	0.167300	0.388200
O371	O37	0.658490	0.107600	0.379840
O381	O38	0.767020	0.149040	0.342120
O391	O39	0.474000	0.509800	0.305500
O401	O40	0.458000	0.444000	0.360600
Zn51	Zn5	0.265850	0.990060	0.717590
O411	O41	0.346560	0.975140	0.829100
O421	O42	0.396270	0.922410	0.977010
C331	C33	0.346750	0.917900	0.904500
C341	C34	0.284530	0.839800	0.902700
H251	H25	0.291800	0.783700	0.858500
H261	H26	0.237600	0.873500	0.877800
C351	C35	0.279750	0.793200	0.002600
H271	H27	0.328300	0.763800	0.029900
C361	C36	0.259440	0.878300	0.070600
O431	O43	0.206420	0.938070	0.043520
O441	O44	0.297900	0.882620	0.155380
O451	O45	0.173880	0.036180	0.766580
O461	O46	0.102790	0.142170	0.838150
C371	C37	0.164490	0.104500	0.830000
C381	C38	0.232300	0.139400	0.901800
H281	H28	0.273700	0.150700	0.867100
H291	H29	0.246300	0.084000	0.948400
C391	C39	0.218670	0.239800	0.956600
H301	H30	0.171400	0.232800	0.981100
C401	C40	0.213140	0.332700	0.888200
O471	O47	0.158490	0.392400	0.879840
O481	O48	0.267020	0.350960	0.842120
O491	O49	0.974000	0.990200	0.805500
O501	O50	0.958000	0.056000	0.860600
Zn61	Zn6	0.765850	0.490060	0.717590
O511	O51	0.846560	0.475140	0.829100
O521	O52	0.896270	0.422410	0.977010
C411	C41	0.846750	0.417900	0.904500
C421	C42	0.784530	0.339800	0.902700
H311	H31	0.791800	0.283700	0.858500
H321	H32	0.737600	0.373500	0.877800
C431	C43	0.779750	0.293200	0.002600
H331	H33	0.828300	0.263800	0.029900
C441	C44	0.759440	0.378300	0.070600
O531	O53	0.706420	0.438070	0.043520
O541	O54	0.797900	0.382620	0.155380
O551	O55	0.673880	0.536180	0.766580
O561	O56	0.602790	0.642170	0.838150
C451	C45	0.664490	0.604500	0.830000
C461	C46	0.732300	0.639400	0.901800
H341	H34	0.773700	0.650700	0.867100
H351	H35	0.746300	0.584000	0.948400
C471	C47	0.718670	0.739800	0.956600
H361	H36	0.671400	0.732800	0.981100
C481	C48	0.713140	0.832700	0.888200
O571	O57	0.658490	0.892400	0.879840
O581	O58	0.767020	0.850960	0.842120
O591	O59	0.474000	0.490200	0.805500
O601	O60	0.458000	0.556000	0.860600
Zn71	Zn7	0.734150	0.990060	0.782410
O611	O61	0.653440	0.975140	0.670900
O621	O62	0.603730	0.922410	0.522990
C491	C49	0.653250	0.917900	0.595500
C501	C50	0.715470	0.839800	0.597300
H371	H37	0.708200	0.783700	0.641500
H381	H38	0.762400	0.873500	0.622200
C511	C51	0.720250	0.793200	0.497400
H391	H39	0.671700	0.763800	0.470100
C521	C52	0.740560	0.878300	0.429400
O631	O63	0.793580	0.938070	0.456480
O641	O64	0.702100	0.882620	0.344620
O651	O65	0.826120	0.036180	0.733420
O661	O66	0.897210	0.142170	0.661850
C531	C53	0.835510	0.104500	0.670000
C541	C54	0.767700	0.139400	0.598200
H401	H40	0.726300	0.150700	0.632900
H411	H41	0.753700	0.084000	0.551600
C551	C55	0.781330	0.239800	0.543400
H421	H42	0.828600	0.232800	0.518900
C561	C56	0.786860	0.332700	0.611800
O671	O67	0.841510	0.392400	0.620160
O681	O68	0.732980	0.350960	0.657880
O691	O69	0.026000	0.990200	0.694500
O701	O70	0.042000	0.056000	0.639400
Zn81	Zn8	0.234150	0.490060	0.782410
O711	O71	0.153440	0.475140	0.670900
O721	O72	0.103730	0.422410	0.522990
C571	C57	0.153250	0.417900	0.595500
C581	C58	0.215470	0.339800	0.597300
H431	H43	0.208200	0.283700	0.641500
H441	H44	0.262400	0.373500	0.622200
C591	C59	0.220250	0.293200	0.497400
H451	H45	0.171700	0.263800	0.470100
C601	C60	0.240560	0.378300	0.429400
O731	O73	0.293580	0.438070	0.456480
O741	O74	0.202100	0.382620	0.344620
O751	O75	0.326120	0.536180	0.733420
O761	O76	0.397210	0.642170	0.661850
C611	C61	0.335510	0.604500	0.670000
C621	C62	0.267700	0.639400	0.598200
H461	H46	0.226300	0.650700	0.632900
H471	H47	0.253700	0.584000	0.551600
C631	C63	0.281330	0.739800	0.543400
H481	H48	0.328600	0.732800	0.518900
C641	C64	0.286860	0.832700	0.611800
O771	O77	0.341510	0.892400	0.620160
O781	O78	0.232980	0.850960	0.657880
O791	O79	0.526000	0.490200	0.694500
O801	O80	0.542000	0.556000	0.639400
Zn91	Zn9	0.500000	0.000000	0.000000
Zn101	Zn10	0.000000	0.500000	0.000000
Zn111	Zn11	0.500000	0.000000	0.500000
Zn121	Zn12	0.000000	0.500000	0.500000
Zn131	Zn13	0.000000	0.863500	0.250000
Zn141	Zn14	0.500000	0.363500	0.250000
Zn151	Zn15	0.000000	0.136500	0.750000
Zn161	Zn16	0.500000	0.636500	0.750000
