data_NUTQAV_clean_PM
_symmetry_space_group_name_H-M	'P1'
_cell_length_a	15.261400
_cell_length_b	15.261400
_cell_length_c	15.261400
_cell_angle_alpha	76.215900
_cell_angle_beta	76.215900
_cell_angle_gamma	76.215900
_symmetry_Int_Tables_number 1

loop_
_symmetry_equiv_pos_as_xyz
'x,y,z'

loop_
_atom_site_label
_atom_site_type_symbol
_atom_site_fract_x
_atom_site_fract_y
_atom_site_fract_z
Cu11	Cu1	0.579710	0.012240	0.012240
Cu21	Cu2	0.012240	0.579710	0.012240
Cu31	Cu3	0.012240	0.012240	0.579710
Cu41	Cu4	0.987760	0.420290	0.987760
Cu51	Cu5	0.420290	0.987760	0.987760
Cu61	Cu6	0.987760	0.987760	0.420290
H11	H1	0.516100	0.989000	0.300600
H21	H2	0.300600	0.516100	0.989000
H31	H3	0.989000	0.300600	0.516100
H41	H4	0.011000	0.483900	0.699400
H51	H5	0.483900	0.699400	0.011000
H61	H6	0.699400	0.011000	0.483900
H71	H7	0.483900	0.011000	0.699400
H81	H8	0.699400	0.483900	0.011000
H91	H9	0.011000	0.699400	0.483900
H101	H10	0.989000	0.516100	0.300600
H111	H11	0.516100	0.300600	0.989000
H121	H12	0.300600	0.989000	0.516100
H131	H13	0.266500	0.975700	0.266500
H141	H14	0.266500	0.266500	0.975700
H151	H15	0.975700	0.266500	0.266500
H161	H16	0.024300	0.733500	0.733500
H171	H17	0.733500	0.733500	0.024300
H181	H18	0.733500	0.024300	0.733500
C11	C1	0.396280	0.982620	0.268850
C21	C2	0.453680	0.987420	0.325000
C31	C3	0.434630	0.982970	0.169370
C41	C4	0.268850	0.396280	0.982620
C51	C5	0.325000	0.453680	0.987420
C61	C6	0.169370	0.434630	0.982970
C71	C7	0.982620	0.268850	0.396280
C81	C8	0.987420	0.325000	0.453680
C91	C9	0.982970	0.169370	0.434630
C101	C10	0.017380	0.603720	0.731150
C111	C11	0.012580	0.546320	0.675000
C121	C12	0.017030	0.565370	0.830630
C131	C13	0.603720	0.731150	0.017380
C141	C14	0.546320	0.675000	0.012580
C151	C15	0.565370	0.830630	0.017030
C161	C16	0.731150	0.017380	0.603720
C171	C17	0.675000	0.012580	0.546320
C181	C18	0.830630	0.017030	0.565370
C191	C19	0.603720	0.017380	0.731150
C201	C20	0.546320	0.012580	0.675000
C211	C21	0.565370	0.017030	0.830630
C221	C22	0.731150	0.603720	0.017380
C231	C23	0.675000	0.546320	0.012580
C241	C24	0.830630	0.565370	0.017030
C251	C25	0.017380	0.731150	0.603720
C261	C26	0.012580	0.675000	0.546320
C271	C27	0.017030	0.830630	0.565370
C281	C28	0.982620	0.396280	0.268850
C291	C29	0.987420	0.453680	0.325000
C301	C30	0.982970	0.434630	0.169370
C311	C31	0.396280	0.268850	0.982620
C321	C32	0.453680	0.325000	0.987420
C331	C33	0.434630	0.169370	0.982970
C341	C34	0.268850	0.982620	0.396280
C351	C35	0.325000	0.987420	0.453680
C361	C36	0.169370	0.982970	0.434630
C371	C37	0.476090	0.997490	0.476090
C381	C38	0.304730	0.979700	0.304730
C391	C39	0.418450	0.989980	0.418450
C401	C40	0.476090	0.476090	0.997490
C411	C41	0.304730	0.304730	0.979700
C421	C42	0.418450	0.418450	0.989980
C431	C43	0.997490	0.476090	0.476090
C441	C44	0.979700	0.304730	0.304730
C451	C45	0.989980	0.418450	0.418450
C461	C46	0.002510	0.523910	0.523910
C471	C47	0.020300	0.695270	0.695270
C481	C48	0.010020	0.581550	0.581550
C491	C49	0.523910	0.523910	0.002510
C501	C50	0.695270	0.695270	0.020300
C511	C51	0.581550	0.581550	0.010020
C521	C52	0.523910	0.002510	0.523910
C531	C53	0.695270	0.020300	0.695270
C541	C54	0.581550	0.010020	0.581550
O11	O1	0.516780	0.994960	0.140960
O21	O2	0.382170	0.976280	0.120520
O31	O3	0.140960	0.516780	0.994960
O41	O4	0.120520	0.382170	0.976280
O51	O5	0.994960	0.140960	0.516780
O61	O6	0.976280	0.120520	0.382170
O71	O7	0.005040	0.483220	0.859040
O81	O8	0.023720	0.617830	0.879480
O91	O9	0.483220	0.859040	0.005040
O101	O10	0.617830	0.879480	0.023720
O111	O11	0.859040	0.005040	0.483220
O121	O12	0.879480	0.023720	0.617830
O131	O13	0.483220	0.005040	0.859040
O141	O14	0.617830	0.023720	0.879480
O151	O15	0.859040	0.483220	0.005040
O161	O16	0.879480	0.617830	0.023720
O171	O17	0.005040	0.859040	0.483220
O181	O18	0.023720	0.879480	0.617830
O191	O19	0.994960	0.516780	0.140960
O201	O20	0.976280	0.382170	0.120520
O211	O21	0.516780	0.140960	0.994960
O221	O22	0.382170	0.120520	0.976280
O231	O23	0.140960	0.994960	0.516780
O241	O24	0.120520	0.976280	0.382170
