data_NUVBIQ_clean_PM
_symmetry_space_group_name_H-M	'P1'
_cell_length_a	9.678400
_cell_length_b	11.058000
_cell_length_c	11.385000
_cell_angle_alpha	105.110000
_cell_angle_beta	90.230000
_cell_angle_gamma	113.980000
_symmetry_Int_Tables_number 1

loop_
_symmetry_equiv_pos_as_xyz
'x,y,z'

loop_
_atom_site_label
_atom_site_type_symbol
_atom_site_fract_x
_atom_site_fract_y
_atom_site_fract_z
C11	C1	0.773700	0.503000	0.395800
C21	C2	0.635800	0.506300	0.453800
C31	C3	0.637900	0.616800	0.549500
C41	C4	0.777400	0.748700	0.607300
C51	C5	0.496800	0.391000	0.405400
H11	H1	0.495400	0.318100	0.341400
C61	C6	0.755200	0.251700	0.488500
C71	C7	0.626200	0.118500	0.494900
C81	C8	0.621700	0.988100	0.441400
C91	C9	0.753800	0.969900	0.383700
C101	C10	0.503800	0.128900	0.554000
H21	H2	0.506700	0.215600	0.590800
C111	C11	0.814000	0.128100	0.109100
C121	C12	0.652500	0.063500	0.048900
C131	C13	0.596100	0.937200	0.957300
C141	C14	0.703300	0.875300	0.903500
C151	C15	0.556400	0.126700	0.091300
H31	H3	0.594200	0.211100	0.151800
Nd11	Nd1	0.020940	0.425550	0.324700
Nd21	Nd2	0.000110	0.005300	0.746040
O11	O1	0.901500	0.556000	0.465000
O21	O2	0.760900	0.445000	0.285100
O31	O3	0.888200	0.748700	0.669800
O41	O4	0.778300	0.859900	0.600200
O51	O5	0.810600	0.257600	0.390900
O61	O6	0.790200	0.350400	0.586700
O71	O7	0.889900	0.053100	0.431700
O81	O8	0.731500	0.875800	0.285200
O91	O9	0.887900	0.257300	0.131800
O101	O10	0.865000	0.049600	0.133800
O111	O11	0.670600	0.753000	0.897700
O121	O12	0.818800	0.955900	0.865400
Yb11	Yb1	0.979060	0.574450	0.675300
Yb21	Yb2	0.999890	0.994700	0.253960
C161	C16	0.226300	0.497000	0.604200
C171	C17	0.364200	0.493700	0.546200
C181	C18	0.362100	0.383200	0.450500
C191	C19	0.222600	0.251300	0.392700
C201	C20	0.503200	0.609000	0.594600
H41	H4	0.504600	0.681900	0.658600
C211	C21	0.244800	0.748300	0.511500
C221	C22	0.373800	0.881500	0.505100
C231	C23	0.378300	0.011900	0.558600
C241	C24	0.246200	0.030100	0.616300
C251	C25	0.496200	0.871100	0.446000
H51	H5	0.493300	0.784400	0.409200
C261	C26	0.186000	0.871900	0.890900
C271	C27	0.347500	0.936500	0.951100
C281	C28	0.403900	0.062800	0.042700
C291	C29	0.296700	0.124700	0.096500
C301	C30	0.443600	0.873300	0.908700
H61	H6	0.405800	0.788900	0.848200
O131	O13	0.098500	0.444000	0.535000
O141	O14	0.239100	0.555000	0.714900
O151	O15	0.111800	0.251300	0.330200
O161	O16	0.221700	0.140100	0.399800
O171	O17	0.189400	0.742400	0.609100
O181	O18	0.209800	0.649600	0.413300
O191	O19	0.110100	0.946900	0.568300
O201	O20	0.268500	0.124200	0.714800
O211	O21	0.112100	0.742700	0.868200
O221	O22	0.135000	0.950400	0.866200
O231	O23	0.329400	0.247000	0.102300
O241	O24	0.181200	0.044100	0.134600
