data_NUVWEH_clean_PM
_symmetry_space_group_name_H-M	'P1'
_cell_length_a	13.441800
_cell_length_b	13.441800
_cell_length_c	13.441800
_cell_angle_alpha	94.774700
_cell_angle_beta	117.283000
_cell_angle_gamma	117.283000
_symmetry_Int_Tables_number 1

loop_
_symmetry_equiv_pos_as_xyz
'x,y,z'

loop_
_atom_site_label
_atom_site_type_symbol
_atom_site_fract_x
_atom_site_fract_y
_atom_site_fract_z
La11	La1	0.736000	0.875000	0.111000
La21	La2	0.264000	0.375000	0.139000
La31	La3	0.764000	0.889000	0.625000
La41	La4	0.236000	0.861000	0.125000
H11	H1	0.114900	0.932800	0.359100
H21	H2	0.103900	0.002100	0.449800
H31	H3	0.547700	0.969600	0.812500
H41	H4	0.475900	0.831700	0.744800
H51	H5	0.885100	0.244200	0.817900
H61	H6	0.896100	0.345900	0.898200
H71	H7	0.452300	0.264800	0.421900
H81	H8	0.524100	0.268900	0.355800
H91	H9	0.573700	0.640900	0.755800
H101	H10	0.552300	0.550200	0.654100
H111	H11	0.157100	0.187500	0.735200
H121	H12	0.086900	0.255200	0.731100
H131	H13	0.426300	0.182100	0.067200
H141	H14	0.447700	0.101800	0.997900
H151	H15	0.842900	0.578100	0.030400
H161	H16	0.913100	0.644200	0.168300
H171	H17	0.073700	0.505800	0.890900
H181	H18	0.052300	0.404100	0.800200
H191	H19	0.657100	0.485200	0.437500
H201	H20	0.586900	0.481100	0.505200
H211	H21	0.926300	0.817200	0.432100
H221	H22	0.947700	0.747900	0.351800
H231	H23	0.342900	0.780400	0.828100
H241	H24	0.413100	0.918300	0.894200
H251	H25	0.385100	0.567900	0.494200
H261	H26	0.396100	0.648200	0.595900
H271	H27	0.952300	0.171900	0.514800
H281	H28	0.024100	0.105800	0.518900
H291	H29	0.614900	0.109100	0.182800
H301	H30	0.603900	0.199800	0.252100
H311	H31	0.047700	0.562500	0.219600
H321	H32	0.975900	0.494800	0.081700
C11	C1	0.083100	0.061800	0.309700
C21	C2	0.066900	0.966600	0.365300
C31	C3	0.683300	0.924500	0.842600
C41	C4	0.551100	0.899900	0.819800
C51	C5	0.916900	0.226600	0.978700
C61	C6	0.933100	0.298400	0.899700
C71	C7	0.316700	0.159300	0.241200
C81	C8	0.448900	0.268700	0.348800
C91	C9	0.752100	0.690300	0.773400
C101	C10	0.601300	0.634700	0.701600
C111	C11	0.081900	0.157400	0.840700
C121	C12	0.080100	0.180200	0.731300
C131	C13	0.247900	0.021300	0.938200
C141	C14	0.398700	0.100300	0.033400
C151	C15	0.918100	0.758800	0.075500
C161	C16	0.919900	0.651200	0.100100
C171	C17	0.252100	0.523400	0.940300
C181	C18	0.101300	0.451600	0.884700
C191	C19	0.581900	0.590700	0.407400
C201	C20	0.580100	0.481300	0.430200
C211	C21	0.747900	0.688200	0.271300
C221	C22	0.898700	0.783400	0.350300
C231	C23	0.418100	0.825500	0.008800
C241	C24	0.419900	0.850100	0.901200
C251	C25	0.416900	0.728700	0.476600
C261	C26	0.433100	0.649700	0.548400
C271	C27	0.816700	0.991200	0.409300
C281	C28	0.948900	0.098800	0.518700
C291	C29	0.583100	0.059700	0.311800
C301	C30	0.566900	0.115300	0.216600
C311	C31	0.183300	0.592600	0.174500
C321	C32	0.051100	0.569800	0.149900
O11	O1	0.190700	0.161100	0.372000
O21	O2	0.987400	0.029900	0.202900
O31	O3	0.759300	0.921300	0.940200
O41	O4	0.703900	0.944600	0.764300
O51	O5	0.809300	0.181300	0.970400
O61	O6	0.012600	0.215500	0.042500
O71	O7	0.240700	0.180900	0.162000
O81	O8	0.296100	0.060400	0.240700
O91	O9	0.789100	0.628000	0.818700
O101	O10	0.827000	0.797100	0.784500
O111	O11	0.981100	0.059800	0.819100
O121	O12	0.180300	0.235700	0.939600
O131	O13	0.210900	0.029600	0.838900
O141	O14	0.173000	0.957500	0.970100
O151	O15	0.018900	0.838000	0.078700
O161	O16	0.819700	0.759300	0.055400
O171	O17	0.289100	0.568700	0.878000
O181	O18	0.327000	0.534500	0.047100
O191	O19	0.481100	0.569100	0.309800
O201	O20	0.680300	0.689600	0.485700
O211	O21	0.710900	0.588900	0.279600
O221	O22	0.673000	0.720100	0.207500
O231	O23	0.518900	0.828700	0.088000
O241	O24	0.319700	0.805400	0.009300
O251	O25	0.309300	0.720400	0.431300
O261	O26	0.512600	0.792500	0.465500
O271	O27	0.740700	0.912000	0.430900
O281	O28	0.796100	0.990700	0.310400
O291	O29	0.690700	0.122000	0.411100
O301	O30	0.487400	0.952900	0.279900
O311	O31	0.259300	0.690200	0.171300
O321	O32	0.203900	0.514300	0.194600
O331	O33	0.927900	0.875000	0.302900
O341	O34	0.540200	0.875000	0.915200
O351	O35	0.072100	0.375000	0.947100
O361	O36	0.459800	0.375000	0.334800
O371	O37	0.572100	0.697100	0.625000
O381	O38	0.959800	0.084800	0.625000
O391	O39	0.427900	0.052900	0.125000
O401	O40	0.040200	0.665200	0.125000
