data_NUVYOT_clean_PM
_symmetry_space_group_name_H-M	'P1'
_cell_length_a	11.285600
_cell_length_b	11.285600
_cell_length_c	27.059000
_cell_angle_alpha	94.054000
_cell_angle_beta	94.054000
_cell_angle_gamma	119.704000
_symmetry_Int_Tables_number 1

loop_
_symmetry_equiv_pos_as_xyz
'x,y,z'

loop_
_atom_site_label
_atom_site_type_symbol
_atom_site_fract_x
_atom_site_fract_y
_atom_site_fract_z
Ni11	Ni1	0.755260	0.512540	0.575320
Ni21	Ni2	0.740390	0.370470	0.391960
Ni31	Ni3	0.512540	0.755260	0.075320
Ni41	Ni4	0.370470	0.740390	0.891960
H11	H1	0.778300	0.459300	0.745300
H21	H2	0.789600	0.522800	0.825700
H31	H3	0.774200	0.713400	0.852900
H41	H4	0.980200	0.078600	0.793900
H51	H5	0.129700	0.246900	0.857200
H61	H6	0.076000	0.241400	0.936400
H71	H7	0.868700	0.055100	0.954800
H81	H8	0.009500	0.093300	0.507400
H91	H9	0.865500	0.940900	0.444600
H101	H10	0.698500	0.966900	0.401200
H111	H11	0.482200	0.963600	0.451800
H121	H12	0.280500	0.770700	0.414200
H131	H13	0.217200	0.750400	0.329500
H141	H14	0.344000	0.924400	0.285000
H151	H15	0.871200	0.821200	0.592100
H161	H16	0.063700	0.023300	0.591300
H171	H17	0.257300	0.823100	0.556600
H181	H18	0.055500	0.617300	0.558000
H191	H19	0.647200	0.212000	0.578400
H201	H20	0.443400	0.002400	0.576200
H211	H21	0.239200	0.210000	0.570700
H221	H22	0.444000	0.401800	0.569500
H231	H23	0.887900	0.257900	0.327500
H241	H24	0.091000	0.262800	0.324600
H251	H25	0.235400	0.532400	0.448000
H261	H26	0.032500	0.525300	0.445200
H271	H27	0.550800	0.412200	0.322000
H281	H28	0.361600	0.438000	0.318700
H291	H29	0.328700	0.363500	0.460400
H301	H30	0.523000	0.342800	0.460500
H311	H31	0.459300	0.778300	0.245300
H321	H32	0.522800	0.789600	0.325700
H331	H33	0.713400	0.774200	0.352900
H341	H34	0.078600	0.980200	0.293900
H351	H35	0.246900	0.129700	0.357200
H361	H36	0.241400	0.076000	0.436400
H371	H37	0.055100	0.868700	0.454800
H381	H38	0.093300	0.009500	0.007400
H391	H39	0.940900	0.865500	0.944600
H401	H40	0.966900	0.698500	0.901200
H411	H41	0.963600	0.482200	0.951800
H421	H42	0.770700	0.280500	0.914200
H431	H43	0.750400	0.217200	0.829500
H441	H44	0.924400	0.344000	0.785000
H451	H45	0.821200	0.871200	0.092100
H461	H46	0.023300	0.063700	0.091300
H471	H47	0.823100	0.257300	0.056600
H481	H48	0.617300	0.055500	0.058000
H491	H49	0.212000	0.647200	0.078400
H501	H50	0.002400	0.443400	0.076200
H511	H51	0.210000	0.239200	0.070700
H521	H52	0.401800	0.444000	0.069500
H531	H53	0.257900	0.887900	0.827500
H541	H54	0.262800	0.091000	0.824600
H551	H55	0.532400	0.235400	0.948000
H561	H56	0.525300	0.032500	0.945200
H571	H57	0.412200	0.550800	0.822000
H581	H58	0.438000	0.361600	0.818700
H591	H59	0.363500	0.328700	0.960400
H601	H60	0.342800	0.523000	0.960500
C11	C1	0.752400	0.570200	0.664300
C21	C2	0.728100	0.815900	0.696900
C31	C3	0.754700	0.611100	0.717800
C41	C4	0.771800	0.536400	0.754900
C51	C5	0.778600	0.574400	0.802400
C61	C6	0.769900	0.688300	0.819000
C71	C7	0.754800	0.763400	0.783500
C81	C8	0.744800	0.726400	0.732800
C91	C9	0.833900	0.973500	0.837400
C101	C10	0.957200	0.076200	0.826300
C111	C11	0.046400	0.175800	0.864400
C121	C12	0.015700	0.172500	0.911200
C131	C13	0.889100	0.061700	0.922100
C141	C14	0.797700	0.964900	0.884500
C151	C15	0.664500	0.850300	0.898100
C161	C16	0.830300	0.240100	0.482000
C171	C17	0.932600	0.223200	0.507400
C181	C18	0.942200	0.106800	0.491200
C191	C19	0.857400	0.017400	0.453800
C201	C20	0.757900	0.031500	0.427600
C211	C21	0.750500	0.148500	0.442600
C221	C22	0.812800	0.364400	0.498700
C231	C23	0.032700	0.321900	0.551300
C241	C24	0.531500	0.056100	0.389100
C251	C25	0.454200	0.954600	0.417900
C261	C26	0.334600	0.839800	0.395500
C271	C27	0.296100	0.828500	0.345100
C281	C28	0.373500	0.931700	0.318600
C291	C29	0.494600	0.047600	0.339500
C301	C30	0.572000	0.152000	0.306400
C311	C31	0.950200	0.820400	0.585000
C321	C32	0.065400	0.942200	0.584300
C331	C33	0.187000	0.948600	0.573400
C341	C34	0.178900	0.825100	0.564000
C351	C35	0.056500	0.699700	0.565000
C361	C36	0.563800	0.210400	0.576000
C371	C37	0.440100	0.082900	0.575000
C381	C38	0.316000	0.078200	0.572300
C391	C39	0.319200	0.205400	0.571300
C401	C40	0.443300	0.319500	0.571300
C411	C41	0.959700	0.314300	0.352400
C421	C42	0.081900	0.316900	0.349900
C431	C43	0.190200	0.401200	0.385600
C441	C44	0.166000	0.476600	0.422400
C451	C45	0.043800	0.469600	0.421300
C461	C46	0.504400	0.399800	0.350000
C471	C47	0.390500	0.415500	0.347800
C481	C48	0.319200	0.397800	0.388500
C491	C49	0.371000	0.372000	0.431500
C501	C50	0.487800	0.358600	0.431200
C511	C51	0.570200	0.752400	0.164300
C521	C52	0.815900	0.728100	0.196900
C531	C53	0.611100	0.754700	0.217800
C541	C54	0.536400	0.771800	0.254900
C551	C55	0.574400	0.778600	0.302400
C561	C56	0.688300	0.769900	0.319000
C571	C57	0.763400	0.754800	0.283500
C581	C58	0.726400	0.744800	0.232800
C591	C59	0.973500	0.833900	0.337400
C601	C60	0.076200	0.957200	0.326300
C611	C61	0.175800	0.046400	0.364400
C621	C62	0.172500	0.015700	0.411200
C631	C63	0.061700	0.889100	0.422100
C641	C64	0.964900	0.797700	0.384500
C651	C65	0.850300	0.664500	0.398100
C661	C66	0.240100	0.830300	0.982000
C671	C67	0.223200	0.932600	0.007400
C681	C68	0.106800	0.942200	0.991200
C691	C69	0.017400	0.857400	0.953800
C701	C70	0.031500	0.757900	0.927600
C711	C71	0.148500	0.750500	0.942600
C721	C72	0.364400	0.812800	0.998700
C731	C73	0.321900	0.032700	0.051300
C741	C74	0.056100	0.531500	0.889100
C751	C75	0.954600	0.454200	0.917900
C761	C76	0.839800	0.334600	0.895500
C771	C77	0.828500	0.296100	0.845100
C781	C78	0.931700	0.373500	0.818600
C791	C79	0.047600	0.494600	0.839500
C801	C80	0.152000	0.572000	0.806400
C811	C81	0.820400	0.950200	0.085000
C821	C82	0.942200	0.065400	0.084300
C831	C83	0.948600	0.187000	0.073400
C841	C84	0.825100	0.178900	0.064000
C851	C85	0.699700	0.056500	0.065000
C861	C86	0.210400	0.563800	0.076000
C871	C87	0.082900	0.440100	0.075000
C881	C88	0.078200	0.316000	0.072300
C891	C89	0.205400	0.319200	0.071300
C901	C90	0.319500	0.443300	0.071300
C911	C91	0.314300	0.959700	0.852400
C921	C92	0.316900	0.081900	0.849900
C931	C93	0.401200	0.190200	0.885600
C941	C94	0.476600	0.166000	0.922400
C951	C95	0.469600	0.043800	0.921300
C961	C96	0.399800	0.504400	0.850000
C971	C97	0.415500	0.390500	0.847800
C981	C98	0.397800	0.319200	0.888500
C991	C99	0.372000	0.371000	0.931500
C1001	C100	0.358600	0.487800	0.931200
N11	N1	0.942200	0.697400	0.575900
N21	N2	0.563100	0.325700	0.573600
N31	N3	0.935700	0.384300	0.386600
N41	N4	0.550600	0.367600	0.390800
N51	N5	0.697400	0.942200	0.075900
N61	N6	0.325700	0.563100	0.073600
N71	N7	0.384300	0.935700	0.886600
N81	N8	0.367600	0.550600	0.890800
O11	O1	0.806800	0.499000	0.651700
O21	O2	0.697100	0.603900	0.631200
O31	O3	0.834200	0.902600	0.680700
O41	O4	0.608300	0.797900	0.686600
O51	O5	0.742200	0.878200	0.796900
O61	O6	0.558900	0.831100	0.871500
O71	O7	0.669100	0.793500	0.933900
O81	O8	0.023600	0.278800	0.592300
O91	O9	0.119100	0.438700	0.542400
O101	O10	0.826400	0.397000	0.544500
O111	O11	0.781300	0.418100	0.466500
O121	O12	0.654300	0.170900	0.414000
O131	O13	0.678300	0.270100	0.322800
O141	O14	0.528400	0.120200	0.260000
O151	O15	0.499000	0.806800	0.151700
O161	O16	0.603900	0.697100	0.131200
O171	O17	0.902600	0.834200	0.180700
O181	O18	0.797900	0.608300	0.186600
O191	O19	0.878200	0.742200	0.296900
O201	O20	0.831100	0.558900	0.371500
O211	O21	0.793500	0.669100	0.433900
O221	O22	0.278800	0.023600	0.092300
O231	O23	0.438700	0.119100	0.042400
O241	O24	0.397000	0.826400	0.044500
O251	O25	0.418100	0.781300	0.966500
O261	O26	0.170900	0.654300	0.914000
O271	O27	0.270100	0.678300	0.822800
O281	O28	0.120200	0.528400	0.760000
