data_NUWBOX_clean_PM
_symmetry_space_group_name_H-M	'P1'
_cell_length_a	16.280000
_cell_length_b	11.924000
_cell_length_c	18.040000
_cell_angle_alpha	90.000000
_cell_angle_beta	103.862000
_cell_angle_gamma	90.000000
_symmetry_Int_Tables_number 1

loop_
_symmetry_equiv_pos_as_xyz
'x,y,z'

loop_
_atom_site_label
_atom_site_type_symbol
_atom_site_fract_x
_atom_site_fract_y
_atom_site_fract_z
Mo11	Mo1	0.216690	0.640560	0.067890
Mo21	Mo2	0.215030	0.348160	0.037350
Mo31	Mo3	0.117960	0.766730	0.967060
Mo41	Mo4	0.980030	0.646230	0.805280
Mo51	Mo5	0.976620	0.429970	0.786920
Mo61	Mo6	0.110600	0.256030	0.921890
Mn11	Mn1	0.624260	0.496040	0.134940
P11	P1	0.172880	0.525000	0.886440
P21	P2	0.061280	0.201590	0.737830
P31	P3	0.388740	0.506250	0.058750
P41	P4	0.123400	0.837360	0.790220
O11	O1	0.238800	0.744800	0.992200
O21	O2	0.093500	0.634800	0.025000
O31	O3	0.091400	0.361100	0.001100
O41	O4	0.115900	0.631700	0.877700
O51	O5	0.477000	0.495800	0.117400
O61	O6	0.114500	0.423000	0.858000
O71	O7	0.211200	0.509600	0.973100
O81	O8	0.964300	0.524000	0.874200
O91	O9	0.240100	0.540700	0.842000
O101	O10	0.992600	0.753500	0.901200
O111	O11	0.204500	0.479800	0.114400
O121	O12	0.341300	0.598900	0.091300
O131	O13	0.232900	0.274700	0.947400
O141	O14	0.342900	0.392600	0.061900
O151	O15	0.018600	0.550400	0.733100
O161	O16	0.986300	0.292400	0.862700
O171	O17	0.122400	0.196900	0.817900
O181	O18	0.136000	0.862000	0.876500
O191	O19	0.985700	0.122900	0.734500
O201	O20	0.039200	0.775700	0.761000
O211	O21	0.403000	0.537200	0.982700
O221	O22	0.029900	0.325100	0.722300
O231	O23	0.130000	0.943600	0.747700
O241	O24	0.108500	0.169800	0.677100
O251	O25	0.197900	0.759700	0.779000
Mo71	Mo7	0.283310	0.140560	0.432110
Mo81	Mo8	0.284970	0.848160	0.462650
Mo91	Mo9	0.382040	0.266730	0.532940
Mo101	Mo10	0.519970	0.146230	0.694720
Mo111	Mo11	0.523380	0.929970	0.713080
Mo121	Mo12	0.389400	0.756030	0.578110
Mn21	Mn2	0.875740	0.996040	0.365060
P51	P5	0.327120	0.025000	0.613560
P61	P6	0.438720	0.701590	0.762170
P71	P7	0.111260	0.006250	0.441250
P81	P8	0.376600	0.337360	0.709780
O261	O26	0.261200	0.244800	0.507800
O271	O27	0.406500	0.134800	0.475000
O281	O28	0.408600	0.861100	0.498900
O291	O29	0.384100	0.131700	0.622300
O301	O30	0.023000	0.995800	0.382600
O311	O31	0.385500	0.923000	0.642000
O321	O32	0.288800	0.009600	0.526900
O331	O33	0.535700	0.024000	0.625800
O341	O34	0.259900	0.040700	0.658000
O351	O35	0.507400	0.253500	0.598800
O361	O36	0.295500	0.979800	0.385600
O371	O37	0.158700	0.098900	0.408700
O381	O38	0.267100	0.774700	0.552600
O391	O39	0.157100	0.892600	0.438100
O401	O40	0.481400	0.050400	0.766900
O411	O41	0.513700	0.792400	0.637300
O421	O42	0.377600	0.696900	0.682100
O431	O43	0.364000	0.362000	0.623500
O441	O44	0.514300	0.622900	0.765500
O451	O45	0.460800	0.275700	0.739000
O461	O46	0.097000	0.037200	0.517300
O471	O47	0.470100	0.825100	0.777700
O481	O48	0.370000	0.443600	0.752300
O491	O49	0.391500	0.669800	0.822900
O501	O50	0.302100	0.259700	0.721000
Mo131	Mo13	0.783310	0.359440	0.932110
Mo141	Mo14	0.784970	0.651840	0.962650
Mo151	Mo15	0.882040	0.233270	0.032940
Mo161	Mo16	0.019970	0.353770	0.194720
Mo171	Mo17	0.023380	0.570030	0.213080
Mo181	Mo18	0.889400	0.743970	0.078110
Mn31	Mn3	0.375740	0.503960	0.865060
P91	P9	0.827120	0.475000	0.113560
P101	P10	0.938720	0.798410	0.262170
P111	P11	0.611260	0.493750	0.941250
P121	P12	0.876600	0.162640	0.209780
O511	O51	0.761200	0.255200	0.007800
O521	O52	0.906500	0.365200	0.975000
O531	O53	0.908600	0.638900	0.998900
O541	O54	0.884100	0.368300	0.122300
O551	O55	0.523000	0.504200	0.882600
O561	O56	0.885500	0.577000	0.142000
O571	O57	0.788800	0.490400	0.026900
O581	O58	0.035700	0.476000	0.125800
O591	O59	0.759900	0.459300	0.158000
O601	O60	0.007400	0.246500	0.098800
O611	O61	0.795500	0.520200	0.885600
O621	O62	0.658700	0.401100	0.908700
O631	O63	0.767100	0.725300	0.052600
O641	O64	0.657100	0.607400	0.938100
O651	O65	0.981400	0.449600	0.266900
O661	O66	0.013700	0.707600	0.137300
O671	O67	0.877600	0.803100	0.182100
O681	O68	0.864000	0.138000	0.123500
O691	O69	0.014300	0.877100	0.265500
O701	O70	0.960800	0.224300	0.239000
O711	O71	0.597000	0.462800	0.017300
O721	O72	0.970100	0.674900	0.277700
O731	O73	0.870000	0.056400	0.252300
O741	O74	0.891500	0.830200	0.322900
O751	O75	0.802100	0.240300	0.221000
Mo191	Mo19	0.716690	0.859440	0.567890
Mo201	Mo20	0.715030	0.151840	0.537350
Mo211	Mo21	0.617960	0.733270	0.467060
Mo221	Mo22	0.480030	0.853770	0.305280
Mo231	Mo23	0.476620	0.070030	0.286920
Mo241	Mo24	0.610600	0.243970	0.421890
Mn41	Mn4	0.124260	0.003960	0.634940
P131	P13	0.672880	0.975000	0.386440
P141	P14	0.561280	0.298410	0.237830
P151	P15	0.888740	0.993750	0.558750
P161	P16	0.623400	0.662640	0.290220
O761	O76	0.738800	0.755200	0.492200
O771	O77	0.593500	0.865200	0.525000
O781	O78	0.591400	0.138900	0.501100
O791	O79	0.615900	0.868300	0.377700
O801	O80	0.977000	0.004200	0.617400
O811	O81	0.614500	0.077000	0.358000
O821	O82	0.711200	0.990400	0.473100
O831	O83	0.464300	0.976000	0.374200
O841	O84	0.740100	0.959300	0.342000
O851	O85	0.492600	0.746500	0.401200
O861	O86	0.704500	0.020200	0.614400
O871	O87	0.841300	0.901100	0.591300
O881	O88	0.732900	0.225300	0.447400
O891	O89	0.842900	0.107400	0.561900
O901	O90	0.518600	0.949600	0.233100
O911	O91	0.486300	0.207600	0.362700
O921	O92	0.622400	0.303100	0.317900
O931	O93	0.636000	0.638000	0.376500
O941	O94	0.485700	0.377100	0.234500
O951	O95	0.539200	0.724300	0.261000
O961	O96	0.903000	0.962800	0.482700
O971	O97	0.529900	0.174900	0.222300
O981	O98	0.630000	0.556400	0.247700
O991	O99	0.608500	0.330200	0.177100
O1001	O100	0.697900	0.740300	0.279000
Mn51	Mn5	0.000000	0.500000	0.000000
Mn61	Mn6	0.500000	0.000000	0.500000
