data_NUXWAG_clean_PM
_symmetry_space_group_name_H-M	'P1'
_cell_length_a	7.951000
_cell_length_b	16.819000
_cell_length_c	15.189000
_cell_angle_alpha	90.000000
_cell_angle_beta	104.290000
_cell_angle_gamma	90.000000
_symmetry_Int_Tables_number 1

loop_
_symmetry_equiv_pos_as_xyz
'x,y,z'

loop_
_atom_site_label
_atom_site_type_symbol
_atom_site_fract_x
_atom_site_fract_y
_atom_site_fract_z
Mo11	Mo1	0.186920	0.664430	0.338480
Mn11	Mn1	0.328300	0.560500	0.692420
N11	N1	0.278500	0.593400	0.549400
N21	N2	0.480900	0.534700	0.308500
N31	N3	0.108300	0.476400	0.670200
N41	N4	0.194700	0.831600	0.229100
N51	N5	0.995300	0.629000	0.124300
N61	N6	0.537400	0.764700	0.441200
N71	N7	0.938100	0.778900	0.429900
C11	C1	0.248700	0.617800	0.476200
C21	C2	0.375700	0.579200	0.315400
C31	C3	0.006100	0.427400	0.664800
C41	C4	0.194300	0.771200	0.264600
C51	C5	0.064000	0.640900	0.199000
C61	C6	0.414500	0.730100	0.407900
C71	C7	0.020000	0.739000	0.394900
Mn21	Mn2	0.775840	0.677350	0.016430
Mo21	Mo2	0.813080	0.164430	0.161520
Mn31	Mn3	0.671700	0.060500	0.807580
N81	N8	0.721500	0.093400	0.950600
N91	N9	0.519100	0.034700	0.191500
N101	N10	0.891700	0.976400	0.829800
N111	N11	0.805300	0.331600	0.270900
N121	N12	0.004700	0.129000	0.375700
N131	N13	0.462600	0.264700	0.058800
N141	N14	0.061900	0.278900	0.070100
C81	C8	0.751300	0.117800	0.023800
C91	C9	0.624300	0.079200	0.184600
C101	C10	0.993900	0.927400	0.835200
C111	C11	0.805700	0.271200	0.235400
C121	C12	0.936000	0.140900	0.301000
C131	C13	0.585500	0.230100	0.092100
C141	C14	0.980000	0.239000	0.105100
Mn41	Mn4	0.224160	0.177350	0.483570
Mo31	Mo3	0.813080	0.335570	0.661520
Mn51	Mn5	0.671700	0.439500	0.307580
N151	N15	0.721500	0.406600	0.450600
N161	N16	0.519100	0.465300	0.691500
N171	N17	0.891700	0.523600	0.329800
N181	N18	0.805300	0.168400	0.770900
N191	N19	0.004700	0.371000	0.875700
N201	N20	0.462600	0.235300	0.558800
N211	N21	0.061900	0.221100	0.570100
C151	C15	0.751300	0.382200	0.523800
C161	C16	0.624300	0.420800	0.684600
C171	C17	0.993900	0.572600	0.335200
C181	C18	0.805700	0.228800	0.735400
C191	C19	0.936000	0.359100	0.801000
C201	C20	0.585500	0.269900	0.592100
C211	C21	0.980000	0.261000	0.605100
Mn61	Mn6	0.224160	0.322650	0.983570
Mo41	Mo4	0.186920	0.835570	0.838480
Mn71	Mn7	0.328300	0.939500	0.192420
N221	N22	0.278500	0.906600	0.049400
N231	N23	0.480900	0.965300	0.808500
N241	N24	0.108300	0.023600	0.170200
N251	N25	0.194700	0.668400	0.729100
N261	N26	0.995300	0.871000	0.624300
N271	N27	0.537400	0.735300	0.941200
N281	N28	0.938100	0.721100	0.929900
C221	C22	0.248700	0.882200	0.976200
C231	C23	0.375700	0.920800	0.815400
C241	C24	0.006100	0.072600	0.164800
C251	C25	0.194300	0.728800	0.764600
C261	C26	0.064000	0.859100	0.699000
C271	C27	0.414500	0.769900	0.907900
C281	C28	0.020000	0.761000	0.894900
Mn81	Mn8	0.775840	0.822650	0.516430
