data_NUYNAY_clean_PM
_symmetry_space_group_name_H-M	'P1'
_cell_length_a	11.691800
_cell_length_b	11.691800
_cell_length_c	13.893700
_cell_angle_alpha	90.000000
_cell_angle_beta	90.000000
_cell_angle_gamma	120.000000
_symmetry_Int_Tables_number 1

loop_
_symmetry_equiv_pos_as_xyz
'x,y,z'

loop_
_atom_site_label
_atom_site_type_symbol
_atom_site_fract_x
_atom_site_fract_y
_atom_site_fract_z
Ti11	Ti1	0.502220	0.185410	0.339540
Ti21	Ti2	0.526010	0.757480	0.839410
O11	O1	0.496070	0.582170	0.775940
O21	O2	0.443210	0.265300	0.442150
O31	O3	0.275300	0.446750	0.708260
O41	O4	0.569120	0.469380	0.441270
O51	O5	0.472200	0.676790	0.954220
O61	O6	0.467040	0.243050	0.228400
O71	O7	0.387070	0.475700	0.884950
O81	O8	0.533630	0.459610	0.261600
C11	C1	0.456670	0.379450	0.454900
C21	C2	0.399520	0.501790	0.728110
C31	C3	0.329750	0.370920	0.483600
C41	C4	0.453500	0.431610	0.663320
C51	C5	0.374260	0.507960	0.518910
C61	C6	0.344460	0.287290	0.644960
C71	C7	0.488330	0.543350	0.586920
C81	C8	0.251250	0.275530	0.563920
C91	C9	0.589040	0.447050	0.017100
C101	C10	0.393100	0.338230	0.117720
C111	C11	0.456170	0.322440	0.027340
C121	C12	0.355790	0.444610	0.115820
C131	C13	0.484510	0.572300	0.106160
C141	C14	0.563450	0.562720	0.013460
C151	C15	0.461950	0.563370	0.939530
C161	C16	0.475010	0.355430	0.212120
Ti31	Ti3	0.814590	0.316810	0.339540
Ti41	Ti4	0.242520	0.768530	0.839410
O91	O9	0.417830	0.913900	0.775940
O101	O10	0.734700	0.177910	0.442150
O111	O11	0.553250	0.828550	0.708260
O121	O12	0.530620	0.099740	0.441270
O131	O13	0.323210	0.795410	0.954220
O141	O14	0.756950	0.223990	0.228400
O151	O15	0.524300	0.911370	0.884950
O161	O16	0.540390	0.074020	0.261600
C171	C17	0.620550	0.077220	0.454900
C181	C18	0.498210	0.897730	0.728110
C191	C19	0.629080	0.958830	0.483600
C201	C20	0.568390	0.021890	0.663320
C211	C21	0.492040	0.866300	0.518910
C221	C22	0.712710	0.057170	0.644960
C231	C23	0.456650	0.944980	0.586920
C241	C24	0.724470	0.975720	0.563920
C251	C25	0.552950	0.141990	0.017100
C261	C26	0.661770	0.054870	0.117720
C271	C27	0.677560	0.133730	0.027340
C281	C28	0.555390	0.911180	0.115820
C291	C29	0.427700	0.912210	0.106160
C301	C30	0.437280	0.000730	0.013460
C311	C31	0.436630	0.898580	0.939530
C321	C32	0.644570	0.119580	0.212120
Ti51	Ti5	0.683190	0.497780	0.339540
Ti61	Ti6	0.231470	0.473990	0.839410
O171	O17	0.086100	0.503930	0.775940
O181	O18	0.822090	0.556790	0.442150
O191	O19	0.171450	0.724700	0.708260
O201	O20	0.900260	0.430880	0.441270
O211	O21	0.204590	0.527800	0.954220
O221	O22	0.776010	0.532960	0.228400
O231	O23	0.088630	0.612930	0.884950
O241	O24	0.925980	0.466370	0.261600
C331	C33	0.922780	0.543330	0.454900
C341	C34	0.102270	0.600480	0.728110
C351	C35	0.041170	0.670250	0.483600
C361	C36	0.978110	0.546500	0.663320
C371	C37	0.133700	0.625740	0.518910
C381	C38	0.942830	0.655540	0.644960
C391	C39	0.055020	0.511670	0.586920
C401	C40	0.024280	0.748750	0.563920
C411	C41	0.858010	0.410960	0.017100
C421	C42	0.945130	0.606900	0.117720
C431	C43	0.866270	0.543830	0.027340
C441	C44	0.088820	0.644210	0.115820
C451	C45	0.087790	0.515490	0.106160
C461	C46	0.999270	0.436550	0.013460
C471	C47	0.101420	0.538050	0.939530
C481	C48	0.880420	0.524990	0.212120
O251	O25	0.333330	0.666670	0.803820
O261	O26	0.666670	0.333330	0.335500
