data_OBENUF_clean_PM
_symmetry_space_group_name_H-M	'P1'
_cell_length_a	7.076000
_cell_length_b	12.814000
_cell_length_c	13.483000
_cell_angle_alpha	90.000000
_cell_angle_beta	104.188000
_cell_angle_gamma	90.000000
_symmetry_Int_Tables_number 1

loop_
_symmetry_equiv_pos_as_xyz
'x,y,z'

loop_
_atom_site_label
_atom_site_type_symbol
_atom_site_fract_x
_atom_site_fract_y
_atom_site_fract_z
Gd11	Gd1	0.383960	0.570400	0.701220
Gd21	Gd2	0.116040	0.070400	0.298780
Gd31	Gd3	0.616040	0.429600	0.298780
Gd41	Gd4	0.883960	0.929600	0.701220
H11	H1	0.296100	0.934900	0.947700
H21	H2	0.434700	0.961900	0.119600
H31	H3	0.532300	0.821200	0.227300
H41	H4	0.373600	0.625900	0.988000
H51	H5	0.203900	0.434900	0.052300
H61	H6	0.065300	0.461900	0.880400
H71	H7	0.967700	0.321200	0.772700
H81	H8	0.126400	0.125900	0.012000
H91	H9	0.703900	0.065100	0.052300
H101	H10	0.565300	0.038100	0.880400
H111	H11	0.467700	0.178800	0.772700
H121	H12	0.626400	0.374100	0.012000
H131	H13	0.796100	0.565100	0.947700
H141	H14	0.934700	0.538100	0.119600
H151	H15	0.032300	0.678800	0.227300
H161	H16	0.873600	0.874100	0.988000
C11	C1	0.230500	0.759200	0.839500
C21	C2	0.320500	0.776500	0.949700
C31	C3	0.338800	0.878200	0.990400
C41	C4	0.419800	0.894400	0.093500
C51	C5	0.478600	0.810200	0.157900
C61	C6	0.457500	0.708400	0.118700
C71	C7	0.382400	0.693200	0.014500
C81	C8	0.515400	0.616000	0.185700
C91	C9	0.393200	0.485300	0.476000
C101	C10	0.269500	0.259200	0.160500
C111	C11	0.179500	0.276500	0.050300
C121	C12	0.161200	0.378200	0.009600
C131	C13	0.080200	0.394400	0.906500
C141	C14	0.021400	0.310200	0.842100
C151	C15	0.042500	0.208400	0.881300
C161	C16	0.117600	0.193200	0.985500
C171	C17	0.984600	0.116000	0.814300
C181	C18	0.106800	0.985300	0.524000
C191	C19	0.769500	0.240800	0.160500
C201	C20	0.679500	0.223500	0.050300
C211	C21	0.661200	0.121800	0.009600
C221	C22	0.580200	0.105600	0.906500
C231	C23	0.521400	0.189800	0.842100
C241	C24	0.542500	0.291600	0.881300
C251	C25	0.617600	0.306800	0.985500
C261	C26	0.484600	0.384000	0.814300
C271	C27	0.606800	0.514700	0.524000
C281	C28	0.730500	0.740800	0.839500
C291	C29	0.820500	0.723500	0.949700
C301	C30	0.838800	0.621800	0.990400
C311	C31	0.919800	0.605600	0.093500
C321	C32	0.978600	0.689800	0.157900
C331	C33	0.957500	0.791600	0.118700
C341	C34	0.882400	0.806800	0.014500
C351	C35	0.015400	0.884000	0.185700
C361	C36	0.893200	0.014700	0.476000
O11	O1	0.235400	0.669100	0.803400
O21	O2	0.652800	0.665500	0.784500
O31	O3	0.562600	0.623900	0.283700
O41	O4	0.516100	0.527100	0.146100
O51	O5	0.271100	0.503700	0.525900
O61	O6	0.640300	0.554600	0.612100
O71	O7	0.264600	0.169100	0.196600
O81	O8	0.847200	0.165500	0.215500
O91	O9	0.937400	0.123900	0.716300
O101	O10	0.983900	0.027100	0.853900
O111	O11	0.228900	0.003700	0.474100
O121	O12	0.859700	0.054600	0.387900
O131	O13	0.764600	0.330900	0.196600
O141	O14	0.347200	0.334500	0.215500
O151	O15	0.437400	0.376100	0.716300
O161	O16	0.483900	0.472900	0.853900
O171	O17	0.728900	0.496300	0.474100
O181	O18	0.359700	0.445400	0.387900
O191	O19	0.735400	0.830900	0.803400
O201	O20	0.152800	0.834500	0.784500
O211	O21	0.062600	0.876100	0.283700
O221	O22	0.016100	0.972900	0.146100
O231	O23	0.771100	0.996300	0.525900
O241	O24	0.140300	0.945400	0.612100
