data_OBIBAF_clean_PM
_symmetry_space_group_name_H-M	'P1'
_cell_length_a	16.746000
_cell_length_b	34.094000
_cell_length_c	19.114000
_cell_angle_alpha	90.000000
_cell_angle_beta	104.321000
_cell_angle_gamma	90.000000
_symmetry_Int_Tables_number 1

loop_
_symmetry_equiv_pos_as_xyz
'x,y,z'

loop_
_atom_site_label
_atom_site_type_symbol
_atom_site_fract_x
_atom_site_fract_y
_atom_site_fract_z
Mg11	Mg1	0.510700	0.832320	0.531720
Mg21	Mg2	0.294030	0.822380	0.482280
Mg31	Mg3	0.004490	0.875040	0.493470
Mg41	Mg4	0.204760	0.346180	0.038630
O11	O1	0.397490	0.975870	0.172120
O21	O2	0.457170	0.866220	0.445830
O31	O3	0.321710	0.858380	0.406360
O41	O4	0.356880	0.966170	0.841830
O51	O5	0.321770	0.859580	0.565480
O61	O6	0.458960	0.861500	0.603290
O71	O7	0.461540	0.119850	0.047910
O81	O8	0.586870	0.291970	0.991590
O91	O9	0.690400	0.269940	0.076170
O101	O10	0.853850	0.977200	0.833680
O111	O11	0.956340	0.889500	0.577930
O121	O12	0.822750	0.872510	0.556720
O131	O13	0.963600	0.134670	0.002800
O141	O14	0.147000	0.297030	0.036800
O151	O15	0.018900	0.317180	0.995640
O161	O16	0.885270	0.994850	0.162160
O171	O17	0.757770	0.885710	0.380770
O181	O18	0.888450	0.881530	0.424890
O191	O19	0.687400	0.827770	0.469550
O201	O20	0.567090	0.800050	0.466490
O211	O21	0.050110	0.861400	0.404760
O221	O22	0.176360	0.840880	0.452460
C11	C1	0.350500	0.006650	0.058200
C21	C2	0.374700	0.984630	0.004300
C31	C3	0.398600	0.004400	0.948780
C41	C4	0.396400	0.044970	0.944900
C51	C5	0.375000	0.066780	0.000300
C61	C6	0.354100	0.047570	0.057400
C71	C7	0.375200	0.940520	0.006100
H11	H1	0.356900	0.931400	0.048200
H21	H2	0.337900	0.930400	0.961900
H31	H3	0.431200	0.931000	0.009200
C81	C8	0.414400	0.066600	0.879700
H41	H4	0.410100	0.095000	0.886300
H51	H5	0.470200	0.060100	0.875900
H61	H6	0.374300	0.058500	0.835500
C91	C9	0.335300	0.070640	0.118900
H71	H7	0.321900	0.052500	0.154200
H81	H8	0.383600	0.086300	0.142300
H91	H9	0.288400	0.088100	0.100200
C101	C10	0.324400	0.984990	0.118000
H101	H10	0.287400	0.001600	0.138500
H111	H11	0.294600	0.960600	0.099000
C111	C11	0.390500	0.951370	0.226900
C121	C12	0.462500	0.940020	0.274200
H121	H12	0.513400	0.949900	0.268000
C131	C13	0.462900	0.914730	0.330400
H131	H13	0.513700	0.906900	0.361700
C141	C14	0.389100	0.900610	0.341400
C151	C15	0.316200	0.912590	0.294300
H141	H14	0.265300	0.903200	0.301100
C161	C16	0.315600	0.937700	0.237900
H151	H15	0.264900	0.945700	0.206700
C171	C17	0.389000	0.872890	0.402100
C181	C18	0.428800	0.981110	0.893900
H161	H16	0.461800	0.998000	0.869500
H171	H17	0.463900	0.959100	0.917600
C191	C19	0.369200	0.943230	0.787500
C201	C20	0.445800	0.935360	0.774400
H181	H18	0.494300	0.946500	0.804300
C211	C21	0.450800	0.910950	0.717000
H191	H19	0.503400	0.905100	0.709200
C221	C22	0.382100	0.895170	0.671800
C231	C23	0.306200	0.903970	0.684900
H201	H20	0.257600	0.893600	0.653700
C241	C24	0.299300	0.927260	0.741900
H211	H21	0.246600	0.932400	0.750100
C251	C25	0.388400	0.870170	0.609000
C261	C26	0.382100	0.110560	0.001000
H221	H22	0.378300	0.120600	0.951700
H231	H23	0.337500	0.122500	0.019500
C271	C27	0.493900	0.156550	0.042600
C281	C28	0.458600	0.185100	0.993100
H241	H24	0.406900	0.180400	0.960100
C291	C29	0.498500	0.220280	0.991900
H251	H25	0.474500	0.239500	0.957000
C301	C30	0.572900	0.228240	0.040300
C311	C31	0.607000	0.199830	0.091200
H261	H26	0.657600	0.204900	0.125500
C321	C32	0.567900	0.164260	0.092200
H271	H27	0.591900	0.145000	0.127000
C331	C33	0.618900	0.265520	0.036500
C341	C34	0.897200	0.016690	0.937400
C351	C35	0.872900	0.999180	0.995400
C361	C36	0.848200	0.024430	0.045100
C371	C37	0.854500	0.065090	0.040200
C381	C38	0.875100	0.080520	0.979900
C391	C39	0.896200	0.057520	0.927700
C401	C40	0.872200	0.955190	0.004900
H281	H28	0.853400	0.948900	0.048300
H291	H29	0.834700	0.943300	0.962600
H301	H30	0.927900	0.944900	0.010000
C411	C41	0.841700	0.090840	0.101800
H311	H31	0.827600	0.074300	0.139000
H321	H32	0.892500	0.105300	0.122800
H331	H33	0.796800	0.109400	0.083200
C421	C42	0.915700	0.075300	0.862300
H341	H34	0.929200	0.054400	0.831900
H351	H35	0.867800	0.090000	0.835000
H361	H36	0.962900	0.093000	0.877300
C431	C43	0.926300	0.990600	0.886300
H371	H37	0.963100	0.005200	0.862200
H381	H38	0.957100	0.968000	0.912400
C441	C44	0.866900	0.954520	0.778000
C451	C45	0.795900	0.941670	0.728300
H391	H39	0.743000	0.948100	0.734800
C461	C46	0.802900	0.919950	0.670400
H401	H40	0.754400	0.910300	0.638000
C471	C47	0.879200	0.911570	0.657600
C481	C48	0.948700	0.924530	0.708100
H411	H41	0.001600	0.918300	0.701200
C491	C49	0.943500	0.945970	0.767400
H421	H42	0.992000	0.954800	0.800800
C501	C50	0.886700	0.889570	0.592800
C511	C51	0.815600	0.006110	0.103900
H431	H43	0.780400	0.025100	0.121700
H441	H44	0.782000	0.982800	0.085100
C521	C52	0.868300	0.971520	0.215100
C531	C53	0.789600	0.966350	0.224800
H451	H45	0.744000	0.979400	0.194200
C541	C54	0.778100	0.942410	0.278700
H461	H46	0.724200	0.939200	0.285500
C551	C55	0.843800	0.922660	0.323800
C561	C56	0.922500	0.930100	0.314900
H471	H47	0.969000	0.918500	0.347200
C571	C57	0.934000	0.953730	0.260800
H481	H48	0.988000	0.957900	0.254800
C581	C58	0.829200	0.896260	0.379600
C591	C59	0.878800	0.125020	0.974000
H491	H49	0.860000	0.133500	0.923000
H501	H50	0.843800	0.137700	0.002300
C601	C60	0.984400	0.173600	0.005600
C611	C61	0.067300	0.181800	0.035900
H511	H51	0.104200	0.161200	0.055500
C621	C62	0.095400	0.219500	0.037300
H521	H52	0.152600	0.224800	0.054600
C631	C63	0.040900	0.250240	0.013600
C641	C64	0.958400	0.242450	0.988600
H531	H53	0.920900	0.263500	0.973400
C651	C65	0.928400	0.203730	0.985100
H541	H54	0.871000	0.198500	0.969100
C661	C66	0.071200	0.291380	0.015400
C671	C67	0.633900	0.801020	0.450600
C681	C68	0.656100	0.766600	0.409500
H551	H55	0.710400	0.771000	0.400200
H561	H56	0.657500	0.742600	0.438000
H571	H57	0.614800	0.763800	0.363400
C691	C69	0.117200	0.847070	0.399200
C701	C70	0.127100	0.839200	0.325200
H581	H58	0.075700	0.845400	0.289600
H591	H59	0.171800	0.855400	0.316200
H601	H60	0.140400	0.811400	0.321000
Mg51	Mg5	0.489300	0.332320	0.968280
Mg61	Mg6	0.705970	0.322380	0.017720
Mg71	Mg7	0.995510	0.375040	0.006530
Mg81	Mg8	0.795240	0.846180	0.461370
O231	O23	0.602510	0.475870	0.327880
O241	O24	0.542830	0.366220	0.054170
O251	O25	0.678290	0.358380	0.093640
O261	O26	0.643120	0.466170	0.658170
O271	O27	0.678230	0.359580	0.934520
O281	O28	0.541040	0.361500	0.896710
O291	O29	0.538460	0.619850	0.452090
O301	O30	0.413130	0.791970	0.508410
O311	O31	0.309600	0.769940	0.423830
O321	O32	0.146150	0.477200	0.666320
O331	O33	0.043660	0.389500	0.922070
O341	O34	0.177250	0.372510	0.943280
O351	O35	0.036400	0.634670	0.497200
O361	O36	0.853000	0.797030	0.463200
O371	O37	0.981100	0.817180	0.504360
O381	O38	0.114730	0.494850	0.337840
O391	O39	0.242230	0.385710	0.119230
O401	O40	0.111550	0.381530	0.075110
O411	O41	0.312600	0.327770	0.030450
O421	O42	0.432910	0.300050	0.033510
O431	O43	0.949890	0.361400	0.095240
O441	O44	0.823640	0.340880	0.047540
C711	C71	0.649500	0.506650	0.441800
C721	C72	0.625300	0.484630	0.495700
C731	C73	0.601400	0.504400	0.551220
C741	C74	0.603600	0.544970	0.555100
C751	C75	0.625000	0.566780	0.499700
C761	C76	0.645900	0.547570	0.442600
C771	C77	0.624800	0.440520	0.493900
H611	H61	0.643100	0.431400	0.451800
H621	H62	0.662100	0.430400	0.538100
H631	H63	0.568800	0.431000	0.490800
C781	C78	0.585600	0.566600	0.620300
H641	H64	0.589900	0.595000	0.613700
H651	H65	0.529800	0.560100	0.624100
H661	H66	0.625700	0.558500	0.664500
C791	C79	0.664700	0.570640	0.381100
H671	H67	0.678100	0.552500	0.345800
H681	H68	0.616400	0.586300	0.357700
H691	H69	0.711600	0.588100	0.399800
C801	C80	0.675600	0.484990	0.382000
H701	H70	0.712600	0.501600	0.361500
H711	H71	0.705400	0.460600	0.401000
C811	C81	0.609500	0.451370	0.273100
C821	C82	0.537500	0.440020	0.225800
H721	H72	0.486600	0.449900	0.232000
C831	C83	0.537100	0.414730	0.169600
H731	H73	0.486300	0.406900	0.138300
C841	C84	0.610900	0.400610	0.158600
C851	C85	0.683800	0.412590	0.205700
H741	H74	0.734700	0.403200	0.198900
C861	C86	0.684400	0.437700	0.262100
H751	H75	0.735100	0.445700	0.293300
C871	C87	0.611000	0.372890	0.097900
C881	C88	0.571200	0.481110	0.606100
H761	H76	0.538200	0.498000	0.630500
H771	H77	0.536100	0.459100	0.582400
C891	C89	0.630800	0.443230	0.712500
C901	C90	0.554200	0.435360	0.725600
H781	H78	0.505700	0.446500	0.695700
C911	C91	0.549200	0.410950	0.783000
H791	H79	0.496600	0.405100	0.790800
C921	C92	0.617900	0.395170	0.828200
C931	C93	0.693800	0.403970	0.815100
H801	H80	0.742400	0.393600	0.846300
C941	C94	0.700700	0.427260	0.758100
H811	H81	0.753400	0.432400	0.749900
C951	C95	0.611600	0.370170	0.891000
C961	C96	0.617900	0.610560	0.499000
H821	H82	0.621700	0.620600	0.548300
H831	H83	0.662500	0.622500	0.480500
C971	C97	0.506100	0.656550	0.457400
C981	C98	0.541400	0.685100	0.506900
H841	H84	0.593100	0.680400	0.539900
C991	C99	0.501500	0.720280	0.508100
H851	H85	0.525500	0.739500	0.543000
C1001	C100	0.427100	0.728240	0.459700
C1011	C101	0.393000	0.699830	0.408800
H861	H86	0.342400	0.704900	0.374500
C1021	C102	0.432100	0.664260	0.407800
H871	H87	0.408100	0.645000	0.373000
C1031	C103	0.381100	0.765520	0.463500
C1041	C104	0.102800	0.516690	0.562600
C1051	C105	0.127100	0.499180	0.504600
C1061	C106	0.151800	0.524430	0.454900
C1071	C107	0.145500	0.565090	0.459800
C1081	C108	0.124900	0.580520	0.520100
C1091	C109	0.103800	0.557520	0.572300
C1101	C110	0.127800	0.455190	0.495100
H881	H88	0.146600	0.448900	0.451700
H891	H89	0.165300	0.443300	0.537400
H901	H90	0.072100	0.444900	0.490000
C1111	C111	0.158300	0.590840	0.398200
H911	H91	0.172400	0.574300	0.361000
H921	H92	0.107500	0.605300	0.377200
H931	H93	0.203200	0.609400	0.416800
C1121	C112	0.084300	0.575300	0.637700
H941	H94	0.070800	0.554400	0.668100
H951	H95	0.132200	0.590000	0.665000
H961	H96	0.037100	0.593000	0.622700
C1131	C113	0.073700	0.490600	0.613700
H971	H97	0.036900	0.505200	0.637800
H981	H98	0.042900	0.468000	0.587600
C1141	C114	0.133100	0.454520	0.722000
C1151	C115	0.204100	0.441670	0.771700
H991	H99	0.257000	0.448100	0.765200
C1161	C116	0.197100	0.419950	0.829600
H1001	H100	0.245600	0.410300	0.862000
C1171	C117	0.120800	0.411570	0.842400
C1181	C118	0.051300	0.424530	0.791900
H1011	H101	0.998400	0.418300	0.798800
C1191	C119	0.056500	0.445970	0.732600
H1021	H102	0.008000	0.454800	0.699200
C1201	C120	0.113300	0.389570	0.907200
C1211	C121	0.184400	0.506110	0.396100
H1031	H103	0.219600	0.525100	0.378300
H1041	H104	0.218000	0.482800	0.414900
C1221	C122	0.131700	0.471520	0.284900
C1231	C123	0.210400	0.466350	0.275200
H1051	H105	0.256000	0.479400	0.305800
C1241	C124	0.221900	0.442410	0.221300
H1061	H106	0.275800	0.439200	0.214500
C1251	C125	0.156200	0.422660	0.176200
C1261	C126	0.077500	0.430100	0.185100
H1071	H107	0.031000	0.418500	0.152800
C1271	C127	0.066000	0.453730	0.239200
H1081	H108	0.012000	0.457900	0.245200
C1281	C128	0.170800	0.396260	0.120400
C1291	C129	0.121200	0.625020	0.526000
H1091	H109	0.140000	0.633500	0.577000
H1101	H110	0.156200	0.637700	0.497700
C1301	C130	0.015600	0.673600	0.494400
C1311	C131	0.932700	0.681800	0.464100
H1111	H111	0.895800	0.661200	0.444500
C1321	C132	0.904600	0.719500	0.462700
H1121	H112	0.847400	0.724800	0.445400
C1331	C133	0.959100	0.750240	0.486400
C1341	C134	0.041600	0.742450	0.511400
H1131	H113	0.079100	0.763500	0.526600
C1351	C135	0.071600	0.703730	0.514900
H1141	H114	0.129000	0.698500	0.530900
C1361	C136	0.928800	0.791380	0.484600
C1371	C137	0.366100	0.301020	0.049400
C1381	C138	0.343900	0.266600	0.090500
H1151	H115	0.289600	0.271000	0.099800
H1161	H116	0.342500	0.242600	0.062000
H1171	H117	0.385200	0.263800	0.136600
C1391	C139	0.882800	0.347070	0.100800
C1401	C140	0.872900	0.339200	0.174800
H1181	H118	0.924300	0.345400	0.210400
H1191	H119	0.828200	0.355400	0.183800
H1201	H120	0.859600	0.311400	0.179000
Mg91	Mg9	0.489300	0.167680	0.468280
Mg101	Mg10	0.705970	0.177620	0.517720
Mg111	Mg11	0.995510	0.124960	0.506530
Mg121	Mg12	0.795240	0.653820	0.961370
O451	O45	0.602510	0.024130	0.827880
O461	O46	0.542830	0.133780	0.554170
O471	O47	0.678290	0.141620	0.593640
O481	O48	0.643120	0.033830	0.158170
O491	O49	0.678230	0.140420	0.434520
O501	O50	0.541040	0.138500	0.396710
O511	O51	0.538460	0.880150	0.952090
O521	O52	0.413130	0.708030	0.008410
O531	O53	0.309600	0.730060	0.923830
O541	O54	0.146150	0.022800	0.166320
O551	O55	0.043660	0.110500	0.422070
O561	O56	0.177250	0.127490	0.443280
O571	O57	0.036400	0.865330	0.997200
O581	O58	0.853000	0.702970	0.963200
O591	O59	0.981100	0.682820	0.004360
O601	O60	0.114730	0.005150	0.837840
O611	O61	0.242230	0.114290	0.619230
O621	O62	0.111550	0.118470	0.575110
O631	O63	0.312600	0.172230	0.530450
O641	O64	0.432910	0.199950	0.533510
O651	O65	0.949890	0.138600	0.595240
O661	O66	0.823640	0.159120	0.547540
C1411	C141	0.649500	0.993350	0.941800
C1421	C142	0.625300	0.015370	0.995700
C1431	C143	0.601400	0.995600	0.051220
C1441	C144	0.603600	0.955030	0.055100
C1451	C145	0.625000	0.933220	0.999700
C1461	C146	0.645900	0.952430	0.942600
C1471	C147	0.624800	0.059480	0.993900
H1211	H121	0.643100	0.068600	0.951800
H1221	H122	0.662100	0.069600	0.038100
H1231	H123	0.568800	0.069000	0.990800
C1481	C148	0.585600	0.933400	0.120300
H1241	H124	0.589900	0.905000	0.113700
H1251	H125	0.529800	0.939900	0.124100
H1261	H126	0.625700	0.941500	0.164500
C1491	C149	0.664700	0.929360	0.881100
H1271	H127	0.678100	0.947500	0.845800
H1281	H128	0.616400	0.913700	0.857700
H1291	H129	0.711600	0.911900	0.899800
C1501	C150	0.675600	0.015010	0.882000
H1301	H130	0.712600	0.998400	0.861500
H1311	H131	0.705400	0.039400	0.901000
C1511	C151	0.609500	0.048630	0.773100
C1521	C152	0.537500	0.059980	0.725800
H1321	H132	0.486600	0.050100	0.732000
C1531	C153	0.537100	0.085270	0.669600
H1331	H133	0.486300	0.093100	0.638300
C1541	C154	0.610900	0.099390	0.658600
C1551	C155	0.683800	0.087410	0.705700
H1341	H134	0.734700	0.096800	0.698900
C1561	C156	0.684400	0.062300	0.762100
H1351	H135	0.735100	0.054300	0.793300
C1571	C157	0.611000	0.127110	0.597900
C1581	C158	0.571200	0.018890	0.106100
H1361	H136	0.538200	0.002000	0.130500
H1371	H137	0.536100	0.040900	0.082400
C1591	C159	0.630800	0.056770	0.212500
C1601	C160	0.554200	0.064640	0.225600
H1381	H138	0.505700	0.053500	0.195700
C1611	C161	0.549200	0.089050	0.283000
H1391	H139	0.496600	0.094900	0.290800
C1621	C162	0.617900	0.104830	0.328200
C1631	C163	0.693800	0.096030	0.315100
H1401	H140	0.742400	0.106400	0.346300
C1641	C164	0.700700	0.072740	0.258100
H1411	H141	0.753400	0.067600	0.249900
C1651	C165	0.611600	0.129830	0.391000
C1661	C166	0.617900	0.889440	0.999000
H1421	H142	0.621700	0.879400	0.048300
H1431	H143	0.662500	0.877500	0.980500
C1671	C167	0.506100	0.843450	0.957400
C1681	C168	0.541400	0.814900	0.006900
H1441	H144	0.593100	0.819600	0.039900
C1691	C169	0.501500	0.779720	0.008100
H1451	H145	0.525500	0.760500	0.043000
C1701	C170	0.427100	0.771760	0.959700
C1711	C171	0.393000	0.800170	0.908800
H1461	H146	0.342400	0.795100	0.874500
C1721	C172	0.432100	0.835740	0.907800
H1471	H147	0.408100	0.855000	0.873000
C1731	C173	0.381100	0.734480	0.963500
C1741	C174	0.102800	0.983310	0.062600
C1751	C175	0.127100	0.000820	0.004600
C1761	C176	0.151800	0.975570	0.954900
C1771	C177	0.145500	0.934910	0.959800
C1781	C178	0.124900	0.919480	0.020100
C1791	C179	0.103800	0.942480	0.072300
C1801	C180	0.127800	0.044810	0.995100
H1481	H148	0.146600	0.051100	0.951700
H1491	H149	0.165300	0.056700	0.037400
H1501	H150	0.072100	0.055100	0.990000
C1811	C181	0.158300	0.909160	0.898200
H1511	H151	0.172400	0.925700	0.861000
H1521	H152	0.107500	0.894700	0.877200
H1531	H153	0.203200	0.890600	0.916800
C1821	C182	0.084300	0.924700	0.137700
H1541	H154	0.070800	0.945600	0.168100
H1551	H155	0.132200	0.910000	0.165000
H1561	H156	0.037100	0.907000	0.122700
C1831	C183	0.073700	0.009400	0.113700
H1571	H157	0.036900	0.994800	0.137800
H1581	H158	0.042900	0.032000	0.087600
C1841	C184	0.133100	0.045480	0.222000
C1851	C185	0.204100	0.058330	0.271700
H1591	H159	0.257000	0.051900	0.265200
C1861	C186	0.197100	0.080050	0.329600
H1601	H160	0.245600	0.089700	0.362000
C1871	C187	0.120800	0.088430	0.342400
C1881	C188	0.051300	0.075470	0.291900
H1611	H161	0.998400	0.081700	0.298800
C1891	C189	0.056500	0.054030	0.232600
H1621	H162	0.008000	0.045200	0.199200
C1901	C190	0.113300	0.110430	0.407200
C1911	C191	0.184400	0.993890	0.896100
H1631	H163	0.219600	0.974900	0.878300
H1641	H164	0.218000	0.017200	0.914900
C1921	C192	0.131700	0.028480	0.784900
C1931	C193	0.210400	0.033650	0.775200
H1651	H165	0.256000	0.020600	0.805800
C1941	C194	0.221900	0.057590	0.721300
H1661	H166	0.275800	0.060800	0.714500
C1951	C195	0.156200	0.077340	0.676200
C1961	C196	0.077500	0.069900	0.685100
H1671	H167	0.031000	0.081500	0.652800
C1971	C197	0.066000	0.046270	0.739200
H1681	H168	0.012000	0.042100	0.745200
C1981	C198	0.170800	0.103740	0.620400
C1991	C199	0.121200	0.874980	0.026000
H1691	H169	0.140000	0.866500	0.077000
H1701	H170	0.156200	0.862300	0.997700
C2001	C200	0.015600	0.826400	0.994400
C2011	C201	0.932700	0.818200	0.964100
H1711	H171	0.895800	0.838800	0.944500
C2021	C202	0.904600	0.780500	0.962700
H1721	H172	0.847400	0.775200	0.945400
C2031	C203	0.959100	0.749760	0.986400
C2041	C204	0.041600	0.757550	0.011400
H1731	H173	0.079100	0.736500	0.026600
C2051	C205	0.071600	0.796270	0.014900
H1741	H174	0.129000	0.801500	0.030900
C2061	C206	0.928800	0.708620	0.984600
C2071	C207	0.366100	0.198980	0.549400
C2081	C208	0.343900	0.233400	0.590500
H1751	H175	0.289600	0.229000	0.599800
H1761	H176	0.342500	0.257400	0.562000
H1771	H177	0.385200	0.236200	0.636600
C2091	C209	0.882800	0.152930	0.600800
C2101	C210	0.872900	0.160800	0.674800
H1781	H178	0.924300	0.154600	0.710400
H1791	H179	0.828200	0.144600	0.683800
H1801	H180	0.859600	0.188600	0.679000
Mg131	Mg13	0.510700	0.667680	0.031720
Mg141	Mg14	0.294030	0.677620	0.982280
Mg151	Mg15	0.004490	0.624960	0.993470
Mg161	Mg16	0.204760	0.153820	0.538630
O671	O67	0.397490	0.524130	0.672120
O681	O68	0.457170	0.633780	0.945830
O691	O69	0.321710	0.641620	0.906360
O701	O70	0.356880	0.533830	0.341830
O711	O71	0.321770	0.640420	0.065480
O721	O72	0.458960	0.638500	0.103290
O731	O73	0.461540	0.380150	0.547910
O741	O74	0.586870	0.208030	0.491590
O751	O75	0.690400	0.230060	0.576170
O761	O76	0.853850	0.522800	0.333680
O771	O77	0.956340	0.610500	0.077930
O781	O78	0.822750	0.627490	0.056720
O791	O79	0.963600	0.365330	0.502800
O801	O80	0.147000	0.202970	0.536800
O811	O81	0.018900	0.182820	0.495640
O821	O82	0.885270	0.505150	0.662160
O831	O83	0.757770	0.614290	0.880770
O841	O84	0.888450	0.618470	0.924890
O851	O85	0.687400	0.672230	0.969550
O861	O86	0.567090	0.699950	0.966490
O871	O87	0.050110	0.638600	0.904760
O881	O88	0.176360	0.659120	0.952460
C2111	C211	0.350500	0.493350	0.558200
C2121	C212	0.374700	0.515370	0.504300
C2131	C213	0.398600	0.495600	0.448780
C2141	C214	0.396400	0.455030	0.444900
C2151	C215	0.375000	0.433220	0.500300
C2161	C216	0.354100	0.452430	0.557400
C2171	C217	0.375200	0.559480	0.506100
H1811	H181	0.356900	0.568600	0.548200
H1821	H182	0.337900	0.569600	0.461900
H1831	H183	0.431200	0.569000	0.509200
C2181	C218	0.414400	0.433400	0.379700
H1841	H184	0.410100	0.405000	0.386300
H1851	H185	0.470200	0.439900	0.375900
H1861	H186	0.374300	0.441500	0.335500
C2191	C219	0.335300	0.429360	0.618900
H1871	H187	0.321900	0.447500	0.654200
H1881	H188	0.383600	0.413700	0.642300
H1891	H189	0.288400	0.411900	0.600200
C2201	C220	0.324400	0.515010	0.618000
H1901	H190	0.287400	0.498400	0.638500
H1911	H191	0.294600	0.539400	0.599000
C2211	C221	0.390500	0.548630	0.726900
C2221	C222	0.462500	0.559980	0.774200
H1921	H192	0.513400	0.550100	0.768000
C2231	C223	0.462900	0.585270	0.830400
H1931	H193	0.513700	0.593100	0.861700
C2241	C224	0.389100	0.599390	0.841400
C2251	C225	0.316200	0.587410	0.794300
H1941	H194	0.265300	0.596800	0.801100
C2261	C226	0.315600	0.562300	0.737900
H1951	H195	0.264900	0.554300	0.706700
C2271	C227	0.389000	0.627110	0.902100
C2281	C228	0.428800	0.518890	0.393900
H1961	H196	0.461800	0.502000	0.369500
H1971	H197	0.463900	0.540900	0.417600
C2291	C229	0.369200	0.556770	0.287500
C2301	C230	0.445800	0.564640	0.274400
H1981	H198	0.494300	0.553500	0.304300
C2311	C231	0.450800	0.589050	0.217000
H1991	H199	0.503400	0.594900	0.209200
C2321	C232	0.382100	0.604830	0.171800
C2331	C233	0.306200	0.596030	0.184900
H2001	H200	0.257600	0.606400	0.153700
C2341	C234	0.299300	0.572740	0.241900
H2011	H201	0.246600	0.567600	0.250100
C2351	C235	0.388400	0.629830	0.109000
C2361	C236	0.382100	0.389440	0.501000
H2021	H202	0.378300	0.379400	0.451700
H2031	H203	0.337500	0.377500	0.519500
C2371	C237	0.493900	0.343450	0.542600
C2381	C238	0.458600	0.314900	0.493100
H2041	H204	0.406900	0.319600	0.460100
C2391	C239	0.498500	0.279720	0.491900
H2051	H205	0.474500	0.260500	0.457000
C2401	C240	0.572900	0.271760	0.540300
C2411	C241	0.607000	0.300170	0.591200
H2061	H206	0.657600	0.295100	0.625500
C2421	C242	0.567900	0.335740	0.592200
H2071	H207	0.591900	0.355000	0.627000
C2431	C243	0.618900	0.234480	0.536500
C2441	C244	0.897200	0.483310	0.437400
C2451	C245	0.872900	0.500820	0.495400
C2461	C246	0.848200	0.475570	0.545100
C2471	C247	0.854500	0.434910	0.540200
C2481	C248	0.875100	0.419480	0.479900
C2491	C249	0.896200	0.442480	0.427700
C2501	C250	0.872200	0.544810	0.504900
H2081	H208	0.853400	0.551100	0.548300
H2091	H209	0.834700	0.556700	0.462600
H2101	H210	0.927900	0.555100	0.510000
C2511	C251	0.841700	0.409160	0.601800
H2111	H211	0.827600	0.425700	0.639000
H2121	H212	0.892500	0.394700	0.622800
H2131	H213	0.796800	0.390600	0.583200
C2521	C252	0.915700	0.424700	0.362300
H2141	H214	0.929200	0.445600	0.331900
H2151	H215	0.867800	0.410000	0.335000
H2161	H216	0.962900	0.407000	0.377300
C2531	C253	0.926300	0.509400	0.386300
H2171	H217	0.963100	0.494800	0.362200
H2181	H218	0.957100	0.532000	0.412400
C2541	C254	0.866900	0.545480	0.278000
C2551	C255	0.795900	0.558330	0.228300
H2191	H219	0.743000	0.551900	0.234800
C2561	C256	0.802900	0.580050	0.170400
H2201	H220	0.754400	0.589700	0.138000
C2571	C257	0.879200	0.588430	0.157600
C2581	C258	0.948700	0.575470	0.208100
H2211	H221	0.001600	0.581700	0.201200
C2591	C259	0.943500	0.554030	0.267400
H2221	H222	0.992000	0.545200	0.300800
C2601	C260	0.886700	0.610430	0.092800
C2611	C261	0.815600	0.493890	0.603900
H2231	H223	0.780400	0.474900	0.621700
H2241	H224	0.782000	0.517200	0.585100
C2621	C262	0.868300	0.528480	0.715100
C2631	C263	0.789600	0.533650	0.724800
H2251	H225	0.744000	0.520600	0.694200
C2641	C264	0.778100	0.557590	0.778700
H2261	H226	0.724200	0.560800	0.785500
C2651	C265	0.843800	0.577340	0.823800
C2661	C266	0.922500	0.569900	0.814900
H2271	H227	0.969000	0.581500	0.847200
C2671	C267	0.934000	0.546270	0.760800
H2281	H228	0.988000	0.542100	0.754800
C2681	C268	0.829200	0.603740	0.879600
C2691	C269	0.878800	0.374980	0.474000
H2291	H229	0.860000	0.366500	0.423000
H2301	H230	0.843800	0.362300	0.502300
C2701	C270	0.984400	0.326400	0.505600
C2711	C271	0.067300	0.318200	0.535900
H2311	H231	0.104200	0.338800	0.555500
C2721	C272	0.095400	0.280500	0.537300
H2321	H232	0.152600	0.275200	0.554600
C2731	C273	0.040900	0.249760	0.513600
C2741	C274	0.958400	0.257550	0.488600
H2331	H233	0.920900	0.236500	0.473400
C2751	C275	0.928400	0.296270	0.485100
H2341	H234	0.871000	0.301500	0.469100
C2761	C276	0.071200	0.208620	0.515400
C2771	C277	0.633900	0.698980	0.950600
C2781	C278	0.656100	0.733400	0.909500
H2351	H235	0.710400	0.729000	0.900200
H2361	H236	0.657500	0.757400	0.938000
H2371	H237	0.614800	0.736200	0.863400
C2791	C279	0.117200	0.652930	0.899200
C2801	C280	0.127100	0.660800	0.825200
H2381	H238	0.075700	0.654600	0.789600
H2391	H239	0.171800	0.644600	0.816200
H2401	H240	0.140400	0.688600	0.821000
