data_OBIBOT_clean_PM
_symmetry_space_group_name_H-M	'P1'
_cell_length_a	19.519000
_cell_length_b	19.943000
_cell_length_c	32.106000
_cell_angle_alpha	76.687000
_cell_angle_beta	83.425000
_cell_angle_gamma	61.034000
_symmetry_Int_Tables_number 1

loop_
_symmetry_equiv_pos_as_xyz
'x,y,z'

loop_
_atom_site_label
_atom_site_type_symbol
_atom_site_fract_x
_atom_site_fract_y
_atom_site_fract_z
Ba11	Ba1	0.557910	0.740260	0.069660
Ba21	Ba2	0.708290	0.686520	0.169300
Ba31	Ba3	0.610140	0.665070	0.296290
Ba41	Ba4	0.689780	0.717110	0.396340
Ba51	Ba5	0.664090	0.620860	0.522960
Ba61	Ba6	0.776940	0.615000	0.630390
Ba71	Ba7	0.655230	0.601950	0.752310
Ba81	Ba8	0.638780	0.725760	0.843050
Ba91	Ba9	0.700430	0.614700	0.976450
O11	O1	0.193510	0.946900	0.198680
O21	O2	0.878980	0.243150	0.160290
O31	O3	0.910840	0.889620	0.220390
O41	O4	0.562470	0.741770	0.216720
O51	O5	0.551670	0.774450	0.146820
O61	O6	0.732710	0.690640	0.250950
O71	O7	0.695270	0.739700	0.310530
O81	O8	0.653330	0.585680	0.060870
O91	O9	0.673940	0.607990	0.121820
O101	O10	0.866320	0.220870	0.429230
O111	O11	0.942170	0.869570	0.455620
O121	O12	0.204000	0.973820	0.446360
O131	O13	0.676600	0.591810	0.374240
O141	O14	0.698860	0.575690	0.442880
O151	O15	0.764350	0.673650	0.473450
O161	O16	0.770880	0.669660	0.542450
O171	O17	0.573800	0.742670	0.453890
O181	O18	0.551800	0.783170	0.514480
O191	O19	0.263450	0.833880	0.654670
O201	O20	0.996180	0.784500	0.720640
O211	O21	0.953910	0.144380	0.668570
O221	O22	0.633530	0.659230	0.668710
O231	O23	0.621990	0.656610	0.601030
O241	O24	0.730080	0.683740	0.773300
O251	O25	0.773740	0.640690	0.712680
O261	O26	0.732200	0.466020	0.550000
O271	O27	0.782580	0.508740	0.590080
O281	O28	0.887340	0.214460	0.921910
O291	O29	0.200940	0.955580	0.933620
O301	O30	0.922950	0.867350	0.974400
O311	O31	0.682970	0.572430	0.838240
O321	O32	0.728280	0.581720	0.895210
O331	O33	0.566000	0.717770	0.920660
O341	O34	0.551510	0.733640	0.987320
O351	O35	0.693530	0.751620	0.083790
O361	O36	0.697500	0.717190	0.022240
O371	O37	0.455300	0.686010	0.117950
O381	O38	0.326400	0.743000	0.117940
O391	O39	0.390100	0.791880	0.070570
O401	O40	0.716500	0.562400	0.230480
O411	O41	0.668100	0.513830	0.286070
O421	O42	0.777200	0.436000	0.255580
O431	O43	0.497200	0.839200	0.294170
O441	O44	0.522400	0.885700	0.344710
O451	O45	0.540300	0.766400	0.353140
O461	O46	0.777800	0.496800	0.700460
O471	O47	0.800000	0.462300	0.766800
O481	O48	0.891900	0.399200	0.729740
O491	O49	0.482000	0.795410	0.820830
O501	O50	0.558900	0.759490	0.765680
O511	O51	0.429600	0.838300	0.757920
O521	O52	0.829400	0.637600	0.930980
O531	O53	0.715400	0.731760	0.909250
O541	O54	0.810200	0.702400	0.866570
N11	N1	0.391000	0.739200	0.100620
N21	N2	0.718100	0.505800	0.257400
N31	N3	0.510200	0.835300	0.333870
N41	N4	0.824000	0.458600	0.727800
N51	N5	0.490000	0.797300	0.781450
N61	N6	0.786600	0.690000	0.903620
C11	C1	0.061800	0.994600	0.176930
C21	C2	0.014000	0.071400	0.158190
C31	C3	0.936700	0.104800	0.164130
C41	C4	0.901900	0.062900	0.191180
C51	C5	0.948200	0.988000	0.212510
C61	C6	0.029100	0.951400	0.204130
C71	C7	0.050100	0.123400	0.133070
H11	H1	0.107000	0.091400	0.131100
H21	H2	0.027900	0.146100	0.104200
H31	H3	0.038200	0.165500	0.148000
C81	C8	0.813400	0.100700	0.199430
H41	H4	0.788100	0.153800	0.182100
H51	H5	0.792300	0.069500	0.191700
H61	H6	0.803100	0.103000	0.229800
C91	C9	0.081700	0.867500	0.225130
H71	H7	0.050100	0.845800	0.243000
H81	H8	0.108800	0.836700	0.203000
H91	H9	0.120300	0.865600	0.243000
C101	C10	0.146400	0.955700	0.164950
H101	H10	0.161400	0.903700	0.159100
H111	H11	0.155600	0.987500	0.138500
C111	C11	0.271300	0.907400	0.193560
C121	C12	0.316300	0.876600	0.229490
H121	H12	0.292000	0.885100	0.256500
C131	C13	0.396800	0.833300	0.226950
H131	H13	0.426300	0.808500	0.252700
C141	C14	0.436500	0.824600	0.187610
C151	C15	0.389400	0.861000	0.152090
H141	H14	0.413800	0.859500	0.124700
C161	C16	0.309000	0.899600	0.153840
H151	H15	0.279200	0.920800	0.128300
C171	C17	0.521000	0.777700	0.183490
C181	C18	0.914700	0.942700	0.243210
H161	H16	0.948600	0.913000	0.268700
H171	H17	0.861800	0.978400	0.252600
C191	C19	0.871600	0.849000	0.237300
C201	C20	0.820600	0.865700	0.273190
H181	H18	0.817500	0.901900	0.289000
C211	C21	0.775600	0.827600	0.284470
H191	H19	0.737600	0.841500	0.306600
C221	C22	0.785100	0.770200	0.264030
C231	C23	0.837100	0.754400	0.229350
H201	H20	0.842100	0.716500	0.214300
C241	C24	0.881100	0.792600	0.216620
H211	H21	0.917600	0.779800	0.193700
C251	C25	0.734900	0.729500	0.275980
C261	C26	0.884500	0.186000	0.137870
H221	H22	0.907500	0.192800	0.109100
H231	H23	0.831800	0.192200	0.134500
C271	C27	0.835300	0.319500	0.141480
C281	C28	0.794400	0.345100	0.102990
H241	H24	0.798100	0.308400	0.087400
C291	C29	0.748200	0.425100	0.087820
H251	H25	0.721300	0.443000	0.061400
C301	C30	0.741500	0.478100	0.110880
C311	C31	0.782800	0.451300	0.149680
H261	H26	0.778500	0.487200	0.166100
C321	C32	0.828900	0.373400	0.163080
H271	H27	0.857900	0.355600	0.188700
C331	C33	0.686800	0.564500	0.096530
C341	C34	0.946100	0.097900	0.411950
C351	C35	0.920000	0.046800	0.436300
C361	C36	0.973100	0.971400	0.456410
C371	C37	0.050100	0.947700	0.449870
C381	C38	0.079000	0.997000	0.425640
C391	C39	0.024200	0.074700	0.407160
C401	C40	0.830900	0.074500	0.440930
H281	H28	0.802000	0.128400	0.425000
H291	H29	0.818200	0.040400	0.429500
H301	H30	0.816100	0.072400	0.471200
C411	C41	0.111800	0.865200	0.471370
H311	H31	0.164400	0.858300	0.463000
H321	H32	0.106200	0.859200	0.502500
H331	H33	0.104100	0.825700	0.462200
C421	C42	0.052400	0.131100	0.385210
H341	H34	0.109800	0.104300	0.384700
H351	H35	0.032600	0.152200	0.355800
H361	H36	0.033400	0.174000	0.400600
C431	C43	0.885300	0.181400	0.394340
H371	H37	0.907000	0.206000	0.370000
H381	H38	0.838300	0.182700	0.384600
C441	C44	0.818700	0.301400	0.421900
C451	C45	0.790900	0.348600	0.383240
H391	H39	0.799300	0.326800	0.358600
C461	C46	0.750300	0.428300	0.380230
H401	H40	0.729100	0.460700	0.353300
C471	C47	0.739200	0.463500	0.414700
C481	C48	0.768600	0.413400	0.454520
H411	H41	0.761600	0.434400	0.479300
C491	C49	0.807600	0.333500	0.457170
H421	H42	0.827200	0.300000	0.484100
C501	C50	0.702300	0.548700	0.410690
C511	C51	0.946600	0.915500	0.483240
H431	H43	0.984200	0.880800	0.506700
H441	H44	0.894600	0.944800	0.496000
C521	C52	0.907900	0.824200	0.470460
C531	C53	0.877700	0.815600	0.511150
H451	H45	0.880400	0.842300	0.531400
C541	C54	0.842400	0.765800	0.522310
H461	H46	0.824000	0.757200	0.550700
C551	C55	0.834500	0.729900	0.492690
C561	C56	0.865500	0.741200	0.451870
H471	H47	0.861700	0.716200	0.431000
C571	C57	0.900600	0.786900	0.441390
H481	H48	0.920900	0.793400	0.413300
C581	C58	0.786000	0.688200	0.503810
C591	C59	0.170500	0.963800	0.411470
H491	H49	0.194700	0.908100	0.409500
H501	H50	0.176500	0.994600	0.383700
C601	C60	0.285900	0.928100	0.450460
C611	C61	0.316800	0.931900	0.486120
H511	H51	0.282900	0.966300	0.504200
C621	C62	0.397800	0.885800	0.496340
H521	H52	0.419000	0.887800	0.520900
C631	C63	0.444100	0.837500	0.467960
C641	C64	0.409800	0.840100	0.429220
H531	H53	0.443200	0.811000	0.408800
C651	C65	0.327500	0.885100	0.420920
H541	H54	0.304200	0.884700	0.396700
C661	C66	0.531900	0.785600	0.480440
C671	C67	0.145300	0.896900	0.693810
C681	C68	0.096000	0.974100	0.672710
C691	C69	0.017300	0.003200	0.676170
C701	C70	0.983900	0.959600	0.701390
C711	C71	0.031200	0.884100	0.720970
C721	C72	0.114000	0.849300	0.715730
C731	C73	0.133700	0.024000	0.646990
H551	H55	0.190800	0.992700	0.648300
H561	H56	0.116700	0.040600	0.617100
H571	H57	0.117200	0.070200	0.659300
C741	C74	0.896200	0.995600	0.707860
H581	H58	0.871200	0.049600	0.691700
H591	H59	0.876500	0.965300	0.697800
H601	H60	0.883900	0.995200	0.738400
C751	C75	0.165200	0.764300	0.732760
H611	H61	0.132900	0.740500	0.747200
H621	H62	0.194000	0.738500	0.709100
H631	H63	0.202500	0.758100	0.753200
C761	C76	0.232200	0.864800	0.692780
H641	H64	0.245400	0.906700	0.693300
H651	H65	0.255700	0.822900	0.718300
C771	C77	0.343900	0.794700	0.652050
C781	C78	0.393300	0.789700	0.682170
H661	H66	0.372300	0.813000	0.706500
C791	C79	0.473200	0.750100	0.675930
H671	H67	0.507000	0.744800	0.696900
C801	C80	0.505600	0.718100	0.640440
C811	C81	0.455400	0.729500	0.609720
H681	H68	0.476500	0.711600	0.583900
C821	C82	0.376300	0.765800	0.615270
H691	H69	0.343200	0.771400	0.593800
C831	C83	0.591500	0.674800	0.636900
C841	C84	0.998700	0.831600	0.747080
H701	H70	0.032500	0.797900	0.772200
H711	H71	0.945400	0.863900	0.757500
C851	C85	0.944000	0.755500	0.729440
C861	C86	0.942400	0.716600	0.699700
H721	H72	0.978100	0.708900	0.676300
C871	C87	0.888900	0.688700	0.703830
H731	H73	0.888500	0.661100	0.683500
C881	C88	0.835800	0.701000	0.737700
C891	C89	0.839800	0.738100	0.767300
H741	H74	0.804600	0.745000	0.790900
C901	C90	0.893600	0.766200	0.764370
H751	H75	0.895700	0.791700	0.785500
C911	C91	0.776400	0.672600	0.741400
C921	C92	0.968000	0.081400	0.648050
H761	H76	0.995100	0.086100	0.620400
H771	H77	0.917300	0.085300	0.642200
C931	C93	0.911400	0.218400	0.646070
C941	C94	0.907000	0.277500	0.662140
H781	H78	0.932500	0.266400	0.688200
C951	C95	0.864900	0.354600	0.640300
H791	H79	0.862400	0.396100	0.651300
C961	C96	0.826500	0.371100	0.602370
C971	C97	0.821100	0.313300	0.589220
H801	H80	0.788000	0.326000	0.566000
C981	C98	0.865800	0.233200	0.610740
H811	H81	0.864600	0.191900	0.601500
C991	C99	0.781600	0.453300	0.578860
C1001	C100	0.941400	0.082700	0.915720
C1011	C101	0.018100	0.055400	0.906210
C1021	C102	0.072000	0.979300	0.922140
C1031	C103	0.047800	0.931000	0.951780
C1041	C104	0.969100	0.960000	0.963020
C1051	C105	0.914200	0.034100	0.944430
C1061	C106	0.046000	0.112800	0.879460
H821	H82	0.102800	0.084700	0.875100
H831	H83	0.019800	0.135200	0.851600
H841	H84	0.033200	0.154800	0.894600
C1071	C107	0.108000	0.847100	0.972520
H851	H85	0.160300	0.836200	0.961100
H861	H86	0.107900	0.842300	0.003600
H871	H87	0.094000	0.809600	0.966000
C1081	C108	0.826700	0.061400	0.954970
H881	H88	0.795400	0.115100	0.939300
H891	H89	0.810800	0.026800	0.946500
H901	H90	0.818200	0.059800	0.985800
C1091	C109	0.882100	0.165900	0.896090
H911	H91	0.895300	0.180400	0.865800
H921	H92	0.828700	0.171500	0.897500
C1101	C110	0.846900	0.294200	0.907300
C1111	C111	0.795300	0.329400	0.873240
H931	H93	0.786000	0.299100	0.858000
C1121	C112	0.758400	0.409100	0.862270
H941	H94	0.723300	0.433800	0.838700
C1131	C113	0.769300	0.454600	0.883230
C1141	C114	0.817700	0.419300	0.918200
H951	H95	0.822800	0.450900	0.934500
C1151	C115	0.859300	0.338900	0.930270
H961	H96	0.895100	0.314700	0.953400
C1161	C116	0.723800	0.543100	0.871870
C1171	C117	0.154200	0.947300	0.905790
H971	H97	0.175300	0.891500	0.904900
H981	H98	0.155500	0.976100	0.876400
C1181	C118	0.280400	0.906100	0.934350
C1191	C119	0.322900	0.908900	0.965180
H991	H99	0.297000	0.946600	0.982800
C1201	C120	0.399000	0.859900	0.970470
H1001	H100	0.425800	0.861400	0.992900
C1211	C121	0.441400	0.805300	0.943330
C1221	C122	0.399500	0.805700	0.911230
H1011	H101	0.426000	0.771400	0.891800
C1231	C123	0.319300	0.855300	0.906800
H1021	H102	0.291400	0.854200	0.884800
C1241	C124	0.524400	0.749100	0.950200
C1251	C125	0.944000	0.909900	0.996570
H1031	H103	0.987400	0.873200	0.016800
H1041	H104	0.898700	0.943000	0.012900
C1261	C126	0.876300	0.835700	0.994400
C1271	C127	0.850300	0.839700	0.036960
H1051	H105	0.865900	0.863000	0.054000
C1281	C128	0.799800	0.807200	0.053060
H1061	H106	0.782000	0.808100	0.081800
C1291	C129	0.775800	0.775000	0.028960
C1301	C130	0.802400	0.773400	0.987140
H1071	H107	0.786500	0.750400	0.970000
C1311	C131	0.851400	0.804300	0.969850
H1081	H108	0.867800	0.803700	0.940900
C1321	C132	0.719700	0.744500	0.046620
Ba101	Ba10	0.442090	0.259740	0.930340
Ba111	Ba11	0.291710	0.313480	0.830700
Ba121	Ba12	0.389860	0.334930	0.703710
Ba131	Ba13	0.310220	0.282890	0.603660
Ba141	Ba14	0.335910	0.379140	0.477040
Ba151	Ba15	0.223060	0.385000	0.369610
Ba161	Ba16	0.344770	0.398050	0.247690
Ba171	Ba17	0.361220	0.274240	0.156950
Ba181	Ba18	0.299570	0.385300	0.023550
O551	O55	0.806490	0.053100	0.801320
O561	O56	0.121020	0.756850	0.839710
O571	O57	0.089160	0.110380	0.779610
O581	O58	0.437530	0.258230	0.783280
O591	O59	0.448330	0.225550	0.853180
O601	O60	0.267290	0.309360	0.749050
O611	O61	0.304730	0.260300	0.689470
O621	O62	0.346670	0.414320	0.939130
O631	O63	0.326060	0.392010	0.878180
O641	O64	0.133680	0.779130	0.570770
O651	O65	0.057830	0.130430	0.544380
O661	O66	0.796000	0.026180	0.553640
O671	O67	0.323400	0.408190	0.625760
O681	O68	0.301140	0.424310	0.557120
O691	O69	0.235650	0.326350	0.526550
O701	O70	0.229120	0.330340	0.457550
O711	O71	0.426200	0.257330	0.546110
O721	O72	0.448200	0.216830	0.485520
O731	O73	0.736550	0.166120	0.345330
O741	O74	0.003820	0.215500	0.279360
O751	O75	0.046090	0.855620	0.331430
O761	O76	0.366470	0.340770	0.331290
O771	O77	0.378010	0.343390	0.398970
O781	O78	0.269920	0.316260	0.226700
O791	O79	0.226260	0.359310	0.287320
O801	O80	0.267800	0.533980	0.450000
O811	O81	0.217420	0.491260	0.409920
O821	O82	0.112660	0.785540	0.078090
O831	O83	0.799060	0.044420	0.066380
O841	O84	0.077050	0.132650	0.025600
O851	O85	0.317030	0.427570	0.161760
O861	O86	0.271720	0.418280	0.104790
O871	O87	0.434000	0.282230	0.079340
O881	O88	0.448490	0.266360	0.012680
O891	O89	0.306470	0.248380	0.916210
O901	O90	0.302500	0.282810	0.977760
O911	O91	0.544700	0.313990	0.882050
O921	O92	0.673600	0.257000	0.882060
O931	O93	0.609900	0.208120	0.929430
O941	O94	0.283500	0.437600	0.769520
O951	O95	0.331900	0.486170	0.713930
O961	O96	0.222800	0.564000	0.744420
O971	O97	0.502800	0.160800	0.705830
O981	O98	0.477600	0.114300	0.655290
O991	O99	0.459700	0.233600	0.646860
O1001	O100	0.222200	0.503200	0.299540
O1011	O101	0.200000	0.537700	0.233200
O1021	O102	0.108100	0.600800	0.270260
O1031	O103	0.518000	0.204590	0.179170
O1041	O104	0.441100	0.240510	0.234320
O1051	O105	0.570400	0.161700	0.242080
O1061	O106	0.170600	0.362400	0.069020
O1071	O107	0.284600	0.268240	0.090750
O1081	O108	0.189800	0.297600	0.133430
N71	N7	0.609000	0.260800	0.899380
N81	N8	0.281900	0.494200	0.742600
N91	N9	0.489800	0.164700	0.666130
N101	N10	0.176000	0.541400	0.272200
N111	N11	0.510000	0.202700	0.218550
N121	N12	0.213400	0.310000	0.096380
C1331	C133	0.938200	0.005400	0.823070
C1341	C134	0.986000	0.928600	0.841810
C1351	C135	0.063300	0.895200	0.835870
C1361	C136	0.098100	0.937100	0.808820
C1371	C137	0.051800	0.012000	0.787490
C1381	C138	0.970900	0.048600	0.795870
C1391	C139	0.949900	0.876600	0.866930
H1091	H109	0.893000	0.908600	0.868900
H1101	H110	0.972100	0.853900	0.895800
H1111	H111	0.961800	0.834500	0.852000
C1401	C140	0.186600	0.899300	0.800570
H1121	H112	0.211900	0.846200	0.817900
H1131	H113	0.207700	0.930500	0.808300
H1141	H114	0.196900	0.897000	0.770200
C1411	C141	0.918300	0.132500	0.774870
H1151	H115	0.949900	0.154200	0.757000
H1161	H116	0.891200	0.163300	0.797000
H1171	H117	0.879700	0.134400	0.757000
C1421	C142	0.853600	0.044300	0.835050
H1181	H118	0.838600	0.096300	0.840900
H1191	H119	0.844400	0.012500	0.861500
C1431	C143	0.728700	0.092600	0.806440
C1441	C144	0.683700	0.123400	0.770510
H1201	H120	0.708000	0.114900	0.743500
C1451	C145	0.603200	0.166700	0.773050
H1211	H121	0.573700	0.191500	0.747300
C1461	C146	0.563500	0.175400	0.812390
C1471	C147	0.610600	0.139000	0.847910
H1221	H122	0.586200	0.140500	0.875300
C1481	C148	0.691000	0.100400	0.846160
H1231	H123	0.720800	0.079200	0.871700
C1491	C149	0.479000	0.222300	0.816510
C1501	C150	0.085300	0.057300	0.756790
H1241	H124	0.051400	0.087000	0.731300
H1251	H125	0.138200	0.021600	0.747400
C1511	C151	0.128400	0.151000	0.762700
C1521	C152	0.179400	0.134300	0.726810
H1261	H126	0.182500	0.098100	0.711000
C1531	C153	0.224400	0.172400	0.715530
H1271	H127	0.262400	0.158500	0.693400
C1541	C154	0.214900	0.229800	0.735970
C1551	C155	0.162900	0.245600	0.770650
H1281	H128	0.157900	0.283500	0.785700
C1561	C156	0.118900	0.207400	0.783380
H1291	H129	0.082400	0.220200	0.806300
C1571	C157	0.265100	0.270500	0.724020
C1581	C158	0.115500	0.814000	0.862130
H1301	H130	0.092500	0.807200	0.890900
H1311	H131	0.168200	0.807800	0.865500
C1591	C159	0.164700	0.680500	0.858520
C1601	C160	0.205600	0.654900	0.897010
H1321	H132	0.201900	0.691600	0.912600
C1611	C161	0.251800	0.574900	0.912180
H1331	H133	0.278700	0.557000	0.938600
C1621	C162	0.258500	0.521900	0.889120
C1631	C163	0.217200	0.548700	0.850320
H1341	H134	0.221500	0.512800	0.833900
C1641	C164	0.171100	0.626600	0.836920
H1351	H135	0.142100	0.644400	0.811300
C1651	C165	0.313200	0.435500	0.903470
C1661	C166	0.053900	0.902100	0.588050
C1671	C167	0.080000	0.953200	0.563700
C1681	C168	0.026900	0.028600	0.543590
C1691	C169	0.949900	0.052300	0.550130
C1701	C170	0.921000	0.003000	0.574360
C1711	C171	0.975800	0.925300	0.592840
C1721	C172	0.169100	0.925500	0.559070
H1361	H136	0.198000	0.871600	0.575000
H1371	H137	0.181800	0.959600	0.570500
H1381	H138	0.183900	0.927600	0.528800
C1731	C173	0.888200	0.134800	0.528630
H1391	H139	0.835600	0.141700	0.537000
H1401	H140	0.893800	0.140800	0.497500
H1411	H141	0.895900	0.174300	0.537800
C1741	C174	0.947600	0.868900	0.614790
H1421	H142	0.890200	0.895700	0.615300
H1431	H143	0.967400	0.847800	0.644200
H1441	H144	0.966600	0.826000	0.599400
C1751	C175	0.114700	0.818600	0.605660
H1451	H145	0.093000	0.794000	0.630000
H1461	H146	0.161700	0.817300	0.615400
C1761	C176	0.181300	0.698600	0.578100
C1771	C177	0.209100	0.651400	0.616760
H1471	H147	0.200700	0.673200	0.641400
C1781	C178	0.249700	0.571700	0.619770
H1481	H148	0.270900	0.539300	0.646700
C1791	C179	0.260800	0.536500	0.585300
C1801	C180	0.231400	0.586600	0.545480
H1491	H149	0.238400	0.565600	0.520700
C1811	C181	0.192400	0.666500	0.542830
H1501	H150	0.172800	0.700000	0.515900
C1821	C182	0.297700	0.451300	0.589310
C1831	C183	0.053400	0.084500	0.516760
H1511	H151	0.015800	0.119200	0.493300
H1521	H152	0.105400	0.055200	0.504000
C1841	C184	0.092100	0.175800	0.529540
C1851	C185	0.122300	0.184400	0.488850
H1531	H153	0.119600	0.157700	0.468600
C1861	C186	0.157600	0.234200	0.477690
H1541	H154	0.176000	0.242800	0.449300
C1871	C187	0.165500	0.270100	0.507310
C1881	C188	0.134500	0.258800	0.548130
H1551	H155	0.138300	0.283800	0.569000
C1891	C189	0.099400	0.213100	0.558610
H1561	H156	0.079100	0.206600	0.586700
C1901	C190	0.214000	0.311800	0.496190
C1911	C191	0.829500	0.036200	0.588530
H1571	H157	0.805300	0.091900	0.590500
H1581	H158	0.823500	0.005400	0.616300
C1921	C192	0.714100	0.071900	0.549540
C1931	C193	0.683200	0.068100	0.513880
H1591	H159	0.717100	0.033700	0.495800
C1941	C194	0.602200	0.114200	0.503660
H1601	H160	0.581000	0.112200	0.479100
C1951	C195	0.555900	0.162500	0.532040
C1961	C196	0.590200	0.159900	0.570780
H1611	H161	0.556800	0.189000	0.591200
C1971	C197	0.672500	0.114900	0.579080
H1621	H162	0.695800	0.115300	0.603300
C1981	C198	0.468100	0.214400	0.519560
C1991	C199	0.854700	0.103100	0.306190
C2001	C200	0.904000	0.025900	0.327290
C2011	C201	0.982700	0.996800	0.323830
C2021	C202	0.016100	0.040400	0.298610
C2031	C203	0.968800	0.115900	0.279030
C2041	C204	0.886000	0.150700	0.284270
C2051	C205	0.866300	0.976000	0.353010
H1631	H163	0.809200	0.007300	0.351700
H1641	H164	0.883300	0.959400	0.382900
H1651	H165	0.882800	0.929800	0.340700
C2061	C206	0.103800	0.004400	0.292140
H1661	H166	0.128800	0.950400	0.308300
H1671	H167	0.123500	0.034700	0.302200
H1681	H168	0.116100	0.004800	0.261600
C2071	C207	0.834800	0.235700	0.267240
H1691	H169	0.867100	0.259500	0.252800
H1701	H170	0.806000	0.261500	0.290900
H1711	H171	0.797500	0.241900	0.246800
C2081	C208	0.767800	0.135200	0.307220
H1721	H172	0.754600	0.093300	0.306700
H1731	H173	0.744300	0.177100	0.281700
C2091	C209	0.656100	0.205300	0.347950
C2101	C210	0.606700	0.210300	0.317830
H1741	H174	0.627700	0.187000	0.293500
C2111	C211	0.526800	0.249900	0.324070
H1751	H175	0.493000	0.255200	0.303100
C2121	C212	0.494400	0.281900	0.359560
C2131	C213	0.544600	0.270500	0.390280
H1761	H176	0.523500	0.288400	0.416100
C2141	C214	0.623700	0.234200	0.384730
H1771	H177	0.656800	0.228600	0.406200
C2151	C215	0.408500	0.325200	0.363100
C2161	C216	0.001300	0.168400	0.252920
H1781	H178	0.967500	0.202100	0.227800
H1791	H179	0.054600	0.136100	0.242500
C2171	C217	0.056000	0.244500	0.270560
C2181	C218	0.057600	0.283400	0.300300
H1801	H180	0.021900	0.291100	0.323700
C2191	C219	0.111100	0.311300	0.296170
H1811	H181	0.111500	0.338900	0.316500
C2201	C220	0.164200	0.299000	0.262300
C2211	C221	0.160200	0.261900	0.232700
H1821	H182	0.195400	0.255000	0.209100
C2221	C222	0.106400	0.233800	0.235630
H1831	H183	0.104300	0.208300	0.214500
C2231	C223	0.223600	0.327400	0.258600
C2241	C224	0.032000	0.918600	0.351950
H1841	H184	0.004900	0.913900	0.379600
H1851	H185	0.082700	0.914700	0.357800
C2251	C225	0.088600	0.781600	0.353930
C2261	C226	0.093000	0.722500	0.337860
H1861	H186	0.067500	0.733600	0.311800
C2271	C227	0.135100	0.645400	0.359700
H1871	H187	0.137600	0.603900	0.348700
C2281	C228	0.173500	0.628900	0.397630
C2291	C229	0.178900	0.686700	0.410780
H1881	H188	0.212000	0.674000	0.434000
C2301	C230	0.134200	0.766800	0.389260
H1891	H189	0.135400	0.808100	0.398500
C2311	C231	0.218400	0.546700	0.421140
C2321	C232	0.058600	0.917300	0.084280
C2331	C233	0.981900	0.944600	0.093790
C2341	C234	0.928000	0.020700	0.077860
C2351	C235	0.952200	0.069000	0.048220
C2361	C236	0.030900	0.040000	0.036980
C2371	C237	0.085800	0.965900	0.055570
C2381	C238	0.954000	0.887200	0.120540
H1901	H190	0.897200	0.915300	0.124900
H1911	H191	0.980200	0.864800	0.148400
H1921	H192	0.966800	0.845200	0.105400
C2391	C239	0.892000	0.152900	0.027480
H1931	H193	0.839700	0.163800	0.038900
H1941	H194	0.892100	0.157700	0.996400
H1951	H195	0.906000	0.190400	0.034000
C2401	C240	0.173300	0.938600	0.045030
H1961	H196	0.204600	0.884900	0.060700
H1971	H197	0.189200	0.973200	0.053500
H1981	H198	0.181800	0.940200	0.014200
C2411	C241	0.117900	0.834100	0.103910
H1991	H199	0.104700	0.819600	0.134200
H2001	H200	0.171300	0.828500	0.102500
C2421	C242	0.153100	0.705800	0.092700
C2431	C243	0.204700	0.670600	0.126760
H2011	H201	0.214000	0.700900	0.142000
C2441	C244	0.241600	0.590900	0.137730
H2021	H202	0.276700	0.566200	0.161300
C2451	C245	0.230700	0.545400	0.116770
C2461	C246	0.182300	0.580700	0.081800
H2031	H203	0.177200	0.549100	0.065500
C2471	C247	0.140700	0.661100	0.069730
H2041	H204	0.104900	0.685300	0.046600
C2481	C248	0.276200	0.456900	0.128130
C2491	C249	0.845800	0.052700	0.094210
H2051	H205	0.824700	0.108500	0.095100
H2061	H206	0.844500	0.023900	0.123600
C2501	C250	0.719600	0.093900	0.065650
C2511	C251	0.677100	0.091100	0.034820
H2071	H207	0.703000	0.053400	0.017200
C2521	C252	0.601000	0.140100	0.029530
H2081	H208	0.574200	0.138600	0.007100
C2531	C253	0.558600	0.194700	0.056670
C2541	C254	0.600500	0.194300	0.088770
H2091	H209	0.574000	0.228600	0.108200
C2551	C255	0.680700	0.144700	0.093200
H2101	H210	0.708600	0.145800	0.115200
C2561	C256	0.475600	0.250900	0.049800
C2571	C257	0.056000	0.090100	0.003430
H2111	H211	0.012600	0.126800	0.983200
H2121	H212	0.101300	0.057000	0.987100
C2581	C258	0.123700	0.164300	0.005600
C2591	C259	0.149700	0.160300	0.963040
H2131	H213	0.134100	0.137000	0.946000
C2601	C260	0.200200	0.192800	0.946940
H2141	H214	0.218000	0.191900	0.918200
C2611	C261	0.224200	0.225000	0.971040
C2621	C262	0.197600	0.226600	0.012860
H2151	H215	0.213500	0.249600	0.030000
C2631	C263	0.148600	0.195700	0.030150
H2161	H216	0.132200	0.196300	0.059100
C2641	C264	0.280300	0.255500	0.953380
