data_OBONUO_charged_PM
_symmetry_space_group_name_H-M	'P1'
_cell_length_a	21.103100
_cell_length_b	21.103100
_cell_length_c	21.103100
_cell_angle_alpha	92.059900
_cell_angle_beta	118.818000
_cell_angle_gamma	118.818000
_symmetry_Int_Tables_number 1

loop_
_symmetry_equiv_pos_as_xyz
'x,y,z'

loop_
_atom_site_label
_atom_site_type_symbol
_atom_site_fract_x
_atom_site_fract_y
_atom_site_fract_z
Cu11	Cu1	0.605060	0.639370	0.541150
Cu21	Cu2	0.394940	0.936090	0.034310
Cu31	Cu3	0.098220	0.458850	0.063910
Cu41	Cu4	0.901780	0.965690	0.360630
Cu51	Cu5	0.598220	0.813910	0.708850
Cu61	Cu6	0.401780	0.110630	0.215690
Cu71	Cu7	0.894940	0.784310	0.186090
Cu81	Cu8	0.105060	0.291150	0.889370
H11	H1	0.808900	0.755600	0.651500
H21	H2	0.912300	0.876600	0.657500
H31	H3	0.868300	0.936000	0.583700
H41	H4	0.714100	0.873100	0.484600
H51	H5	0.569900	0.807800	0.401300
H61	H6	0.417500	0.740900	0.335400
H71	H7	0.696700	0.671900	0.709000
H81	H8	0.791700	0.653700	0.805600
H91	H9	0.783700	0.533900	0.648600
H101	H10	0.696800	0.566100	0.556100
H111	H11	0.902300	0.573900	0.790400
H121	H12	0.923400	0.640500	0.850100
H131	H13	0.045100	0.564800	0.069500
H141	H14	0.953000	0.596200	0.990600
H151	H15	0.884800	0.448000	0.813000
H161	H16	0.983700	0.423400	0.899500
H171	H17	0.778600	0.484500	0.796100
H181	H18	0.816000	0.552200	0.866200
H191	H19	0.341600	0.612100	0.321300
H201	H20	0.417900	0.575900	0.408400
H211	H21	0.191100	0.842600	0.946700
H221	H22	0.087700	0.745200	0.964300
H231	H23	0.131700	0.715400	0.067700
H241	H24	0.285900	0.770500	0.159000
H251	H25	0.430100	0.831400	0.237900
H261	H26	0.582500	0.917900	0.323400
H271	H27	0.303300	0.012300	0.975200
H281	H28	0.208300	0.013900	0.862000
H291	H29	0.216300	0.864900	0.750200
H301	H30	0.303200	0.859300	0.869300
H311	H31	0.097700	0.888100	0.671600
H321	H32	0.076600	0.926700	0.717100
H331	H33	0.954900	0.024400	0.519700
H341	H34	0.047000	0.037600	0.643200
H351	H35	0.115200	0.928200	0.563200
H361	H36	0.016300	0.915800	0.439700
H371	H37	0.221400	0.017500	0.705900
H381	H38	0.184000	0.050200	0.736200
H391	H39	0.658400	0.979700	0.270500
H401	H40	0.582100	0.990500	0.158000
H411	H41	0.104100	0.348500	0.157400
H421	H42	0.219100	0.342500	0.254800
H431	H43	0.352300	0.416300	0.284600
H441	H44	0.388500	0.515400	0.229500
H451	H45	0.406500	0.598700	0.168600
H461	H46	0.405500	0.664600	0.082100
H471	H47	0.962900	0.291000	0.987700
H481	H48	0.848100	0.194400	0.986100
H491	H49	0.885300	0.351400	0.135100
H501	H50	0.010000	0.443900	0.140700
H511	H51	0.783500	0.209600	0.111900
H521	H52	0.790400	0.149900	0.073300
H531	H53	0.495300	0.930500	0.975600
H541	H54	0.605600	0.009400	0.962400
H551	H55	0.635000	0.187000	0.071800
H561	H56	0.523900	0.100500	0.084200
H571	H57	0.688400	0.203900	0.982500
H581	H58	0.686000	0.133800	0.949800
H591	H59	0.290800	0.678700	0.020300
H601	H60	0.167500	0.591600	0.009500
H611	H61	0.895900	0.053300	0.244400
H621	H62	0.780900	0.035700	0.123400
H631	H63	0.647700	0.932300	0.064000
H641	H64	0.611500	0.841000	0.126900
H651	H65	0.593500	0.762100	0.192200
H661	H66	0.594500	0.676600	0.259100
H671	H67	0.037100	0.024800	0.328100
H681	H68	0.151900	0.138000	0.346300
H691	H69	0.114700	0.249800	0.466100
H701	H70	0.990000	0.130700	0.433900
H711	H71	0.216500	0.328400	0.426100
H721	H72	0.209600	0.282900	0.359500
H731	H73	0.504700	0.480300	0.435200
H741	H74	0.394400	0.356800	0.403800
H751	H75	0.365000	0.436800	0.552000
H761	H76	0.476100	0.560300	0.576600
H771	H77	0.311600	0.294100	0.515500
H781	H78	0.314000	0.263800	0.447800
H791	H79	0.709200	0.729500	0.387900
H801	H80	0.832500	0.842000	0.424100
H811	H81	0.604100	0.907400	0.598500
H821	H82	0.719100	0.004800	0.592500
H831	H83	0.852300	0.034600	0.666300
H841	H84	0.888500	0.979500	0.765400
H851	H85	0.906500	0.918600	0.848700
H861	H86	0.905500	0.832100	0.914600
H871	H87	0.462900	0.737700	0.541000
H881	H88	0.348100	0.736100	0.444400
H891	H89	0.385300	0.885100	0.601400
H901	H90	0.510000	0.890700	0.693900
H911	H91	0.283500	0.861900	0.459600
H921	H92	0.290400	0.823300	0.399900
H931	H93	0.995300	0.725600	0.180500
H941	H94	0.105600	0.712400	0.259400
H951	H95	0.135000	0.821800	0.437000
H961	H96	0.023900	0.834200	0.350500
H971	H97	0.188400	0.732500	0.453900
H981	H98	0.186000	0.699800	0.383800
H991	H99	0.790800	0.770300	0.928700
H1001	H100	0.667500	0.759500	0.841600
H1011	H101	0.395900	0.994400	0.303300
H1021	H102	0.280900	0.873400	0.285700
H1031	H103	0.147700	0.814000	0.182300
H1041	H104	0.111500	0.876900	0.091000
H1051	H105	0.093500	0.942200	0.012100
H1061	H106	0.094500	0.009100	0.926600
H1071	H107	0.537100	0.078100	0.274800
H1081	H108	0.651900	0.096300	0.388000
H1091	H109	0.614700	0.216100	0.499800
H1101	H110	0.490000	0.183900	0.380700
H1111	H111	0.716500	0.176100	0.578400
H1121	H112	0.709600	0.109500	0.532900
H1131	H113	0.004700	0.185200	0.730300
H1141	H114	0.894400	0.153800	0.606800
H1151	H115	0.865000	0.302000	0.686800
H1161	H116	0.976100	0.326600	0.810300
H1171	H117	0.811600	0.265500	0.544100
H1181	H118	0.814000	0.197800	0.513800
H1191	H119	0.209200	0.137900	0.979500
H1201	H120	0.332500	0.174100	0.092000
H1211	H121	0.691100	0.696700	0.092600
H1221	H122	0.587700	0.714300	0.995200
H1231	H123	0.631700	0.817700	0.965400
H1241	H124	0.785900	0.909000	0.020500
H1251	H125	0.930100	0.987900	0.081400
H1261	H126	0.082500	0.073400	0.167900
H1271	H127	0.803300	0.725200	0.262300
H1281	H128	0.708300	0.612000	0.263900
H1291	H129	0.716300	0.500200	0.114900
H1301	H130	0.803200	0.619300	0.109300
H1311	H131	0.597700	0.421600	0.138100
H1321	H132	0.576600	0.467100	0.176700
H1331	H133	0.454900	0.269700	0.274400
H1341	H134	0.547000	0.393200	0.287600
H1351	H135	0.615200	0.313200	0.178200
H1361	H136	0.516300	0.189700	0.165800
H1371	H137	0.721400	0.455900	0.267500
H1381	H138	0.684000	0.486200	0.300200
H1391	H139	0.158400	0.020500	0.229700
H1401	H140	0.082100	0.908000	0.240500
H1411	H141	0.308900	0.401500	0.005600
H1421	H142	0.412300	0.407500	0.126600
H1431	H143	0.368300	0.333700	0.186000
H1441	H144	0.214100	0.234600	0.123100
H1451	H145	0.069900	0.151300	0.057800
H1461	H146	0.917500	0.085400	0.990900
H1471	H147	0.196700	0.459000	0.921900
H1481	H148	0.291700	0.555600	0.903700
H1491	H149	0.283700	0.398600	0.783900
H1501	H150	0.196800	0.306100	0.816100
H1511	H151	0.402300	0.540400	0.823900
H1521	H152	0.423400	0.600100	0.890500
H1531	H153	0.545100	0.819500	0.814800
H1541	H154	0.453000	0.740600	0.846200
H1551	H155	0.384800	0.563000	0.698000
H1561	H156	0.483700	0.649500	0.673400
H1571	H157	0.278600	0.546100	0.734500
H1581	H158	0.316000	0.616200	0.802200
H1591	H159	0.841600	0.071300	0.862100
H1601	H160	0.917900	0.158400	0.825900
C11	C1	0.790300	0.777600	0.615300
C21	C2	0.852400	0.852700	0.620900
C31	C3	0.827200	0.886600	0.577400
C41	C4	0.734700	0.849600	0.517700
C51	C5	0.681300	0.778800	0.513700
C61	C6	0.581300	0.734900	0.457000
C71	C7	0.537800	0.761200	0.406000
C81	C8	0.446800	0.718900	0.361500
C91	C9	0.715400	0.644700	0.696300
C101	C10	0.773700	0.633800	0.755500
C111	C11	0.805400	0.595300	0.743300
C121	C12	0.770000	0.564800	0.663400
C131	C13	0.714200	0.581600	0.606800
C141	C14	0.877000	0.590500	0.809100
C151	C15	0.010600	0.539500	0.016300
C161	C16	0.954400	0.557600	0.970000
C171	C17	0.899600	0.517300	0.891900
C181	C18	0.914500	0.471000	0.865900
C191	C19	0.975500	0.457100	0.918600
C201	C20	0.831500	0.531700	0.838400
C211	C21	0.402200	0.646000	0.357000
C221	C22	0.449800	0.624600	0.407000
C231	C23	0.209700	0.825000	0.987300
C241	C24	0.147600	0.768500	0.000300
C251	C25	0.172800	0.750200	0.059400
C261	C26	0.265300	0.783000	0.114900
C271	C27	0.318700	0.832400	0.097500
C281	C28	0.418700	0.875700	0.153600
C291	C29	0.462200	0.868200	0.223400
C301	C30	0.553200	0.914700	0.272100
C311	C31	0.284600	0.980900	0.929300
C321	C32	0.226300	0.981800	0.860100
C331	C33	0.194600	0.937900	0.789900
C341	C34	0.230000	0.893400	0.794800
C351	C35	0.285800	0.892600	0.867400
C361	C36	0.123000	0.932100	0.713500
C371	C37	0.989400	0.005700	0.528900
C381	C38	0.045600	0.015600	0.603200
C391	C39	0.100400	0.992300	0.617700
C401	C40	0.085500	0.951400	0.556500
C411	C41	0.024500	0.943100	0.481600
C421	C42	0.168500	0.006900	0.700200
C431	C43	0.597800	0.954800	0.243800
C441	C44	0.550200	0.957200	0.174800
C451	C45	0.162300	0.384700	0.175000
C461	C46	0.231800	0.379100	0.231500
C471	C47	0.309200	0.422600	0.249800
C481	C48	0.331900	0.482300	0.217000
C491	C49	0.265100	0.486300	0.167600
C501	C50	0.277900	0.543000	0.124300
C511	C51	0.355200	0.594000	0.131800
C521	C52	0.357400	0.638500	0.085300
C531	C53	0.948400	0.303700	0.019100
C541	C54	0.878300	0.244500	0.018200
C551	C55	0.852000	0.256700	0.062100
C561	C56	0.901400	0.336600	0.106600
C571	C57	0.974800	0.393200	0.107400
C581	C58	0.781400	0.190900	0.067900
C591	C59	0.523200	0.983700	0.994300
C601	C60	0.587600	0.030000	0.984400
C611	C61	0.625400	0.108100	0.007700
C621	C62	0.605100	0.134100	0.048600
C631	C63	0.538500	0.081400	0.056900
C641	C64	0.693300	0.161600	0.993100
C651	C65	0.289000	0.643000	0.045200
C661	C66	0.217600	0.593000	0.042800
C671	C67	0.837700	0.012700	0.222400
C681	C68	0.768200	0.999700	0.147300
C691	C69	0.690800	0.940600	0.113400
C701	C70	0.668100	0.885100	0.150400
C711	C71	0.734900	0.902500	0.221200
C721	C72	0.722100	0.846400	0.265100
C731	C73	0.644800	0.776600	0.238800
C741	C74	0.642600	0.727900	0.281100
C751	C75	0.051600	0.070700	0.355300
C761	C76	0.121700	0.139900	0.366200
C771	C77	0.148000	0.210100	0.404700
C781	C78	0.098600	0.205200	0.435200
C791	C79	0.025200	0.132600	0.418400
C801	C80	0.218600	0.286500	0.409500
C811	C81	0.476800	0.471100	0.460500
C821	C82	0.412400	0.396800	0.442400
C831	C83	0.374600	0.382300	0.482700
C841	C84	0.394900	0.443500	0.529000
C851	C85	0.461500	0.518400	0.542900
C861	C86	0.306700	0.299800	0.468300
C871	C87	0.711000	0.756200	0.354000
C881	C88	0.782400	0.825200	0.375400
C891	C89	0.662300	0.925000	0.634700
C901	C90	0.731800	0.981500	0.629100
C911	C91	0.809200	0.999800	0.672600
C921	C92	0.831900	0.967000	0.732300
C931	C93	0.765100	0.917600	0.736300
C941	C94	0.777900	0.874300	0.793000
C951	C95	0.855200	0.881800	0.844000
C961	C96	0.857400	0.835300	0.888500
C971	C97	0.448400	0.769100	0.553700
C981	C98	0.378300	0.768200	0.494500
C991	C99	0.352000	0.812100	0.506700
C1001	C100	0.401400	0.856600	0.586600
C1011	C101	0.474800	0.857400	0.643200
C1021	C102	0.281400	0.817900	0.440900
C1031	C103	0.023200	0.744300	0.233700
C1041	C104	0.087600	0.734400	0.280000
C1051	C105	0.125400	0.757700	0.358100
C1061	C106	0.105100	0.798600	0.384100
C1071	C107	0.038500	0.806900	0.331400
C1081	C108	0.193300	0.743100	0.411600
C1091	C109	0.789000	0.795200	0.893000
C1101	C110	0.717600	0.792800	0.843000
C1111	C111	0.337700	0.972400	0.262700
C1121	C112	0.268200	0.897300	0.249700
C1131	C113	0.190800	0.863400	0.190600
C1141	C114	0.168100	0.900400	0.135100
C1151	C115	0.234900	0.971200	0.152500
C1161	C116	0.222100	0.015100	0.096400
C1171	C117	0.144800	0.988800	0.026600
C1181	C118	0.142600	0.031100	0.977900
C1191	C119	0.551600	0.105300	0.320700
C1201	C120	0.621700	0.116200	0.389900
C1211	C121	0.648000	0.154700	0.460100
C1221	C122	0.598600	0.185200	0.455200
C1231	C123	0.525200	0.168400	0.382600
C1241	C124	0.718600	0.159500	0.536500
C1251	C125	0.976800	0.210500	0.721100
C1261	C126	0.912400	0.192400	0.646800
C1271	C127	0.874600	0.232700	0.632300
C1281	C128	0.894900	0.279000	0.693500
C1291	C129	0.961500	0.292900	0.768400
C1301	C130	0.806700	0.218300	0.549800
C1311	C131	0.211000	0.104000	0.006200
C1321	C132	0.282400	0.125400	0.075200
C1331	C133	0.709700	0.737300	0.075000
C1341	C134	0.647600	0.750300	0.018500
C1351	C135	0.672800	0.809400	0.000200
C1361	C136	0.765300	0.864900	0.033000
C1371	C137	0.818700	0.847500	0.082400
C1381	C138	0.918700	0.903600	0.125700
C1391	C139	0.962200	0.973400	0.118200
C1401	C140	0.053200	0.022100	0.164700
C1411	C141	0.784600	0.679300	0.230900
C1421	C142	0.726300	0.610100	0.231800
C1431	C143	0.694600	0.539900	0.187900
C1441	C144	0.730000	0.544800	0.143400
C1451	C145	0.785800	0.617400	0.142600
C1461	C146	0.623000	0.463500	0.182100
C1471	C147	0.489400	0.278900	0.255700
C1481	C148	0.545600	0.353200	0.265600
C1491	C149	0.600400	0.367700	0.242300
C1501	C150	0.585500	0.306500	0.201400
C1511	C151	0.524500	0.231600	0.193100
C1521	C152	0.668500	0.450200	0.256900
C1531	C153	0.097800	0.993800	0.204800
C1541	C154	0.050200	0.924800	0.207200
C1551	C155	0.290300	0.365300	0.027600
C1561	C156	0.352400	0.370900	0.102700
C1571	C157	0.327200	0.327400	0.136600
C1581	C158	0.234700	0.267700	0.099600
C1591	C159	0.181300	0.263700	0.028800
C1601	C160	0.081300	0.207000	0.984900
C1611	C161	0.037800	0.156000	0.011200
C1621	C162	0.946800	0.111500	0.968900
C1631	C163	0.215400	0.446300	0.894700
C1641	C164	0.273700	0.505500	0.883800
C1651	C165	0.305400	0.493300	0.845300
C1661	C166	0.270000	0.413400	0.814800
C1671	C167	0.214200	0.356800	0.831600
C1681	C168	0.377000	0.559100	0.840500
C1691	C169	0.510600	0.766300	0.789500
C1701	C170	0.454400	0.720000	0.807600
C1711	C171	0.399600	0.641900	0.767300
C1721	C172	0.414500	0.615900	0.721000
C1731	C173	0.475500	0.668600	0.707100
C1741	C174	0.331500	0.588400	0.781700
C1751	C175	0.902200	0.107000	0.896000
C1761	C176	0.949800	0.157000	0.874600
N11	N1	0.686300	0.619400	0.625500
N21	N2	0.018900	0.488300	0.990000
N31	N3	0.705300	0.740200	0.557100
N41	N4	0.534400	0.662700	0.453700
N51	N5	0.313700	0.939200	0.933100
N61	N6	0.981100	0.971100	0.469400
N71	N7	0.294700	0.851800	0.034900
N81	N8	0.465600	0.919300	0.128300
N91	N9	0.993900	0.374500	0.060800
N101	N10	0.498300	0.010000	0.028900
N111	N11	0.183100	0.442900	0.148200
N121	N12	0.209000	0.546300	0.080700
N131	N13	0.006100	0.066900	0.380600
N141	N14	0.501700	0.530600	0.511700
N151	N15	0.816900	0.965100	0.259800
N161	N16	0.791000	0.871700	0.337300
N171	N17	0.493900	0.810800	0.624500
N181	N18	0.998300	0.778900	0.260000
N191	N19	0.683100	0.898200	0.692900
N201	N20	0.709000	0.830700	0.796300
N211	N21	0.506100	0.130600	0.316900
N221	N22	0.001700	0.261700	0.780600
N231	N23	0.316900	0.009800	0.215100
N241	N24	0.291000	0.087300	0.121700
N251	N25	0.813700	0.683100	0.189200
N261	N26	0.481100	0.219400	0.221100
N271	N27	0.794700	0.784900	0.101800
N281	N28	0.965600	0.878300	0.169300
N291	N29	0.186300	0.375500	0.869400
N301	N30	0.518900	0.740000	0.738300
N311	N31	0.205300	0.307100	0.990200
N321	N32	0.034400	0.203700	0.912700
Cl11	Cl1	0.585250	0.710250	0.625000
Cl21	Cl2	0.414750	0.039750	0.125000
Cl31	Cl3	0.085250	0.375000	0.960250
Cl41	Cl4	0.914750	0.875000	0.289750
B11	B1	0.585900	0.556200	0.358500
F11	F1	0.628800	0.588200	0.435600
F21	F2	0.543700	0.590400	0.324500
F31	F3	0.524400	0.479900	0.332900
F41	F4	0.643500	0.568100	0.341400
B21	B2	0.414100	0.772600	0.970300
F51	F5	0.371200	0.806800	0.959400
F61	F6	0.456300	0.780800	0.046700
F71	F7	0.475600	0.808500	0.955500
F81	F8	0.356500	0.697900	0.924600
B31	B3	0.197700	0.641500	0.227400
F91	F9	0.152600	0.564400	0.193200
F101	F10	0.265900	0.675500	0.219200
F111	F11	0.147000	0.667100	0.191500
F121	F12	0.226700	0.658600	0.302100
B41	B4	0.802300	0.029700	0.443800
F131	F13	0.847400	0.040600	0.411800
F141	F14	0.734100	0.953300	0.409600
F151	F15	0.853000	0.044500	0.520100
F161	F16	0.773300	0.075400	0.431900
B51	B5	0.697700	0.977400	0.891500
F171	F17	0.652600	0.943200	0.814400
F181	F18	0.765900	0.969200	0.925500
F191	F19	0.647000	0.941500	0.917100
F201	F20	0.726700	0.052100	0.908600
B61	B6	0.302300	0.193800	0.279700
F211	F21	0.347400	0.161800	0.290600
F221	F22	0.234100	0.159600	0.203300
F231	F23	0.353000	0.270100	0.294500
F241	F24	0.273300	0.181900	0.325400
B71	B7	0.914100	0.720300	0.022600
F251	F25	0.871200	0.709400	0.056800
F261	F26	0.956300	0.796700	0.030800
F271	F27	0.975600	0.705500	0.058500
F281	F28	0.856500	0.674600	0.947900
B81	B8	0.085900	0.108500	0.806200
F291	F29	0.128800	0.185600	0.838200
F301	F30	0.043700	0.074500	0.840400
F311	F31	0.024400	0.082900	0.729900
F321	F32	0.143500	0.091400	0.818100
B91	B9	0.500000	0.567300	0.067300
F331	F33	0.489900	0.625000	0.053100
F341	F34	0.571600	0.581700	0.071500
F351	F35	0.510100	0.563200	0.135100
F361	F36	0.428400	0.499900	0.010100
B101	B10	0.500000	0.932700	0.432700
F371	F37	0.571900	0.946900	0.436800
F381	F38	0.510200	0.928500	0.500100
F391	F39	0.428100	0.864900	0.375000
F401	F40	0.489800	0.989900	0.418300
B111	B11	0.000000	0.182700	0.182700
F411	F41	0.071900	0.186800	0.196900
F421	F42	0.010200	0.250100	0.178500
F431	F43	0.928100	0.125000	0.114900
F441	F44	0.989800	0.168300	0.239900
B121	B12	0.000000	0.817300	0.817300
F451	F45	0.010100	0.885100	0.813200
F461	F46	0.928400	0.760100	0.749900
F471	F47	0.989900	0.803100	0.875000
F481	F48	0.071600	0.821500	0.831700
