data_OBUBOC_manual_PM
_symmetry_space_group_name_H-M	'P1'
_cell_length_a	13.811000
_cell_length_b	15.498000
_cell_length_c	15.498000
_cell_angle_alpha	120.000000
_cell_angle_beta	90.000000
_cell_angle_gamma	90.000000
_symmetry_Int_Tables_number 1

loop_
_symmetry_equiv_pos_as_xyz
'x,y,z'

loop_
_atom_site_label
_atom_site_type_symbol
_atom_site_fract_x
_atom_site_fract_y
_atom_site_fract_z
Ce11	Ce1	0.465490	0.666670	0.333340
Ce21	Ce2	0.034510	0.666670	0.333340
Ce31	Ce3	0.534510	0.333330	0.666660
Ce41	Ce4	0.965490	0.333330	0.666660
Cu11	Cu1	0.250000	0.473960	0.498800
Cu21	Cu2	0.250000	0.024840	0.526040
Cu31	Cu3	0.250000	0.501200	0.975160
Cu41	Cu4	0.750000	0.975160	0.501200
Cu51	Cu5	0.750000	0.498800	0.473960
Cu61	Cu6	0.750000	0.526040	0.024840
H11	H1	0.504400	0.384900	0.286100
H21	H2	0.412000	0.356500	0.218000
H31	H3	0.490300	0.391400	0.089200
H41	H4	0.573300	0.372600	0.147200
H51	H5	0.504400	0.901200	0.615100
H61	H6	0.412000	0.861500	0.643500
H71	H7	0.490300	0.697800	0.608600
H81	H8	0.573300	0.774600	0.627400
H91	H9	0.504400	0.713900	0.098800
H101	H10	0.412000	0.782000	0.138500
H111	H11	0.490300	0.910800	0.302200
H121	H12	0.573300	0.852800	0.225400
H131	H13	0.995600	0.384900	0.286100
H141	H14	0.088000	0.356500	0.218000
H151	H15	0.009700	0.391400	0.089200
H161	H16	0.926700	0.372600	0.147200
H171	H17	0.995600	0.901200	0.615100
H181	H18	0.088000	0.861500	0.643500
H191	H19	0.009700	0.697800	0.608600
H201	H20	0.926700	0.774600	0.627400
H211	H21	0.995600	0.713900	0.098800
H221	H22	0.088000	0.782000	0.138500
H231	H23	0.009700	0.910800	0.302200
H241	H24	0.926700	0.852800	0.225400
H251	H25	0.495600	0.098800	0.713900
H261	H26	0.588000	0.138500	0.782000
H271	H27	0.509700	0.302200	0.910800
H281	H28	0.426700	0.225400	0.852800
H291	H29	0.495600	0.286100	0.384900
H301	H30	0.588000	0.218000	0.356500
H311	H31	0.509700	0.089200	0.391400
H321	H32	0.426700	0.147200	0.372600
H331	H33	0.495600	0.615100	0.901200
H341	H34	0.588000	0.643500	0.861500
H351	H35	0.509700	0.608600	0.697800
H361	H36	0.426700	0.627400	0.774600
H371	H37	0.004400	0.098800	0.713900
H381	H38	0.912000	0.138500	0.782000
H391	H39	0.990300	0.302200	0.910800
H401	H40	0.073300	0.225400	0.852800
H411	H41	0.004400	0.286100	0.384900
H421	H42	0.912000	0.218000	0.356500
H431	H43	0.990300	0.089200	0.391400
H441	H44	0.073300	0.147200	0.372600
H451	H45	0.004400	0.615100	0.901200
H461	H46	0.912000	0.643500	0.861500
H471	H47	0.990300	0.608600	0.697800
H481	H48	0.073300	0.627400	0.774600
C11	C1	0.448800	0.411700	0.269100
C21	C2	0.385500	0.472000	0.361500
C31	C3	0.533600	0.423600	0.145900
C41	C4	0.597900	0.497200	0.135200
C51	C5	0.448800	0.857400	0.588300
C61	C6	0.385500	0.889500	0.528000
C71	C7	0.533600	0.722300	0.576400
C81	C8	0.597900	0.638000	0.502800
C91	C9	0.448800	0.730900	0.142600
C101	C10	0.385500	0.638500	0.110500
C111	C11	0.533600	0.854100	0.277700
C121	C12	0.597900	0.864800	0.362000
C131	C13	0.051200	0.411700	0.269100
C141	C14	0.114500	0.472000	0.361500
C151	C15	0.966400	0.423600	0.145900
C161	C16	0.902100	0.497200	0.135200
C171	C17	0.051200	0.857400	0.588300
C181	C18	0.114500	0.889500	0.528000
C191	C19	0.966400	0.722300	0.576400
C201	C20	0.902100	0.638000	0.502800
C211	C21	0.051200	0.730900	0.142600
C221	C22	0.114500	0.638500	0.110500
C231	C23	0.966400	0.854100	0.277700
C241	C24	0.902100	0.864800	0.362000
C251	C25	0.551200	0.142600	0.730900
C261	C26	0.614500	0.110500	0.638500
C271	C27	0.466400	0.277700	0.854100
C281	C28	0.402100	0.362000	0.864800
C291	C29	0.551200	0.269100	0.411700
C301	C30	0.614500	0.361500	0.472000
C311	C31	0.466400	0.145900	0.423600
C321	C32	0.402100	0.135200	0.497200
C331	C33	0.551200	0.588300	0.857400
C341	C34	0.614500	0.528000	0.889500
C351	C35	0.466400	0.576400	0.722300
C361	C36	0.402100	0.502800	0.638000
C371	C37	0.948800	0.142600	0.730900
C381	C38	0.885500	0.110500	0.638500
C391	C39	0.033600	0.277700	0.854100
C401	C40	0.097900	0.362000	0.864800
C411	C41	0.948800	0.269100	0.411700
C421	C42	0.885500	0.361500	0.472000
C431	C43	0.033600	0.145900	0.423600
C441	C44	0.097900	0.135200	0.497200
C451	C45	0.948800	0.588300	0.857400
C461	C46	0.885500	0.528000	0.889500
C471	C47	0.033600	0.576400	0.722300
C481	C48	0.097900	0.502800	0.638000
O11	O1	0.479200	0.473100	0.234300
O21	O2	0.378200	0.564100	0.395400
O31	O3	0.348000	0.422700	0.395300
O41	O4	0.595100	0.586100	0.201900
O51	O5	0.651700	0.459200	0.060400
O61	O6	0.479200	0.761200	0.526900
O71	O7	0.378200	0.831300	0.435900
O81	O8	0.348000	0.972600	0.577300
O91	O9	0.595100	0.615800	0.413900
O101	O10	0.651700	0.601200	0.540800
O111	O11	0.479200	0.765700	0.238800
O121	O12	0.378200	0.604600	0.168700
O131	O13	0.348000	0.604700	0.027400
O141	O14	0.595100	0.798100	0.384200
O151	O15	0.651700	0.939600	0.398800
O161	O16	0.020800	0.473100	0.234300
O171	O17	0.121800	0.564100	0.395400
O181	O18	0.152000	0.422700	0.395300
O191	O19	0.904900	0.586100	0.201900
O201	O20	0.848300	0.459200	0.060400
O211	O21	0.020800	0.761200	0.526900
O221	O22	0.121800	0.831300	0.435900
O231	O23	0.152000	0.972600	0.577300
O241	O24	0.904900	0.615800	0.413900
O251	O25	0.848300	0.601200	0.540800
O261	O26	0.020800	0.765700	0.238800
O271	O27	0.121800	0.604600	0.168700
O281	O28	0.152000	0.604700	0.027400
O291	O29	0.904900	0.798100	0.384200
O301	O30	0.848300	0.939600	0.398800
O311	O31	0.520800	0.238800	0.765700
O321	O32	0.621800	0.168700	0.604600
O331	O33	0.652000	0.027400	0.604700
O341	O34	0.404900	0.384200	0.798100
O351	O35	0.348300	0.398800	0.939600
O361	O36	0.520800	0.234300	0.473100
O371	O37	0.621800	0.395400	0.564100
O381	O38	0.652000	0.395300	0.422700
O391	O39	0.404900	0.201900	0.586100
O401	O40	0.348300	0.060400	0.459200
O411	O41	0.520800	0.526900	0.761200
O421	O42	0.621800	0.435900	0.831300
O431	O43	0.652000	0.577300	0.972600
O441	O44	0.404900	0.413900	0.615800
O451	O45	0.348300	0.540800	0.601200
O461	O46	0.979200	0.238800	0.765700
O471	O47	0.878200	0.168700	0.604600
O481	O48	0.848000	0.027400	0.604700
O491	O49	0.095100	0.384200	0.798100
O501	O50	0.151700	0.398800	0.939600
O511	O51	0.979200	0.234300	0.473100
O521	O52	0.878200	0.395400	0.564100
O531	O53	0.848000	0.395300	0.422700
O541	O54	0.095100	0.201900	0.586100
O551	O55	0.151700	0.060400	0.459200
O561	O56	0.979200	0.526900	0.761200
O571	O57	0.878200	0.435900	0.831300
O581	O58	0.848000	0.577300	0.972600
O591	O59	0.095100	0.413900	0.615800
O601	O60	0.151700	0.540800	0.601200
