data_OBUFEX_clean_PM
_symmetry_space_group_name_H-M	'P1'
_cell_length_a	11.442000
_cell_length_b	13.373000
_cell_length_c	15.807000
_cell_angle_alpha	90.000000
_cell_angle_beta	90.000000
_cell_angle_gamma	101.360000
_symmetry_Int_Tables_number 1

loop_
_symmetry_equiv_pos_as_xyz
'x,y,z'

loop_
_atom_site_label
_atom_site_type_symbol
_atom_site_fract_x
_atom_site_fract_y
_atom_site_fract_z
Zn11	Zn1	0.428890	0.891630	0.578840
Zn21	Zn2	0.571110	0.608370	0.078840
Zn31	Zn3	0.571110	0.108370	0.421160
Zn41	Zn4	0.428890	0.391630	0.921160
H11	H1	0.609800	0.826500	0.884500
H21	H2	0.600400	0.841200	0.786400
H31	H3	0.384100	0.617900	0.766000
H41	H4	0.039000	0.963600	0.688800
H51	H5	0.237800	0.960500	0.684400
H61	H6	0.199800	0.806000	0.478000
H71	H7	0.001200	0.808400	0.472300
H81	H8	0.866400	0.002200	0.663300
H91	H9	0.666800	0.002300	0.660200
H101	H10	0.614000	0.776300	0.501400
H111	H11	0.811400	0.772300	0.499700
H121	H12	0.390200	0.673500	0.384500
H131	H13	0.399600	0.658800	0.286400
H141	H14	0.615900	0.882100	0.266000
H151	H15	0.961000	0.536400	0.188800
H161	H16	0.762200	0.539500	0.184400
H171	H17	0.800200	0.694000	0.978000
H181	H18	0.998800	0.691600	0.972300
H191	H19	0.133600	0.497800	0.163300
H201	H20	0.333200	0.497700	0.160200
H211	H21	0.386000	0.723700	0.001400
H221	H22	0.188600	0.727700	0.999700
H231	H23	0.390200	0.173500	0.115500
H241	H24	0.399600	0.158800	0.213600
H251	H25	0.615900	0.382100	0.234000
H261	H26	0.961000	0.036400	0.311200
H271	H27	0.762200	0.039500	0.315600
H281	H28	0.800200	0.194000	0.522000
H291	H29	0.998800	0.191600	0.527700
H301	H30	0.133600	0.997800	0.336700
H311	H31	0.333200	0.997700	0.339800
H321	H32	0.386000	0.223700	0.498600
H331	H33	0.188600	0.227700	0.500300
H341	H34	0.609800	0.326500	0.615500
H351	H35	0.600400	0.341200	0.713600
H361	H36	0.384100	0.117900	0.734000
H371	H37	0.039000	0.463600	0.811200
H381	H38	0.237800	0.460500	0.815600
H391	H39	0.199800	0.306000	0.022000
H401	H40	0.001200	0.308400	0.027700
H411	H41	0.866400	0.502200	0.836700
H421	H42	0.666800	0.502300	0.839800
H431	H43	0.614000	0.276300	0.998600
H441	H44	0.811400	0.272300	0.000300
C11	C1	0.424800	0.746200	0.690220
C21	C2	0.737400	0.768400	0.818690
C31	C3	0.613700	0.793770	0.830100
C41	C4	0.437600	0.679890	0.763060
C51	C5	0.518650	0.699890	0.825470
C61	C6	0.517460	0.622790	0.894410
C71	C7	0.069400	0.932200	0.643650
C81	C8	0.189600	0.930000	0.640360
C91	C9	0.167240	0.840800	0.519990
C101	C10	0.047050	0.840400	0.516850
C111	C11	0.994710	0.887770	0.580000
C121	C12	0.865030	0.888940	0.580660
C131	C13	0.816870	0.955780	0.628870
C141	C14	0.696380	0.955360	0.627170
C151	C15	0.665410	0.823370	0.534110
C161	C16	0.784380	0.820520	0.532860
C171	C17	0.575200	0.753800	0.190220
C181	C18	0.262600	0.731600	0.318690
C191	C19	0.386300	0.706230	0.330100
C201	C20	0.562400	0.820110	0.263060
C211	C21	0.481350	0.800110	0.325470
C221	C22	0.482540	0.877210	0.394410
C231	C23	0.930600	0.567800	0.143650
C241	C24	0.810400	0.570000	0.140360
C251	C25	0.832760	0.659200	0.019990
C261	C26	0.952950	0.659600	0.016850
C271	C27	0.005290	0.612230	0.080000
C281	C28	0.134970	0.611060	0.080660
C291	C29	0.183130	0.544220	0.128870
C301	C30	0.303620	0.544640	0.127170
C311	C31	0.334590	0.676630	0.034110
C321	C32	0.215620	0.679480	0.032860
C331	C33	0.575200	0.253800	0.309780
C341	C34	0.262600	0.231600	0.181310
C351	C35	0.386300	0.206230	0.169900
C361	C36	0.562400	0.320110	0.236940
C371	C37	0.481350	0.300110	0.174530
C381	C38	0.482540	0.377210	0.105590
C391	C39	0.930600	0.067800	0.356350
C401	C40	0.810400	0.070000	0.359640
C411	C41	0.832760	0.159200	0.480010
C421	C42	0.952950	0.159600	0.483150
C431	C43	0.005290	0.112230	0.420000
C441	C44	0.134970	0.111060	0.419340
C451	C45	0.183130	0.044220	0.371130
C461	C46	0.303620	0.044640	0.372830
C471	C47	0.334590	0.176630	0.465890
C481	C48	0.215620	0.179480	0.467140
C491	C49	0.424800	0.246200	0.809780
C501	C50	0.737400	0.268400	0.681310
C511	C51	0.613700	0.293770	0.669900
C521	C52	0.437600	0.179890	0.736940
C531	C53	0.518650	0.199890	0.674530
C541	C54	0.517460	0.122790	0.605590
C551	C55	0.069400	0.432200	0.856350
C561	C56	0.189600	0.430000	0.859640
C571	C57	0.167240	0.340800	0.980010
C581	C58	0.047050	0.340400	0.983150
C591	C59	0.994710	0.387770	0.920000
C601	C60	0.865030	0.388940	0.919340
C611	C61	0.816870	0.455780	0.871130
C621	C62	0.696380	0.455360	0.872830
C631	C63	0.665410	0.323370	0.965890
C641	C64	0.784380	0.320520	0.967140
N11	N1	0.619900	0.889360	0.579280
N21	N2	0.239480	0.888070	0.579740
N31	N3	0.380100	0.610640	0.079280
N41	N4	0.760520	0.611930	0.079740
N51	N5	0.380100	0.110640	0.420720
N61	N6	0.760520	0.111930	0.420260
N71	N7	0.619900	0.389360	0.920720
N81	N8	0.239480	0.388070	0.920260
O11	O1	0.824740	0.838760	0.843730
O21	O2	0.751630	0.690850	0.789260
O31	O3	0.416520	0.711690	0.618100
O41	O4	0.422550	0.838700	0.705210
O51	O5	0.582830	0.651730	0.957340
O61	O6	0.450770	0.537310	0.885450
O71	O7	0.175260	0.661240	0.343730
O81	O8	0.248370	0.809150	0.289260
O91	O9	0.583480	0.788310	0.118100
O101	O10	0.577450	0.661300	0.205210
O111	O11	0.417170	0.848270	0.457340
O121	O12	0.549230	0.962690	0.385450
O131	O13	0.175260	0.161240	0.156270
O141	O14	0.248370	0.309150	0.210740
O151	O15	0.583480	0.288310	0.381900
O161	O16	0.577450	0.161300	0.294790
O171	O17	0.417170	0.348270	0.042660
O181	O18	0.549230	0.462690	0.114550
O191	O19	0.824740	0.338760	0.656270
O201	O20	0.751630	0.190850	0.710740
O211	O21	0.416520	0.211690	0.881900
O221	O22	0.422550	0.338700	0.794790
O231	O23	0.582830	0.151730	0.542660
O241	O24	0.450770	0.037310	0.614550
