data_OCACUR_clean_PM
_symmetry_space_group_name_H-M	'P1'
_cell_length_a	9.409800
_cell_length_b	9.409800
_cell_length_c	11.742000
_cell_angle_alpha	90.318200
_cell_angle_beta	90.318200
_cell_angle_gamma	110.041000
_symmetry_Int_Tables_number 1

loop_
_symmetry_equiv_pos_as_xyz
'x,y,z'

loop_
_atom_site_label
_atom_site_type_symbol
_atom_site_fract_x
_atom_site_fract_y
_atom_site_fract_z
Co11	Co1	0.112780	0.887220	0.500000
Co21	Co2	0.858500	0.868700	0.688480
Co31	Co3	0.887220	0.112780	0.000000
Co41	Co4	0.868700	0.858500	0.188480
H11	H1	0.931000	0.434800	0.234600
H21	H2	0.877700	0.330900	0.617800
H31	H3	0.434800	0.931000	0.734600
H41	H4	0.330900	0.877700	0.117800
C11	C1	0.861600	0.596600	0.590400
C21	C2	0.908300	0.665700	0.329800
C31	C3	0.918200	0.157800	0.260800
C41	C4	0.934400	0.110000	0.520100
C51	C5	0.891000	0.493200	0.504000
C61	C6	0.907800	0.523800	0.387300
C71	C7	0.922000	0.414200	0.312100
C81	C8	0.923000	0.275000	0.350400
C91	C9	0.913000	0.245400	0.468300
C101	C10	0.891900	0.353300	0.540800
C111	C11	0.596600	0.861600	0.090400
C121	C12	0.665700	0.908300	0.829800
C131	C13	0.157800	0.918200	0.760800
C141	C14	0.110000	0.934400	0.020100
C151	C15	0.493200	0.891000	0.004000
C161	C16	0.523800	0.907800	0.887300
C171	C17	0.414200	0.922000	0.812100
C181	C18	0.275000	0.923000	0.850400
C191	C19	0.245400	0.913000	0.968300
C201	C20	0.353300	0.891900	0.040800
O11	O1	0.901700	0.740700	0.565100
O21	O2	0.799500	0.547900	0.677600
O31	O3	0.005700	0.793700	0.345800
O41	O4	0.805300	0.648300	0.253100
O51	O5	0.959900	0.202900	0.162900
O61	O6	0.864200	0.021800	0.291400
O71	O7	0.043800	0.071000	0.485600
O81	O8	0.847000	0.044200	0.598900
O91	O9	0.740700	0.901700	0.065100
O101	O10	0.547900	0.799500	0.177600
O111	O11	0.793700	0.005700	0.845800
O121	O12	0.648300	0.805300	0.753100
O131	O13	0.202900	0.959900	0.662900
O141	O14	0.021800	0.864200	0.791400
O151	O15	0.071000	0.043800	0.985600
O161	O16	0.044200	0.847000	0.098900
