data_OCAQOY_clean_PM
_symmetry_space_group_name_H-M	'P1'
_cell_length_a	11.240200
_cell_length_b	11.536600
_cell_length_c	16.196300
_cell_angle_alpha	104.945000
_cell_angle_beta	110.304000
_cell_angle_gamma	90.000000
_symmetry_Int_Tables_number 1

loop_
_symmetry_equiv_pos_as_xyz
'x,y,z'

loop_
_atom_site_label
_atom_site_type_symbol
_atom_site_fract_x
_atom_site_fract_y
_atom_site_fract_z
V11	V1	0.195270	0.178630	0.213660
V21	V2	0.051290	0.435830	0.289660
V31	V3	0.981610	0.321370	0.786340
V41	V4	0.761630	0.064170	0.710340
V51	V5	0.804730	0.821370	0.786340
V61	V6	0.948710	0.564170	0.710340
V71	V7	0.018390	0.678630	0.213660
V81	V8	0.238370	0.935830	0.289660
Ni11	Ni1	0.000000	0.500000	0.500000
Ni21	Ni2	0.500000	0.000000	0.500000
Ni31	Ni3	0.000000	0.500000	0.000000
Ni41	Ni4	0.000000	0.000000	0.000000
H11	H1	0.140000	0.359000	0.640000
H21	H2	0.326000	0.363000	0.736000
H31	H3	0.473000	0.636000	0.682000
H41	H4	0.264000	0.640000	0.578000
H51	H5	0.567000	0.310000	0.764000
H61	H6	0.781000	0.322000	0.870000
H71	H7	0.806000	0.669000	0.942000
H81	H8	0.617000	0.671000	0.844000
H91	H9	0.877000	0.313000	0.560000
H101	H10	0.877000	0.123000	0.574000
H111	H11	0.101300	0.065500	0.407000
H121	H12	0.082000	0.256000	0.400000
H131	H13	0.500000	0.141000	0.360000
H141	H14	0.590000	0.137000	0.264000
H151	H15	0.791000	0.864000	0.318000
H161	H16	0.686000	0.860000	0.422000
H171	H17	0.803000	0.190000	0.236000
H181	H18	0.911000	0.178000	0.130000
H191	H19	0.864000	0.831000	0.058000
H201	H20	0.773000	0.829000	0.156000
H211	H21	0.317000	0.187000	0.440000
H221	H22	0.303000	0.377000	0.426000
H231	H23	0.694300	0.434500	0.593000
H241	H24	0.682000	0.244000	0.600000
H251	H25	0.860000	0.641000	0.360000
H261	H26	0.674000	0.637000	0.264000
H271	H27	0.527000	0.364000	0.318000
H281	H28	0.736000	0.360000	0.422000
H291	H29	0.433000	0.690000	0.236000
H301	H30	0.219000	0.678000	0.130000
H311	H31	0.194000	0.331000	0.058000
H321	H32	0.383000	0.329000	0.156000
H331	H33	0.123000	0.687000	0.440000
H341	H34	0.123000	0.877000	0.426000
H351	H35	0.898700	0.934500	0.593000
H361	H36	0.918000	0.744000	0.600000
H371	H37	0.500000	0.859000	0.640000
H381	H38	0.410000	0.863000	0.736000
H391	H39	0.209000	0.136000	0.682000
H401	H40	0.314000	0.140000	0.578000
H411	H41	0.197000	0.810000	0.764000
H421	H42	0.089000	0.822000	0.870000
H431	H43	0.136000	0.169000	0.942000
H441	H44	0.227000	0.171000	0.844000
H451	H45	0.683000	0.813000	0.560000
H461	H46	0.697000	0.623000	0.574000
H471	H47	0.305700	0.565500	0.407000
H481	H48	0.318000	0.756000	0.400000
C11	C1	0.211100	0.418900	0.647600
C21	C2	0.329500	0.414200	0.711200
C31	C3	0.429900	0.497100	0.728800
C41	C4	0.404500	0.583300	0.679200
C51	C5	0.284200	0.580500	0.616400
C61	C6	0.559100	0.494700	0.795400
C71	C7	0.610200	0.388100	0.807000
C81	C8	0.733300	0.392400	0.867400
C91	C9	0.758100	0.597000	0.905600
C101	C10	0.635500	0.601100	0.847600
C111	C11	0.916750	0.257200	0.527700
C121	C12	0.923400	0.140900	0.536200
C131	C13	0.992020	0.062000	0.494040
C141	C14	0.045200	0.106000	0.442000
C151	C15	0.032900	0.223600	0.434800
C161	C16	0.563500	0.081100	0.352400
C171	C17	0.618300	0.085800	0.288800
C181	C18	0.701100	0.002900	0.271200
C191	C19	0.725300	0.916700	0.320800
C201	C20	0.667800	0.919500	0.383600
C211	C21	0.763700	0.005300	0.204600
C221	C22	0.803200	0.111900	0.193000
C231	C23	0.865900	0.107600	0.132600
C241	C24	0.852500	0.903000	0.094400
C251	C25	0.787900	0.898900	0.152400
C261	C26	0.389050	0.242800	0.472300
C271	C27	0.387200	0.359100	0.463800
C281	C28	0.497980	0.438000	0.505960
C291	C29	0.603200	0.394000	0.558000
C301	C30	0.598100	0.276400	0.565200
C311	C31	0.788900	0.581100	0.352400
C321	C32	0.670500	0.585800	0.288800
C331	C33	0.570100	0.502900	0.271200
C341	C34	0.595500	0.416700	0.320800
C351	C35	0.715800	0.419500	0.383600
C361	C36	0.440900	0.505300	0.204600
C371	C37	0.389800	0.611900	0.193000
C381	C38	0.266700	0.607600	0.132600
C391	C39	0.241900	0.403000	0.094400
C401	C40	0.364500	0.398900	0.152400
C411	C41	0.083250	0.742800	0.472300
C421	C42	0.076600	0.859100	0.463800
C431	C43	0.007980	0.938000	0.505960
C441	C44	0.954800	0.894000	0.558000
C451	C45	0.967100	0.776400	0.565200
C461	C46	0.436500	0.918900	0.647600
C471	C47	0.381700	0.914200	0.711200
C481	C48	0.298900	0.997100	0.728800
C491	C49	0.274700	0.083300	0.679200
C501	C50	0.332200	0.080500	0.616400
C511	C51	0.236300	0.994700	0.795400
C521	C52	0.196800	0.888100	0.807000
C531	C53	0.134100	0.892400	0.867400
C541	C54	0.147500	0.097000	0.905600
C551	C55	0.212100	0.101100	0.847600
C561	C56	0.610950	0.757200	0.527700
C571	C57	0.612800	0.640900	0.536200
C581	C58	0.502020	0.562000	0.494040
C591	C59	0.396800	0.606000	0.442000
C601	C60	0.401900	0.723600	0.434800
N11	N1	0.187180	0.498800	0.599160
N21	N2	0.971840	0.301700	0.479480
N31	N3	0.808190	0.495100	0.916980
N41	N4	0.588020	0.001200	0.400840
N51	N5	0.492360	0.198300	0.520520
N61	N6	0.891210	0.004900	0.083020
N71	N7	0.812820	0.501200	0.400840
N81	N8	0.028160	0.698300	0.520520
N91	N9	0.191810	0.504900	0.083020
N101	N10	0.411980	0.998800	0.599160
N111	N11	0.507640	0.801700	0.479480
N121	N12	0.108790	0.995100	0.916980
O11	O1	0.074690	0.471900	0.400580
O21	O2	0.121860	0.136600	0.100520
O31	O3	0.099650	0.565600	0.263100
O41	O4	0.146410	0.317900	0.264820
O51	O5	0.674110	0.028100	0.599420
O61	O6	0.021340	0.363400	0.899480
O71	O7	0.836550	0.934400	0.736900
O81	O8	0.881590	0.182100	0.735180
O91	O9	0.925310	0.528100	0.599420
O101	O10	0.878140	0.863400	0.899480
O111	O11	0.900350	0.434400	0.736900
O121	O12	0.853590	0.682100	0.735180
O131	O13	0.325890	0.971900	0.400580
O141	O14	0.978660	0.636600	0.100520
O151	O15	0.163450	0.065600	0.263100
O161	O16	0.118410	0.817900	0.264820
