data_OCINIA_clean_PM
_symmetry_space_group_name_H-M	'P1'
_cell_length_a	16.975100
_cell_length_b	10.965900
_cell_length_c	22.442000
_cell_angle_alpha	90.000000
_cell_angle_beta	109.714000
_cell_angle_gamma	90.000000
_symmetry_Int_Tables_number 1

loop_
_symmetry_equiv_pos_as_xyz
'x,y,z'

loop_
_atom_site_label
_atom_site_type_symbol
_atom_site_fract_x
_atom_site_fract_y
_atom_site_fract_z
Zn11	Zn1	0.199420	0.030700	0.283370
Zn21	Zn2	0.072000	0.075410	0.135540
O11	O1	0.206100	0.046900	0.371570
O21	O2	0.335600	0.109900	0.388010
O31	O3	0.118200	0.937400	0.555300
O41	O4	0.178300	0.036000	0.643480
O51	O5	0.440230	0.256000	0.680640
O61	O6	0.479070	0.305600	0.598600
O71	O7	0.077810	0.025600	0.229590
C11	C1	0.286500	0.099300	0.475560
C21	C2	0.227200	0.048100	0.498990
H11	H1	0.181100	0.006900	0.471900
C31	C3	0.237600	0.059000	0.562670
C41	C4	0.305200	0.124200	0.602720
H21	H2	0.311100	0.132500	0.645300
C51	C5	0.363400	0.176700	0.580130
C61	C6	0.353300	0.163900	0.516200
H31	H3	0.392100	0.199300	0.500500
C71	C7	0.276300	0.086000	0.407100
C81	C8	0.174200	0.006700	0.588400
C91	C9	0.433000	0.253400	0.623320
C101	C10	0.265600	0.279500	0.261020
H41	H4	0.309200	0.283000	0.299600
C111	C11	0.179000	0.324900	0.171900
H51	H5	0.150200	0.367300	0.135000
N11	N1	0.159100	0.215100	0.183970
N21	N2	0.216100	0.184800	0.241580
N31	N3	0.245700	0.370700	0.218460
Zn31	Zn3	0.699420	0.530700	0.283370
Zn41	Zn4	0.572000	0.575410	0.135540
O81	O8	0.706100	0.546900	0.371570
O91	O9	0.835600	0.609900	0.388010
O101	O10	0.618200	0.437400	0.555300
O111	O11	0.678300	0.536000	0.643480
O121	O12	0.940230	0.756000	0.680640
O131	O13	0.979070	0.805600	0.598600
O141	O14	0.577810	0.525600	0.229590
C121	C12	0.786500	0.599300	0.475560
C131	C13	0.727200	0.548100	0.498990
H61	H6	0.681100	0.506900	0.471900
C141	C14	0.737600	0.559000	0.562670
C151	C15	0.805200	0.624200	0.602720
H71	H7	0.811100	0.632500	0.645300
C161	C16	0.863400	0.676700	0.580130
C171	C17	0.853300	0.663900	0.516200
H81	H8	0.892100	0.699300	0.500500
C181	C18	0.776300	0.586000	0.407100
C191	C19	0.674200	0.506700	0.588400
C201	C20	0.933000	0.753400	0.623320
C211	C21	0.765600	0.779500	0.261020
H91	H9	0.809200	0.783000	0.299600
C221	C22	0.679000	0.824900	0.171900
H101	H10	0.650200	0.867300	0.135000
N41	N4	0.659100	0.715100	0.183970
N51	N5	0.716100	0.684800	0.241580
N61	N6	0.745700	0.870700	0.218460
Zn51	Zn5	0.800580	0.030700	0.216630
Zn61	Zn6	0.928000	0.075410	0.364460
O151	O15	0.793900	0.046900	0.128430
O161	O16	0.664400	0.109900	0.111990
O171	O17	0.881800	0.937400	0.944700
O181	O18	0.821700	0.036000	0.856520
O191	O19	0.559770	0.256000	0.819360
O201	O20	0.520930	0.305600	0.901400
O211	O21	0.922190	0.025600	0.270410
C231	C23	0.713500	0.099300	0.024440
C241	C24	0.772800	0.048100	0.001010
H111	H11	0.818900	0.006900	0.028100
C251	C25	0.762400	0.059000	0.937330
C261	C26	0.694800	0.124200	0.897280
H121	H12	0.688900	0.132500	0.854700
C271	C27	0.636600	0.176700	0.919870
C281	C28	0.646700	0.163900	0.983800
H131	H13	0.607900	0.199300	0.999500
C291	C29	0.723700	0.086000	0.092900
C301	C30	0.825800	0.006700	0.911600
C311	C31	0.567000	0.253400	0.876680
C321	C32	0.734400	0.279500	0.238980
H141	H14	0.690800	0.283000	0.200400
C331	C33	0.821000	0.324900	0.328100
H151	H15	0.849800	0.367300	0.365000
N71	N7	0.840900	0.215100	0.316030
N81	N8	0.783900	0.184800	0.258420
N91	N9	0.754300	0.370700	0.281540
Zn71	Zn7	0.300580	0.530700	0.216630
Zn81	Zn8	0.428000	0.575410	0.364460
O221	O22	0.293900	0.546900	0.128430
O231	O23	0.164400	0.609900	0.111990
O241	O24	0.381800	0.437400	0.944700
O251	O25	0.321700	0.536000	0.856520
O261	O26	0.059770	0.756000	0.819360
O271	O27	0.020930	0.805600	0.901400
O281	O28	0.422190	0.525600	0.270410
C341	C34	0.213500	0.599300	0.024440
C351	C35	0.272800	0.548100	0.001010
H161	H16	0.318900	0.506900	0.028100
C361	C36	0.262400	0.559000	0.937330
C371	C37	0.194800	0.624200	0.897280
H171	H17	0.188900	0.632500	0.854700
C381	C38	0.136600	0.676700	0.919870
C391	C39	0.146700	0.663900	0.983800
H181	H18	0.107900	0.699300	0.999500
C401	C40	0.223700	0.586000	0.092900
C411	C41	0.325800	0.506700	0.911600
C421	C42	0.067000	0.753400	0.876680
C431	C43	0.234400	0.779500	0.238980
H191	H19	0.190800	0.783000	0.200400
C441	C44	0.321000	0.824900	0.328100
H201	H20	0.349800	0.867300	0.365000
N101	N10	0.340900	0.715100	0.316030
N111	N11	0.283900	0.684800	0.258420
N121	N12	0.254300	0.870700	0.281540
Zn91	Zn9	0.800580	0.969300	0.716630
Zn101	Zn10	0.928000	0.924590	0.864460
O291	O29	0.793900	0.953100	0.628430
O301	O30	0.664400	0.890100	0.611990
O311	O31	0.881800	0.062600	0.444700
O321	O32	0.821700	0.964000	0.356520
O331	O33	0.559770	0.744000	0.319360
O341	O34	0.520930	0.694400	0.401400
O351	O35	0.922190	0.974400	0.770410
C451	C45	0.713500	0.900700	0.524440
C461	C46	0.772800	0.951900	0.501010
H211	H21	0.818900	0.993100	0.528100
C471	C47	0.762400	0.941000	0.437330
C481	C48	0.694800	0.875800	0.397280
H221	H22	0.688900	0.867500	0.354700
C491	C49	0.636600	0.823300	0.419870
C501	C50	0.646700	0.836100	0.483800
H231	H23	0.607900	0.800700	0.499500
C511	C51	0.723700	0.914000	0.592900
C521	C52	0.825800	0.993300	0.411600
C531	C53	0.567000	0.746600	0.376680
C541	C54	0.734400	0.720500	0.738980
H241	H24	0.690800	0.717000	0.700400
C551	C55	0.821000	0.675100	0.828100
H251	H25	0.849800	0.632700	0.865000
N131	N13	0.840900	0.784900	0.816030
N141	N14	0.783900	0.815200	0.758420
N151	N15	0.754300	0.629300	0.781540
Zn111	Zn11	0.300580	0.469300	0.716630
Zn121	Zn12	0.428000	0.424590	0.864460
O361	O36	0.293900	0.453100	0.628430
O371	O37	0.164400	0.390100	0.611990
O381	O38	0.381800	0.562600	0.444700
O391	O39	0.321700	0.464000	0.356520
O401	O40	0.059770	0.244000	0.319360
O411	O41	0.020930	0.194400	0.401400
O421	O42	0.422190	0.474400	0.770410
C561	C56	0.213500	0.400700	0.524440
C571	C57	0.272800	0.451900	0.501010
H261	H26	0.318900	0.493100	0.528100
C581	C58	0.262400	0.441000	0.437330
C591	C59	0.194800	0.375800	0.397280
H271	H27	0.188900	0.367500	0.354700
C601	C60	0.136600	0.323300	0.419870
C611	C61	0.146700	0.336100	0.483800
H281	H28	0.107900	0.300700	0.499500
C621	C62	0.223700	0.414000	0.592900
C631	C63	0.325800	0.493300	0.411600
C641	C64	0.067000	0.246600	0.376680
C651	C65	0.234400	0.220500	0.738980
H291	H29	0.190800	0.217000	0.700400
C661	C66	0.321000	0.175100	0.828100
H301	H30	0.349800	0.132700	0.865000
N161	N16	0.340900	0.284900	0.816030
N171	N17	0.283900	0.315200	0.758420
N181	N18	0.254300	0.129300	0.781540
Zn131	Zn13	0.199420	0.969300	0.783370
Zn141	Zn14	0.072000	0.924590	0.635540
O431	O43	0.206100	0.953100	0.871570
O441	O44	0.335600	0.890100	0.888010
O451	O45	0.118200	0.062600	0.055300
O461	O46	0.178300	0.964000	0.143480
O471	O47	0.440230	0.744000	0.180640
O481	O48	0.479070	0.694400	0.098600
O491	O49	0.077810	0.974400	0.729590
C671	C67	0.286500	0.900700	0.975560
C681	C68	0.227200	0.951900	0.998990
H311	H31	0.181100	0.993100	0.971900
C691	C69	0.237600	0.941000	0.062670
C701	C70	0.305200	0.875800	0.102720
H321	H32	0.311100	0.867500	0.145300
C711	C71	0.363400	0.823300	0.080130
C721	C72	0.353300	0.836100	0.016200
H331	H33	0.392100	0.800700	0.000500
C731	C73	0.276300	0.914000	0.907100
C741	C74	0.174200	0.993300	0.088400
C751	C75	0.433000	0.746600	0.123320
C761	C76	0.265600	0.720500	0.761020
H341	H34	0.309200	0.717000	0.799600
C771	C77	0.179000	0.675100	0.671900
H351	H35	0.150200	0.632700	0.635000
N191	N19	0.159100	0.784900	0.683970
N201	N20	0.216100	0.815200	0.741580
N211	N21	0.245700	0.629300	0.718460
Zn151	Zn15	0.699420	0.469300	0.783370
Zn161	Zn16	0.572000	0.424590	0.635540
O501	O50	0.706100	0.453100	0.871570
O511	O51	0.835600	0.390100	0.888010
O521	O52	0.618200	0.562600	0.055300
O531	O53	0.678300	0.464000	0.143480
O541	O54	0.940230	0.244000	0.180640
O551	O55	0.979070	0.194400	0.098600
O561	O56	0.577810	0.474400	0.729590
C781	C78	0.786500	0.400700	0.975560
C791	C79	0.727200	0.451900	0.998990
H361	H36	0.681100	0.493100	0.971900
C801	C80	0.737600	0.441000	0.062670
C811	C81	0.805200	0.375800	0.102720
H371	H37	0.811100	0.367500	0.145300
C821	C82	0.863400	0.323300	0.080130
C831	C83	0.853300	0.336100	0.016200
H381	H38	0.892100	0.300700	0.000500
C841	C84	0.776300	0.414000	0.907100
C851	C85	0.674200	0.493300	0.088400
C861	C86	0.933000	0.246600	0.123320
C871	C87	0.765600	0.220500	0.761020
H391	H39	0.809200	0.217000	0.799600
C881	C88	0.679000	0.175100	0.671900
H401	H40	0.650200	0.132700	0.635000
N221	N22	0.659100	0.284900	0.683970
N231	N23	0.716100	0.315200	0.741580
N241	N24	0.745700	0.129300	0.718460
Zn171	Zn17	0.000000	0.136950	0.250000
Zn181	Zn18	0.500000	0.636950	0.250000
Zn191	Zn19	0.000000	0.863050	0.750000
Zn201	Zn20	0.500000	0.363050	0.750000
