data_OCOKUP_clean_PM
_symmetry_space_group_name_H-M	'P1'
_cell_length_a	8.363000
_cell_length_b	12.827000
_cell_length_c	12.987000
_cell_angle_alpha	78.010000
_cell_angle_beta	77.500000
_cell_angle_gamma	71.850000
_symmetry_Int_Tables_number 1

loop_
_symmetry_equiv_pos_as_xyz
'x,y,z'

loop_
_atom_site_label
_atom_site_type_symbol
_atom_site_fract_x
_atom_site_fract_y
_atom_site_fract_z
Mn11	Mn1	0.361890	0.098080	0.309910
C11	C1	0.477300	0.019700	0.459500
N11	N1	0.497200	0.948000	0.222300
N21	N2	0.818200	0.411800	0.069700
C21	C2	0.437900	0.922200	0.145800
H11	H1	0.348000	0.974600	0.116500
C31	C3	0.503700	0.821600	0.108400
H21	H2	0.456900	0.807200	0.055900
C41	C4	0.638700	0.742700	0.148600
C51	C5	0.706100	0.771300	0.224600
H31	H3	0.799300	0.721700	0.252900
C61	C6	0.633300	0.873900	0.257300
H41	H4	0.681900	0.892400	0.306500
C71	C7	0.736100	0.498300	0.005500
H51	H5	0.716300	0.484600	0.942500
C81	C8	0.678700	0.605900	0.025800
H61	H6	0.623300	0.662400	0.977300
C91	C9	0.704500	0.628600	0.119200
C101	C10	0.790400	0.541100	0.184800
H71	H7	0.812500	0.552400	0.248200
C111	C11	0.844200	0.436300	0.157000
H81	H8	0.903100	0.378800	0.203200
C121	C12	0.675900	0.198500	0.158200
Mn21	Mn2	0.895630	0.220120	0.041460
C131	C13	0.109500	0.194500	0.123100
C141	C14	0.855100	0.286300	0.879100
N31	N3	0.835300	0.318400	0.793900
C151	C15	0.979200	0.043900	0.010500
N41	N4	0.206200	0.172300	0.179100
C161	C16	0.207600	0.354700	0.329000
H91	H9	0.261600	0.359500	0.258400
C171	C17	0.124400	0.452100	0.370100
H101	H10	0.121800	0.520200	0.327100
C181	C18	0.044300	0.447900	0.476300
C191	C19	0.050500	0.343100	0.534400
H111	H11	0.997600	0.335800	0.605200
C201	C20	0.135000	0.250400	0.487000
H121	H12	0.137000	0.181400	0.527700
N51	N5	0.214900	0.253600	0.385200
N61	N6	0.565800	0.177100	0.219100
Mn31	Mn3	0.638110	0.901920	0.690090
C211	C21	0.522700	0.980300	0.540500
N71	N7	0.502800	0.052000	0.777700
N81	N8	0.181800	0.588200	0.930300
C221	C22	0.562100	0.077800	0.854200
H131	H13	0.652000	0.025400	0.883500
C231	C23	0.496300	0.178400	0.891600
H141	H14	0.543100	0.192800	0.944100
C241	C24	0.361300	0.257300	0.851400
C251	C25	0.293900	0.228700	0.775400
H151	H15	0.200700	0.278300	0.747100
C261	C26	0.366700	0.126100	0.742700
H161	H16	0.318100	0.107600	0.693500
C271	C27	0.263900	0.501700	0.994500
H171	H17	0.283700	0.515400	0.057500
C281	C28	0.321300	0.394100	0.974200
H181	H18	0.376700	0.337600	0.022700
C291	C29	0.295500	0.371400	0.880800
C301	C30	0.209600	0.458900	0.815200
H191	H19	0.187500	0.447600	0.751800
C311	C31	0.155800	0.563700	0.843000
H201	H20	0.096900	0.621200	0.796800
C321	C32	0.324100	0.801500	0.841800
Mn41	Mn4	0.104370	0.779880	0.958540
C331	C33	0.890500	0.805500	0.876900
C341	C34	0.144900	0.713700	0.120900
N91	N9	0.164700	0.681600	0.206100
C351	C35	0.020800	0.956100	0.989500
N101	N10	0.793800	0.827700	0.820900
C361	C36	0.792400	0.645300	0.671000
H211	H21	0.738400	0.640500	0.741600
C371	C37	0.875600	0.547900	0.629900
H221	H22	0.878200	0.479800	0.672900
C381	C38	0.955700	0.552100	0.523700
C391	C39	0.949500	0.656900	0.465600
H231	H23	0.002400	0.664200	0.394800
C401	C40	0.865000	0.749600	0.513000
H241	H24	0.863000	0.818600	0.472300
N111	N11	0.785100	0.746400	0.614800
N121	N12	0.434200	0.822900	0.780900
