data_OCUGEZ_clean_PM
_symmetry_space_group_name_H-M	'P1'
_cell_length_a	8.626600
_cell_length_b	9.919000
_cell_length_c	11.694000
_cell_angle_alpha	74.700000
_cell_angle_beta	69.750000
_cell_angle_gamma	85.920000
_symmetry_Int_Tables_number 1

loop_
_symmetry_equiv_pos_as_xyz
'x,y,z'

loop_
_atom_site_label
_atom_site_type_symbol
_atom_site_fract_x
_atom_site_fract_y
_atom_site_fract_z
Nd11	Nd1	0.245530	0.477590	0.011840
Nd21	Nd2	0.754470	0.522410	0.988160
H11	H1	0.232000	0.525700	0.328200
H21	H2	0.252900	0.687900	0.274400
H31	H3	0.405400	0.702500	0.396800
H41	H4	0.415300	0.539100	0.438800
H51	H5	0.122200	0.690800	0.507600
H61	H6	0.124300	0.527200	0.543300
H71	H7	0.294900	0.539100	0.663100
H81	H8	0.266900	0.700300	0.637300
H91	H9	0.250100	0.982500	0.217400
H101	H10	0.220200	0.970900	0.095400
H111	H11	0.478500	0.879500	0.101000
H121	H12	0.534300	0.026100	0.102000
H131	H13	0.768000	0.474300	0.671800
H141	H14	0.747100	0.312100	0.725600
H151	H15	0.594600	0.297500	0.603200
H161	H16	0.584700	0.460900	0.561200
H171	H17	0.877800	0.309200	0.492400
H181	H18	0.875700	0.472800	0.456700
H191	H19	0.705100	0.460900	0.336900
H201	H20	0.733100	0.299700	0.362700
H211	H21	0.749900	0.017500	0.782600
H221	H22	0.779800	0.029100	0.904600
H231	H23	0.521500	0.120500	0.899000
H241	H24	0.465700	0.973900	0.898000
C11	C1	0.455000	0.584600	0.192600
C21	C2	0.308500	0.603900	0.302600
C31	C3	0.345500	0.615400	0.416800
C41	C4	0.187800	0.610700	0.528600
C51	C5	0.216600	0.611100	0.648800
C61	C6	0.064700	0.587400	0.764200
C71	C7	0.260700	0.172200	0.092400
C81	C8	0.287000	0.017100	0.126300
C91	C9	0.467500	0.979500	0.071400
C101	C10	0.545000	0.415400	0.807400
C111	C11	0.691500	0.396100	0.697400
C121	C12	0.654500	0.384600	0.583200
C131	C13	0.812200	0.389300	0.471400
C141	C14	0.783400	0.388900	0.351200
C151	C15	0.935300	0.412600	0.235800
C161	C16	0.739300	0.827800	0.907600
C171	C17	0.713000	0.982900	0.873700
C181	C18	0.532500	0.020500	0.928600
O11	O1	0.431000	0.535300	0.110380
O21	O2	0.599800	0.615600	0.180110
O31	O3	0.077000	0.544100	0.872830
O41	O4	0.923600	0.606700	0.754100
O51	O5	0.362900	0.253800	0.097500
O61	O6	0.141000	0.219700	0.057700
O71	O7	0.569000	0.464700	0.889620
O81	O8	0.400200	0.384400	0.819890
O91	O9	0.923000	0.455900	0.127170
O101	O10	0.076400	0.393300	0.245900
O111	O11	0.637100	0.746200	0.902500
O121	O12	0.859000	0.780300	0.942300
