data_OCUNAE_clean_PM
_symmetry_space_group_name_H-M	'P1'
_cell_length_a	26.446100
_cell_length_b	16.548900
_cell_length_c	13.489400
_cell_angle_alpha	90.000000
_cell_angle_beta	104.288000
_cell_angle_gamma	90.000000
_symmetry_Int_Tables_number 1

loop_
_symmetry_equiv_pos_as_xyz
'x,y,z'

loop_
_atom_site_label
_atom_site_type_symbol
_atom_site_fract_x
_atom_site_fract_y
_atom_site_fract_z
C11	C1	0.434900	0.953200	0.046900
C21	C2	0.481300	0.898100	0.079600
C31	C3	0.478700	0.819800	0.039900
H11	H1	0.448700	0.802200	0.993200
C41	C4	0.522600	0.767000	0.071700
C51	C5	0.569600	0.792700	0.143900
C61	C6	0.571100	0.871400	0.181200
C71	C7	0.527000	0.923000	0.149500
H21	H2	0.528600	0.975100	0.176200
C81	C8	0.619800	0.743500	0.164900
C91	C9	0.637600	0.692200	0.250900
C101	C10	0.686000	0.654400	0.271200
H31	H3	0.696900	0.622200	0.329000
C111	C11	0.718300	0.665500	0.202900
C121	C12	0.701700	0.716000	0.119000
H41	H4	0.723000	0.723900	0.074300
C131	C13	0.653300	0.755400	0.100500
C141	C14	0.638000	0.812500	0.009100
C151	C15	0.772300	0.624900	0.223900
C161	C16	0.618800	0.902600	0.260800
N11	N1	0.516300	0.685800	0.029300
N21	N2	0.603900	0.676400	0.322600
O11	O1	0.431510	0.010000	0.110200
O21	O2	0.402140	0.940500	0.961400
O31	O3	0.557500	0.692500	0.297400
O41	O4	0.624700	0.649700	0.408800
O51	O5	0.482800	0.673600	0.952400
O61	O6	0.547300	0.633100	0.068900
O71	O7	0.792400	0.603000	0.315000
O81	O8	0.793100	0.618500	0.149600
O91	O9	0.651300	0.886200	0.023900
O101	O10	0.615200	0.787900	0.923100
O111	O11	0.636270	0.973100	0.243800
O121	O12	0.637450	0.861800	0.339400
Mn11	Mn1	0.870100	0.578340	0.148510
Mn21	Mn2	0.828170	0.496610	0.386080
C171	C17	0.934900	0.453200	0.046900
C181	C18	0.981300	0.398100	0.079600
C191	C19	0.978700	0.319800	0.039900
H51	H5	0.948700	0.302200	0.993200
C201	C20	0.022600	0.267000	0.071700
C211	C21	0.069600	0.292700	0.143900
C221	C22	0.071100	0.371400	0.181200
C231	C23	0.027000	0.423000	0.149500
H61	H6	0.028600	0.475100	0.176200
C241	C24	0.119800	0.243500	0.164900
C251	C25	0.137600	0.192200	0.250900
C261	C26	0.186000	0.154400	0.271200
H71	H7	0.196900	0.122200	0.329000
C271	C27	0.218300	0.165500	0.202900
C281	C28	0.201700	0.216000	0.119000
H81	H8	0.223000	0.223900	0.074300
C291	C29	0.153300	0.255400	0.100500
C301	C30	0.138000	0.312500	0.009100
C311	C31	0.272300	0.124900	0.223900
C321	C32	0.118800	0.402600	0.260800
N31	N3	0.016300	0.185800	0.029300
N41	N4	0.103900	0.176400	0.322600
O131	O13	0.931510	0.510000	0.110200
O141	O14	0.902140	0.440500	0.961400
O151	O15	0.057500	0.192500	0.297400
O161	O16	0.124700	0.149700	0.408800
O171	O17	0.982800	0.173600	0.952400
O181	O18	0.047300	0.133100	0.068900
O191	O19	0.292400	0.103000	0.315000
O201	O20	0.293100	0.118500	0.149600
O211	O21	0.151300	0.386200	0.023900
O221	O22	0.115200	0.287900	0.923100
O231	O23	0.136270	0.473100	0.243800
O241	O24	0.137450	0.361800	0.339400
Mn31	Mn3	0.370100	0.078340	0.148510
Mn41	Mn4	0.328170	0.996610	0.386080
C331	C33	0.565100	0.953200	0.453100
C341	C34	0.518700	0.898100	0.420400
C351	C35	0.521300	0.819800	0.460100
H91	H9	0.551300	0.802200	0.506800
C361	C36	0.477400	0.767000	0.428300
C371	C37	0.430400	0.792700	0.356100
C381	C38	0.428900	0.871400	0.318800
C391	C39	0.473000	0.923000	0.350500
H101	H10	0.471400	0.975100	0.323800
C401	C40	0.380200	0.743500	0.335100
C411	C41	0.362400	0.692200	0.249100
C421	C42	0.314000	0.654400	0.228800
H111	H11	0.303100	0.622200	0.171000
C431	C43	0.281700	0.665500	0.297100
C441	C44	0.298300	0.716000	0.381000
H121	H12	0.277000	0.723900	0.425700
C451	C45	0.346700	0.755400	0.399500
C461	C46	0.362000	0.812500	0.490900
C471	C47	0.227700	0.624900	0.276100
C481	C48	0.381200	0.902600	0.239200
N51	N5	0.483700	0.685800	0.470700
N61	N6	0.396100	0.676400	0.177400
O251	O25	0.568490	0.010000	0.389800
O261	O26	0.597860	0.940500	0.538600
O271	O27	0.442500	0.692500	0.202600
O281	O28	0.375300	0.649700	0.091200
O291	O29	0.517200	0.673600	0.547600
O301	O30	0.452700	0.633100	0.431100
O311	O31	0.207600	0.603000	0.185000
O321	O32	0.206900	0.618500	0.350400
O331	O33	0.348700	0.886200	0.476100
O341	O34	0.384800	0.787900	0.576900
O351	O35	0.363730	0.973100	0.256200
O361	O36	0.362550	0.861800	0.160600
Mn51	Mn5	0.129900	0.578340	0.351490
Mn61	Mn6	0.171830	0.496610	0.113920
C491	C49	0.065100	0.453200	0.453100
C501	C50	0.018700	0.398100	0.420400
C511	C51	0.021300	0.319800	0.460100
H131	H13	0.051300	0.302200	0.506800
C521	C52	0.977400	0.267000	0.428300
C531	C53	0.930400	0.292700	0.356100
C541	C54	0.928900	0.371400	0.318800
C551	C55	0.973000	0.423000	0.350500
H141	H14	0.971400	0.475100	0.323800
C561	C56	0.880200	0.243500	0.335100
C571	C57	0.862400	0.192200	0.249100
C581	C58	0.814000	0.154400	0.228800
H151	H15	0.803100	0.122200	0.171000
C591	C59	0.781700	0.165500	0.297100
C601	C60	0.798300	0.216000	0.381000
H161	H16	0.777000	0.223900	0.425700
C611	C61	0.846700	0.255400	0.399500
C621	C62	0.862000	0.312500	0.490900
C631	C63	0.727700	0.124900	0.276100
C641	C64	0.881200	0.402600	0.239200
N71	N7	0.983700	0.185800	0.470700
N81	N8	0.896100	0.176400	0.177400
O371	O37	0.068490	0.510000	0.389800
O381	O38	0.097860	0.440500	0.538600
O391	O39	0.942500	0.192500	0.202600
O401	O40	0.875300	0.149700	0.091200
O411	O41	0.017200	0.173600	0.547600
O421	O42	0.952700	0.133100	0.431100
O431	O43	0.707600	0.103000	0.185000
O441	O44	0.706900	0.118500	0.350400
O451	O45	0.848700	0.386200	0.476100
O461	O46	0.884800	0.287900	0.576900
O471	O47	0.863730	0.473100	0.256200
O481	O48	0.862550	0.361800	0.160600
Mn71	Mn7	0.629900	0.078340	0.351490
Mn81	Mn8	0.671830	0.996610	0.113920
C651	C65	0.565100	0.046800	0.953100
C661	C66	0.518700	0.101900	0.920400
C671	C67	0.521300	0.180200	0.960100
H171	H17	0.551300	0.197800	0.006800
C681	C68	0.477400	0.233000	0.928300
C691	C69	0.430400	0.207300	0.856100
C701	C70	0.428900	0.128600	0.818800
C711	C71	0.473000	0.077000	0.850500
H181	H18	0.471400	0.024900	0.823800
C721	C72	0.380200	0.256500	0.835100
C731	C73	0.362400	0.307800	0.749100
C741	C74	0.314000	0.345600	0.728800
H191	H19	0.303100	0.377800	0.671000
C751	C75	0.281700	0.334500	0.797100
C761	C76	0.298300	0.284000	0.881000
H201	H20	0.277000	0.276100	0.925700
C771	C77	0.346700	0.244600	0.899500
C781	C78	0.362000	0.187500	0.990900
C791	C79	0.227700	0.375100	0.776100
C801	C80	0.381200	0.097400	0.739200
N91	N9	0.483700	0.314200	0.970700
N101	N10	0.396100	0.323600	0.677400
O491	O49	0.568490	0.990000	0.889800
O501	O50	0.597860	0.059500	0.038600
O511	O51	0.442500	0.307500	0.702600
O521	O52	0.375300	0.350300	0.591200
O531	O53	0.517200	0.326400	0.047600
O541	O54	0.452700	0.366900	0.931100
O551	O55	0.207600	0.397000	0.685000
O561	O56	0.206900	0.381500	0.850400
O571	O57	0.348700	0.113800	0.976100
O581	O58	0.384800	0.212100	0.076900
O591	O59	0.363730	0.026900	0.756200
O601	O60	0.362550	0.138200	0.660600
Mn91	Mn9	0.129900	0.421660	0.851490
Mn101	Mn10	0.171830	0.503390	0.613920
C811	C81	0.065100	0.546800	0.953100
C821	C82	0.018700	0.601900	0.920400
C831	C83	0.021300	0.680200	0.960100
H211	H21	0.051300	0.697800	0.006800
C841	C84	0.977400	0.733000	0.928300
C851	C85	0.930400	0.707300	0.856100
C861	C86	0.928900	0.628600	0.818800
C871	C87	0.973000	0.577000	0.850500
H221	H22	0.971400	0.524900	0.823800
C881	C88	0.880200	0.756500	0.835100
C891	C89	0.862400	0.807800	0.749100
C901	C90	0.814000	0.845600	0.728800
H231	H23	0.803100	0.877800	0.671000
C911	C91	0.781700	0.834500	0.797100
C921	C92	0.798300	0.784000	0.881000
H241	H24	0.777000	0.776100	0.925700
C931	C93	0.846700	0.744600	0.899500
C941	C94	0.862000	0.687500	0.990900
C951	C95	0.727700	0.875100	0.776100
C961	C96	0.881200	0.597400	0.739200
N111	N11	0.983700	0.814200	0.970700
N121	N12	0.896100	0.823600	0.677400
O611	O61	0.068490	0.490000	0.889800
O621	O62	0.097860	0.559500	0.038600
O631	O63	0.942500	0.807500	0.702600
O641	O64	0.875300	0.850300	0.591200
O651	O65	0.017200	0.826400	0.047600
O661	O66	0.952700	0.866900	0.931100
O671	O67	0.707600	0.897000	0.685000
O681	O68	0.706900	0.881500	0.850400
O691	O69	0.848700	0.613800	0.976100
O701	O70	0.884800	0.712100	0.076900
O711	O71	0.863730	0.526900	0.756200
O721	O72	0.862550	0.638200	0.660600
Mn111	Mn11	0.629900	0.921660	0.851490
Mn121	Mn12	0.671830	0.003390	0.613920
C971	C97	0.434900	0.046800	0.546900
C981	C98	0.481300	0.101900	0.579600
C991	C99	0.478700	0.180200	0.539900
H251	H25	0.448700	0.197800	0.493200
C1001	C100	0.522600	0.233000	0.571700
C1011	C101	0.569600	0.207300	0.643900
C1021	C102	0.571100	0.128600	0.681200
C1031	C103	0.527000	0.077000	0.649500
H261	H26	0.528600	0.024900	0.676200
C1041	C104	0.619800	0.256500	0.664900
C1051	C105	0.637600	0.307800	0.750900
C1061	C106	0.686000	0.345600	0.771200
H271	H27	0.696900	0.377800	0.829000
C1071	C107	0.718300	0.334500	0.702900
C1081	C108	0.701700	0.284000	0.619000
H281	H28	0.723000	0.276100	0.574300
C1091	C109	0.653300	0.244600	0.600500
C1101	C110	0.638000	0.187500	0.509100
C1111	C111	0.772300	0.375100	0.723900
C1121	C112	0.618800	0.097400	0.760800
N131	N13	0.516300	0.314200	0.529300
N141	N14	0.603900	0.323600	0.822600
O731	O73	0.431510	0.990000	0.610200
O741	O74	0.402140	0.059500	0.461400
O751	O75	0.557500	0.307500	0.797400
O761	O76	0.624700	0.350300	0.908800
O771	O77	0.482800	0.326400	0.452400
O781	O78	0.547300	0.366900	0.568900
O791	O79	0.792400	0.397000	0.815000
O801	O80	0.793100	0.381500	0.649600
O811	O81	0.651300	0.113800	0.523900
O821	O82	0.615200	0.212100	0.423100
O831	O83	0.636270	0.026900	0.743800
O841	O84	0.637450	0.138200	0.839400
Mn131	Mn13	0.870100	0.421660	0.648510
Mn141	Mn14	0.828170	0.503390	0.886080
C1131	C113	0.934900	0.546800	0.546900
C1141	C114	0.981300	0.601900	0.579600
C1151	C115	0.978700	0.680200	0.539900
H291	H29	0.948700	0.697800	0.493200
C1161	C116	0.022600	0.733000	0.571700
C1171	C117	0.069600	0.707300	0.643900
C1181	C118	0.071100	0.628600	0.681200
C1191	C119	0.027000	0.577000	0.649500
H301	H30	0.028600	0.524900	0.676200
C1201	C120	0.119800	0.756500	0.664900
C1211	C121	0.137600	0.807800	0.750900
C1221	C122	0.186000	0.845600	0.771200
H311	H31	0.196900	0.877800	0.829000
C1231	C123	0.218300	0.834500	0.702900
C1241	C124	0.201700	0.784000	0.619000
H321	H32	0.223000	0.776100	0.574300
C1251	C125	0.153300	0.744600	0.600500
C1261	C126	0.138000	0.687500	0.509100
C1271	C127	0.272300	0.875100	0.723900
C1281	C128	0.118800	0.597400	0.760800
N151	N15	0.016300	0.814200	0.529300
N161	N16	0.103900	0.823600	0.822600
O851	O85	0.931510	0.490000	0.610200
O861	O86	0.902140	0.559500	0.461400
O871	O87	0.057500	0.807500	0.797400
O881	O88	0.124700	0.850300	0.908800
O891	O89	0.982800	0.826400	0.452400
O901	O90	0.047300	0.866900	0.568900
O911	O91	0.292400	0.897000	0.815000
O921	O92	0.293100	0.881500	0.649600
O931	O93	0.151300	0.613800	0.523900
O941	O94	0.115200	0.712100	0.423100
O951	O95	0.136270	0.526900	0.743800
O961	O96	0.137450	0.638200	0.839400
Mn151	Mn15	0.370100	0.921660	0.648510
Mn161	Mn16	0.328170	0.003390	0.886080
