data_OCUQUZ_clean_PM
_symmetry_space_group_name_H-M	'P1'
_cell_length_a	15.712000
_cell_length_b	10.030000
_cell_length_c	18.656000
_cell_angle_alpha	90.000000
_cell_angle_beta	103.328000
_cell_angle_gamma	90.000000
_symmetry_Int_Tables_number 1

loop_
_symmetry_equiv_pos_as_xyz
'x,y,z'

loop_
_atom_site_label
_atom_site_type_symbol
_atom_site_fract_x
_atom_site_fract_y
_atom_site_fract_z
V11	V1	0.162720	0.116900	0.083710
V21	V2	0.754120	0.042240	0.216080
P11	P1	0.159560	0.827850	0.162880
P21	P2	0.794160	0.878770	0.078980
O11	O1	0.797310	0.000500	0.128710
O21	O2	0.228160	0.718500	0.168350
O31	O3	0.166910	0.898700	0.236180
O41	O4	0.210900	0.141500	0.190370
O51	O5	0.168270	0.923400	0.101630
O61	O6	0.799190	0.932300	0.004040
O71	O7	0.711030	0.798100	0.075500
C11	C1	0.052800	0.752000	0.139700
H11	H1	0.047900	0.700500	0.094900
H21	H2	0.048100	0.690300	0.178600
C21	C2	0.976000	0.849200	0.128300
H31	H3	0.977400	0.907100	0.087000
H41	H4	0.981600	0.904400	0.171800
C31	C3	0.887800	0.774900	0.113500
H51	H5	0.881500	0.733500	0.158900
H61	H6	0.888800	0.704300	0.078200
H71	H7	0.218000	0.198000	0.194000
V31	V3	0.662720	0.616900	0.083710
V41	V4	0.254120	0.542240	0.216080
P31	P3	0.659560	0.327850	0.162880
P41	P4	0.294160	0.378770	0.078980
O81	O8	0.297310	0.500500	0.128710
O91	O9	0.728160	0.218500	0.168350
O101	O10	0.666910	0.398700	0.236180
O111	O11	0.710900	0.641500	0.190370
O121	O12	0.668270	0.423400	0.101630
O131	O13	0.299190	0.432300	0.004040
O141	O14	0.211030	0.298100	0.075500
C41	C4	0.552800	0.252000	0.139700
H81	H8	0.547900	0.200500	0.094900
H91	H9	0.548100	0.190300	0.178600
C51	C5	0.476000	0.349200	0.128300
H101	H10	0.477400	0.407100	0.087000
H111	H11	0.481600	0.404400	0.171800
C61	C6	0.387800	0.274900	0.113500
H121	H12	0.381500	0.233500	0.158900
H131	H13	0.388800	0.204300	0.078200
H141	H14	0.718000	0.698000	0.194000
V51	V5	0.837280	0.116900	0.416290
V61	V6	0.245880	0.042240	0.283920
P51	P5	0.840440	0.827850	0.337120
P61	P6	0.205840	0.878770	0.421020
O151	O15	0.202690	0.000500	0.371290
O161	O16	0.771840	0.718500	0.331650
O171	O17	0.833090	0.898700	0.263820
O181	O18	0.789100	0.141500	0.309630
O191	O19	0.831730	0.923400	0.398370
O201	O20	0.200810	0.932300	0.495960
O211	O21	0.288970	0.798100	0.424500
C71	C7	0.947200	0.752000	0.360300
H151	H15	0.952100	0.700500	0.405100
H161	H16	0.951900	0.690300	0.321400
C81	C8	0.024000	0.849200	0.371700
H171	H17	0.022600	0.907100	0.413000
H181	H18	0.018400	0.904400	0.328200
C91	C9	0.112200	0.774900	0.386500
H191	H19	0.118500	0.733500	0.341100
H201	H20	0.111200	0.704300	0.421800
H211	H21	0.782000	0.198000	0.306000
V71	V7	0.337280	0.616900	0.416290
V81	V8	0.745880	0.542240	0.283920
P71	P7	0.340440	0.327850	0.337120
P81	P8	0.705840	0.378770	0.421020
O221	O22	0.702690	0.500500	0.371290
O231	O23	0.271840	0.218500	0.331650
O241	O24	0.333090	0.398700	0.263820
O251	O25	0.289100	0.641500	0.309630
O261	O26	0.331730	0.423400	0.398370
O271	O27	0.700810	0.432300	0.495960
O281	O28	0.788970	0.298100	0.424500
C101	C10	0.447200	0.252000	0.360300
H221	H22	0.452100	0.200500	0.405100
H231	H23	0.451900	0.190300	0.321400
C111	C11	0.524000	0.349200	0.371700
H241	H24	0.522600	0.407100	0.413000
H251	H25	0.518400	0.404400	0.328200
C121	C12	0.612200	0.274900	0.386500
H261	H26	0.618500	0.233500	0.341100
H271	H27	0.611200	0.204300	0.421800
H281	H28	0.282000	0.698000	0.306000
V91	V9	0.837280	0.883100	0.916290
V101	V10	0.245880	0.957760	0.783920
P91	P9	0.840440	0.172150	0.837120
P101	P10	0.205840	0.121230	0.921020
O291	O29	0.202690	0.999500	0.871290
O301	O30	0.771840	0.281500	0.831650
O311	O31	0.833090	0.101300	0.763820
O321	O32	0.789100	0.858500	0.809630
O331	O33	0.831730	0.076600	0.898370
O341	O34	0.200810	0.067700	0.995960
O351	O35	0.288970	0.201900	0.924500
C131	C13	0.947200	0.248000	0.860300
H291	H29	0.952100	0.299500	0.905100
H301	H30	0.951900	0.309700	0.821400
C141	C14	0.024000	0.150800	0.871700
H311	H31	0.022600	0.092900	0.913000
H321	H32	0.018400	0.095600	0.828200
C151	C15	0.112200	0.225100	0.886500
H331	H33	0.118500	0.266500	0.841100
H341	H34	0.111200	0.295700	0.921800
H351	H35	0.782000	0.802000	0.806000
V111	V11	0.337280	0.383100	0.916290
V121	V12	0.745880	0.457760	0.783920
P111	P11	0.340440	0.672150	0.837120
P121	P12	0.705840	0.621230	0.921020
O361	O36	0.702690	0.499500	0.871290
O371	O37	0.271840	0.781500	0.831650
O381	O38	0.333090	0.601300	0.763820
O391	O39	0.289100	0.358500	0.809630
O401	O40	0.331730	0.576600	0.898370
O411	O41	0.700810	0.567700	0.995960
O421	O42	0.788970	0.701900	0.924500
C161	C16	0.447200	0.748000	0.860300
H361	H36	0.452100	0.799500	0.905100
H371	H37	0.451900	0.809700	0.821400
C171	C17	0.524000	0.650800	0.871700
H381	H38	0.522600	0.592900	0.913000
H391	H39	0.518400	0.595600	0.828200
C181	C18	0.612200	0.725100	0.886500
H401	H40	0.618500	0.766500	0.841100
H411	H41	0.611200	0.795700	0.921800
H421	H42	0.282000	0.302000	0.806000
V131	V13	0.162720	0.883100	0.583710
V141	V14	0.754120	0.957760	0.716080
P131	P13	0.159560	0.172150	0.662880
P141	P14	0.794160	0.121230	0.578980
O431	O43	0.797310	0.999500	0.628710
O441	O44	0.228160	0.281500	0.668350
O451	O45	0.166910	0.101300	0.736180
O461	O46	0.210900	0.858500	0.690370
O471	O47	0.168270	0.076600	0.601630
O481	O48	0.799190	0.067700	0.504040
O491	O49	0.711030	0.201900	0.575500
C191	C19	0.052800	0.248000	0.639700
H431	H43	0.047900	0.299500	0.594900
H441	H44	0.048100	0.309700	0.678600
C201	C20	0.976000	0.150800	0.628300
H451	H45	0.977400	0.092900	0.587000
H461	H46	0.981600	0.095600	0.671800
C211	C21	0.887800	0.225100	0.613500
H471	H47	0.881500	0.266500	0.658900
H481	H48	0.888800	0.295700	0.578200
H491	H49	0.218000	0.802000	0.694000
V151	V15	0.662720	0.383100	0.583710
V161	V16	0.254120	0.457760	0.716080
P151	P15	0.659560	0.672150	0.662880
P161	P16	0.294160	0.621230	0.578980
O501	O50	0.297310	0.499500	0.628710
O511	O51	0.728160	0.781500	0.668350
O521	O52	0.666910	0.601300	0.736180
O531	O53	0.710900	0.358500	0.690370
O541	O54	0.668270	0.576600	0.601630
O551	O55	0.299190	0.567700	0.504040
O561	O56	0.211030	0.701900	0.575500
C221	C22	0.552800	0.748000	0.639700
H501	H50	0.547900	0.799500	0.594900
H511	H51	0.548100	0.809700	0.678600
C231	C23	0.476000	0.650800	0.628300
H521	H52	0.477400	0.592900	0.587000
H531	H53	0.481600	0.595600	0.671800
C241	C24	0.387800	0.725100	0.613500
H541	H54	0.381500	0.766500	0.658900
H551	H55	0.388800	0.795700	0.578200
H561	H56	0.718000	0.302000	0.694000
