data_ODAJAG_clean_PM
_symmetry_space_group_name_H-M	'P1'
_cell_length_a	6.109200
_cell_length_b	7.686600
_cell_length_c	22.698700
_cell_angle_alpha	90.000000
_cell_angle_beta	91.657000
_cell_angle_gamma	90.000000
_symmetry_Int_Tables_number 1

loop_
_symmetry_equiv_pos_as_xyz
'x,y,z'

loop_
_atom_site_label
_atom_site_type_symbol
_atom_site_fract_x
_atom_site_fract_y
_atom_site_fract_z
Nd11	Nd1	0.455270	0.503200	0.854020
Nd21	Nd2	0.544730	0.003200	0.645980
Nd31	Nd3	0.544730	0.496800	0.145980
Nd41	Nd4	0.455270	0.996800	0.354020
H11	H1	0.302000	0.723000	0.761000
H21	H2	0.423000	0.633000	0.612000
H31	H3	0.043100	0.478400	0.717500
H41	H4	0.122500	0.569100	0.624400
H51	H5	0.698000	0.223000	0.739000
H61	H6	0.577000	0.133000	0.888000
H71	H7	0.956900	0.978400	0.782500
H81	H8	0.877500	0.069100	0.875600
H91	H9	0.698000	0.277000	0.239000
H101	H10	0.577000	0.367000	0.388000
H111	H11	0.956900	0.521600	0.282500
H121	H12	0.877500	0.430900	0.375600
H131	H13	0.302000	0.777000	0.261000
H141	H14	0.423000	0.867000	0.112000
H151	H15	0.043100	0.021600	0.217500
H161	H16	0.122500	0.930900	0.124400
C11	C1	0.366300	0.394800	0.711100
C21	C2	0.184900	0.537100	0.714700
C31	C3	0.183800	0.642300	0.656200
C41	C4	0.046700	0.811500	0.659500
C51	C5	0.583700	0.575900	0.998800
C61	C6	0.633700	0.894800	0.788900
C71	C7	0.815100	0.037100	0.785300
C81	C8	0.816200	0.142300	0.843800
C91	C9	0.953300	0.311500	0.840500
C101	C10	0.416300	0.075900	0.501200
C111	C11	0.633700	0.605200	0.288900
C121	C12	0.815100	0.462900	0.285300
C131	C13	0.816200	0.357700	0.343800
C141	C14	0.953300	0.188500	0.340500
C151	C15	0.416300	0.424100	0.001200
C161	C16	0.366300	0.105200	0.211100
C171	C17	0.184900	0.962900	0.214700
C181	C18	0.183800	0.857700	0.156200
C191	C19	0.046700	0.688500	0.159500
C201	C20	0.583700	0.924100	0.498800
O11	O1	0.515100	0.401100	0.751600
O21	O2	0.357900	0.285800	0.670400
O31	O3	0.218900	0.640800	0.766800
O41	O4	0.405000	0.691400	0.641700
O51	O5	0.148800	0.953200	0.653900
O61	O6	0.845300	0.795600	0.666200
O71	O7	0.623400	0.632600	0.947200
O81	O8	0.664400	0.631100	0.047100
O91	O9	0.484900	0.901100	0.748400
O101	O10	0.642100	0.785800	0.829600
O111	O11	0.781100	0.140800	0.733200
O121	O12	0.595000	0.191400	0.858300
O131	O13	0.851200	0.453200	0.846100
O141	O14	0.154700	0.295600	0.833800
O151	O15	0.376600	0.132600	0.552800
O161	O16	0.335600	0.131100	0.452900
O171	O17	0.484900	0.598900	0.248400
O181	O18	0.642100	0.714200	0.329600
O191	O19	0.781100	0.359200	0.233200
O201	O20	0.595000	0.308600	0.358300
O211	O21	0.851200	0.046800	0.346100
O221	O22	0.154700	0.204400	0.333800
O231	O23	0.376600	0.367400	0.052800
O241	O24	0.335600	0.368900	0.952900
O251	O25	0.515100	0.098900	0.251600
O261	O26	0.357900	0.214200	0.170400
O271	O27	0.218900	0.859200	0.266800
O281	O28	0.405000	0.808600	0.141700
O291	O29	0.148800	0.546800	0.153900
O301	O30	0.845300	0.704400	0.166200
O311	O31	0.623400	0.867400	0.447200
O321	O32	0.664400	0.868900	0.547100
