data_ODERIZ_clean_PM
_symmetry_space_group_name_H-M	'P1'
_cell_length_a	16.311300
_cell_length_b	16.311300
_cell_length_c	16.311300
_cell_angle_alpha	90.000000
_cell_angle_beta	90.000000
_cell_angle_gamma	90.000000
_symmetry_Int_Tables_number 1

loop_
_symmetry_equiv_pos_as_xyz
'x,y,z'

loop_
_atom_site_label
_atom_site_type_symbol
_atom_site_fract_x
_atom_site_fract_y
_atom_site_fract_z
N11	N1	0.687070	0.304460	0.585720
C11	C1	0.707860	0.381820	0.606470
H11	H1	0.909060	0.078160	0.249170
N21	N2	0.812930	0.195540	0.585720
C21	C2	0.792140	0.118180	0.606470
H21	H2	0.590940	0.421840	0.249170
N31	N3	0.812930	0.304460	0.914280
C31	C3	0.792140	0.381820	0.893530
H31	H3	0.590940	0.078160	0.250830
N41	N4	0.687070	0.195540	0.914280
C41	C4	0.707860	0.118180	0.893530
H41	H4	0.909060	0.421840	0.250830
N51	N5	0.585720	0.687070	0.304460
C51	C5	0.606470	0.707860	0.381820
H51	H5	0.249170	0.909060	0.078160
N61	N6	0.585720	0.812930	0.195540
C61	C6	0.606470	0.792140	0.118180
H61	H6	0.249170	0.590940	0.421840
N71	N7	0.914280	0.812930	0.304460
C71	C7	0.893530	0.792140	0.381820
H71	H7	0.250830	0.590940	0.078160
N81	N8	0.914280	0.687070	0.195540
C81	C8	0.893530	0.707860	0.118180
H81	H8	0.250830	0.909060	0.421840
N91	N9	0.304460	0.585720	0.687070
C91	C9	0.381820	0.606470	0.707860
H91	H9	0.078160	0.249170	0.909060
N101	N10	0.195540	0.585720	0.812930
C101	C10	0.118180	0.606470	0.792140
H101	H10	0.421840	0.249170	0.590940
N111	N11	0.304460	0.914280	0.812930
C111	C11	0.381820	0.893530	0.792140
H111	H11	0.078160	0.250830	0.590940
N121	N12	0.195540	0.914280	0.687070
C121	C12	0.118180	0.893530	0.707860
H121	H12	0.421840	0.250830	0.909060
N131	N13	0.804460	0.187070	0.414280
C131	C13	0.881820	0.207860	0.393530
H131	H13	0.578160	0.409060	0.750830
N141	N14	0.695540	0.312930	0.414280
C141	C14	0.618180	0.292140	0.393530
H141	H14	0.921840	0.090940	0.750830
N151	N15	0.804460	0.312930	0.085720
C151	C15	0.881820	0.292140	0.106470
H151	H15	0.578160	0.090940	0.749170
N161	N16	0.695540	0.187070	0.085720
C161	C16	0.618180	0.207860	0.106470
H161	H16	0.921840	0.409060	0.749170
N171	N17	0.187070	0.085720	0.695540
C171	C17	0.207860	0.106470	0.618180
H171	H17	0.409060	0.749170	0.921840
N181	N18	0.312930	0.085720	0.804460
C181	C18	0.292140	0.106470	0.881820
H181	H18	0.090940	0.749170	0.578160
N191	N19	0.312930	0.414280	0.695540
C191	C19	0.292140	0.393530	0.618180
H191	H19	0.090940	0.750830	0.921840
N201	N20	0.187070	0.414280	0.804460
C201	C20	0.207860	0.393530	0.881820
H201	H20	0.409060	0.750830	0.578160
N211	N21	0.085720	0.804460	0.312930
C211	C21	0.106470	0.881820	0.292140
H211	H21	0.749170	0.578160	0.090940
N221	N22	0.085720	0.695540	0.187070
C221	C22	0.106470	0.618180	0.207860
H221	H22	0.749170	0.921840	0.409060
N231	N23	0.414280	0.804460	0.187070
C231	C23	0.393530	0.881820	0.207860
H231	H23	0.750830	0.578160	0.409060
N241	N24	0.414280	0.695540	0.312930
C241	C24	0.393530	0.618180	0.292140
H241	H24	0.750830	0.921840	0.090940
N251	N25	0.312930	0.695540	0.414280
C251	C25	0.292140	0.618180	0.393530
H251	H25	0.090940	0.921840	0.750830
N261	N26	0.187070	0.804460	0.414280
C261	C26	0.207860	0.881820	0.393530
H261	H26	0.409060	0.578160	0.750830
N271	N27	0.187070	0.695540	0.085720
C271	C27	0.207860	0.618180	0.106470
H271	H27	0.409060	0.921840	0.749170
N281	N28	0.312930	0.804460	0.085720
C281	C28	0.292140	0.881820	0.106470
H281	H28	0.090940	0.578160	0.749170
N291	N29	0.414280	0.312930	0.695540
C291	C29	0.393530	0.292140	0.618180
H291	H29	0.750830	0.090940	0.921840
N301	N30	0.414280	0.187070	0.804460
C301	C30	0.393530	0.207860	0.881820
H301	H30	0.750830	0.409060	0.578160
N311	N31	0.085720	0.187070	0.695540
C311	C31	0.106470	0.207860	0.618180
H311	H31	0.749170	0.409060	0.921840
N321	N32	0.085720	0.312930	0.804460
C321	C32	0.106470	0.292140	0.881820
H321	H32	0.749170	0.090940	0.578160
N331	N33	0.695540	0.414280	0.312930
C331	C33	0.618180	0.393530	0.292140
H331	H33	0.921840	0.750830	0.090940
N341	N34	0.804460	0.414280	0.187070
C341	C34	0.881820	0.393530	0.207860
H341	H34	0.578160	0.750830	0.409060
N351	N35	0.695540	0.085720	0.187070
C351	C35	0.618180	0.106470	0.207860
H351	H35	0.921840	0.749170	0.409060
N361	N36	0.804460	0.085720	0.312930
C361	C36	0.881820	0.106470	0.292140
H361	H36	0.578160	0.749170	0.090940
N371	N37	0.195540	0.812930	0.585720
C371	C37	0.118180	0.792140	0.606470
H371	H37	0.421840	0.590940	0.249170
N381	N38	0.304460	0.687070	0.585720
C381	C38	0.381820	0.707860	0.606470
H381	H38	0.078160	0.909060	0.249170
N391	N39	0.195540	0.687070	0.914280
C391	C39	0.118180	0.707860	0.893530
H391	H39	0.421840	0.909060	0.250830
N401	N40	0.304460	0.812930	0.914280
C401	C40	0.381820	0.792140	0.893530
H401	H40	0.078160	0.590940	0.250830
N411	N41	0.812930	0.914280	0.304460
C411	C41	0.792140	0.893530	0.381820
H411	H41	0.590940	0.250830	0.078160
N421	N42	0.687070	0.914280	0.195540
C421	C42	0.707860	0.893530	0.118180
H421	H42	0.909060	0.250830	0.421840
N431	N43	0.687070	0.585720	0.304460
C431	C43	0.707860	0.606470	0.381820
H431	H43	0.909060	0.249170	0.078160
N441	N44	0.812930	0.585720	0.195540
C441	C44	0.792140	0.606470	0.118180
H441	H44	0.590940	0.249170	0.421840
N451	N45	0.914280	0.195540	0.687070
C451	C45	0.893530	0.118180	0.707860
H451	H45	0.250830	0.421840	0.909060
N461	N46	0.914280	0.304460	0.812930
C461	C46	0.893530	0.381820	0.792140
H461	H46	0.250830	0.078160	0.590940
N471	N47	0.585720	0.195540	0.812930
C471	C47	0.606470	0.118180	0.792140
H471	H47	0.249170	0.421840	0.590940
N481	N48	0.585720	0.304460	0.687070
C481	C48	0.606470	0.381820	0.707860
H481	H48	0.249170	0.078160	0.909060
Pd11	Pd1	0.750000	0.250000	0.500000
Pd21	Pd2	0.750000	0.250000	0.000000
Pd31	Pd3	0.500000	0.750000	0.250000
Pd41	Pd4	0.000000	0.750000	0.250000
Pd51	Pd5	0.250000	0.500000	0.750000
Pd61	Pd6	0.250000	0.000000	0.750000
Pd71	Pd7	0.250000	0.750000	0.500000
Pd81	Pd8	0.250000	0.750000	0.000000
Pd91	Pd9	0.500000	0.250000	0.750000
Pd101	Pd10	0.000000	0.250000	0.750000
Pd111	Pd11	0.750000	0.500000	0.250000
Pd121	Pd12	0.750000	0.000000	0.250000
C491	C49	0.625990	0.265770	0.625990
C501	C50	0.667560	0.420510	0.667560
O11	O1	0.606750	0.194140	0.606750
F11	F1	0.688350	0.497870	0.688350
C511	C51	0.874010	0.234230	0.625990
C521	C52	0.832440	0.079490	0.667560
O21	O2	0.893250	0.305860	0.606750
F21	F2	0.811650	0.002130	0.688350
C531	C53	0.874010	0.265770	0.874010
C541	C54	0.832440	0.420510	0.832440
O31	O3	0.893250	0.194140	0.893250
F31	F3	0.811650	0.497870	0.811650
C551	C55	0.625990	0.234230	0.874010
C561	C56	0.667560	0.079490	0.832440
O41	O4	0.606750	0.305860	0.893250
F41	F4	0.688350	0.002130	0.811650
C571	C57	0.625990	0.625990	0.265770
C581	C58	0.667560	0.667560	0.420510
O51	O5	0.606750	0.606750	0.194140
F51	F5	0.688350	0.688350	0.497870
C591	C59	0.625990	0.874010	0.234230
C601	C60	0.667560	0.832440	0.079490
O61	O6	0.606750	0.893250	0.305860
F61	F6	0.688350	0.811650	0.002130
C611	C61	0.874010	0.874010	0.265770
C621	C62	0.832440	0.832440	0.420510
O71	O7	0.893250	0.893250	0.194140
F71	F7	0.811650	0.811650	0.497870
C631	C63	0.874010	0.625990	0.234230
C641	C64	0.832440	0.667560	0.079490
O81	O8	0.893250	0.606750	0.305860
F81	F8	0.811650	0.688350	0.002130
C651	C65	0.265770	0.625990	0.625990
C661	C66	0.420510	0.667560	0.667560
O91	O9	0.194140	0.606750	0.606750
F91	F9	0.497870	0.688350	0.688350
C671	C67	0.234230	0.625990	0.874010
C681	C68	0.079490	0.667560	0.832440
O101	O10	0.305860	0.606750	0.893250
F101	F10	0.002130	0.688350	0.811650
C691	C69	0.265770	0.874010	0.874010
C701	C70	0.420510	0.832440	0.832440
O111	O11	0.194140	0.893250	0.893250
F111	F11	0.497870	0.811650	0.811650
C711	C71	0.234230	0.874010	0.625990
C721	C72	0.079490	0.832440	0.667560
O121	O12	0.305860	0.893250	0.606750
F121	F12	0.002130	0.811650	0.688350
C731	C73	0.765770	0.125990	0.374010
C741	C74	0.920510	0.167560	0.332440
O131	O13	0.694140	0.106750	0.393250
F131	F13	0.997870	0.188350	0.311650
C751	C75	0.734230	0.374010	0.374010
C761	C76	0.579490	0.332440	0.332440
O141	O14	0.805860	0.393250	0.393250
F141	F14	0.502130	0.311650	0.311650
C771	C77	0.765770	0.374010	0.125990
C781	C78	0.920510	0.332440	0.167560
O151	O15	0.694140	0.393250	0.106750
F151	F15	0.997870	0.311650	0.188350
C791	C79	0.734230	0.125990	0.125990
C801	C80	0.579490	0.167560	0.167560
O161	O16	0.805860	0.106750	0.106750
F161	F16	0.502130	0.188350	0.188350
C811	C81	0.125990	0.125990	0.734230
C821	C82	0.167560	0.167560	0.579490
O171	O17	0.106750	0.106750	0.805860
F171	F17	0.188350	0.188350	0.502130
C831	C83	0.374010	0.125990	0.765770
C841	C84	0.332440	0.167560	0.920510
O181	O18	0.393250	0.106750	0.694140
F181	F18	0.311650	0.188350	0.997870
C851	C85	0.374010	0.374010	0.734230
C861	C86	0.332440	0.332440	0.579490
O191	O19	0.393250	0.393250	0.805860
F191	F19	0.311650	0.311650	0.502130
C871	C87	0.125990	0.374010	0.765770
C881	C88	0.167560	0.332440	0.920510
O201	O20	0.106750	0.393250	0.694140
F201	F20	0.188350	0.311650	0.997870
C891	C89	0.125990	0.765770	0.374010
C901	C90	0.167560	0.920510	0.332440
O211	O21	0.106750	0.694140	0.393250
F211	F21	0.188350	0.997870	0.311650
C911	C91	0.125990	0.734230	0.125990
C921	C92	0.167560	0.579490	0.167560
O221	O22	0.106750	0.805860	0.106750
F221	F22	0.188350	0.502130	0.188350
C931	C93	0.374010	0.765770	0.125990
C941	C94	0.332440	0.920510	0.167560
O231	O23	0.393250	0.694140	0.106750
F231	F23	0.311650	0.997870	0.188350
C951	C95	0.374010	0.734230	0.374010
C961	C96	0.332440	0.579490	0.332440
O241	O24	0.393250	0.805860	0.393250
F241	F24	0.311650	0.502130	0.311650
