data_ODIMAQ_clean_PM
_symmetry_space_group_name_H-M	'P1'
_cell_length_a	14.812700
_cell_length_b	14.812700
_cell_length_c	15.613000
_cell_angle_alpha	90.000000
_cell_angle_beta	90.000000
_cell_angle_gamma	120.000000
_symmetry_Int_Tables_number 1

loop_
_symmetry_equiv_pos_as_xyz
'x,y,z'

loop_
_atom_site_label
_atom_site_type_symbol
_atom_site_fract_x
_atom_site_fract_y
_atom_site_fract_z
Sm11	Sm1	0.666670	0.333340	0.750000
Sm21	Sm2	0.333330	0.666660	0.750000
Sm31	Sm3	0.333330	0.666660	0.250000
Sm41	Sm4	0.666670	0.333340	0.250000
Zn11	Zn1	0.500000	0.500000	0.000000
Zn21	Zn2	0.000000	0.500000	0.000000
Zn31	Zn3	0.500000	0.000000	0.000000
Zn41	Zn4	0.000000	0.500000	0.500000
Zn51	Zn5	0.500000	0.500000	0.500000
Zn61	Zn6	0.500000	0.000000	0.500000
H11	H1	0.719500	0.630000	0.769700
H21	H2	0.797300	0.632400	0.839100
H31	H3	0.910500	0.280500	0.769700
H41	H4	0.835100	0.202700	0.839100
H51	H5	0.370000	0.089500	0.769700
H61	H6	0.367600	0.164900	0.839100
H71	H7	0.280500	0.370000	0.769700
H81	H8	0.202700	0.367600	0.839100
H91	H9	0.089500	0.719500	0.769700
H101	H10	0.164900	0.797300	0.839100
H111	H11	0.630000	0.910500	0.769700
H121	H12	0.632400	0.835100	0.839100
H131	H13	0.089500	0.370000	0.730300
H141	H14	0.164900	0.367600	0.660900
H151	H15	0.630000	0.719500	0.730300
H161	H16	0.632400	0.797300	0.660900
H171	H17	0.280500	0.910500	0.730300
H181	H18	0.202700	0.835100	0.660900
H191	H19	0.910500	0.630000	0.730300
H201	H20	0.835100	0.632400	0.660900
H211	H21	0.370000	0.280500	0.730300
H221	H22	0.367600	0.202700	0.660900
H231	H23	0.719500	0.089500	0.730300
H241	H24	0.797300	0.164900	0.660900
H251	H25	0.280500	0.370000	0.230300
H261	H26	0.202700	0.367600	0.160900
H271	H27	0.089500	0.719500	0.230300
H281	H28	0.164900	0.797300	0.160900
H291	H29	0.630000	0.910500	0.230300
H301	H30	0.632400	0.835100	0.160900
H311	H31	0.719500	0.630000	0.230300
H321	H32	0.797300	0.632400	0.160900
H331	H33	0.910500	0.280500	0.230300
H341	H34	0.835100	0.202700	0.160900
H351	H35	0.370000	0.089500	0.230300
H361	H36	0.367600	0.164900	0.160900
H371	H37	0.910500	0.630000	0.269700
H381	H38	0.835100	0.632400	0.339100
H391	H39	0.370000	0.280500	0.269700
H401	H40	0.367600	0.202700	0.339100
H411	H41	0.719500	0.089500	0.269700
H421	H42	0.797300	0.164900	0.339100
H431	H43	0.089500	0.370000	0.269700
H441	H44	0.164900	0.367600	0.339100
H451	H45	0.630000	0.719500	0.269700
H461	H46	0.632400	0.797300	0.339100
H471	H47	0.280500	0.910500	0.269700
H481	H48	0.202700	0.835100	0.339100
C11	C1	0.648400	0.517100	0.859700
C21	C2	0.737900	0.586800	0.803800
C31	C3	0.868700	0.351600	0.859700
C41	C4	0.848900	0.262100	0.803800
C51	C5	0.482900	0.131300	0.859700
C61	C6	0.413200	0.151100	0.803800
C71	C7	0.351600	0.482900	0.859700
C81	C8	0.262100	0.413200	0.803800
C91	C9	0.131300	0.648400	0.859700
C101	C10	0.151100	0.737900	0.803800
C111	C11	0.517100	0.868700	0.859700
C121	C12	0.586800	0.848900	0.803800
C131	C13	0.131300	0.482900	0.640300
C141	C14	0.151100	0.413200	0.696200
C151	C15	0.517100	0.648400	0.640300
C161	C16	0.586800	0.737900	0.696200
C171	C17	0.351600	0.868700	0.640300
C181	C18	0.262100	0.848900	0.696200
C191	C19	0.868700	0.517100	0.640300
C201	C20	0.848900	0.586800	0.696200
C211	C21	0.482900	0.351600	0.640300
C221	C22	0.413200	0.262100	0.696200
C231	C23	0.648400	0.131300	0.640300
C241	C24	0.737900	0.151100	0.696200
C251	C25	0.351600	0.482900	0.140300
C261	C26	0.262100	0.413200	0.196200
C271	C27	0.131300	0.648400	0.140300
C281	C28	0.151100	0.737900	0.196200
C291	C29	0.517100	0.868700	0.140300
C301	C30	0.586800	0.848900	0.196200
C311	C31	0.648400	0.517100	0.140300
C321	C32	0.737900	0.586800	0.196200
C331	C33	0.868700	0.351600	0.140300
C341	C34	0.848900	0.262100	0.196200
C351	C35	0.482900	0.131300	0.140300
C361	C36	0.413200	0.151100	0.196200
C371	C37	0.868700	0.517100	0.359700
C381	C38	0.848900	0.586800	0.303800
C391	C39	0.482900	0.351600	0.359700
C401	C40	0.413200	0.262100	0.303800
C411	C41	0.648400	0.131300	0.359700
C421	C42	0.737900	0.151100	0.303800
C431	C43	0.131300	0.482900	0.359700
C441	C44	0.151100	0.413200	0.303800
C451	C45	0.517100	0.648400	0.359700
C461	C46	0.586800	0.737900	0.303800
C471	C47	0.351600	0.868700	0.359700
C481	C48	0.262100	0.848900	0.303800
O11	O1	0.615000	0.420200	0.855400
O21	O2	0.614700	0.560300	0.907600
O31	O3	0.805200	0.385000	0.855400
O41	O4	0.945600	0.385300	0.907600
O51	O5	0.579800	0.194800	0.855400
O61	O6	0.439700	0.054400	0.907600
O71	O7	0.385000	0.579800	0.855400
O81	O8	0.385300	0.439700	0.907600
O91	O9	0.194800	0.615000	0.855400
O101	O10	0.054400	0.614700	0.907600
O111	O11	0.420200	0.805200	0.855400
O121	O12	0.560300	0.945600	0.907600
O131	O13	0.194800	0.579800	0.644600
O141	O14	0.054400	0.439700	0.592400
O151	O15	0.420200	0.615000	0.644600
O161	O16	0.560300	0.614700	0.592400
O171	O17	0.385000	0.805200	0.644600
O181	O18	0.385300	0.945600	0.592400
O191	O19	0.805200	0.420200	0.644600
O201	O20	0.945600	0.560300	0.592400
O211	O21	0.579800	0.385000	0.644600
O221	O22	0.439700	0.385300	0.592400
O231	O23	0.615000	0.194800	0.644600
O241	O24	0.614700	0.054400	0.592400
O251	O25	0.385000	0.579800	0.144600
O261	O26	0.385300	0.439700	0.092400
O271	O27	0.194800	0.615000	0.144600
O281	O28	0.054400	0.614700	0.092400
O291	O29	0.420200	0.805200	0.144600
O301	O30	0.560300	0.945600	0.092400
O311	O31	0.615000	0.420200	0.144600
O321	O32	0.614700	0.560300	0.092400
O331	O33	0.805200	0.385000	0.144600
O341	O34	0.945600	0.385300	0.092400
O351	O35	0.579800	0.194800	0.144600
O361	O36	0.439700	0.054400	0.092400
O371	O37	0.805200	0.420200	0.355400
O381	O38	0.945600	0.560300	0.407600
O391	O39	0.579800	0.385000	0.355400
O401	O40	0.439700	0.385300	0.407600
O411	O41	0.615000	0.194800	0.355400
O421	O42	0.614700	0.054400	0.407600
O431	O43	0.194800	0.579800	0.355400
O441	O44	0.054400	0.439700	0.407600
O451	O45	0.420200	0.615000	0.355400
O461	O46	0.560300	0.614700	0.407600
O471	O47	0.385000	0.805200	0.355400
O481	O48	0.385300	0.945600	0.407600
O491	O49	0.764600	0.529200	0.750000
O501	O50	0.764600	0.235400	0.750000
O511	O51	0.470800	0.235400	0.750000
O521	O52	0.235400	0.470800	0.750000
O531	O53	0.235400	0.764600	0.750000
O541	O54	0.529200	0.764600	0.750000
O551	O55	0.235400	0.470800	0.250000
O561	O56	0.235400	0.764600	0.250000
O571	O57	0.529200	0.764600	0.250000
O581	O58	0.764600	0.529200	0.250000
O591	O59	0.764600	0.235400	0.250000
O601	O60	0.470800	0.235400	0.250000
