data_ODIVUU_clean_PM
_symmetry_space_group_name_H-M	'P1'
_cell_length_a	17.724000
_cell_length_b	19.705000
_cell_length_c	13.139000
_cell_angle_alpha	90.000000
_cell_angle_beta	127.496000
_cell_angle_gamma	90.000000
_symmetry_Int_Tables_number 1

loop_
_symmetry_equiv_pos_as_xyz
'x,y,z'

loop_
_atom_site_label
_atom_site_type_symbol
_atom_site_fract_x
_atom_site_fract_y
_atom_site_fract_z
O11	O1	0.454550	0.423530	0.321200
O21	O2	0.594190	0.428480	0.514800
O31	O3	0.404900	0.222060	0.033500
O41	O4	0.521200	0.146700	0.135600
N11	N1	0.116090	0.464380	0.083800
N21	N2	0.236200	0.380320	0.189400
H11	H1	0.195300	0.347900	0.153100
H21	H2	0.295900	0.371300	0.242100
C11	C1	0.537400	0.402730	0.406400
C21	C2	0.570900	0.340510	0.377800
C31	C3	0.664100	0.319130	0.469700
H31	H3	0.703100	0.343800	0.545300
C41	C4	0.700300	0.261600	0.451100
C51	C5	0.638400	0.226200	0.337200
H41	H4	0.660400	0.187400	0.322500
C61	C6	0.545300	0.246100	0.245000
C71	C7	0.511300	0.304600	0.264500
H51	H5	0.449400	0.319300	0.202200
C81	C8	0.484200	0.203400	0.126200
C91	C9	0.206200	0.446160	0.163300
O51	O5	0.954550	0.923530	0.321200
O61	O6	0.094190	0.928480	0.514800
O71	O7	0.904900	0.722060	0.033500
O81	O8	0.021200	0.646700	0.135600
N31	N3	0.616090	0.964380	0.083800
N41	N4	0.736200	0.880320	0.189400
H61	H6	0.695300	0.847900	0.153100
H71	H7	0.795900	0.871300	0.242100
C101	C10	0.037400	0.902730	0.406400
C111	C11	0.070900	0.840510	0.377800
C121	C12	0.164100	0.819130	0.469700
H81	H8	0.203100	0.843800	0.545300
C131	C13	0.200300	0.761600	0.451100
C141	C14	0.138400	0.726200	0.337200
H91	H9	0.160400	0.687400	0.322500
C151	C15	0.045300	0.746100	0.245000
C161	C16	0.011300	0.804600	0.264500
H101	H10	0.949400	0.819300	0.202200
C171	C17	0.984200	0.703400	0.126200
C181	C18	0.706200	0.946160	0.163300
O91	O9	0.545450	0.423530	0.678800
O101	O10	0.405810	0.428480	0.485200
O111	O11	0.595100	0.222060	0.966500
O121	O12	0.478800	0.146700	0.864400
N51	N5	0.883910	0.464380	0.916200
N61	N6	0.763800	0.380320	0.810600
H111	H11	0.804700	0.347900	0.846900
H121	H12	0.704100	0.371300	0.757900
C191	C19	0.462600	0.402730	0.593600
C201	C20	0.429100	0.340510	0.622200
C211	C21	0.335900	0.319130	0.530300
H131	H13	0.296900	0.343800	0.454700
C221	C22	0.299700	0.261600	0.548900
C231	C23	0.361600	0.226200	0.662800
H141	H14	0.339600	0.187400	0.677500
C241	C24	0.454700	0.246100	0.755000
C251	C25	0.488700	0.304600	0.735500
H151	H15	0.550600	0.319300	0.797800
C261	C26	0.515800	0.203400	0.873800
C271	C27	0.793800	0.446160	0.836700
O131	O13	0.045450	0.923530	0.678800
O141	O14	0.905810	0.928480	0.485200
O151	O15	0.095100	0.722060	0.966500
O161	O16	0.978800	0.646700	0.864400
N71	N7	0.383910	0.964380	0.916200
N81	N8	0.263800	0.880320	0.810600
H161	H16	0.304700	0.847900	0.846900
H171	H17	0.204100	0.871300	0.757900
C281	C28	0.962600	0.902730	0.593600
C291	C29	0.929100	0.840510	0.622200
C301	C30	0.835900	0.819130	0.530300
H181	H18	0.796900	0.843800	0.454700
C311	C31	0.799700	0.761600	0.548900
C321	C32	0.861600	0.726200	0.662800
H191	H19	0.839600	0.687400	0.677500
C331	C33	0.954700	0.746100	0.755000
C341	C34	0.988700	0.804600	0.735500
H201	H20	0.050600	0.819300	0.797800
C351	C35	0.015800	0.703400	0.873800
C361	C36	0.293800	0.946160	0.836700
O171	O17	0.545450	0.576470	0.678800
O181	O18	0.405810	0.571520	0.485200
O191	O19	0.595100	0.777940	0.966500
O201	O20	0.478800	0.853300	0.864400
N91	N9	0.883910	0.535620	0.916200
N101	N10	0.763800	0.619680	0.810600
H211	H21	0.804700	0.652100	0.846900
H221	H22	0.704100	0.628700	0.757900
C371	C37	0.462600	0.597270	0.593600
C381	C38	0.429100	0.659490	0.622200
C391	C39	0.335900	0.680870	0.530300
H231	H23	0.296900	0.656200	0.454700
C401	C40	0.299700	0.738400	0.548900
C411	C41	0.361600	0.773800	0.662800
H241	H24	0.339600	0.812600	0.677500
C421	C42	0.454700	0.753900	0.755000
C431	C43	0.488700	0.695400	0.735500
H251	H25	0.550600	0.680700	0.797800
C441	C44	0.515800	0.796600	0.873800
C451	C45	0.793800	0.553840	0.836700
O211	O21	0.045450	0.076470	0.678800
O221	O22	0.905810	0.071520	0.485200
O231	O23	0.095100	0.277940	0.966500
O241	O24	0.978800	0.353300	0.864400
N111	N11	0.383910	0.035620	0.916200
N121	N12	0.263800	0.119680	0.810600
H261	H26	0.304700	0.152100	0.846900
H271	H27	0.204100	0.128700	0.757900
C461	C46	0.962600	0.097270	0.593600
C471	C47	0.929100	0.159490	0.622200
C481	C48	0.835900	0.180870	0.530300
H281	H28	0.796900	0.156200	0.454700
C491	C49	0.799700	0.238400	0.548900
C501	C50	0.861600	0.273800	0.662800
H291	H29	0.839600	0.312600	0.677500
C511	C51	0.954700	0.253900	0.755000
C521	C52	0.988700	0.195400	0.735500
H301	H30	0.050600	0.180700	0.797800
C531	C53	0.015800	0.296600	0.873800
C541	C54	0.293800	0.053840	0.836700
O251	O25	0.454550	0.576470	0.321200
O261	O26	0.594190	0.571520	0.514800
O271	O27	0.404900	0.777940	0.033500
O281	O28	0.521200	0.853300	0.135600
N131	N13	0.116090	0.535620	0.083800
N141	N14	0.236200	0.619680	0.189400
H311	H31	0.195300	0.652100	0.153100
H321	H32	0.295900	0.628700	0.242100
C551	C55	0.537400	0.597270	0.406400
C561	C56	0.570900	0.659490	0.377800
C571	C57	0.664100	0.680870	0.469700
H331	H33	0.703100	0.656200	0.545300
C581	C58	0.700300	0.738400	0.451100
C591	C59	0.638400	0.773800	0.337200
H341	H34	0.660400	0.812600	0.322500
C601	C60	0.545300	0.753900	0.245000
C611	C61	0.511300	0.695400	0.264500
H351	H35	0.449400	0.680700	0.202200
C621	C62	0.484200	0.796600	0.126200
C631	C63	0.206200	0.553840	0.163300
O291	O29	0.954550	0.076470	0.321200
O301	O30	0.094190	0.071520	0.514800
O311	O31	0.904900	0.277940	0.033500
O321	O32	0.021200	0.353300	0.135600
N151	N15	0.616090	0.035620	0.083800
N161	N16	0.736200	0.119680	0.189400
H361	H36	0.695300	0.152100	0.153100
H371	H37	0.795900	0.128700	0.242100
C641	C64	0.037400	0.097270	0.406400
C651	C65	0.070900	0.159490	0.377800
C661	C66	0.164100	0.180870	0.469700
H381	H38	0.203100	0.156200	0.545300
C671	C67	0.200300	0.238400	0.451100
C681	C68	0.138400	0.273800	0.337200
H391	H39	0.160400	0.312600	0.322500
C691	C69	0.045300	0.253900	0.245000
C701	C70	0.011300	0.195400	0.264500
H401	H40	0.949400	0.180700	0.202200
C711	C71	0.984200	0.296600	0.126200
C721	C72	0.706200	0.053840	0.163300
Zn11	Zn1	0.404370	0.500000	0.368620
N171	N17	0.265600	0.500000	0.217300
Zn21	Zn2	0.904370	0.000000	0.368620
N181	N18	0.765600	0.000000	0.217300
Zn31	Zn3	0.595630	0.500000	0.631380
N191	N19	0.734400	0.500000	0.782700
Zn41	Zn4	0.095630	0.000000	0.631380
N201	N20	0.234400	0.000000	0.782700
Zn51	Zn5	0.000000	0.408520	0.000000
Zn61	Zn6	0.500000	0.908520	0.000000
Zn71	Zn7	0.000000	0.591480	0.000000
Zn81	Zn8	0.500000	0.091480	0.000000
