data_OFERUN_clean_PM
_symmetry_space_group_name_H-M	'P1'
_cell_length_a	14.713800
_cell_length_b	14.713800
_cell_length_c	14.713800
_cell_angle_alpha	109.471000
_cell_angle_beta	109.471000
_cell_angle_gamma	109.471000
_symmetry_Int_Tables_number 1

loop_
_symmetry_equiv_pos_as_xyz
'x,y,z'

loop_
_atom_site_label
_atom_site_type_symbol
_atom_site_fract_x
_atom_site_fract_y
_atom_site_fract_z
Zn11	Zn1	0.250000	0.750000	0.500000
Zn21	Zn2	0.750000	0.250000	0.500000
Zn31	Zn3	0.500000	0.750000	0.250000
Zn41	Zn4	0.500000	0.250000	0.750000
Zn51	Zn5	0.750000	0.500000	0.250000
Zn61	Zn6	0.250000	0.500000	0.750000
H11	H1	0.422400	0.656400	0.536600
H21	H2	0.310400	0.794100	0.244300
H31	H3	0.119800	0.885800	0.463400
H41	H4	0.549800	0.066100	0.755700
H51	H5	0.880200	0.343600	0.766000
H61	H6	0.450200	0.205900	0.516300
H71	H7	0.577600	0.114200	0.234000
H81	H8	0.689600	0.933900	0.483700
H91	H9	0.766000	0.880200	0.343600
H101	H10	0.516300	0.450200	0.205900
H111	H11	0.234000	0.577600	0.114200
H121	H12	0.483700	0.689600	0.933900
H131	H13	0.536600	0.422400	0.656400
H141	H14	0.244300	0.310400	0.794100
H151	H15	0.463400	0.119800	0.885800
H161	H16	0.755700	0.549800	0.066100
H171	H17	0.885800	0.463400	0.119800
H181	H18	0.066100	0.755700	0.549800
H191	H19	0.656400	0.536600	0.422400
H201	H20	0.794100	0.244300	0.310400
H211	H21	0.114200	0.234000	0.577600
H221	H22	0.933900	0.483700	0.689600
H231	H23	0.343600	0.766000	0.880200
H241	H24	0.205900	0.516300	0.450200
H251	H25	0.885800	0.119800	0.463400
H261	H26	0.066100	0.549800	0.755700
H271	H27	0.656400	0.422400	0.536600
H281	H28	0.794100	0.310400	0.244300
H291	H29	0.114200	0.577600	0.234000
H301	H30	0.933900	0.689600	0.483700
H311	H31	0.343600	0.880200	0.766000
H321	H32	0.205900	0.450200	0.516300
H331	H33	0.422400	0.536600	0.656400
H341	H34	0.310400	0.244300	0.794100
H351	H35	0.119800	0.463400	0.885800
H361	H36	0.549800	0.755700	0.066100
H371	H37	0.880200	0.766000	0.343600
H381	H38	0.450200	0.516300	0.205900
H391	H39	0.577600	0.234000	0.114200
H401	H40	0.689600	0.483700	0.933900
H411	H41	0.766000	0.343600	0.880200
H421	H42	0.516300	0.205900	0.450200
H431	H43	0.234000	0.114200	0.577600
H441	H44	0.483700	0.933900	0.689600
H451	H45	0.536600	0.656400	0.422400
H461	H46	0.244300	0.794100	0.310400
H471	H47	0.463400	0.885800	0.119800
H481	H48	0.755700	0.066100	0.549800
H491	H49	0.370100	0.881800	0.370100
H501	H50	0.511700	0.000000	0.629900
H511	H51	0.488300	0.118200	0.488300
H521	H52	0.629900	0.000000	0.511700
H531	H53	0.488300	0.488300	0.118200
H541	H54	0.511700	0.629900	0.000000
H551	H55	0.370100	0.370100	0.881800
H561	H56	0.629900	0.511700	0.000000
H571	H57	0.000000	0.629900	0.511700
H581	H58	0.881800	0.370100	0.370100
H591	H59	0.000000	0.511700	0.629900
H601	H60	0.118200	0.488300	0.488300
C11	C1	0.414560	0.683560	0.472800
C21	C2	0.210760	0.941760	0.527200
C31	C3	0.789240	0.316440	0.731000
C41	C4	0.585440	0.058240	0.269000
C51	C5	0.731000	0.789240	0.316440
C61	C6	0.269000	0.585440	0.058240
C71	C7	0.472800	0.414560	0.683560
C81	C8	0.527200	0.210760	0.941760
C91	C9	0.941760	0.527200	0.210760
C101	C10	0.683560	0.472800	0.414560
C111	C11	0.058240	0.269000	0.585440
C121	C12	0.316440	0.731000	0.789240
C131	C13	0.941760	0.210760	0.527200
C141	C14	0.683560	0.414560	0.472800
C151	C15	0.058240	0.585440	0.269000
C161	C16	0.316440	0.789240	0.731000
C171	C17	0.414560	0.472800	0.683560
C181	C18	0.210760	0.527200	0.941760
C191	C19	0.789240	0.731000	0.316440
C201	C20	0.585440	0.269000	0.058240
C211	C21	0.731000	0.316440	0.789240
C221	C22	0.269000	0.058240	0.585440
C231	C23	0.472800	0.683560	0.414560
C241	C24	0.527200	0.941760	0.210760
C251	C25	0.373000	0.756800	0.373000
C261	C26	0.319500	0.805800	0.319500
C271	C27	0.383800	0.000000	0.627000
C281	C28	0.486300	0.000000	0.680500
C291	C29	0.616200	0.243200	0.616200
C301	C30	0.513700	0.194200	0.513700
C311	C31	0.627000	0.000000	0.383800
C321	C32	0.680500	0.000000	0.486300
C331	C33	0.616200	0.616200	0.243200
C341	C34	0.513700	0.513700	0.194200
C351	C35	0.383800	0.627000	0.000000
C361	C36	0.486300	0.680500	0.000000
C371	C37	0.373000	0.373000	0.756800
C381	C38	0.319500	0.319500	0.805800
C391	C39	0.627000	0.383800	0.000000
C401	C40	0.680500	0.486300	0.000000
C411	C41	0.000000	0.627000	0.383800
C421	C42	0.000000	0.680500	0.486300
C431	C43	0.756800	0.373000	0.373000
C441	C44	0.805800	0.319500	0.319500
C451	C45	0.000000	0.383800	0.627000
C461	C46	0.000000	0.486300	0.680500
C471	C47	0.243200	0.616200	0.616200
C481	C48	0.194200	0.513700	0.513700
N11	N1	0.351450	0.727980	0.445330
N21	N2	0.282650	0.906120	0.554670
N31	N3	0.717350	0.272020	0.623470
N41	N4	0.648550	0.093880	0.376530
N51	N5	0.623470	0.717350	0.272020
N61	N6	0.376530	0.648550	0.093880
N71	N7	0.445330	0.351450	0.727980
N81	N8	0.554670	0.282650	0.906120
N91	N9	0.906120	0.554670	0.282650
N101	N10	0.727980	0.445330	0.351450
N111	N11	0.093880	0.376530	0.648550
N121	N12	0.272020	0.623470	0.717350
N131	N13	0.906120	0.282650	0.554670
N141	N14	0.727980	0.351450	0.445330
N151	N15	0.093880	0.648550	0.376530
N161	N16	0.272020	0.717350	0.623470
N171	N17	0.351450	0.445330	0.727980
N181	N18	0.282650	0.554670	0.906120
N191	N19	0.717350	0.623470	0.272020
N201	N20	0.648550	0.376530	0.093880
N211	N21	0.623470	0.272020	0.717350
N221	N22	0.376530	0.093880	0.648550
N231	N23	0.445330	0.727980	0.351450
N241	N24	0.554670	0.906120	0.282650
