data_OFERUN02_clean_h_PM
_symmetry_space_group_name_H-M	'P1'
_cell_length_a	14.726900
_cell_length_b	14.726900
_cell_length_c	14.726900
_cell_angle_alpha	109.471000
_cell_angle_beta	109.471000
_cell_angle_gamma	109.471000
_symmetry_Int_Tables_number 1

loop_
_symmetry_equiv_pos_as_xyz
'x,y,z'

loop_
_atom_site_label
_atom_site_type_symbol
_atom_site_fract_x
_atom_site_fract_y
_atom_site_fract_z
Zn11	Zn1	0.750000	0.500000	0.250000
Zn21	Zn2	0.250000	0.500000	0.750000
Zn31	Zn3	0.250000	0.750000	0.500000
Zn41	Zn4	0.750000	0.250000	0.500000
Zn51	Zn5	0.500000	0.750000	0.250000
Zn61	Zn6	0.500000	0.250000	0.750000
C11	C1	0.677990	0.467150	0.410620
C21	C2	0.056530	0.267370	0.589380
C31	C3	0.943470	0.532850	0.210840
C41	C4	0.322010	0.732630	0.789160
C51	C5	0.210840	0.943470	0.532850
C61	C6	0.789160	0.322010	0.732630
C71	C7	0.410620	0.677990	0.467150
C81	C8	0.589380	0.056530	0.267370
C91	C9	0.267370	0.589380	0.056530
C101	C10	0.467150	0.410620	0.677990
C111	C11	0.732630	0.789160	0.322010
C121	C12	0.532850	0.210840	0.943470
C131	C13	0.267370	0.056530	0.589380
C141	C14	0.467150	0.677990	0.410620
C151	C15	0.732630	0.322010	0.789160
C161	C16	0.532850	0.943470	0.210840
C171	C17	0.677990	0.410620	0.467150
C181	C18	0.056530	0.589380	0.267370
C191	C19	0.943470	0.210840	0.532850
C201	C20	0.322010	0.789160	0.732630
C211	C21	0.210840	0.532850	0.943470
C221	C22	0.789160	0.732630	0.322010
C231	C23	0.410620	0.467150	0.677990
C241	C24	0.589380	0.267370	0.056530
C251	C25	0.815800	0.323800	0.323800
C261	C26	0.757660	0.372360	0.372360
C271	C27	0.000000	0.492000	0.676200
C281	C28	0.000000	0.385300	0.627640
C291	C29	0.000000	0.676200	0.492000
C301	C30	0.000000	0.627640	0.385300
C311	C31	0.184200	0.508000	0.508000
C321	C32	0.242340	0.614700	0.614700
C331	C33	0.492000	0.000000	0.676200
C341	C34	0.385300	0.000000	0.627640
C351	C35	0.508000	0.184200	0.508000
C361	C36	0.614700	0.242340	0.614700
C371	C37	0.323800	0.815800	0.323800
C381	C38	0.372360	0.757660	0.372360
C391	C39	0.676200	0.000000	0.492000
C401	C40	0.627640	0.000000	0.385300
C411	C41	0.492000	0.676200	0.000000
C421	C42	0.385300	0.627640	0.000000
C431	C43	0.323800	0.323800	0.815800
C441	C44	0.372360	0.372360	0.757660
C451	C45	0.508000	0.508000	0.184200
C461	C46	0.614700	0.614700	0.242340
C471	C47	0.676200	0.492000	0.000000
C481	C48	0.627640	0.385300	0.000000
N11	N1	0.728540	0.442960	0.350380
N21	N2	0.092580	0.378160	0.649620
N31	N3	0.907420	0.557040	0.285580
N41	N4	0.271460	0.621840	0.714420
N51	N5	0.285580	0.907420	0.557040
N61	N6	0.714420	0.271460	0.621840
N71	N7	0.350380	0.728540	0.442960
N81	N8	0.649620	0.092580	0.378160
N91	N9	0.378160	0.649620	0.092580
N101	N10	0.442960	0.350380	0.728540
N111	N11	0.621840	0.714420	0.271460
N121	N12	0.557040	0.285580	0.907420
N131	N13	0.378160	0.092580	0.649620
N141	N14	0.442960	0.728540	0.350380
N151	N15	0.621840	0.271460	0.714420
N161	N16	0.557040	0.907420	0.285580
N171	N17	0.728540	0.350380	0.442960
N181	N18	0.092580	0.649620	0.378160
N191	N19	0.907420	0.285580	0.557040
N201	N20	0.271460	0.714420	0.621840
N211	N21	0.285580	0.557040	0.907420
N221	N22	0.714420	0.621840	0.271460
N231	N23	0.350380	0.442960	0.728540
N241	N24	0.649620	0.378160	0.092580
H11	H1	0.639560	0.522940	0.419010
H21	H2	0.103930	0.220550	0.580990
H31	H3	0.896070	0.477060	0.116620
H41	H4	0.360440	0.779450	0.883380
H51	H5	0.116620	0.896070	0.477060
H61	H6	0.883380	0.360440	0.779450
H71	H7	0.419010	0.639560	0.522940
H81	H8	0.580990	0.103930	0.220550
H91	H9	0.220550	0.580990	0.103930
H101	H10	0.522940	0.419010	0.639560
H111	H11	0.779450	0.883380	0.360440
H121	H12	0.477060	0.116620	0.896070
H131	H13	0.220550	0.103930	0.580990
H141	H14	0.522940	0.639560	0.419010
H151	H15	0.779450	0.360440	0.883380
H161	H16	0.477060	0.896070	0.116620
H171	H17	0.639560	0.419010	0.522940
H181	H18	0.103930	0.580990	0.220550
H191	H19	0.896070	0.116620	0.477060
H201	H20	0.360440	0.883380	0.779450
H211	H21	0.116620	0.477060	0.896070
H221	H22	0.883380	0.779450	0.360440
H231	H23	0.419010	0.522940	0.639560
H241	H24	0.796700	0.322180	0.241440
H251	H25	0.785750	0.235440	0.309020
H261	H26	0.909330	0.376720	0.383880
H271	H27	0.913570	0.473400	0.662940
H281	H28	0.023490	0.540460	0.633650
H291	H29	0.062940	0.543570	0.769070
H301	H30	0.911060	0.650950	0.473690
H311	H31	0.052170	0.770730	0.537170
H321	H32	0.036770	0.643980	0.546570
H331	H33	0.214250	0.449690	0.523280
H341	H34	0.203300	0.525480	0.444740
H351	H35	0.090670	0.467400	0.474550
H361	H36	0.538880	0.020150	0.631330
H371	H37	0.473500	0.914510	0.665970
H381	H38	0.545040	0.065340	0.768360
H391	H39	0.476240	0.090960	0.465780
H401	H40	0.522610	0.216640	0.450960
H411	H41	0.443720	0.200630	0.525830
H421	H42	0.229280	0.762220	0.274040
H431	H43	0.356070	0.830510	0.266690
H441	H44	0.348990	0.899040	0.393610
H451	H45	0.762020	0.077140	0.552700
H461	H46	0.683890	0.922320	0.475400
H471	H47	0.619750	0.000540	0.529330
H481	H48	0.477390	0.694030	0.928350
H491	H49	0.523760	0.614720	0.989550
H501	H50	0.556270	0.756910	0.082100
H511	H51	0.316110	0.238430	0.791510
H521	H52	0.237980	0.315120	0.790690
H531	H53	0.380250	0.380790	0.909580
H541	H54	0.526500	0.441000	0.192470
H551	H55	0.461120	0.481270	0.092450
H561	H56	0.454950	0.520290	0.223310
H571	H57	0.643930	0.474440	0.910620
H581	H58	0.770720	0.532940	0.044770
H591	H59	0.651010	0.550040	0.044620
