data_OFESIC_clean_PM
_symmetry_space_group_name_H-M	'P1'
_cell_length_a	13.454000
_cell_length_b	13.454000
_cell_length_c	14.856000
_cell_angle_alpha	90.000000
_cell_angle_beta	90.000000
_cell_angle_gamma	120.000000
_symmetry_Int_Tables_number 1

loop_
_symmetry_equiv_pos_as_xyz
'x,y,z'

loop_
_atom_site_label
_atom_site_type_symbol
_atom_site_fract_x
_atom_site_fract_y
_atom_site_fract_z
Sm11	Sm1	0.666670	0.333340	0.669250
Sm21	Sm2	0.333330	0.666660	0.830750
Sm31	Sm3	0.333330	0.666660	0.330750
Sm41	Sm4	0.666670	0.333340	0.169250
Cu11	Cu1	0.500000	0.500000	0.000000
Cu21	Cu2	0.000000	0.500000	0.000000
Cu31	Cu3	0.500000	0.000000	0.000000
Cu41	Cu4	0.000000	0.500000	0.500000
Cu51	Cu5	0.500000	0.500000	0.500000
Cu61	Cu6	0.500000	0.000000	0.500000
H11	H1	0.326000	0.351700	0.923500
H21	H2	0.457100	0.268700	0.872000
H31	H3	0.396600	0.317100	0.810300
H41	H4	0.293200	0.254300	0.048000
H51	H5	0.319300	0.181900	0.979000
H61	H6	0.025700	0.674000	0.923500
H71	H7	0.811600	0.542900	0.872000
H81	H8	0.920500	0.603400	0.810300
H91	H9	0.961100	0.706800	0.048000
H101	H10	0.862600	0.680700	0.979000
H111	H11	0.648300	0.974300	0.923500
H121	H12	0.731300	0.188400	0.872000
H131	H13	0.682900	0.079500	0.810300
H141	H14	0.745700	0.038900	0.048000
H151	H15	0.818100	0.137400	0.979000
H161	H16	0.974300	0.648300	0.576500
H171	H17	0.188400	0.731300	0.628000
H181	H18	0.079500	0.682900	0.689700
H191	H19	0.038900	0.745700	0.452000
H201	H20	0.137400	0.818100	0.521000
H211	H21	0.351700	0.326000	0.576500
H221	H22	0.268700	0.457100	0.628000
H231	H23	0.317100	0.396600	0.689700
H241	H24	0.254300	0.293200	0.452000
H251	H25	0.181900	0.319300	0.521000
H261	H26	0.674000	0.025700	0.576500
H271	H27	0.542900	0.811600	0.628000
H281	H28	0.603400	0.920500	0.689700
H291	H29	0.706800	0.961100	0.452000
H301	H30	0.680700	0.862600	0.521000
H311	H31	0.674000	0.648300	0.076500
H321	H32	0.542900	0.731300	0.128000
H331	H33	0.603400	0.682900	0.189700
H341	H34	0.706800	0.745700	0.952000
H351	H35	0.680700	0.818100	0.021000
H361	H36	0.974300	0.326000	0.076500
H371	H37	0.188400	0.457100	0.128000
H381	H38	0.079500	0.396600	0.189700
H391	H39	0.038900	0.293200	0.952000
H401	H40	0.137400	0.319300	0.021000
H411	H41	0.351700	0.025700	0.076500
H421	H42	0.268700	0.811600	0.128000
H431	H43	0.317100	0.920500	0.189700
H441	H44	0.254300	0.961100	0.952000
H451	H45	0.181900	0.862600	0.021000
H461	H46	0.025700	0.351700	0.423500
H471	H47	0.811600	0.268700	0.372000
H481	H48	0.920500	0.317100	0.310300
H491	H49	0.961100	0.254300	0.548000
H501	H50	0.862600	0.181900	0.479000
H511	H51	0.648300	0.674000	0.423500
H521	H52	0.731300	0.542900	0.372000
H531	H53	0.682900	0.603400	0.310300
H541	H54	0.745700	0.706800	0.548000
H551	H55	0.818100	0.680700	0.479000
H561	H56	0.326000	0.974300	0.423500
H571	H57	0.457100	0.188400	0.372000
H581	H58	0.396600	0.079500	0.310300
H591	H59	0.293200	0.038900	0.548000
H601	H60	0.319300	0.137400	0.479000
C11	C1	0.560500	0.438500	0.842800
C21	C2	0.446100	0.333900	0.862300
C31	C3	0.352000	0.255300	0.009700
C41	C4	0.452000	0.271800	0.066800
C51	C5	0.878000	0.439500	0.842800
C61	C6	0.887800	0.553900	0.862300
C71	C7	0.903300	0.648000	0.009700
C81	C8	0.819800	0.548000	0.066800
C91	C9	0.561500	0.122000	0.842800
C101	C10	0.666100	0.112200	0.862300
C111	C11	0.744700	0.096700	0.009700
C121	C12	0.728200	0.180200	0.066800
C131	C13	0.122000	0.561500	0.657200
C141	C14	0.112200	0.666100	0.637700
C151	C15	0.096700	0.744700	0.490300
C161	C16	0.180200	0.728200	0.433200
C171	C17	0.438500	0.560500	0.657200
C181	C18	0.333900	0.446100	0.637700
C191	C19	0.255300	0.352000	0.490300
C201	C20	0.271800	0.452000	0.433200
C211	C21	0.439500	0.878000	0.657200
C221	C22	0.553900	0.887800	0.637700
C231	C23	0.648000	0.903300	0.490300
C241	C24	0.548000	0.819800	0.433200
C251	C25	0.439500	0.561500	0.157200
C261	C26	0.553900	0.666100	0.137700
C271	C27	0.648000	0.744700	0.990300
C281	C28	0.548000	0.728200	0.933200
C291	C29	0.122000	0.560500	0.157200
C301	C30	0.112200	0.446100	0.137700
C311	C31	0.096700	0.352000	0.990300
C321	C32	0.180200	0.452000	0.933200
C331	C33	0.438500	0.878000	0.157200
C341	C34	0.333900	0.887800	0.137700
C351	C35	0.255300	0.903300	0.990300
C361	C36	0.271800	0.819800	0.933200
C371	C37	0.878000	0.438500	0.342800
C381	C38	0.887800	0.333900	0.362300
C391	C39	0.903300	0.255300	0.509700
C401	C40	0.819800	0.271800	0.566800
C411	C41	0.561500	0.439500	0.342800
C421	C42	0.666100	0.553900	0.362300
C431	C43	0.744700	0.648000	0.509700
C441	C44	0.728200	0.548000	0.566800
C451	C45	0.560500	0.122000	0.342800
C461	C46	0.446100	0.112200	0.362300
C471	C47	0.352000	0.096700	0.509700
C481	C48	0.452000	0.180200	0.566800
N11	N1	0.388800	0.348600	0.942120
N21	N2	0.959800	0.611200	0.942120
N31	N3	0.651400	0.040200	0.942120
N41	N4	0.040200	0.651400	0.557880
N51	N5	0.348600	0.388800	0.557880
N61	N6	0.611200	0.959800	0.557880
N71	N7	0.611200	0.651400	0.057880
N81	N8	0.040200	0.388800	0.057880
N91	N9	0.348600	0.959800	0.057880
N101	N10	0.959800	0.348600	0.442120
N111	N11	0.651400	0.611200	0.442120
N121	N12	0.388800	0.040200	0.442120
O11	O1	0.597500	0.524000	0.895030
O21	O2	0.614700	0.436400	0.775100
O31	O3	0.547000	0.363100	0.056780
O41	O4	0.438100	0.196300	0.123400
O51	O5	0.926500	0.402500	0.895030
O61	O6	0.821700	0.385300	0.775100
O71	O7	0.816100	0.453000	0.056780
O81	O8	0.758200	0.561900	0.123400
O91	O9	0.476000	0.073500	0.895030
O101	O10	0.563600	0.178300	0.775100
O111	O11	0.636900	0.183900	0.056780
O121	O12	0.803700	0.241800	0.123400
O131	O13	0.073500	0.476000	0.604970
O141	O14	0.178300	0.563600	0.724900
O151	O15	0.183900	0.636900	0.443220
O161	O16	0.241800	0.803700	0.376600
O171	O17	0.524000	0.597500	0.604970
O181	O18	0.436400	0.614700	0.724900
O191	O19	0.363100	0.547000	0.443220
O201	O20	0.196300	0.438100	0.376600
O211	O21	0.402500	0.926500	0.604970
O221	O22	0.385300	0.821700	0.724900
O231	O23	0.453000	0.816100	0.443220
O241	O24	0.561900	0.758200	0.376600
O251	O25	0.402500	0.476000	0.104970
O261	O26	0.385300	0.563600	0.224900
O271	O27	0.453000	0.636900	0.943220
O281	O28	0.561900	0.803700	0.876600
O291	O29	0.073500	0.597500	0.104970
O301	O30	0.178300	0.614700	0.224900
O311	O31	0.183900	0.547000	0.943220
O321	O32	0.241800	0.438100	0.876600
O331	O33	0.524000	0.926500	0.104970
O341	O34	0.436400	0.821700	0.224900
O351	O35	0.363100	0.816100	0.943220
O361	O36	0.196300	0.758200	0.876600
O371	O37	0.926500	0.524000	0.395030
O381	O38	0.821700	0.436400	0.275100
O391	O39	0.816100	0.363100	0.556780
O401	O40	0.758200	0.196300	0.623400
O411	O41	0.476000	0.402500	0.395030
O421	O42	0.563600	0.385300	0.275100
O431	O43	0.636900	0.453000	0.556780
O441	O44	0.803700	0.561900	0.623400
O451	O45	0.597500	0.073500	0.395030
O461	O46	0.614700	0.178300	0.275100
O471	O47	0.547000	0.183900	0.556780
O481	O48	0.438100	0.241800	0.623400
