data_OFESAU_clean_PM
_symmetry_space_group_name_H-M	'P1'
_cell_length_a	13.343000
_cell_length_b	13.343000
_cell_length_c	14.515000
_cell_angle_alpha	90.000000
_cell_angle_beta	90.000000
_cell_angle_gamma	120.000000
_symmetry_Int_Tables_number 1

loop_
_symmetry_equiv_pos_as_xyz
'x,y,z'

loop_
_atom_site_label
_atom_site_type_symbol
_atom_site_fract_x
_atom_site_fract_y
_atom_site_fract_z
Gd11	Gd1	0.666670	0.333340	0.668000
Gd21	Gd2	0.333330	0.666660	0.832000
Gd31	Gd3	0.333330	0.666660	0.332000
Gd41	Gd4	0.666670	0.333340	0.168000
Cu11	Cu1	0.500000	0.500000	0.000000
Cu21	Cu2	0.000000	0.500000	0.000000
Cu31	Cu3	0.500000	0.000000	0.000000
Cu41	Cu4	0.000000	0.500000	0.500000
Cu51	Cu5	0.500000	0.500000	0.500000
Cu61	Cu6	0.500000	0.000000	0.500000
H11	H1	0.326000	0.350100	0.922100
H21	H2	0.457800	0.266700	0.870900
H31	H3	0.397400	0.316000	0.807500
H41	H4	0.292700	0.253900	0.049900
H51	H5	0.317500	0.179600	0.979400
H61	H6	0.024100	0.674000	0.922100
H71	H7	0.808900	0.542200	0.870900
H81	H8	0.918600	0.602600	0.807500
H91	H9	0.961200	0.707300	0.049900
H101	H10	0.862100	0.682500	0.979400
H111	H11	0.649900	0.975900	0.922100
H121	H12	0.733300	0.191100	0.870900
H131	H13	0.684000	0.081400	0.807500
H141	H14	0.746100	0.038800	0.049900
H151	H15	0.820400	0.137900	0.979400
H161	H16	0.975900	0.649900	0.577900
H171	H17	0.191100	0.733300	0.629100
H181	H18	0.081400	0.684000	0.692500
H191	H19	0.038800	0.746100	0.450100
H201	H20	0.137900	0.820400	0.520600
H211	H21	0.350100	0.326000	0.577900
H221	H22	0.266700	0.457800	0.629100
H231	H23	0.316000	0.397400	0.692500
H241	H24	0.253900	0.292700	0.450100
H251	H25	0.179600	0.317500	0.520600
H261	H26	0.674000	0.024100	0.577900
H271	H27	0.542200	0.808900	0.629100
H281	H28	0.602600	0.918600	0.692500
H291	H29	0.707300	0.961200	0.450100
H301	H30	0.682500	0.862100	0.520600
H311	H31	0.674000	0.649900	0.077900
H321	H32	0.542200	0.733300	0.129100
H331	H33	0.602600	0.684000	0.192500
H341	H34	0.707300	0.746100	0.950100
H351	H35	0.682500	0.820400	0.020600
H361	H36	0.975900	0.326000	0.077900
H371	H37	0.191100	0.457800	0.129100
H381	H38	0.081400	0.397400	0.192500
H391	H39	0.038800	0.292700	0.950100
H401	H40	0.137900	0.317500	0.020600
H411	H41	0.350100	0.024100	0.077900
H421	H42	0.266700	0.808900	0.129100
H431	H43	0.316000	0.918600	0.192500
H441	H44	0.253900	0.961200	0.950100
H451	H45	0.179600	0.862100	0.020600
H461	H46	0.024100	0.350100	0.422100
H471	H47	0.808900	0.266700	0.370900
H481	H48	0.918600	0.316000	0.307500
H491	H49	0.961200	0.253900	0.549900
H501	H50	0.862100	0.179600	0.479400
H511	H51	0.649900	0.674000	0.422100
H521	H52	0.733300	0.542200	0.370900
H531	H53	0.684000	0.602600	0.307500
H541	H54	0.746100	0.707300	0.549900
H551	H55	0.820400	0.682500	0.479400
H561	H56	0.326000	0.975900	0.422100
H571	H57	0.457800	0.191100	0.370900
H581	H58	0.397400	0.081400	0.307500
H591	H59	0.292700	0.038800	0.549900
H601	H60	0.317500	0.137900	0.479400
C11	C1	0.562000	0.436600	0.840800
C21	C2	0.447100	0.332700	0.860800
C31	C3	0.351400	0.253800	0.010600
C41	C4	0.452900	0.270100	0.069000
C51	C5	0.874600	0.438000	0.840800
C61	C6	0.885600	0.552900	0.860800
C71	C7	0.902400	0.648600	0.010600
C81	C8	0.817200	0.547100	0.069000
C91	C9	0.563400	0.125400	0.840800
C101	C10	0.667300	0.114400	0.860800
C111	C11	0.746200	0.097600	0.010600
C121	C12	0.729900	0.182800	0.069000
C131	C13	0.125400	0.563400	0.659200
C141	C14	0.114400	0.667300	0.639200
C151	C15	0.097600	0.746200	0.489400
C161	C16	0.182800	0.729900	0.431000
C171	C17	0.436600	0.562000	0.659200
C181	C18	0.332700	0.447100	0.639200
C191	C19	0.253800	0.351400	0.489400
C201	C20	0.270100	0.452900	0.431000
C211	C21	0.438000	0.874600	0.659200
C221	C22	0.552900	0.885600	0.639200
C231	C23	0.648600	0.902400	0.489400
C241	C24	0.547100	0.817200	0.431000
C251	C25	0.438000	0.563400	0.159200
C261	C26	0.552900	0.667300	0.139200
C271	C27	0.648600	0.746200	0.989400
C281	C28	0.547100	0.729900	0.931000
C291	C29	0.125400	0.562000	0.159200
C301	C30	0.114400	0.447100	0.139200
C311	C31	0.097600	0.351400	0.989400
C321	C32	0.182800	0.452900	0.931000
C331	C33	0.436600	0.874600	0.159200
C341	C34	0.332700	0.885600	0.139200
C351	C35	0.253800	0.902400	0.989400
C361	C36	0.270100	0.817200	0.931000
C371	C37	0.874600	0.436600	0.340800
C381	C38	0.885600	0.332700	0.360800
C391	C39	0.902400	0.253800	0.510600
C401	C40	0.817200	0.270100	0.569000
C411	C41	0.563400	0.438000	0.340800
C421	C42	0.667300	0.552900	0.360800
C431	C43	0.746200	0.648600	0.510600
C441	C44	0.729900	0.547100	0.569000
C451	C45	0.562000	0.125400	0.340800
C461	C46	0.447100	0.114400	0.360800
C471	C47	0.351400	0.097600	0.510600
C481	C48	0.452900	0.182800	0.569000
N11	N1	0.389200	0.347200	0.941800
N21	N2	0.958000	0.610800	0.941800
N31	N3	0.652800	0.042000	0.941800
N41	N4	0.042000	0.652800	0.558200
N51	N5	0.347200	0.389200	0.558200
N61	N6	0.610800	0.958000	0.558200
N71	N7	0.610800	0.652800	0.058200
N81	N8	0.042000	0.389200	0.058200
N91	N9	0.347200	0.958000	0.058200
N101	N10	0.958000	0.347200	0.441800
N111	N11	0.652800	0.610800	0.441800
N121	N12	0.389200	0.042000	0.441800
O11	O1	0.598800	0.524100	0.892400
O21	O2	0.617900	0.435200	0.771700
O31	O3	0.549300	0.362100	0.058400
O41	O4	0.439100	0.195200	0.126900
O51	O5	0.925300	0.401200	0.892400
O61	O6	0.817300	0.382100	0.771700
O71	O7	0.812800	0.450700	0.058400
O81	O8	0.756100	0.560900	0.126900
O91	O9	0.475900	0.074700	0.892400
O101	O10	0.564800	0.182700	0.771700
O111	O11	0.637900	0.187200	0.058400
O121	O12	0.804800	0.243900	0.126900
O131	O13	0.074700	0.475900	0.607600
O141	O14	0.182700	0.564800	0.728300
O151	O15	0.187200	0.637900	0.441600
O161	O16	0.243900	0.804800	0.373100
O171	O17	0.524100	0.598800	0.607600
O181	O18	0.435200	0.617900	0.728300
O191	O19	0.362100	0.549300	0.441600
O201	O20	0.195200	0.439100	0.373100
O211	O21	0.401200	0.925300	0.607600
O221	O22	0.382100	0.817300	0.728300
O231	O23	0.450700	0.812800	0.441600
O241	O24	0.560900	0.756100	0.373100
O251	O25	0.401200	0.475900	0.107600
O261	O26	0.382100	0.564800	0.228300
O271	O27	0.450700	0.637900	0.941600
O281	O28	0.560900	0.804800	0.873100
O291	O29	0.074700	0.598800	0.107600
O301	O30	0.182700	0.617900	0.228300
O311	O31	0.187200	0.549300	0.941600
O321	O32	0.243900	0.439100	0.873100
O331	O33	0.524100	0.925300	0.107600
O341	O34	0.435200	0.817300	0.228300
O351	O35	0.362100	0.812800	0.941600
O361	O36	0.195200	0.756100	0.873100
O371	O37	0.925300	0.524100	0.392400
O381	O38	0.817300	0.435200	0.271700
O391	O39	0.812800	0.362100	0.558400
O401	O40	0.756100	0.195200	0.626900
O411	O41	0.475900	0.401200	0.392400
O421	O42	0.564800	0.382100	0.271700
O431	O43	0.637900	0.450700	0.558400
O441	O44	0.804800	0.560900	0.626900
O451	O45	0.598800	0.074700	0.392400
O461	O46	0.617900	0.182700	0.271700
O471	O47	0.549300	0.187200	0.558400
O481	O48	0.439100	0.243900	0.626900
