data_OFOCUI_clean_PM
_symmetry_space_group_name_H-M	'P1'
_cell_length_a	20.269900
_cell_length_b	27.164200
_cell_length_c	27.164200
_cell_angle_alpha	65.971100
_cell_angle_beta	75.597400
_cell_angle_gamma	104.403000
_symmetry_Int_Tables_number 1

loop_
_symmetry_equiv_pos_as_xyz
'x,y,z'

loop_
_atom_site_label
_atom_site_type_symbol
_atom_site_fract_x
_atom_site_fract_y
_atom_site_fract_z
Cu11	Cu1	0.034180	0.292440	0.206140
Cu21	Cu2	0.993630	0.194880	0.307150
Cu31	Cu3	0.267350	0.977730	0.211140
Cu41	Cu4	0.207990	0.974230	0.312760
Cu51	Cu5	0.240320	0.206140	0.501420
Cu61	Cu6	0.300780	0.307150	0.497970
Cu71	Cu7	0.478490	0.211140	0.811130
Cu81	Cu8	0.520750	0.312760	0.713010
Cu91	Cu9	0.741740	0.501420	0.292440
Cu101	Cu10	0.798750	0.497970	0.194880
Cu111	Cu11	0.289620	0.811130	0.977730
Cu121	Cu12	0.233760	0.713010	0.974230
Cu131	Cu13	0.965820	0.707560	0.793860
Cu141	Cu14	0.006370	0.805120	0.692850
Cu151	Cu15	0.732650	0.022270	0.788860
Cu161	Cu16	0.792010	0.025770	0.687240
Cu171	Cu17	0.759680	0.793860	0.498580
Cu181	Cu18	0.699220	0.692850	0.502030
Cu191	Cu19	0.521510	0.788860	0.188870
Cu201	Cu20	0.479250	0.687240	0.286990
Cu211	Cu21	0.258260	0.498580	0.707560
Cu221	Cu22	0.201250	0.502030	0.805120
Cu231	Cu23	0.710380	0.188870	0.022270
Cu241	Cu24	0.766240	0.286990	0.025770
H11	H1	0.130500	0.113700	0.245200
H21	H2	0.250800	0.130800	0.095800
H31	H3	0.156400	0.247200	0.097600
H41	H4	0.330300	0.244900	0.927600
H51	H5	0.365100	0.379300	0.772200
H61	H6	0.216300	0.347600	0.925600
H71	H7	0.154000	0.260600	0.366900
H81	H8	0.276200	0.411800	0.346800
H91	H9	0.193100	0.413300	0.229200
H101	H10	0.344400	0.582300	0.236800
H111	H11	0.380200	0.736700	0.110100
H121	H12	0.261800	0.589600	0.117800
H131	H13	0.375700	0.245200	0.641100
H141	H14	0.346600	0.095800	0.773400
H151	H15	0.254000	0.097600	0.655200
H161	H16	0.257900	0.927600	0.827500
H171	H17	0.137300	0.772200	0.848500
H181	H18	0.141900	0.925600	0.726800
H191	H19	0.520900	0.366900	0.372500
H201	H20	0.623000	0.346800	0.241400
H211	H21	0.422300	0.229200	0.357500
H221	H22	0.581200	0.236800	0.180900
H231	H23	0.490300	0.110100	0.153200
H241	H24	0.379600	0.117800	0.292600
H251	H25	0.016800	0.641100	0.113700
H261	H26	0.120000	0.773400	0.130800
H271	H27	0.909200	0.655200	0.247200
H281	H28	0.085400	0.827500	0.244900
H291	H29	0.985800	0.848500	0.379300
H301	H30	0.868700	0.726800	0.347600
H311	H31	0.893400	0.372500	0.260600
H321	H32	0.864400	0.241400	0.411800
H331	H33	0.779800	0.357500	0.413300
H341	H34	0.762100	0.180900	0.582300
H351	H35	0.643500	0.153200	0.736700
H361	H36	0.672200	0.292600	0.589600
H371	H37	0.869500	0.886300	0.754800
H381	H38	0.749200	0.869200	0.904200
H391	H39	0.843600	0.752800	0.902400
H401	H40	0.669700	0.755100	0.072400
H411	H41	0.634900	0.620700	0.227800
H421	H42	0.783700	0.652400	0.074400
H431	H43	0.846000	0.739400	0.633100
H441	H44	0.723800	0.588200	0.653200
H451	H45	0.806900	0.586700	0.770800
H461	H46	0.655600	0.417700	0.763200
H471	H47	0.619800	0.263300	0.889900
H481	H48	0.738200	0.410400	0.882200
H491	H49	0.624300	0.754800	0.358900
H501	H50	0.653400	0.904200	0.226600
H511	H51	0.746000	0.902400	0.344800
H521	H52	0.742100	0.072400	0.172500
H531	H53	0.862700	0.227800	0.151500
H541	H54	0.858100	0.074400	0.273200
H551	H55	0.479100	0.633100	0.627500
H561	H56	0.377000	0.653200	0.758600
H571	H57	0.577700	0.770800	0.642500
H581	H58	0.418800	0.763200	0.819100
H591	H59	0.509700	0.889900	0.846800
H601	H60	0.620400	0.882200	0.707400
H611	H61	0.983200	0.358900	0.886300
H621	H62	0.880000	0.226600	0.869200
H631	H63	0.090800	0.344800	0.752800
H641	H64	0.914600	0.172500	0.755100
H651	H65	0.014200	0.151500	0.620700
H661	H66	0.131300	0.273200	0.652400
H671	H67	0.106600	0.627500	0.739400
H681	H68	0.135600	0.758600	0.588200
H691	H69	0.220200	0.642500	0.586700
H701	H70	0.237900	0.819100	0.417700
H711	H71	0.356500	0.846800	0.263300
H721	H72	0.327800	0.707400	0.410400
C11	C1	0.101800	0.210700	0.206600
C21	C2	0.145600	0.186100	0.176900
C31	C3	0.154000	0.135300	0.204700
C41	C4	0.194100	0.114300	0.177700
C51	C5	0.201900	0.057900	0.209500
C61	C6	0.224100	0.144400	0.116600
C71	C7	0.213000	0.194500	0.088100
C81	C8	0.168500	0.215900	0.117300
C91	C9	0.276700	0.293600	0.938500
C101	C10	0.320200	0.276700	0.906000
C111	C11	0.352500	0.302300	0.841900
C121	C12	0.409300	0.293300	0.808300
C131	C13	0.339200	0.355200	0.812600
C141	C14	0.288200	0.372200	0.842800
C151	C15	0.269300	0.424400	0.813400
C161	C16	0.253100	0.339700	0.905700
C171	C17	0.117600	0.301200	0.276400
C181	C18	0.165900	0.334800	0.293800
C191	C19	0.177200	0.301400	0.345000
C201	C20	0.223200	0.332200	0.359900
C211	C21	0.239000	0.311900	0.416700
C221	C22	0.248900	0.391400	0.333300
C231	C23	0.233300	0.420100	0.285800
C241	C24	0.196800	0.392300	0.264600
C251	C25	0.300400	0.574600	0.179900
C261	C26	0.340100	0.604700	0.202200
C271	C27	0.372700	0.664400	0.176400
C281	C28	0.420700	0.695900	0.198900
C291	C29	0.360100	0.695900	0.128400
C301	C30	0.314200	0.666500	0.103800
C311	C31	0.305100	0.709100	0.049200
C321	C32	0.289500	0.608900	0.132000
C331	C33	0.308400	0.206600	0.582700
C341	C34	0.322500	0.176900	0.637000
C351	C35	0.358700	0.204700	0.660000
C361	C36	0.371800	0.177700	0.708000
C371	C37	0.411400	0.209500	0.732600
C381	C38	0.340700	0.116600	0.739000
C391	C39	0.301100	0.088100	0.717400
C401	C40	0.285800	0.117300	0.666800
C411	C41	0.215200	0.938500	0.767900
C421	C42	0.226200	0.906000	0.817300
C431	C43	0.194400	0.841900	0.855800
C441	C44	0.217600	0.808300	0.898400
C451	C45	0.151800	0.812600	0.832200
C461	C46	0.131000	0.842800	0.785000
C471	C47	0.082700	0.813400	0.762200
C481	C48	0.158800	0.905700	0.754600
C491	C49	0.394000	0.276400	0.422400
C501	C50	0.459700	0.293800	0.371400
C511	C51	0.522200	0.345000	0.353600
C521	C52	0.583100	0.359900	0.307900
C531	C53	0.655700	0.416700	0.271400
C541	C54	0.582200	0.333300	0.275300
C551	C55	0.519100	0.285800	0.294100
C561	C56	0.461400	0.264600	0.343100
C571	C57	0.480300	0.179900	0.245500
C581	C58	0.542300	0.202200	0.193100
C591	C59	0.549100	0.176400	0.159200
C601	C60	0.619600	0.198900	0.105200
C611	C61	0.488500	0.128400	0.175700
C621	C62	0.418000	0.103800	0.229700
C631	C63	0.354300	0.049200	0.241700
C641	C64	0.421500	0.132000	0.259100
C651	C65	0.891100	0.582700	0.210700
C661	C66	0.959500	0.637000	0.186100
C671	C67	0.018700	0.660000	0.135300
C681	C68	0.079800	0.708000	0.114300
C691	C69	0.144000	0.732600	0.057900
C701	C70	0.079700	0.739000	0.144400
C711	C71	0.018500	0.717400	0.194500
C721	C72	0.952600	0.666800	0.215900
C731	C73	0.983100	0.767900	0.293600
C741	C74	0.043500	0.817300	0.276700
C751	C75	0.050200	0.855800	0.302300
C761	C76	0.116000	0.898400	0.293300
C771	C77	0.984000	0.832200	0.355200
C781	C78	0.916000	0.785000	0.372200
C791	C79	0.844900	0.762200	0.424400
C801	C80	0.913400	0.754600	0.339700
C811	C81	0.816400	0.422400	0.301200
C821	C82	0.831100	0.371400	0.334800
C831	C83	0.875800	0.353600	0.301400
C841	C84	0.891000	0.307900	0.332200
C851	C85	0.927100	0.271400	0.311900
C861	C86	0.857500	0.275300	0.391400
C871	C87	0.813200	0.294100	0.420100
C881	C88	0.804500	0.343100	0.392300
C891	C89	0.725800	0.245500	0.574600
C901	C90	0.735400	0.193100	0.604700
C911	C91	0.708300	0.159200	0.664400
C921	C92	0.724800	0.105200	0.695900
C931	C93	0.664200	0.175700	0.695900
C941	C94	0.647700	0.229700	0.666500
C951	C95	0.596000	0.241700	0.709100
C961	C96	0.680600	0.259100	0.608900
C971	C97	0.898200	0.789300	0.793400
C981	C98	0.854400	0.813900	0.823100
C991	C99	0.846000	0.864700	0.795300
C1001	C100	0.805900	0.885700	0.822300
C1011	C101	0.798100	0.942100	0.790500
C1021	C102	0.775900	0.855600	0.883400
C1031	C103	0.787000	0.805500	0.911900
C1041	C104	0.831500	0.784100	0.882700
C1051	C105	0.723300	0.706400	0.061500
C1061	C106	0.679800	0.723300	0.094000
C1071	C107	0.647500	0.697700	0.158100
C1081	C108	0.590700	0.706700	0.191700
C1091	C109	0.660800	0.644800	0.187400
C1101	C110	0.711800	0.627800	0.157200
C1111	C111	0.730700	0.575600	0.186600
C1121	C112	0.746900	0.660300	0.094300
C1131	C113	0.882400	0.698800	0.723600
C1141	C114	0.834100	0.665200	0.706200
C1151	C115	0.822800	0.698600	0.655000
C1161	C116	0.776800	0.667800	0.640100
C1171	C117	0.761000	0.688100	0.583300
C1181	C118	0.751100	0.608600	0.666700
C1191	C119	0.766700	0.579900	0.714200
C1201	C120	0.803200	0.607700	0.735400
C1211	C121	0.699600	0.425400	0.820100
C1221	C122	0.659900	0.395300	0.797800
C1231	C123	0.627300	0.335600	0.823600
C1241	C124	0.579300	0.304100	0.801100
C1251	C125	0.639900	0.304100	0.871600
C1261	C126	0.685800	0.333500	0.896200
C1271	C127	0.694900	0.290900	0.950800
C1281	C128	0.710500	0.391100	0.868000
C1291	C129	0.691600	0.793400	0.417300
C1301	C130	0.677500	0.823100	0.363000
C1311	C131	0.641300	0.795300	0.340000
C1321	C132	0.628200	0.822300	0.292000
C1331	C133	0.588600	0.790500	0.267400
C1341	C134	0.659300	0.883400	0.261000
C1351	C135	0.698900	0.911900	0.282600
C1361	C136	0.714200	0.882700	0.333200
C1371	C137	0.784800	0.061500	0.232100
C1381	C138	0.773800	0.094000	0.182700
C1391	C139	0.805600	0.158100	0.144200
C1401	C140	0.782400	0.191700	0.101600
C1411	C141	0.848200	0.187400	0.167800
C1421	C142	0.869000	0.157200	0.215000
C1431	C143	0.917300	0.186600	0.237800
C1441	C144	0.841200	0.094300	0.245400
C1451	C145	0.606000	0.723600	0.577600
C1461	C146	0.540300	0.706200	0.628600
C1471	C147	0.477800	0.655000	0.646400
C1481	C148	0.416900	0.640100	0.692100
C1491	C149	0.344300	0.583300	0.728600
C1501	C150	0.417800	0.666700	0.724700
C1511	C151	0.480900	0.714200	0.705900
C1521	C152	0.538600	0.735400	0.656900
C1531	C153	0.519700	0.820100	0.754500
C1541	C154	0.457700	0.797800	0.806900
C1551	C155	0.450900	0.823600	0.840800
C1561	C156	0.380400	0.801100	0.894800
C1571	C157	0.511500	0.871600	0.824300
C1581	C158	0.582000	0.896200	0.770300
C1591	C159	0.645700	0.950800	0.758300
C1601	C160	0.578500	0.868000	0.740900
C1611	C161	0.108900	0.417300	0.789300
C1621	C162	0.040500	0.363000	0.813900
C1631	C163	0.981300	0.340000	0.864700
C1641	C164	0.920200	0.292000	0.885700
C1651	C165	0.856000	0.267400	0.942100
C1661	C166	0.920300	0.261000	0.855600
C1671	C167	0.981500	0.282600	0.805500
C1681	C168	0.047400	0.333200	0.784100
C1691	C169	0.016900	0.232100	0.706400
C1701	C170	0.956500	0.182700	0.723300
C1711	C171	0.949800	0.144200	0.697700
C1721	C172	0.884000	0.101600	0.706700
C1731	C173	0.016000	0.167800	0.644800
C1741	C174	0.084000	0.215000	0.627800
C1751	C175	0.155100	0.237800	0.575600
C1761	C176	0.086600	0.245400	0.660300
C1771	C177	0.183600	0.577600	0.698800
C1781	C178	0.168900	0.628600	0.665200
C1791	C179	0.124200	0.646400	0.698600
C1801	C180	0.109000	0.692100	0.667800
C1811	C181	0.072900	0.728600	0.688100
C1821	C182	0.142500	0.724700	0.608600
C1831	C183	0.186800	0.705900	0.579900
C1841	C184	0.195500	0.656900	0.607700
C1851	C185	0.274200	0.754500	0.425400
C1861	C186	0.264600	0.806900	0.395300
C1871	C187	0.291700	0.840800	0.335600
C1881	C188	0.275200	0.894800	0.304100
C1891	C189	0.335800	0.824300	0.304100
C1901	C190	0.352300	0.770300	0.333500
C1911	C191	0.404000	0.758300	0.290900
C1921	C192	0.319400	0.740900	0.391100
N11	N1	0.251900	0.223500	0.022900
N21	N2	0.236900	0.268100	0.998200
N31	N3	0.275900	0.488100	0.250300
N41	N4	0.259800	0.515200	0.209600
N51	N5	0.274800	0.022900	0.753600
N61	N6	0.235100	0.998200	0.733700
N71	N7	0.526200	0.250300	0.261600
N81	N8	0.469400	0.209600	0.275200
N91	N9	0.028400	0.753600	0.223500
N101	N10	0.968800	0.733700	0.268100
N111	N11	0.787800	0.261600	0.488100
N121	N12	0.744600	0.275200	0.515200
N131	N13	0.748100	0.776500	0.977100
N141	N14	0.763100	0.731900	0.001800
N151	N15	0.724100	0.511900	0.749700
N161	N16	0.740200	0.484800	0.790400
N171	N17	0.725200	0.977100	0.246400
N181	N18	0.764900	0.001800	0.266300
N191	N19	0.473800	0.749700	0.738400
N201	N20	0.530600	0.790400	0.724800
N211	N21	0.971600	0.246400	0.776500
N221	N22	0.031200	0.266300	0.731900
N231	N23	0.212200	0.738400	0.511900
N241	N24	0.255400	0.724800	0.484800
O11	O1	0.099120	0.258420	0.177460
O21	O2	0.062700	0.173450	0.261750
O31	O3	0.236560	0.037310	0.183930
O41	O4	0.188960	0.037020	0.264940
O51	O5	0.409080	0.242910	0.841070
O61	O6	0.442530	0.324950	0.756760
O71	O7	0.283440	0.437080	0.755460
O81	O8	0.240120	0.444050	0.837790
O91	O9	0.107790	0.327500	0.232530
O101	O10	0.076730	0.244170	0.315880
O111	O11	0.214070	0.254370	0.435460
O121	O12	0.275480	0.331210	0.436370
O131	O13	0.416080	0.661800	0.246760
O141	O14	0.450600	0.750890	0.166890
O151	O15	0.310200	0.761100	0.037600
O161	O16	0.270310	0.677160	0.033130
O171	O17	0.276580	0.177460	0.564120
O181	O18	0.324450	0.261750	0.564800
O191	O19	0.420490	0.183930	0.778760
O201	O20	0.453900	0.264940	0.698040
O211	O21	0.250150	0.841070	0.916020
O221	O22	0.199290	0.756760	0.918290
O231	O23	0.038900	0.755460	0.807460
O241	O24	0.077910	0.837790	0.718160
O251	O25	0.340320	0.232530	0.439970
O261	O26	0.392610	0.315880	0.439950
O271	O27	0.649530	0.435460	0.310170
O281	O28	0.711850	0.436370	0.232420
O291	O29	0.662840	0.246760	0.091440
O301	O30	0.617490	0.166890	0.082220
O311	O31	0.347800	0.037600	0.201300
O321	O32	0.303440	0.033130	0.289710
O331	O33	0.840700	0.564120	0.258420
O341	O34	0.889250	0.564800	0.173450
O351	O35	0.199250	0.778760	0.037310
O361	O36	0.151940	0.698040	0.037020
O371	O37	0.166170	0.916020	0.242910
O381	O38	0.117580	0.918290	0.324950
O391	O39	0.846360	0.807460	0.437080
O401	O40	0.796070	0.718160	0.444050
O411	O41	0.780290	0.439970	0.327500
O421	O42	0.832560	0.439950	0.244170
O431	O43	0.959700	0.310170	0.254370
O441	O44	0.944270	0.232420	0.331210
O451	O45	0.754280	0.091440	0.661800
O461	O46	0.699710	0.082220	0.750890
O471	O47	0.549100	0.201300	0.761100
O481	O48	0.593150	0.289710	0.677160
O491	O49	0.900880	0.741580	0.822540
O501	O50	0.937300	0.826550	0.738250
O511	O51	0.763440	0.962690	0.816070
O521	O52	0.811040	0.962980	0.735060
O531	O53	0.590920	0.757090	0.158930
O541	O54	0.557470	0.675050	0.243240
O551	O55	0.716560	0.562920	0.244540
O561	O56	0.759880	0.555950	0.162210
O571	O57	0.892210	0.672500	0.767470
O581	O58	0.923270	0.755830	0.684120
O591	O59	0.785930	0.745630	0.564540
O601	O60	0.724520	0.668790	0.563630
O611	O61	0.583920	0.338200	0.753240
O621	O62	0.549400	0.249110	0.833110
O631	O63	0.689800	0.238900	0.962400
O641	O64	0.729690	0.322840	0.966870
O651	O65	0.723420	0.822540	0.435880
O661	O66	0.675550	0.738250	0.435200
O671	O67	0.579510	0.816070	0.221240
O681	O68	0.546100	0.735060	0.301960
O691	O69	0.749850	0.158930	0.083980
O701	O70	0.800710	0.243240	0.081710
O711	O71	0.961100	0.244540	0.192540
O721	O72	0.922090	0.162210	0.281840
O731	O73	0.659680	0.767470	0.560030
O741	O74	0.607390	0.684120	0.560050
O751	O75	0.350470	0.564540	0.689830
O761	O76	0.288150	0.563630	0.767580
O771	O77	0.337160	0.753240	0.908560
O781	O78	0.382510	0.833110	0.917780
O791	O79	0.652200	0.962400	0.798700
O801	O80	0.696560	0.966870	0.710290
O811	O81	0.159300	0.435880	0.741580
O821	O82	0.110750	0.435200	0.826550
O831	O83	0.800750	0.221240	0.962690
O841	O84	0.848060	0.301960	0.962980
O851	O85	0.833830	0.083980	0.757090
O861	O86	0.882420	0.081710	0.675050
O871	O87	0.153640	0.192540	0.562920
O881	O88	0.203930	0.281840	0.555950
O891	O89	0.219710	0.560030	0.672500
O901	O90	0.167440	0.560050	0.755830
O911	O91	0.040300	0.689830	0.745630
O921	O92	0.055730	0.767580	0.668790
O931	O93	0.245720	0.908560	0.338200
O941	O94	0.300290	0.917780	0.249110
O951	O95	0.450900	0.798700	0.238900
O961	O96	0.406850	0.710290	0.322840
