data_OFODET_clean_PM
_symmetry_space_group_name_H-M	'P1'
_cell_length_a	9.667700
_cell_length_b	11.366700
_cell_length_c	22.105600
_cell_angle_alpha	90.000000
_cell_angle_beta	90.000000
_cell_angle_gamma	102.986000
_symmetry_Int_Tables_number 1

loop_
_symmetry_equiv_pos_as_xyz
'x,y,z'

loop_
_atom_site_label
_atom_site_type_symbol
_atom_site_fract_x
_atom_site_fract_y
_atom_site_fract_z
Mn11	Mn1	0.259970	0.260080	0.405120
Mn21	Mn2	0.240030	0.739920	0.905120
Mn31	Mn3	0.740030	0.739920	0.594880
Mn41	Mn4	0.759970	0.260080	0.094880
H11	H1	0.803000	0.456000	0.982600
H21	H2	0.154000	0.077000	0.816300
H31	H3	0.928000	0.335000	0.509200
H41	H4	0.072000	0.171000	0.647700
H51	H5	0.065000	0.157800	0.983700
H61	H6	0.838000	0.414000	0.679000
H71	H7	0.929000	0.330000	0.844300
H81	H8	0.283000	0.955000	0.012000
H91	H9	0.697000	0.544000	0.482600
H101	H10	0.346000	0.923000	0.316300
H111	H11	0.572000	0.665000	0.009200
H121	H12	0.428000	0.829000	0.147700
H131	H13	0.435000	0.842200	0.483700
H141	H14	0.662000	0.586000	0.179000
H151	H15	0.571000	0.670000	0.344300
H161	H16	0.217000	0.045000	0.512000
H171	H17	0.197000	0.544000	0.017400
H181	H18	0.846000	0.923000	0.183700
H191	H19	0.072000	0.665000	0.490800
H201	H20	0.928000	0.829000	0.352300
H211	H21	0.935000	0.842200	0.016300
H221	H22	0.162000	0.586000	0.321000
H231	H23	0.071000	0.670000	0.155700
H241	H24	0.717000	0.045000	0.988000
H251	H25	0.303000	0.456000	0.517400
H261	H26	0.654000	0.077000	0.683700
H271	H27	0.428000	0.335000	0.990800
H281	H28	0.572000	0.171000	0.852300
H291	H29	0.565000	0.157800	0.516300
H301	H30	0.338000	0.414000	0.821000
H311	H31	0.429000	0.330000	0.655700
H321	H32	0.783000	0.955000	0.488000
C11	C1	0.792300	0.481800	0.565580
C21	C2	0.867500	0.388300	0.589050
C31	C3	0.932200	0.323800	0.549260
C41	C4	0.009800	0.242900	0.570200
C51	C5	0.086500	0.181000	0.525550
C61	C6	0.020800	0.225500	0.631950
C71	C7	0.955600	0.290100	0.672420
C81	C8	0.879400	0.370900	0.650790
C91	C9	0.041800	0.205100	0.820480
C101	C10	0.979700	0.273600	0.860200
C111	C11	0.986100	0.254600	0.921750
C121	C12	0.912600	0.319600	0.966350
C131	C13	0.057100	0.169500	0.943690
C141	C14	0.119500	0.101800	0.904900
C151	C15	0.191900	0.007700	0.929230
C161	C16	0.112100	0.120300	0.843150
C171	C17	0.707700	0.518200	0.065580
C181	C18	0.632500	0.611700	0.089050
C191	C19	0.567800	0.676200	0.049260
C201	C20	0.490200	0.757100	0.070200
C211	C21	0.413500	0.819000	0.025550
C221	C22	0.479200	0.774500	0.131950
C231	C23	0.544400	0.709900	0.172420
C241	C24	0.620600	0.629100	0.150790
C251	C25	0.458200	0.794900	0.320480
C261	C26	0.520300	0.726400	0.360200
C271	C27	0.513900	0.745400	0.421750
C281	C28	0.587400	0.680400	0.466350
C291	C29	0.442900	0.830500	0.443690
C301	C30	0.380500	0.898200	0.404900
C311	C31	0.308100	0.992300	0.429230
C321	C32	0.387900	0.879700	0.343150
C331	C33	0.207700	0.518200	0.434420
C341	C34	0.132500	0.611700	0.410950
C351	C35	0.067800	0.676200	0.450740
C361	C36	0.990200	0.757100	0.429800
C371	C37	0.913500	0.819000	0.474450
C381	C38	0.979200	0.774500	0.368050
C391	C39	0.044400	0.709900	0.327580
C401	C40	0.120600	0.629100	0.349210
C411	C41	0.958200	0.794900	0.179520
C421	C42	0.020300	0.726400	0.139800
C431	C43	0.013900	0.745400	0.078250
C441	C44	0.087400	0.680400	0.033650
C451	C45	0.942900	0.830500	0.056310
C461	C46	0.880500	0.898200	0.095100
C471	C47	0.808100	0.992300	0.070770
C481	C48	0.887900	0.879700	0.156850
C491	C49	0.292300	0.481800	0.934420
C501	C50	0.367500	0.388300	0.910950
C511	C51	0.432200	0.323800	0.950740
C521	C52	0.509800	0.242900	0.929800
C531	C53	0.586500	0.181000	0.974450
C541	C54	0.520800	0.225500	0.868050
C551	C55	0.455600	0.290100	0.827580
C561	C56	0.379400	0.370900	0.849210
C571	C57	0.541800	0.205100	0.679520
C581	C58	0.479700	0.273600	0.639800
C591	C59	0.486100	0.254600	0.578250
C601	C60	0.412600	0.319600	0.533650
C611	C61	0.557100	0.169500	0.556310
C621	C62	0.619500	0.101800	0.595100
C631	C63	0.691900	0.007700	0.570770
C641	C64	0.612100	0.120300	0.656850
N11	N1	0.961800	0.281200	0.736630
N21	N2	0.036800	0.213700	0.755930
N31	N3	0.538200	0.718800	0.236630
N41	N4	0.463200	0.786300	0.255930
N51	N5	0.038200	0.718800	0.263370
N61	N6	0.963200	0.786300	0.244070
N71	N7	0.461800	0.281200	0.763370
N81	N8	0.536800	0.213700	0.744070
O11	O1	0.771900	0.560080	0.601040
O21	O2	0.757300	0.472320	0.509980
O31	O3	0.091300	0.214000	0.471820
O41	O4	0.143900	0.099470	0.546130
O51	O5	0.857700	0.403000	0.945070
O61	O6	0.907700	0.288250	0.020050
O71	O7	0.228500	0.021170	0.984690
O81	O8	0.209600	0.925530	0.895880
O91	O9	0.728100	0.439920	0.101040
O101	O10	0.742700	0.527680	0.009980
O111	O11	0.408700	0.786000	0.971820
O121	O12	0.356100	0.900530	0.046130
O131	O13	0.642300	0.597000	0.445070
O141	O14	0.592300	0.711750	0.520050
O151	O15	0.271500	0.978830	0.484690
O161	O16	0.290400	0.074470	0.395880
O171	O17	0.228100	0.439920	0.398960
O181	O18	0.242700	0.527680	0.490020
O191	O19	0.908700	0.786000	0.528180
O201	O20	0.856100	0.900530	0.453870
O211	O21	0.142300	0.597000	0.054930
O221	O22	0.092300	0.711750	0.979950
O231	O23	0.771500	0.978830	0.015310
O241	O24	0.790400	0.074470	0.104120
O251	O25	0.271900	0.560080	0.898960
O261	O26	0.257300	0.472320	0.990020
O271	O27	0.591300	0.214000	0.028180
O281	O28	0.643900	0.099470	0.953870
O291	O29	0.357700	0.403000	0.554930
O301	O30	0.407700	0.288250	0.479950
O311	O31	0.728500	0.021170	0.515310
O321	O32	0.709600	0.925530	0.604120
