data_OFUSEP_clean_PM
_symmetry_space_group_name_H-M	'P1'
_cell_length_a	9.547500
_cell_length_b	11.440000
_cell_length_c	13.209200
_cell_angle_alpha	90.000000
_cell_angle_beta	109.974000
_cell_angle_gamma	90.000000
_symmetry_Int_Tables_number 1

loop_
_symmetry_equiv_pos_as_xyz
'x,y,z'

loop_
_atom_site_label
_atom_site_type_symbol
_atom_site_fract_x
_atom_site_fract_y
_atom_site_fract_z
Ag11	Ag1	0.983250	0.278360	0.627280
Ag21	Ag2	0.447410	0.220080	0.855470
Ag31	Ag3	0.413680	0.729800	0.393740
Ag41	Ag4	0.070820	0.147020	0.913830
Ag51	Ag5	0.016750	0.778360	0.372720
Ag61	Ag6	0.552590	0.720080	0.144530
Ag71	Ag7	0.586320	0.229800	0.606260
Ag81	Ag8	0.929180	0.647020	0.086170
P11	P1	0.197360	0.448980	0.885940
P21	P2	0.188290	0.480410	0.384410
P31	P3	0.802640	0.948980	0.114060
P41	P4	0.811710	0.980410	0.615590
H11	H1	0.041600	0.550200	0.734400
H21	H2	0.212500	0.562600	0.741800
H31	H3	0.452200	0.499000	0.943800
H41	H4	0.409600	0.450100	0.043600
H51	H5	0.094600	0.425300	0.023500
H61	H6	0.966300	0.461400	0.913000
H71	H7	0.271100	0.570500	0.125600
H81	H8	0.245500	0.706500	0.097600
H91	H9	0.048100	0.763400	0.924700
H101	H10	0.949700	0.662700	0.849800
H111	H11	0.376300	0.690800	0.874700
H121	H12	0.310900	0.782300	0.938500
H131	H13	0.979800	0.470400	0.440900
H141	H14	0.125300	0.506100	0.540500
H151	H15	0.420600	0.481100	0.526200
H161	H16	0.440500	0.430300	0.418500
H171	H17	0.175500	0.362600	0.236800
H181	H18	0.013100	0.375700	0.246400
H191	H19	0.279000	0.225700	0.603000
H201	H20	0.309100	0.361800	0.628200
H211	H21	0.949000	0.266600	0.377200
H221	H22	0.056500	0.166600	0.446400
H231	H23	0.306300	0.146000	0.432900
H241	H24	0.354500	0.234700	0.357200
H251	H25	0.958400	0.050200	0.265600
H261	H26	0.787500	0.062600	0.258200
H271	H27	0.547800	0.999000	0.056200
H281	H28	0.590400	0.950100	0.956400
H291	H29	0.905400	0.925300	0.976500
H301	H30	0.033700	0.961400	0.087000
H311	H31	0.728900	0.070500	0.874400
H321	H32	0.754500	0.206500	0.902400
H331	H33	0.951900	0.263400	0.075300
H341	H34	0.050300	0.162700	0.150200
H351	H35	0.623700	0.190800	0.125300
H361	H36	0.689100	0.282300	0.061500
H371	H37	0.020200	0.970400	0.559100
H381	H38	0.874700	0.006100	0.459500
H391	H39	0.579400	0.981100	0.473800
H401	H40	0.559500	0.930300	0.581500
H411	H41	0.824500	0.862600	0.763200
H421	H42	0.986900	0.875700	0.753600
H431	H43	0.721000	0.725700	0.397000
H441	H44	0.690900	0.861800	0.371800
H451	H45	0.051000	0.766600	0.622800
H461	H46	0.943500	0.666600	0.553600
H471	H47	0.693700	0.646000	0.567100
H481	H48	0.645500	0.734700	0.642800
C11	C1	0.144700	0.563000	0.784200
C21	C2	0.375800	0.500700	0.979000
C31	C3	0.070300	0.477100	0.959700
C41	C4	0.242400	0.627800	0.065800
C51	C5	0.050700	0.682000	0.899900
C61	C6	0.305700	0.700000	0.914300
C71	C7	0.087200	0.454000	0.477100
C81	C8	0.375900	0.429300	0.463300
C91	C9	0.120100	0.363500	0.287900
C101	C10	0.269900	0.304000	0.569500
C111	C11	0.054000	0.247300	0.418700
C121	C12	0.296700	0.227600	0.406500
C131	C13	0.855300	0.063000	0.215800
C141	C14	0.624200	0.000700	0.021000
C151	C15	0.929700	0.977100	0.040300
C161	C16	0.757600	0.127800	0.934200
C171	C17	0.949300	0.182000	0.100100
C181	C18	0.694300	0.200000	0.085700
C191	C19	0.912800	0.954000	0.522900
C201	C20	0.624100	0.929300	0.536700
C211	C21	0.879900	0.863500	0.712100
C221	C22	0.730100	0.804000	0.430500
C231	C23	0.946000	0.747300	0.581300
C241	C24	0.703300	0.727600	0.593500
S11	S1	0.190450	0.285960	0.827190
S21	S2	0.169970	0.635890	0.311110
S31	S3	0.809550	0.785960	0.172810
S41	S4	0.830030	0.135890	0.688890
N11	N1	0.155400	0.675900	0.841100
N21	N2	0.353300	0.622900	0.010030
N31	N3	0.086800	0.602800	0.994500
N41	N4	0.109300	0.329000	0.511780
N51	N5	0.362800	0.307500	0.500300
N61	N6	0.140900	0.251500	0.346600
N71	N7	0.844600	0.175900	0.158900
N81	N8	0.646700	0.122900	0.989970
N91	N9	0.913200	0.102800	0.005500
N101	N10	0.890700	0.829000	0.488220
N111	N11	0.637200	0.807500	0.499700
N121	N12	0.859100	0.751500	0.653400
