data_OGEBAF01_clean_PM
_symmetry_space_group_name_H-M	'P1'
_cell_length_a	18.802800
_cell_length_b	18.802800
_cell_length_c	51.883000
_cell_angle_alpha	90.000000
_cell_angle_beta	90.000000
_cell_angle_gamma	120.000000
_symmetry_Int_Tables_number 1

loop_
_symmetry_equiv_pos_as_xyz
'x,y,z'

loop_
_atom_site_label
_atom_site_type_symbol
_atom_site_fract_x
_atom_site_fract_y
_atom_site_fract_z
Cu11	Cu1	0.045860	0.522930	0.021200
Cu21	Cu2	0.522930	0.477070	0.521200
Cu31	Cu3	0.880180	0.940090	0.250000
Cu41	Cu4	0.477070	0.522930	0.478800
Cu51	Cu5	0.940090	0.880180	0.750000
Cu61	Cu6	0.477070	0.522930	0.021200
Cu71	Cu7	0.954140	0.477070	0.978800
Cu81	Cu8	0.522930	0.045860	0.521200
Cu91	Cu9	0.522930	0.477070	0.978800
Cu101	Cu10	0.059910	0.119820	0.250000
Cu111	Cu11	0.940090	0.059910	0.750000
Cu121	Cu12	0.045860	0.522930	0.478800
Cu131	Cu13	0.477070	0.954140	0.478800
Cu141	Cu14	0.954140	0.477070	0.521200
Cu151	Cu15	0.477070	0.954140	0.021200
Cu161	Cu16	0.059910	0.940090	0.250000
Cu171	Cu17	0.119820	0.059910	0.750000
Cu181	Cu18	0.522930	0.045860	0.978800
H11	H1	0.086700	0.385300	0.935900
H21	H2	0.235200	0.764800	0.503100
H31	H3	0.996500	0.793900	0.816400
H41	H4	0.385300	0.298600	0.064100
H51	H5	0.238100	0.261500	0.857300
H61	H6	0.206100	0.202600	0.683600
H71	H7	0.261500	0.238100	0.142700
H81	H8	0.976600	0.738500	0.357300
H91	H9	0.701400	0.614700	0.435900
H101	H10	0.614700	0.701400	0.564100
H111	H11	0.738500	0.761900	0.857300
H121	H12	0.238100	0.976600	0.857300
H131	H13	0.913300	0.298600	0.064100
H141	H14	0.235200	0.764800	0.996900
H151	H15	0.793900	0.797400	0.316400
H161	H16	0.086700	0.385300	0.564100
H171	H17	0.261500	0.238100	0.357300
H181	H18	0.996500	0.202600	0.816400
H191	H19	0.614700	0.913300	0.564100
H201	H20	0.913300	0.298600	0.435900
H211	H21	0.298600	0.385300	0.935900
H221	H22	0.298600	0.913300	0.564100
H231	H23	0.701400	0.614700	0.064100
H241	H24	0.298600	0.913300	0.935900
H251	H25	0.976600	0.738500	0.142700
H261	H26	0.086700	0.701400	0.935900
H271	H27	0.385300	0.298600	0.435900
H281	H28	0.761900	0.738500	0.357300
H291	H29	0.003500	0.797400	0.316400
H301	H30	0.003500	0.206100	0.183600
H311	H31	0.298600	0.385300	0.564100
H321	H32	0.793900	0.797400	0.183600
H331	H33	0.996500	0.793900	0.683600
H341	H34	0.738500	0.976600	0.857300
H351	H35	0.797400	0.793900	0.816400
H361	H36	0.797400	0.793900	0.683600
H371	H37	0.996500	0.202600	0.683600
H381	H38	0.764800	0.235200	0.496900
H391	H39	0.614700	0.913300	0.935900
H401	H40	0.793900	0.996500	0.316400
H411	H41	0.023400	0.261500	0.642700
H421	H42	0.385300	0.086700	0.064100
H431	H43	0.529600	0.764800	0.996900
H441	H44	0.238100	0.261500	0.642700
H451	H45	0.261500	0.023400	0.142700
H461	H46	0.913300	0.614700	0.064100
H471	H47	0.470400	0.235200	0.003100
H481	H48	0.976600	0.238100	0.357300
H491	H49	0.238100	0.976600	0.642700
H501	H50	0.761900	0.738500	0.142700
H511	H51	0.202600	0.996500	0.316400
H521	H52	0.764800	0.529600	0.496900
H531	H53	0.206100	0.003500	0.816400
H541	H54	0.202600	0.206100	0.316400
H551	H55	0.738500	0.761900	0.642700
H561	H56	0.761900	0.023400	0.357300
H571	H57	0.701400	0.086700	0.064100
H581	H58	0.023400	0.761900	0.642700
H591	H59	0.614700	0.701400	0.935900
H601	H60	0.701400	0.086700	0.435900
H611	H61	0.761900	0.023400	0.142700
H621	H62	0.202600	0.206100	0.183600
H631	H63	0.235200	0.470400	0.503100
H641	H64	0.529600	0.764800	0.503100
H651	H65	0.764800	0.529600	0.003100
H661	H66	0.202600	0.996500	0.183600
H671	H67	0.976600	0.238100	0.142700
H681	H68	0.470400	0.235200	0.496900
H691	H69	0.913300	0.614700	0.435900
H701	H70	0.261500	0.023400	0.357300
H711	H71	0.385300	0.086700	0.435900
H721	H72	0.235200	0.470400	0.996900
H731	H73	0.023400	0.261500	0.857300
H741	H74	0.797400	0.003500	0.816400
H751	H75	0.793900	0.996500	0.183600
H761	H76	0.764800	0.235200	0.003100
H771	H77	0.206100	0.202600	0.816400
H781	H78	0.206100	0.003500	0.683600
H791	H79	0.023400	0.761900	0.857300
H801	H80	0.003500	0.206100	0.316400
H811	H81	0.797400	0.003500	0.683600
H821	H82	0.086700	0.701400	0.564100
H831	H83	0.003500	0.797400	0.183600
H841	H84	0.738500	0.976600	0.642700
C11	C1	0.045500	0.830600	0.824460
C21	C2	0.170050	0.340100	0.593900
C31	C3	0.848000	0.568200	0.468320
C41	C4	0.738800	0.135300	0.055950
C51	C5	0.170050	0.340100	0.906100
C61	C6	0.279800	0.431800	0.531680
C71	C7	0.864700	0.603500	0.055950
C81	C8	0.361300	0.906900	0.981360
C91	C9	0.154550	0.309100	0.613900
C101	C10	0.078150	0.921850	0.713790
C111	C11	0.848000	0.279800	0.468320
C121	C12	0.804000	0.902000	0.811600
C131	C13	0.938400	0.748200	0.150990
C141	C14	0.690900	0.845450	0.886100
C151	C15	0.902000	0.804000	0.311600
C161	C16	0.809800	0.748200	0.349010
C171	C17	0.061600	0.809800	0.650990
C181	C18	0.152000	0.431800	0.531680
C191	C19	0.135300	0.396500	0.555950
C201	C20	0.785100	0.830600	0.824460
C211	C21	0.093100	0.638700	0.981360
C221	C22	0.748200	0.938400	0.849010
C231	C23	0.638700	0.545600	0.481360
C241	C24	0.748200	0.809800	0.650990
C251	C25	0.135300	0.396500	0.944050
C261	C26	0.738800	0.603500	0.444050
C271	C27	0.864700	0.261200	0.055950
C281	C28	0.775950	0.551900	0.019560
C291	C29	0.361300	0.454400	0.981360
C301	C30	0.845450	0.154550	0.113900
C311	C31	0.093100	0.454400	0.518640
C321	C32	0.170050	0.829950	0.593900
C331	C33	0.224050	0.775950	0.519560
C341	C34	0.829950	0.170050	0.406100
C351	C35	0.775950	0.224050	0.480440
C361	C36	0.431800	0.279800	0.468320
C371	C37	0.396500	0.135300	0.055950
C381	C38	0.169400	0.214900	0.675540
C391	C39	0.843700	0.921850	0.713790
C401	C40	0.845450	0.690900	0.386100
C411	C41	0.273300	0.136650	0.139400
C421	C42	0.748200	0.938400	0.650990
C431	C43	0.196000	0.098000	0.188400
C441	C44	0.196000	0.098000	0.311600
C451	C45	0.864700	0.603500	0.444050
C461	C46	0.136650	0.863350	0.639400
C471	C47	0.273300	0.136650	0.360600
C481	C48	0.845450	0.690900	0.113900
C491	C49	0.078150	0.921850	0.786210
C501	C50	0.093100	0.638700	0.518640
C511	C51	0.396500	0.135300	0.444050
C521	C52	0.603500	0.738800	0.555950
C531	C53	0.188850	0.811150	0.931690
C541	C54	0.135300	0.738800	0.555950
C551	C55	0.224050	0.448100	0.519560
C561	C56	0.431800	0.279800	0.031680
C571	C57	0.775950	0.224050	0.019560
C581	C58	0.224050	0.448100	0.980440
C591	C59	0.224050	0.775950	0.980440
C601	C60	0.545600	0.638700	0.981360
C611	C61	0.545600	0.906900	0.518640
C621	C62	0.152000	0.720200	0.968320
C631	C63	0.098000	0.902000	0.811600
C641	C64	0.775950	0.551900	0.480440
C651	C65	0.551900	0.775950	0.980440
C661	C66	0.864700	0.261200	0.444050
C671	C67	0.738800	0.603500	0.055950
C681	C68	0.045500	0.214900	0.824460
C691	C69	0.638700	0.545600	0.018640
C701	C70	0.361300	0.454400	0.518640
C711	C71	0.061600	0.251800	0.849010
C721	C72	0.188850	0.811150	0.568310
C731	C73	0.785100	0.954500	0.824460
C741	C74	0.809800	0.748200	0.150990
C751	C75	0.902000	0.804000	0.188400
C761	C76	0.938400	0.748200	0.349010
C771	C77	0.169400	0.954500	0.824460
C781	C78	0.848000	0.279800	0.031680
C791	C79	0.190200	0.251800	0.650990
C801	C80	0.214900	0.045500	0.175540
C811	C81	0.738800	0.135300	0.444050
C821	C82	0.603500	0.864700	0.944050
C831	C83	0.659900	0.829950	0.593900
C841	C84	0.848000	0.568200	0.031680
C851	C85	0.906900	0.361300	0.481360
C861	C86	0.954500	0.785100	0.324460
C871	C87	0.261200	0.864700	0.555950
C881	C88	0.156300	0.078150	0.286210
C891	C89	0.921850	0.843700	0.213790
C901	C90	0.622300	0.811150	0.931690
C911	C91	0.251800	0.061600	0.349010
C921	C92	0.279800	0.848000	0.968320
C931	C93	0.093100	0.454400	0.981360
C941	C94	0.309100	0.154550	0.113900
C951	C95	0.830600	0.785100	0.324460
C961	C96	0.809800	0.061600	0.349010
C971	C97	0.726700	0.863350	0.639400
C981	C98	0.829950	0.170050	0.093900
C991	C99	0.136650	0.863350	0.860600
C1001	C100	0.811150	0.188850	0.068310
C1011	C101	0.811150	0.622300	0.431690
C1021	C102	0.726700	0.863350	0.860600
C1031	C103	0.938400	0.190200	0.349010
C1041	C104	0.863350	0.136650	0.139400
C1051	C105	0.078150	0.156300	0.786210
C1061	C106	0.078150	0.156300	0.713790
C1071	C107	0.251800	0.190200	0.150990
C1081	C108	0.454400	0.093100	0.018640
C1091	C109	0.638700	0.093100	0.018640
C1101	C110	0.396500	0.261200	0.444050
C1111	C111	0.448100	0.224050	0.480440
C1121	C112	0.169400	0.214900	0.824460
C1131	C113	0.045500	0.214900	0.675540
C1141	C114	0.279800	0.431800	0.968320
C1151	C115	0.214900	0.169400	0.175540
C1161	C116	0.954500	0.169400	0.324460
C1171	C117	0.136650	0.273300	0.639400
C1181	C118	0.377700	0.188850	0.431690
C1191	C119	0.829950	0.659900	0.406100
C1201	C120	0.190200	0.938400	0.849010
C1211	C121	0.720200	0.152000	0.468320
C1221	C122	0.720200	0.568200	0.031680
C1231	C123	0.154550	0.845450	0.886100
C1241	C124	0.921850	0.078150	0.213790
C1251	C125	0.431800	0.152000	0.031680
C1261	C126	0.843700	0.921850	0.786210
C1271	C127	0.279800	0.848000	0.531680
C1281	C128	0.261200	0.396500	0.555950
C1291	C129	0.568200	0.720200	0.968320
C1301	C130	0.690900	0.845450	0.613900
C1311	C131	0.454400	0.361300	0.018640
C1321	C132	0.603500	0.864700	0.555950
C1331	C133	0.154550	0.309100	0.886100
C1341	C134	0.361300	0.906900	0.518640
C1351	C135	0.906900	0.545600	0.018640
C1361	C136	0.863350	0.726700	0.360600
C1371	C137	0.845450	0.154550	0.386100
C1381	C138	0.188850	0.377700	0.931690
C1391	C139	0.830600	0.045500	0.175540
C1401	C140	0.340100	0.170050	0.406100
C1411	C141	0.902000	0.098000	0.311600
C1421	C142	0.098000	0.196000	0.688400
C1431	C143	0.061600	0.251800	0.650990
C1441	C144	0.136650	0.273300	0.860600
C1451	C145	0.568200	0.720200	0.531680
C1461	C146	0.152000	0.431800	0.968320
C1471	C147	0.135300	0.738800	0.944050
C1481	C148	0.169400	0.954500	0.675540
C1491	C149	0.545600	0.638700	0.518640
C1501	C150	0.902000	0.098000	0.188400
C1511	C151	0.340100	0.170050	0.093900
C1521	C152	0.098000	0.196000	0.811600
C1531	C153	0.830600	0.045500	0.324460
C1541	C154	0.785100	0.954500	0.675540
C1551	C155	0.863350	0.726700	0.139400
C1561	C156	0.568200	0.848000	0.968320
C1571	C157	0.906900	0.545600	0.481360
C1581	C158	0.431800	0.152000	0.468320
C1591	C159	0.921850	0.078150	0.286210
C1601	C160	0.309100	0.154550	0.386100
C1611	C161	0.545600	0.906900	0.981360
C1621	C162	0.170050	0.829950	0.906100
C1631	C163	0.551900	0.775950	0.519560
C1641	C164	0.154550	0.845450	0.613900
C1651	C165	0.720200	0.152000	0.031680
C1661	C166	0.829950	0.659900	0.093900
C1671	C167	0.377700	0.188850	0.068310
C1681	C168	0.748200	0.809800	0.849010
C1691	C169	0.261200	0.396500	0.944050
C1701	C170	0.954500	0.169400	0.175540
C1711	C171	0.214900	0.169400	0.324460
C1721	C172	0.448100	0.224050	0.019560
C1731	C173	0.622300	0.811150	0.568310
C1741	C174	0.659900	0.829950	0.906100
C1751	C175	0.396500	0.261200	0.055950
C1761	C176	0.638700	0.093100	0.481360
C1771	C177	0.785100	0.830600	0.675540
C1781	C178	0.454400	0.093100	0.481360
C1791	C179	0.251800	0.190200	0.349010
C1801	C180	0.863350	0.136650	0.360600
C1811	C181	0.938400	0.190200	0.150990
C1821	C182	0.811150	0.188850	0.431690
C1831	C183	0.454400	0.361300	0.481360
C1841	C184	0.811150	0.622300	0.068310
C1851	C185	0.804000	0.902000	0.688400
C1861	C186	0.720200	0.568200	0.468320
C1871	C187	0.261200	0.864700	0.944050
C1881	C188	0.809800	0.061600	0.150990
C1891	C189	0.830600	0.785100	0.175540
C1901	C190	0.152000	0.720200	0.531680
C1911	C191	0.568200	0.848000	0.531680
C1921	C192	0.190200	0.938400	0.650990
C1931	C193	0.098000	0.902000	0.688400
C1941	C194	0.190200	0.251800	0.849010
C1951	C195	0.061600	0.809800	0.849010
C1961	C196	0.045500	0.830600	0.675540
C1971	C197	0.251800	0.061600	0.150990
C1981	C198	0.188850	0.377700	0.568310
C1991	C199	0.214900	0.045500	0.324460
C2001	C200	0.921850	0.843700	0.286210
C2011	C201	0.156300	0.078150	0.213790
C2021	C202	0.954500	0.785100	0.175540
C2031	C203	0.906900	0.361300	0.018640
C2041	C204	0.603500	0.738800	0.944050
O11	O1	0.483200	0.371800	0.503320
O21	O2	0.589600	0.557100	0.032580
O31	O3	0.873000	0.862300	0.222880
O41	O4	0.873000	0.010700	0.277120
O51	O5	0.589600	0.032500	0.467420
O61	O6	0.442900	0.410400	0.467420
O71	O7	0.989300	0.862300	0.222880
O81	O8	0.010700	0.137700	0.722880
O91	O9	0.371800	0.888600	0.003320
O101	O10	0.137700	0.127000	0.222880
O111	O11	0.862300	0.873000	0.722880
O121	O12	0.483200	0.111400	0.996680
O131	O13	0.032500	0.442900	0.967420
O141	O14	0.967500	0.410400	0.467420
O151	O15	0.967500	0.410400	0.032580
O161	O16	0.371800	0.888600	0.496680
O171	O17	0.557100	0.589600	0.967420
O181	O18	0.557100	0.967500	0.967420
O191	O19	0.888600	0.371800	0.503320
O201	O20	0.862300	0.989300	0.722880
O211	O21	0.989300	0.862300	0.277120
O221	O22	0.442900	0.410400	0.032580
O231	O23	0.589600	0.032500	0.032580
O241	O24	0.137700	0.127000	0.277120
O251	O25	0.873000	0.010700	0.222880
O261	O26	0.873000	0.862300	0.277120
O271	O27	0.127000	0.137700	0.722880
O281	O28	0.589600	0.557100	0.467420
O291	O29	0.032500	0.442900	0.532580
O301	O30	0.862300	0.873000	0.777120
O311	O31	0.989300	0.127000	0.277120
O321	O32	0.516800	0.628200	0.003320
O331	O33	0.111400	0.483200	0.496680
O341	O34	0.628200	0.111400	0.503320
O351	O35	0.410400	0.967500	0.532580
O361	O36	0.888600	0.516800	0.503320
O371	O37	0.137700	0.010700	0.277120
O381	O38	0.888600	0.516800	0.996680
O391	O39	0.442900	0.032500	0.467420
O401	O40	0.127000	0.989300	0.722880
O411	O41	0.032500	0.589600	0.967420
O421	O42	0.967500	0.557100	0.032580
O431	O43	0.410400	0.442900	0.967420
O441	O44	0.483200	0.111400	0.503320
O451	O45	0.111400	0.628200	0.496680
O461	O46	0.516800	0.888600	0.003320
O471	O47	0.516800	0.888600	0.496680
O481	O48	0.557100	0.967500	0.532580
O491	O49	0.111400	0.628200	0.003320
O501	O50	0.557100	0.589600	0.532580
O511	O51	0.371800	0.483200	0.496680
O521	O52	0.967500	0.557100	0.467420
O531	O53	0.127000	0.989300	0.777120
O541	O54	0.371800	0.483200	0.003320
O551	O55	0.442900	0.032500	0.032580
O561	O56	0.862300	0.989300	0.777120
O571	O57	0.127000	0.137700	0.777120
O581	O58	0.888600	0.371800	0.996680
O591	O59	0.137700	0.010700	0.222880
O601	O60	0.628200	0.111400	0.996680
O611	O61	0.010700	0.873000	0.722880
O621	O62	0.032500	0.589600	0.532580
O631	O63	0.628200	0.516800	0.503320
O641	O64	0.010700	0.137700	0.777120
O651	O65	0.010700	0.873000	0.777120
O661	O66	0.111400	0.483200	0.003320
O671	O67	0.410400	0.442900	0.532580
O681	O68	0.516800	0.628200	0.496680
O691	O69	0.989300	0.127000	0.222880
O701	O70	0.483200	0.371800	0.996680
O711	O71	0.410400	0.967500	0.967420
O721	O72	0.628200	0.516800	0.996680
