data_OGUJIL_clean_PM
_symmetry_space_group_name_H-M	'P1'
_cell_length_a	8.272300
_cell_length_b	20.345000
_cell_length_c	8.634300
_cell_angle_alpha	90.000000
_cell_angle_beta	92.360000
_cell_angle_gamma	90.000000
_symmetry_Int_Tables_number 1

loop_
_symmetry_equiv_pos_as_xyz
'x,y,z'

loop_
_atom_site_label
_atom_site_type_symbol
_atom_site_fract_x
_atom_site_fract_y
_atom_site_fract_z
N11	N1	0.824400	0.173700	0.174970
N21	N2	0.885130	0.078280	0.086360
N31	N3	0.716930	0.081320	0.091590
N41	N4	0.851300	0.236870	0.232000
N51	N5	0.723300	0.268750	0.221600
N61	N6	0.746800	0.330940	0.283260
N71	N7	0.840000	0.416470	0.411500
N81	N8	0.674760	0.426270	0.371180
N91	N9	0.343480	0.000470	0.366590
N101	N10	0.150700	0.000790	0.190380
N111	N11	0.080400	0.003600	0.335360
N121	N12	0.500500	0.999400	0.427900
C11	C1	0.946600	0.133320	0.137900
H11	H1	0.058600	0.143400	0.147900
C21	C2	0.683300	0.139110	0.145400
H21	H2	0.577500	0.155100	0.161900
C31	C3	0.879100	0.359240	0.358600
H31	H3	0.983300	0.339800	0.370100
C41	C4	0.623600	0.374650	0.295200
H41	H4	0.516400	0.368400	0.254300
C51	C5	0.307700	0.999290	0.211700
H51	H5	0.384000	0.997700	0.132400
C61	C6	0.198200	0.003050	0.438900
H61	H6	0.186200	0.004200	0.547800
N131	N13	0.175600	0.826300	0.825030
N141	N14	0.114870	0.921720	0.913640
N151	N15	0.283070	0.918680	0.908410
N161	N16	0.148700	0.763130	0.768000
N171	N17	0.276700	0.731250	0.778400
N181	N18	0.253200	0.669060	0.716740
N191	N19	0.160000	0.583530	0.588500
N201	N20	0.325240	0.573730	0.628820
N211	N21	0.656520	0.999530	0.633410
N221	N22	0.849300	0.999210	0.809620
N231	N23	0.919600	0.996400	0.664640
N241	N24	0.499500	0.000600	0.572100
C71	C7	0.053400	0.866680	0.862100
H71	H7	0.941400	0.856600	0.852100
C81	C8	0.316700	0.860890	0.854600
H81	H8	0.422500	0.844900	0.838100
C91	C9	0.120900	0.640760	0.641400
H91	H9	0.016700	0.660200	0.629900
C101	C10	0.376400	0.625350	0.704800
H101	H10	0.483600	0.631600	0.745700
C111	C11	0.692300	0.000710	0.788300
H111	H11	0.616000	0.002300	0.867600
C121	C12	0.801800	0.996950	0.561100
H121	H12	0.813800	0.995800	0.452200
Cu11	Cu1	0.000000	0.000000	0.000000
N251	N25	0.675600	0.673700	0.325030
N261	N26	0.614870	0.578280	0.413640
N271	N27	0.783070	0.581320	0.408410
N281	N28	0.648700	0.736870	0.268000
N291	N29	0.776700	0.768750	0.278400
N301	N30	0.753200	0.830940	0.216740
N311	N31	0.660000	0.916470	0.088500
N321	N32	0.825240	0.926270	0.128820
N331	N33	0.156520	0.500470	0.133410
N341	N34	0.349300	0.500790	0.309620
N351	N35	0.419600	0.503600	0.164640
N361	N36	0.999500	0.499400	0.072100
C131	C13	0.553400	0.633320	0.362100
H131	H13	0.441400	0.643400	0.352100
C141	C14	0.816700	0.639110	0.354600
H141	H14	0.922500	0.655100	0.338100
C151	C15	0.620900	0.859240	0.141400
H151	H15	0.516700	0.839800	0.129900
C161	C16	0.876400	0.874650	0.204800
H161	H16	0.983600	0.868400	0.245700
C171	C17	0.192300	0.499290	0.288300
H171	H17	0.116000	0.497700	0.367600
C181	C18	0.301800	0.503050	0.061100
H181	H18	0.313800	0.504200	0.952200
N371	N37	0.324400	0.326300	0.674970
N381	N38	0.385130	0.421720	0.586360
N391	N39	0.216930	0.418680	0.591590
N401	N40	0.351300	0.263130	0.732000
N411	N41	0.223300	0.231250	0.721600
N421	N42	0.246800	0.169060	0.783260
N431	N43	0.340000	0.083530	0.911500
N441	N44	0.174760	0.073730	0.871180
N451	N45	0.843480	0.499530	0.866590
N461	N46	0.650700	0.499210	0.690380
N471	N47	0.580400	0.496400	0.835360
N481	N48	0.000500	0.500600	0.927900
C191	C19	0.446600	0.366680	0.637900
H191	H19	0.558600	0.356600	0.647900
C201	C20	0.183300	0.360890	0.645400
H201	H20	0.077500	0.344900	0.661900
C211	C21	0.379100	0.140760	0.858600
H211	H21	0.483300	0.160200	0.870100
C221	C22	0.123600	0.125350	0.795200
H221	H22	0.016400	0.131600	0.754300
C231	C23	0.807700	0.500710	0.711700
H231	H23	0.884000	0.502300	0.632400
C241	C24	0.698200	0.496950	0.938900
H241	H24	0.686200	0.495800	0.047800
Cu21	Cu2	0.500000	0.500000	0.500000
