data_OGURAK_charged_PM
_symmetry_space_group_name_H-M	'P1'
_cell_length_a	13.178000
_cell_length_b	13.179000
_cell_length_c	13.877900
_cell_angle_alpha	118.348000
_cell_angle_beta	118.345000
_cell_angle_gamma	89.999900
_symmetry_Int_Tables_number 1

loop_
_symmetry_equiv_pos_as_xyz
'x,y,z'

loop_
_atom_site_label
_atom_site_type_symbol
_atom_site_fract_x
_atom_site_fract_y
_atom_site_fract_z
Cu11	Cu1	0.910590	0.715420	0.821180
Cu21	Cu2	0.910590	0.105760	0.821180
Cu31	Cu3	0.105710	0.910550	0.821100
Cu41	Cu4	0.715390	0.910550	0.821100
H11	H1	0.764300	0.292500	0.267200
H21	H2	0.976100	0.502400	0.268200
H31	H3	0.835400	0.428300	0.476400
H41	H4	0.053300	0.640300	0.478200
H51	H5	0.502900	0.974700	0.267200
H61	H6	0.292100	0.765800	0.268200
H71	H7	0.641000	0.048100	0.476400
H81	H8	0.424900	0.837900	0.478200
H91	H9	0.502900	0.292500	0.267200
H101	H10	0.292100	0.502400	0.268200
H111	H11	0.641000	0.428300	0.476400
H121	H12	0.424900	0.640300	0.478200
H131	H13	0.764300	0.974700	0.267200
H141	H14	0.976100	0.765800	0.268200
H151	H15	0.835400	0.048100	0.476400
H161	H16	0.053300	0.837900	0.478200
C11	C1	0.870400	0.266300	0.137200
C21	C2	0.988300	0.645500	0.633400
C31	C3	0.889400	0.361000	0.251200
C41	C4	0.833400	0.358300	0.314400
C51	C5	0.957500	0.481100	0.315600
C61	C6	0.871600	0.443400	0.437600
C71	C7	0.997300	0.566300	0.438600
C81	C8	0.960600	0.552400	0.513000
C91	C9	0.266800	0.870900	0.137200
C101	C10	0.645100	0.987900	0.633400
C111	C11	0.361800	0.890200	0.251200
C121	C12	0.481000	0.956100	0.314400
C131	C13	0.358100	0.834500	0.315600
C141	C14	0.566000	0.994200	0.437600
C151	C15	0.441300	0.872300	0.438600
C161	C16	0.552400	0.960600	0.513000
C171	C17	0.266800	0.266300	0.137200
C181	C18	0.645100	0.645500	0.633400
C191	C19	0.361800	0.361000	0.251200
C201	C20	0.481000	0.358300	0.314400
C211	C21	0.358100	0.481100	0.315600
C221	C22	0.566000	0.443400	0.437600
C231	C23	0.441300	0.566300	0.438600
C241	C24	0.552400	0.552400	0.513000
C251	C25	0.870400	0.870900	0.137200
C261	C26	0.988300	0.987900	0.633400
C271	C27	0.889400	0.890200	0.251200
C281	C28	0.833400	0.956100	0.314400
C291	C29	0.957500	0.834500	0.315600
C301	C30	0.871600	0.994200	0.437600
C311	C31	0.997300	0.872300	0.438600
C321	C32	0.960600	0.960600	0.513000
N11	N1	0.792900	0.092700	0.960400
N21	N2	0.868000	0.165300	0.959800
N31	N3	0.790230	0.152630	0.061060
N41	N4	0.909410	0.269910	0.061020
N51	N5	0.167500	0.867700	0.960400
N61	N6	0.091800	0.794500	0.959800
N71	N7	0.270830	0.908430	0.061060
N81	N8	0.151610	0.791110	0.061020
N91	N9	0.167500	0.092700	0.960400
N101	N10	0.091800	0.165300	0.959800
N111	N11	0.270830	0.152630	0.061060
N121	N12	0.151610	0.269910	0.061020
N131	N13	0.792900	0.867700	0.960400
N141	N14	0.868000	0.794500	0.959800
N151	N15	0.790230	0.908430	0.061060
N161	N16	0.909410	0.791110	0.061020
Cl11	Cl1	0.902220	0.902220	0.804440
O11	O1	0.938700	0.630200	0.683200
O21	O2	0.052700	0.745800	0.684200
O31	O3	0.744500	0.053000	0.683200
O41	O4	0.631500	0.938400	0.684200
O51	O5	0.744500	0.630200	0.683200
O61	O6	0.631500	0.745800	0.684200
O71	O7	0.938700	0.053000	0.683200
O81	O8	0.052700	0.938400	0.684200
