data_OHAKIS_clean_PM
_symmetry_space_group_name_H-M	'P1'
_cell_length_a	16.720000
_cell_length_b	17.081000
_cell_length_c	18.432000
_cell_angle_alpha	90.000000
_cell_angle_beta	90.000000
_cell_angle_gamma	90.000000
_symmetry_Int_Tables_number 1

loop_
_symmetry_equiv_pos_as_xyz
'x,y,z'

loop_
_atom_site_label
_atom_site_type_symbol
_atom_site_fract_x
_atom_site_fract_y
_atom_site_fract_z
Cd11	Cd1	0.776870	0.991500	0.519100
Cd21	Cd2	0.276870	0.508500	0.480900
Cd31	Cd3	0.276870	0.991500	0.980900
Cd41	Cd4	0.776870	0.508500	0.019100
H11	H1	0.597500	0.939200	0.613600
H21	H2	0.478600	0.022300	0.619000
H31	H3	0.640800	0.123100	0.492800
H41	H4	0.387300	0.113400	0.553200
H51	H5	0.310800	0.224100	0.534900
H61	H6	0.510500	0.351600	0.509600
H71	H7	0.587000	0.242300	0.530600
H81	H8	0.689700	0.046100	0.358200
H91	H9	0.687200	0.969400	0.245300
H101	H10	0.813900	0.855300	0.393700
H111	H11	0.773900	0.739600	0.331400
H121	H12	0.791600	0.636800	0.250200
H131	H13	0.776600	0.784600	0.082700
H141	H14	0.764400	0.889300	0.161600
H151	H15	0.097500	0.560800	0.386400
H161	H16	0.978600	0.477700	0.381000
H171	H17	0.140800	0.376900	0.507200
H181	H18	0.887300	0.386600	0.446800
H191	H19	0.810800	0.275900	0.465100
H201	H20	0.010500	0.148400	0.490400
H211	H21	0.087000	0.257700	0.469400
H221	H22	0.189700	0.453900	0.641800
H231	H23	0.187200	0.530600	0.754700
H241	H24	0.313900	0.644700	0.606300
H251	H25	0.273900	0.760400	0.668600
H261	H26	0.291600	0.863200	0.749800
H271	H27	0.276600	0.715400	0.917300
H281	H28	0.264400	0.610700	0.838400
H291	H29	0.097500	0.939200	0.886400
H301	H30	0.978600	0.022300	0.881000
H311	H31	0.140800	0.123100	0.007200
H321	H32	0.887300	0.113400	0.946800
H331	H33	0.810800	0.224100	0.965100
H341	H34	0.010500	0.351600	0.990400
H351	H35	0.087000	0.242300	0.969400
H361	H36	0.189700	0.046100	0.141800
H371	H37	0.187200	0.969400	0.254700
H381	H38	0.313900	0.855300	0.106300
H391	H39	0.273900	0.739600	0.168600
H401	H40	0.291600	0.636800	0.249800
H411	H41	0.276600	0.784600	0.417300
H421	H42	0.264400	0.889300	0.338400
H431	H43	0.597500	0.560800	0.113600
H441	H44	0.478600	0.477700	0.119000
H451	H45	0.640800	0.376900	0.992800
H461	H46	0.387300	0.386600	0.053200
H471	H47	0.310800	0.275900	0.034900
H481	H48	0.510500	0.148400	0.009600
H491	H49	0.587000	0.257700	0.030600
H501	H50	0.689700	0.453900	0.858200
H511	H51	0.687200	0.530600	0.745300
H521	H52	0.813900	0.644700	0.893700
H531	H53	0.773900	0.760400	0.831400
H541	H54	0.791600	0.863200	0.750200
H551	H55	0.776600	0.715400	0.582700
H561	H56	0.764400	0.610700	0.661600
C11	C1	0.591400	0.986900	0.590000
C21	C2	0.525600	0.032600	0.593800
C31	C3	0.615900	0.087900	0.524000
C41	C4	0.494000	0.166100	0.541700
C51	C5	0.412000	0.161200	0.544200
C61	C6	0.366300	0.227600	0.533400
C71	C7	0.402400	0.299600	0.520300
C81	C8	0.485800	0.303900	0.518700
C91	C9	0.531600	0.238600	0.530300
C101	C10	0.352400	0.370500	0.508400
C111	C11	0.714600	0.998100	0.351000
C121	C12	0.712700	0.955800	0.288400
C131	C13	0.782900	0.893300	0.371000
C141	C14	0.768200	0.824700	0.252700
C151	C15	0.775600	0.748500	0.281700
C161	C16	0.785300	0.687400	0.232600
C171	C17	0.786000	0.699700	0.159000
C181	C18	0.777100	0.776000	0.132500
C191	C19	0.769100	0.838600	0.179400
C201	C20	0.792800	0.631000	0.108400
C211	C21	0.091400	0.513100	0.410000
C221	C22	0.025600	0.467400	0.406200
C231	C23	0.115900	0.412100	0.476000
C241	C24	0.994000	0.333900	0.458300
C251	C25	0.912000	0.338800	0.455800
C261	C26	0.866300	0.272400	0.466600
C271	C27	0.902400	0.200400	0.479700
C281	C28	0.985800	0.196100	0.481300
C291	C29	0.031600	0.261400	0.469700
C301	C30	0.852400	0.129500	0.491600
C311	C31	0.214600	0.501900	0.649000
C321	C32	0.212700	0.544200	0.711600
C331	C33	0.282900	0.606700	0.629000
C341	C34	0.268200	0.675300	0.747300
C351	C35	0.275600	0.751500	0.718300
C361	C36	0.285300	0.812600	0.767400
C371	C37	0.286000	0.800300	0.841000
C381	C38	0.277100	0.724000	0.867500
C391	C39	0.269100	0.661400	0.820600
C401	C40	0.292800	0.869000	0.891600
C411	C41	0.091400	0.986900	0.910000
C421	C42	0.025600	0.032600	0.906200
C431	C43	0.115900	0.087900	0.976000
C441	C44	0.994000	0.166100	0.958300
C451	C45	0.912000	0.161200	0.955800
C461	C46	0.866300	0.227600	0.966600
C471	C47	0.902400	0.299600	0.979700
C481	C48	0.985800	0.303900	0.981300
C491	C49	0.031600	0.238600	0.969700
C501	C50	0.852400	0.370500	0.991600
C511	C51	0.214600	0.998100	0.149000
C521	C52	0.212700	0.955800	0.211600
C531	C53	0.282900	0.893300	0.129000
C541	C54	0.268200	0.824700	0.247300
C551	C55	0.275600	0.748500	0.218300
C561	C56	0.285300	0.687400	0.267400
C571	C57	0.286000	0.699700	0.341000
C581	C58	0.277100	0.776000	0.367500
C591	C59	0.269100	0.838600	0.320600
C601	C60	0.292800	0.631000	0.391600
C611	C61	0.591400	0.513100	0.090000
C621	C62	0.525600	0.467400	0.093800
C631	C63	0.615900	0.412100	0.024000
C641	C64	0.494000	0.333900	0.041700
C651	C65	0.412000	0.338800	0.044200
C661	C66	0.366300	0.272400	0.033400
C671	C67	0.402400	0.200400	0.020300
C681	C68	0.485800	0.196100	0.018700
C691	C69	0.531600	0.261400	0.030300
C701	C70	0.352400	0.129500	0.008400
C711	C71	0.714600	0.501900	0.851000
C721	C72	0.712700	0.544200	0.788400
C731	C73	0.782900	0.606700	0.871000
C741	C74	0.768200	0.675300	0.752700
C751	C75	0.775600	0.751500	0.781700
C761	C76	0.785300	0.812600	0.732600
C771	C77	0.786000	0.800300	0.659000
C781	C78	0.777100	0.724000	0.632500
C791	C79	0.769100	0.661400	0.679400
C801	C80	0.792800	0.869000	0.608400
N11	N1	0.648700	0.021300	0.545900
N21	N2	0.542600	0.098600	0.551900
N31	N3	0.759400	0.958400	0.402000
N41	N4	0.756400	0.888500	0.301900
N51	N5	0.148700	0.478700	0.454100
N61	N6	0.042600	0.401400	0.448100
N71	N7	0.259400	0.541600	0.598000
N81	N8	0.256400	0.611500	0.698100
N91	N9	0.148700	0.021300	0.954100
N101	N10	0.042600	0.098600	0.948100
N111	N11	0.259400	0.958400	0.098000
N121	N12	0.256400	0.888500	0.198100
N131	N13	0.648700	0.478700	0.045900
N141	N14	0.542600	0.401400	0.051900
N151	N15	0.759400	0.541600	0.902000
N161	N16	0.756400	0.611500	0.801900
O11	O1	0.384700	0.431900	0.483400
O21	O2	0.279000	0.368000	0.522200
O31	O3	0.798700	0.644500	0.040700
O41	O4	0.790000	0.563400	0.133700
O51	O5	0.884700	0.068100	0.516600
O61	O6	0.779000	0.132000	0.477800
O71	O7	0.298700	0.855500	0.959300
O81	O8	0.290000	0.936600	0.866300
O91	O9	0.884700	0.431900	0.016600
O101	O10	0.779000	0.368000	0.977800
O111	O11	0.298700	0.644500	0.459300
O121	O12	0.290000	0.563400	0.366300
O131	O13	0.384700	0.068100	0.983400
O141	O14	0.279000	0.132000	0.022200
O151	O15	0.798700	0.855500	0.540700
O161	O16	0.790000	0.936600	0.633700
Cd51	Cd5	0.723130	0.008500	0.019100
Cd61	Cd6	0.223130	0.491500	0.980900
Cd71	Cd7	0.223130	0.008500	0.480900
Cd81	Cd8	0.723130	0.491500	0.519100
H571	H57	0.902500	0.060800	0.113600
H581	H58	0.021400	0.977700	0.119000
H591	H59	0.859200	0.876900	0.992800
H601	H60	0.112700	0.886600	0.053200
H611	H61	0.189200	0.775900	0.034900
H621	H62	0.989500	0.648400	0.009600
H631	H63	0.913000	0.757700	0.030600
H641	H64	0.810300	0.953900	0.858200
H651	H65	0.812800	0.030600	0.745300
H661	H66	0.686100	0.144700	0.893700
H671	H67	0.726100	0.260400	0.831400
H681	H68	0.708400	0.363200	0.750200
H691	H69	0.723400	0.215400	0.582700
H701	H70	0.735600	0.110700	0.661600
H711	H71	0.402500	0.439200	0.886400
H721	H72	0.521400	0.522300	0.881000
H731	H73	0.359200	0.623100	0.007200
H741	H74	0.612700	0.613400	0.946800
H751	H75	0.689200	0.724100	0.965100
H761	H76	0.489500	0.851600	0.990400
H771	H77	0.413000	0.742300	0.969400
H781	H78	0.310300	0.546100	0.141800
H791	H79	0.312800	0.469400	0.254700
H801	H80	0.186100	0.355300	0.106300
H811	H81	0.226100	0.239600	0.168600
H821	H82	0.208400	0.136800	0.249800
H831	H83	0.223400	0.284600	0.417300
H841	H84	0.235600	0.389300	0.338400
H851	H85	0.402500	0.060800	0.386400
H861	H86	0.521400	0.977700	0.381000
H871	H87	0.359200	0.876900	0.507200
H881	H88	0.612700	0.886600	0.446800
H891	H89	0.689200	0.775900	0.465100
H901	H90	0.489500	0.648400	0.490400
H911	H91	0.413000	0.757700	0.469400
H921	H92	0.310300	0.953900	0.641800
H931	H93	0.312800	0.030600	0.754700
H941	H94	0.186100	0.144700	0.606300
H951	H95	0.226100	0.260400	0.668600
H961	H96	0.208400	0.363200	0.749800
H971	H97	0.223400	0.215400	0.917300
H981	H98	0.235600	0.110700	0.838400
H991	H99	0.902500	0.439200	0.613600
H1001	H100	0.021400	0.522300	0.619000
H1011	H101	0.859200	0.623100	0.492800
H1021	H102	0.112700	0.613400	0.553200
H1031	H103	0.189200	0.724100	0.534900
H1041	H104	0.989500	0.851600	0.509600
H1051	H105	0.913000	0.742300	0.530600
H1061	H106	0.810300	0.546100	0.358200
H1071	H107	0.812800	0.469400	0.245300
H1081	H108	0.686100	0.355300	0.393700
H1091	H109	0.726100	0.239600	0.331400
H1101	H110	0.708400	0.136800	0.250200
H1111	H111	0.723400	0.284600	0.082700
H1121	H112	0.735600	0.389300	0.161600
C811	C81	0.908600	0.013100	0.090000
C821	C82	0.974400	0.967400	0.093800
C831	C83	0.884100	0.912100	0.024000
C841	C84	0.006000	0.833900	0.041700
C851	C85	0.088000	0.838800	0.044200
C861	C86	0.133700	0.772400	0.033400
C871	C87	0.097600	0.700400	0.020300
C881	C88	0.014200	0.696100	0.018700
C891	C89	0.968400	0.761400	0.030300
C901	C90	0.147600	0.629500	0.008400
C911	C91	0.785400	0.001900	0.851000
C921	C92	0.787300	0.044200	0.788400
C931	C93	0.717100	0.106700	0.871000
C941	C94	0.731800	0.175300	0.752700
C951	C95	0.724400	0.251500	0.781700
C961	C96	0.714700	0.312600	0.732600
C971	C97	0.714000	0.300300	0.659000
C981	C98	0.722900	0.224000	0.632500
C991	C99	0.730900	0.161400	0.679400
C1001	C100	0.707200	0.369000	0.608400
C1011	C101	0.408600	0.486900	0.910000
C1021	C102	0.474400	0.532600	0.906200
C1031	C103	0.384100	0.587900	0.976000
C1041	C104	0.506000	0.666100	0.958300
C1051	C105	0.588000	0.661200	0.955800
C1061	C106	0.633700	0.727600	0.966600
C1071	C107	0.597600	0.799600	0.979700
C1081	C108	0.514200	0.803900	0.981300
C1091	C109	0.468400	0.738600	0.969700
C1101	C110	0.647600	0.870500	0.991600
C1111	C111	0.285400	0.498100	0.149000
C1121	C112	0.287300	0.455800	0.211600
C1131	C113	0.217100	0.393300	0.129000
C1141	C114	0.231800	0.324700	0.247300
C1151	C115	0.224400	0.248500	0.218300
C1161	C116	0.214700	0.187400	0.267400
C1171	C117	0.214000	0.199700	0.341000
C1181	C118	0.222900	0.276000	0.367500
C1191	C119	0.230900	0.338600	0.320600
C1201	C120	0.207200	0.131000	0.391600
C1211	C121	0.408600	0.013100	0.410000
C1221	C122	0.474400	0.967400	0.406200
C1231	C123	0.384100	0.912100	0.476000
C1241	C124	0.506000	0.833900	0.458300
C1251	C125	0.588000	0.838800	0.455800
C1261	C126	0.633700	0.772400	0.466600
C1271	C127	0.597600	0.700400	0.479700
C1281	C128	0.514200	0.696100	0.481300
C1291	C129	0.468400	0.761400	0.469700
C1301	C130	0.647600	0.629500	0.491600
C1311	C131	0.285400	0.001900	0.649000
C1321	C132	0.287300	0.044200	0.711600
C1331	C133	0.217100	0.106700	0.629000
C1341	C134	0.231800	0.175300	0.747300
C1351	C135	0.224400	0.251500	0.718300
C1361	C136	0.214700	0.312600	0.767400
C1371	C137	0.214000	0.300300	0.841000
C1381	C138	0.222900	0.224000	0.867500
C1391	C139	0.230900	0.161400	0.820600
C1401	C140	0.207200	0.369000	0.891600
C1411	C141	0.908600	0.486900	0.590000
C1421	C142	0.974400	0.532600	0.593800
C1431	C143	0.884100	0.587900	0.524000
C1441	C144	0.006000	0.666100	0.541700
C1451	C145	0.088000	0.661200	0.544200
C1461	C146	0.133700	0.727600	0.533400
C1471	C147	0.097600	0.799600	0.520300
C1481	C148	0.014200	0.803900	0.518700
C1491	C149	0.968400	0.738600	0.530300
C1501	C150	0.147600	0.870500	0.508400
C1511	C151	0.785400	0.498100	0.351000
C1521	C152	0.787300	0.455800	0.288400
C1531	C153	0.717100	0.393300	0.371000
C1541	C154	0.731800	0.324700	0.252700
C1551	C155	0.724400	0.248500	0.281700
C1561	C156	0.714700	0.187400	0.232600
C1571	C157	0.714000	0.199700	0.159000
C1581	C158	0.722900	0.276000	0.132500
C1591	C159	0.730900	0.338600	0.179400
C1601	C160	0.707200	0.131000	0.108400
N171	N17	0.851300	0.978700	0.045900
N181	N18	0.957400	0.901400	0.051900
N191	N19	0.740600	0.041600	0.902000
N201	N20	0.743600	0.111500	0.801900
N211	N21	0.351300	0.521300	0.954100
N221	N22	0.457400	0.598600	0.948100
N231	N23	0.240600	0.458400	0.098000
N241	N24	0.243600	0.388500	0.198100
N251	N25	0.351300	0.978700	0.454100
N261	N26	0.457400	0.901400	0.448100
N271	N27	0.240600	0.041600	0.598000
N281	N28	0.243600	0.111500	0.698100
N291	N29	0.851300	0.521300	0.545900
N301	N30	0.957400	0.598600	0.551900
N311	N31	0.740600	0.458400	0.402000
N321	N32	0.743600	0.388500	0.301900
O171	O17	0.115300	0.568100	0.983400
O181	O18	0.221000	0.632000	0.022200
O191	O19	0.701300	0.355500	0.540700
O201	O20	0.710000	0.436600	0.633700
O211	O21	0.615300	0.931900	0.016600
O221	O22	0.721000	0.868000	0.977800
O231	O23	0.201300	0.144500	0.459300
O241	O24	0.210000	0.063400	0.366300
O251	O25	0.615300	0.568100	0.516600
O261	O26	0.721000	0.632000	0.477800
O271	O27	0.201300	0.355500	0.959300
O281	O28	0.210000	0.436600	0.866300
O291	O29	0.115300	0.931900	0.483400
O301	O30	0.221000	0.868000	0.522200
O311	O31	0.701300	0.144500	0.040700
O321	O32	0.710000	0.063400	0.133700
