data_OHEMIX_clean_PM
_symmetry_space_group_name_H-M	'P1'
_cell_length_a	5.459000
_cell_length_b	18.467000
_cell_length_c	11.634000
_cell_angle_alpha	90.000000
_cell_angle_beta	94.860000
_cell_angle_gamma	90.000000
_symmetry_Int_Tables_number 1

loop_
_symmetry_equiv_pos_as_xyz
'x,y,z'

loop_
_atom_site_label
_atom_site_type_symbol
_atom_site_fract_x
_atom_site_fract_y
_atom_site_fract_z
Ag11	Ag1	0.208490	0.046230	0.492470
C11	C1	0.241300	0.880000	0.426600
C21	C2	0.388400	0.821200	0.372400
H11	H1	0.427800	0.836600	0.296400
H21	H2	0.541800	0.813600	0.419300
C31	C3	0.378000	0.696800	0.296500
H31	H3	0.552200	0.697300	0.321300
H41	H4	0.359600	0.709000	0.215100
C41	C4	0.276900	0.620900	0.313100
H51	H5	0.390300	0.586000	0.285200
H61	H6	0.268800	0.612300	0.395000
C51	C5	0.033000	0.608900	0.253600
N11	N1	0.252300	0.752550	0.361800
H71	H7	0.092000	0.761400	0.323900
H81	H8	0.231300	0.734290	0.437600
N21	N2	0.845700	0.597400	0.207700
O11	O1	0.021100	0.868690	0.434100
O21	O2	0.358200	0.936440	0.455800
Ag21	Ag2	0.791510	0.953770	0.507530
C61	C6	0.758700	0.120000	0.573400
C71	C7	0.611600	0.178800	0.627600
H91	H9	0.572200	0.163400	0.703600
H101	H10	0.458200	0.186400	0.580700
C81	C8	0.622000	0.303200	0.703500
H111	H11	0.447800	0.302700	0.678700
H121	H12	0.640400	0.291000	0.784900
C91	C9	0.723100	0.379100	0.686900
H131	H13	0.609700	0.414000	0.714800
H141	H14	0.731200	0.387700	0.605000
C101	C10	0.967000	0.391100	0.746400
N31	N3	0.747700	0.247450	0.638200
H151	H15	0.908000	0.238600	0.676100
H161	H16	0.768700	0.265710	0.562400
N41	N4	0.154300	0.402600	0.792300
O31	O3	0.978900	0.131310	0.565900
O41	O4	0.641800	0.063560	0.544200
C111	C11	0.758700	0.380000	0.073400
C121	C12	0.611600	0.321200	0.127600
H171	H17	0.572200	0.336600	0.203600
H181	H18	0.458200	0.313600	0.080700
C131	C13	0.622000	0.196800	0.203500
H191	H19	0.447800	0.197300	0.178700
H201	H20	0.640400	0.209000	0.284900
C141	C14	0.723100	0.120900	0.186900
H211	H21	0.609700	0.086000	0.214800
H221	H22	0.731200	0.112300	0.105000
C151	C15	0.967000	0.108900	0.246400
N51	N5	0.747700	0.252550	0.138200
H231	H23	0.908000	0.261400	0.176100
H241	H24	0.768700	0.234290	0.062400
N61	N6	0.154300	0.097400	0.292300
O51	O5	0.978900	0.368690	0.065900
O61	O6	0.641800	0.436440	0.044200
Ag31	Ag3	0.791510	0.546230	0.007530
C161	C16	0.241300	0.620000	0.926600
C171	C17	0.388400	0.678800	0.872400
H251	H25	0.427800	0.663400	0.796400
H261	H26	0.541800	0.686400	0.919300
C181	C18	0.378000	0.803200	0.796500
H271	H27	0.552200	0.802700	0.821300
H281	H28	0.359600	0.791000	0.715100
C191	C19	0.276900	0.879100	0.813100
H291	H29	0.390300	0.914000	0.785200
H301	H30	0.268800	0.887700	0.895000
C201	C20	0.033000	0.891100	0.753600
N71	N7	0.252300	0.747450	0.861800
H311	H31	0.092000	0.738600	0.823900
H321	H32	0.231300	0.765710	0.937600
N81	N8	0.845700	0.902600	0.707700
O71	O7	0.021100	0.631310	0.934100
O81	O8	0.358200	0.563560	0.955800
Ag41	Ag4	0.208490	0.453770	0.992470
