data_OJICUG_clean_PM
_symmetry_space_group_name_H-M	'P1'
_cell_length_a	14.056000
_cell_length_b	14.056000
_cell_length_c	18.099000
_cell_angle_alpha	90.000000
_cell_angle_beta	90.000000
_cell_angle_gamma	120.000000
_symmetry_Int_Tables_number 1

loop_
_symmetry_equiv_pos_as_xyz
'x,y,z'

loop_
_atom_site_label
_atom_site_type_symbol
_atom_site_fract_x
_atom_site_fract_y
_atom_site_fract_z
Sc11	Sc1	0.749860	0.499720	0.750000
Sc21	Sc2	0.749860	0.250140	0.750000
Sc31	Sc3	0.500280	0.250140	0.750000
Sc41	Sc4	0.250140	0.500280	0.250000
Sc51	Sc5	0.250140	0.749860	0.250000
Sc61	Sc6	0.499720	0.749860	0.250000
H11	H1	0.379100	0.332900	0.943300
H21	H2	0.953800	0.620900	0.943300
H31	H3	0.667100	0.046200	0.943300
H41	H4	0.620900	0.667100	0.443300
H51	H5	0.046200	0.379100	0.443300
H61	H6	0.332900	0.953800	0.443300
H71	H7	0.046200	0.667100	0.056700
H81	H8	0.332900	0.379100	0.056700
H91	H9	0.620900	0.953800	0.056700
H101	H10	0.953800	0.332900	0.556700
H111	H11	0.667100	0.620900	0.556700
H121	H12	0.379100	0.046200	0.556700
H131	H13	0.620900	0.667100	0.056700
H141	H14	0.046200	0.379100	0.056700
H151	H15	0.332900	0.953800	0.056700
H161	H16	0.379100	0.332900	0.556700
H171	H17	0.953800	0.620900	0.556700
H181	H18	0.667100	0.046200	0.556700
H191	H19	0.953800	0.332900	0.943300
H201	H20	0.667100	0.620900	0.943300
H211	H21	0.379100	0.046200	0.943300
H221	H22	0.046200	0.667100	0.443300
H231	H23	0.332900	0.379100	0.443300
H241	H24	0.620900	0.953800	0.443300
C11	C1	0.428300	0.400700	0.966380
C21	C2	0.972400	0.571700	0.966380
C31	C3	0.599300	0.027600	0.966380
C41	C4	0.571700	0.599300	0.466380
C51	C5	0.027600	0.428300	0.466380
C61	C6	0.400700	0.972400	0.466380
C71	C7	0.027600	0.599300	0.033620
C81	C8	0.400700	0.428300	0.033620
C91	C9	0.571700	0.972400	0.033620
C101	C10	0.972400	0.400700	0.533620
C111	C11	0.599300	0.571700	0.533620
C121	C12	0.428300	0.027600	0.533620
C131	C13	0.571700	0.599300	0.033620
C141	C14	0.027600	0.428300	0.033620
C151	C15	0.400700	0.972400	0.033620
C161	C16	0.428300	0.400700	0.533620
C171	C17	0.972400	0.571700	0.533620
C181	C18	0.599300	0.027600	0.533620
C191	C19	0.972400	0.400700	0.966380
C201	C20	0.599300	0.571700	0.966380
C211	C21	0.428300	0.027600	0.966380
C221	C22	0.027600	0.599300	0.466380
C231	C23	0.400700	0.428300	0.466380
C241	C24	0.571700	0.972400	0.466380
C251	C25	0.558200	0.441800	0.861180
C261	C26	0.527700	0.472300	0.932940
C271	C27	0.883600	0.441800	0.861180
C281	C28	0.944600	0.472300	0.932940
C291	C29	0.558200	0.116400	0.861180
C301	C30	0.527700	0.055400	0.932940
C311	C31	0.441800	0.558200	0.361180
C321	C32	0.472300	0.527700	0.432940
C331	C33	0.116400	0.558200	0.361180
C341	C34	0.055400	0.527700	0.432940
C351	C35	0.441800	0.883600	0.361180
C361	C36	0.472300	0.944600	0.432940
C371	C37	0.116400	0.558200	0.138820
C381	C38	0.055400	0.527700	0.067060
C391	C39	0.441800	0.558200	0.138820
C401	C40	0.472300	0.527700	0.067060
C411	C41	0.441800	0.883600	0.138820
C421	C42	0.472300	0.944600	0.067060
C431	C43	0.883600	0.441800	0.638820
C441	C44	0.944600	0.472300	0.567060
C451	C45	0.558200	0.441800	0.638820
C461	C46	0.527700	0.472300	0.567060
C471	C47	0.558200	0.116400	0.638820
C481	C48	0.527700	0.055400	0.567060
O11	O1	0.650630	0.509300	0.833410
O21	O2	0.858670	0.349370	0.833410
O31	O3	0.490700	0.141330	0.833410
O41	O4	0.349370	0.490700	0.333410
O51	O5	0.141330	0.650630	0.333410
O61	O6	0.509300	0.858670	0.333410
O71	O7	0.141330	0.490700	0.166590
O81	O8	0.509300	0.650630	0.166590
O91	O9	0.349370	0.858670	0.166590
O101	O10	0.858670	0.509300	0.666590
O111	O11	0.490700	0.349370	0.666590
O121	O12	0.650630	0.141330	0.666590
O131	O13	0.349370	0.490700	0.166590
O141	O14	0.141330	0.650630	0.166590
O151	O15	0.509300	0.858670	0.166590
O161	O16	0.650630	0.509300	0.666590
O171	O17	0.858670	0.349370	0.666590
O181	O18	0.490700	0.141330	0.666590
O191	O19	0.858670	0.509300	0.833410
O201	O20	0.490700	0.349370	0.833410
O211	O21	0.650630	0.141330	0.833410
O221	O22	0.141330	0.490700	0.333410
O231	O23	0.509300	0.650630	0.333410
O241	O24	0.349370	0.858670	0.333410
O251	O25	0.666670	0.333340	0.750000
O261	O26	0.333330	0.666660	0.250000
