data_OJIWAG_clean_PM
_symmetry_space_group_name_H-M	'P1'
_cell_length_a	15.282000
_cell_length_b	15.436000
_cell_length_c	24.609800
_cell_angle_alpha	106.579000
_cell_angle_beta	108.089000
_cell_angle_gamma	90.000000
_symmetry_Int_Tables_number 1

loop_
_symmetry_equiv_pos_as_xyz
'x,y,z'

loop_
_atom_site_label
_atom_site_type_symbol
_atom_site_fract_x
_atom_site_fract_y
_atom_site_fract_z
Zn11	Zn1	0.646740	0.927910	0.801200
Zn21	Zn2	0.078570	0.367190	0.668640
Zn31	Zn3	0.154460	0.427910	0.801200
Zn41	Zn4	0.590070	0.867190	0.668640
H11	H1	0.332500	0.650600	0.814000
H21	H2	0.437700	0.758600	0.812800
H31	H3	0.353700	0.668000	0.631400
H41	H4	0.249800	0.558900	0.632000
H51	H5	0.750600	0.649300	0.656400
H61	H6	0.853500	0.538900	0.652000
H71	H7	0.936800	0.601600	0.833800
H81	H8	0.830900	0.710200	0.836800
H91	H9	0.761700	0.892300	0.915000
H101	H10	0.796300	0.950400	0.017600
H111	H11	0.644800	0.159000	0.990800
H121	H12	0.611400	0.091200	0.887600
H131	H13	0.641700	0.995300	0.181600
H141	H14	0.687400	0.046100	0.286800
H151	H15	0.958500	0.370100	0.289000
H161	H16	0.907400	0.322600	0.183400
H171	H17	0.966200	0.447900	0.577000
H181	H18	0.887700	0.409300	0.475200
H191	H19	0.958700	0.153500	0.460800
H201	H20	0.037100	0.199700	0.563200
H211	H21	0.481500	0.150600	0.814000
H221	H22	0.375100	0.258600	0.812800
H231	H23	0.277700	0.168000	0.631400
H241	H24	0.382200	0.058900	0.632000
H251	H25	0.905800	0.149300	0.656400
H261	H26	0.798500	0.038900	0.652000
H271	H27	0.897000	0.101600	0.833800
H281	H28	0.005900	0.210200	0.836800
H291	H29	0.153300	0.392300	0.915000
H301	H30	0.221300	0.450400	0.017600
H311	H31	0.346000	0.659000	0.990800
H321	H32	0.276200	0.591200	0.887600
H331	H33	0.539900	0.495300	0.181600
H341	H34	0.599400	0.546100	0.286800
H351	H35	0.330500	0.870100	0.289000
H361	H36	0.276000	0.822600	0.183400
H371	H37	0.610800	0.947900	0.577000
H381	H38	0.587500	0.909300	0.475200
H391	H39	0.502100	0.653500	0.460800
H401	H40	0.526100	0.699700	0.563200
C11	C1	0.214630	0.523700	0.724460
C21	C2	0.280600	0.593900	0.723000
C31	C3	0.336960	0.653800	0.776920
C41	C4	0.399580	0.717800	0.776160
C51	C5	0.407380	0.723200	0.722160
C61	C6	0.349960	0.663900	0.668520
C71	C7	0.287910	0.599600	0.668820
C81	C8	0.478680	0.790200	0.722960
C91	C9	0.720500	0.766500	0.747800
C101	C10	0.782280	0.691500	0.746560
C111	C11	0.788970	0.639800	0.692340
C121	C12	0.850190	0.574600	0.689580
C131	C13	0.908270	0.561100	0.743140
C141	C14	0.899530	0.611600	0.797660
C151	C15	0.836790	0.676300	0.799580
C161	C16	0.982530	0.496800	0.741060
C171	C17	0.736260	0.946200	0.930520
C181	C18	0.757960	0.980500	0.991720
C191	C19	0.722660	0.059900	0.014520
C201	C20	0.668290	0.103300	0.975980
C211	C21	0.649170	0.062300	0.914540
C221	C22	0.700600	0.050600	0.106400
C231	C23	0.724680	0.087600	0.172360
C241	C24	0.687100	0.045600	0.203200
C251	C25	0.714390	0.075600	0.265980
C261	C26	0.780590	0.148500	0.297380
C271	C27	0.812160	0.177500	0.363320
C281	C28	0.919620	0.300700	0.364240
C291	C29	0.884520	0.271100	0.297840
C301	C30	0.915860	0.317600	0.267520
C311	C31	0.885730	0.288700	0.204060
C321	C32	0.825840	0.212500	0.172480
C331	C33	0.801110	0.178700	0.106420
C341	C34	0.789140	0.164000	0.203480
C351	C35	0.817760	0.195100	0.266720
C361	C36	0.965170	0.387400	0.552940
C371	C37	0.918910	0.365400	0.492420
C381	C38	0.918960	0.277400	0.456920
C391	C39	0.960770	0.214900	0.483740
C401	C40	0.006310	0.242800	0.545020
C411	C41	0.509830	0.023700	0.724460
C421	C42	0.442400	0.093900	0.723000
C431	C43	0.439960	0.153800	0.776920
C441	C44	0.376580	0.217800	0.776160
C451	C45	0.314780	0.223200	0.722160
C461	C46	0.318560	0.163900	0.668520
C471	C47	0.380910	0.099600	0.668820
C481	C48	0.244280	0.290200	0.722960
C491	C49	0.027300	0.266500	0.747800
C501	C50	0.964280	0.191500	0.746560
C511	C51	0.903370	0.139800	0.692340
C521	C52	0.839390	0.074600	0.689580
C531	C53	0.834870	0.061100	0.743140
C541	C54	0.898130	0.111600	0.797660
C551	C55	0.962790	0.176300	0.799580
C561	C56	0.758530	0.996800	0.741060
C571	C57	0.194260	0.446200	0.930520
C581	C58	0.233760	0.480500	0.991720
C591	C59	0.291860	0.559900	0.014520
C601	C60	0.307690	0.603300	0.975980
C611	C61	0.265370	0.562300	0.914540
C621	C62	0.405800	0.550600	0.106400
C631	C63	0.447680	0.587600	0.172360
C641	C64	0.516100	0.545600	0.203200
C651	C65	0.551590	0.575600	0.265980
C661	C66	0.516790	0.648500	0.297380
C671	C67	0.551160	0.677500	0.363320
C681	C68	0.444620	0.800700	0.364240
C691	C69	0.413320	0.771100	0.297840
C701	C70	0.351660	0.817600	0.267520
C711	C71	0.318330	0.788700	0.204060
C721	C72	0.346640	0.712500	0.172480
C731	C73	0.305310	0.678700	0.106420
C741	C74	0.414340	0.664000	0.203480
C751	C75	0.448960	0.695100	0.266720
C761	C76	0.587770	0.887400	0.552940
C771	C77	0.573510	0.865400	0.492420
C781	C78	0.537960	0.777400	0.456920
C791	C79	0.522970	0.714900	0.483740
C801	C80	0.538710	0.742800	0.545020
N11	N1	0.681450	0.984300	0.891700
N21	N2	0.008870	0.327900	0.579740
N31	N3	0.741990	0.097900	0.078180
N41	N4	0.879030	0.252700	0.392860
N51	N5	0.210250	0.484300	0.891700
N61	N6	0.570870	0.827900	0.579740
N71	N7	0.336190	0.597900	0.078180
N81	N8	0.513830	0.752700	0.392860
O11	O1	0.213840	0.520700	0.775280
O21	O2	0.163430	0.472600	0.674660
O31	O3	0.529690	0.840100	0.772980
O41	O4	0.485400	0.790200	0.673000
O51	O5	0.720890	0.817100	0.798980
O61	O6	0.674950	0.777300	0.698500
O71	O7	0.036800	0.493700	0.790400
O81	O8	0.985550	0.454600	0.689900
O91	O9	0.647260	0.983000	0.076520
O101	O10	0.831580	0.214900	0.078160
O111	O11	0.784010	0.138700	0.392420
O121	O12	0.979310	0.362500	0.392820
O131	O13	0.561440	0.020700	0.775280
O141	O14	0.511230	0.972600	0.674660
O151	O15	0.243290	0.340100	0.772980
O161	O16	0.187600	0.290200	0.673000
O171	O17	0.078090	0.317100	0.798980
O181	O18	0.023550	0.277300	0.698500
O191	O19	0.753600	0.993700	0.790400
O201	O20	0.704350	0.954600	0.689900
O211	O21	0.429260	0.483000	0.076520
O221	O22	0.246580	0.714900	0.078160
O231	O23	0.608410	0.638700	0.392420
O241	O24	0.413510	0.862500	0.392820
Zn51	Zn5	0.845540	0.572090	0.198800
Zn61	Zn6	0.409930	0.132810	0.331360
Zn71	Zn7	0.353260	0.072090	0.198800
Zn81	Zn8	0.921430	0.632810	0.331360
H411	H41	0.518500	0.849400	0.186000
H421	H42	0.624900	0.741400	0.187200
H431	H43	0.722300	0.832000	0.368600
H441	H44	0.617800	0.941100	0.368000
H451	H45	0.094200	0.850700	0.343600
H461	H46	0.201500	0.961100	0.348000
H471	H47	0.103000	0.898400	0.166200
H481	H48	0.994100	0.789800	0.163200
H491	H49	0.846700	0.607700	0.085000
H501	H50	0.778700	0.549600	0.982400
H511	H51	0.654000	0.341000	0.009200
H521	H52	0.723800	0.408800	0.112400
H531	H53	0.460100	0.504700	0.818400
H541	H54	0.400600	0.453900	0.713200
H551	H55	0.669500	0.129900	0.711000
H561	H56	0.724000	0.177400	0.816600
H571	H57	0.389200	0.052100	0.423000
H581	H58	0.412500	0.090700	0.524800
H591	H59	0.497900	0.346500	0.539200
H601	H60	0.473900	0.300300	0.436800
H611	H61	0.667500	0.349400	0.186000
H621	H62	0.562300	0.241400	0.187200
H631	H63	0.646300	0.332000	0.368600
H641	H64	0.750200	0.441100	0.368000
H651	H65	0.249400	0.350700	0.343600
H661	H66	0.146500	0.461100	0.348000
H671	H67	0.063200	0.398400	0.166200
H681	H68	0.169100	0.289800	0.163200
H691	H69	0.238300	0.107700	0.085000
H701	H70	0.203700	0.049600	0.982400
H711	H71	0.355200	0.841000	0.009200
H721	H72	0.388600	0.908800	0.112400
H731	H73	0.358300	0.004700	0.818400
H741	H74	0.312600	0.953900	0.713200
H751	H75	0.041500	0.629900	0.711000
H761	H76	0.092600	0.677400	0.816600
H771	H77	0.033800	0.552100	0.423000
H781	H78	0.112300	0.590700	0.524800
H791	H79	0.041300	0.846500	0.539200
H801	H80	0.962900	0.800300	0.436800
C811	C81	0.490170	0.976300	0.275540
C821	C82	0.557600	0.906100	0.277000
C831	C83	0.560040	0.846200	0.223080
C841	C84	0.623420	0.782200	0.223840
C851	C85	0.685220	0.776800	0.277840
C861	C86	0.681440	0.836100	0.331480
C871	C87	0.619090	0.900400	0.331180
C881	C88	0.755720	0.709800	0.277040
C891	C89	0.972700	0.733500	0.252200
C901	C90	0.035720	0.808500	0.253440
C911	C91	0.096630	0.860200	0.307660
C921	C92	0.160610	0.925400	0.310420
C931	C93	0.165130	0.938900	0.256860
C941	C94	0.101870	0.888400	0.202340
C951	C95	0.037210	0.823700	0.200420
C961	C96	0.241470	0.003200	0.258940
C971	C97	0.805740	0.553800	0.069480
C981	C98	0.766240	0.519500	0.008280
C991	C99	0.708140	0.440100	0.985480
C1001	C100	0.692310	0.396700	0.024020
C1011	C101	0.734630	0.437700	0.085460
C1021	C102	0.594200	0.449400	0.893600
C1031	C103	0.552320	0.412400	0.827640
C1041	C104	0.483900	0.454400	0.796800
C1051	C105	0.448410	0.424400	0.734020
C1061	C106	0.483210	0.351500	0.702620
C1071	C107	0.448840	0.322500	0.636680
C1081	C108	0.555380	0.199300	0.635760
C1091	C109	0.586680	0.228900	0.702160
C1101	C110	0.648340	0.182400	0.732480
C1111	C111	0.681670	0.211300	0.795940
C1121	C112	0.653360	0.287500	0.827520
C1131	C113	0.694690	0.321300	0.893580
C1141	C114	0.585660	0.336000	0.796520
C1151	C115	0.551040	0.304900	0.733280
C1161	C116	0.412230	0.112600	0.447060
C1171	C117	0.426490	0.134600	0.507580
C1181	C118	0.462040	0.222600	0.543080
C1191	C119	0.477030	0.285100	0.516260
C1201	C120	0.461290	0.257200	0.454980
C1211	C121	0.785370	0.476300	0.275540
C1221	C122	0.719400	0.406100	0.277000
C1231	C123	0.663040	0.346200	0.223080
C1241	C124	0.600420	0.282200	0.223840
C1251	C125	0.592620	0.276800	0.277840
C1261	C126	0.650040	0.336100	0.331480
C1271	C127	0.712090	0.400400	0.331180
C1281	C128	0.521320	0.209800	0.277040
C1291	C129	0.279500	0.233500	0.252200
C1301	C130	0.217720	0.308500	0.253440
C1311	C131	0.211030	0.360200	0.307660
C1321	C132	0.149810	0.425400	0.310420
C1331	C133	0.091730	0.438900	0.256860
C1341	C134	0.100470	0.388400	0.202340
C1351	C135	0.163210	0.323700	0.200420
C1361	C136	0.017470	0.503200	0.258940
C1371	C137	0.263740	0.053800	0.069480
C1381	C138	0.242040	0.019500	0.008280
C1391	C139	0.277340	0.940100	0.985480
C1401	C140	0.331710	0.896700	0.024020
C1411	C141	0.350830	0.937700	0.085460
C1421	C142	0.299400	0.949400	0.893600
C1431	C143	0.275320	0.912400	0.827640
C1441	C144	0.312900	0.954400	0.796800
C1451	C145	0.285610	0.924400	0.734020
C1461	C146	0.219410	0.851500	0.702620
C1471	C147	0.187840	0.822500	0.636680
C1481	C148	0.080380	0.699300	0.635760
C1491	C149	0.115480	0.728900	0.702160
C1501	C150	0.084140	0.682400	0.732480
C1511	C151	0.114270	0.711300	0.795940
C1521	C152	0.174160	0.787500	0.827520
C1531	C153	0.198890	0.821300	0.893580
C1541	C154	0.210860	0.836000	0.796520
C1551	C155	0.182240	0.804900	0.733280
C1561	C156	0.034830	0.612600	0.447060
C1571	C157	0.081090	0.634600	0.507580
C1581	C158	0.081040	0.722600	0.543080
C1591	C159	0.039230	0.785100	0.516260
C1601	C160	0.993690	0.757200	0.454980
N91	N9	0.789750	0.515700	0.108300
N101	N10	0.429130	0.172100	0.420260
N111	N11	0.663810	0.402100	0.921820
N121	N12	0.486170	0.247300	0.607140
N131	N13	0.318550	0.015700	0.108300
N141	N14	0.991130	0.672100	0.420260
N151	N15	0.258010	0.902100	0.921820
N161	N16	0.120970	0.747300	0.607140
O251	O25	0.438560	0.979300	0.224720
O261	O26	0.488770	0.027400	0.325340
O271	O27	0.756710	0.659900	0.227020
O281	O28	0.812400	0.709800	0.327000
O291	O29	0.921910	0.682900	0.201020
O301	O30	0.976450	0.722700	0.301500
O311	O31	0.246400	0.006300	0.209600
O321	O32	0.295650	0.045400	0.310100
O331	O33	0.570740	0.517000	0.923480
O341	O34	0.753420	0.285100	0.921840
O351	O35	0.391590	0.361300	0.607580
O361	O36	0.586490	0.137500	0.607180
O371	O37	0.786160	0.479300	0.224720
O381	O38	0.836570	0.527400	0.325340
O391	O39	0.470310	0.159900	0.227020
O401	O40	0.514600	0.209800	0.327000
O411	O41	0.279110	0.182900	0.201020
O421	O42	0.325050	0.222700	0.301500
O431	O43	0.963200	0.506300	0.209600
O441	O44	0.014450	0.545400	0.310100
O451	O45	0.352740	0.017000	0.923480
O461	O46	0.168420	0.785100	0.921840
O471	O47	0.215990	0.861300	0.607580
O481	O48	0.020690	0.637500	0.607180
