data_OKAYAC_clean_PM
_symmetry_space_group_name_H-M	'P1'
_cell_length_a	11.658300
_cell_length_b	5.567100
_cell_length_c	22.911000
_cell_angle_alpha	90.000000
_cell_angle_beta	100.901000
_cell_angle_gamma	90.000000
_symmetry_Int_Tables_number 1

loop_
_symmetry_equiv_pos_as_xyz
'x,y,z'

loop_
_atom_site_label
_atom_site_type_symbol
_atom_site_fract_x
_atom_site_fract_y
_atom_site_fract_z
O11	O1	0.494190	0.192000	0.129070
O21	O2	0.413580	0.778000	0.109700
C11	C1	0.351400	0.108700	0.029940
C21	C2	0.278900	0.108200	0.141350
Ca11	Ca1	0.636990	0.243160	0.221350
S11	S1	0.396870	0.034230	0.105990
O31	O3	0.259740	0.085700	0.808890
O41	O4	0.263500	0.477000	0.827680
O51	O5	0.987700	0.476000	0.247020
O61	O6	0.958730	0.080800	0.255980
C31	C3	0.187900	0.376400	0.200070
H11	H1	0.185600	0.526000	0.219800
C41	C4	0.189800	0.941300	0.139740
H21	H2	0.189800	0.796100	0.118000
C51	C5	0.380600	0.332200	0.010030
H31	H3	0.418900	0.449000	0.037100
C61	C6	0.099700	0.208200	0.200730
C71	C7	0.296700	0.208700	0.909980
C81	C8	0.264800	0.988500	0.930840
H41	H4	0.225300	0.872600	0.903900
C91	C9	0.279900	0.326600	0.170620
H51	H5	0.341200	0.438900	0.170700
C101	C10	0.352400	0.380800	0.949390
H61	H6	0.371300	0.532700	0.934800
C111	C11	0.291300	0.938900	0.991800
H71	H7	0.268400	0.790900	0.006800
C121	C12	0.273400	0.262100	0.844490
C131	C13	0.100700	0.990500	0.170550
H81	H8	0.040400	0.876000	0.171100
C141	C14	0.007000	0.258900	0.237740
O71	O7	0.005810	0.692000	0.370930
O81	O8	0.086420	0.278000	0.390300
C151	C15	0.148600	0.608700	0.470060
C161	C16	0.221100	0.608200	0.358650
Ca21	Ca2	0.863010	0.743160	0.278650
S21	S2	0.103130	0.534230	0.394010
O91	O9	0.240260	0.585700	0.691110
O101	O10	0.236500	0.977000	0.672320
O111	O11	0.512300	0.976000	0.252980
O121	O12	0.541270	0.580800	0.244020
C171	C17	0.312100	0.876400	0.299930
H91	H9	0.314400	0.026000	0.280200
C181	C18	0.310200	0.441300	0.360260
H101	H10	0.310200	0.296100	0.382000
C191	C19	0.119400	0.832200	0.489970
H111	H11	0.081100	0.949000	0.462900
C201	C20	0.400300	0.708200	0.299270
C211	C21	0.203300	0.708700	0.590020
C221	C22	0.235200	0.488500	0.569160
H121	H12	0.274700	0.372600	0.596100
C231	C23	0.220100	0.826600	0.329380
H131	H13	0.158800	0.938900	0.329300
C241	C24	0.147600	0.880800	0.550610
H141	H14	0.128700	0.032700	0.565200
C251	C25	0.208700	0.438900	0.508200
H151	H15	0.231600	0.290900	0.493200
C261	C26	0.226600	0.762100	0.655510
C271	C27	0.399300	0.490500	0.329450
H161	H16	0.459600	0.376000	0.328900
C281	C28	0.493000	0.758900	0.262260
O131	O13	0.505810	0.808000	0.870930
O141	O14	0.586420	0.222000	0.890300
C291	C29	0.648600	0.891300	0.970060
C301	C30	0.721100	0.891800	0.858650
Ca31	Ca3	0.363010	0.756840	0.778650
S31	S3	0.603130	0.965770	0.894010
O151	O15	0.740260	0.914300	0.191110
O161	O16	0.736500	0.523000	0.172320
O171	O17	0.012300	0.524000	0.752980
O181	O18	0.041270	0.919200	0.744020
C311	C31	0.812100	0.623600	0.799930
H171	H17	0.814400	0.474000	0.780200
C321	C32	0.810200	0.058700	0.860260
H181	H18	0.810200	0.203900	0.882000
C331	C33	0.619400	0.667800	0.989970
H191	H19	0.581100	0.551000	0.962900
C341	C34	0.900300	0.791800	0.799270
C351	C35	0.703300	0.791300	0.090020
C361	C36	0.735200	0.011500	0.069160
H201	H20	0.774700	0.127400	0.096100
C371	C37	0.720100	0.673400	0.829380
H211	H21	0.658800	0.561100	0.829300
C381	C38	0.647600	0.619200	0.050610
H221	H22	0.628700	0.467300	0.065200
C391	C39	0.708700	0.061100	0.008200
H231	H23	0.731600	0.209100	0.993200
C401	C40	0.726600	0.737900	0.155510
C411	C41	0.899300	0.009500	0.829450
H241	H24	0.959600	0.124000	0.828900
C421	C42	0.993000	0.741100	0.762260
O191	O19	0.994190	0.308000	0.629070
O201	O20	0.913580	0.722000	0.609700
C431	C43	0.851400	0.391300	0.529940
C441	C44	0.778900	0.391800	0.641350
Ca41	Ca4	0.136990	0.256840	0.721350
S41	S4	0.896870	0.465770	0.605990
O211	O21	0.759740	0.414300	0.308890
O221	O22	0.763500	0.023000	0.327680
O231	O23	0.487700	0.024000	0.747020
O241	O24	0.458730	0.419200	0.755980
C451	C45	0.687900	0.123600	0.700070
H251	H25	0.685600	0.974000	0.719800
C461	C46	0.689800	0.558700	0.639740
H261	H26	0.689800	0.703900	0.618000
C471	C47	0.880600	0.167800	0.510030
H271	H27	0.918900	0.051000	0.537100
C481	C48	0.599700	0.291800	0.700730
C491	C49	0.796700	0.291300	0.409980
C501	C50	0.764800	0.511500	0.430840
H281	H28	0.725300	0.627400	0.403900
C511	C51	0.779900	0.173400	0.670620
H291	H29	0.841200	0.061100	0.670700
C521	C52	0.852400	0.119200	0.449390
H301	H30	0.871300	0.967300	0.434800
C531	C53	0.791300	0.561100	0.491800
H311	H31	0.768400	0.709100	0.506800
C541	C54	0.773400	0.237900	0.344490
C551	C55	0.600700	0.509500	0.670550
H321	H32	0.540400	0.624000	0.671100
C561	C56	0.507000	0.241100	0.737740
