data_OKAZAD_clean_PM
_symmetry_space_group_name_H-M	'P1'
_cell_length_a	5.219500
_cell_length_b	10.569100
_cell_length_c	15.360400
_cell_angle_alpha	82.533000
_cell_angle_beta	86.657000
_cell_angle_gamma	83.000000
_symmetry_Int_Tables_number 1

loop_
_symmetry_equiv_pos_as_xyz
'x,y,z'

loop_
_atom_site_label
_atom_site_type_symbol
_atom_site_fract_x
_atom_site_fract_y
_atom_site_fract_z
C11	C1	0.981200	0.632000	0.487940
H11	H1	0.967500	0.723200	0.479600
C21	C2	0.078400	0.566000	0.566450
C31	C3	0.096000	0.431600	0.578420
C41	C4	0.183300	0.354100	0.662290
C51	C5	0.407100	0.267000	0.663440
H21	H2	0.498200	0.251400	0.609800
C61	C6	0.497500	0.203100	0.742480
H31	H3	0.653500	0.146400	0.742900
C71	C7	0.360100	0.222000	0.821100
C81	C8	0.129400	0.303400	0.819900
H41	H4	0.030300	0.313200	0.873000
C91	C9	0.044200	0.370400	0.741330
H51	H5	0.889500	0.428000	0.741200
C101	C10	0.463300	0.157900	0.907250
C111	C11	0.161700	0.640900	0.634020
C121	C12	0.392300	0.601500	0.676680
H61	H6	0.505800	0.531300	0.659000
C131	C13	0.456400	0.664200	0.744420
H71	H7	0.613000	0.636400	0.773400
C141	C14	0.292700	0.767900	0.770450
C151	C15	0.067500	0.811800	0.725380
H81	H8	0.958300	0.884600	0.741300
C161	C16	0.004400	0.748900	0.657530
H91	H9	0.852300	0.779400	0.626500
C171	C17	0.347800	0.829800	0.847980
O11	O1	0.303200	0.149190	0.973390
O21	O2	0.698500	0.120140	0.910050
O31	O3	0.187900	0.907350	0.879830
O41	O4	0.576400	0.791690	0.878770
H101	H10	0.596300	0.830400	0.921900
C181	C18	0.018800	0.368000	0.512060
H111	H11	0.032500	0.276800	0.520400
C191	C19	0.921600	0.434000	0.433550
C201	C20	0.904000	0.568400	0.421580
C211	C21	0.816700	0.645900	0.337710
C221	C22	0.592900	0.733000	0.336560
H121	H12	0.501800	0.748600	0.390200
C231	C23	0.502500	0.796900	0.257520
H131	H13	0.346500	0.853600	0.257100
C241	C24	0.639900	0.778000	0.178900
C251	C25	0.870600	0.696600	0.180100
H141	H14	0.969700	0.686800	0.127000
C261	C26	0.955800	0.629600	0.258670
H151	H15	0.110500	0.572000	0.258800
C271	C27	0.536700	0.842100	0.092750
C281	C28	0.838300	0.359100	0.365980
C291	C29	0.607700	0.398500	0.323320
H161	H16	0.494200	0.468700	0.341000
C301	C30	0.543600	0.335800	0.255580
H171	H17	0.387000	0.363600	0.226600
C311	C31	0.707300	0.232100	0.229550
C321	C32	0.932500	0.188200	0.274620
H181	H18	0.041700	0.115400	0.258700
C331	C33	0.995600	0.251100	0.342470
H191	H19	0.147700	0.220600	0.373500
C341	C34	0.652200	0.170200	0.152020
O51	O5	0.696800	0.850810	0.026610
O61	O6	0.301500	0.879860	0.089950
O71	O7	0.812100	0.092650	0.120170
O81	O8	0.423600	0.208310	0.121230
H201	H20	0.403700	0.169600	0.078100
Ca11	Ca1	0.000000	0.000000	0.000000
