data_OKELOH_clean_PM
_symmetry_space_group_name_H-M	'P1'
_cell_length_a	23.432000
_cell_length_b	9.542200
_cell_length_c	18.995800
_cell_angle_alpha	90.000000
_cell_angle_beta	125.964000
_cell_angle_gamma	90.000000
_symmetry_Int_Tables_number 1

loop_
_symmetry_equiv_pos_as_xyz
'x,y,z'

loop_
_atom_site_label
_atom_site_type_symbol
_atom_site_fract_x
_atom_site_fract_y
_atom_site_fract_z
O11	O1	0.071980	0.144100	0.836480
O21	O2	0.130600	0.946300	0.895670
O31	O3	0.039490	0.054600	0.188870
O41	O4	0.033980	0.285600	0.196740
C11	C1	0.126650	0.074700	0.892120
C21	C2	0.191290	0.162000	0.952960
C31	C3	0.235970	0.181200	0.928620
H11	H1	0.226100	0.133900	0.879800
C41	C4	0.204850	0.232000	0.026280
C51	C5	0.160720	0.217600	0.058390
C61	C6	0.148710	0.333500	0.092540
H21	H2	0.165800	0.420800	0.091300
C71	C7	0.111840	0.320700	0.128170
H31	H3	0.104000	0.399700	0.150100
C81	C8	0.086440	0.192100	0.131770
C91	C9	0.049660	0.178700	0.175510
C101	C10	0.096810	0.077400	0.096050
H41	H4	0.078900	0.990600	0.096400
C111	C11	0.133360	0.089200	0.059800
H51	H5	0.139700	0.010600	0.036200
O51	O5	0.571980	0.644100	0.836480
O61	O6	0.630600	0.446300	0.895670
O71	O7	0.539490	0.554600	0.188870
O81	O8	0.533980	0.785600	0.196740
C121	C12	0.626650	0.574700	0.892120
C131	C13	0.691290	0.662000	0.952960
C141	C14	0.735970	0.681200	0.928620
H61	H6	0.726100	0.633900	0.879800
C151	C15	0.704850	0.732000	0.026280
C161	C16	0.660720	0.717600	0.058390
C171	C17	0.648710	0.833500	0.092540
H71	H7	0.665800	0.920800	0.091300
C181	C18	0.611840	0.820700	0.128170
H81	H8	0.604000	0.899700	0.150100
C191	C19	0.586440	0.692100	0.131770
C201	C20	0.549660	0.678700	0.175510
C211	C21	0.596810	0.577400	0.096050
H91	H9	0.578900	0.490600	0.096400
C221	C22	0.633360	0.589200	0.059800
H101	H10	0.639700	0.510600	0.036200
O91	O9	0.928020	0.144100	0.663520
O101	O10	0.869400	0.946300	0.604330
O111	O11	0.960510	0.054600	0.311130
O121	O12	0.966020	0.285600	0.303260
C231	C23	0.873350	0.074700	0.607880
C241	C24	0.808710	0.162000	0.547040
C251	C25	0.764030	0.181200	0.571380
H111	H11	0.773900	0.133900	0.620200
C261	C26	0.795150	0.232000	0.473720
C271	C27	0.839280	0.217600	0.441610
C281	C28	0.851290	0.333500	0.407460
H121	H12	0.834200	0.420800	0.408700
C291	C29	0.888160	0.320700	0.371830
H131	H13	0.896000	0.399700	0.349900
C301	C30	0.913560	0.192100	0.368230
C311	C31	0.950340	0.178700	0.324490
C321	C32	0.903190	0.077400	0.403950
H141	H14	0.921100	0.990600	0.403600
C331	C33	0.866640	0.089200	0.440200
H151	H15	0.860300	0.010600	0.463800
O131	O13	0.428020	0.644100	0.663520
O141	O14	0.369400	0.446300	0.604330
O151	O15	0.460510	0.554600	0.311130
O161	O16	0.466020	0.785600	0.303260
C341	C34	0.373350	0.574700	0.607880
C351	C35	0.308710	0.662000	0.547040
C361	C36	0.264030	0.681200	0.571380
H161	H16	0.273900	0.633900	0.620200
C371	C37	0.295150	0.732000	0.473720
C381	C38	0.339280	0.717600	0.441610
C391	C39	0.351290	0.833500	0.407460
H171	H17	0.334200	0.920800	0.408700
C401	C40	0.388160	0.820700	0.371830
H181	H18	0.396000	0.899700	0.349900
C411	C41	0.413560	0.692100	0.368230
C421	C42	0.450340	0.678700	0.324490
C431	C43	0.403190	0.577400	0.403950
H191	H19	0.421100	0.490600	0.403600
C441	C44	0.366640	0.589200	0.440200
H201	H20	0.360300	0.510600	0.463800
O171	O17	0.928020	0.855900	0.163520
O181	O18	0.869400	0.053700	0.104330
O191	O19	0.960510	0.945400	0.811130
O201	O20	0.966020	0.714400	0.803260
C451	C45	0.873350	0.925300	0.107880
C461	C46	0.808710	0.838000	0.047040
C471	C47	0.764030	0.818800	0.071380
H211	H21	0.773900	0.866100	0.120200
C481	C48	0.795150	0.768000	0.973720
C491	C49	0.839280	0.782400	0.941610
C501	C50	0.851290	0.666500	0.907460
H221	H22	0.834200	0.579200	0.908700
C511	C51	0.888160	0.679300	0.871830
H231	H23	0.896000	0.600300	0.849900
C521	C52	0.913560	0.807900	0.868230
C531	C53	0.950340	0.821300	0.824490
C541	C54	0.903190	0.922600	0.903950
H241	H24	0.921100	0.009400	0.903600
C551	C55	0.866640	0.910800	0.940200
H251	H25	0.860300	0.989400	0.963800
O211	O21	0.428020	0.355900	0.163520
O221	O22	0.369400	0.553700	0.104330
O231	O23	0.460510	0.445400	0.811130
O241	O24	0.466020	0.214400	0.803260
C561	C56	0.373350	0.425300	0.107880
C571	C57	0.308710	0.338000	0.047040
C581	C58	0.264030	0.318800	0.071380
H261	H26	0.273900	0.366100	0.120200
C591	C59	0.295150	0.268000	0.973720
C601	C60	0.339280	0.282400	0.941610
C611	C61	0.351290	0.166500	0.907460
H271	H27	0.334200	0.079200	0.908700
C621	C62	0.388160	0.179300	0.871830
H281	H28	0.396000	0.100300	0.849900
C631	C63	0.413560	0.307900	0.868230
C641	C64	0.450340	0.321300	0.824490
C651	C65	0.403190	0.422600	0.903950
H291	H29	0.421100	0.509400	0.903600
C661	C66	0.366640	0.410800	0.940200
H301	H30	0.360300	0.489400	0.963800
O251	O25	0.071980	0.855900	0.336480
O261	O26	0.130600	0.053700	0.395670
O271	O27	0.039490	0.945400	0.688870
O281	O28	0.033980	0.714400	0.696740
C671	C67	0.126650	0.925300	0.392120
C681	C68	0.191290	0.838000	0.452960
C691	C69	0.235970	0.818800	0.428620
H311	H31	0.226100	0.866100	0.379800
C701	C70	0.204850	0.768000	0.526280
C711	C71	0.160720	0.782400	0.558390
C721	C72	0.148710	0.666500	0.592540
H321	H32	0.165800	0.579200	0.591300
C731	C73	0.111840	0.679300	0.628170
H331	H33	0.104000	0.600300	0.650100
C741	C74	0.086440	0.807900	0.631770
C751	C75	0.049660	0.821300	0.675510
C761	C76	0.096810	0.922600	0.596050
H341	H34	0.078900	0.009400	0.596400
C771	C77	0.133360	0.910800	0.559800
H351	H35	0.139700	0.989400	0.536200
O291	O29	0.571980	0.355900	0.336480
O301	O30	0.630600	0.553700	0.395670
O311	O31	0.539490	0.445400	0.688870
O321	O32	0.533980	0.214400	0.696740
C781	C78	0.626650	0.425300	0.392120
C791	C79	0.691290	0.338000	0.452960
C801	C80	0.735970	0.318800	0.428620
H361	H36	0.726100	0.366100	0.379800
C811	C81	0.704850	0.268000	0.526280
C821	C82	0.660720	0.282400	0.558390
C831	C83	0.648710	0.166500	0.592540
H371	H37	0.665800	0.079200	0.591300
C841	C84	0.611840	0.179300	0.628170
H381	H38	0.604000	0.100300	0.650100
C851	C85	0.586440	0.307900	0.631770
C861	C86	0.549660	0.321300	0.675510
C871	C87	0.596810	0.422600	0.596050
H391	H39	0.578900	0.509400	0.596400
C881	C88	0.633360	0.410800	0.559800
H401	H40	0.639700	0.489400	0.536200
Zn11	Zn1	0.000000	0.006200	0.750000
Zn21	Zn2	0.500000	0.506200	0.750000
Zn31	Zn3	0.000000	0.993800	0.250000
Zn41	Zn4	0.500000	0.493800	0.250000
