data_OKIJUO_charged_PM
_symmetry_space_group_name_H-M	'P1'
_cell_length_a	9.549000
_cell_length_b	12.141000
_cell_length_c	26.717000
_cell_angle_alpha	90.000000
_cell_angle_beta	90.000000
_cell_angle_gamma	90.000000
_symmetry_Int_Tables_number 1

loop_
_symmetry_equiv_pos_as_xyz
'x,y,z'

loop_
_atom_site_label
_atom_site_type_symbol
_atom_site_fract_x
_atom_site_fract_y
_atom_site_fract_z
Ag11	Ag1	0.784190	0.280300	0.993950
Ag21	Ag2	0.215810	0.280300	0.006050
Ag31	Ag3	0.784190	0.780300	0.506050
Ag41	Ag4	0.215810	0.780300	0.493950
H11	H1	0.793100	0.456700	0.180000
H21	H2	0.799000	0.452400	0.267900
H31	H3	0.687900	0.134400	0.264300
H41	H4	0.671500	0.142700	0.177900
H51	H5	0.973100	0.205200	0.302900
H61	H6	0.106500	0.078500	0.344000
H71	H7	0.807300	0.058500	0.452200
H81	H8	0.689900	0.194300	0.412300
H91	H9	0.494700	0.374400	0.308200
H101	H10	0.371600	0.511100	0.350200
H111	H11	0.682500	0.528800	0.451200
H121	H12	0.799100	0.392100	0.408600
H131	H13	0.206900	0.456700	0.820000
H141	H14	0.201000	0.452400	0.732100
H151	H15	0.312100	0.134400	0.735700
H161	H16	0.328500	0.142700	0.822100
H171	H17	0.026900	0.205200	0.697100
H181	H18	0.893500	0.078500	0.656000
H191	H19	0.192700	0.058500	0.547800
H201	H20	0.310100	0.194300	0.587700
H211	H21	0.505300	0.374400	0.691800
H221	H22	0.628400	0.511100	0.649800
H231	H23	0.317500	0.528800	0.548800
H241	H24	0.200900	0.392100	0.591400
H251	H25	0.793100	0.956700	0.320000
H261	H26	0.799000	0.952400	0.232100
H271	H27	0.687900	0.634400	0.235700
H281	H28	0.671500	0.642700	0.322100
H291	H29	0.973100	0.705200	0.197100
H301	H30	0.106500	0.578500	0.156000
H311	H31	0.807300	0.558500	0.047800
H321	H32	0.689900	0.694300	0.087700
H331	H33	0.494700	0.874400	0.191800
H341	H34	0.371600	0.011100	0.149800
H351	H35	0.682500	0.028800	0.048800
H361	H36	0.799100	0.892100	0.091400
H371	H37	0.206900	0.956700	0.680000
H381	H38	0.201000	0.952400	0.767900
H391	H39	0.312100	0.634400	0.764300
H401	H40	0.328500	0.642700	0.677900
H411	H41	0.026900	0.705200	0.802900
H421	H42	0.893500	0.578500	0.844000
H431	H43	0.192700	0.558500	0.952200
H441	H44	0.310100	0.694300	0.912300
H451	H45	0.505300	0.874400	0.808200
H461	H46	0.628400	0.011100	0.850200
H471	H47	0.317500	0.028800	0.951200
H481	H48	0.200900	0.892100	0.908600
C11	C1	0.743900	0.306200	0.116900
C21	C2	0.739400	0.301500	0.171500
C31	C3	0.771900	0.392000	0.197000
C41	C4	0.774000	0.390200	0.249700
C51	C5	0.737500	0.292200	0.273700
C61	C6	0.705900	0.200100	0.247500
C71	C7	0.700500	0.203900	0.196100
C81	C8	0.815900	0.214700	0.353400
C91	C9	0.942700	0.177500	0.333400
C101	C10	0.022000	0.102400	0.357500
C111	C11	0.970800	0.058900	0.406100
C121	C12	0.053800	0.983900	0.430100
C131	C13	0.844600	0.090400	0.423500
C141	C14	0.773200	0.169100	0.398400
C151	C15	0.658000	0.375400	0.353000
C161	C16	0.532700	0.406600	0.336700
C171	C17	0.458000	0.488000	0.362400
C181	C18	0.509400	0.533000	0.404300
C191	C19	0.429600	0.616900	0.433400
C201	C20	0.644000	0.497800	0.422500
C211	C21	0.713700	0.418100	0.396700
C221	C22	0.256100	0.306200	0.883100
C231	C23	0.260600	0.301500	0.828500
C241	C24	0.228100	0.392000	0.803000
C251	C25	0.226000	0.390200	0.750300
C261	C26	0.262500	0.292200	0.726300
C271	C27	0.294100	0.200100	0.752500
C281	C28	0.299500	0.203900	0.803900
C291	C29	0.184100	0.214700	0.646600
C301	C30	0.057300	0.177500	0.666600
C311	C31	0.978000	0.102400	0.642500
C321	C32	0.029200	0.058900	0.593900
C331	C33	0.946200	0.983900	0.569900
C341	C34	0.155400	0.090400	0.576500
C351	C35	0.226800	0.169100	0.601600
C361	C36	0.342000	0.375400	0.647000
C371	C37	0.467300	0.406600	0.663300
C381	C38	0.542000	0.488000	0.637600
C391	C39	0.490600	0.533000	0.595700
C401	C40	0.570400	0.616900	0.566600
C411	C41	0.356000	0.497800	0.577500
C421	C42	0.286300	0.418100	0.603300
C431	C43	0.743900	0.806200	0.383100
C441	C44	0.739400	0.801500	0.328500
C451	C45	0.771900	0.892000	0.303000
C461	C46	0.774000	0.890200	0.250300
C471	C47	0.737500	0.792200	0.226300
C481	C48	0.705900	0.700100	0.252500
C491	C49	0.700500	0.703900	0.303900
C501	C50	0.815900	0.714700	0.146600
C511	C51	0.942700	0.677500	0.166600
C521	C52	0.022000	0.602400	0.142500
C531	C53	0.970800	0.558900	0.093900
C541	C54	0.053800	0.483900	0.069900
C551	C55	0.844600	0.590400	0.076500
C561	C56	0.773200	0.669100	0.101600
C571	C57	0.658000	0.875400	0.147000
C581	C58	0.532700	0.906600	0.163300
C591	C59	0.458000	0.988000	0.137600
C601	C60	0.509400	0.033000	0.095700
C611	C61	0.429600	0.116900	0.066600
C621	C62	0.644000	0.997800	0.077500
C631	C63	0.713700	0.918100	0.103300
C641	C64	0.256100	0.806200	0.616900
C651	C65	0.260600	0.801500	0.671500
C661	C66	0.228100	0.892000	0.697000
C671	C67	0.226000	0.890200	0.749700
C681	C68	0.262500	0.792200	0.773700
C691	C69	0.294100	0.700100	0.747500
C701	C70	0.299500	0.703900	0.696100
C711	C71	0.184100	0.714700	0.853400
C721	C72	0.057300	0.677500	0.833400
C731	C73	0.978000	0.602400	0.857500
C741	C74	0.029200	0.558900	0.906100
C751	C75	0.946200	0.483900	0.930100
C761	C76	0.155400	0.590400	0.923500
C771	C77	0.226800	0.669100	0.898400
C781	C78	0.342000	0.875400	0.853000
C791	C79	0.467300	0.906600	0.836700
C801	C80	0.542000	0.988000	0.862400
C811	C81	0.490600	0.033000	0.904300
C821	C82	0.570400	0.116900	0.933400
C831	C83	0.356000	0.997800	0.922500
C841	C84	0.286300	0.918100	0.896700
N11	N1	0.741900	0.308800	0.075500
N21	N2	0.733300	0.295600	0.327400
N31	N3	0.121400	0.919000	0.453500
N41	N4	0.364100	0.673900	0.454700
N51	N5	0.258100	0.308800	0.924500
N61	N6	0.266700	0.295600	0.672600
N71	N7	0.878600	0.919000	0.546500
N81	N8	0.635900	0.673900	0.545300
N91	N9	0.741900	0.808800	0.424500
N101	N10	0.733300	0.795600	0.172600
N111	N11	0.121400	0.419000	0.046500
N121	N12	0.364100	0.173900	0.045300
N131	N13	0.258100	0.808800	0.575500
N141	N14	0.266700	0.795600	0.827400
N151	N15	0.878600	0.419000	0.953500
N161	N16	0.635900	0.173900	0.954700
B11	B1	0.958000	0.047500	0.869500
F11	F1	0.846700	0.108800	0.855600
F21	F2	0.041700	0.108100	0.899600
F31	F3	0.916000	0.957600	0.894600
F41	F4	0.031400	0.019000	0.828600
B21	B2	0.042000	0.047500	0.130500
F51	F5	0.153300	0.108800	0.144400
F61	F6	0.958300	0.108100	0.100400
F71	F7	0.084000	0.957600	0.105400
F81	F8	0.968600	0.019000	0.171400
B31	B3	0.958000	0.547500	0.630500
F91	F9	0.846700	0.608800	0.644400
F101	F10	0.041700	0.608100	0.600400
F111	F11	0.916000	0.457600	0.605400
F121	F12	0.031400	0.519000	0.671400
B41	B4	0.042000	0.547500	0.369500
F131	F13	0.153300	0.608800	0.355600
F141	F14	0.958300	0.608100	0.399600
F151	F15	0.084000	0.457600	0.394600
F161	F16	0.968600	0.519000	0.328600
