data_OKILEA_clean_PM
_symmetry_space_group_name_H-M	'P1'
_cell_length_a	14.232400
_cell_length_b	15.477700
_cell_length_c	15.477700
_cell_angle_alpha	68.956700
_cell_angle_beta	72.150700
_cell_angle_gamma	107.849000
_symmetry_Int_Tables_number 1

loop_
_symmetry_equiv_pos_as_xyz
'x,y,z'

loop_
_atom_site_label
_atom_site_type_symbol
_atom_site_fract_x
_atom_site_fract_y
_atom_site_fract_z
Mn11	Mn1	0.510560	0.243030	0.274840
Mn21	Mn2	0.785400	0.274840	0.482130
Mn31	Mn3	0.267530	0.482130	0.243030
Mn41	Mn4	0.489440	0.756970	0.725160
Mn51	Mn5	0.214600	0.725160	0.517870
Mn61	Mn6	0.732470	0.517870	0.756970
Mn71	Mn7	0.000000	0.500000	0.000000
Mn81	Mn8	0.000000	0.000000	0.500000
Mn91	Mn9	0.500000	0.500000	0.500000
H11	H1	0.494700	0.459400	0.918600
H21	H2	0.315600	0.408800	0.936100
H31	H3	0.177700	0.237000	0.052300
H41	H4	0.215400	0.118900	0.158300
H51	H5	0.394500	0.168200	0.140100
H61	H6	0.413300	0.918600	0.622000
H71	H7	0.251700	0.936100	0.655100
H81	H8	0.230000	0.052300	0.710700
H91	H9	0.373700	0.158300	0.722800
H101	H10	0.534600	0.140100	0.691700
H111	H11	0.035300	0.622000	0.459400
H121	H12	0.906800	0.655100	0.408800
H131	H13	0.940700	0.710700	0.237000
H141	H14	0.096500	0.722800	0.118900
H151	H15	0.226300	0.691700	0.168200
H161	H16	0.505300	0.540600	0.081400
H171	H17	0.684400	0.591200	0.063900
H181	H18	0.822300	0.763000	0.947700
H191	H19	0.784600	0.881100	0.841700
H201	H20	0.605500	0.831800	0.859900
H211	H21	0.586700	0.081400	0.378000
H221	H22	0.748300	0.063900	0.344900
H231	H23	0.770000	0.947700	0.289300
H241	H24	0.626300	0.841700	0.277200
H251	H25	0.465400	0.859900	0.308300
H261	H26	0.964700	0.378000	0.540600
H271	H27	0.093200	0.344900	0.591200
H281	H28	0.059300	0.289300	0.763000
H291	H29	0.903500	0.277200	0.881100
H301	H30	0.773700	0.308300	0.831800
C11	C1	0.871380	0.493920	0.866690
C21	C2	0.755670	0.422890	0.953070
C31	C3	0.708350	0.358540	0.060860
C41	C4	0.753300	0.330710	0.136110
C51	C5	0.576070	0.349600	0.018830
C61	C6	0.463110	0.318930	0.028150
C71	C7	0.438990	0.390870	0.966530
C81	C8	0.331650	0.360330	0.976670
C91	C9	0.248720	0.257750	0.047190
C101	C10	0.271780	0.187090	0.109250
C111	C11	0.379120	0.216990	0.099070
C121	C12	0.738070	0.866690	0.639390
C131	C13	0.708740	0.953070	0.624040
C141	C14	0.769210	0.060860	0.580600
C151	C15	0.889410	0.136110	0.533180
C161	C16	0.594900	0.018830	0.631570
C171	C17	0.491260	0.028150	0.652920
C181	C18	0.405520	0.966530	0.642600
C191	C19	0.308320	0.976670	0.663000
C201	C20	0.295910	0.047190	0.695060
C211	C21	0.381030	0.109250	0.703660
C221	C22	0.478190	0.099070	0.683940
C231	C23	0.377460	0.639390	0.493920
C241	C24	0.332780	0.624040	0.422890
C251	C25	0.349810	0.580600	0.358540
C261	C26	0.422590	0.533180	0.330710
C271	C27	0.226470	0.631570	0.349600
C281	C28	0.144180	0.652920	0.318930
C291	C29	0.048120	0.642600	0.390870
C301	C30	0.971320	0.663000	0.360330
C311	C31	0.990970	0.695060	0.257750
C321	C32	0.084690	0.703660	0.187090
C331	C33	0.162130	0.683940	0.216990
C341	C34	0.128620	0.506080	0.133310
C351	C35	0.244330	0.577110	0.046930
C361	C36	0.291650	0.641460	0.939140
C371	C37	0.246700	0.669290	0.863890
C381	C38	0.423930	0.650400	0.981170
C391	C39	0.536890	0.681070	0.971850
C401	C40	0.561010	0.609130	0.033470
C411	C41	0.668350	0.639670	0.023330
C421	C42	0.751280	0.742250	0.952810
C431	C43	0.728220	0.812910	0.890750
C441	C44	0.620880	0.783010	0.900930
C451	C45	0.261930	0.133310	0.360610
C461	C46	0.291260	0.046930	0.375960
C471	C47	0.230790	0.939140	0.419400
C481	C48	0.110590	0.863890	0.466820
C491	C49	0.405100	0.981170	0.368430
C501	C50	0.508740	0.971850	0.347080
C511	C51	0.594480	0.033470	0.357400
C521	C52	0.691680	0.023330	0.337000
C531	C53	0.704090	0.952810	0.304940
C541	C54	0.618970	0.890750	0.296340
C551	C55	0.521810	0.900930	0.316060
C561	C56	0.622540	0.360610	0.506080
C571	C57	0.667220	0.375960	0.577110
C581	C58	0.650190	0.419400	0.641460
C591	C59	0.577410	0.466820	0.669290
C601	C60	0.773530	0.368430	0.650400
C611	C61	0.855820	0.347080	0.681070
C621	C62	0.951880	0.357400	0.609130
C631	C63	0.028680	0.337000	0.639670
C641	C64	0.009030	0.304940	0.742250
C651	C65	0.915310	0.296340	0.812910
C661	C66	0.837870	0.316060	0.783010
N11	N1	0.594400	0.313180	0.101720
N21	N2	0.670320	0.416310	0.927380
N31	N3	0.696120	0.101720	0.585100
N41	N4	0.597700	0.927380	0.656310
N51	N5	0.281220	0.585100	0.313180
N61	N6	0.254010	0.656310	0.416310
N71	N7	0.405600	0.686820	0.898280
N81	N8	0.329680	0.583690	0.072620
N91	N9	0.303880	0.898280	0.414900
N101	N10	0.402300	0.072620	0.343690
N111	N11	0.718780	0.414900	0.686820
N121	N12	0.745990	0.343690	0.583690
O11	O1	0.955290	0.509260	0.880230
O21	O2	0.880350	0.538520	0.775840
O31	O3	0.854600	0.353810	0.103920
O41	O4	0.684100	0.281230	0.231620
O51	O5	0.835520	0.880230	0.610510
O61	O6	0.656190	0.775840	0.685640
O71	O7	0.958520	0.103920	0.542270
O81	O8	0.915720	0.231620	0.487150
O91	O9	0.446030	0.610510	0.509260
O101	O10	0.341830	0.685640	0.538520
O111	O11	0.500790	0.542270	0.353810
O121	O12	0.402870	0.487150	0.281230
O131	O13	0.044710	0.490740	0.119770
O141	O14	0.119650	0.461480	0.224160
O151	O15	0.145400	0.646190	0.896080
O161	O16	0.315900	0.718770	0.768380
O171	O17	0.164480	0.119770	0.389490
O181	O18	0.343810	0.224160	0.314360
O191	O19	0.041480	0.896080	0.457730
O201	O20	0.084280	0.768380	0.512850
O211	O21	0.553970	0.389490	0.490740
O221	O22	0.658170	0.314360	0.461480
O231	O23	0.499210	0.457730	0.646190
O241	O24	0.597130	0.512850	0.718770
