data_OKINIG_clean_PM
_symmetry_space_group_name_H-M	'P1'
_cell_length_a	9.477800
_cell_length_b	9.953800
_cell_length_c	17.692000
_cell_angle_alpha	90.000000
_cell_angle_beta	90.000000
_cell_angle_gamma	104.419000
_symmetry_Int_Tables_number 1

loop_
_symmetry_equiv_pos_as_xyz
'x,y,z'

loop_
_atom_site_label
_atom_site_type_symbol
_atom_site_fract_x
_atom_site_fract_y
_atom_site_fract_z
Li11	Li1	0.780300	0.949100	0.740900
Li21	Li2	0.870800	0.807000	0.861900
Li31	Li3	0.972900	0.553600	0.592700
Li41	Li4	0.972800	0.047800	0.519800
Li51	Li5	0.137800	0.344200	0.540700
Li61	Li6	0.133200	0.829300	0.516800
Li71	Li7	0.134700	0.703800	0.757500
Li81	Li8	0.219700	0.050900	0.240900
Li91	Li9	0.129200	0.193000	0.361900
Li101	Li10	0.027100	0.446400	0.092700
Li111	Li11	0.027200	0.952200	0.019800
Li121	Li12	0.862200	0.655800	0.040700
Li131	Li13	0.866800	0.170700	0.016800
Li141	Li14	0.865300	0.296200	0.257500
H11	H1	0.829600	0.555600	0.911100
H21	H2	0.746200	0.652800	0.919600
H31	H3	0.701600	0.504000	0.661300
H41	H4	0.675300	0.582200	0.550500
H51	H5	0.550400	0.766600	0.532800
H61	H6	0.427000	0.528800	0.548500
H71	H7	0.459200	0.430200	0.652500
H81	H8	0.564600	0.571200	0.762500
H91	H9	0.546500	0.803000	0.758700
H101	H10	0.549900	0.906900	0.640200
H111	H11	0.543500	0.074400	0.957500
H121	H12	0.568300	0.983700	0.065600
H131	H13	0.446800	0.745100	0.085400
H141	H14	0.316200	0.920500	0.065400
H151	H15	0.305100	0.005400	0.954300
H161	H16	0.433000	0.926600	0.852000
H171	H17	0.445600	0.693300	0.860200
H181	H18	0.451000	0.599200	0.981000
H191	H19	0.170400	0.444400	0.411100
H201	H20	0.253800	0.347200	0.419600
H211	H21	0.298400	0.496000	0.161300
H221	H22	0.324700	0.417800	0.050500
H231	H23	0.449600	0.233400	0.032800
H241	H24	0.573000	0.471200	0.048500
H251	H25	0.540800	0.569800	0.152500
H261	H26	0.435400	0.428800	0.262500
H271	H27	0.453500	0.197000	0.258700
H281	H28	0.450100	0.093100	0.140200
H291	H29	0.456500	0.925600	0.457500
H301	H30	0.431700	0.016300	0.565600
H311	H31	0.553200	0.254900	0.585400
H321	H32	0.683800	0.079500	0.565400
H331	H33	0.694900	0.994600	0.454300
H341	H34	0.567000	0.073400	0.352000
H351	H35	0.554400	0.306700	0.360200
H361	H36	0.549000	0.400800	0.481000
C11	C1	0.702800	0.602200	0.667080
C21	C2	0.691100	0.661100	0.585400
C31	C3	0.553700	0.718800	0.580900
C41	C4	0.420100	0.593600	0.589200
C51	C5	0.433900	0.517200	0.665000
C61	C6	0.562500	0.608100	0.711300
C71	C7	0.842700	0.671100	0.709800
C81	C8	0.829300	0.765200	0.559700
C91	C9	0.274800	0.631200	0.578820
C101	C10	0.296600	0.481600	0.713900
C111	C11	0.552100	0.756200	0.713700
C121	C12	0.551500	0.814500	0.646400
C131	C13	0.566900	0.985500	0.947700
C141	C14	0.576800	0.915700	0.026900
C151	C15	0.443600	0.790000	0.036400
C161	C16	0.305300	0.843500	0.029600
C171	C17	0.298200	0.906100	0.947900
C181	C18	0.435600	0.893200	0.903900
C191	C19	0.708700	0.016900	0.903400
C201	C20	0.720000	0.877200	0.041000
C211	C21	0.167200	0.734400	0.052600
C221	C22	0.157700	0.844600	0.904900
C231	C23	0.443400	0.743800	0.904300
C241	C24	0.446900	0.690500	0.972900
C251	C25	0.297200	0.397800	0.167080
C261	C26	0.308900	0.338900	0.085400
C271	C27	0.446300	0.281200	0.080900
C281	C28	0.579900	0.406400	0.089200
C291	C29	0.566100	0.482800	0.165000
C301	C30	0.437500	0.391900	0.211300
C311	C31	0.157300	0.328900	0.209800
C321	C32	0.170700	0.234800	0.059700
C331	C33	0.725200	0.368800	0.078820
C341	C34	0.703400	0.518400	0.213900
C351	C35	0.447900	0.243800	0.213700
C361	C36	0.448500	0.185500	0.146400
C371	C37	0.433100	0.014500	0.447700
C381	C38	0.423200	0.084300	0.526900
C391	C39	0.556400	0.210000	0.536400
C401	C40	0.694700	0.156500	0.529600
C411	C41	0.701800	0.093900	0.447900
C421	C42	0.564400	0.106800	0.403900
C431	C43	0.291300	0.983100	0.403400
C441	C44	0.280000	0.122800	0.541000
C451	C45	0.832800	0.265600	0.552600
C461	C46	0.842300	0.155400	0.404900
C471	C47	0.556600	0.256200	0.404300
C481	C48	0.553100	0.309500	0.472900
O11	O1	0.846100	0.771300	0.752770
O21	O2	0.950500	0.618700	0.699700
O31	O3	0.935000	0.715000	0.537500
O41	O4	0.835100	0.891100	0.559730
O51	O5	0.163500	0.529900	0.573760
O61	O6	0.270500	0.755400	0.573670
O71	O7	0.244600	0.575200	0.739340
O81	O8	0.246300	0.355400	0.730600
O91	O9	0.739300	0.926600	0.861660
O101	O10	0.793300	0.139200	0.911100
O111	O11	0.836200	0.975400	0.038300
O121	O12	0.719500	0.754500	0.056320
O131	O13	0.170300	0.611800	0.062640
O141	O14	0.052700	0.779100	0.061520
O151	O15	0.143800	0.735500	0.867140
O161	O16	0.057400	0.909100	0.910260
O171	O17	0.837700	0.637000	0.921500
O181	O18	0.153900	0.228700	0.252770
O191	O19	0.049500	0.381300	0.199700
O201	O20	0.065000	0.285000	0.037500
O211	O21	0.164900	0.108900	0.059730
O221	O22	0.836500	0.470100	0.073760
O231	O23	0.729500	0.244600	0.073670
O241	O24	0.755400	0.424800	0.239340
O251	O25	0.753700	0.644600	0.230600
O261	O26	0.260700	0.073400	0.361660
O271	O27	0.206700	0.860800	0.411100
O281	O28	0.163800	0.024600	0.538300
O291	O29	0.280500	0.245500	0.556320
O301	O30	0.829700	0.388200	0.562640
O311	O31	0.947300	0.220900	0.561520
O321	O32	0.856200	0.264500	0.367140
O331	O33	0.942600	0.090900	0.410260
O341	O34	0.162300	0.363000	0.421500
