data_OKITAE_clean_PM
_symmetry_space_group_name_H-M	'P1'
_cell_length_a	7.130100
_cell_length_b	9.622700
_cell_length_c	16.762500
_cell_angle_alpha	90.000000
_cell_angle_beta	90.000000
_cell_angle_gamma	90.000000
_symmetry_Int_Tables_number 1

loop_
_symmetry_equiv_pos_as_xyz
'x,y,z'

loop_
_atom_site_label
_atom_site_type_symbol
_atom_site_fract_x
_atom_site_fract_y
_atom_site_fract_z
Cd11	Cd1	0.707100	0.282590	0.656970
Cd21	Cd2	0.957600	0.499520	0.500240
Cd31	Cd3	0.207100	0.717410	0.343030
Cd41	Cd4	0.457600	0.500480	0.499760
Cd51	Cd5	0.707100	0.782590	0.843030
Cd61	Cd6	0.957600	0.999520	0.999760
Cd71	Cd7	0.207100	0.217410	0.156970
Cd81	Cd8	0.457600	0.000480	0.000240
H11	H1	0.733000	0.298000	0.502000
H21	H2	0.062000	0.099200	0.758200
H31	H3	0.251300	0.035300	0.728000
H41	H4	0.253200	0.152400	0.793000
H51	H5	0.233000	0.702000	0.498000
H61	H6	0.562000	0.900800	0.241800
H71	H7	0.751300	0.964700	0.272000
H81	H8	0.753200	0.847600	0.207000
H91	H9	0.733000	0.798000	0.998000
H101	H10	0.062000	0.599200	0.741800
H111	H11	0.251300	0.535300	0.772000
H121	H12	0.253200	0.652400	0.707000
H131	H13	0.233000	0.202000	0.002000
H141	H14	0.562000	0.400800	0.258200
H151	H15	0.751300	0.464700	0.228000
H161	H16	0.753200	0.347600	0.293000
C11	C1	0.201000	0.225900	0.682400
C21	C2	0.190900	0.118700	0.746000
C31	C3	0.701000	0.774100	0.317600
C41	C4	0.690900	0.881300	0.254000
C51	C5	0.201000	0.725900	0.817600
C61	C6	0.190900	0.618700	0.754000
C71	C7	0.701000	0.274100	0.182400
C81	C8	0.690900	0.381300	0.246000
S11	S1	0.705200	0.143210	0.848280
S21	S2	0.205200	0.856790	0.151720
S31	S3	0.705200	0.643210	0.651720
S41	S4	0.205200	0.356790	0.348280
N11	N1	0.046500	0.282100	0.649100
N21	N2	0.124300	0.368100	0.592100
N31	N3	0.306300	0.368900	0.595800
N41	N4	0.358000	0.278500	0.649500
N51	N5	0.546500	0.717900	0.350900
N61	N6	0.624300	0.631900	0.407900
N71	N7	0.806300	0.631100	0.404200
N81	N8	0.858000	0.721500	0.350500
N91	N9	0.046500	0.782100	0.850900
N101	N10	0.124300	0.868100	0.907900
N111	N11	0.306300	0.868900	0.904200
N121	N12	0.358000	0.778500	0.850500
N131	N13	0.546500	0.217900	0.149100
N141	N14	0.624300	0.131900	0.092100
N151	N15	0.806300	0.131100	0.095800
N161	N16	0.858000	0.221500	0.149500
O11	O1	0.717000	0.259300	0.791600
O21	O2	0.724000	0.011100	0.804800
O31	O3	0.535600	0.151800	0.900800
O41	O4	0.870800	0.152500	0.897100
O51	O5	0.697000	0.365500	0.530300
O61	O6	0.217000	0.740700	0.208400
O71	O7	0.224000	0.988900	0.195200
O81	O8	0.035600	0.848200	0.099200
O91	O9	0.370800	0.847500	0.102900
O101	O10	0.197000	0.634500	0.469700
O111	O11	0.717000	0.759300	0.708400
O121	O12	0.724000	0.511100	0.695200
O131	O13	0.535600	0.651800	0.599200
O141	O14	0.870800	0.652500	0.602900
O151	O15	0.697000	0.865500	0.969700
O161	O16	0.217000	0.240700	0.291600
O171	O17	0.224000	0.488900	0.304800
O181	O18	0.035600	0.348200	0.400800
O191	O19	0.370800	0.347500	0.397100
O201	O20	0.197000	0.134500	0.030300
