data_OKITIM_charged_PM
_symmetry_space_group_name_H-M	'P1'
_cell_length_a	15.826000
_cell_length_b	15.826000
_cell_length_c	21.639000
_cell_angle_alpha	90.000000
_cell_angle_beta	90.000000
_cell_angle_gamma	90.000000
_symmetry_Int_Tables_number 1

loop_
_symmetry_equiv_pos_as_xyz
'x,y,z'

loop_
_atom_site_label
_atom_site_type_symbol
_atom_site_fract_x
_atom_site_fract_y
_atom_site_fract_z
Cd11	Cd1	0.058030	0.941970	0.250000
Cd21	Cd2	0.941970	0.058030	0.750000
Cd31	Cd3	0.558030	0.558030	0.500000
Cd41	Cd4	0.441970	0.441970	0.000000
H11	H1	0.536400	0.611100	0.349200
H21	H2	0.583700	0.717300	0.285600
H31	H3	0.786600	0.742800	0.396400
H41	H4	0.724600	0.642200	0.461600
H51	H5	0.651900	0.796000	0.219000
H61	H6	0.704400	0.907300	0.164200
H71	H7	0.803200	0.000800	0.205800
H81	H8	0.797800	0.863900	0.364900
H91	H9	0.046400	0.118900	0.460700
H101	H10	0.065100	0.231300	0.530300
H111	H11	0.962400	0.333100	0.539000
H121	H12	0.825100	0.222600	0.405500
H131	H13	0.766300	0.347500	0.392000
H141	H14	0.662200	0.444500	0.406300
H151	H15	0.737600	0.490200	0.574700
H161	H16	0.846600	0.394400	0.564900
H171	H17	0.749800	0.030700	0.405600
H181	H18	0.735600	0.083800	0.350000
H191	H19	0.463600	0.388900	0.849200
H201	H20	0.416300	0.282700	0.785600
H211	H21	0.213400	0.257200	0.896400
H221	H22	0.275400	0.357800	0.961600
H231	H23	0.348100	0.204000	0.719000
H241	H24	0.295600	0.092700	0.664200
H251	H25	0.196800	0.999200	0.705800
H261	H26	0.202200	0.136100	0.864900
H271	H27	0.953600	0.881100	0.960700
H281	H28	0.934900	0.768700	0.030300
H291	H29	0.037600	0.666900	0.039000
H301	H30	0.174900	0.777400	0.905500
H311	H31	0.233700	0.652500	0.892000
H321	H32	0.337800	0.555500	0.906300
H331	H33	0.262400	0.509800	0.074700
H341	H34	0.153400	0.605600	0.064900
H351	H35	0.250200	0.969300	0.905600
H361	H36	0.264400	0.916200	0.850000
H371	H37	0.888900	0.036400	0.599200
H381	H38	0.782700	0.083700	0.535600
H391	H39	0.757200	0.286600	0.646400
H401	H40	0.857800	0.224600	0.711600
H411	H41	0.704000	0.151900	0.469000
H421	H42	0.592700	0.204400	0.414200
H431	H43	0.499200	0.303200	0.455800
H441	H44	0.636100	0.297800	0.614900
H451	H45	0.381100	0.546400	0.710700
H461	H46	0.268700	0.565100	0.780300
H471	H47	0.166900	0.462400	0.789000
H481	H48	0.277400	0.325100	0.655500
H491	H49	0.152500	0.266300	0.642000
H501	H50	0.055500	0.162200	0.656300
H511	H51	0.009800	0.237600	0.824700
H521	H52	0.105600	0.346600	0.814900
H531	H53	0.469300	0.249800	0.655600
H541	H54	0.416200	0.235600	0.600000
H551	H55	0.111100	0.963600	0.099200
H561	H56	0.217300	0.916300	0.035600
H571	H57	0.242800	0.713400	0.146400
H581	H58	0.142200	0.775400	0.211600
H591	H59	0.296000	0.848100	0.969000
H601	H60	0.407300	0.795600	0.914200
H611	H61	0.500800	0.696800	0.955800
H621	H62	0.363900	0.702200	0.114900
H631	H63	0.618900	0.453600	0.210700
H641	H64	0.731300	0.434900	0.280300
H651	H65	0.833100	0.537600	0.289000
H661	H66	0.722600	0.674900	0.155500
H671	H67	0.847500	0.733700	0.142000
H681	H68	0.944500	0.837800	0.156300
H691	H69	0.990200	0.762400	0.324700
H701	H70	0.894400	0.653400	0.314900
H711	H71	0.530700	0.750200	0.155600
H721	H72	0.583800	0.764400	0.100000
H731	H73	0.963600	0.111100	0.900800
H741	H74	0.916300	0.217300	0.964400
H751	H75	0.713400	0.242800	0.853600
H761	H76	0.775400	0.142200	0.788400
H771	H77	0.848100	0.296000	0.031000
H781	H78	0.795600	0.407300	0.085800
H791	H79	0.696800	0.500800	0.044200
H801	H80	0.702200	0.363900	0.885100
H811	H81	0.453600	0.618900	0.789300
H821	H82	0.434900	0.731300	0.719700
H831	H83	0.537600	0.833100	0.711000
H841	H84	0.674900	0.722600	0.844500
H851	H85	0.733700	0.847500	0.858000
H861	H86	0.837800	0.944500	0.843700
H871	H87	0.762400	0.990200	0.675300
H881	H88	0.653400	0.894400	0.685100
H891	H89	0.750200	0.530700	0.844400
H901	H90	0.764400	0.583800	0.900000
H911	H91	0.036400	0.888900	0.400800
H921	H92	0.083700	0.782700	0.464400
H931	H93	0.286600	0.757200	0.353600
H941	H94	0.224600	0.857800	0.288400
H951	H95	0.151900	0.704000	0.531000
H961	H96	0.204400	0.592700	0.585800
H971	H97	0.303200	0.499200	0.544200
H981	H98	0.297800	0.636100	0.385100
H991	H99	0.546400	0.381100	0.289300
H1001	H100	0.565100	0.268700	0.219700
H1011	H101	0.462400	0.166900	0.211000
H1021	H102	0.325100	0.277400	0.344500
H1031	H103	0.266300	0.152500	0.358000
H1041	H104	0.162200	0.055500	0.343700
H1051	H105	0.237600	0.009800	0.175300
H1061	H106	0.346600	0.105600	0.185100
H1071	H107	0.249800	0.469300	0.344400
H1081	H108	0.235600	0.416200	0.400000
H1091	H109	0.611100	0.536400	0.650800
H1101	H110	0.717300	0.583700	0.714400
H1111	H111	0.742800	0.786600	0.603600
H1121	H112	0.642200	0.724600	0.538400
H1131	H113	0.796000	0.651900	0.781000
H1141	H114	0.907300	0.704400	0.835800
H1151	H115	0.000800	0.803200	0.794200
H1161	H116	0.863900	0.797800	0.635100
H1171	H117	0.118900	0.046400	0.539300
H1181	H118	0.231300	0.065100	0.469700
H1191	H119	0.333100	0.962400	0.461000
H1201	H120	0.222600	0.825100	0.594500
H1211	H121	0.347500	0.766300	0.608000
H1221	H122	0.444500	0.662200	0.593700
H1231	H123	0.490200	0.737600	0.425300
H1241	H124	0.394400	0.846600	0.435100
H1251	H125	0.030700	0.749800	0.594400
H1261	H126	0.083800	0.735600	0.650000
H1271	H127	0.388900	0.463600	0.150800
H1281	H128	0.282700	0.416300	0.214400
H1291	H129	0.257200	0.213400	0.103600
H1301	H130	0.357800	0.275400	0.038400
H1311	H131	0.204000	0.348100	0.281000
H1321	H132	0.092700	0.295600	0.335800
H1331	H133	0.999200	0.196800	0.294200
H1341	H134	0.136100	0.202200	0.135100
H1351	H135	0.881100	0.953600	0.039300
H1361	H136	0.768700	0.934900	0.969700
H1371	H137	0.666900	0.037600	0.961000
H1381	H138	0.777400	0.174900	0.094500
H1391	H139	0.652500	0.233700	0.108000
H1401	H140	0.555500	0.337800	0.093700
H1411	H141	0.509800	0.262400	0.925300
H1421	H142	0.605600	0.153400	0.935100
H1431	H143	0.969300	0.250200	0.094400
H1441	H144	0.916200	0.264400	0.150000
C11	C1	0.586300	0.640600	0.360500
C21	C2	0.615000	0.703500	0.321700
C31	C3	0.688100	0.746300	0.334600
C41	C4	0.732900	0.719700	0.386800
C51	C5	0.695800	0.657500	0.424700
C61	C6	0.719300	0.819500	0.298800
C71	C7	0.692000	0.832900	0.237400
C81	C8	0.723500	0.898800	0.205300
C91	C9	0.782400	0.954600	0.229200
C101	C10	0.810000	0.939300	0.290800
C111	C11	0.778500	0.873100	0.323900
C121	C12	0.872200	0.996300	0.320500
C131	C13	0.924300	0.090900	0.381800
C141	C14	0.932100	0.161500	0.426900
C151	C15	0.005300	0.162500	0.464000
C161	C16	0.016000	0.228500	0.505100
C171	C17	0.955300	0.289600	0.509200
C181	C18	0.884600	0.291700	0.472700
C191	C19	0.873900	0.224300	0.431100
C201	C20	0.819300	0.358000	0.478300
C211	C21	0.761700	0.375800	0.430600
C221	C22	0.699500	0.433500	0.439800
C231	C23	0.742900	0.460200	0.536900
C241	C24	0.808700	0.402600	0.531400
C251	C25	0.413700	0.359400	0.860500
C261	C26	0.385000	0.296500	0.821700
C271	C27	0.311900	0.253700	0.834600
C281	C28	0.267100	0.280300	0.886800
C291	C29	0.304200	0.342500	0.924700
C301	C30	0.280700	0.180500	0.798800
C311	C31	0.308000	0.167100	0.737400
C321	C32	0.276500	0.101200	0.705300
C331	C33	0.217600	0.045400	0.729200
C341	C34	0.190000	0.060700	0.790800
C351	C35	0.221500	0.126900	0.823900
C361	C36	0.127800	0.003700	0.820500
C371	C37	0.075700	0.909100	0.881800
C381	C38	0.067900	0.838500	0.926900
C391	C39	0.994700	0.837500	0.964000
C401	C40	0.984000	0.771500	0.005100
C411	C41	0.044700	0.710400	0.009200
C421	C42	0.115400	0.708300	0.972700
C431	C43	0.126100	0.775700	0.931100
C441	C44	0.180700	0.642000	0.978300
C451	C45	0.238300	0.624200	0.930600
C461	C46	0.300500	0.566500	0.939800
C471	C47	0.257100	0.539800	0.036900
C481	C48	0.191300	0.597400	0.031400
C491	C49	0.859400	0.086300	0.610500
C501	C50	0.796500	0.115000	0.571700
C511	C51	0.753700	0.188100	0.584600
C521	C52	0.780300	0.232900	0.636800
C531	C53	0.842500	0.195800	0.674700
C541	C54	0.680500	0.219300	0.548800
C551	C55	0.667100	0.192000	0.487400
C561	C56	0.601200	0.223500	0.455300
C571	C57	0.545400	0.282400	0.479200
C581	C58	0.560700	0.310000	0.540800
C591	C59	0.626900	0.278500	0.573900
C601	C60	0.503700	0.372200	0.570500
C611	C61	0.409100	0.424300	0.631800
C621	C62	0.338500	0.432100	0.676900
C631	C63	0.337500	0.505300	0.714000
C641	C64	0.271500	0.516000	0.755100
C651	C65	0.210400	0.455300	0.759200
C661	C66	0.208300	0.384600	0.722700
C671	C67	0.275700	0.373900	0.681100
C681	C68	0.142000	0.319300	0.728300
C691	C69	0.124200	0.261700	0.680600
C701	C70	0.066500	0.199500	0.689800
C711	C71	0.039800	0.242900	0.786900
C721	C72	0.097400	0.308700	0.781400
C731	C73	0.140600	0.913700	0.110500
C741	C74	0.203500	0.885000	0.071700
C751	C75	0.246300	0.811900	0.084600
C761	C76	0.219700	0.767100	0.136800
C771	C77	0.157500	0.804200	0.174700
C781	C78	0.319500	0.780700	0.048800
C791	C79	0.332900	0.808000	0.987400
C801	C80	0.398800	0.776500	0.955300
C811	C81	0.454600	0.717600	0.979200
C821	C82	0.439300	0.690000	0.040800
C831	C83	0.373100	0.721500	0.073900
C841	C84	0.496300	0.627800	0.070500
C851	C85	0.590900	0.575700	0.131800
C861	C86	0.661500	0.567900	0.176900
C871	C87	0.662500	0.494700	0.214000
C881	C88	0.728500	0.484000	0.255100
C891	C89	0.789600	0.544700	0.259200
C901	C90	0.791700	0.615400	0.222700
C911	C91	0.724300	0.626100	0.181100
C921	C92	0.858000	0.680700	0.228300
C931	C93	0.875800	0.738300	0.180600
C941	C94	0.933500	0.800500	0.189800
C951	C95	0.960200	0.757100	0.286900
C961	C96	0.902600	0.691300	0.281400
C971	C97	0.913700	0.140600	0.889500
C981	C98	0.885000	0.203500	0.928300
C991	C99	0.811900	0.246300	0.915400
C1001	C100	0.767100	0.219700	0.863200
C1011	C101	0.804200	0.157500	0.825300
C1021	C102	0.780700	0.319500	0.951200
C1031	C103	0.808000	0.332900	0.012600
C1041	C104	0.776500	0.398800	0.044700
C1051	C105	0.717600	0.454600	0.020800
C1061	C106	0.690000	0.439300	0.959200
C1071	C107	0.721500	0.373100	0.926100
C1081	C108	0.627800	0.496300	0.929500
C1091	C109	0.575700	0.590900	0.868200
C1101	C110	0.567900	0.661500	0.823100
C1111	C111	0.494700	0.662500	0.786000
C1121	C112	0.484000	0.728500	0.744900
C1131	C113	0.544700	0.789600	0.740800
C1141	C114	0.615400	0.791700	0.777300
C1151	C115	0.626100	0.724300	0.818900
C1161	C116	0.680700	0.858000	0.771700
C1171	C117	0.738300	0.875800	0.819400
C1181	C118	0.800500	0.933500	0.810200
C1191	C119	0.757100	0.960200	0.713100
C1201	C120	0.691300	0.902600	0.718600
C1211	C121	0.086300	0.859400	0.389500
C1221	C122	0.115000	0.796500	0.428300
C1231	C123	0.188100	0.753700	0.415400
C1241	C124	0.232900	0.780300	0.363200
C1251	C125	0.195800	0.842500	0.325300
C1261	C126	0.219300	0.680500	0.451200
C1271	C127	0.192000	0.667100	0.512600
C1281	C128	0.223500	0.601200	0.544700
C1291	C129	0.282400	0.545400	0.520800
C1301	C130	0.310000	0.560700	0.459200
C1311	C131	0.278500	0.626900	0.426100
C1321	C132	0.372200	0.503700	0.429500
C1331	C133	0.424300	0.409100	0.368200
C1341	C134	0.432100	0.338500	0.323100
C1351	C135	0.505300	0.337500	0.286000
C1361	C136	0.516000	0.271500	0.244900
C1371	C137	0.455300	0.210400	0.240800
C1381	C138	0.384600	0.208300	0.277300
C1391	C139	0.373900	0.275700	0.318900
C1401	C140	0.319300	0.142000	0.271700
C1411	C141	0.261700	0.124200	0.319400
C1421	C142	0.199500	0.066500	0.310200
C1431	C143	0.242900	0.039800	0.213100
C1441	C144	0.308700	0.097400	0.218600
C1451	C145	0.640600	0.586300	0.639500
C1461	C146	0.703500	0.615000	0.678300
C1471	C147	0.746300	0.688100	0.665400
C1481	C148	0.719700	0.732900	0.613200
C1491	C149	0.657500	0.695800	0.575300
C1501	C150	0.819500	0.719300	0.701200
C1511	C151	0.832900	0.692000	0.762600
C1521	C152	0.898800	0.723500	0.794700
C1531	C153	0.954600	0.782400	0.770800
C1541	C154	0.939300	0.810000	0.709200
C1551	C155	0.873100	0.778500	0.676100
C1561	C156	0.996300	0.872200	0.679500
C1571	C157	0.090900	0.924300	0.618200
C1581	C158	0.161500	0.932100	0.573100
C1591	C159	0.162500	0.005300	0.536000
C1601	C160	0.228500	0.016000	0.494900
C1611	C161	0.289600	0.955300	0.490800
C1621	C162	0.291700	0.884600	0.527300
C1631	C163	0.224300	0.873900	0.568900
C1641	C164	0.358000	0.819300	0.521700
C1651	C165	0.375800	0.761700	0.569400
C1661	C166	0.433500	0.699500	0.560200
C1671	C167	0.460200	0.742900	0.463100
C1681	C168	0.402600	0.808700	0.468600
C1691	C169	0.359400	0.413700	0.139500
C1701	C170	0.296500	0.385000	0.178300
C1711	C171	0.253700	0.311900	0.165400
C1721	C172	0.280300	0.267100	0.113200
C1731	C173	0.342500	0.304200	0.075300
C1741	C174	0.180500	0.280700	0.201200
C1751	C175	0.167100	0.308000	0.262600
C1761	C176	0.101200	0.276500	0.294700
C1771	C177	0.045400	0.217600	0.270800
C1781	C178	0.060700	0.190000	0.209200
C1791	C179	0.126900	0.221500	0.176100
C1801	C180	0.003700	0.127800	0.179500
C1811	C181	0.909100	0.075700	0.118200
C1821	C182	0.838500	0.067900	0.073100
C1831	C183	0.837500	0.994700	0.036000
C1841	C184	0.771500	0.984000	0.994900
C1851	C185	0.710400	0.044700	0.990800
C1861	C186	0.708300	0.115400	0.027300
C1871	C187	0.775700	0.126100	0.068900
C1881	C188	0.642000	0.180700	0.021700
C1891	C189	0.624200	0.238300	0.069400
C1901	C190	0.566500	0.300500	0.060200
C1911	C191	0.539800	0.257100	0.963100
C1921	C192	0.597400	0.191300	0.968600
N11	N1	0.624200	0.619200	0.412300
N21	N2	0.954600	0.993800	0.315200
N31	N3	0.988100	0.054800	0.354600
N41	N4	0.850600	0.056000	0.362100
N51	N5	0.769900	0.074900	0.383100
N61	N6	0.686700	0.476100	0.492500
N71	N7	0.375800	0.380800	0.912300
N81	N8	0.045400	0.006200	0.815200
N91	N9	0.011900	0.945200	0.854600
N101	N10	0.149400	0.944000	0.862100
N111	N11	0.230100	0.925100	0.883100
N121	N12	0.313300	0.523900	0.992500
N131	N13	0.880800	0.124200	0.662300
N141	N14	0.506200	0.454600	0.565200
N151	N15	0.445200	0.488100	0.604600
N161	N16	0.444000	0.350600	0.612100
N171	N17	0.425100	0.269900	0.633100
N181	N18	0.023900	0.186700	0.742500
N191	N19	0.119200	0.875800	0.162300
N201	N20	0.493800	0.545400	0.065200
N211	N21	0.554800	0.511900	0.104600
N221	N22	0.556000	0.649400	0.112100
N231	N23	0.574900	0.730100	0.133100
N241	N24	0.976100	0.813300	0.242500
N251	N25	0.875800	0.119200	0.837700
N261	N26	0.545400	0.493800	0.934800
N271	N27	0.511900	0.554800	0.895400
N281	N28	0.649400	0.556000	0.887900
N291	N29	0.730100	0.574900	0.866900
N301	N30	0.813300	0.976100	0.757500
N311	N31	0.124200	0.880800	0.337700
N321	N32	0.454600	0.506200	0.434800
N331	N33	0.488100	0.445200	0.395400
N341	N34	0.350600	0.444000	0.387900
N351	N35	0.269900	0.425100	0.366900
N361	N36	0.186700	0.023900	0.257500
N371	N37	0.619200	0.624200	0.587700
N381	N38	0.993800	0.954600	0.684800
N391	N39	0.054800	0.988100	0.645400
N401	N40	0.056000	0.850600	0.637900
N411	N41	0.074900	0.769900	0.616900
N421	N42	0.476100	0.686700	0.507500
N431	N43	0.380800	0.375800	0.087700
N441	N44	0.006200	0.045400	0.184800
N451	N45	0.945200	0.011900	0.145400
N461	N46	0.944000	0.149400	0.137900
N471	N47	0.925100	0.230100	0.116900
N481	N48	0.523900	0.313300	0.007500
Cl11	Cl1	0.730450	0.730450	0.000000
O11	O1	0.765800	0.763200	0.052300
O21	O2	0.724000	0.660600	0.002600
O31	O3	0.763200	0.765800	0.947700
O41	O4	0.660600	0.724000	0.997400
Cl21	Cl2	0.269550	0.269550	0.500000
O51	O5	0.234200	0.236800	0.552300
O61	O6	0.276000	0.339400	0.502600
O71	O7	0.236800	0.234200	0.447700
O81	O8	0.339400	0.276000	0.497400
Cl31	Cl3	0.769550	0.230450	0.250000
O91	O9	0.736800	0.265800	0.302300
O101	O10	0.839400	0.224000	0.252600
O111	O11	0.734200	0.263200	0.197700
O121	O12	0.776000	0.160600	0.247400
Cl41	Cl4	0.230450	0.769550	0.750000
O131	O13	0.263200	0.734200	0.802300
O141	O14	0.160600	0.776000	0.752600
O151	O15	0.265800	0.736800	0.697700
O161	O16	0.224000	0.839400	0.747400
