data_OKIVUA_clean_PM
_symmetry_space_group_name_H-M	'P1'
_cell_length_a	15.879200
_cell_length_b	15.879200
_cell_length_c	21.594000
_cell_angle_alpha	90.000000
_cell_angle_beta	90.000000
_cell_angle_gamma	90.000000
_symmetry_Int_Tables_number 1

loop_
_symmetry_equiv_pos_as_xyz
'x,y,z'

loop_
_atom_site_label
_atom_site_type_symbol
_atom_site_fract_x
_atom_site_fract_y
_atom_site_fract_z
C11	C1	0.590200	0.640200	0.359400
H11	H1	0.542500	0.610000	0.347900
C21	C2	0.616800	0.701900	0.319900
H21	H2	0.586800	0.714400	0.284100
C31	C3	0.691900	0.746600	0.335000
C41	C4	0.733800	0.718600	0.387000
H31	H3	0.786000	0.741600	0.396900
C51	C5	0.700000	0.657700	0.424300
H41	H4	0.729500	0.641700	0.459600
C61	C6	0.721300	0.818700	0.297700
C71	C7	0.693100	0.835400	0.238700
H51	H5	0.654000	0.799500	0.220500
C81	C8	0.721500	0.904100	0.206000
H61	H6	0.701100	0.913800	0.166300
C91	C9	0.779500	0.958600	0.230900
H71	H7	0.797100	0.006100	0.209200
C101	C10	0.811700	0.940700	0.290100
C111	C11	0.781900	0.871900	0.323000
H81	H8	0.802800	0.861100	0.362400
C121	C12	0.874800	0.996200	0.320700
C131	C13	0.924900	0.092200	0.383000
C141	C14	0.933600	0.161700	0.427500
C151	C15	0.007100	0.165700	0.463300
H91	H9	0.048000	0.124000	0.460100
C161	C16	0.017500	0.232000	0.503000
H101	H10	0.065500	0.234800	0.527600
C171	C17	0.958500	0.293800	0.506800
H111	H11	0.966800	0.338000	0.534400
C181	C18	0.886600	0.292900	0.471000
C191	C19	0.874400	0.226900	0.431700
H121	H12	0.826200	0.225100	0.407300
C201	C20	0.819100	0.357900	0.477800
C211	C21	0.808400	0.404300	0.532100
H131	H13	0.846200	0.397800	0.564600
C221	C22	0.741600	0.459900	0.537500
H141	H14	0.734600	0.488500	0.574800
C231	C23	0.697500	0.432400	0.439600
H151	H15	0.659600	0.441200	0.407400
C241	C24	0.762600	0.375800	0.430800
H161	H16	0.768600	0.349400	0.392600
N11	N1	0.625700	0.619800	0.412300
N21	N2	0.955300	0.994200	0.316400
N31	N3	0.988800	0.054700	0.355500
N41	N4	0.852500	0.056900	0.361800
N51	N5	0.770500	0.076800	0.383200
H171	H17	0.744700	0.028200	0.391400
H181	H18	0.741600	0.104500	0.354700
N61	N6	0.686700	0.474600	0.491900
C251	C25	0.409800	0.359800	0.859400
H191	H19	0.457500	0.390000	0.847900
C261	C26	0.383200	0.298100	0.819900
H201	H20	0.413200	0.285600	0.784100
C271	C27	0.308100	0.253400	0.835000
C281	C28	0.266200	0.281400	0.887000
H211	H21	0.214000	0.258400	0.896900
C291	C29	0.300000	0.342300	0.924300
H221	H22	0.270500	0.358300	0.959600
C301	C30	0.278700	0.181300	0.797700
C311	C31	0.306900	0.164600	0.738700
H231	H23	0.346000	0.200500	0.720500
C321	C32	0.278500	0.095900	0.706000
H241	H24	0.298900	0.086200	0.666300
C331	C33	0.220500	0.041400	0.730900
H251	H25	0.202900	0.993900	0.709200
C341	C34	0.188300	0.059300	0.790100
C351	C35	0.218100	0.128100	0.823000
H261	H26	0.197200	0.138900	0.862400
C361	C36	0.125200	0.003800	0.820700
C371	C37	0.075100	0.907800	0.883000
C381	C38	0.066400	0.838300	0.927500
C391	C39	0.992900	0.834300	0.963300
H271	H27	0.952000	0.876000	0.960100
C401	C40	0.982500	0.768000	0.003000
H281	H28	0.934500	0.765200	0.027600
C411	C41	0.041500	0.706200	0.006800
H291	H29	0.033200	0.662000	0.034400
C421	C42	0.113400	0.707100	0.971000
C431	C43	0.125600	0.773100	0.931700
H301	H30	0.173800	0.774900	0.907300
C441	C44	0.180900	0.642100	0.977800
C451	C45	0.191600	0.595700	0.032100
H311	H31	0.153800	0.602200	0.064600
C461	C46	0.258400	0.540100	0.037500
H321	H32	0.265400	0.511500	0.074800
C471	C47	0.302500	0.567600	0.939600
H331	H33	0.340400	0.558800	0.907400
C481	C48	0.237400	0.624200	0.930800
H341	H34	0.231400	0.650600	0.892600
N71	N7	0.374300	0.380200	0.912300
N81	N8	0.044700	0.005800	0.816400
N91	N9	0.011200	0.945300	0.855500
N101	N10	0.147500	0.943100	0.861800
N111	N11	0.229500	0.923200	0.883200
H351	H35	0.255300	0.971800	0.891400
H361	H36	0.258400	0.895500	0.854700
N121	N12	0.313300	0.525400	0.991900
C491	C49	0.859800	0.090200	0.609400
H371	H37	0.890000	0.042500	0.597900
C501	C50	0.798100	0.116800	0.569900
H381	H38	0.785600	0.086800	0.534100
C511	C51	0.753400	0.191900	0.585000
C521	C52	0.781400	0.233800	0.637000
H391	H39	0.758400	0.286000	0.646900
C531	C53	0.842300	0.200000	0.674300
H401	H40	0.858300	0.229500	0.709600
C541	C54	0.681300	0.221300	0.547700
C551	C55	0.664600	0.193100	0.488700
H411	H41	0.700500	0.154000	0.470500
C561	C56	0.595900	0.221500	0.456000
H421	H42	0.586200	0.201100	0.416300
C571	C57	0.541400	0.279500	0.480900
H431	H43	0.493900	0.297100	0.459200
C581	C58	0.559300	0.311700	0.540100
C591	C59	0.628100	0.281900	0.573000
H441	H44	0.638900	0.302800	0.612400
C601	C60	0.503800	0.374800	0.570700
C611	C61	0.407800	0.424900	0.633000
C621	C62	0.338300	0.433600	0.677500
C631	C63	0.334300	0.507100	0.713300
H451	H45	0.376000	0.548000	0.710100
C641	C64	0.268000	0.517500	0.753000
H461	H46	0.265200	0.565500	0.777600
C651	C65	0.206200	0.458500	0.756800
H471	H47	0.162000	0.466800	0.784400
C661	C66	0.207100	0.386600	0.721000
C671	C67	0.273100	0.374400	0.681700
H481	H48	0.274900	0.326200	0.657300
C681	C68	0.142100	0.319100	0.727800
C691	C69	0.095700	0.308400	0.782100
H491	H49	0.102200	0.346200	0.814600
C701	C70	0.040100	0.241600	0.787500
H501	H50	0.011500	0.234600	0.824800
C711	C71	0.067600	0.197500	0.689600
H511	H51	0.058800	0.159600	0.657400
C721	C72	0.124200	0.262600	0.680800
H521	H52	0.150600	0.268600	0.642600
N131	N13	0.880200	0.125700	0.662300
N141	N14	0.505800	0.455300	0.566400
N151	N15	0.445300	0.488800	0.605500
N161	N16	0.443100	0.352500	0.611800
N171	N17	0.423200	0.270500	0.633200
H531	H53	0.471800	0.244700	0.641400
H541	H54	0.395500	0.241600	0.604700
N181	N18	0.025400	0.186700	0.741900
C731	C73	0.140200	0.909800	0.109400
H551	H55	0.110000	0.957500	0.097900
C741	C74	0.201900	0.883200	0.069900
H561	H56	0.214400	0.913200	0.034100
C751	C75	0.246600	0.808100	0.085000
C761	C76	0.218600	0.766200	0.137000
H571	H57	0.241600	0.714000	0.146900
C771	C77	0.157700	0.800000	0.174300
H581	H58	0.141700	0.770500	0.209600
C781	C78	0.318700	0.778700	0.047700
C791	C79	0.335400	0.806900	0.988700
H591	H59	0.299500	0.846000	0.970500
C801	C80	0.404100	0.778500	0.956000
H601	H60	0.413800	0.798900	0.916300
C811	C81	0.458600	0.720500	0.980900
H611	H61	0.506100	0.702900	0.959200
C821	C82	0.440700	0.688300	0.040100
C831	C83	0.371900	0.718100	0.073000
H621	H62	0.361100	0.697200	0.112400
C841	C84	0.496200	0.625200	0.070700
C851	C85	0.592200	0.575100	0.133000
C861	C86	0.661700	0.566400	0.177500
C871	C87	0.665700	0.492900	0.213300
H631	H63	0.624000	0.452000	0.210100
C881	C88	0.732000	0.482500	0.253000
H641	H64	0.734800	0.434500	0.277600
C891	C89	0.793800	0.541500	0.256800
H651	H65	0.838000	0.533200	0.284400
C901	C90	0.792900	0.613400	0.221000
C911	C91	0.726900	0.625600	0.181700
H661	H66	0.725100	0.673800	0.157300
C921	C92	0.857900	0.680900	0.227800
C931	C93	0.904300	0.691600	0.282100
H671	H67	0.897800	0.653800	0.314600
C941	C94	0.959900	0.758400	0.287500
H681	H68	0.988500	0.765400	0.324800
C951	C95	0.932400	0.802500	0.189600
H691	H69	0.941200	0.840400	0.157400
C961	C96	0.875800	0.737400	0.180800
H701	H70	0.849400	0.731400	0.142600
N191	N19	0.119800	0.874300	0.162300
N201	N20	0.494200	0.544700	0.066400
N211	N21	0.554700	0.511200	0.105500
N221	N22	0.556900	0.647500	0.111800
N231	N23	0.576800	0.729500	0.133200
H711	H71	0.528200	0.755300	0.141400
H721	H72	0.604500	0.758400	0.104700
N241	N24	0.974600	0.813300	0.241900
C971	C97	0.909800	0.140200	0.890600
H731	H73	0.957500	0.110000	0.902100
C981	C98	0.883200	0.201900	0.930100
H741	H74	0.913200	0.214400	0.965900
C991	C99	0.808100	0.246600	0.915000
C1001	C100	0.766200	0.218600	0.863000
H751	H75	0.714000	0.241600	0.853100
C1011	C101	0.800000	0.157700	0.825700
H761	H76	0.770500	0.141700	0.790400
C1021	C102	0.778700	0.318700	0.952300
C1031	C103	0.806900	0.335400	0.011300
H771	H77	0.846000	0.299500	0.029500
C1041	C104	0.778500	0.404100	0.044000
H781	H78	0.798900	0.413800	0.083700
C1051	C105	0.720500	0.458600	0.019100
H791	H79	0.702900	0.506100	0.040800
C1061	C106	0.688300	0.440700	0.959900
C1071	C107	0.718100	0.371900	0.927000
H801	H80	0.697200	0.361100	0.887600
C1081	C108	0.625200	0.496200	0.929300
C1091	C109	0.575100	0.592200	0.867000
C1101	C110	0.566400	0.661700	0.822500
C1111	C111	0.492900	0.665700	0.786700
H811	H81	0.452000	0.624000	0.789900
C1121	C112	0.482500	0.732000	0.747000
H821	H82	0.434500	0.734800	0.722400
C1131	C113	0.541500	0.793800	0.743200
H831	H83	0.533200	0.838000	0.715600
C1141	C114	0.613400	0.792900	0.779000
C1151	C115	0.625600	0.726900	0.818300
H841	H84	0.673800	0.725100	0.842700
C1161	C116	0.680900	0.857900	0.772200
C1171	C117	0.691600	0.904300	0.717900
H851	H85	0.653800	0.897800	0.685400
C1181	C118	0.758400	0.959900	0.712500
H861	H86	0.765400	0.988500	0.675200
C1191	C119	0.802500	0.932400	0.810400
H871	H87	0.840400	0.941200	0.842600
C1201	C120	0.737400	0.875800	0.819200
H881	H88	0.731400	0.849400	0.857400
N251	N25	0.874300	0.119800	0.837700
N261	N26	0.544700	0.494200	0.933600
N271	N27	0.511200	0.554700	0.894500
N281	N28	0.647500	0.556900	0.888200
N291	N29	0.729500	0.576800	0.866800
H891	H89	0.755300	0.528200	0.858600
H901	H90	0.758400	0.604500	0.895300
N301	N30	0.813300	0.974600	0.758100
C1211	C121	0.090200	0.859800	0.390600
H911	H91	0.042500	0.890000	0.402100
C1221	C122	0.116800	0.798100	0.430100
H921	H92	0.086800	0.785600	0.465900
C1231	C123	0.191900	0.753400	0.415000
C1241	C124	0.233800	0.781400	0.363000
H931	H93	0.286000	0.758400	0.353100
C1251	C125	0.200000	0.842300	0.325700
H941	H94	0.229500	0.858300	0.290400
C1261	C126	0.221300	0.681300	0.452300
C1271	C127	0.193100	0.664600	0.511300
H951	H95	0.154000	0.700500	0.529500
C1281	C128	0.221500	0.595900	0.544000
H961	H96	0.201100	0.586200	0.583700
C1291	C129	0.279500	0.541400	0.519100
H971	H97	0.297100	0.493900	0.540800
C1301	C130	0.311700	0.559300	0.459900
C1311	C131	0.281900	0.628100	0.427000
H981	H98	0.302800	0.638900	0.387600
C1321	C132	0.374800	0.503800	0.429300
C1331	C133	0.424900	0.407800	0.367000
C1341	C134	0.433600	0.338300	0.322500
C1351	C135	0.507100	0.334300	0.286700
H991	H99	0.548000	0.376000	0.289900
C1361	C136	0.517500	0.268000	0.247000
H1001	H100	0.565500	0.265200	0.222400
C1371	C137	0.458500	0.206200	0.243200
H1011	H101	0.466800	0.162000	0.215600
C1381	C138	0.386600	0.207100	0.279000
C1391	C139	0.374400	0.273100	0.318300
H1021	H102	0.326200	0.274900	0.342700
C1401	C140	0.319100	0.142100	0.272200
C1411	C141	0.308400	0.095700	0.217900
H1031	H103	0.346200	0.102200	0.185400
C1421	C142	0.241600	0.040100	0.212500
H1041	H104	0.234600	0.011500	0.175200
C1431	C143	0.197500	0.067600	0.310400
H1051	H105	0.159600	0.058800	0.342600
C1441	C144	0.262600	0.124200	0.319200
H1061	H106	0.268600	0.150600	0.357400
N311	N31	0.125700	0.880200	0.337700
N321	N32	0.455300	0.505800	0.433600
N331	N33	0.488800	0.445300	0.394500
N341	N34	0.352500	0.443100	0.388200
N351	N35	0.270500	0.423200	0.366800
H1071	H107	0.244700	0.471800	0.358600
H1081	H108	0.241600	0.395500	0.395300
N361	N36	0.186700	0.025400	0.258100
C1451	C145	0.640200	0.590200	0.640600
H1091	H109	0.610000	0.542500	0.652100
C1461	C146	0.701900	0.616800	0.680100
H1101	H110	0.714400	0.586800	0.715900
C1471	C147	0.746600	0.691900	0.665000
C1481	C148	0.718600	0.733800	0.613000
H1111	H111	0.741600	0.786000	0.603100
C1491	C149	0.657700	0.700000	0.575700
H1121	H112	0.641700	0.729500	0.540400
C1501	C150	0.818700	0.721300	0.702300
C1511	C151	0.835400	0.693100	0.761300
H1131	H113	0.799500	0.654000	0.779500
C1521	C152	0.904100	0.721500	0.794000
H1141	H114	0.913800	0.701100	0.833700
C1531	C153	0.958600	0.779500	0.769100
H1151	H115	0.006100	0.797100	0.790800
C1541	C154	0.940700	0.811700	0.709900
C1551	C155	0.871900	0.781900	0.677000
H1161	H116	0.861100	0.802800	0.637600
C1561	C156	0.996200	0.874800	0.679300
C1571	C157	0.092200	0.924900	0.617000
C1581	C158	0.161700	0.933600	0.572500
C1591	C159	0.165700	0.007100	0.536700
H1171	H117	0.124000	0.048000	0.539900
C1601	C160	0.232000	0.017500	0.497000
H1181	H118	0.234800	0.065500	0.472400
C1611	C161	0.293800	0.958500	0.493200
H1191	H119	0.338000	0.966800	0.465600
C1621	C162	0.292900	0.886600	0.529000
C1631	C163	0.226900	0.874400	0.568300
H1201	H120	0.225100	0.826200	0.592700
C1641	C164	0.357900	0.819100	0.522200
C1651	C165	0.404300	0.808400	0.467900
H1211	H121	0.397800	0.846200	0.435400
C1661	C166	0.459900	0.741600	0.462500
H1221	H122	0.488500	0.734600	0.425200
C1671	C167	0.432400	0.697500	0.560400
H1231	H123	0.441200	0.659600	0.592600
C1681	C168	0.375800	0.762600	0.569200
H1241	H124	0.349400	0.768600	0.607400
N371	N37	0.619800	0.625700	0.587700
N381	N38	0.994200	0.955300	0.683600
N391	N39	0.054700	0.988800	0.644500
N401	N40	0.056900	0.852500	0.638200
N411	N41	0.076800	0.770500	0.616800
H1251	H125	0.028200	0.744700	0.608600
H1261	H126	0.104500	0.741600	0.645300
N421	N42	0.474600	0.686700	0.508100
C1691	C169	0.359800	0.409800	0.140600
H1271	H127	0.390000	0.457500	0.152100
C1701	C170	0.298100	0.383200	0.180100
H1281	H128	0.285600	0.413200	0.215900
C1711	C171	0.253400	0.308100	0.165000
C1721	C172	0.281400	0.266200	0.113000
H1291	H129	0.258400	0.214000	0.103100
C1731	C173	0.342300	0.300000	0.075700
H1301	H130	0.358300	0.270500	0.040400
C1741	C174	0.181300	0.278700	0.202300
C1751	C175	0.164600	0.306900	0.261300
H1311	H131	0.200500	0.346000	0.279500
C1761	C176	0.095900	0.278500	0.294000
H1321	H132	0.086200	0.298900	0.333700
C1771	C177	0.041400	0.220500	0.269100
H1331	H133	0.993900	0.202900	0.290800
C1781	C178	0.059300	0.188300	0.209900
C1791	C179	0.128100	0.218100	0.177000
H1341	H134	0.138900	0.197200	0.137600
C1801	C180	0.003800	0.125200	0.179300
C1811	C181	0.907800	0.075100	0.117000
C1821	C182	0.838300	0.066400	0.072500
C1831	C183	0.834300	0.992900	0.036700
H1351	H135	0.876000	0.952000	0.039900
C1841	C184	0.768000	0.982500	0.997000
H1361	H136	0.765200	0.934500	0.972400
C1851	C185	0.706200	0.041500	0.993200
H1371	H137	0.662000	0.033200	0.965600
C1861	C186	0.707100	0.113400	0.029000
C1871	C187	0.773100	0.125600	0.068300
H1381	H138	0.774900	0.173800	0.092700
C1881	C188	0.642100	0.180900	0.022200
C1891	C189	0.595700	0.191600	0.967900
H1391	H139	0.602200	0.153800	0.935400
C1901	C190	0.540100	0.258400	0.962500
H1401	H140	0.511500	0.265400	0.925200
C1911	C191	0.567600	0.302500	0.060400
H1411	H141	0.558800	0.340400	0.092600
C1921	C192	0.624200	0.237400	0.069200
H1421	H142	0.650600	0.231400	0.107400
N431	N43	0.380200	0.374300	0.087700
N441	N44	0.005800	0.044700	0.183600
N451	N45	0.945300	0.011200	0.144500
N461	N46	0.943100	0.147500	0.138200
N471	N47	0.923200	0.229500	0.116800
H1431	H143	0.971800	0.255300	0.108600
H1441	H144	0.895500	0.258400	0.145300
N481	N48	0.525400	0.313300	0.008100
Cd11	Cd1	0.058390	0.941610	0.250000
Cd21	Cd2	0.941610	0.058390	0.750000
Cd31	Cd3	0.558390	0.558390	0.500000
Cd41	Cd4	0.441610	0.441610	0.000000
