data_OKIWUB02_clean_PM
_symmetry_space_group_name_H-M	'P1'
_cell_length_a	15.863500
_cell_length_b	15.863500
_cell_length_c	21.463000
_cell_angle_alpha	90.000000
_cell_angle_beta	90.000000
_cell_angle_gamma	90.000000
_symmetry_Int_Tables_number 1

loop_
_symmetry_equiv_pos_as_xyz
'x,y,z'

loop_
_atom_site_label
_atom_site_type_symbol
_atom_site_fract_x
_atom_site_fract_y
_atom_site_fract_z
C11	C1	0.640700	0.589000	0.640900
H11	H1	0.611600	0.538800	0.652000
C21	C2	0.702100	0.618200	0.680900
H21	H2	0.714800	0.588100	0.718000
C31	C3	0.745700	0.692100	0.666500
C41	C4	0.717300	0.735400	0.613800
H31	H3	0.740400	0.789100	0.604100
C51	C5	0.656700	0.701400	0.576200
H41	H4	0.640000	0.732000	0.540200
C61	C6	0.818300	0.722500	0.703700
C71	C7	0.835600	0.692400	0.762900
H51	H5	0.799400	0.651600	0.781200
C81	C8	0.904500	0.720900	0.795600
H61	H6	0.915500	0.699400	0.836200
C91	C9	0.959100	0.781600	0.769600
H71	H7	0.007100	0.800900	0.791900
C101	C10	0.940900	0.812400	0.710600
C111	C11	0.871900	0.783700	0.678300
H81	H8	0.860200	0.805800	0.638000
C121	C12	0.996200	0.874700	0.680000
C131	C13	0.092700	0.925900	0.617300
C141	C14	0.162400	0.934500	0.573100
C151	C15	0.165900	0.006500	0.536700
H91	H9	0.122400	0.047500	0.539300
C161	C16	0.232400	0.018300	0.497100
H101	H10	0.235400	0.068400	0.473000
C171	C17	0.294700	0.958800	0.491600
H111	H11	0.339000	0.966900	0.462400
C181	C18	0.293200	0.886600	0.528600
C191	C19	0.226200	0.875100	0.568600
H121	H12	0.223600	0.825600	0.593400
C201	C20	0.359400	0.819500	0.521900
C211	C21	0.406800	0.811600	0.467800
H131	H13	0.400800	0.851200	0.435000
C221	C22	0.463000	0.745000	0.462400
H141	H14	0.494300	0.739900	0.424800
C231	C23	0.431400	0.697700	0.559400
H151	H15	0.439300	0.658000	0.592100
C241	C24	0.374600	0.762700	0.568700
H161	H16	0.346100	0.767900	0.607400
N11	N1	0.619400	0.626700	0.587700
N21	N2	0.993600	0.956500	0.683100
N31	N3	0.054400	0.989500	0.644100
N41	N4	0.057400	0.852800	0.638840
N51	N5	0.076300	0.770400	0.617800
H171	H17	0.102200	0.741400	0.648900
H181	H18	0.027600	0.743800	0.607200
N61	N6	0.475700	0.687700	0.507000
C251	C25	0.359300	0.411000	0.140900
H191	H19	0.388400	0.461200	0.152000
C261	C26	0.297900	0.381800	0.180900
H201	H20	0.285200	0.411900	0.218000
C271	C27	0.254300	0.307900	0.166500
C281	C28	0.282700	0.264600	0.113800
H211	H21	0.259600	0.210900	0.104100
C291	C29	0.343300	0.298600	0.076200
H221	H22	0.360000	0.268000	0.040200
C301	C30	0.181700	0.277500	0.203700
C311	C31	0.164400	0.307600	0.262900
H231	H23	0.200600	0.348400	0.281200
C321	C32	0.095500	0.279100	0.295600
H241	H24	0.084500	0.300600	0.336200
C331	C33	0.040900	0.218400	0.269600
H251	H25	0.992900	0.199100	0.291900
C341	C34	0.059100	0.187600	0.210600
C351	C35	0.128100	0.216300	0.178300
H261	H26	0.139800	0.194200	0.138000
C361	C36	0.003800	0.125300	0.180000
C371	C37	0.907300	0.074100	0.117300
C381	C38	0.837600	0.065500	0.073100
C391	C39	0.834100	0.993500	0.036700
H271	H27	0.877600	0.952500	0.039300
C401	C40	0.767600	0.981700	0.997100
H281	H28	0.764600	0.931600	0.973000
C411	C41	0.705300	0.041200	0.991600
H291	H29	0.661000	0.033100	0.962400
C421	C42	0.706800	0.113400	0.028600
C431	C43	0.773800	0.124900	0.068600
H301	H30	0.776400	0.174400	0.093400
C441	C44	0.640600	0.180500	0.021900
C451	C45	0.593200	0.188400	0.967800
H311	H31	0.599200	0.148800	0.935000
C461	C46	0.537000	0.255000	0.962400
H321	H32	0.505700	0.260100	0.924800
C471	C47	0.568600	0.302300	0.059400
H331	H33	0.560700	0.342000	0.092100
C481	C48	0.625400	0.237300	0.068700
H341	H34	0.653900	0.232100	0.107400
N71	N7	0.380600	0.373300	0.087700
N81	N8	0.006400	0.043500	0.183100
N91	N9	0.945600	0.010500	0.144100
N101	N10	0.942600	0.147200	0.138840
N111	N11	0.923700	0.229600	0.117800
H351	H35	0.897800	0.258600	0.148900
H361	H36	0.972400	0.256200	0.107200
N121	N12	0.524300	0.312300	0.007000
C491	C49	0.911000	0.140700	0.890900
H371	H37	0.961200	0.111600	0.902000
C501	C50	0.881800	0.202100	0.930900
H381	H38	0.911900	0.214800	0.968000
C511	C51	0.807900	0.245700	0.916500
C521	C52	0.764600	0.217300	0.863800
H391	H39	0.710900	0.240400	0.854100
C531	C53	0.798600	0.156700	0.826200
H401	H40	0.768000	0.140000	0.790200
C541	C54	0.777500	0.318300	0.953700
C551	C55	0.807600	0.335600	0.012900
H411	H41	0.848400	0.299400	0.031200
C561	C56	0.779100	0.404500	0.045600
H421	H42	0.800600	0.415500	0.086200
C571	C57	0.718400	0.459100	0.019600
H431	H43	0.699100	0.507100	0.041900
C581	C58	0.687600	0.440900	0.960600
C591	C59	0.716300	0.371900	0.928300
H441	H44	0.694200	0.360200	0.888000
C601	C60	0.625300	0.496200	0.930000
C611	C61	0.574100	0.592700	0.867300
C621	C62	0.565500	0.662400	0.823100
C631	C63	0.493500	0.665900	0.786700
H451	H45	0.452500	0.622400	0.789300
C641	C64	0.481700	0.732400	0.747100
H461	H46	0.431600	0.735400	0.723000
C651	C65	0.541200	0.794700	0.741600
H471	H47	0.533100	0.839000	0.712400
C661	C66	0.613400	0.793200	0.778600
C671	C67	0.624900	0.726200	0.818600
H481	H48	0.674400	0.723600	0.843400
C681	C68	0.680500	0.859400	0.771900
C691	C69	0.688400	0.906800	0.717800
H491	H49	0.648800	0.900800	0.685000
C701	C70	0.755000	0.963000	0.712400
H501	H50	0.760100	0.994300	0.674800
C711	C71	0.802300	0.931400	0.809400
H511	H51	0.842000	0.939300	0.842100
C721	C72	0.737300	0.874600	0.818700
H521	H52	0.732100	0.846100	0.857400
N131	N13	0.873300	0.119400	0.837700
N141	N14	0.543500	0.493600	0.933100
N151	N15	0.510500	0.554400	0.894100
N161	N16	0.647200	0.557400	0.888840
N171	N17	0.729600	0.576300	0.867800
H531	H53	0.758600	0.602200	0.898900
H541	H54	0.756200	0.527600	0.857200
N181	N18	0.812300	0.975700	0.757000
C731	C73	0.089000	0.859300	0.390900
H551	H55	0.038800	0.888400	0.402000
C741	C74	0.118200	0.797900	0.430900
H561	H56	0.088100	0.785200	0.468000
C751	C75	0.192100	0.754300	0.416500
C761	C76	0.235400	0.782700	0.363800
H571	H57	0.289100	0.759600	0.354100
C771	C77	0.201400	0.843300	0.326200
H581	H58	0.232000	0.860000	0.290200
C781	C78	0.222500	0.681700	0.453700
C791	C79	0.192400	0.664400	0.512900
H591	H59	0.151600	0.700600	0.531200
C801	C80	0.220900	0.595500	0.545600
H601	H60	0.199400	0.584500	0.586200
C811	C81	0.281600	0.540900	0.519600
H611	H61	0.300900	0.492900	0.541900
C821	C82	0.312400	0.559100	0.460600
C831	C83	0.283700	0.628100	0.428300
H621	H62	0.305800	0.639800	0.388000
C841	C84	0.374700	0.503800	0.430000
C851	C85	0.425900	0.407300	0.367300
C861	C86	0.434500	0.337600	0.323100
C871	C87	0.506500	0.334100	0.286700
H631	H63	0.547500	0.377600	0.289300
C881	C88	0.518300	0.267600	0.247100
H641	H64	0.568400	0.264600	0.223000
C891	C89	0.458800	0.205300	0.241600
H651	H65	0.466900	0.161000	0.212400
C901	C90	0.386600	0.206800	0.278600
C911	C91	0.375100	0.273800	0.318600
H661	H66	0.325600	0.276400	0.343400
C921	C92	0.319500	0.140600	0.271900
C931	C93	0.311600	0.093200	0.217800
H671	H67	0.351200	0.099200	0.185000
C941	C94	0.245000	0.037000	0.212400
H681	H68	0.239900	0.005700	0.174800
C951	C95	0.197700	0.068600	0.309400
H691	H69	0.158000	0.060700	0.342100
C961	C96	0.262700	0.125400	0.318700
H701	H70	0.267900	0.153900	0.357400
N191	N19	0.126700	0.880600	0.337700
N201	N20	0.456500	0.506400	0.433100
N211	N21	0.489500	0.445600	0.394100
N221	N22	0.352800	0.442600	0.388840
N231	N23	0.270400	0.423700	0.367800
H711	H71	0.241400	0.397800	0.398900
H721	H72	0.243800	0.472400	0.357200
N241	N24	0.187700	0.024300	0.257000
C971	C97	0.859300	0.089000	0.609100
H731	H73	0.888400	0.038800	0.598000
C981	C98	0.797900	0.118200	0.569100
H741	H74	0.785200	0.088100	0.532000
C991	C99	0.754300	0.192100	0.583500
C1001	C100	0.782700	0.235400	0.636200
H751	H75	0.759600	0.289100	0.645900
C1011	C101	0.843300	0.201400	0.673800
H761	H76	0.860000	0.232000	0.709800
C1021	C102	0.681700	0.222500	0.546300
C1031	C103	0.664400	0.192400	0.487100
H771	H77	0.700600	0.151600	0.468800
C1041	C104	0.595500	0.220900	0.454400
H781	H78	0.584500	0.199400	0.413800
C1051	C105	0.540900	0.281600	0.480400
H791	H79	0.492900	0.300900	0.458100
C1061	C106	0.559100	0.312400	0.539400
C1071	C107	0.628100	0.283700	0.571700
H801	H80	0.639800	0.305800	0.612000
C1081	C108	0.503800	0.374700	0.570000
C1091	C109	0.407300	0.425900	0.632700
C1101	C110	0.337600	0.434500	0.676900
C1111	C111	0.334100	0.506500	0.713300
H811	H81	0.377600	0.547500	0.710700
C1121	C112	0.267600	0.518300	0.752900
H821	H82	0.264600	0.568400	0.777000
C1131	C113	0.205300	0.458800	0.758400
H831	H83	0.161000	0.466900	0.787600
C1141	C114	0.206800	0.386600	0.721400
C1151	C115	0.273800	0.375100	0.681400
H841	H84	0.276400	0.325600	0.656600
C1161	C116	0.140600	0.319500	0.728100
C1171	C117	0.093200	0.311600	0.782200
H851	H85	0.099200	0.351200	0.815000
C1181	C118	0.037000	0.245000	0.787600
H861	H86	0.005700	0.239900	0.825200
C1191	C119	0.068600	0.197700	0.690600
H871	H87	0.060700	0.158000	0.657900
C1201	C120	0.125400	0.262700	0.681300
H881	H88	0.153900	0.267900	0.642600
N251	N25	0.880600	0.126700	0.662300
N261	N26	0.506400	0.456500	0.566900
N271	N27	0.445600	0.489500	0.605900
N281	N28	0.442600	0.352800	0.611160
N291	N29	0.423700	0.270400	0.632200
H891	H89	0.397800	0.241400	0.601100
H901	H90	0.472400	0.243800	0.642800
N301	N30	0.024300	0.187700	0.743000
C1211	C121	0.140700	0.911000	0.109100
H911	H91	0.111600	0.961200	0.098000
C1221	C122	0.202100	0.881800	0.069100
H921	H92	0.214800	0.911900	0.032000
C1231	C123	0.245700	0.807900	0.083500
C1241	C124	0.217300	0.764600	0.136200
H931	H93	0.240400	0.710900	0.145900
C1251	C125	0.156700	0.798600	0.173800
H941	H94	0.140000	0.768000	0.209800
C1261	C126	0.318300	0.777500	0.046300
C1271	C127	0.335600	0.807600	0.987100
H951	H95	0.299400	0.848400	0.968800
C1281	C128	0.404500	0.779100	0.954400
H961	H96	0.415500	0.800600	0.913800
C1291	C129	0.459100	0.718400	0.980400
H971	H97	0.507100	0.699100	0.958100
C1301	C130	0.440900	0.687600	0.039400
C1311	C131	0.371900	0.716300	0.071700
H981	H98	0.360200	0.694200	0.112000
C1321	C132	0.496200	0.625300	0.070000
C1331	C133	0.592700	0.574100	0.132700
C1341	C134	0.662400	0.565500	0.176900
C1351	C135	0.665900	0.493500	0.213300
H991	H99	0.622400	0.452500	0.210700
C1361	C136	0.732400	0.481700	0.252900
H1001	H100	0.735400	0.431600	0.277000
C1371	C137	0.794700	0.541200	0.258400
H1011	H101	0.839000	0.533100	0.287600
C1381	C138	0.793200	0.613400	0.221400
C1391	C139	0.726200	0.624900	0.181400
H1021	H102	0.723600	0.674400	0.156600
C1401	C140	0.859400	0.680500	0.228100
C1411	C141	0.906800	0.688400	0.282200
H1031	H103	0.900800	0.648800	0.315000
C1421	C142	0.963000	0.755000	0.287600
H1041	H104	0.994300	0.760100	0.325200
C1431	C143	0.931400	0.802300	0.190600
H1051	H105	0.939300	0.842000	0.157900
C1441	C144	0.874600	0.737300	0.181300
H1061	H106	0.846100	0.732100	0.142600
N311	N31	0.119400	0.873300	0.162300
N321	N32	0.493600	0.543500	0.066900
N331	N33	0.554400	0.510500	0.105900
N341	N34	0.557400	0.647200	0.111160
N351	N35	0.576300	0.729600	0.132200
H1071	H107	0.602200	0.758600	0.101100
H1081	H108	0.527600	0.756200	0.142800
N361	N36	0.975700	0.812300	0.243000
C1451	C145	0.589000	0.640700	0.359100
H1091	H109	0.538800	0.611600	0.348000
C1461	C146	0.618200	0.702100	0.319100
H1101	H110	0.588100	0.714800	0.282000
C1471	C147	0.692100	0.745700	0.333500
C1481	C148	0.735400	0.717300	0.386200
H1111	H111	0.789100	0.740400	0.395900
C1491	C149	0.701400	0.656700	0.423800
H1121	H112	0.732000	0.640000	0.459800
C1501	C150	0.722500	0.818300	0.296300
C1511	C151	0.692400	0.835600	0.237100
H1131	H113	0.651600	0.799400	0.218800
C1521	C152	0.720900	0.904500	0.204400
H1141	H114	0.699400	0.915500	0.163800
C1531	C153	0.781600	0.959100	0.230400
H1151	H115	0.800900	0.007100	0.208100
C1541	C154	0.812400	0.940900	0.289400
C1551	C155	0.783700	0.871900	0.321700
H1161	H116	0.805800	0.860200	0.362000
C1561	C156	0.874700	0.996200	0.320000
C1571	C157	0.925900	0.092700	0.382700
C1581	C158	0.934500	0.162400	0.426900
C1591	C159	0.006500	0.165900	0.463300
H1171	H117	0.047500	0.122400	0.460700
C1601	C160	0.018300	0.232400	0.502900
H1181	H118	0.068400	0.235400	0.527000
C1611	C161	0.958800	0.294700	0.508400
H1191	H119	0.966900	0.339000	0.537600
C1621	C162	0.886600	0.293200	0.471400
C1631	C163	0.875100	0.226200	0.431400
H1201	H120	0.825600	0.223600	0.406600
C1641	C164	0.819500	0.359400	0.478100
C1651	C165	0.811600	0.406800	0.532200
H1211	H121	0.851200	0.400800	0.565000
C1661	C166	0.745000	0.463000	0.537600
H1221	H122	0.739900	0.494300	0.575200
C1671	C167	0.697700	0.431400	0.440600
H1231	H123	0.658000	0.439300	0.407900
C1681	C168	0.762700	0.374600	0.431300
H1241	H124	0.767900	0.346100	0.392600
N371	N37	0.626700	0.619400	0.412300
N381	N38	0.956500	0.993600	0.316900
N391	N39	0.989500	0.054400	0.355900
N401	N40	0.852800	0.057400	0.361160
N411	N41	0.770400	0.076300	0.382200
H1251	H125	0.741400	0.102200	0.351100
H1261	H126	0.743800	0.027600	0.392800
N421	N42	0.687700	0.475700	0.493000
C1691	C169	0.411000	0.359300	0.859100
H1271	H127	0.461200	0.388400	0.848000
C1701	C170	0.381800	0.297900	0.819100
H1281	H128	0.411900	0.285200	0.782000
C1711	C171	0.307900	0.254300	0.833500
C1721	C172	0.264600	0.282700	0.886200
H1291	H129	0.210900	0.259600	0.895900
C1731	C173	0.298600	0.343300	0.923800
H1301	H130	0.268000	0.360000	0.959800
C1741	C174	0.277500	0.181700	0.796300
C1751	C175	0.307600	0.164400	0.737100
H1311	H131	0.348400	0.200600	0.718800
C1761	C176	0.279100	0.095500	0.704400
H1321	H132	0.300600	0.084500	0.663800
C1771	C177	0.218400	0.040900	0.730400
H1331	H133	0.199100	0.992900	0.708100
C1781	C178	0.187600	0.059100	0.789400
C1791	C179	0.216300	0.128100	0.821700
H1341	H134	0.194200	0.139800	0.862000
C1801	C180	0.125300	0.003800	0.820000
C1811	C181	0.074100	0.907300	0.882700
C1821	C182	0.065500	0.837600	0.926900
C1831	C183	0.993500	0.834100	0.963300
H1351	H135	0.952500	0.877600	0.960700
C1841	C184	0.981700	0.767600	0.002900
H1361	H136	0.931600	0.764600	0.027000
C1851	C185	0.041200	0.705300	0.008400
H1371	H137	0.033100	0.661000	0.037600
C1861	C186	0.113400	0.706800	0.971400
C1871	C187	0.124900	0.773800	0.931400
H1381	H138	0.174400	0.776400	0.906600
C1881	C188	0.180500	0.640600	0.978100
C1891	C189	0.188400	0.593200	0.032200
H1391	H139	0.148800	0.599200	0.065000
C1901	C190	0.255000	0.537000	0.037600
H1401	H140	0.260100	0.505700	0.075200
C1911	C191	0.302300	0.568600	0.940600
H1411	H141	0.342000	0.560700	0.907900
C1921	C192	0.237300	0.625400	0.931300
H1421	H142	0.232100	0.653900	0.892600
N431	N43	0.373300	0.380600	0.912300
N441	N44	0.043500	0.006400	0.816900
N451	N45	0.010500	0.945600	0.855900
N461	N46	0.147200	0.942600	0.861160
N471	N47	0.229600	0.923700	0.882200
H1431	H143	0.258600	0.897800	0.851100
H1441	H144	0.256200	0.972400	0.892800
N481	N48	0.312300	0.524300	0.993000
Cd11	Cd1	0.940630	0.059370	0.750000
Cd21	Cd2	0.059370	0.940630	0.250000
Cd31	Cd3	0.440630	0.440630	0.000000
Cd41	Cd4	0.559370	0.559370	0.500000
