data_OKOSUE_clean_PM
_symmetry_space_group_name_H-M	'P1'
_cell_length_a	36.061000
_cell_length_b	18.233000
_cell_length_c	25.146000
_cell_angle_alpha	90.000000
_cell_angle_beta	121.237000
_cell_angle_gamma	90.000000
_symmetry_Int_Tables_number 1

loop_
_symmetry_equiv_pos_as_xyz
'x,y,z'

loop_
_atom_site_label
_atom_site_type_symbol
_atom_site_fract_x
_atom_site_fract_y
_atom_site_fract_z
Cd11	Cd1	0.209280	0.872240	0.307170
Cd21	Cd2	0.318050	0.860420	0.326230
Cd31	Cd3	0.322800	0.927600	0.457710
O11	O1	0.217250	0.988300	0.275100
O21	O2	0.280830	0.947400	0.347690
O31	O3	0.202040	0.253200	0.224000
O41	O4	0.258500	0.321800	0.249170
O51	O5	0.622860	0.066600	0.563600
O61	O6	0.611530	0.155300	0.613300
O71	O7	0.281220	0.890200	0.493700
O81	O8	0.225330	0.924600	0.400900
O91	O9	0.256390	0.727000	0.629690
O101	O10	0.188660	0.687100	0.592200
O111	O11	0.864250	0.913300	0.223300
O121	O12	0.853290	0.815300	0.259000
C11	C1	0.276760	0.071100	0.314000
C21	C2	0.251480	0.130500	0.281700
H11	H1	0.221500	0.125400	0.257000
C31	C3	0.270730	0.198400	0.286100
C41	C4	0.315270	0.205000	0.321700
H21	H2	0.328000	0.250000	0.323500
C51	C5	0.341490	0.146400	0.354700
C61	C6	0.321720	0.079500	0.349700
H31	H3	0.338900	0.039000	0.370600
C71	C7	0.256530	0.998000	0.311200
C81	C8	0.242510	0.262600	0.251400
C91	C9	0.389310	0.152300	0.395800
C101	C10	0.407270	0.209700	0.439100
H41	H4	0.389300	0.245700	0.440000
C111	C11	0.450610	0.212800	0.479700
H51	H5	0.461900	0.251300	0.508100
C121	C12	0.478890	0.160200	0.480200
C131	C13	0.524370	0.160600	0.523700
H61	H6	0.536100	0.196400	0.554500
C141	C14	0.550820	0.110300	0.521200
C151	C15	0.533800	0.056600	0.475300
H71	H7	0.552300	0.022800	0.473200
C161	C16	0.489500	0.052700	0.432500
H81	H8	0.478500	0.015900	0.402600
C171	C17	0.461410	0.104800	0.434500
C181	C18	0.416110	0.101400	0.393900
H91	H9	0.404300	0.063400	0.365200
C191	C19	0.598530	0.110800	0.569000
C201	C20	0.211030	0.862100	0.471700
C211	C21	0.227290	0.817800	0.523800
H101	H10	0.257100	0.811000	0.549100
C221	C22	0.199630	0.783500	0.538600
C231	C23	0.155380	0.796000	0.502200
H111	H11	0.136800	0.773500	0.512500
C241	C24	0.138010	0.842500	0.449700
C251	C25	0.166570	0.873200	0.434400
H121	H12	0.155700	0.901600	0.398600
C261	C26	0.240520	0.895000	0.453300
C271	C27	0.216700	0.729400	0.592000
C281	C28	0.090220	0.855100	0.410400
C291	C29	0.061200	0.808000	0.408300
H131	H13	0.071200	0.765200	0.431700
C301	C30	0.015750	0.820300	0.371800
C311	C31	0.985600	0.767000	0.368100
H141	H14	0.995400	0.722400	0.388800
C321	C32	0.942000	0.781900	0.333800
H151	H15	0.922300	0.748100	0.332900
C331	C33	0.926410	0.849000	0.299200
C341	C34	0.954810	0.895300	0.298900
H161	H16	0.944700	0.937000	0.274000
C351	C35	0.000250	0.882700	0.335600
C361	C36	0.030700	0.934400	0.338200
H171	H17	0.021000	0.977400	0.315100
C371	C37	0.074600	0.920900	0.375200
H181	H18	0.094300	0.955300	0.377000
C381	C38	0.878430	0.861400	0.258900
Cd41	Cd4	0.709280	0.372240	0.307170
Cd51	Cd5	0.818050	0.360420	0.326230
Cd61	Cd6	0.822800	0.427600	0.457710
O131	O13	0.717250	0.488300	0.275100
O141	O14	0.780830	0.447400	0.347690
O151	O15	0.702040	0.753200	0.224000
O161	O16	0.758500	0.821800	0.249170
O171	O17	0.122860	0.566600	0.563600
O181	O18	0.111530	0.655300	0.613300
O191	O19	0.781220	0.390200	0.493700
O201	O20	0.725330	0.424600	0.400900
O211	O21	0.756390	0.227000	0.629690
O221	O22	0.688660	0.187100	0.592200
O231	O23	0.364250	0.413300	0.223300
O241	O24	0.353290	0.315300	0.259000
C391	C39	0.776760	0.571100	0.314000
C401	C40	0.751480	0.630500	0.281700
H191	H19	0.721500	0.625400	0.257000
C411	C41	0.770730	0.698400	0.286100
C421	C42	0.815270	0.705000	0.321700
H201	H20	0.828000	0.750000	0.323500
C431	C43	0.841490	0.646400	0.354700
C441	C44	0.821720	0.579500	0.349700
H211	H21	0.838900	0.539000	0.370600
C451	C45	0.756530	0.498000	0.311200
C461	C46	0.742510	0.762600	0.251400
C471	C47	0.889310	0.652300	0.395800
C481	C48	0.907270	0.709700	0.439100
H221	H22	0.889300	0.745700	0.440000
C491	C49	0.950610	0.712800	0.479700
H231	H23	0.961900	0.751300	0.508100
C501	C50	0.978890	0.660200	0.480200
C511	C51	0.024370	0.660600	0.523700
H241	H24	0.036100	0.696400	0.554500
C521	C52	0.050820	0.610300	0.521200
C531	C53	0.033800	0.556600	0.475300
H251	H25	0.052300	0.522800	0.473200
C541	C54	0.989500	0.552700	0.432500
H261	H26	0.978500	0.515900	0.402600
C551	C55	0.961410	0.604800	0.434500
C561	C56	0.916110	0.601400	0.393900
H271	H27	0.904300	0.563400	0.365200
C571	C57	0.098530	0.610800	0.569000
C581	C58	0.711030	0.362100	0.471700
C591	C59	0.727290	0.317800	0.523800
H281	H28	0.757100	0.311000	0.549100
C601	C60	0.699630	0.283500	0.538600
C611	C61	0.655380	0.296000	0.502200
H291	H29	0.636800	0.273500	0.512500
C621	C62	0.638010	0.342500	0.449700
C631	C63	0.666570	0.373200	0.434400
H301	H30	0.655700	0.401600	0.398600
C641	C64	0.740520	0.395000	0.453300
C651	C65	0.716700	0.229400	0.592000
C661	C66	0.590220	0.355100	0.410400
C671	C67	0.561200	0.308000	0.408300
H311	H31	0.571200	0.265200	0.431700
C681	C68	0.515750	0.320300	0.371800
C691	C69	0.485600	0.267000	0.368100
H321	H32	0.495400	0.222400	0.388800
C701	C70	0.442000	0.281900	0.333800
H331	H33	0.422300	0.248100	0.332900
C711	C71	0.426410	0.349000	0.299200
C721	C72	0.454810	0.395300	0.298900
H341	H34	0.444700	0.437000	0.274000
C731	C73	0.500250	0.382700	0.335600
C741	C74	0.530700	0.434400	0.338200
H351	H35	0.521000	0.477400	0.315100
C751	C75	0.574600	0.420900	0.375200
H361	H36	0.594300	0.455300	0.377000
C761	C76	0.378430	0.361400	0.258900
Cd71	Cd7	0.790720	0.872240	0.192830
Cd81	Cd8	0.681950	0.860420	0.173770
Cd91	Cd9	0.677200	0.927600	0.042290
O251	O25	0.782750	0.988300	0.224900
O261	O26	0.719170	0.947400	0.152310
O271	O27	0.797960	0.253200	0.276000
O281	O28	0.741500	0.321800	0.250830
O291	O29	0.377140	0.066600	0.936400
O301	O30	0.388470	0.155300	0.886700
O311	O31	0.718780	0.890200	0.006300
O321	O32	0.774670	0.924600	0.099100
O331	O33	0.743610	0.727000	0.870310
O341	O34	0.811340	0.687100	0.907800
O351	O35	0.135750	0.913300	0.276700
O361	O36	0.146710	0.815300	0.241000
C771	C77	0.723240	0.071100	0.186000
C781	C78	0.748520	0.130500	0.218300
H371	H37	0.778500	0.125400	0.243000
C791	C79	0.729270	0.198400	0.213900
C801	C80	0.684730	0.205000	0.178300
H381	H38	0.672000	0.250000	0.176500
C811	C81	0.658510	0.146400	0.145300
C821	C82	0.678280	0.079500	0.150300
H391	H39	0.661100	0.039000	0.129400
C831	C83	0.743470	0.998000	0.188800
C841	C84	0.757490	0.262600	0.248600
C851	C85	0.610690	0.152300	0.104200
C861	C86	0.592730	0.209700	0.060900
H401	H40	0.610700	0.245700	0.060000
C871	C87	0.549390	0.212800	0.020300
H411	H41	0.538100	0.251300	0.991900
C881	C88	0.521110	0.160200	0.019800
C891	C89	0.475630	0.160600	0.976300
H421	H42	0.463900	0.196400	0.945500
C901	C90	0.449180	0.110300	0.978800
C911	C91	0.466200	0.056600	0.024700
H431	H43	0.447700	0.022800	0.026800
C921	C92	0.510500	0.052700	0.067500
H441	H44	0.521500	0.015900	0.097400
C931	C93	0.538590	0.104800	0.065500
C941	C94	0.583890	0.101400	0.106100
H451	H45	0.595700	0.063400	0.134800
C951	C95	0.401470	0.110800	0.931000
C961	C96	0.788970	0.862100	0.028300
C971	C97	0.772710	0.817800	0.976200
H461	H46	0.742900	0.811000	0.950900
C981	C98	0.800370	0.783500	0.961400
C991	C99	0.844620	0.796000	0.997800
H471	H47	0.863200	0.773500	0.987500
C1001	C100	0.861990	0.842500	0.050300
C1011	C101	0.833430	0.873200	0.065600
H481	H48	0.844300	0.901600	0.101400
C1021	C102	0.759480	0.895000	0.046700
C1031	C103	0.783300	0.729400	0.908000
C1041	C104	0.909780	0.855100	0.089600
C1051	C105	0.938800	0.808000	0.091700
H491	H49	0.928800	0.765200	0.068300
C1061	C106	0.984250	0.820300	0.128200
C1071	C107	0.014400	0.767000	0.131900
H501	H50	0.004600	0.722400	0.111200
C1081	C108	0.058000	0.781900	0.166200
H511	H51	0.077700	0.748100	0.167100
C1091	C109	0.073590	0.849000	0.200800
C1101	C110	0.045190	0.895300	0.201100
H521	H52	0.055300	0.937000	0.226000
C1111	C111	0.999750	0.882700	0.164400
C1121	C112	0.969300	0.934400	0.161800
H531	H53	0.979000	0.977400	0.184900
C1131	C113	0.925400	0.920900	0.124800
H541	H54	0.905700	0.955300	0.123000
C1141	C114	0.121570	0.861400	0.241100
Cd101	Cd10	0.290720	0.372240	0.192830
Cd111	Cd11	0.181950	0.360420	0.173770
Cd121	Cd12	0.177200	0.427600	0.042290
O371	O37	0.282750	0.488300	0.224900
O381	O38	0.219170	0.447400	0.152310
O391	O39	0.297960	0.753200	0.276000
O401	O40	0.241500	0.821800	0.250830
O411	O41	0.877140	0.566600	0.936400
O421	O42	0.888470	0.655300	0.886700
O431	O43	0.218780	0.390200	0.006300
O441	O44	0.274670	0.424600	0.099100
O451	O45	0.243610	0.227000	0.870310
O461	O46	0.311340	0.187100	0.907800
O471	O47	0.635750	0.413300	0.276700
O481	O48	0.646710	0.315300	0.241000
C1151	C115	0.223240	0.571100	0.186000
C1161	C116	0.248520	0.630500	0.218300
H551	H55	0.278500	0.625400	0.243000
C1171	C117	0.229270	0.698400	0.213900
C1181	C118	0.184730	0.705000	0.178300
H561	H56	0.172000	0.750000	0.176500
C1191	C119	0.158510	0.646400	0.145300
C1201	C120	0.178280	0.579500	0.150300
H571	H57	0.161100	0.539000	0.129400
C1211	C121	0.243470	0.498000	0.188800
C1221	C122	0.257490	0.762600	0.248600
C1231	C123	0.110690	0.652300	0.104200
C1241	C124	0.092730	0.709700	0.060900
H581	H58	0.110700	0.745700	0.060000
C1251	C125	0.049390	0.712800	0.020300
H591	H59	0.038100	0.751300	0.991900
C1261	C126	0.021110	0.660200	0.019800
C1271	C127	0.975630	0.660600	0.976300
H601	H60	0.963900	0.696400	0.945500
C1281	C128	0.949180	0.610300	0.978800
C1291	C129	0.966200	0.556600	0.024700
H611	H61	0.947700	0.522800	0.026800
C1301	C130	0.010500	0.552700	0.067500
H621	H62	0.021500	0.515900	0.097400
C1311	C131	0.038590	0.604800	0.065500
C1321	C132	0.083890	0.601400	0.106100
H631	H63	0.095700	0.563400	0.134800
C1331	C133	0.901470	0.610800	0.931000
C1341	C134	0.288970	0.362100	0.028300
C1351	C135	0.272710	0.317800	0.976200
H641	H64	0.242900	0.311000	0.950900
C1361	C136	0.300370	0.283500	0.961400
C1371	C137	0.344620	0.296000	0.997800
H651	H65	0.363200	0.273500	0.987500
C1381	C138	0.361990	0.342500	0.050300
C1391	C139	0.333430	0.373200	0.065600
H661	H66	0.344300	0.401600	0.101400
C1401	C140	0.259480	0.395000	0.046700
C1411	C141	0.283300	0.229400	0.908000
C1421	C142	0.409780	0.355100	0.089600
C1431	C143	0.438800	0.308000	0.091700
H671	H67	0.428800	0.265200	0.068300
C1441	C144	0.484250	0.320300	0.128200
C1451	C145	0.514400	0.267000	0.131900
H681	H68	0.504600	0.222400	0.111200
C1461	C146	0.558000	0.281900	0.166200
H691	H69	0.577700	0.248100	0.167100
C1471	C147	0.573590	0.349000	0.200800
C1481	C148	0.545190	0.395300	0.201100
H701	H70	0.555300	0.437000	0.226000
C1491	C149	0.499750	0.382700	0.164400
C1501	C150	0.469300	0.434400	0.161800
H711	H71	0.479000	0.477400	0.184900
C1511	C151	0.425400	0.420900	0.124800
H721	H72	0.405700	0.455300	0.123000
C1521	C152	0.621570	0.361400	0.241100
Cd131	Cd13	0.790720	0.127760	0.692830
Cd141	Cd14	0.681950	0.139580	0.673770
Cd151	Cd15	0.677200	0.072400	0.542290
O491	O49	0.782750	0.011700	0.724900
O501	O50	0.719170	0.052600	0.652310
O511	O51	0.797960	0.746800	0.776000
O521	O52	0.741500	0.678200	0.750830
O531	O53	0.377140	0.933400	0.436400
O541	O54	0.388470	0.844700	0.386700
O551	O55	0.718780	0.109800	0.506300
O561	O56	0.774670	0.075400	0.599100
O571	O57	0.743610	0.273000	0.370310
O581	O58	0.811340	0.312900	0.407800
O591	O59	0.135750	0.086700	0.776700
O601	O60	0.146710	0.184700	0.741000
C1531	C153	0.723240	0.928900	0.686000
C1541	C154	0.748520	0.869500	0.718300
H731	H73	0.778500	0.874600	0.743000
C1551	C155	0.729270	0.801600	0.713900
C1561	C156	0.684730	0.795000	0.678300
H741	H74	0.672000	0.750000	0.676500
C1571	C157	0.658510	0.853600	0.645300
C1581	C158	0.678280	0.920500	0.650300
H751	H75	0.661100	0.961000	0.629400
C1591	C159	0.743470	0.002000	0.688800
C1601	C160	0.757490	0.737400	0.748600
C1611	C161	0.610690	0.847700	0.604200
C1621	C162	0.592730	0.790300	0.560900
H761	H76	0.610700	0.754300	0.560000
C1631	C163	0.549390	0.787200	0.520300
H771	H77	0.538100	0.748700	0.491900
C1641	C164	0.521110	0.839800	0.519800
C1651	C165	0.475630	0.839400	0.476300
H781	H78	0.463900	0.803600	0.445500
C1661	C166	0.449180	0.889700	0.478800
C1671	C167	0.466200	0.943400	0.524700
H791	H79	0.447700	0.977200	0.526800
C1681	C168	0.510500	0.947300	0.567500
H801	H80	0.521500	0.984100	0.597400
C1691	C169	0.538590	0.895200	0.565500
C1701	C170	0.583890	0.898600	0.606100
H811	H81	0.595700	0.936600	0.634800
C1711	C171	0.401470	0.889200	0.431000
C1721	C172	0.788970	0.137900	0.528300
C1731	C173	0.772710	0.182200	0.476200
H821	H82	0.742900	0.189000	0.450900
C1741	C174	0.800370	0.216500	0.461400
C1751	C175	0.844620	0.204000	0.497800
H831	H83	0.863200	0.226500	0.487500
C1761	C176	0.861990	0.157500	0.550300
C1771	C177	0.833430	0.126800	0.565600
H841	H84	0.844300	0.098400	0.601400
C1781	C178	0.759480	0.105000	0.546700
C1791	C179	0.783300	0.270600	0.408000
C1801	C180	0.909780	0.144900	0.589600
C1811	C181	0.938800	0.192000	0.591700
H851	H85	0.928800	0.234800	0.568300
C1821	C182	0.984250	0.179700	0.628200
C1831	C183	0.014400	0.233000	0.631900
H861	H86	0.004600	0.277600	0.611200
C1841	C184	0.058000	0.218100	0.666200
H871	H87	0.077700	0.251900	0.667100
C1851	C185	0.073590	0.151000	0.700800
C1861	C186	0.045190	0.104700	0.701100
H881	H88	0.055300	0.063000	0.726000
C1871	C187	0.999750	0.117300	0.664400
C1881	C188	0.969300	0.065600	0.661800
H891	H89	0.979000	0.022600	0.684900
C1891	C189	0.925400	0.079100	0.624800
H901	H90	0.905700	0.044700	0.623000
C1901	C190	0.121570	0.138600	0.741100
Cd161	Cd16	0.290720	0.627760	0.692830
Cd171	Cd17	0.181950	0.639580	0.673770
Cd181	Cd18	0.177200	0.572400	0.542290
O611	O61	0.282750	0.511700	0.724900
O621	O62	0.219170	0.552600	0.652310
O631	O63	0.297960	0.246800	0.776000
O641	O64	0.241500	0.178200	0.750830
O651	O65	0.877140	0.433400	0.436400
O661	O66	0.888470	0.344700	0.386700
O671	O67	0.218780	0.609800	0.506300
O681	O68	0.274670	0.575400	0.599100
O691	O69	0.243610	0.773000	0.370310
O701	O70	0.311340	0.812900	0.407800
O711	O71	0.635750	0.586700	0.776700
O721	O72	0.646710	0.684700	0.741000
C1911	C191	0.223240	0.428900	0.686000
C1921	C192	0.248520	0.369500	0.718300
H911	H91	0.278500	0.374600	0.743000
C1931	C193	0.229270	0.301600	0.713900
C1941	C194	0.184730	0.295000	0.678300
H921	H92	0.172000	0.250000	0.676500
C1951	C195	0.158510	0.353600	0.645300
C1961	C196	0.178280	0.420500	0.650300
H931	H93	0.161100	0.461000	0.629400
C1971	C197	0.243470	0.502000	0.688800
C1981	C198	0.257490	0.237400	0.748600
C1991	C199	0.110690	0.347700	0.604200
C2001	C200	0.092730	0.290300	0.560900
H941	H94	0.110700	0.254300	0.560000
C2011	C201	0.049390	0.287200	0.520300
H951	H95	0.038100	0.248700	0.491900
C2021	C202	0.021110	0.339800	0.519800
C2031	C203	0.975630	0.339400	0.476300
H961	H96	0.963900	0.303600	0.445500
C2041	C204	0.949180	0.389700	0.478800
C2051	C205	0.966200	0.443400	0.524700
H971	H97	0.947700	0.477200	0.526800
C2061	C206	0.010500	0.447300	0.567500
H981	H98	0.021500	0.484100	0.597400
C2071	C207	0.038590	0.395200	0.565500
C2081	C208	0.083890	0.398600	0.606100
H991	H99	0.095700	0.436600	0.634800
C2091	C209	0.901470	0.389200	0.431000
C2101	C210	0.288970	0.637900	0.528300
C2111	C211	0.272710	0.682200	0.476200
H1001	H100	0.242900	0.689000	0.450900
C2121	C212	0.300370	0.716500	0.461400
C2131	C213	0.344620	0.704000	0.497800
H1011	H101	0.363200	0.726500	0.487500
C2141	C214	0.361990	0.657500	0.550300
C2151	C215	0.333430	0.626800	0.565600
H1021	H102	0.344300	0.598400	0.601400
C2161	C216	0.259480	0.605000	0.546700
C2171	C217	0.283300	0.770600	0.408000
C2181	C218	0.409780	0.644900	0.589600
C2191	C219	0.438800	0.692000	0.591700
H1031	H103	0.428800	0.734800	0.568300
C2201	C220	0.484250	0.679700	0.628200
C2211	C221	0.514400	0.733000	0.631900
H1041	H104	0.504600	0.777600	0.611200
C2221	C222	0.558000	0.718100	0.666200
H1051	H105	0.577700	0.751900	0.667100
C2231	C223	0.573590	0.651000	0.700800
C2241	C224	0.545190	0.604700	0.701100
H1061	H106	0.555300	0.563000	0.726000
C2251	C225	0.499750	0.617300	0.664400
C2261	C226	0.469300	0.565600	0.661800
H1071	H107	0.479000	0.522600	0.684900
C2271	C227	0.425400	0.579100	0.624800
H1081	H108	0.405700	0.544700	0.623000
C2281	C228	0.621570	0.638600	0.741100
Cd191	Cd19	0.209280	0.127760	0.807170
Cd201	Cd20	0.318050	0.139580	0.826230
Cd211	Cd21	0.322800	0.072400	0.957710
O731	O73	0.217250	0.011700	0.775100
O741	O74	0.280830	0.052600	0.847690
O751	O75	0.202040	0.746800	0.724000
O761	O76	0.258500	0.678200	0.749170
O771	O77	0.622860	0.933400	0.063600
O781	O78	0.611530	0.844700	0.113300
O791	O79	0.281220	0.109800	0.993700
O801	O80	0.225330	0.075400	0.900900
O811	O81	0.256390	0.273000	0.129690
O821	O82	0.188660	0.312900	0.092200
O831	O83	0.864250	0.086700	0.723300
O841	O84	0.853290	0.184700	0.759000
C2291	C229	0.276760	0.928900	0.814000
C2301	C230	0.251480	0.869500	0.781700
H1091	H109	0.221500	0.874600	0.757000
C2311	C231	0.270730	0.801600	0.786100
C2321	C232	0.315270	0.795000	0.821700
H1101	H110	0.328000	0.750000	0.823500
C2331	C233	0.341490	0.853600	0.854700
C2341	C234	0.321720	0.920500	0.849700
H1111	H111	0.338900	0.961000	0.870600
C2351	C235	0.256530	0.002000	0.811200
C2361	C236	0.242510	0.737400	0.751400
C2371	C237	0.389310	0.847700	0.895800
C2381	C238	0.407270	0.790300	0.939100
H1121	H112	0.389300	0.754300	0.940000
C2391	C239	0.450610	0.787200	0.979700
H1131	H113	0.461900	0.748700	0.008100
C2401	C240	0.478890	0.839800	0.980200
C2411	C241	0.524370	0.839400	0.023700
H1141	H114	0.536100	0.803600	0.054500
C2421	C242	0.550820	0.889700	0.021200
C2431	C243	0.533800	0.943400	0.975300
H1151	H115	0.552300	0.977200	0.973200
C2441	C244	0.489500	0.947300	0.932500
H1161	H116	0.478500	0.984100	0.902600
C2451	C245	0.461410	0.895200	0.934500
C2461	C246	0.416110	0.898600	0.893900
H1171	H117	0.404300	0.936600	0.865200
C2471	C247	0.598530	0.889200	0.069000
C2481	C248	0.211030	0.137900	0.971700
C2491	C249	0.227290	0.182200	0.023800
H1181	H118	0.257100	0.189000	0.049100
C2501	C250	0.199630	0.216500	0.038600
C2511	C251	0.155380	0.204000	0.002200
H1191	H119	0.136800	0.226500	0.012500
C2521	C252	0.138010	0.157500	0.949700
C2531	C253	0.166570	0.126800	0.934400
H1201	H120	0.155700	0.098400	0.898600
C2541	C254	0.240520	0.105000	0.953300
C2551	C255	0.216700	0.270600	0.092000
C2561	C256	0.090220	0.144900	0.910400
C2571	C257	0.061200	0.192000	0.908300
H1211	H121	0.071200	0.234800	0.931700
C2581	C258	0.015750	0.179700	0.871800
C2591	C259	0.985600	0.233000	0.868100
H1221	H122	0.995400	0.277600	0.888800
C2601	C260	0.942000	0.218100	0.833800
H1231	H123	0.922300	0.251900	0.832900
C2611	C261	0.926410	0.151000	0.799200
C2621	C262	0.954810	0.104700	0.798900
H1241	H124	0.944700	0.063000	0.774000
C2631	C263	0.000250	0.117300	0.835600
C2641	C264	0.030700	0.065600	0.838200
H1251	H125	0.021000	0.022600	0.815100
C2651	C265	0.074600	0.079100	0.875200
H1261	H126	0.094300	0.044700	0.877000
C2661	C266	0.878430	0.138600	0.758900
Cd221	Cd22	0.709280	0.627760	0.807170
Cd231	Cd23	0.818050	0.639580	0.826230
Cd241	Cd24	0.822800	0.572400	0.957710
O851	O85	0.717250	0.511700	0.775100
O861	O86	0.780830	0.552600	0.847690
O871	O87	0.702040	0.246800	0.724000
O881	O88	0.758500	0.178200	0.749170
O891	O89	0.122860	0.433400	0.063600
O901	O90	0.111530	0.344700	0.113300
O911	O91	0.781220	0.609800	0.993700
O921	O92	0.725330	0.575400	0.900900
O931	O93	0.756390	0.773000	0.129690
O941	O94	0.688660	0.812900	0.092200
O951	O95	0.364250	0.586700	0.723300
O961	O96	0.353290	0.684700	0.759000
C2671	C267	0.776760	0.428900	0.814000
C2681	C268	0.751480	0.369500	0.781700
H1271	H127	0.721500	0.374600	0.757000
C2691	C269	0.770730	0.301600	0.786100
C2701	C270	0.815270	0.295000	0.821700
H1281	H128	0.828000	0.250000	0.823500
C2711	C271	0.841490	0.353600	0.854700
C2721	C272	0.821720	0.420500	0.849700
H1291	H129	0.838900	0.461000	0.870600
C2731	C273	0.756530	0.502000	0.811200
C2741	C274	0.742510	0.237400	0.751400
C2751	C275	0.889310	0.347700	0.895800
C2761	C276	0.907270	0.290300	0.939100
H1301	H130	0.889300	0.254300	0.940000
C2771	C277	0.950610	0.287200	0.979700
H1311	H131	0.961900	0.248700	0.008100
C2781	C278	0.978890	0.339800	0.980200
C2791	C279	0.024370	0.339400	0.023700
H1321	H132	0.036100	0.303600	0.054500
C2801	C280	0.050820	0.389700	0.021200
C2811	C281	0.033800	0.443400	0.975300
H1331	H133	0.052300	0.477200	0.973200
C2821	C282	0.989500	0.447300	0.932500
H1341	H134	0.978500	0.484100	0.902600
C2831	C283	0.961410	0.395200	0.934500
C2841	C284	0.916110	0.398600	0.893900
H1351	H135	0.904300	0.436600	0.865200
C2851	C285	0.098530	0.389200	0.069000
C2861	C286	0.711030	0.637900	0.971700
C2871	C287	0.727290	0.682200	0.023800
H1361	H136	0.757100	0.689000	0.049100
C2881	C288	0.699630	0.716500	0.038600
C2891	C289	0.655380	0.704000	0.002200
H1371	H137	0.636800	0.726500	0.012500
C2901	C290	0.638010	0.657500	0.949700
C2911	C291	0.666570	0.626800	0.934400
H1381	H138	0.655700	0.598400	0.898600
C2921	C292	0.740520	0.605000	0.953300
C2931	C293	0.716700	0.770600	0.092000
C2941	C294	0.590220	0.644900	0.910400
C2951	C295	0.561200	0.692000	0.908300
H1391	H139	0.571200	0.734800	0.931700
C2961	C296	0.515750	0.679700	0.871800
C2971	C297	0.485600	0.733000	0.868100
H1401	H140	0.495400	0.777600	0.888800
C2981	C298	0.442000	0.718100	0.833800
H1411	H141	0.422300	0.751900	0.832900
C2991	C299	0.426410	0.651000	0.799200
C3001	C300	0.454810	0.604700	0.798900
H1421	H142	0.444700	0.563000	0.774000
C3011	C301	0.500250	0.617300	0.835600
C3021	C302	0.530700	0.565600	0.838200
H1431	H143	0.521000	0.522600	0.815100
C3031	C303	0.574600	0.579100	0.875200
H1441	H144	0.594300	0.544700	0.877000
C3041	C304	0.378430	0.638600	0.758900
