data_OLOGEC_clean_PM
_symmetry_space_group_name_H-M	'P1'
_cell_length_a	19.089300
_cell_length_b	26.952000
_cell_length_c	27.789100
_cell_angle_alpha	90.000000
_cell_angle_beta	97.087200
_cell_angle_gamma	90.000000
_symmetry_Int_Tables_number 1

loop_
_symmetry_equiv_pos_as_xyz
'x,y,z'

loop_
_atom_site_label
_atom_site_type_symbol
_atom_site_fract_x
_atom_site_fract_y
_atom_site_fract_z
Zn11	Zn1	0.169870	0.390590	0.434880
Zn21	Zn2	0.284380	0.446990	0.503830
Zn31	Zn3	0.160990	0.388230	0.549620
Zn41	Zn4	0.282280	0.331340	0.503850
Zn51	Zn5	0.330130	0.890590	0.065120
Zn61	Zn6	0.215620	0.946990	0.996170
Zn71	Zn7	0.339010	0.888230	0.950380
Zn81	Zn8	0.217720	0.831340	0.996150
H11	H1	0.953000	0.339400	0.430600
H21	H2	0.832100	0.333400	0.430100
H31	H3	0.827600	0.470700	0.485200
H41	H4	0.948500	0.477300	0.484800
H51	H5	0.628500	0.320600	0.525000
H61	H6	0.507300	0.319600	0.526200
H71	H7	0.495300	0.460300	0.477500
H81	H8	0.616400	0.461800	0.477300
H91	H9	0.307900	0.502600	0.671400
H101	H10	0.302000	0.565700	0.727400
H111	H11	0.148700	0.631900	0.637600
H121	H12	0.155500	0.569500	0.581500
H131	H13	0.200400	0.653800	0.841900
H141	H14	0.190300	0.718100	0.896400
H151	H15	0.324400	0.800200	0.827500
H161	H16	0.331700	0.735900	0.772800
H171	H17	0.298800	0.572300	0.417200
H181	H18	0.304600	0.634600	0.360000
H191	H19	0.188700	0.552000	0.259900
H201	H20	0.182000	0.489400	0.317200
H211	H21	0.313800	0.718500	0.238600
H221	H22	0.322500	0.784500	0.185200
H231	H23	0.200000	0.710400	0.081400
H241	H24	0.194900	0.642800	0.134100
H251	H25	0.547000	0.839400	0.069400
H261	H26	0.667900	0.833400	0.069900
H271	H27	0.672400	0.970700	0.014800
H281	H28	0.551500	0.977300	0.015200
H291	H29	0.871500	0.820600	0.975000
H301	H30	0.992700	0.819600	0.973800
H311	H31	0.004700	0.960300	0.022500
H321	H32	0.883600	0.961800	0.022700
H331	H33	0.192100	0.002600	0.828600
H341	H34	0.198000	0.065700	0.772600
H351	H35	0.351300	0.131900	0.862400
H361	H36	0.344500	0.069500	0.918500
H371	H37	0.299600	0.153800	0.658100
H381	H38	0.309700	0.218100	0.603600
H391	H39	0.175600	0.300200	0.672500
H401	H40	0.168300	0.235900	0.727200
H411	H41	0.201200	0.072300	0.082800
H421	H42	0.195400	0.134600	0.140000
H431	H43	0.311300	0.052000	0.240100
H441	H44	0.318000	0.989400	0.182800
H451	H45	0.186200	0.218500	0.261400
H461	H46	0.177500	0.284500	0.314800
H471	H47	0.300000	0.210400	0.418600
H481	H48	0.305100	0.142800	0.365900
C11	C1	0.041480	0.410680	0.459300
C21	C2	0.962680	0.409420	0.457390
C31	C3	0.927730	0.365910	0.441300
C41	C4	0.855480	0.362250	0.441270
C51	C5	0.817620	0.401370	0.457810
C61	C6	0.852780	0.444360	0.474090
C71	C7	0.925220	0.448330	0.473860
C81	C8	0.739830	0.397610	0.457450
C91	C9	0.634830	0.391210	0.501210
C101	C10	0.601880	0.348650	0.515650
C111	C11	0.529090	0.347970	0.516140
C121	C12	0.489030	0.389320	0.501750
C131	C13	0.522080	0.432350	0.487070
C141	C14	0.594500	0.433230	0.486910
C151	C15	0.411090	0.386760	0.501120
C161	C16	0.236930	0.488300	0.585280
C171	C17	0.232010	0.529270	0.620620
C181	C18	0.276020	0.528550	0.664550
C191	C19	0.272670	0.566270	0.698150
C201	C20	0.225070	0.605030	0.687720
C211	C21	0.180720	0.606130	0.644220
C221	C22	0.184770	0.568620	0.610870
C231	C23	0.267950	0.648670	0.763870
C241	C24	0.265930	0.689170	0.801220
C251	C25	0.224500	0.683430	0.838830
C261	C26	0.218990	0.721660	0.871880
C271	C27	0.257030	0.765260	0.867680
C281	C28	0.299260	0.770930	0.830310
C291	C29	0.303370	0.732430	0.797490
C301	C30	0.254890	0.803330	0.905270
C311	C31	0.233900	0.486320	0.409380
C321	C32	0.240140	0.524930	0.372760
C331	C33	0.276710	0.568170	0.385730
C341	C34	0.280260	0.605450	0.351510
C351	C35	0.247530	0.598970	0.304960
C361	C36	0.210600	0.555940	0.291430
C371	C37	0.206730	0.518460	0.325710
C381	C38	0.250820	0.640970	0.270860
C391	C39	0.254750	0.674650	0.191630
C401	C40	0.291790	0.716530	0.206940
C411	C41	0.296540	0.756430	0.175060
C421	C42	0.261600	0.753390	0.127640
C431	C43	0.223590	0.711820	0.112730
C441	C44	0.219900	0.671220	0.144370
C451	C45	0.267790	0.796720	0.094210
C461	C46	0.458520	0.910680	0.040700
C471	C47	0.537320	0.909420	0.042610
C481	C48	0.572270	0.865910	0.058700
C491	C49	0.644520	0.862250	0.058730
C501	C50	0.682380	0.901370	0.042190
C511	C51	0.647220	0.944360	0.025910
C521	C52	0.574780	0.948330	0.026140
C531	C53	0.760170	0.897610	0.042550
C541	C54	0.865170	0.891210	0.998790
C551	C55	0.898120	0.848650	0.984350
C561	C56	0.970910	0.847970	0.983860
C571	C57	0.010970	0.889320	0.998250
C581	C58	0.977920	0.932350	0.012930
C591	C59	0.905500	0.933230	0.013090
C601	C60	0.088910	0.886760	0.998880
C611	C61	0.263070	0.988300	0.914720
C621	C62	0.267990	0.029270	0.879380
C631	C63	0.223980	0.028550	0.835450
C641	C64	0.227330	0.066270	0.801850
C651	C65	0.274930	0.105030	0.812280
C661	C66	0.319280	0.106130	0.855780
C671	C67	0.315230	0.068620	0.889130
C681	C68	0.232050	0.148670	0.736130
C691	C69	0.234070	0.189170	0.698780
C701	C70	0.275500	0.183430	0.661170
C711	C71	0.281010	0.221660	0.628120
C721	C72	0.242970	0.265260	0.632320
C731	C73	0.200740	0.270930	0.669690
C741	C74	0.196630	0.232430	0.702510
C751	C75	0.245110	0.303330	0.594730
C761	C76	0.266100	0.986320	0.090620
C771	C77	0.259860	0.024930	0.127240
C781	C78	0.223290	0.068170	0.114270
C791	C79	0.219740	0.105450	0.148490
C801	C80	0.252470	0.098970	0.195040
C811	C81	0.289400	0.055940	0.208570
C821	C82	0.293270	0.018460	0.174290
C831	C83	0.249180	0.140970	0.229140
C841	C84	0.245250	0.174650	0.308370
C851	C85	0.208210	0.216530	0.293060
C861	C86	0.203460	0.256430	0.324940
C871	C87	0.238400	0.253390	0.372360
C881	C88	0.276410	0.211820	0.387270
C891	C89	0.280100	0.171220	0.355630
C901	C90	0.232210	0.296720	0.405790
N11	N1	0.711760	0.394400	0.499460
N21	N2	0.246170	0.634270	0.226390
N31	N3	0.225710	0.647890	0.723190
N41	N4	0.788240	0.894400	0.000540
N51	N5	0.253830	0.134270	0.273610
N61	N6	0.274290	0.147890	0.776810
O11	O1	0.224130	0.389890	0.498260
O21	O2	0.068870	0.388520	0.427290
O31	O3	0.699900	0.398600	0.418160
O41	O4	0.382270	0.347230	0.504980
O51	O5	0.376700	0.426690	0.499850
O61	O6	0.192160	0.454270	0.584950
O71	O7	0.281490	0.492680	0.557780
O81	O8	0.312930	0.614500	0.773770
O91	O9	0.219740	0.790940	0.938660
O101	O10	0.199520	0.446980	0.397070
O111	O11	0.264060	0.495240	0.451230
O121	O12	0.256290	0.688090	0.275750
O131	O13	0.236350	0.794630	0.052210
O141	O14	0.306080	0.831820	0.107630
O151	O15	0.077880	0.435230	0.490140
O161	O16	0.284530	0.842800	0.899970
O171	O17	0.275870	0.889890	0.001740
O181	O18	0.431130	0.888520	0.072710
O191	O19	0.800100	0.898600	0.081840
O201	O20	0.117730	0.847230	0.995020
O211	O21	0.123300	0.926690	0.000150
O221	O22	0.307840	0.954270	0.915050
O231	O23	0.218510	0.992680	0.942220
O241	O24	0.187070	0.114500	0.726230
O251	O25	0.280260	0.290940	0.561340
O261	O26	0.300480	0.946980	0.102930
O271	O27	0.235940	0.995240	0.048770
O281	O28	0.243710	0.188090	0.224250
O291	O29	0.263650	0.294630	0.447790
O301	O30	0.193920	0.331820	0.392370
O311	O31	0.422120	0.935230	0.009860
O321	O32	0.215470	0.342800	0.600030
Zn91	Zn9	0.830130	0.609410	0.565120
Zn101	Zn10	0.715620	0.553010	0.496170
Zn111	Zn11	0.839010	0.611770	0.450380
Zn121	Zn12	0.717720	0.668660	0.496150
Zn131	Zn13	0.669870	0.109410	0.934880
Zn141	Zn14	0.784380	0.053010	0.003830
Zn151	Zn15	0.660990	0.111770	0.049620
Zn161	Zn16	0.782280	0.168660	0.003850
H491	H49	0.047000	0.660600	0.569400
H501	H50	0.167900	0.666600	0.569900
H511	H51	0.172400	0.529300	0.514800
H521	H52	0.051500	0.522700	0.515200
H531	H53	0.371500	0.679400	0.475000
H541	H54	0.492700	0.680400	0.473800
H551	H55	0.504700	0.539700	0.522500
H561	H56	0.383600	0.538200	0.522700
H571	H57	0.692100	0.497400	0.328600
H581	H58	0.698000	0.434300	0.272600
H591	H59	0.851300	0.368100	0.362400
H601	H60	0.844500	0.430500	0.418500
H611	H61	0.799600	0.346200	0.158100
H621	H62	0.809700	0.281900	0.103600
H631	H63	0.675600	0.199800	0.172500
H641	H64	0.668300	0.264100	0.227200
H651	H65	0.701200	0.427700	0.582800
H661	H66	0.695400	0.365400	0.640000
H671	H67	0.811300	0.448000	0.740100
H681	H68	0.818000	0.510600	0.682800
H691	H69	0.686200	0.281500	0.761400
H701	H70	0.677500	0.215500	0.814800
H711	H71	0.800000	0.289600	0.918600
H721	H72	0.805100	0.357200	0.865900
H731	H73	0.453000	0.160600	0.930600
H741	H74	0.332100	0.166600	0.930100
H751	H75	0.327600	0.029300	0.985200
H761	H76	0.448500	0.022700	0.984800
H771	H77	0.128500	0.179400	0.025000
H781	H78	0.007300	0.180400	0.026200
H791	H79	0.995300	0.039700	0.977500
H801	H80	0.116400	0.038200	0.977300
H811	H81	0.807900	0.997400	0.171400
H821	H82	0.802000	0.934300	0.227400
H831	H83	0.648700	0.868100	0.137600
H841	H84	0.655500	0.930500	0.081500
H851	H85	0.700400	0.846200	0.341900
H861	H86	0.690300	0.781900	0.396400
H871	H87	0.824400	0.699800	0.327500
H881	H88	0.831700	0.764100	0.272800
H891	H89	0.798800	0.927700	0.917200
H901	H90	0.804600	0.865400	0.860000
H911	H91	0.688700	0.948000	0.759900
H921	H92	0.682000	0.010600	0.817200
H931	H93	0.813800	0.781500	0.738600
H941	H94	0.822500	0.715500	0.685200
H951	H95	0.700000	0.789600	0.581400
H961	H96	0.694900	0.857200	0.634100
C911	C91	0.958520	0.589320	0.540700
C921	C92	0.037320	0.590580	0.542610
C931	C93	0.072270	0.634090	0.558700
C941	C94	0.144520	0.637750	0.558730
C951	C95	0.182380	0.598630	0.542190
C961	C96	0.147220	0.555640	0.525910
C971	C97	0.074780	0.551670	0.526140
C981	C98	0.260170	0.602390	0.542550
C991	C99	0.365170	0.608790	0.498790
C1001	C100	0.398120	0.651350	0.484350
C1011	C101	0.470910	0.652030	0.483860
C1021	C102	0.510970	0.610680	0.498250
C1031	C103	0.477920	0.567650	0.512930
C1041	C104	0.405500	0.566770	0.513090
C1051	C105	0.588910	0.613240	0.498880
C1061	C106	0.763070	0.511700	0.414720
C1071	C107	0.767990	0.470730	0.379380
C1081	C108	0.723980	0.471450	0.335450
C1091	C109	0.727330	0.433730	0.301850
C1101	C110	0.774930	0.394970	0.312280
C1111	C111	0.819280	0.393870	0.355780
C1121	C112	0.815230	0.431380	0.389130
C1131	C113	0.732050	0.351330	0.236130
C1141	C114	0.734070	0.310830	0.198780
C1151	C115	0.775500	0.316570	0.161170
C1161	C116	0.781010	0.278340	0.128120
C1171	C117	0.742970	0.234740	0.132320
C1181	C118	0.700740	0.229070	0.169690
C1191	C119	0.696630	0.267570	0.202510
C1201	C120	0.745110	0.196670	0.094730
C1211	C121	0.766100	0.513680	0.590620
C1221	C122	0.759860	0.475070	0.627240
C1231	C123	0.723290	0.431830	0.614270
C1241	C124	0.719740	0.394550	0.648490
C1251	C125	0.752470	0.401030	0.695040
C1261	C126	0.789400	0.444060	0.708570
C1271	C127	0.793270	0.481540	0.674290
C1281	C128	0.749180	0.359030	0.729140
C1291	C129	0.745250	0.325350	0.808370
C1301	C130	0.708210	0.283470	0.793060
C1311	C131	0.703460	0.243570	0.824940
C1321	C132	0.738400	0.246610	0.872360
C1331	C133	0.776410	0.288180	0.887270
C1341	C134	0.780100	0.328780	0.855630
C1351	C135	0.732210	0.203280	0.905790
C1361	C136	0.541480	0.089320	0.959300
C1371	C137	0.462680	0.090580	0.957390
C1381	C138	0.427730	0.134090	0.941300
C1391	C139	0.355480	0.137750	0.941270
C1401	C140	0.317620	0.098630	0.957810
C1411	C141	0.352780	0.055640	0.974090
C1421	C142	0.425220	0.051670	0.973860
C1431	C143	0.239830	0.102390	0.957450
C1441	C144	0.134830	0.108790	0.001210
C1451	C145	0.101880	0.151350	0.015650
C1461	C146	0.029090	0.152030	0.016140
C1471	C147	0.989030	0.110680	0.001750
C1481	C148	0.022080	0.067650	0.987070
C1491	C149	0.094500	0.066770	0.986910
C1501	C150	0.911090	0.113240	0.001120
C1511	C151	0.736930	0.011700	0.085280
C1521	C152	0.732010	0.970730	0.120620
C1531	C153	0.776020	0.971450	0.164550
C1541	C154	0.772670	0.933730	0.198150
C1551	C155	0.725070	0.894970	0.187720
C1561	C156	0.680720	0.893870	0.144220
C1571	C157	0.684770	0.931380	0.110870
C1581	C158	0.767950	0.851330	0.263870
C1591	C159	0.765930	0.810830	0.301220
C1601	C160	0.724500	0.816570	0.338830
C1611	C161	0.718990	0.778340	0.371880
C1621	C162	0.757030	0.734740	0.367680
C1631	C163	0.799260	0.729070	0.330310
C1641	C164	0.803370	0.767570	0.297490
C1651	C165	0.754890	0.696670	0.405270
C1661	C166	0.733900	0.013680	0.909380
C1671	C167	0.740140	0.975070	0.872760
C1681	C168	0.776710	0.931830	0.885730
C1691	C169	0.780260	0.894550	0.851510
C1701	C170	0.747530	0.901030	0.804960
C1711	C171	0.710600	0.944060	0.791430
C1721	C172	0.706730	0.981540	0.825710
C1731	C173	0.750820	0.859030	0.770860
C1741	C174	0.754750	0.825350	0.691630
C1751	C175	0.791790	0.783470	0.706940
C1761	C176	0.796540	0.743570	0.675060
C1771	C177	0.761600	0.746610	0.627640
C1781	C178	0.723590	0.788180	0.612730
C1791	C179	0.719900	0.828780	0.644370
C1801	C180	0.767790	0.703280	0.594210
N71	N7	0.288240	0.605600	0.500540
N81	N8	0.753830	0.365730	0.773610
N91	N9	0.774290	0.352110	0.276810
N101	N10	0.211760	0.105600	0.999460
N111	N11	0.746170	0.865730	0.726390
N121	N12	0.725710	0.852110	0.223190
O331	O33	0.775870	0.610110	0.501740
O341	O34	0.931130	0.611480	0.572710
O351	O35	0.300100	0.601400	0.581840
O361	O36	0.617730	0.652770	0.495020
O371	O37	0.623300	0.573310	0.500150
O381	O38	0.807840	0.545730	0.415050
O391	O39	0.718510	0.507320	0.442220
O401	O40	0.687070	0.385500	0.226230
O411	O41	0.780260	0.209060	0.061340
O421	O42	0.800480	0.553020	0.602930
O431	O43	0.735940	0.504760	0.548770
O441	O44	0.743710	0.311910	0.724250
O451	O45	0.763650	0.205370	0.947790
O461	O46	0.693920	0.168180	0.892370
O471	O47	0.922120	0.564770	0.509860
O481	O48	0.715470	0.157200	0.100030
O491	O49	0.724130	0.110110	0.998260
O501	O50	0.568870	0.111480	0.927290
O511	O51	0.199900	0.101400	0.918160
O521	O52	0.882270	0.152770	0.004980
O531	O53	0.876700	0.073310	0.999850
O541	O54	0.692160	0.045730	0.084950
O551	O55	0.781490	0.007320	0.057780
O561	O56	0.812930	0.885500	0.273770
O571	O57	0.719740	0.709060	0.438660
O581	O58	0.699520	0.053020	0.897070
O591	O59	0.764060	0.004760	0.951230
O601	O60	0.756290	0.811910	0.775750
O611	O61	0.736350	0.705370	0.552210
O621	O62	0.806080	0.668180	0.607630
O631	O63	0.577880	0.064770	0.990140
O641	O64	0.784530	0.657200	0.399970
