data_OLOKEF_clean_PM
_symmetry_space_group_name_H-M	'P1'
_cell_length_a	6.910000
_cell_length_b	7.389000
_cell_length_c	8.223000
_cell_angle_alpha	90.080000
_cell_angle_beta	109.830000
_cell_angle_gamma	93.370000
_symmetry_Int_Tables_number 1

loop_
_symmetry_equiv_pos_as_xyz
'x,y,z'

loop_
_atom_site_label
_atom_site_type_symbol
_atom_site_fract_x
_atom_site_fract_y
_atom_site_fract_z
Ni11	Ni1	0.000000	0.500000	0.000000
Ni21	Ni2	0.500000	0.000000	0.000000
H11	H1	0.429000	0.796000	0.537500
H21	H2	0.571000	0.204000	0.462500
C11	C1	0.581000	0.661300	0.840300
C21	C2	0.539500	0.571400	0.666800
C31	C3	0.581200	0.392100	0.642800
C41	C4	0.457900	0.677000	0.522600
C51	C5	0.647600	0.260500	0.788000
C61	C6	0.419000	0.338700	0.159700
C71	C7	0.460500	0.428600	0.333200
C81	C8	0.418800	0.607900	0.357200
C91	C9	0.542100	0.323000	0.477400
C101	C10	0.352400	0.739500	0.212000
O11	O1	0.447600	0.764400	0.851000
O21	O2	0.745100	0.637900	0.961500
O31	O3	0.829300	0.270300	0.895400
O41	O4	0.512500	0.141100	0.789700
O51	O5	0.552400	0.235600	0.149000
O61	O6	0.254900	0.362100	0.038500
O71	O7	0.170700	0.729700	0.104600
O81	O8	0.487500	0.858900	0.210300
