data_OLOPEM_clean_PM
_symmetry_space_group_name_H-M	'P1'
_cell_length_a	26.982000
_cell_length_b	8.033000
_cell_length_c	23.293000
_cell_angle_alpha	90.000000
_cell_angle_beta	98.992000
_cell_angle_gamma	90.000000
_symmetry_Int_Tables_number 1

loop_
_symmetry_equiv_pos_as_xyz
'x,y,z'

loop_
_atom_site_label
_atom_site_type_symbol
_atom_site_fract_x
_atom_site_fract_y
_atom_site_fract_z
Zn11	Zn1	0.039810	0.124770	0.001640
O11	O1	0.986050	0.233400	0.041530
O21	O2	0.925590	0.046900	0.042150
O31	O3	0.852550	0.609900	0.196600
O41	O4	0.938860	0.995000	0.423390
O51	O5	0.998640	0.808300	0.424180
N11	N1	0.093850	0.301900	0.014820
N21	N2	0.234220	0.679800	0.999100
C11	C1	0.945780	0.184100	0.055600
C21	C2	0.920080	0.298700	0.091200
C31	C3	0.878000	0.249100	0.114100
H11	H1	0.864600	0.143600	0.105900
C41	C4	0.856000	0.356800	0.149200
H21	H2	0.827200	0.324300	0.163700
C51	C5	0.875400	0.504200	0.162000
C61	C6	0.916100	0.563100	0.137400
H31	H3	0.928000	0.671100	0.144400
C71	C7	0.937980	0.457600	0.102900
H41	H4	0.965600	0.493800	0.086900
C81	C8	0.880900	0.674900	0.245800
C91	C9	0.863800	0.814600	0.267700
H51	H5	0.835100	0.866300	0.248500
C101	C10	0.889100	0.881100	0.318700
H61	H6	0.876800	0.976500	0.334200
C111	C11	0.932180	0.808600	0.346900
C121	C12	0.948600	0.664300	0.322900
H71	H7	0.977400	0.611800	0.341400
C131	C13	0.923400	0.597800	0.273100
H81	H8	0.935000	0.501000	0.257700
C141	C14	0.958580	0.875100	0.402000
C151	C15	0.134860	0.292100	0.990400
H91	H9	0.139900	0.197300	0.969200
C161	C16	0.170470	0.416600	0.995200
H101	H10	0.199100	0.403800	0.977900
C171	C17	0.163890	0.557000	0.024900
C181	C18	0.121800	0.567500	0.051000
H111	H11	0.115700	0.661700	0.072000
C191	C19	0.088200	0.432600	0.045400
H121	H12	0.060400	0.437900	0.064500
C201	C20	0.198810	0.699000	0.028000
C211	C21	0.189600	0.847800	0.062000
H131	H13	0.199200	0.825100	0.102700
H141	H14	0.154500	0.875500	0.054400
H151	H15	0.208900	0.939400	0.051000
Zn21	Zn2	0.539810	0.624770	0.001640
O61	O6	0.486050	0.733400	0.041530
O71	O7	0.425590	0.546900	0.042150
O81	O8	0.352550	0.109900	0.196600
O91	O9	0.438860	0.495000	0.423390
O101	O10	0.498640	0.308300	0.424180
N31	N3	0.593850	0.801900	0.014820
N41	N4	0.734220	0.179800	0.999100
C221	C22	0.445780	0.684100	0.055600
C231	C23	0.420080	0.798700	0.091200
C241	C24	0.378000	0.749100	0.114100
H161	H16	0.364600	0.643600	0.105900
C251	C25	0.356000	0.856800	0.149200
H171	H17	0.327200	0.824300	0.163700
C261	C26	0.375400	0.004200	0.162000
C271	C27	0.416100	0.063100	0.137400
H181	H18	0.428000	0.171100	0.144400
C281	C28	0.437980	0.957600	0.102900
H191	H19	0.465600	0.993800	0.086900
C291	C29	0.380900	0.174900	0.245800
C301	C30	0.363800	0.314600	0.267700
H201	H20	0.335100	0.366300	0.248500
C311	C31	0.389100	0.381100	0.318700
H211	H21	0.376800	0.476500	0.334200
C321	C32	0.432180	0.308600	0.346900
C331	C33	0.448600	0.164300	0.322900
H221	H22	0.477400	0.111800	0.341400
C341	C34	0.423400	0.097800	0.273100
H231	H23	0.435000	0.001000	0.257700
C351	C35	0.458580	0.375100	0.402000
C361	C36	0.634860	0.792100	0.990400
H241	H24	0.639900	0.697300	0.969200
C371	C37	0.670470	0.916600	0.995200
H251	H25	0.699100	0.903800	0.977900
C381	C38	0.663890	0.057000	0.024900
C391	C39	0.621800	0.067500	0.051000
H261	H26	0.615700	0.161700	0.072000
C401	C40	0.588200	0.932600	0.045400
H271	H27	0.560400	0.937900	0.064500
C411	C41	0.698810	0.199000	0.028000
C421	C42	0.689600	0.347800	0.062000
H281	H28	0.699200	0.325100	0.102700
H291	H29	0.654500	0.375500	0.054400
H301	H30	0.708900	0.439400	0.051000
Zn31	Zn3	0.960190	0.124770	0.498360
O111	O11	0.013950	0.233400	0.458470
O121	O12	0.074410	0.046900	0.457850
O131	O13	0.147450	0.609900	0.303400
O141	O14	0.061140	0.995000	0.076610
O151	O15	0.001360	0.808300	0.075820
N51	N5	0.906150	0.301900	0.485180
N61	N6	0.765780	0.679800	0.500900
C431	C43	0.054220	0.184100	0.444400
C441	C44	0.079920	0.298700	0.408800
C451	C45	0.122000	0.249100	0.385900
H311	H31	0.135400	0.143600	0.394100
C461	C46	0.144000	0.356800	0.350800
H321	H32	0.172800	0.324300	0.336300
C471	C47	0.124600	0.504200	0.338000
C481	C48	0.083900	0.563100	0.362600
H331	H33	0.072000	0.671100	0.355600
C491	C49	0.062020	0.457600	0.397100
H341	H34	0.034400	0.493800	0.413100
C501	C50	0.119100	0.674900	0.254200
C511	C51	0.136200	0.814600	0.232300
H351	H35	0.164900	0.866300	0.251500
C521	C52	0.110900	0.881100	0.181300
H361	H36	0.123200	0.976500	0.165800
C531	C53	0.067820	0.808600	0.153100
C541	C54	0.051400	0.664300	0.177100
H371	H37	0.022600	0.611800	0.158600
C551	C55	0.076600	0.597800	0.226900
H381	H38	0.065000	0.501000	0.242300
C561	C56	0.041420	0.875100	0.098000
C571	C57	0.865140	0.292100	0.509600
H391	H39	0.860100	0.197300	0.530800
C581	C58	0.829530	0.416600	0.504800
H401	H40	0.800900	0.403800	0.522100
C591	C59	0.836110	0.557000	0.475100
C601	C60	0.878200	0.567500	0.449000
H411	H41	0.884300	0.661700	0.428000
C611	C61	0.911800	0.432600	0.454600
H421	H42	0.939600	0.437900	0.435500
C621	C62	0.801190	0.699000	0.472000
C631	C63	0.810400	0.847800	0.438000
H431	H43	0.800800	0.825100	0.397300
H441	H44	0.845500	0.875500	0.445600
H451	H45	0.791100	0.939400	0.449000
Zn41	Zn4	0.460190	0.624770	0.498360
O161	O16	0.513950	0.733400	0.458470
O171	O17	0.574410	0.546900	0.457850
O181	O18	0.647450	0.109900	0.303400
O191	O19	0.561140	0.495000	0.076610
O201	O20	0.501360	0.308300	0.075820
N71	N7	0.406150	0.801900	0.485180
N81	N8	0.265780	0.179800	0.500900
C641	C64	0.554220	0.684100	0.444400
C651	C65	0.579920	0.798700	0.408800
C661	C66	0.622000	0.749100	0.385900
H461	H46	0.635400	0.643600	0.394100
C671	C67	0.644000	0.856800	0.350800
H471	H47	0.672800	0.824300	0.336300
C681	C68	0.624600	0.004200	0.338000
C691	C69	0.583900	0.063100	0.362600
H481	H48	0.572000	0.171100	0.355600
C701	C70	0.562020	0.957600	0.397100
H491	H49	0.534400	0.993800	0.413100
C711	C71	0.619100	0.174900	0.254200
C721	C72	0.636200	0.314600	0.232300
H501	H50	0.664900	0.366300	0.251500
C731	C73	0.610900	0.381100	0.181300
H511	H51	0.623200	0.476500	0.165800
C741	C74	0.567820	0.308600	0.153100
C751	C75	0.551400	0.164300	0.177100
H521	H52	0.522600	0.111800	0.158600
C761	C76	0.576600	0.097800	0.226900
H531	H53	0.565000	0.001000	0.242300
C771	C77	0.541420	0.375100	0.098000
C781	C78	0.365140	0.792100	0.509600
H541	H54	0.360100	0.697300	0.530800
C791	C79	0.329530	0.916600	0.504800
H551	H55	0.300900	0.903800	0.522100
C801	C80	0.336110	0.057000	0.475100
C811	C81	0.378200	0.067500	0.449000
H561	H56	0.384300	0.161700	0.428000
C821	C82	0.411800	0.932600	0.454600
H571	H57	0.439600	0.937900	0.435500
C831	C83	0.301190	0.199000	0.472000
C841	C84	0.310400	0.347800	0.438000
H581	H58	0.300800	0.325100	0.397300
H591	H59	0.345500	0.375500	0.445600
H601	H60	0.291100	0.439400	0.449000
Zn51	Zn5	0.960190	0.875230	0.998360
O211	O21	0.013950	0.766600	0.958470
O221	O22	0.074410	0.953100	0.957850
O231	O23	0.147450	0.390100	0.803400
O241	O24	0.061140	0.005000	0.576610
O251	O25	0.001360	0.191700	0.575820
N91	N9	0.906150	0.698100	0.985180
N101	N10	0.765780	0.320200	0.000900
C851	C85	0.054220	0.815900	0.944400
C861	C86	0.079920	0.701300	0.908800
C871	C87	0.122000	0.750900	0.885900
H611	H61	0.135400	0.856400	0.894100
C881	C88	0.144000	0.643200	0.850800
H621	H62	0.172800	0.675700	0.836300
C891	C89	0.124600	0.495800	0.838000
C901	C90	0.083900	0.436900	0.862600
H631	H63	0.072000	0.328900	0.855600
C911	C91	0.062020	0.542400	0.897100
H641	H64	0.034400	0.506200	0.913100
C921	C92	0.119100	0.325100	0.754200
C931	C93	0.136200	0.185400	0.732300
H651	H65	0.164900	0.133700	0.751500
C941	C94	0.110900	0.118900	0.681300
H661	H66	0.123200	0.023500	0.665800
C951	C95	0.067820	0.191400	0.653100
C961	C96	0.051400	0.335700	0.677100
H671	H67	0.022600	0.388200	0.658600
C971	C97	0.076600	0.402200	0.726900
H681	H68	0.065000	0.499000	0.742300
C981	C98	0.041420	0.124900	0.598000
C991	C99	0.865140	0.707900	0.009600
H691	H69	0.860100	0.802700	0.030800
C1001	C100	0.829530	0.583400	0.004800
H701	H70	0.800900	0.596200	0.022100
C1011	C101	0.836110	0.443000	0.975100
C1021	C102	0.878200	0.432500	0.949000
H711	H71	0.884300	0.338300	0.928000
C1031	C103	0.911800	0.567400	0.954600
H721	H72	0.939600	0.562100	0.935500
C1041	C104	0.801190	0.301000	0.972000
C1051	C105	0.810400	0.152200	0.938000
H731	H73	0.800800	0.174900	0.897300
H741	H74	0.845500	0.124500	0.945600
H751	H75	0.791100	0.060600	0.949000
Zn61	Zn6	0.460190	0.375230	0.998360
O261	O26	0.513950	0.266600	0.958470
O271	O27	0.574410	0.453100	0.957850
O281	O28	0.647450	0.890100	0.803400
O291	O29	0.561140	0.505000	0.576610
O301	O30	0.501360	0.691700	0.575820
N111	N11	0.406150	0.198100	0.985180
N121	N12	0.265780	0.820200	0.000900
C1061	C106	0.554220	0.315900	0.944400
C1071	C107	0.579920	0.201300	0.908800
C1081	C108	0.622000	0.250900	0.885900
H761	H76	0.635400	0.356400	0.894100
C1091	C109	0.644000	0.143200	0.850800
H771	H77	0.672800	0.175700	0.836300
C1101	C110	0.624600	0.995800	0.838000
C1111	C111	0.583900	0.936900	0.862600
H781	H78	0.572000	0.828900	0.855600
C1121	C112	0.562020	0.042400	0.897100
H791	H79	0.534400	0.006200	0.913100
C1131	C113	0.619100	0.825100	0.754200
C1141	C114	0.636200	0.685400	0.732300
H801	H80	0.664900	0.633700	0.751500
C1151	C115	0.610900	0.618900	0.681300
H811	H81	0.623200	0.523500	0.665800
C1161	C116	0.567820	0.691400	0.653100
C1171	C117	0.551400	0.835700	0.677100
H821	H82	0.522600	0.888200	0.658600
C1181	C118	0.576600	0.902200	0.726900
H831	H83	0.565000	0.999000	0.742300
C1191	C119	0.541420	0.624900	0.598000
C1201	C120	0.365140	0.207900	0.009600
H841	H84	0.360100	0.302700	0.030800
C1211	C121	0.329530	0.083400	0.004800
H851	H85	0.300900	0.096200	0.022100
C1221	C122	0.336110	0.943000	0.975100
C1231	C123	0.378200	0.932500	0.949000
H861	H86	0.384300	0.838300	0.928000
C1241	C124	0.411800	0.067400	0.954600
H871	H87	0.439600	0.062100	0.935500
C1251	C125	0.301190	0.801000	0.972000
C1261	C126	0.310400	0.652200	0.938000
H881	H88	0.300800	0.674900	0.897300
H891	H89	0.345500	0.624500	0.945600
H901	H90	0.291100	0.560600	0.949000
Zn71	Zn7	0.039810	0.875230	0.501640
O311	O31	0.986050	0.766600	0.541530
O321	O32	0.925590	0.953100	0.542150
O331	O33	0.852550	0.390100	0.696600
O341	O34	0.938860	0.005000	0.923390
O351	O35	0.998640	0.191700	0.924180
N131	N13	0.093850	0.698100	0.514820
N141	N14	0.234220	0.320200	0.499100
C1271	C127	0.945780	0.815900	0.555600
C1281	C128	0.920080	0.701300	0.591200
C1291	C129	0.878000	0.750900	0.614100
H911	H91	0.864600	0.856400	0.605900
C1301	C130	0.856000	0.643200	0.649200
H921	H92	0.827200	0.675700	0.663700
C1311	C131	0.875400	0.495800	0.662000
C1321	C132	0.916100	0.436900	0.637400
H931	H93	0.928000	0.328900	0.644400
C1331	C133	0.937980	0.542400	0.602900
H941	H94	0.965600	0.506200	0.586900
C1341	C134	0.880900	0.325100	0.745800
C1351	C135	0.863800	0.185400	0.767700
H951	H95	0.835100	0.133700	0.748500
C1361	C136	0.889100	0.118900	0.818700
H961	H96	0.876800	0.023500	0.834200
C1371	C137	0.932180	0.191400	0.846900
C1381	C138	0.948600	0.335700	0.822900
H971	H97	0.977400	0.388200	0.841400
C1391	C139	0.923400	0.402200	0.773100
H981	H98	0.935000	0.499000	0.757700
C1401	C140	0.958580	0.124900	0.902000
C1411	C141	0.134860	0.707900	0.490400
H991	H99	0.139900	0.802700	0.469200
C1421	C142	0.170470	0.583400	0.495200
H1001	H100	0.199100	0.596200	0.477900
C1431	C143	0.163890	0.443000	0.524900
C1441	C144	0.121800	0.432500	0.551000
H1011	H101	0.115700	0.338300	0.572000
C1451	C145	0.088200	0.567400	0.545400
H1021	H102	0.060400	0.562100	0.564500
C1461	C146	0.198810	0.301000	0.528000
C1471	C147	0.189600	0.152200	0.562000
H1031	H103	0.199200	0.174900	0.602700
H1041	H104	0.154500	0.124500	0.554400
H1051	H105	0.208900	0.060600	0.551000
Zn81	Zn8	0.539810	0.375230	0.501640
O361	O36	0.486050	0.266600	0.541530
O371	O37	0.425590	0.453100	0.542150
O381	O38	0.352550	0.890100	0.696600
O391	O39	0.438860	0.505000	0.923390
O401	O40	0.498640	0.691700	0.924180
N151	N15	0.593850	0.198100	0.514820
N161	N16	0.734220	0.820200	0.499100
C1481	C148	0.445780	0.315900	0.555600
C1491	C149	0.420080	0.201300	0.591200
C1501	C150	0.378000	0.250900	0.614100
H1061	H106	0.364600	0.356400	0.605900
C1511	C151	0.356000	0.143200	0.649200
H1071	H107	0.327200	0.175700	0.663700
C1521	C152	0.375400	0.995800	0.662000
C1531	C153	0.416100	0.936900	0.637400
H1081	H108	0.428000	0.828900	0.644400
C1541	C154	0.437980	0.042400	0.602900
H1091	H109	0.465600	0.006200	0.586900
C1551	C155	0.380900	0.825100	0.745800
C1561	C156	0.363800	0.685400	0.767700
H1101	H110	0.335100	0.633700	0.748500
C1571	C157	0.389100	0.618900	0.818700
H1111	H111	0.376800	0.523500	0.834200
C1581	C158	0.432180	0.691400	0.846900
C1591	C159	0.448600	0.835700	0.822900
H1121	H112	0.477400	0.888200	0.841400
C1601	C160	0.423400	0.902200	0.773100
H1131	H113	0.435000	0.999000	0.757700
C1611	C161	0.458580	0.624900	0.902000
C1621	C162	0.634860	0.207900	0.490400
H1141	H114	0.639900	0.302700	0.469200
C1631	C163	0.670470	0.083400	0.495200
H1151	H115	0.699100	0.096200	0.477900
C1641	C164	0.663890	0.943000	0.524900
C1651	C165	0.621800	0.932500	0.551000
H1161	H116	0.615700	0.838300	0.572000
C1661	C166	0.588200	0.067400	0.545400
H1171	H117	0.560400	0.062100	0.564500
C1671	C167	0.698810	0.801000	0.528000
C1681	C168	0.689600	0.652200	0.562000
H1181	H118	0.699200	0.674900	0.602700
H1191	H119	0.654500	0.624500	0.554400
H1201	H120	0.708900	0.560600	0.551000
