data_OLUCAZ_clean_PM
_symmetry_space_group_name_H-M	'P1'
_cell_length_a	9.052100
_cell_length_b	15.401000
_cell_length_c	17.141000
_cell_angle_alpha	90.000000
_cell_angle_beta	90.000000
_cell_angle_gamma	90.000000
_symmetry_Int_Tables_number 1

loop_
_symmetry_equiv_pos_as_xyz
'x,y,z'

loop_
_atom_site_label
_atom_site_type_symbol
_atom_site_fract_x
_atom_site_fract_y
_atom_site_fract_z
Cu11	Cu1	0.570640	0.278270	0.781850
Cu21	Cu2	0.070640	0.721730	0.218150
Cu31	Cu3	0.570640	0.778270	0.718150
Cu41	Cu4	0.070640	0.221730	0.281850
H11	H1	0.265100	0.691400	0.667900
H21	H2	0.391100	0.767000	0.874500
H31	H3	0.139600	0.707500	0.887700
H41	H4	0.976000	0.667000	0.700300
H51	H5	0.941200	0.653800	0.789000
H61	H6	0.075500	0.534200	0.688600
H71	H7	0.931800	0.519800	0.737800
H81	H8	0.076700	0.515400	0.852400
H91	H9	0.219300	0.525700	0.801300
H101	H10	0.143900	0.388400	0.737900
H111	H11	0.212300	0.380500	0.821700
H121	H12	0.856900	0.361100	0.726100
H131	H13	0.035500	0.328300	0.934100
H141	H14	0.783400	0.270500	0.936500
H151	H15	0.808300	0.220500	0.574300
H161	H16	0.875900	0.027900	0.421100
H171	H17	0.737500	0.936100	0.497000
H181	H18	0.653100	0.981900	0.618100
H191	H19	0.765100	0.308600	0.332100
H201	H20	0.891100	0.233000	0.125500
H211	H21	0.639600	0.292500	0.112300
H221	H22	0.476000	0.333000	0.299700
H231	H23	0.441200	0.346200	0.211000
H241	H24	0.575500	0.465800	0.311400
H251	H25	0.431800	0.480200	0.262200
H261	H26	0.576700	0.484600	0.147600
H271	H27	0.719300	0.474300	0.198700
H281	H28	0.643900	0.611600	0.262100
H291	H29	0.712300	0.619500	0.178300
H301	H30	0.356900	0.638900	0.273900
H311	H31	0.535500	0.671700	0.065900
H321	H32	0.283400	0.729500	0.063500
H331	H33	0.308300	0.779500	0.425700
H341	H34	0.375900	0.972100	0.578900
H351	H35	0.237500	0.063900	0.503000
H361	H36	0.153100	0.018100	0.381900
H371	H37	0.265100	0.191400	0.832100
H381	H38	0.391100	0.267000	0.625500
H391	H39	0.139600	0.207500	0.612300
H401	H40	0.976000	0.167000	0.799700
H411	H41	0.941200	0.153800	0.711000
H421	H42	0.075500	0.034200	0.811400
H431	H43	0.931800	0.019800	0.762200
H441	H44	0.076700	0.015400	0.647600
H451	H45	0.219300	0.025700	0.698700
H461	H46	0.143900	0.888400	0.762100
H471	H47	0.212300	0.880500	0.678300
H481	H48	0.856900	0.861100	0.773900
H491	H49	0.035500	0.828300	0.565900
H501	H50	0.783400	0.770500	0.563500
H511	H51	0.808300	0.720500	0.925700
H521	H52	0.875900	0.527900	0.078900
H531	H53	0.737500	0.436100	0.003000
H541	H54	0.653100	0.481900	0.881900
H551	H55	0.765100	0.808600	0.167900
H561	H56	0.891100	0.733000	0.374500
H571	H57	0.639600	0.792500	0.387700
H581	H58	0.476000	0.833000	0.200300
H591	H59	0.441200	0.846200	0.289000
H601	H60	0.575500	0.965800	0.188600
H611	H61	0.431800	0.980200	0.237800
H621	H62	0.576700	0.984600	0.352400
H631	H63	0.719300	0.974300	0.301300
H641	H64	0.643900	0.111600	0.237900
H651	H65	0.712300	0.119500	0.321700
H661	H66	0.356900	0.138900	0.226100
H671	H67	0.535500	0.171700	0.434100
H681	H68	0.283400	0.229500	0.436500
H691	H69	0.308300	0.279500	0.074300
H701	H70	0.375900	0.472100	0.921100
H711	H71	0.237500	0.563900	0.997000
H721	H72	0.153100	0.518100	0.118100
C11	C1	0.265100	0.702900	0.721200
C21	C2	0.333800	0.744200	0.834400
C31	C3	0.194700	0.711500	0.842000
C41	C4	0.013400	0.642300	0.748500
C51	C5	0.029500	0.545700	0.738600
C61	C6	0.120000	0.502100	0.802000
C71	C7	0.128500	0.402400	0.792500
C81	C8	0.869200	0.345800	0.778200
C91	C9	0.969000	0.328100	0.892800
C101	C10	0.829700	0.296100	0.893900
C111	C11	0.718900	0.107100	0.607200
C121	C12	0.796700	0.162800	0.559700
C131	C13	0.857900	0.133700	0.490300
C141	C14	0.835800	0.047800	0.467700
C151	C15	0.755600	0.992600	0.513600
C161	C16	0.701100	0.020600	0.585200
C171	C17	0.656200	0.138600	0.683100
C181	C18	0.946100	0.194400	0.437800
C191	C19	0.765100	0.297100	0.278800
C201	C20	0.833800	0.255800	0.165600
C211	C21	0.694700	0.288500	0.158000
C221	C22	0.513400	0.357700	0.251500
C231	C23	0.529500	0.454300	0.261400
C241	C24	0.620000	0.497900	0.198000
C251	C25	0.628500	0.597600	0.207500
C261	C26	0.369200	0.654200	0.221800
C271	C27	0.469000	0.671900	0.107200
C281	C28	0.329700	0.703900	0.106100
C291	C29	0.218900	0.892900	0.392800
C301	C30	0.296700	0.837200	0.440300
C311	C31	0.357900	0.866300	0.509700
C321	C32	0.335800	0.952200	0.532300
C331	C33	0.255600	0.007400	0.486400
C341	C34	0.201100	0.979400	0.414800
C351	C35	0.156200	0.861400	0.316900
C361	C36	0.446100	0.805600	0.562200
C371	C37	0.265100	0.202900	0.778800
C381	C38	0.333800	0.244200	0.665600
C391	C39	0.194700	0.211500	0.658000
C401	C40	0.013400	0.142300	0.751500
C411	C41	0.029500	0.045700	0.761400
C421	C42	0.120000	0.002100	0.698000
C431	C43	0.128500	0.902400	0.707500
C441	C44	0.869200	0.845800	0.721800
C451	C45	0.969000	0.828100	0.607200
C461	C46	0.829700	0.796100	0.606100
C471	C47	0.718900	0.607100	0.892800
C481	C48	0.796700	0.662800	0.940300
C491	C49	0.857900	0.633700	0.009700
C501	C50	0.835800	0.547800	0.032300
C511	C51	0.755600	0.492600	0.986400
C521	C52	0.701100	0.520600	0.914800
C531	C53	0.656200	0.638600	0.816900
C541	C54	0.946100	0.694400	0.062200
C551	C55	0.765100	0.797100	0.221200
C561	C56	0.833800	0.755800	0.334400
C571	C57	0.694700	0.788500	0.342000
C581	C58	0.513400	0.857700	0.248500
C591	C59	0.529500	0.954300	0.238600
C601	C60	0.620000	0.997900	0.302000
C611	C61	0.628500	0.097600	0.292500
C621	C62	0.369200	0.154200	0.278200
C631	C63	0.469000	0.171900	0.392800
C641	C64	0.329700	0.203900	0.393900
C651	C65	0.218900	0.392900	0.107200
C661	C66	0.296700	0.337200	0.059700
C671	C67	0.357900	0.366300	0.990300
C681	C68	0.335800	0.452200	0.967700
C691	C69	0.255600	0.507400	0.013600
C701	C70	0.201100	0.479400	0.085200
C711	C71	0.156200	0.361400	0.183100
C721	C72	0.446100	0.305600	0.937800
N11	N1	0.374700	0.737900	0.758600
N21	N2	0.152400	0.685600	0.768900
N31	N3	0.993300	0.359700	0.819900
N41	N4	0.768100	0.307800	0.821000
N51	N5	0.874700	0.262100	0.241400
N61	N6	0.652400	0.314400	0.231100
N71	N7	0.493300	0.640300	0.180100
N81	N8	0.268100	0.692200	0.179000
N91	N9	0.374700	0.237900	0.741400
N101	N10	0.152400	0.185600	0.731100
N111	N11	0.993300	0.859700	0.680100
N121	N12	0.768100	0.807800	0.679000
N131	N13	0.874700	0.762100	0.258600
N141	N14	0.652400	0.814400	0.268900
N151	N15	0.493300	0.140300	0.319900
N161	N16	0.268100	0.192200	0.321000
O11	O1	0.661000	0.220000	0.693500
O21	O2	0.608100	0.085100	0.730700
O31	O3	0.974400	0.165900	0.371100
O41	O4	0.986300	0.265600	0.464000
O51	O5	0.161000	0.780000	0.306500
O61	O6	0.108100	0.914900	0.269300
O71	O7	0.474400	0.834100	0.628900
O81	O8	0.486300	0.734400	0.536000
O91	O9	0.661000	0.720000	0.806500
O101	O10	0.608100	0.585100	0.769300
O111	O11	0.974400	0.665900	0.128900
O121	O12	0.986300	0.765600	0.036000
O131	O13	0.161000	0.280000	0.193500
O141	O14	0.108100	0.414900	0.230700
O151	O15	0.474400	0.334100	0.871100
O161	O16	0.486300	0.234400	0.964000
