data_OLURUI01_charged_PM
_symmetry_space_group_name_H-M	'P1'
_cell_length_a	14.976900
_cell_length_b	14.976900
_cell_length_c	14.976900
_cell_angle_alpha	72.571100
_cell_angle_beta	72.571100
_cell_angle_gamma	72.571100
_symmetry_Int_Tables_number 1

loop_
_symmetry_equiv_pos_as_xyz
'x,y,z'

loop_
_atom_site_label
_atom_site_type_symbol
_atom_site_fract_x
_atom_site_fract_y
_atom_site_fract_z
In11	In1	0.587660	0.250000	0.912340
In21	In2	0.912340	0.587660	0.250000
In31	In3	0.250000	0.912340	0.587660
In41	In4	0.412340	0.750000	0.087660
In51	In5	0.087660	0.412340	0.750000
In61	In6	0.750000	0.087660	0.412340
H11	H1	0.531900	0.493800	0.893300
H21	H2	0.610700	0.610300	0.866600
H31	H3	0.893300	0.531900	0.493800
H41	H4	0.866600	0.610700	0.610300
H51	H5	0.493800	0.893300	0.531900
H61	H6	0.610300	0.866600	0.610700
H71	H7	0.006200	0.968100	0.606700
H81	H8	0.889700	0.889300	0.633400
H91	H9	0.968100	0.606700	0.006200
H101	H10	0.889300	0.633400	0.889700
H111	H11	0.606700	0.006200	0.968100
H121	H12	0.633400	0.889700	0.889300
H131	H13	0.468100	0.506200	0.106700
H141	H14	0.389300	0.389700	0.133400
H151	H15	0.106700	0.468100	0.506200
H161	H16	0.133400	0.389300	0.389700
H171	H17	0.506200	0.106700	0.468100
H181	H18	0.389700	0.133400	0.389300
H191	H19	0.993800	0.031900	0.393300
H201	H20	0.110300	0.110700	0.366600
H211	H21	0.031900	0.393300	0.993800
H221	H22	0.110700	0.366600	0.110300
H231	H23	0.393300	0.993800	0.031900
H241	H24	0.366600	0.110300	0.110700
C11	C1	0.789170	0.442070	0.841570
C21	C2	0.795080	0.265180	0.865880
C31	C3	0.742560	0.368560	0.863560
C41	C4	0.598700	0.478000	0.881300
C51	C5	0.646600	0.548300	0.863000
C61	C6	0.899000	0.428100	0.812100
C71	C7	0.841570	0.789170	0.442070
C81	C8	0.865880	0.795080	0.265180
C91	C9	0.863560	0.742560	0.368560
C101	C10	0.881300	0.598700	0.478000
C111	C11	0.863000	0.646600	0.548300
C121	C12	0.812100	0.899000	0.428100
C131	C13	0.442070	0.841570	0.789170
C141	C14	0.265180	0.865880	0.795080
C151	C15	0.368560	0.863560	0.742560
C161	C16	0.478000	0.881300	0.598700
C171	C17	0.548300	0.863000	0.646600
C181	C18	0.428100	0.812100	0.899000
C191	C19	0.057930	0.710830	0.658430
C201	C20	0.234820	0.704920	0.634120
C211	C21	0.131440	0.757440	0.636440
C221	C22	0.022000	0.901300	0.618700
C231	C23	0.951700	0.853400	0.637000
C241	C24	0.071900	0.601000	0.687900
C251	C25	0.710830	0.658430	0.057930
C261	C26	0.704920	0.634120	0.234820
C271	C27	0.757440	0.636440	0.131440
C281	C28	0.901300	0.618700	0.022000
C291	C29	0.853400	0.637000	0.951700
C301	C30	0.601000	0.687900	0.071900
C311	C31	0.658430	0.057930	0.710830
C321	C32	0.634120	0.234820	0.704920
C331	C33	0.636440	0.131440	0.757440
C341	C34	0.618700	0.022000	0.901300
C351	C35	0.637000	0.951700	0.853400
C361	C36	0.687900	0.071900	0.601000
C371	C37	0.210830	0.557930	0.158430
C381	C38	0.204920	0.734820	0.134120
C391	C39	0.257440	0.631440	0.136440
C401	C40	0.401300	0.522000	0.118700
C411	C41	0.353400	0.451700	0.137000
C421	C42	0.101000	0.571900	0.187900
C431	C43	0.158430	0.210830	0.557930
C441	C44	0.134120	0.204920	0.734820
C451	C45	0.136440	0.257440	0.631440
C461	C46	0.118700	0.401300	0.522000
C471	C47	0.137000	0.353400	0.451700
C481	C48	0.187900	0.101000	0.571900
C491	C49	0.557930	0.158430	0.210830
C501	C50	0.734820	0.134120	0.204920
C511	C51	0.631440	0.136440	0.257440
C521	C52	0.522000	0.118700	0.401300
C531	C53	0.451700	0.137000	0.353400
C541	C54	0.571900	0.187900	0.101000
C551	C55	0.942070	0.289170	0.341570
C561	C56	0.765180	0.295080	0.365880
C571	C57	0.868560	0.242560	0.363560
C581	C58	0.978000	0.098700	0.381300
C591	C59	0.048300	0.146600	0.363000
C601	C60	0.928100	0.399000	0.312100
C611	C61	0.289170	0.341570	0.942070
C621	C62	0.295080	0.365880	0.765180
C631	C63	0.242560	0.363560	0.868560
C641	C64	0.098700	0.381300	0.978000
C651	C65	0.146600	0.363000	0.048300
C661	C66	0.399000	0.312100	0.928100
C671	C67	0.341570	0.942070	0.289170
C681	C68	0.365880	0.765180	0.295080
C691	C69	0.363560	0.868560	0.242560
C701	C70	0.381300	0.978000	0.098700
C711	C71	0.363000	0.048300	0.146600
C721	C72	0.312100	0.928100	0.399000
N11	N1	0.646040	0.387140	0.882340
N21	N2	0.740810	0.532810	0.840410
N31	N3	0.882340	0.646040	0.387140
N41	N4	0.840410	0.740810	0.532810
N51	N5	0.387140	0.882340	0.646040
N61	N6	0.532810	0.840410	0.740810
N71	N7	0.112860	0.853960	0.617660
N81	N8	0.967190	0.759190	0.659590
N91	N9	0.853960	0.617660	0.112860
N101	N10	0.759190	0.659590	0.967190
N111	N11	0.617660	0.112860	0.853960
N121	N12	0.659590	0.967190	0.759190
N131	N13	0.353960	0.612860	0.117660
N141	N14	0.259190	0.467190	0.159590
N151	N15	0.117660	0.353960	0.612860
N161	N16	0.159590	0.259190	0.467190
N171	N17	0.612860	0.117660	0.353960
N181	N18	0.467190	0.159590	0.259190
N191	N19	0.887140	0.146040	0.382340
N201	N20	0.032810	0.240810	0.340410
N211	N21	0.146040	0.382340	0.887140
N221	N22	0.240810	0.340410	0.032810
N231	N23	0.382340	0.887140	0.146040
N241	N24	0.340410	0.032810	0.240810
O11	O1	0.742600	0.204600	0.889600
O21	O2	0.883430	0.247730	0.843430
O31	O3	0.940020	0.440320	0.726820
O41	O4	0.121480	0.058480	0.591380
O51	O5	0.889600	0.742600	0.204600
O61	O6	0.843430	0.883430	0.247730
O71	O7	0.726820	0.940020	0.440320
O81	O8	0.591380	0.121480	0.058480
O91	O9	0.204600	0.889600	0.742600
O101	O10	0.247730	0.843430	0.883430
O111	O11	0.440320	0.726820	0.940020
O121	O12	0.058480	0.591380	0.121480
O131	O13	0.295400	0.757400	0.610400
O141	O14	0.252270	0.616570	0.656570
O151	O15	0.059680	0.559980	0.773180
O161	O16	0.441520	0.378520	0.908620
O171	O17	0.757400	0.610400	0.295400
O181	O18	0.616570	0.656570	0.252270
O191	O19	0.559980	0.773180	0.059680
O201	O20	0.378520	0.908620	0.441520
O211	O21	0.610400	0.295400	0.757400
O221	O22	0.656570	0.252270	0.616570
O231	O23	0.773180	0.059680	0.559980
O241	O24	0.908620	0.441520	0.378520
O251	O25	0.257400	0.795400	0.110400
O261	O26	0.116570	0.752270	0.156570
O271	O27	0.059980	0.559680	0.273180
O281	O28	0.878520	0.941520	0.408620
O291	O29	0.110400	0.257400	0.795400
O301	O30	0.156570	0.116570	0.752270
O311	O31	0.273180	0.059980	0.559680
O321	O32	0.408620	0.878520	0.941520
O331	O33	0.795400	0.110400	0.257400
O341	O34	0.752270	0.156570	0.116570
O351	O35	0.559680	0.273180	0.059980
O361	O36	0.941520	0.408620	0.878520
O371	O37	0.704600	0.242600	0.389600
O381	O38	0.747730	0.383430	0.343430
O391	O39	0.940320	0.440020	0.226820
O401	O40	0.558480	0.621480	0.091380
O411	O41	0.242600	0.389600	0.704600
O421	O42	0.383430	0.343430	0.747730
O431	O43	0.440020	0.226820	0.940320
O441	O44	0.621480	0.091380	0.558480
O451	O45	0.389600	0.704600	0.242600
O461	O46	0.343430	0.747730	0.383430
O471	O47	0.226820	0.940320	0.440020
O481	O48	0.091380	0.558480	0.621480
