data_OMAWOP_clean_PM
_symmetry_space_group_name_H-M	'P1'
_cell_length_a	8.356200
_cell_length_b	12.843700
_cell_length_c	25.590000
_cell_angle_alpha	90.944000
_cell_angle_beta	90.000000
_cell_angle_gamma	90.000000
_symmetry_Int_Tables_number 1

loop_
_symmetry_equiv_pos_as_xyz
'x,y,z'

loop_
_atom_site_label
_atom_site_type_symbol
_atom_site_fract_x
_atom_site_fract_y
_atom_site_fract_z
Ag11	Ag1	0.159950	0.007600	0.517030
Ag21	Ag2	0.159950	0.992400	0.982970
Ag31	Ag3	0.840050	0.992400	0.482970
Ag41	Ag4	0.840050	0.007600	0.017030
Ag51	Ag5	0.500000	0.000000	0.500000
Ag61	Ag6	0.500000	0.000000	0.000000
Ag71	Ag7	0.894520	0.500000	0.750000
Ag81	Ag8	0.105480	0.500000	0.250000
H11	H1	0.440500	0.243700	0.486000
H21	H2	0.409100	0.396100	0.532900
H31	H3	0.541600	0.098700	0.613400
H41	H4	0.256400	0.407300	0.720700
H51	H5	0.855200	0.255500	0.736100
H61	H6	0.979600	0.104600	0.715500
H71	H7	0.258700	0.023300	0.635100
H81	H8	0.348400	0.924100	0.704400
H91	H9	0.243400	0.769900	0.548200
H101	H10	0.544200	0.558600	0.699500
H111	H11	0.957800	0.552100	0.631100
H121	H12	0.840900	0.601300	0.555400
H131	H13	0.440500	0.756300	0.014000
H141	H14	0.409100	0.603900	0.967100
H151	H15	0.541600	0.901300	0.886600
H161	H16	0.256400	0.592700	0.779300
H171	H17	0.855200	0.744500	0.763900
H181	H18	0.979600	0.895400	0.784500
H191	H19	0.258700	0.976700	0.864900
H201	H20	0.348400	0.075900	0.795600
H211	H21	0.243400	0.230100	0.951800
H221	H22	0.544200	0.441400	0.800500
H231	H23	0.957800	0.447900	0.868900
H241	H24	0.840900	0.398700	0.944600
H251	H25	0.559500	0.756300	0.514000
H261	H26	0.590900	0.603900	0.467100
H271	H27	0.458400	0.901300	0.386600
H281	H28	0.743600	0.592700	0.279300
H291	H29	0.144800	0.744500	0.263900
H301	H30	0.020400	0.895400	0.284500
H311	H31	0.741300	0.976700	0.364900
H321	H32	0.651600	0.075900	0.295600
H331	H33	0.756600	0.230100	0.451800
H341	H34	0.455800	0.441400	0.300500
H351	H35	0.042200	0.447900	0.368900
H361	H36	0.159100	0.398700	0.444600
H371	H37	0.559500	0.243700	0.986000
H381	H38	0.590900	0.396100	0.032900
H391	H39	0.458400	0.098700	0.113400
H401	H40	0.743600	0.407300	0.220700
H411	H41	0.144800	0.255500	0.236100
H421	H42	0.020400	0.104600	0.215500
H431	H43	0.741300	0.023300	0.135100
H441	H44	0.651600	0.924100	0.204400
H451	H45	0.756600	0.769900	0.048200
H461	H46	0.455800	0.558600	0.199500
H471	H47	0.042200	0.552100	0.131100
H481	H48	0.159100	0.601300	0.055400
C11	C1	0.454000	0.243000	0.522100
C21	C2	0.432600	0.335300	0.550600
C31	C3	0.480100	0.248300	0.623900
C41	C4	0.509500	0.158000	0.595900
C51	C5	0.271200	0.253000	0.707900
C61	C6	0.197400	0.345900	0.719900
C71	C7	0.964100	0.256900	0.728700
C81	C8	0.038800	0.165900	0.716500
C91	C9	0.273300	0.952000	0.630400
C101	C10	0.324800	0.891000	0.672700
C111	C11	0.308200	0.748500	0.623000
C121	C12	0.262500	0.804100	0.579900
C131	C13	0.540600	0.591600	0.623500
C141	C14	0.608500	0.565500	0.670100
C151	C15	0.847800	0.562800	0.630400
C161	C16	0.776700	0.591500	0.584600
C171	C17	0.454000	0.757000	0.977900
C181	C18	0.432600	0.664700	0.949400
C191	C19	0.480100	0.751700	0.876100
C201	C20	0.509500	0.842000	0.904100
C211	C21	0.271200	0.747000	0.792100
C221	C22	0.197400	0.654100	0.780100
C231	C23	0.964100	0.743100	0.771300
C241	C24	0.038800	0.834100	0.783500
C251	C25	0.273300	0.048000	0.869600
C261	C26	0.324800	0.109000	0.827300
C271	C27	0.308200	0.251500	0.877000
C281	C28	0.262500	0.195900	0.920100
C291	C29	0.540600	0.408400	0.876500
C301	C30	0.608500	0.434500	0.829900
C311	C31	0.847800	0.437200	0.869600
C321	C32	0.776700	0.408500	0.915400
C331	C33	0.546000	0.757000	0.477900
C341	C34	0.567400	0.664700	0.449400
C351	C35	0.519900	0.751700	0.376100
C361	C36	0.490500	0.842000	0.404100
C371	C37	0.728800	0.747000	0.292100
C381	C38	0.802600	0.654100	0.280100
C391	C39	0.035900	0.743100	0.271300
C401	C40	0.961200	0.834100	0.283500
C411	C41	0.726700	0.048000	0.369600
C421	C42	0.675200	0.109000	0.327300
C431	C43	0.691800	0.251500	0.377000
C441	C44	0.737500	0.195900	0.420100
C451	C45	0.459400	0.408400	0.376500
C461	C46	0.391500	0.434500	0.329900
C471	C47	0.152200	0.437200	0.369600
C481	C48	0.223300	0.408500	0.415400
C491	C49	0.546000	0.243000	0.022100
C501	C50	0.567400	0.335300	0.050600
C511	C51	0.519900	0.248300	0.123900
C521	C52	0.490500	0.158000	0.095900
C531	C53	0.728800	0.253000	0.207900
C541	C54	0.802600	0.345900	0.219900
C551	C55	0.035900	0.256900	0.228700
C561	C56	0.961200	0.165900	0.216500
C571	C57	0.726700	0.952000	0.130400
C581	C58	0.675200	0.891000	0.172700
C591	C59	0.691800	0.748500	0.123000
C601	C60	0.737500	0.804100	0.079900
C611	C61	0.459400	0.591600	0.123500
C621	C62	0.391500	0.565500	0.170100
C631	C63	0.152200	0.562800	0.130400
C641	C64	0.223300	0.591500	0.084600
S11	S1	0.480000	0.248660	0.693700
S21	S2	0.327340	0.610830	0.618720
S31	S3	0.480000	0.751340	0.806300
S41	S4	0.327340	0.389170	0.881280
S51	S5	0.520000	0.751340	0.306300
S61	S6	0.672660	0.389170	0.381280
S71	S7	0.520000	0.248660	0.193700
S81	S8	0.672660	0.610830	0.118720
N11	N1	0.492900	0.154300	0.544450
N21	N2	0.444700	0.338800	0.602050
N31	N3	0.039700	0.347900	0.730530
N41	N4	0.195700	0.162300	0.705900
N51	N5	0.245600	0.907800	0.584000
N61	N6	0.340400	0.791100	0.669100
N71	N7	0.620500	0.605900	0.580100
N81	N8	0.764100	0.550000	0.673800
N91	N9	0.492900	0.845700	0.955550
N101	N10	0.444700	0.661200	0.897950
N111	N11	0.039700	0.652100	0.769470
N121	N12	0.195700	0.837700	0.794100
N131	N13	0.245600	0.092200	0.916000
N141	N14	0.340400	0.208900	0.830900
N151	N15	0.620500	0.394100	0.919900
N161	N16	0.764100	0.450000	0.826200
N171	N17	0.507100	0.845700	0.455550
N181	N18	0.555300	0.661200	0.397950
N191	N19	0.960300	0.652100	0.269470
N201	N20	0.804300	0.837700	0.294100
N211	N21	0.754400	0.092200	0.416000
N221	N22	0.659600	0.208900	0.330900
N231	N23	0.379500	0.394100	0.419900
N241	N24	0.235900	0.450000	0.326200
N251	N25	0.507100	0.154300	0.044450
N261	N26	0.555300	0.338800	0.102050
N271	N27	0.960300	0.347900	0.230530
N281	N28	0.804300	0.162300	0.205900
N291	N29	0.754400	0.907800	0.084000
N301	N30	0.659600	0.791100	0.169100
N311	N31	0.379500	0.605900	0.080100
N321	N32	0.235900	0.550000	0.173800
O11	O1	0.543100	0.151100	0.709560
O21	O2	0.548100	0.344000	0.712830
O31	O3	0.258300	0.567400	0.664590
O41	O4	0.273600	0.578400	0.567720
O51	O5	0.543100	0.848900	0.790440
O61	O6	0.548100	0.656000	0.787170
O71	O7	0.258300	0.432600	0.835410
O81	O8	0.273600	0.421600	0.932280
O91	O9	0.456900	0.848900	0.290440
O101	O10	0.451900	0.656000	0.287170
O111	O11	0.741700	0.432600	0.335410
O121	O12	0.726400	0.421600	0.432280
O131	O13	0.456900	0.151100	0.209560
O141	O14	0.451900	0.344000	0.212830
O151	O15	0.741700	0.567400	0.164590
O161	O16	0.726400	0.578400	0.067720
