data_OMICOD_clean_PM
_symmetry_space_group_name_H-M	'P1'
_cell_length_a	18.295000
_cell_length_b	14.541000
_cell_length_c	18.655000
_cell_angle_alpha	90.000000
_cell_angle_beta	90.000000
_cell_angle_gamma	90.000000
_symmetry_Int_Tables_number 1

loop_
_symmetry_equiv_pos_as_xyz
'x,y,z'

loop_
_atom_site_label
_atom_site_type_symbol
_atom_site_fract_x
_atom_site_fract_y
_atom_site_fract_z
Zn11	Zn1	0.726290	0.374300	0.451580
C11	C1	0.797610	0.287800	0.578850
H11	H1	0.831700	0.334900	0.583400
C21	C2	0.708340	0.203400	0.540950
H21	H2	0.669500	0.181900	0.513500
C31	C3	0.735160	0.162600	0.600340
H31	H3	0.718300	0.108600	0.621400
C41	C4	0.833230	0.200300	0.690070
H41	H4	0.834100	0.257500	0.716900
H51	H5	0.806500	0.155800	0.718600
C51	C5	0.912860	0.165960	0.682420
C61	C6	0.944910	0.158900	0.759310
H61	H6	0.955200	0.220500	0.776500
H71	H7	0.991000	0.126000	0.756900
C71	C7	0.848350	0.155200	0.852660
H81	H8	0.839800	0.218200	0.852500
C81	C8	0.895280	0.020700	0.827760
H91	H9	0.923900	0.974400	0.807900
C91	C9	0.843000	0.010800	0.878290
H101	H10	0.829200	0.955500	0.899400
C101	C10	0.959000	0.239970	0.643770
H111	H11	0.949500	0.299000	0.666200
H121	H12	0.942800	0.244000	0.594400
C111	C11	0.086790	0.258500	0.693620
H131	H13	0.075600	0.293300	0.733900
C121	C12	0.153720	0.231900	0.671830
H141	H14	0.197400	0.245700	0.695000
C131	C13	0.076720	0.178500	0.594960
H151	H15	0.056600	0.149100	0.555300
C141	C14	0.918930	0.069900	0.648550
H161	H16	0.899000	0.025700	0.682200
H171	H17	0.970400	0.055700	0.642700
C151	C15	0.836500	0.986700	0.566770
H181	H18	0.819700	0.946400	0.601800
C161	C16	0.895700	0.098500	0.514310
H191	H19	0.926400	0.148400	0.506100
C171	C17	0.854800	0.053400	0.464940
H201	H20	0.852200	0.067600	0.416400
N11	N1	0.748150	0.282570	0.527500
N21	N2	0.792150	0.216130	0.623540
N31	N3	0.897860	0.112780	0.811380
N41	N4	0.813330	0.095650	0.893620
N51	N5	0.038160	0.223580	0.644210
N61	N6	0.147520	0.180910	0.609800
N71	N7	0.882650	0.055820	0.579010
N81	N8	0.817750	0.982970	0.498530
Zn21	Zn2	0.773710	0.625700	0.951580
C181	C18	0.702390	0.712200	0.078850
H211	H21	0.668300	0.665100	0.083400
C191	C19	0.791660	0.796600	0.040950
H221	H22	0.830500	0.818100	0.013500
C201	C20	0.764840	0.837400	0.100340
H231	H23	0.781700	0.891400	0.121400
C211	C21	0.666770	0.799700	0.190070
H241	H24	0.665900	0.742500	0.216900
H251	H25	0.693500	0.844200	0.218600
C221	C22	0.587140	0.834040	0.182420
C231	C23	0.555090	0.841100	0.259310
H261	H26	0.544800	0.779500	0.276500
H271	H27	0.509000	0.874000	0.256900
C241	C24	0.651650	0.844800	0.352660
H281	H28	0.660200	0.781800	0.352500
C251	C25	0.604720	0.979300	0.327760
H291	H29	0.576100	0.025600	0.307900
C261	C26	0.657000	0.989200	0.378290
H301	H30	0.670800	0.044500	0.399400
C271	C27	0.541000	0.760030	0.143770
H311	H31	0.550500	0.701000	0.166200
H321	H32	0.557200	0.756000	0.094400
C281	C28	0.413210	0.741500	0.193620
H331	H33	0.424400	0.706700	0.233900
C291	C29	0.346280	0.768100	0.171830
H341	H34	0.302600	0.754300	0.195000
C301	C30	0.423280	0.821500	0.094960
H351	H35	0.443400	0.850900	0.055300
C311	C31	0.581070	0.930100	0.148550
H361	H36	0.601000	0.974300	0.182200
H371	H37	0.529600	0.944300	0.142700
C321	C32	0.663500	0.013300	0.066770
H381	H38	0.680300	0.053600	0.101800
C331	C33	0.604300	0.901500	0.014310
H391	H39	0.573600	0.851600	0.006100
C341	C34	0.645200	0.946600	0.964940
H401	H40	0.647800	0.932400	0.916400
N91	N9	0.751850	0.717430	0.027500
N101	N10	0.707850	0.783870	0.123540
N111	N11	0.602140	0.887220	0.311380
N121	N12	0.686670	0.904350	0.393620
N131	N13	0.461840	0.776420	0.144210
N141	N14	0.352480	0.819090	0.109800
N151	N15	0.617350	0.944180	0.079010
N161	N16	0.682250	0.017030	0.998530
Zn31	Zn3	0.273710	0.874300	0.048420
C351	C35	0.202390	0.787800	0.921150
H411	H41	0.168300	0.834900	0.916600
C361	C36	0.291660	0.703400	0.959050
H421	H42	0.330500	0.681900	0.986500
C371	C37	0.264840	0.662600	0.899660
H431	H43	0.281700	0.608600	0.878600
C381	C38	0.166770	0.700300	0.809930
H441	H44	0.165900	0.757500	0.783100
H451	H45	0.193500	0.655800	0.781400
C391	C39	0.087140	0.665960	0.817580
C401	C40	0.055090	0.658900	0.740690
H461	H46	0.044800	0.720500	0.723500
H471	H47	0.009000	0.626000	0.743100
C411	C41	0.151650	0.655200	0.647340
H481	H48	0.160200	0.718200	0.647500
C421	C42	0.104720	0.520700	0.672240
H491	H49	0.076100	0.474400	0.692100
C431	C43	0.157000	0.510800	0.621710
H501	H50	0.170800	0.455500	0.600600
C441	C44	0.041000	0.739970	0.856230
H511	H51	0.050500	0.799000	0.833800
H521	H52	0.057200	0.744000	0.905600
C451	C45	0.913210	0.758500	0.806380
H531	H53	0.924400	0.793300	0.766100
C461	C46	0.846280	0.731900	0.828170
H541	H54	0.802600	0.745700	0.805000
C471	C47	0.923280	0.678500	0.905040
H551	H55	0.943400	0.649100	0.944700
C481	C48	0.081070	0.569900	0.851450
H561	H56	0.101000	0.525700	0.817800
H571	H57	0.029600	0.555700	0.857300
C491	C49	0.163500	0.486700	0.933230
H581	H58	0.180300	0.446400	0.898200
C501	C50	0.104300	0.598500	0.985690
H591	H59	0.073600	0.648400	0.993900
C511	C51	0.145200	0.553400	0.035060
H601	H60	0.147800	0.567600	0.083600
N171	N17	0.251850	0.782570	0.972500
N181	N18	0.207850	0.716130	0.876460
N191	N19	0.102140	0.612780	0.688620
N201	N20	0.186670	0.595650	0.606380
N211	N21	0.961840	0.723580	0.855790
N221	N22	0.852480	0.680910	0.890200
N231	N23	0.117350	0.555820	0.920990
N241	N24	0.182250	0.482970	0.001470
Zn41	Zn4	0.226290	0.125700	0.548420
C521	C52	0.297610	0.212200	0.421150
H611	H61	0.331700	0.165100	0.416600
C531	C53	0.208340	0.296600	0.459050
H621	H62	0.169500	0.318100	0.486500
C541	C54	0.235160	0.337400	0.399660
H631	H63	0.218300	0.391400	0.378600
C551	C55	0.333230	0.299700	0.309930
H641	H64	0.334100	0.242500	0.283100
H651	H65	0.306500	0.344200	0.281400
C561	C56	0.412860	0.334040	0.317580
C571	C57	0.444910	0.341100	0.240690
H661	H66	0.455200	0.279500	0.223500
H671	H67	0.491000	0.374000	0.243100
C581	C58	0.348350	0.344800	0.147340
H681	H68	0.339800	0.281800	0.147500
C591	C59	0.395280	0.479300	0.172240
H691	H69	0.423900	0.525600	0.192100
C601	C60	0.343000	0.489200	0.121710
H701	H70	0.329200	0.544500	0.100600
C611	C61	0.459000	0.260030	0.356230
H711	H71	0.449500	0.201000	0.333800
H721	H72	0.442800	0.256000	0.405600
C621	C62	0.586790	0.241500	0.306380
H731	H73	0.575600	0.206700	0.266100
C631	C63	0.653720	0.268100	0.328170
H741	H74	0.697400	0.254300	0.305000
C641	C64	0.576720	0.321500	0.405040
H751	H75	0.556600	0.350900	0.444700
C651	C65	0.418930	0.430100	0.351450
H761	H76	0.399000	0.474300	0.317800
H771	H77	0.470400	0.444300	0.357300
C661	C66	0.336500	0.513300	0.433230
H781	H78	0.319700	0.553600	0.398200
C671	C67	0.395700	0.401500	0.485690
H791	H79	0.426400	0.351600	0.493900
C681	C68	0.354800	0.446600	0.535060
H801	H80	0.352200	0.432400	0.583600
N251	N25	0.248150	0.217430	0.472500
N261	N26	0.292150	0.283870	0.376460
N271	N27	0.397860	0.387220	0.188620
N281	N28	0.313330	0.404350	0.106380
N291	N29	0.538160	0.276420	0.355790
N301	N30	0.647520	0.319090	0.390200
N311	N31	0.382650	0.444180	0.420990
N321	N32	0.317750	0.517030	0.501470
Zn51	Zn5	0.273710	0.625700	0.548420
C691	C69	0.202390	0.712200	0.421150
H811	H81	0.168300	0.665100	0.416600
C701	C70	0.291660	0.796600	0.459050
H821	H82	0.330500	0.818100	0.486500
C711	C71	0.264840	0.837400	0.399660
H831	H83	0.281700	0.891400	0.378600
C721	C72	0.166770	0.799700	0.309930
H841	H84	0.165900	0.742500	0.283100
H851	H85	0.193500	0.844200	0.281400
C731	C73	0.087140	0.834040	0.317580
C741	C74	0.055090	0.841100	0.240690
H861	H86	0.044800	0.779500	0.223500
H871	H87	0.009000	0.874000	0.243100
C751	C75	0.151650	0.844800	0.147340
H881	H88	0.160200	0.781800	0.147500
C761	C76	0.104720	0.979300	0.172240
H891	H89	0.076100	0.025600	0.192100
C771	C77	0.157000	0.989200	0.121710
H901	H90	0.170800	0.044500	0.100600
C781	C78	0.041000	0.760030	0.356230
H911	H91	0.050500	0.701000	0.333800
H921	H92	0.057200	0.756000	0.405600
C791	C79	0.913210	0.741500	0.306380
H931	H93	0.924400	0.706700	0.266100
C801	C80	0.846280	0.768100	0.328170
H941	H94	0.802600	0.754300	0.305000
C811	C81	0.923280	0.821500	0.405040
H951	H95	0.943400	0.850900	0.444700
C821	C82	0.081070	0.930100	0.351450
H961	H96	0.101000	0.974300	0.317800
H971	H97	0.029600	0.944300	0.357300
C831	C83	0.163500	0.013300	0.433230
H981	H98	0.180300	0.053600	0.398200
C841	C84	0.104300	0.901500	0.485690
H991	H99	0.073600	0.851600	0.493900
C851	C85	0.145200	0.946600	0.535060
H1001	H100	0.147800	0.932400	0.583600
N331	N33	0.251850	0.717430	0.472500
N341	N34	0.207850	0.783870	0.376460
N351	N35	0.102140	0.887220	0.188620
N361	N36	0.186670	0.904350	0.106380
N371	N37	0.961840	0.776420	0.355790
N381	N38	0.852480	0.819090	0.390200
N391	N39	0.117350	0.944180	0.420990
N401	N40	0.182250	0.017030	0.501470
Zn61	Zn6	0.226290	0.374300	0.048420
C861	C86	0.297610	0.287800	0.921150
H1011	H101	0.331700	0.334900	0.916600
C871	C87	0.208340	0.203400	0.959050
H1021	H102	0.169500	0.181900	0.986500
C881	C88	0.235160	0.162600	0.899660
H1031	H103	0.218300	0.108600	0.878600
C891	C89	0.333230	0.200300	0.809930
H1041	H104	0.334100	0.257500	0.783100
H1051	H105	0.306500	0.155800	0.781400
C901	C90	0.412860	0.165960	0.817580
C911	C91	0.444910	0.158900	0.740690
H1061	H106	0.455200	0.220500	0.723500
H1071	H107	0.491000	0.126000	0.743100
C921	C92	0.348350	0.155200	0.647340
H1081	H108	0.339800	0.218200	0.647500
C931	C93	0.395280	0.020700	0.672240
H1091	H109	0.423900	0.974400	0.692100
C941	C94	0.343000	0.010800	0.621710
H1101	H110	0.329200	0.955500	0.600600
C951	C95	0.459000	0.239970	0.856230
H1111	H111	0.449500	0.299000	0.833800
H1121	H112	0.442800	0.244000	0.905600
C961	C96	0.586790	0.258500	0.806380
H1131	H113	0.575600	0.293300	0.766100
C971	C97	0.653720	0.231900	0.828170
H1141	H114	0.697400	0.245700	0.805000
C981	C98	0.576720	0.178500	0.905040
H1151	H115	0.556600	0.149100	0.944700
C991	C99	0.418930	0.069900	0.851450
H1161	H116	0.399000	0.025700	0.817800
H1171	H117	0.470400	0.055700	0.857300
C1001	C100	0.336500	0.986700	0.933230
H1181	H118	0.319700	0.946400	0.898200
C1011	C101	0.395700	0.098500	0.985690
H1191	H119	0.426400	0.148400	0.993900
C1021	C102	0.354800	0.053400	0.035060
H1201	H120	0.352200	0.067600	0.083600
N411	N41	0.248150	0.282570	0.972500
N421	N42	0.292150	0.216130	0.876460
N431	N43	0.397860	0.112780	0.688620
N441	N44	0.313330	0.095650	0.606380
N451	N45	0.538160	0.223580	0.855790
N461	N46	0.647520	0.180910	0.890200
N471	N47	0.382650	0.055820	0.920990
N481	N48	0.317750	0.982970	0.001470
Zn71	Zn7	0.726290	0.125700	0.951580
C1031	C103	0.797610	0.212200	0.078850
H1211	H121	0.831700	0.165100	0.083400
C1041	C104	0.708340	0.296600	0.040950
H1221	H122	0.669500	0.318100	0.013500
C1051	C105	0.735160	0.337400	0.100340
H1231	H123	0.718300	0.391400	0.121400
C1061	C106	0.833230	0.299700	0.190070
H1241	H124	0.834100	0.242500	0.216900
H1251	H125	0.806500	0.344200	0.218600
C1071	C107	0.912860	0.334040	0.182420
C1081	C108	0.944910	0.341100	0.259310
H1261	H126	0.955200	0.279500	0.276500
H1271	H127	0.991000	0.374000	0.256900
C1091	C109	0.848350	0.344800	0.352660
H1281	H128	0.839800	0.281800	0.352500
C1101	C110	0.895280	0.479300	0.327760
H1291	H129	0.923900	0.525600	0.307900
C1111	C111	0.843000	0.489200	0.378290
H1301	H130	0.829200	0.544500	0.399400
C1121	C112	0.959000	0.260030	0.143770
H1311	H131	0.949500	0.201000	0.166200
H1321	H132	0.942800	0.256000	0.094400
C1131	C113	0.086790	0.241500	0.193620
H1331	H133	0.075600	0.206700	0.233900
C1141	C114	0.153720	0.268100	0.171830
H1341	H134	0.197400	0.254300	0.195000
C1151	C115	0.076720	0.321500	0.094960
H1351	H135	0.056600	0.350900	0.055300
C1161	C116	0.918930	0.430100	0.148550
H1361	H136	0.899000	0.474300	0.182200
H1371	H137	0.970400	0.444300	0.142700
C1171	C117	0.836500	0.513300	0.066770
H1381	H138	0.819700	0.553600	0.101800
C1181	C118	0.895700	0.401500	0.014310
H1391	H139	0.926400	0.351600	0.006100
C1191	C119	0.854800	0.446600	0.964940
H1401	H140	0.852200	0.432400	0.916400
N491	N49	0.748150	0.217430	0.027500
N501	N50	0.792150	0.283870	0.123540
N511	N51	0.897860	0.387220	0.311380
N521	N52	0.813330	0.404350	0.393620
N531	N53	0.038160	0.276420	0.144210
N541	N54	0.147520	0.319090	0.109800
N551	N55	0.882650	0.444180	0.079010
N561	N56	0.817750	0.517030	0.998530
Zn81	Zn8	0.773710	0.874300	0.451580
C1201	C120	0.702390	0.787800	0.578850
H1411	H141	0.668300	0.834900	0.583400
C1211	C121	0.791660	0.703400	0.540950
H1421	H142	0.830500	0.681900	0.513500
C1221	C122	0.764840	0.662600	0.600340
H1431	H143	0.781700	0.608600	0.621400
C1231	C123	0.666770	0.700300	0.690070
H1441	H144	0.665900	0.757500	0.716900
H1451	H145	0.693500	0.655800	0.718600
C1241	C124	0.587140	0.665960	0.682420
C1251	C125	0.555090	0.658900	0.759310
H1461	H146	0.544800	0.720500	0.776500
H1471	H147	0.509000	0.626000	0.756900
C1261	C126	0.651650	0.655200	0.852660
H1481	H148	0.660200	0.718200	0.852500
C1271	C127	0.604720	0.520700	0.827760
H1491	H149	0.576100	0.474400	0.807900
C1281	C128	0.657000	0.510800	0.878290
H1501	H150	0.670800	0.455500	0.899400
C1291	C129	0.541000	0.739970	0.643770
H1511	H151	0.550500	0.799000	0.666200
H1521	H152	0.557200	0.744000	0.594400
C1301	C130	0.413210	0.758500	0.693620
H1531	H153	0.424400	0.793300	0.733900
C1311	C131	0.346280	0.731900	0.671830
H1541	H154	0.302600	0.745700	0.695000
C1321	C132	0.423280	0.678500	0.594960
H1551	H155	0.443400	0.649100	0.555300
C1331	C133	0.581070	0.569900	0.648550
H1561	H156	0.601000	0.525700	0.682200
H1571	H157	0.529600	0.555700	0.642700
C1341	C134	0.663500	0.486700	0.566770
H1581	H158	0.680300	0.446400	0.601800
C1351	C135	0.604300	0.598500	0.514310
H1591	H159	0.573600	0.648400	0.506100
C1361	C136	0.645200	0.553400	0.464940
H1601	H160	0.647800	0.567600	0.416400
N571	N57	0.751850	0.782570	0.527500
N581	N58	0.707850	0.716130	0.623540
N591	N59	0.602140	0.612780	0.811380
N601	N60	0.686670	0.595650	0.893620
N611	N61	0.461840	0.723580	0.644210
N621	N62	0.352480	0.680910	0.609800
N631	N63	0.617350	0.555820	0.579010
N641	N64	0.682250	0.482970	0.498530
