data_OMUSAS_clean_PM
_symmetry_space_group_name_H-M	'P1'
_cell_length_a	35.755000
_cell_length_b	35.755000
_cell_length_c	35.755000
_cell_angle_alpha	90.000000
_cell_angle_beta	90.000000
_cell_angle_gamma	90.000000
_symmetry_Int_Tables_number 1

loop_
_symmetry_equiv_pos_as_xyz
'x,y,z'

loop_
_atom_site_label
_atom_site_type_symbol
_atom_site_fract_x
_atom_site_fract_y
_atom_site_fract_z
O11	O1	0.243900	0.708100	0.825960
C11	C1	0.313600	0.658700	0.977800
C21	C2	0.344900	0.674100	0.995000
C31	C3	0.358400	0.658700	0.028100
C41	C4	0.340600	0.628000	0.043920
C51	C5	0.309300	0.612670	0.026700
C61	C6	0.295800	0.628000	0.993700
C71	C7	0.368300	0.615300	0.082300
C81	C8	0.383000	0.712900	0.070600
C91	C9	0.360800	0.585300	0.103400
C101	C10	0.431900	0.666700	0.029300
C111	C11	0.394300	0.672200	0.052700
C121	C12	0.440200	0.628700	0.014900
C131	C13	0.350000	0.716300	0.092600
O21	O2	0.303400	0.722300	0.812400
C141	C14	0.287700	0.697810	0.870980
C151	C15	0.260610	0.684000	0.895300
C161	C16	0.270900	0.670630	0.930300
C171	C17	0.308300	0.671000	0.940990
C181	C18	0.335340	0.684700	0.916700
C191	C19	0.325000	0.698200	0.881700
C201	C20	0.276700	0.712200	0.831800
Zn11	Zn1	0.236020	0.803920	0.751770
O31	O3	0.256100	0.291900	0.325960
C211	C21	0.186400	0.341300	0.477800
C221	C22	0.155100	0.325900	0.495000
C231	C23	0.141600	0.341300	0.528100
C241	C24	0.159400	0.372000	0.543920
C251	C25	0.190700	0.387330	0.526700
C261	C26	0.204200	0.372000	0.493700
C271	C27	0.131700	0.384700	0.582300
C281	C28	0.117000	0.287100	0.570600
C291	C29	0.139200	0.414700	0.603400
C301	C30	0.068100	0.333300	0.529300
C311	C31	0.105700	0.327800	0.552700
C321	C32	0.059800	0.371300	0.514900
C331	C33	0.150000	0.283700	0.592600
O41	O4	0.196600	0.277700	0.312400
C341	C34	0.212300	0.302190	0.370980
C351	C35	0.239390	0.316000	0.395300
C361	C36	0.229100	0.329370	0.430300
C371	C37	0.191700	0.329000	0.440990
C381	C38	0.164660	0.315300	0.416700
C391	C39	0.175000	0.301800	0.381700
C401	C40	0.223300	0.287800	0.331800
Zn21	Zn2	0.263980	0.196080	0.251770
O51	O5	0.756100	0.208100	0.674040
C411	C41	0.686400	0.158700	0.522200
C421	C42	0.655100	0.174100	0.505000
C431	C43	0.641600	0.158700	0.471900
C441	C44	0.659400	0.128000	0.456080
C451	C45	0.690700	0.112670	0.473300
C461	C46	0.704200	0.128000	0.506300
C471	C47	0.631700	0.115300	0.417700
C481	C48	0.617000	0.212900	0.429400
C491	C49	0.639200	0.085300	0.396600
C501	C50	0.568100	0.166700	0.470700
C511	C51	0.605700	0.172200	0.447300
C521	C52	0.559800	0.128700	0.485100
C531	C53	0.650000	0.216300	0.407400
O61	O6	0.696600	0.222300	0.687600
C541	C54	0.712300	0.197810	0.629020
C551	C55	0.739390	0.184000	0.604700
C561	C56	0.729100	0.170630	0.569700
C571	C57	0.691700	0.171000	0.559010
C581	C58	0.664660	0.184700	0.583300
C591	C59	0.675000	0.198200	0.618300
C601	C60	0.723300	0.212200	0.668200
Zn31	Zn3	0.763980	0.303920	0.748230
O71	O7	0.743900	0.791900	0.174040
C611	C61	0.813600	0.841300	0.022200
C621	C62	0.844900	0.825900	0.005000
C631	C63	0.858400	0.841300	0.971900
C641	C64	0.840600	0.872000	0.956080
C651	C65	0.809300	0.887330	0.973300
C661	C66	0.795800	0.872000	0.006300
C671	C67	0.868300	0.884700	0.917700
C681	C68	0.883000	0.787100	0.929400
C691	C69	0.860800	0.914700	0.896600
C701	C70	0.931900	0.833300	0.970700
C711	C71	0.894300	0.827800	0.947300
C721	C72	0.940200	0.871300	0.985100
C731	C73	0.850000	0.783700	0.907400
O81	O8	0.803400	0.777700	0.187600
C741	C74	0.787700	0.802190	0.129020
C751	C75	0.760610	0.816000	0.104700
C761	C76	0.770900	0.829370	0.069700
C771	C77	0.808300	0.829000	0.059010
C781	C78	0.835340	0.815300	0.083300
C791	C79	0.825000	0.801800	0.118300
C801	C80	0.776700	0.787800	0.168200
Zn41	Zn4	0.736020	0.696080	0.248230
O91	O9	0.825960	0.243900	0.708100
C811	C81	0.977800	0.313600	0.658700
C821	C82	0.995000	0.344900	0.674100
C831	C83	0.028100	0.358400	0.658700
C841	C84	0.043920	0.340600	0.628000
C851	C85	0.026700	0.309300	0.612670
C861	C86	0.993700	0.295800	0.628000
C871	C87	0.082300	0.368300	0.615300
C881	C88	0.070600	0.383000	0.712900
C891	C89	0.103400	0.360800	0.585300
C901	C90	0.029300	0.431900	0.666700
C911	C91	0.052700	0.394300	0.672200
C921	C92	0.014900	0.440200	0.628700
C931	C93	0.092600	0.350000	0.716300
O101	O10	0.812400	0.303400	0.722300
C941	C94	0.870980	0.287700	0.697810
C951	C95	0.895300	0.260610	0.684000
C961	C96	0.930300	0.270900	0.670630
C971	C97	0.940990	0.308300	0.671000
C981	C98	0.916700	0.335340	0.684700
C991	C99	0.881700	0.325000	0.698200
C1001	C100	0.831800	0.276700	0.712200
Zn51	Zn5	0.751770	0.236020	0.803920
O111	O11	0.325960	0.256100	0.291900
C1011	C101	0.477800	0.186400	0.341300
C1021	C102	0.495000	0.155100	0.325900
C1031	C103	0.528100	0.141600	0.341300
C1041	C104	0.543920	0.159400	0.372000
C1051	C105	0.526700	0.190700	0.387330
C1061	C106	0.493700	0.204200	0.372000
C1071	C107	0.582300	0.131700	0.384700
C1081	C108	0.570600	0.117000	0.287100
C1091	C109	0.603400	0.139200	0.414700
C1101	C110	0.529300	0.068100	0.333300
C1111	C111	0.552700	0.105700	0.327800
C1121	C112	0.514900	0.059800	0.371300
C1131	C113	0.592600	0.150000	0.283700
O121	O12	0.312400	0.196600	0.277700
C1141	C114	0.370980	0.212300	0.302190
C1151	C115	0.395300	0.239390	0.316000
C1161	C116	0.430300	0.229100	0.329370
C1171	C117	0.440990	0.191700	0.329000
C1181	C118	0.416700	0.164660	0.315300
C1191	C119	0.381700	0.175000	0.301800
C1201	C120	0.331800	0.223300	0.287800
Zn61	Zn6	0.251770	0.263980	0.196080
O131	O13	0.674040	0.756100	0.208100
C1211	C121	0.522200	0.686400	0.158700
C1221	C122	0.505000	0.655100	0.174100
C1231	C123	0.471900	0.641600	0.158700
C1241	C124	0.456080	0.659400	0.128000
C1251	C125	0.473300	0.690700	0.112670
C1261	C126	0.506300	0.704200	0.128000
C1271	C127	0.417700	0.631700	0.115300
C1281	C128	0.429400	0.617000	0.212900
C1291	C129	0.396600	0.639200	0.085300
C1301	C130	0.470700	0.568100	0.166700
C1311	C131	0.447300	0.605700	0.172200
C1321	C132	0.485100	0.559800	0.128700
C1331	C133	0.407400	0.650000	0.216300
O141	O14	0.687600	0.696600	0.222300
C1341	C134	0.629020	0.712300	0.197810
C1351	C135	0.604700	0.739390	0.184000
C1361	C136	0.569700	0.729100	0.170630
C1371	C137	0.559010	0.691700	0.171000
C1381	C138	0.583300	0.664660	0.184700
C1391	C139	0.618300	0.675000	0.198200
C1401	C140	0.668200	0.723300	0.212200
Zn71	Zn7	0.748230	0.763980	0.303920
O151	O15	0.174040	0.743900	0.791900
C1411	C141	0.022200	0.813600	0.841300
C1421	C142	0.005000	0.844900	0.825900
C1431	C143	0.971900	0.858400	0.841300
C1441	C144	0.956080	0.840600	0.872000
C1451	C145	0.973300	0.809300	0.887330
C1461	C146	0.006300	0.795800	0.872000
C1471	C147	0.917700	0.868300	0.884700
C1481	C148	0.929400	0.883000	0.787100
C1491	C149	0.896600	0.860800	0.914700
C1501	C150	0.970700	0.931900	0.833300
C1511	C151	0.947300	0.894300	0.827800
C1521	C152	0.985100	0.940200	0.871300
C1531	C153	0.907400	0.850000	0.783700
O161	O16	0.187600	0.803400	0.777700
C1541	C154	0.129020	0.787700	0.802190
C1551	C155	0.104700	0.760610	0.816000
C1561	C156	0.069700	0.770900	0.829370
C1571	C157	0.059010	0.808300	0.829000
C1581	C158	0.083300	0.835340	0.815300
C1591	C159	0.118300	0.825000	0.801800
C1601	C160	0.168200	0.776700	0.787800
Zn81	Zn8	0.248230	0.736020	0.696080
O171	O17	0.708100	0.825960	0.243900
C1611	C161	0.658700	0.977800	0.313600
C1621	C162	0.674100	0.995000	0.344900
C1631	C163	0.658700	0.028100	0.358400
C1641	C164	0.628000	0.043920	0.340600
C1651	C165	0.612670	0.026700	0.309300
C1661	C166	0.628000	0.993700	0.295800
C1671	C167	0.615300	0.082300	0.368300
C1681	C168	0.712900	0.070600	0.383000
C1691	C169	0.585300	0.103400	0.360800
C1701	C170	0.666700	0.029300	0.431900
C1711	C171	0.672200	0.052700	0.394300
C1721	C172	0.628700	0.014900	0.440200
C1731	C173	0.716300	0.092600	0.350000
O181	O18	0.722300	0.812400	0.303400
C1741	C174	0.697810	0.870980	0.287700
C1751	C175	0.684000	0.895300	0.260610
C1761	C176	0.670630	0.930300	0.270900
C1771	C177	0.671000	0.940990	0.308300
C1781	C178	0.684700	0.916700	0.335340
C1791	C179	0.698200	0.881700	0.325000
C1801	C180	0.712200	0.831800	0.276700
Zn91	Zn9	0.803920	0.751770	0.236020
O191	O19	0.291900	0.325960	0.256100
C1811	C181	0.341300	0.477800	0.186400
C1821	C182	0.325900	0.495000	0.155100
C1831	C183	0.341300	0.528100	0.141600
C1841	C184	0.372000	0.543920	0.159400
C1851	C185	0.387330	0.526700	0.190700
C1861	C186	0.372000	0.493700	0.204200
C1871	C187	0.384700	0.582300	0.131700
C1881	C188	0.287100	0.570600	0.117000
C1891	C189	0.414700	0.603400	0.139200
C1901	C190	0.333300	0.529300	0.068100
C1911	C191	0.327800	0.552700	0.105700
C1921	C192	0.371300	0.514900	0.059800
C1931	C193	0.283700	0.592600	0.150000
O201	O20	0.277700	0.312400	0.196600
C1941	C194	0.302190	0.370980	0.212300
C1951	C195	0.316000	0.395300	0.239390
C1961	C196	0.329370	0.430300	0.229100
C1971	C197	0.329000	0.440990	0.191700
C1981	C198	0.315300	0.416700	0.164660
C1991	C199	0.301800	0.381700	0.175000
C2001	C200	0.287800	0.331800	0.223300
Zn101	Zn10	0.196080	0.251770	0.263980
O211	O21	0.208100	0.674040	0.756100
C2011	C201	0.158700	0.522200	0.686400
C2021	C202	0.174100	0.505000	0.655100
C2031	C203	0.158700	0.471900	0.641600
C2041	C204	0.128000	0.456080	0.659400
C2051	C205	0.112670	0.473300	0.690700
C2061	C206	0.128000	0.506300	0.704200
C2071	C207	0.115300	0.417700	0.631700
C2081	C208	0.212900	0.429400	0.617000
C2091	C209	0.085300	0.396600	0.639200
C2101	C210	0.166700	0.470700	0.568100
C2111	C211	0.172200	0.447300	0.605700
C2121	C212	0.128700	0.485100	0.559800
C2131	C213	0.216300	0.407400	0.650000
O221	O22	0.222300	0.687600	0.696600
C2141	C214	0.197810	0.629020	0.712300
C2151	C215	0.184000	0.604700	0.739390
C2161	C216	0.170630	0.569700	0.729100
C2171	C217	0.171000	0.559010	0.691700
C2181	C218	0.184700	0.583300	0.664660
C2191	C219	0.198200	0.618300	0.675000
C2201	C220	0.212200	0.668200	0.723300
Zn111	Zn11	0.303920	0.748230	0.763980
O231	O23	0.791900	0.174040	0.743900
C2211	C221	0.841300	0.022200	0.813600
C2221	C222	0.825900	0.005000	0.844900
C2231	C223	0.841300	0.971900	0.858400
C2241	C224	0.872000	0.956080	0.840600
C2251	C225	0.887330	0.973300	0.809300
C2261	C226	0.872000	0.006300	0.795800
C2271	C227	0.884700	0.917700	0.868300
C2281	C228	0.787100	0.929400	0.883000
C2291	C229	0.914700	0.896600	0.860800
C2301	C230	0.833300	0.970700	0.931900
C2311	C231	0.827800	0.947300	0.894300
C2321	C232	0.871300	0.985100	0.940200
C2331	C233	0.783700	0.907400	0.850000
O241	O24	0.777700	0.187600	0.803400
C2341	C234	0.802190	0.129020	0.787700
C2351	C235	0.816000	0.104700	0.760610
C2361	C236	0.829370	0.069700	0.770900
C2371	C237	0.829000	0.059010	0.808300
C2381	C238	0.815300	0.083300	0.835340
C2391	C239	0.801800	0.118300	0.825000
C2401	C240	0.787800	0.168200	0.776700
Zn121	Zn12	0.696080	0.248230	0.736020
Zn131	Zn13	0.221490	0.721490	0.778510
O251	O25	0.252990	0.752990	0.747010
Zn141	Zn14	0.278510	0.278510	0.278510
O261	O26	0.247010	0.247010	0.247010
Zn151	Zn15	0.778510	0.221490	0.721490
O271	O27	0.747010	0.252990	0.752990
Zn161	Zn16	0.721490	0.778510	0.221490
O281	O28	0.752990	0.747010	0.252990
O291	O29	0.743900	0.208100	0.325960
C2411	C241	0.813600	0.158700	0.477800
C2421	C242	0.844900	0.174100	0.495000
C2431	C243	0.858400	0.158700	0.528100
C2441	C244	0.840600	0.128000	0.543920
C2451	C245	0.809300	0.112670	0.526700
C2461	C246	0.795800	0.128000	0.493700
C2471	C247	0.868300	0.115300	0.582300
C2481	C248	0.883000	0.212900	0.570600
C2491	C249	0.860800	0.085300	0.603400
C2501	C250	0.931900	0.166700	0.529300
C2511	C251	0.894300	0.172200	0.552700
C2521	C252	0.940200	0.128700	0.514900
C2531	C253	0.850000	0.216300	0.592600
O301	O30	0.803400	0.222300	0.312400
C2541	C254	0.787700	0.197810	0.370980
C2551	C255	0.760610	0.184000	0.395300
C2561	C256	0.770900	0.170630	0.430300
C2571	C257	0.808300	0.171000	0.440990
C2581	C258	0.835340	0.184700	0.416700
C2591	C259	0.825000	0.198200	0.381700
C2601	C260	0.776700	0.212200	0.331800
Zn171	Zn17	0.736020	0.303920	0.251770
O311	O31	0.756100	0.791900	0.825960
C2611	C261	0.686400	0.841300	0.977800
C2621	C262	0.655100	0.825900	0.995000
C2631	C263	0.641600	0.841300	0.028100
C2641	C264	0.659400	0.872000	0.043920
C2651	C265	0.690700	0.887330	0.026700
C2661	C266	0.704200	0.872000	0.993700
C2671	C267	0.631700	0.884700	0.082300
C2681	C268	0.617000	0.787100	0.070600
C2691	C269	0.639200	0.914700	0.103400
C2701	C270	0.568100	0.833300	0.029300
C2711	C271	0.605700	0.827800	0.052700
C2721	C272	0.559800	0.871300	0.014900
C2731	C273	0.650000	0.783700	0.092600
O321	O32	0.696600	0.777700	0.812400
C2741	C274	0.712300	0.802190	0.870980
C2751	C275	0.739390	0.816000	0.895300
C2761	C276	0.729100	0.829370	0.930300
C2771	C277	0.691700	0.829000	0.940990
C2781	C278	0.664660	0.815300	0.916700
C2791	C279	0.675000	0.801800	0.881700
C2801	C280	0.723300	0.787800	0.831800
Zn181	Zn18	0.763980	0.696080	0.751770
O331	O33	0.256100	0.708100	0.174040
C2811	C281	0.186400	0.658700	0.022200
C2821	C282	0.155100	0.674100	0.005000
C2831	C283	0.141600	0.658700	0.971900
C2841	C284	0.159400	0.628000	0.956080
C2851	C285	0.190700	0.612670	0.973300
C2861	C286	0.204200	0.628000	0.006300
C2871	C287	0.131700	0.615300	0.917700
C2881	C288	0.117000	0.712900	0.929400
C2891	C289	0.139200	0.585300	0.896600
C2901	C290	0.068100	0.666700	0.970700
C2911	C291	0.105700	0.672200	0.947300
C2921	C292	0.059800	0.628700	0.985100
C2931	C293	0.150000	0.716300	0.907400
O341	O34	0.196600	0.722300	0.187600
C2941	C294	0.212300	0.697810	0.129020
C2951	C295	0.239390	0.684000	0.104700
C2961	C296	0.229100	0.670630	0.069700
C2971	C297	0.191700	0.671000	0.059010
C2981	C298	0.164660	0.684700	0.083300
C2991	C299	0.175000	0.698200	0.118300
C3001	C300	0.223300	0.712200	0.168200
Zn191	Zn19	0.263980	0.803920	0.248230
O351	O35	0.243900	0.291900	0.674040
C3011	C301	0.313600	0.341300	0.522200
C3021	C302	0.344900	0.325900	0.505000
C3031	C303	0.358400	0.341300	0.471900
C3041	C304	0.340600	0.372000	0.456080
C3051	C305	0.309300	0.387330	0.473300
C3061	C306	0.295800	0.372000	0.506300
C3071	C307	0.368300	0.384700	0.417700
C3081	C308	0.383000	0.287100	0.429400
C3091	C309	0.360800	0.414700	0.396600
C3101	C310	0.431900	0.333300	0.470700
C3111	C311	0.394300	0.327800	0.447300
C3121	C312	0.440200	0.371300	0.485100
C3131	C313	0.350000	0.283700	0.407400
O361	O36	0.303400	0.277700	0.687600
C3141	C314	0.287700	0.302190	0.629020
C3151	C315	0.260610	0.316000	0.604700
C3161	C316	0.270900	0.329370	0.569700
C3171	C317	0.308300	0.329000	0.559010
C3181	C318	0.335340	0.315300	0.583300
C3191	C319	0.325000	0.301800	0.618300
C3201	C320	0.276700	0.287800	0.668200
Zn201	Zn20	0.236020	0.196080	0.748230
O371	O37	0.325960	0.743900	0.208100
C3211	C321	0.477800	0.813600	0.158700
C3221	C322	0.495000	0.844900	0.174100
C3231	C323	0.528100	0.858400	0.158700
C3241	C324	0.543920	0.840600	0.128000
C3251	C325	0.526700	0.809300	0.112670
C3261	C326	0.493700	0.795800	0.128000
C3271	C327	0.582300	0.868300	0.115300
C3281	C328	0.570600	0.883000	0.212900
C3291	C329	0.603400	0.860800	0.085300
C3301	C330	0.529300	0.931900	0.166700
C3311	C331	0.552700	0.894300	0.172200
C3321	C332	0.514900	0.940200	0.128700
C3331	C333	0.592600	0.850000	0.216300
O381	O38	0.312400	0.803400	0.222300
C3341	C334	0.370980	0.787700	0.197810
C3351	C335	0.395300	0.760610	0.184000
C3361	C336	0.430300	0.770900	0.170630
C3371	C337	0.440990	0.808300	0.171000
C3381	C338	0.416700	0.835340	0.184700
C3391	C339	0.381700	0.825000	0.198200
C3401	C340	0.331800	0.776700	0.212200
Zn211	Zn21	0.251770	0.736020	0.303920
O391	O39	0.825960	0.756100	0.791900
C3411	C341	0.977800	0.686400	0.841300
C3421	C342	0.995000	0.655100	0.825900
C3431	C343	0.028100	0.641600	0.841300
C3441	C344	0.043920	0.659400	0.872000
C3451	C345	0.026700	0.690700	0.887330
C3461	C346	0.993700	0.704200	0.872000
C3471	C347	0.082300	0.631700	0.884700
C3481	C348	0.070600	0.617000	0.787100
C3491	C349	0.103400	0.639200	0.914700
C3501	C350	0.029300	0.568100	0.833300
C3511	C351	0.052700	0.605700	0.827800
C3521	C352	0.014900	0.559800	0.871300
C3531	C353	0.092600	0.650000	0.783700
O401	O40	0.812400	0.696600	0.777700
C3541	C354	0.870980	0.712300	0.802190
C3551	C355	0.895300	0.739390	0.816000
C3561	C356	0.930300	0.729100	0.829370
C3571	C357	0.940990	0.691700	0.829000
C3581	C358	0.916700	0.664660	0.815300
C3591	C359	0.881700	0.675000	0.801800
C3601	C360	0.831800	0.723300	0.787800
Zn221	Zn22	0.751770	0.763980	0.696080
O411	O41	0.174040	0.256100	0.708100
C3611	C361	0.022200	0.186400	0.658700
C3621	C362	0.005000	0.155100	0.674100
C3631	C363	0.971900	0.141600	0.658700
C3641	C364	0.956080	0.159400	0.628000
C3651	C365	0.973300	0.190700	0.612670
C3661	C366	0.006300	0.204200	0.628000
C3671	C367	0.917700	0.131700	0.615300
C3681	C368	0.929400	0.117000	0.712900
C3691	C369	0.896600	0.139200	0.585300
C3701	C370	0.970700	0.068100	0.666700
C3711	C371	0.947300	0.105700	0.672200
C3721	C372	0.985100	0.059800	0.628700
C3731	C373	0.907400	0.150000	0.716300
O421	O42	0.187600	0.196600	0.722300
C3741	C374	0.129020	0.212300	0.697810
C3751	C375	0.104700	0.239390	0.684000
C3761	C376	0.069700	0.229100	0.670630
C3771	C377	0.059010	0.191700	0.671000
C3781	C378	0.083300	0.164660	0.684700
C3791	C379	0.118300	0.175000	0.698200
C3801	C380	0.168200	0.223300	0.712200
Zn231	Zn23	0.248230	0.263980	0.803920
O431	O43	0.674040	0.243900	0.291900
C3811	C381	0.522200	0.313600	0.341300
C3821	C382	0.505000	0.344900	0.325900
C3831	C383	0.471900	0.358400	0.341300
C3841	C384	0.456080	0.340600	0.372000
C3851	C385	0.473300	0.309300	0.387330
C3861	C386	0.506300	0.295800	0.372000
C3871	C387	0.417700	0.368300	0.384700
C3881	C388	0.429400	0.383000	0.287100
C3891	C389	0.396600	0.360800	0.414700
C3901	C390	0.470700	0.431900	0.333300
C3911	C391	0.447300	0.394300	0.327800
C3921	C392	0.485100	0.440200	0.371300
C3931	C393	0.407400	0.350000	0.283700
O441	O44	0.687600	0.303400	0.277700
C3941	C394	0.629020	0.287700	0.302190
C3951	C395	0.604700	0.260610	0.316000
C3961	C396	0.569700	0.270900	0.329370
C3971	C397	0.559010	0.308300	0.329000
C3981	C398	0.583300	0.335340	0.315300
C3991	C399	0.618300	0.325000	0.301800
C4001	C400	0.668200	0.276700	0.287800
Zn241	Zn24	0.748230	0.236020	0.196080
O451	O45	0.208100	0.325960	0.743900
C4011	C401	0.158700	0.477800	0.813600
C4021	C402	0.174100	0.495000	0.844900
C4031	C403	0.158700	0.528100	0.858400
C4041	C404	0.128000	0.543920	0.840600
C4051	C405	0.112670	0.526700	0.809300
C4061	C406	0.128000	0.493700	0.795800
C4071	C407	0.115300	0.582300	0.868300
C4081	C408	0.212900	0.570600	0.883000
C4091	C409	0.085300	0.603400	0.860800
C4101	C410	0.166700	0.529300	0.931900
C4111	C411	0.172200	0.552700	0.894300
C4121	C412	0.128700	0.514900	0.940200
C4131	C413	0.216300	0.592600	0.850000
O461	O46	0.222300	0.312400	0.803400
C4141	C414	0.197810	0.370980	0.787700
C4151	C415	0.184000	0.395300	0.760610
C4161	C416	0.170630	0.430300	0.770900
C4171	C417	0.171000	0.440990	0.808300
C4181	C418	0.184700	0.416700	0.835340
C4191	C419	0.198200	0.381700	0.825000
C4201	C420	0.212200	0.331800	0.776700
Zn251	Zn25	0.303920	0.251770	0.736020
O471	O47	0.791900	0.825960	0.756100
C4211	C421	0.841300	0.977800	0.686400
C4221	C422	0.825900	0.995000	0.655100
C4231	C423	0.841300	0.028100	0.641600
C4241	C424	0.872000	0.043920	0.659400
C4251	C425	0.887330	0.026700	0.690700
C4261	C426	0.872000	0.993700	0.704200
C4271	C427	0.884700	0.082300	0.631700
C4281	C428	0.787100	0.070600	0.617000
C4291	C429	0.914700	0.103400	0.639200
C4301	C430	0.833300	0.029300	0.568100
C4311	C431	0.827800	0.052700	0.605700
C4321	C432	0.871300	0.014900	0.559800
C4331	C433	0.783700	0.092600	0.650000
O481	O48	0.777700	0.812400	0.696600
C4341	C434	0.802190	0.870980	0.712300
C4351	C435	0.816000	0.895300	0.739390
C4361	C436	0.829370	0.930300	0.729100
C4371	C437	0.829000	0.940990	0.691700
C4381	C438	0.815300	0.916700	0.664660
C4391	C439	0.801800	0.881700	0.675000
C4401	C440	0.787800	0.831800	0.723300
Zn261	Zn26	0.696080	0.751770	0.763980
O491	O49	0.708100	0.174040	0.256100
C4411	C441	0.658700	0.022200	0.186400
C4421	C442	0.674100	0.005000	0.155100
C4431	C443	0.658700	0.971900	0.141600
C4441	C444	0.628000	0.956080	0.159400
C4451	C445	0.612670	0.973300	0.190700
C4461	C446	0.628000	0.006300	0.204200
C4471	C447	0.615300	0.917700	0.131700
C4481	C448	0.712900	0.929400	0.117000
C4491	C449	0.585300	0.896600	0.139200
C4501	C450	0.666700	0.970700	0.068100
C4511	C451	0.672200	0.947300	0.105700
C4521	C452	0.628700	0.985100	0.059800
C4531	C453	0.716300	0.907400	0.150000
O501	O50	0.722300	0.187600	0.196600
C4541	C454	0.697810	0.129020	0.212300
C4551	C455	0.684000	0.104700	0.239390
C4561	C456	0.670630	0.069700	0.229100
C4571	C457	0.671000	0.059010	0.191700
C4581	C458	0.684700	0.083300	0.164660
C4591	C459	0.698200	0.118300	0.175000
C4601	C460	0.712200	0.168200	0.223300
Zn271	Zn27	0.803920	0.248230	0.263980
O511	O51	0.291900	0.674040	0.243900
C4611	C461	0.341300	0.522200	0.313600
C4621	C462	0.325900	0.505000	0.344900
C4631	C463	0.341300	0.471900	0.358400
C4641	C464	0.372000	0.456080	0.340600
C4651	C465	0.387330	0.473300	0.309300
C4661	C466	0.372000	0.506300	0.295800
C4671	C467	0.384700	0.417700	0.368300
C4681	C468	0.287100	0.429400	0.383000
C4691	C469	0.414700	0.396600	0.360800
C4701	C470	0.333300	0.470700	0.431900
C4711	C471	0.327800	0.447300	0.394300
C4721	C472	0.371300	0.485100	0.440200
C4731	C473	0.283700	0.407400	0.350000
O521	O52	0.277700	0.687600	0.303400
C4741	C474	0.302190	0.629020	0.287700
C4751	C475	0.316000	0.604700	0.260610
C4761	C476	0.329370	0.569700	0.270900
C4771	C477	0.329000	0.559010	0.308300
C4781	C478	0.315300	0.583300	0.335340
C4791	C479	0.301800	0.618300	0.325000
C4801	C480	0.287800	0.668200	0.276700
Zn281	Zn28	0.196080	0.748230	0.236020
Zn291	Zn29	0.721490	0.221490	0.278510
O531	O53	0.752990	0.252990	0.247010
Zn301	Zn30	0.778510	0.778510	0.778510
O541	O54	0.747010	0.747010	0.747010
Zn311	Zn31	0.278510	0.721490	0.221490
O551	O55	0.247010	0.752990	0.252990
Zn321	Zn32	0.221490	0.278510	0.721490
O561	O56	0.252990	0.247010	0.752990
