data_ONALEV_clean_PM
_symmetry_space_group_name_H-M	'P1'
_cell_length_a	12.641000
_cell_length_b	5.195300
_cell_length_c	21.150000
_cell_angle_alpha	90.000000
_cell_angle_beta	95.110000
_cell_angle_gamma	90.000000
_symmetry_Int_Tables_number 1

loop_
_symmetry_equiv_pos_as_xyz
'x,y,z'

loop_
_atom_site_label
_atom_site_type_symbol
_atom_site_fract_x
_atom_site_fract_y
_atom_site_fract_z
Mn11	Mn1	0.493930	0.214960	0.429700
Mn21	Mn2	0.501160	0.733410	0.327200
Mn31	Mn3	0.100380	0.777920	0.445320
P11	P1	0.359720	0.733160	0.447300
P21	P2	0.626540	0.242530	0.313630
P31	P3	0.027930	0.701400	0.583110
O11	O1	0.537660	0.376700	0.349530
O21	O2	0.601230	0.296100	0.242810
O31	O3	0.245980	0.780400	0.420170
O41	O4	0.433470	0.870900	0.401860
O51	O5	0.105650	0.669300	0.532740
O61	O6	0.732670	0.361900	0.334050
O71	O7	0.382400	0.859200	0.512600
O81	O8	0.931550	0.861100	0.561080
O91	O9	0.623220	0.956100	0.329470
O101	O10	0.384350	0.446900	0.450570
O111	O11	0.089570	0.850500	0.639860
O121	O12	0.994690	0.439800	0.607160
H11	H1	0.156000	0.773000	0.653000
Zn11	Zn1	0.506070	0.785040	0.570300
Zn21	Zn2	0.498840	0.266590	0.672800
Zn31	Zn3	0.899620	0.222080	0.554680
Mn41	Mn4	0.506070	0.714960	0.070300
Mn51	Mn5	0.498840	0.233410	0.172800
Mn61	Mn6	0.899620	0.277920	0.054680
P41	P4	0.640280	0.233160	0.052700
P51	P5	0.373460	0.742530	0.186370
P61	P6	0.972070	0.201400	0.916890
O131	O13	0.462340	0.876700	0.150470
O141	O14	0.398770	0.796100	0.257190
O151	O15	0.754020	0.280400	0.079830
O161	O16	0.566530	0.370900	0.098140
O171	O17	0.894350	0.169300	0.967260
O181	O18	0.267330	0.861900	0.165950
O191	O19	0.617600	0.359200	0.987400
O201	O20	0.068450	0.361100	0.938920
O211	O21	0.376780	0.456100	0.170530
O221	O22	0.615650	0.946900	0.049430
O231	O23	0.910430	0.350500	0.860140
O241	O24	0.005310	0.939800	0.892840
H21	H2	0.844000	0.273000	0.847000
Zn41	Zn4	0.493930	0.285040	0.929700
Zn51	Zn5	0.501160	0.766590	0.827200
Zn61	Zn6	0.100380	0.722080	0.945320
P71	P7	0.640280	0.266840	0.552700
P81	P8	0.373460	0.757470	0.686370
P91	P9	0.972070	0.298600	0.416890
O251	O25	0.462340	0.623300	0.650470
O261	O26	0.398770	0.703900	0.757190
O271	O27	0.754020	0.219600	0.579830
O281	O28	0.566530	0.129100	0.598140
O291	O29	0.894350	0.330700	0.467260
O301	O30	0.267330	0.638100	0.665950
O311	O31	0.617600	0.140800	0.487400
O321	O32	0.068450	0.138900	0.438920
O331	O33	0.376780	0.043900	0.670530
O341	O34	0.615650	0.553100	0.549430
O351	O35	0.910430	0.149500	0.360140
O361	O36	0.005310	0.560200	0.392840
H31	H3	0.844000	0.227000	0.347000
P101	P10	0.359720	0.766840	0.947300
P111	P11	0.626540	0.257470	0.813630
P121	P12	0.027930	0.798600	0.083110
O371	O37	0.537660	0.123300	0.849530
O381	O38	0.601230	0.203900	0.742810
O391	O39	0.245980	0.719600	0.920170
O401	O40	0.433470	0.629100	0.901860
O411	O41	0.105650	0.830700	0.032740
O421	O42	0.732670	0.138100	0.834050
O431	O43	0.382400	0.640800	0.012600
O441	O44	0.931550	0.638900	0.061080
O451	O45	0.623220	0.543900	0.829470
O461	O46	0.384350	0.053100	0.950570
O471	O47	0.089570	0.649500	0.139860
O481	O48	0.994690	0.060200	0.107160
H41	H4	0.156000	0.727000	0.153000
