data_ONAWEG01_clean_PM
_symmetry_space_group_name_H-M	'P1'
_cell_length_a	12.887000
_cell_length_b	17.043000
_cell_length_c	24.799000
_cell_angle_alpha	90.000000
_cell_angle_beta	90.000000
_cell_angle_gamma	90.000000
_symmetry_Int_Tables_number 1

loop_
_symmetry_equiv_pos_as_xyz
'x,y,z'

loop_
_atom_site_label
_atom_site_type_symbol
_atom_site_fract_x
_atom_site_fract_y
_atom_site_fract_z
N11	N1	0.081800	0.338200	0.999030
N21	N2	0.120800	0.408600	0.982400
N31	N3	0.985400	0.374320	0.932470
C11	C1	0.207300	0.233800	0.017400
H11	H1	0.239400	0.204000	0.047300
H21	H2	0.166600	0.196100	0.995600
C21	C2	0.134700	0.291800	0.040800
H31	H3	0.173500	0.327500	0.064900
H41	H4	0.082100	0.264000	0.062800
C31	C3	0.060500	0.427700	0.942700
H51	H5	0.068200	0.474900	0.922800
C41	C4	0.001800	0.319300	0.969000
H61	H6	0.961700	0.272900	0.972900
N41	N4	0.081800	0.838200	0.499030
N51	N5	0.120800	0.908600	0.482400
N61	N6	0.985400	0.874320	0.432470
C51	C5	0.207300	0.733800	0.517400
H71	H7	0.239400	0.704000	0.547300
H81	H8	0.166600	0.696100	0.495600
C61	C6	0.134700	0.791800	0.540800
H91	H9	0.173500	0.827500	0.564900
H101	H10	0.082100	0.764000	0.562800
C71	C7	0.060500	0.927700	0.442700
H111	H11	0.068200	0.974900	0.422800
C81	C8	0.001800	0.819300	0.469000
H121	H12	0.961700	0.772900	0.472900
N71	N7	0.581800	0.338200	0.499030
N81	N8	0.620800	0.408600	0.482400
N91	N9	0.485400	0.374320	0.432470
C91	C9	0.707300	0.233800	0.517400
H131	H13	0.739400	0.204000	0.547300
H141	H14	0.666600	0.196100	0.495600
C101	C10	0.634700	0.291800	0.540800
H151	H15	0.673500	0.327500	0.564900
H161	H16	0.582100	0.264000	0.562800
C111	C11	0.560500	0.427700	0.442700
H171	H17	0.568200	0.474900	0.422800
C121	C12	0.501800	0.319300	0.469000
H181	H18	0.461700	0.272900	0.472900
N101	N10	0.581800	0.838200	0.999030
N111	N11	0.620800	0.908600	0.982400
N121	N12	0.485400	0.874320	0.932470
C131	C13	0.707300	0.733800	0.017400
H191	H19	0.739400	0.704000	0.047300
H201	H20	0.666600	0.696100	0.995600
C141	C14	0.634700	0.791800	0.040800
H211	H21	0.673500	0.827500	0.064900
H221	H22	0.582100	0.764000	0.062800
C151	C15	0.560500	0.927700	0.942700
H231	H23	0.568200	0.974900	0.922800
C161	C16	0.501800	0.819300	0.969000
H241	H24	0.461700	0.772900	0.972900
N131	N13	0.668200	0.411800	0.999030
N141	N14	0.629200	0.341400	0.982400
N151	N15	0.764600	0.375680	0.932470
C171	C17	0.542700	0.516200	0.017400
H251	H25	0.510600	0.546000	0.047300
H261	H26	0.583400	0.553900	0.995600
C181	C18	0.615300	0.458200	0.040800
H271	H27	0.576500	0.422500	0.064900
H281	H28	0.667900	0.486000	0.062800
C191	C19	0.689500	0.322300	0.942700
H291	H29	0.681800	0.275100	0.922800
C201	C20	0.748200	0.430700	0.969000
H301	H30	0.788300	0.477100	0.972900
N161	N16	0.668200	0.911800	0.499030
N171	N17	0.629200	0.841400	0.482400
N181	N18	0.764600	0.875680	0.432470
C211	C21	0.542700	0.016200	0.517400
H311	H31	0.510600	0.046000	0.547300
H321	H32	0.583400	0.053900	0.495600
C221	C22	0.615300	0.958200	0.540800
H331	H33	0.576500	0.922500	0.564900
H341	H34	0.667900	0.986000	0.562800
C231	C23	0.689500	0.822300	0.442700
H351	H35	0.681800	0.775100	0.422800
C241	C24	0.748200	0.930700	0.469000
H361	H36	0.788300	0.977100	0.472900
N191	N19	0.168200	0.411800	0.499030
N201	N20	0.129200	0.341400	0.482400
N211	N21	0.264600	0.375680	0.432470
C251	C25	0.042700	0.516200	0.517400
H371	H37	0.010600	0.546000	0.547300
H381	H38	0.083400	0.553900	0.495600
C261	C26	0.115300	0.458200	0.540800
H391	H39	0.076500	0.422500	0.564900
H401	H40	0.167900	0.486000	0.562800
C271	C27	0.189500	0.322300	0.442700
H411	H41	0.181800	0.275100	0.422800
C281	C28	0.248200	0.430700	0.469000
H421	H42	0.288300	0.477100	0.472900
N221	N22	0.168200	0.911800	0.999030
N231	N23	0.129200	0.841400	0.982400
N241	N24	0.264600	0.875680	0.932470
C291	C29	0.042700	0.016200	0.017400
H431	H43	0.010600	0.046000	0.047300
H441	H44	0.083400	0.053900	0.995600
C301	C30	0.115300	0.958200	0.040800
H451	H45	0.076500	0.922500	0.064900
H461	H46	0.167900	0.986000	0.062800
C311	C31	0.189500	0.822300	0.942700
H471	H47	0.181800	0.775100	0.922800
C321	C32	0.248200	0.930700	0.969000
H481	H48	0.288300	0.977100	0.972900
N251	N25	0.668200	0.338200	0.750970
N261	N26	0.629200	0.408600	0.767600
N271	N27	0.764600	0.374320	0.817530
C331	C33	0.542700	0.233800	0.732600
H491	H49	0.510600	0.204000	0.702700
H501	H50	0.583400	0.196100	0.754400
C341	C34	0.615300	0.291800	0.709200
H511	H51	0.576500	0.327500	0.685100
H521	H52	0.667900	0.264000	0.687200
C351	C35	0.689500	0.427700	0.807300
H531	H53	0.681800	0.474900	0.827200
C361	C36	0.748200	0.319300	0.781000
H541	H54	0.788300	0.272900	0.777100
N281	N28	0.668200	0.838200	0.250970
N291	N29	0.629200	0.908600	0.267600
N301	N30	0.764600	0.874320	0.317530
C371	C37	0.542700	0.733800	0.232600
H551	H55	0.510600	0.704000	0.202700
H561	H56	0.583400	0.696100	0.254400
C381	C38	0.615300	0.791800	0.209200
H571	H57	0.576500	0.827500	0.185100
H581	H58	0.667900	0.764000	0.187200
C391	C39	0.689500	0.927700	0.307300
H591	H59	0.681800	0.974900	0.327200
C401	C40	0.748200	0.819300	0.281000
H601	H60	0.788300	0.772900	0.277100
N311	N31	0.168200	0.338200	0.250970
N321	N32	0.129200	0.408600	0.267600
N331	N33	0.264600	0.374320	0.317530
C411	C41	0.042700	0.233800	0.232600
H611	H61	0.010600	0.204000	0.202700
H621	H62	0.083400	0.196100	0.254400
C421	C42	0.115300	0.291800	0.209200
H631	H63	0.076500	0.327500	0.185100
H641	H64	0.167900	0.264000	0.187200
C431	C43	0.189500	0.427700	0.307300
H651	H65	0.181800	0.474900	0.327200
C441	C44	0.248200	0.319300	0.281000
H661	H66	0.288300	0.272900	0.277100
N341	N34	0.168200	0.838200	0.750970
N351	N35	0.129200	0.908600	0.767600
N361	N36	0.264600	0.874320	0.817530
C451	C45	0.042700	0.733800	0.732600
H671	H67	0.010600	0.704000	0.702700
H681	H68	0.083400	0.696100	0.754400
C461	C46	0.115300	0.791800	0.709200
H691	H69	0.076500	0.827500	0.685100
H701	H70	0.167900	0.764000	0.687200
C471	C47	0.189500	0.927700	0.807300
H711	H71	0.181800	0.974900	0.827200
C481	C48	0.248200	0.819300	0.781000
H721	H72	0.288300	0.772900	0.777100
N371	N37	0.081800	0.411800	0.750970
N381	N38	0.120800	0.341400	0.767600
N391	N39	0.985400	0.375680	0.817530
C491	C49	0.207300	0.516200	0.732600
H731	H73	0.239400	0.546000	0.702700
H741	H74	0.166600	0.553900	0.754400
C501	C50	0.134700	0.458200	0.709200
H751	H75	0.173500	0.422500	0.685100
H761	H76	0.082100	0.486000	0.687200
C511	C51	0.060500	0.322300	0.807300
H771	H77	0.068200	0.275100	0.827200
C521	C52	0.001800	0.430700	0.781000
H781	H78	0.961700	0.477100	0.777100
N401	N40	0.081800	0.911800	0.250970
N411	N41	0.120800	0.841400	0.267600
N421	N42	0.985400	0.875680	0.317530
C531	C53	0.207300	0.016200	0.232600
H791	H79	0.239400	0.046000	0.202700
H801	H80	0.166600	0.053900	0.254400
C541	C54	0.134700	0.958200	0.209200
H811	H81	0.173500	0.922500	0.185100
H821	H82	0.082100	0.986000	0.187200
C551	C55	0.060500	0.822300	0.307300
H831	H83	0.068200	0.775100	0.327200
C561	C56	0.001800	0.930700	0.281000
H841	H84	0.961700	0.977100	0.277100
N431	N43	0.581800	0.411800	0.250970
N441	N44	0.620800	0.341400	0.267600
N451	N45	0.485400	0.375680	0.317530
C571	C57	0.707300	0.516200	0.232600
H851	H85	0.739400	0.546000	0.202700
H861	H86	0.666600	0.553900	0.254400
C581	C58	0.634700	0.458200	0.209200
H871	H87	0.673500	0.422500	0.185100
H881	H88	0.582100	0.486000	0.187200
C591	C59	0.560500	0.322300	0.307300
H891	H89	0.568200	0.275100	0.327200
C601	C60	0.501800	0.430700	0.281000
H901	H90	0.461700	0.477100	0.277100
N461	N46	0.581800	0.911800	0.750970
N471	N47	0.620800	0.841400	0.767600
N481	N48	0.485400	0.875680	0.817530
C611	C61	0.707300	0.016200	0.732600
H911	H91	0.739400	0.046000	0.702700
H921	H92	0.666600	0.053900	0.754400
C621	C62	0.634700	0.958200	0.709200
H931	H93	0.673500	0.922500	0.685100
H941	H94	0.582100	0.986000	0.687200
C631	C63	0.560500	0.822300	0.807300
H951	H95	0.568200	0.775100	0.827200
C641	C64	0.501800	0.930700	0.781000
H961	H96	0.461700	0.977100	0.777100
N491	N49	0.918200	0.661800	0.000970
N501	N50	0.879200	0.591400	0.017600
N511	N51	0.014600	0.625680	0.067530
C651	C65	0.792700	0.766200	0.982600
H971	H97	0.760600	0.796000	0.952700
H981	H98	0.833400	0.803900	0.004400
C661	C66	0.865300	0.708200	0.959200
H991	H99	0.826500	0.672500	0.935100
H1001	H100	0.917900	0.736000	0.937200
C671	C67	0.939500	0.572300	0.057300
H1011	H101	0.931800	0.525100	0.077200
C681	C68	0.998200	0.680700	0.031000
H1021	H102	0.038300	0.727100	0.027100
N521	N52	0.918200	0.161800	0.500970
N531	N53	0.879200	0.091400	0.517600
N541	N54	0.014600	0.125680	0.567530
C691	C69	0.792700	0.266200	0.482600
H1031	H103	0.760600	0.296000	0.452700
H1041	H104	0.833400	0.303900	0.504400
C701	C70	0.865300	0.208200	0.459200
H1051	H105	0.826500	0.172500	0.435100
H1061	H106	0.917900	0.236000	0.437200
C711	C71	0.939500	0.072300	0.557300
H1071	H107	0.931800	0.025100	0.577200
C721	C72	0.998200	0.180700	0.531000
H1081	H108	0.038300	0.227100	0.527100
N551	N55	0.418200	0.661800	0.500970
N561	N56	0.379200	0.591400	0.517600
N571	N57	0.514600	0.625680	0.567530
C731	C73	0.292700	0.766200	0.482600
H1091	H109	0.260600	0.796000	0.452700
H1101	H110	0.333400	0.803900	0.504400
C741	C74	0.365300	0.708200	0.459200
H1111	H111	0.326500	0.672500	0.435100
H1121	H112	0.417900	0.736000	0.437200
C751	C75	0.439500	0.572300	0.557300
H1131	H113	0.431800	0.525100	0.577200
C761	C76	0.498200	0.680700	0.531000
H1141	H114	0.538300	0.727100	0.527100
N581	N58	0.418200	0.161800	0.000970
N591	N59	0.379200	0.091400	0.017600
N601	N60	0.514600	0.125680	0.067530
C771	C77	0.292700	0.266200	0.982600
H1151	H115	0.260600	0.296000	0.952700
H1161	H116	0.333400	0.303900	0.004400
C781	C78	0.365300	0.208200	0.959200
H1171	H117	0.326500	0.172500	0.935100
H1181	H118	0.417900	0.236000	0.937200
C791	C79	0.439500	0.072300	0.057300
H1191	H119	0.431800	0.025100	0.077200
C801	C80	0.498200	0.180700	0.031000
H1201	H120	0.538300	0.227100	0.027100
N611	N61	0.331800	0.588200	0.000970
N621	N62	0.370800	0.658600	0.017600
N631	N63	0.235400	0.624320	0.067530
C811	C81	0.457300	0.483800	0.982600
H1211	H121	0.489400	0.454000	0.952700
H1221	H122	0.416600	0.446100	0.004400
C821	C82	0.384700	0.541800	0.959200
H1231	H123	0.423500	0.577500	0.935100
H1241	H124	0.332100	0.514000	0.937200
C831	C83	0.310500	0.677700	0.057300
H1251	H125	0.318200	0.724900	0.077200
C841	C84	0.251800	0.569300	0.031000
H1261	H126	0.211700	0.522900	0.027100
N641	N64	0.331800	0.088200	0.500970
N651	N65	0.370800	0.158600	0.517600
N661	N66	0.235400	0.124320	0.567530
C851	C85	0.457300	0.983800	0.482600
H1271	H127	0.489400	0.954000	0.452700
H1281	H128	0.416600	0.946100	0.504400
C861	C86	0.384700	0.041800	0.459200
H1291	H129	0.423500	0.077500	0.435100
H1301	H130	0.332100	0.014000	0.437200
C871	C87	0.310500	0.177700	0.557300
H1311	H131	0.318200	0.224900	0.577200
C881	C88	0.251800	0.069300	0.531000
H1321	H132	0.211700	0.022900	0.527100
N671	N67	0.831800	0.588200	0.500970
N681	N68	0.870800	0.658600	0.517600
N691	N69	0.735400	0.624320	0.567530
C891	C89	0.957300	0.483800	0.482600
H1331	H133	0.989400	0.454000	0.452700
H1341	H134	0.916600	0.446100	0.504400
C901	C90	0.884700	0.541800	0.459200
H1351	H135	0.923500	0.577500	0.435100
H1361	H136	0.832100	0.514000	0.437200
C911	C91	0.810500	0.677700	0.557300
H1371	H137	0.818200	0.724900	0.577200
C921	C92	0.751800	0.569300	0.531000
H1381	H138	0.711700	0.522900	0.527100
N701	N70	0.831800	0.088200	0.000970
N711	N71	0.870800	0.158600	0.017600
N721	N72	0.735400	0.124320	0.067530
C931	C93	0.957300	0.983800	0.982600
H1391	H139	0.989400	0.954000	0.952700
H1401	H140	0.916600	0.946100	0.004400
C941	C94	0.884700	0.041800	0.959200
H1411	H141	0.923500	0.077500	0.935100
H1421	H142	0.832100	0.014000	0.937200
C951	C95	0.810500	0.177700	0.057300
H1431	H143	0.818200	0.224900	0.077200
C961	C96	0.751800	0.069300	0.031000
H1441	H144	0.711700	0.022900	0.027100
N731	N73	0.331800	0.661800	0.249030
N741	N74	0.370800	0.591400	0.232400
N751	N75	0.235400	0.625680	0.182470
C971	C97	0.457300	0.766200	0.267400
H1451	H145	0.489400	0.796000	0.297300
H1461	H146	0.416600	0.803900	0.245600
C981	C98	0.384700	0.708200	0.290800
H1471	H147	0.423500	0.672500	0.314900
H1481	H148	0.332100	0.736000	0.312800
C991	C99	0.310500	0.572300	0.192700
H1491	H149	0.318200	0.525100	0.172800
C1001	C100	0.251800	0.680700	0.219000
H1501	H150	0.211700	0.727100	0.222900
N761	N76	0.331800	0.161800	0.749030
N771	N77	0.370800	0.091400	0.732400
N781	N78	0.235400	0.125680	0.682470
C1011	C101	0.457300	0.266200	0.767400
H1511	H151	0.489400	0.296000	0.797300
H1521	H152	0.416600	0.303900	0.745600
C1021	C102	0.384700	0.208200	0.790800
H1531	H153	0.423500	0.172500	0.814900
H1541	H154	0.332100	0.236000	0.812800
C1031	C103	0.310500	0.072300	0.692700
H1551	H155	0.318200	0.025100	0.672800
C1041	C104	0.251800	0.180700	0.719000
H1561	H156	0.211700	0.227100	0.722900
N791	N79	0.831800	0.661800	0.749030
N801	N80	0.870800	0.591400	0.732400
N811	N81	0.735400	0.625680	0.682470
C1051	C105	0.957300	0.766200	0.767400
H1571	H157	0.989400	0.796000	0.797300
H1581	H158	0.916600	0.803900	0.745600
C1061	C106	0.884700	0.708200	0.790800
H1591	H159	0.923500	0.672500	0.814900
H1601	H160	0.832100	0.736000	0.812800
C1071	C107	0.810500	0.572300	0.692700
H1611	H161	0.818200	0.525100	0.672800
C1081	C108	0.751800	0.680700	0.719000
H1621	H162	0.711700	0.727100	0.722900
N821	N82	0.831800	0.161800	0.249030
N831	N83	0.870800	0.091400	0.232400
N841	N84	0.735400	0.125680	0.182470
C1091	C109	0.957300	0.266200	0.267400
H1631	H163	0.989400	0.296000	0.297300
H1641	H164	0.916600	0.303900	0.245600
C1101	C110	0.884700	0.208200	0.290800
H1651	H165	0.923500	0.172500	0.314900
H1661	H166	0.832100	0.236000	0.312800
C1111	C111	0.810500	0.072300	0.192700
H1671	H167	0.818200	0.025100	0.172800
C1121	C112	0.751800	0.180700	0.219000
H1681	H168	0.711700	0.227100	0.222900
N851	N85	0.918200	0.588200	0.249030
N861	N86	0.879200	0.658600	0.232400
N871	N87	0.014600	0.624320	0.182470
C1131	C113	0.792700	0.483800	0.267400
H1691	H169	0.760600	0.454000	0.297300
H1701	H170	0.833400	0.446100	0.245600
C1141	C114	0.865300	0.541800	0.290800
H1711	H171	0.826500	0.577500	0.314900
H1721	H172	0.917900	0.514000	0.312800
C1151	C115	0.939500	0.677700	0.192700
H1731	H173	0.931800	0.724900	0.172800
C1161	C116	0.998200	0.569300	0.219000
H1741	H174	0.038300	0.522900	0.222900
N881	N88	0.918200	0.088200	0.749030
N891	N89	0.879200	0.158600	0.732400
N901	N90	0.014600	0.124320	0.682470
C1171	C117	0.792700	0.983800	0.767400
H1751	H175	0.760600	0.954000	0.797300
H1761	H176	0.833400	0.946100	0.745600
C1181	C118	0.865300	0.041800	0.790800
H1771	H177	0.826500	0.077500	0.814900
H1781	H178	0.917900	0.014000	0.812800
C1191	C119	0.939500	0.177700	0.692700
H1791	H179	0.931800	0.224900	0.672800
C1201	C120	0.998200	0.069300	0.719000
H1801	H180	0.038300	0.022900	0.722900
N911	N91	0.418200	0.588200	0.749030
N921	N92	0.379200	0.658600	0.732400
N931	N93	0.514600	0.624320	0.682470
C1211	C121	0.292700	0.483800	0.767400
H1811	H181	0.260600	0.454000	0.797300
H1821	H182	0.333400	0.446100	0.745600
C1221	C122	0.365300	0.541800	0.790800
H1831	H183	0.326500	0.577500	0.814900
H1841	H184	0.417900	0.514000	0.812800
C1231	C123	0.439500	0.677700	0.692700
H1851	H185	0.431800	0.724900	0.672800
C1241	C124	0.498200	0.569300	0.719000
H1861	H186	0.538300	0.522900	0.722900
N941	N94	0.418200	0.088200	0.249030
N951	N95	0.379200	0.158600	0.232400
N961	N96	0.514600	0.124320	0.182470
C1251	C125	0.292700	0.983800	0.267400
H1871	H187	0.260600	0.954000	0.297300
H1881	H188	0.333400	0.946100	0.245600
C1261	C126	0.365300	0.041800	0.290800
H1891	H189	0.326500	0.077500	0.314900
H1901	H190	0.417900	0.014000	0.312800
C1271	C127	0.439500	0.177700	0.192700
H1911	H191	0.431800	0.224900	0.172800
C1281	C128	0.498200	0.069300	0.219000
H1921	H192	0.538300	0.022900	0.222900
Cu11	Cu1	0.875000	0.375000	0.875000
Cu21	Cu2	0.875000	0.875000	0.375000
Cu31	Cu3	0.375000	0.375000	0.375000
Cu41	Cu4	0.375000	0.875000	0.875000
Cu51	Cu5	0.125000	0.625000	0.125000
Cu61	Cu6	0.125000	0.125000	0.625000
Cu71	Cu7	0.625000	0.625000	0.625000
Cu81	Cu8	0.625000	0.125000	0.125000
