data_ONUKAL_clean_PM
_symmetry_space_group_name_H-M	'P1'
_cell_length_a	11.091000
_cell_length_b	11.091000
_cell_length_c	19.364000
_cell_angle_alpha	90.000000
_cell_angle_beta	90.000000
_cell_angle_gamma	120.000000
_symmetry_Int_Tables_number 1

loop_
_symmetry_equiv_pos_as_xyz
'x,y,z'

loop_
_atom_site_label
_atom_site_type_symbol
_atom_site_fract_x
_atom_site_fract_y
_atom_site_fract_z
O11	O1	0.651800	0.550400	0.172800
C11	C1	0.614000	0.597000	0.035500
O21	O2	0.723000	0.716000	0.069200
H11	H1	0.717000	0.702900	0.111100
O31	O3	0.449600	0.101400	0.172800
C21	C2	0.403000	0.017000	0.035500
O41	O4	0.284000	0.007000	0.069200
H21	H2	0.297100	0.014100	0.111100
O51	O5	0.898600	0.348200	0.172800
C31	C3	0.983000	0.386000	0.035500
O61	O6	0.993000	0.277000	0.069200
H31	H3	0.985900	0.283000	0.111100
O71	O7	0.348200	0.449600	0.672800
C41	C4	0.386000	0.403000	0.535500
O81	O8	0.277000	0.284000	0.569200
H41	H4	0.283000	0.297100	0.611100
O91	O9	0.550400	0.898600	0.672800
C51	C5	0.597000	0.983000	0.535500
O101	O10	0.716000	0.993000	0.569200
H51	H5	0.702900	0.985900	0.611100
O111	O11	0.101400	0.651800	0.672800
C61	C6	0.017000	0.614000	0.535500
O121	O12	0.007000	0.723000	0.569200
H61	H6	0.014100	0.717000	0.611100
O131	O13	0.550400	0.651800	0.827200
C71	C7	0.597000	0.614000	0.964500
O141	O14	0.716000	0.723000	0.930800
H71	H7	0.702900	0.717000	0.888900
O151	O15	0.101400	0.449600	0.827200
C81	C8	0.017000	0.403000	0.964500
O161	O16	0.007000	0.284000	0.930800
H81	H8	0.014100	0.297100	0.888900
O171	O17	0.348200	0.898600	0.827200
C91	C9	0.386000	0.983000	0.964500
O181	O18	0.277000	0.993000	0.930800
H91	H9	0.283000	0.985900	0.888900
O191	O19	0.449600	0.348200	0.327200
C101	C10	0.403000	0.386000	0.464500
O201	O20	0.284000	0.277000	0.430800
H101	H10	0.297100	0.283000	0.388900
O211	O21	0.898600	0.550400	0.327200
C111	C11	0.983000	0.597000	0.464500
O221	O22	0.993000	0.716000	0.430800
H111	H11	0.985900	0.702900	0.388900
O231	O23	0.651800	0.101400	0.327200
C121	C12	0.614000	0.017000	0.464500
O241	O24	0.723000	0.007000	0.430800
H121	H12	0.717000	0.014100	0.388900
O251	O25	0.348200	0.449600	0.827200
C131	C13	0.386000	0.403000	0.964500
O261	O26	0.277000	0.284000	0.930800
H131	H13	0.283000	0.297100	0.888900
O271	O27	0.550400	0.898600	0.827200
C141	C14	0.597000	0.983000	0.964500
O281	O28	0.716000	0.993000	0.930800
H141	H14	0.702900	0.985900	0.888900
O291	O29	0.101400	0.651800	0.827200
C151	C15	0.017000	0.614000	0.964500
O301	O30	0.007000	0.723000	0.930800
H151	H15	0.014100	0.717000	0.888900
O311	O31	0.651800	0.550400	0.327200
C161	C16	0.614000	0.597000	0.464500
O321	O32	0.723000	0.716000	0.430800
H161	H16	0.717000	0.702900	0.388900
O331	O33	0.449600	0.101400	0.327200
C171	C17	0.403000	0.017000	0.464500
O341	O34	0.284000	0.007000	0.430800
H171	H17	0.297100	0.014100	0.388900
O351	O35	0.898600	0.348200	0.327200
C181	C18	0.983000	0.386000	0.464500
O361	O36	0.993000	0.277000	0.430800
H181	H18	0.985900	0.283000	0.388900
O371	O37	0.449600	0.348200	0.172800
C191	C19	0.403000	0.386000	0.035500
O381	O38	0.284000	0.277000	0.069200
H191	H19	0.297100	0.283000	0.111100
O391	O39	0.898600	0.550400	0.172800
C201	C20	0.983000	0.597000	0.035500
O401	O40	0.993000	0.716000	0.069200
H201	H20	0.985900	0.702900	0.111100
O411	O41	0.651800	0.101400	0.172800
C211	C21	0.614000	0.017000	0.035500
O421	O42	0.723000	0.007000	0.069200
H211	H21	0.717000	0.014100	0.111100
O431	O43	0.550400	0.651800	0.672800
C221	C22	0.597000	0.614000	0.535500
O441	O44	0.716000	0.723000	0.569200
H221	H22	0.702900	0.717000	0.611100
O451	O45	0.101400	0.449600	0.672800
C231	C23	0.017000	0.403000	0.535500
O461	O46	0.007000	0.284000	0.569200
H231	H23	0.014100	0.297100	0.611100
O471	O47	0.348200	0.898600	0.672800
C241	C24	0.386000	0.983000	0.535500
O481	O48	0.277000	0.993000	0.569200
H241	H24	0.283000	0.985900	0.611100
Fe11	Fe1	0.766550	0.533100	0.250000
Fe21	Fe2	0.466900	0.233450	0.250000
Fe31	Fe3	0.766550	0.233450	0.250000
Fe41	Fe4	0.233450	0.466900	0.750000
Fe51	Fe5	0.533100	0.766550	0.750000
Fe61	Fe6	0.233450	0.766550	0.750000
O491	O49	0.666670	0.333330	0.250000
O501	O50	0.333330	0.666670	0.750000
C251	C25	0.542800	0.457200	0.143700
C261	C26	0.521600	0.478400	0.069700
C271	C27	0.542800	0.085600	0.143700
C281	C28	0.521600	0.043200	0.069700
C291	C29	0.914400	0.457200	0.143700
C301	C30	0.956800	0.478400	0.069700
C311	C31	0.457200	0.542800	0.643700
C321	C32	0.478400	0.521600	0.569700
C331	C33	0.457200	0.914400	0.643700
C341	C34	0.478400	0.956800	0.569700
C351	C35	0.085600	0.542800	0.643700
C361	C36	0.043200	0.521600	0.569700
C371	C37	0.457200	0.542800	0.856300
C381	C38	0.478400	0.521600	0.930300
C391	C39	0.085600	0.542800	0.856300
C401	C40	0.043200	0.521600	0.930300
C411	C41	0.457200	0.914400	0.856300
C421	C42	0.478400	0.956800	0.930300
C431	C43	0.542800	0.457200	0.356300
C441	C44	0.521600	0.478400	0.430300
C451	C45	0.914400	0.457200	0.356300
C461	C46	0.956800	0.478400	0.430300
C471	C47	0.542800	0.085600	0.356300
C481	C48	0.521600	0.043200	0.430300
