data_OPAGIX_clean_PM
_symmetry_space_group_name_H-M	'P1'
_cell_length_a	25.865000
_cell_length_b	25.865000
_cell_length_c	6.911000
_cell_angle_alpha	90.000000
_cell_angle_beta	90.000000
_cell_angle_gamma	120.000000
_symmetry_Int_Tables_number 1

loop_
_symmetry_equiv_pos_as_xyz
'x,y,z'

loop_
_atom_site_label
_atom_site_type_symbol
_atom_site_fract_x
_atom_site_fract_y
_atom_site_fract_z
Mg11	Mg1	0.367530	0.051630	0.024310
O11	O1	0.360140	0.989940	0.815300
O21	O2	0.584460	0.978000	0.829500
O31	O3	0.404220	0.968860	0.578200
C11	C1	0.402710	0.983710	0.750000
C21	C2	0.452710	0.993990	0.884600
C31	C3	0.497440	0.985010	0.809700
H11	H1	0.495400	0.975100	0.676500
C41	C4	0.545030	0.989530	0.917300
Mg21	Mg2	0.034200	0.384960	0.357640
O41	O4	0.026810	0.323270	0.148630
O51	O5	0.251130	0.311330	0.162830
O61	O6	0.070890	0.302190	0.911530
C51	C5	0.069380	0.317040	0.083330
C61	C6	0.119380	0.327320	0.217930
C71	C7	0.164110	0.318340	0.143030
H21	H2	0.162070	0.308430	0.009830
C81	C8	0.211700	0.322860	0.250630
Mg31	Mg3	0.700860	0.718300	0.690980
O71	O7	0.693470	0.656610	0.481970
O81	O8	0.917790	0.644670	0.496170
O91	O9	0.737550	0.635530	0.244870
C91	C9	0.736040	0.650380	0.416670
C101	C10	0.786040	0.660660	0.551270
C111	C11	0.830770	0.651680	0.476370
H31	H3	0.828730	0.641770	0.343170
C121	C12	0.878360	0.656200	0.583970
Mg41	Mg4	0.948370	0.315900	0.024310
O101	O10	0.010060	0.370200	0.815300
O111	O11	0.022000	0.606460	0.829500
O121	O12	0.031140	0.435360	0.578200
C131	C13	0.016290	0.419000	0.750000
C141	C14	0.006010	0.458720	0.884600
C151	C15	0.014990	0.512430	0.809700
H41	H4	0.024900	0.520300	0.676500
C161	C16	0.010470	0.555500	0.917300
Mg51	Mg5	0.615040	0.649230	0.357640
O131	O13	0.676730	0.703530	0.148630
O141	O14	0.688670	0.939790	0.162830
O151	O15	0.697810	0.768690	0.911530
C171	C17	0.682960	0.752330	0.083330
C181	C18	0.672680	0.792050	0.217930
C191	C19	0.681660	0.845760	0.143030
H51	H5	0.691570	0.853630	0.009830
C201	C20	0.677140	0.888830	0.250630
Mg61	Mg6	0.281700	0.982570	0.690980
O161	O16	0.343390	0.036870	0.481970
O171	O17	0.355330	0.273130	0.496170
O181	O18	0.364470	0.102030	0.244870
C211	C21	0.349620	0.085670	0.416670
C221	C22	0.339340	0.125390	0.551270
C231	C23	0.348320	0.179100	0.476370
H61	H6	0.358230	0.186970	0.343170
C241	C24	0.343800	0.222170	0.583970
Mg71	Mg7	0.684100	0.632470	0.024310
O191	O19	0.629800	0.639860	0.815300
O201	O20	0.393540	0.415540	0.829500
O211	O21	0.564640	0.595780	0.578200
C251	C25	0.581000	0.597290	0.750000
C261	C26	0.541280	0.547290	0.884600
C271	C27	0.487570	0.502560	0.809700
H71	H7	0.479700	0.504600	0.676500
C281	C28	0.444500	0.454970	0.917300
Mg81	Mg8	0.350770	0.965800	0.357640
O221	O22	0.296470	0.973190	0.148630
O231	O23	0.060210	0.748870	0.162830
O241	O24	0.231310	0.929110	0.911530
C291	C29	0.247670	0.930620	0.083330
C301	C30	0.207950	0.880620	0.217930
C311	C31	0.154240	0.835890	0.143030
H81	H8	0.146370	0.837930	0.009830
C321	C32	0.111170	0.788300	0.250630
Mg91	Mg9	0.017430	0.299140	0.690980
O251	O25	0.963130	0.306530	0.481970
O261	O26	0.726870	0.082210	0.496170
O271	O27	0.897970	0.262450	0.244870
C331	C33	0.914330	0.263960	0.416670
C341	C34	0.874610	0.213960	0.551270
C351	C35	0.820900	0.169230	0.476370
H91	H9	0.813030	0.171270	0.343170
C361	C36	0.777830	0.121640	0.583970
Mg101	Mg10	0.632470	0.948370	0.975690
O281	O28	0.639860	0.010060	0.184700
O291	O29	0.415540	0.022000	0.170500
O301	O30	0.595780	0.031140	0.421800
C371	C37	0.597290	0.016290	0.250000
C381	C38	0.547290	0.006010	0.115400
C391	C39	0.502560	0.014990	0.190300
H101	H10	0.504600	0.024900	0.323500
C401	C40	0.454970	0.010470	0.082700
Mg111	Mg11	0.299140	0.281700	0.309020
O311	O31	0.306530	0.343390	0.518030
O321	O32	0.082210	0.355330	0.503830
O331	O33	0.262450	0.364470	0.755130
C411	C41	0.263960	0.349620	0.583330
C421	C42	0.213960	0.339340	0.448730
C431	C43	0.169230	0.348320	0.523630
H111	H11	0.171270	0.358230	0.656830
C441	C44	0.121640	0.343800	0.416030
Mg121	Mg12	0.965800	0.615040	0.642360
O341	O34	0.973190	0.676730	0.851370
O351	O35	0.748870	0.688670	0.837170
O361	O36	0.929110	0.697810	0.088470
C451	C45	0.930620	0.682960	0.916670
C461	C46	0.880620	0.672680	0.782070
C471	C47	0.835890	0.681660	0.856970
H121	H12	0.837930	0.691570	0.990170
C481	C48	0.788300	0.677140	0.749370
Mg131	Mg13	0.051630	0.684100	0.975690
O371	O37	0.989940	0.629800	0.184700
O381	O38	0.978000	0.393540	0.170500
O391	O39	0.968860	0.564640	0.421800
C491	C49	0.983710	0.581000	0.250000
C501	C50	0.993990	0.541280	0.115400
C511	C51	0.985010	0.487570	0.190300
H131	H13	0.975100	0.479700	0.323500
C521	C52	0.989530	0.444500	0.082700
Mg141	Mg14	0.718300	0.017430	0.309020
O401	O40	0.656610	0.963130	0.518030
O411	O41	0.644670	0.726870	0.503830
O421	O42	0.635530	0.897970	0.755130
C531	C53	0.650380	0.914330	0.583330
C541	C54	0.660660	0.874610	0.448730
C551	C55	0.651680	0.820900	0.523630
H141	H14	0.641770	0.813030	0.656830
C561	C56	0.656200	0.777830	0.416030
Mg151	Mg15	0.384960	0.350770	0.642360
O431	O43	0.323270	0.296470	0.851370
O441	O44	0.311330	0.060210	0.837170
O451	O45	0.302190	0.231310	0.088470
C571	C57	0.317040	0.247670	0.916670
C581	C58	0.327320	0.207950	0.782070
C591	C59	0.318340	0.154240	0.856970
H151	H15	0.308430	0.146370	0.990170
C601	C60	0.322860	0.111170	0.749370
Mg161	Mg16	0.315900	0.367530	0.975690
O461	O46	0.370200	0.360140	0.184700
O471	O47	0.606460	0.584460	0.170500
O481	O48	0.435360	0.404220	0.421800
C611	C61	0.419000	0.402710	0.250000
C621	C62	0.458720	0.452710	0.115400
C631	C63	0.512430	0.497440	0.190300
H161	H16	0.520300	0.495400	0.323500
C641	C64	0.555500	0.545030	0.082700
Mg171	Mg17	0.982570	0.700860	0.309020
O491	O49	0.036870	0.693470	0.518030
O501	O50	0.273130	0.917790	0.503830
O511	O51	0.102030	0.737550	0.755130
C651	C65	0.085670	0.736040	0.583330
C661	C66	0.125390	0.786040	0.448730
C671	C67	0.179100	0.830770	0.523630
H171	H17	0.186970	0.828730	0.656830
C681	C68	0.222170	0.878360	0.416030
Mg181	Mg18	0.649230	0.034200	0.642360
O521	O52	0.703530	0.026810	0.851370
O531	O53	0.939790	0.251130	0.837170
O541	O54	0.768690	0.070890	0.088470
C691	C69	0.752330	0.069380	0.916670
C701	C70	0.792050	0.119380	0.782070
C711	C71	0.845760	0.164110	0.856970
H181	H18	0.853630	0.162070	0.990170
C721	C72	0.888830	0.211700	0.749370
