data_OPIPUZ_clean_PM
_symmetry_space_group_name_H-M	'P1'
_cell_length_a	6.563400
_cell_length_b	25.334300
_cell_length_c	7.840000
_cell_angle_alpha	90.000000
_cell_angle_beta	90.718000
_cell_angle_gamma	90.000000
_symmetry_Int_Tables_number 1

loop_
_symmetry_equiv_pos_as_xyz
'x,y,z'

loop_
_atom_site_label
_atom_site_type_symbol
_atom_site_fract_x
_atom_site_fract_y
_atom_site_fract_z
Co11	Co1	0.123490	0.214130	0.942530
O11	O1	0.935400	0.240350	0.744600
O21	O2	0.319200	0.184830	0.127300
C11	C1	0.932400	0.289530	0.728500
C21	C2	0.077000	0.322410	0.843300
H11	H1	0.131500	0.352600	0.775300
N11	N1	0.249600	0.289620	0.903800
H21	H2	0.303600	0.302800	0.003900
H31	H3	0.350600	0.288400	0.823500
C31	C3	0.959400	0.344300	0.994000
H41	H4	0.838900	0.363400	0.948500
H51	H5	0.047100	0.370600	0.052800
C41	C4	0.886000	0.304790	0.127300
O31	O3	0.926600	0.256280	0.113700
O41	O4	0.787400	0.325310	0.247000
N21	N2	0.942700	0.145030	0.981400
C51	C5	0.749200	0.143610	0.924000
H61	H6	0.697700	0.173600	0.864900
C61	C6	0.621000	0.101040	0.946000
H71	H7	0.486400	0.101600	0.900200
C71	C7	0.691100	0.057430	0.035700
C81	C8	0.890400	0.058640	0.096100
H81	H8	0.944200	0.029500	0.158200
C91	C9	0.011400	0.102480	0.065800
H91	H9	0.148400	0.102300	0.106600
C101	C10	0.547200	0.011800	0.075700
H101	H10	0.624300	0.984200	0.138400
H111	H11	0.438700	0.024800	0.151500
Co21	Co2	0.376510	0.714130	0.557470
O51	O5	0.564600	0.740350	0.755400
O61	O6	0.180800	0.684830	0.372700
C111	C11	0.567600	0.789530	0.771500
C121	C12	0.423000	0.822410	0.656700
H121	H12	0.368500	0.852600	0.724700
N31	N3	0.250400	0.789620	0.596200
H131	H13	0.196400	0.802800	0.496100
H141	H14	0.149400	0.788400	0.676500
C131	C13	0.540600	0.844300	0.506000
H151	H15	0.661100	0.863400	0.551500
H161	H16	0.452900	0.870600	0.447200
C141	C14	0.614000	0.804790	0.372700
O71	O7	0.573400	0.756280	0.386300
O81	O8	0.712600	0.825310	0.253000
N41	N4	0.557300	0.645030	0.518600
C151	C15	0.750800	0.643610	0.576000
H171	H17	0.802300	0.673600	0.635100
C161	C16	0.879000	0.601040	0.554000
H181	H18	0.013600	0.601600	0.599800
C171	C17	0.808900	0.557430	0.464300
C181	C18	0.609600	0.558640	0.403900
H191	H19	0.555800	0.529500	0.341800
C191	C19	0.488600	0.602480	0.434200
H201	H20	0.351600	0.602300	0.393400
C201	C20	0.952800	0.511800	0.424300
H211	H21	0.875700	0.484200	0.361600
H221	H22	0.061300	0.524800	0.348500
Co31	Co3	0.876510	0.785870	0.057470
O91	O9	0.064600	0.759650	0.255400
O101	O10	0.680800	0.815170	0.872700
C211	C21	0.067600	0.710470	0.271500
C221	C22	0.923000	0.677590	0.156700
H231	H23	0.868500	0.647400	0.224700
N51	N5	0.750400	0.710380	0.096200
H241	H24	0.696400	0.697200	0.996100
H251	H25	0.649400	0.711600	0.176500
C231	C23	0.040600	0.655700	0.006000
H261	H26	0.161100	0.636600	0.051500
H271	H27	0.952900	0.629400	0.947200
C241	C24	0.114000	0.695210	0.872700
O111	O11	0.073400	0.743720	0.886300
O121	O12	0.212600	0.674690	0.753000
N61	N6	0.057300	0.854970	0.018600
C251	C25	0.250800	0.856390	0.076000
H281	H28	0.302300	0.826400	0.135100
C261	C26	0.379000	0.898960	0.054000
H291	H29	0.513600	0.898400	0.099800
C271	C27	0.308900	0.942570	0.964300
C281	C28	0.109600	0.941360	0.903900
H301	H30	0.055800	0.970500	0.841800
C291	C29	0.988600	0.897520	0.934200
H311	H31	0.851600	0.897700	0.893400
C301	C30	0.452800	0.988200	0.924300
H321	H32	0.375700	0.015800	0.861600
H331	H33	0.561300	0.975200	0.848500
Co41	Co4	0.623490	0.285870	0.442530
O131	O13	0.435400	0.259650	0.244600
O141	O14	0.819200	0.315170	0.627300
C311	C31	0.432400	0.210470	0.228500
C321	C32	0.577000	0.177590	0.343300
H341	H34	0.631500	0.147400	0.275300
N71	N7	0.749600	0.210380	0.403800
H351	H35	0.803600	0.197200	0.503900
H361	H36	0.850600	0.211600	0.323500
C331	C33	0.459400	0.155700	0.494000
H371	H37	0.338900	0.136600	0.448500
H381	H38	0.547100	0.129400	0.552800
C341	C34	0.386000	0.195210	0.627300
O151	O15	0.426600	0.243720	0.613700
O161	O16	0.287400	0.174690	0.747000
N81	N8	0.442700	0.354970	0.481400
C351	C35	0.249200	0.356390	0.424000
H391	H39	0.197700	0.326400	0.364900
C361	C36	0.121000	0.398960	0.446000
H401	H40	0.986400	0.398400	0.400200
C371	C37	0.191100	0.442570	0.535700
C381	C38	0.390400	0.441360	0.596100
H411	H41	0.444200	0.470500	0.658200
C391	C39	0.511400	0.397520	0.565800
H421	H42	0.648400	0.397700	0.606600
C401	C40	0.047200	0.488200	0.575700
H431	H43	0.124300	0.515800	0.638400
H441	H44	0.938700	0.475200	0.651500
