data_OPOBOL_clean_PM
_symmetry_space_group_name_H-M	'P1'
_cell_length_a	7.495900
_cell_length_b	10.609200
_cell_length_c	10.865700
_cell_angle_alpha	119.222000
_cell_angle_beta	110.178000
_cell_angle_gamma	90.000000
_symmetry_Int_Tables_number 1

loop_
_symmetry_equiv_pos_as_xyz
'x,y,z'

loop_
_atom_site_label
_atom_site_type_symbol
_atom_site_fract_x
_atom_site_fract_y
_atom_site_fract_z
Ba11	Ba1	0.333120	0.617510	0.500000
Ba21	Ba2	0.833120	0.382490	0.500000
H11	H1	0.389100	0.184000	0.072000
H21	H2	0.146900	0.024200	0.832800
H31	H3	0.956500	0.115200	0.691800
H41	H4	0.317100	0.816000	0.928000
H51	H5	0.314100	0.975800	0.167200
H61	H6	0.264700	0.884800	0.308200
H71	H7	0.889100	0.388000	0.072000
H81	H8	0.646900	0.308600	0.832800
H91	H9	0.456500	0.076600	0.691800
H101	H10	0.817100	0.612000	0.928000
H111	H11	0.814100	0.691400	0.167200
H121	H12	0.764700	0.923400	0.308200
C11	C1	0.234770	0.420070	0.976340
C21	C2	0.352110	0.367810	0.064220
C31	C3	0.315610	0.220010	0.012420
C41	C4	0.168490	0.125190	0.870980
C51	C5	0.054850	0.179550	0.787100
C61	C6	0.515380	0.473180	0.217960
C71	C7	0.258430	0.579930	0.023660
C81	C8	0.287890	0.632190	0.935780
C91	C9	0.303190	0.779990	0.987580
C101	C10	0.297510	0.874810	0.129020
C111	C11	0.267750	0.820450	0.212900
C121	C12	0.297420	0.526820	0.782040
C131	C13	0.734770	0.056270	0.976340
C141	C14	0.852110	0.196410	0.064220
C151	C15	0.815610	0.292410	0.012420
C161	C16	0.668490	0.245790	0.870980
C171	C17	0.554850	0.107550	0.787100
C181	C18	0.015380	0.244780	0.217960
C191	C19	0.758430	0.943730	0.023660
C201	C20	0.787890	0.803590	0.935780
C211	C21	0.803190	0.707590	0.987580
C221	C22	0.797510	0.754210	0.129020
C231	C23	0.767750	0.892450	0.212900
C241	C24	0.797420	0.755220	0.782040
N11	N1	0.084030	0.326130	0.841460
N21	N2	0.242570	0.673870	0.158540
N31	N3	0.584030	0.015330	0.841460
N41	N4	0.742570	0.984670	0.158540
O11	O1	0.615580	0.576190	0.232160
O21	O2	0.535950	0.444610	0.321500
O31	O3	0.961910	0.377410	0.763820
O41	O4	0.383420	0.423810	0.767840
O51	O5	0.214450	0.555390	0.678500
O61	O6	0.198090	0.622590	0.236180
O71	O7	0.115580	0.155970	0.232160
O81	O8	0.035950	0.376890	0.321500
O91	O9	0.461910	0.886410	0.763820
O101	O10	0.883420	0.844030	0.767840
O111	O11	0.714450	0.623110	0.678500
O121	O12	0.698090	0.113590	0.236180
