data_OPUDAF_clean_PM
_symmetry_space_group_name_H-M	'P1'
_cell_length_a	21.888000
_cell_length_b	33.726800
_cell_length_c	14.938000
_cell_angle_alpha	90.000000
_cell_angle_beta	130.540000
_cell_angle_gamma	90.000000
_symmetry_Int_Tables_number 1

loop_
_symmetry_equiv_pos_as_xyz
'x,y,z'

loop_
_atom_site_label
_atom_site_type_symbol
_atom_site_fract_x
_atom_site_fract_y
_atom_site_fract_z
Sm11	Sm1	0.306280	0.257330	0.732420
Sm21	Sm2	0.375610	0.245240	0.145620
Sm31	Sm3	0.362880	0.246150	0.440870
Ag11	Ag1	0.472040	0.005580	0.949210
Ag21	Ag2	0.272210	0.000930	0.636140
Ag31	Ag3	0.363940	0.499410	0.986350
Ag41	Ag4	0.156000	0.513000	0.630330
Ag51	Ag5	0.579920	0.485630	0.442050
O11	O1	0.364000	0.207940	0.882300
O21	O2	0.372500	0.192870	0.034600
O31	O3	0.273000	0.208200	0.123300
O41	O4	0.285500	0.199080	0.282500
O51	O5	0.441700	0.194400	0.294300
O61	O6	0.456400	0.204340	0.453100
O71	O7	0.355000	0.189820	0.532700
O81	O8	0.312900	0.208090	0.628800
O91	O9	0.218900	0.305350	0.717400
O101	O10	0.189500	0.318900	0.830500
O111	O11	0.391300	0.295100	0.905900
O121	O12	0.402500	0.293710	0.063200
O131	O13	0.295300	0.298690	0.133300
O141	O14	0.287500	0.287920	0.272100
O151	O15	0.458400	0.283840	0.318500
O161	O16	0.455600	0.294940	0.464500
O171	O17	0.346900	0.293590	0.537600
O181	O18	0.327100	0.313150	0.657100
O191	O19	0.580000	0.683800	0.276500
O201	O20	0.578500	0.696680	0.419900
N11	N1	0.448800	0.066520	0.958200
N21	N2	0.263900	0.061300	0.150500
N31	N3	0.477200	0.057700	0.437100
N41	N4	0.293200	0.060980	0.621600
N51	N5	0.154000	0.450200	0.654000
N61	N6	0.366400	0.436630	0.971800
N71	N7	0.174300	0.424090	0.131000
N81	N8	0.566400	0.421800	0.449400
N91	N9	0.361500	0.440290	0.524800
N101	N10	0.580100	0.549000	0.416900
C11	C1	0.463700	0.096600	0.916300
H11	H1	0.488800	0.091300	0.885900
C21	C2	0.443000	0.135100	0.916600
H21	H2	0.453800	0.155300	0.886300
C31	C3	0.406600	0.143620	0.961700
C41	C4	0.393300	0.113400	0.007900
H31	H3	0.371100	0.118500	0.042700
C51	C5	0.413300	0.074600	0.002500
H41	H4	0.401600	0.054000	0.030500
C61	C6	0.379300	0.185130	0.959800
C71	C7	0.257700	0.086000	0.073600
H51	H5	0.254300	0.075100	0.013200
C81	C8	0.256100	0.126700	0.081500
H61	H6	0.250500	0.142800	0.026100
C91	C9	0.263000	0.143000	0.171600
C101	C10	0.266500	0.117700	0.248900
H71	H7	0.268700	0.128000	0.308700
C111	C11	0.266700	0.077000	0.235000
H81	H8	0.268900	0.060200	0.286400
C121	C12	0.273800	0.186900	0.195100
C131	C13	0.470000	0.074100	0.349800
H91	H9	0.466100	0.057500	0.296600
C141	C14	0.467900	0.114200	0.334300
H101	H10	0.464500	0.124300	0.273200
C151	C15	0.471000	0.139090	0.408700
C161	C16	0.478800	0.122400	0.501400
H111	H11	0.481600	0.138600	0.554500
C171	C17	0.482300	0.081500	0.513300
H121	H12	0.488500	0.070400	0.575600
C181	C18	0.458100	0.183600	0.386000
C191	C19	0.326400	0.071400	0.575100
H131	H13	0.341300	0.051500	0.549500
C201	C20	0.339300	0.109800	0.563300
H141	H14	0.364800	0.115500	0.533700
C211	C21	0.314700	0.140500	0.595200
C221	C22	0.278800	0.129870	0.642400
H151	H15	0.262100	0.149300	0.666600
C231	C23	0.268700	0.090500	0.652300
H161	H16	0.243600	0.083900	0.681900
C241	C24	0.328000	0.182860	0.583400
C251	C25	0.168900	0.423700	0.603600
H171	H17	0.171300	0.432500	0.547000
C261	C26	0.180700	0.383900	0.632200
H181	H18	0.191100	0.366400	0.595500
C271	C27	0.177000	0.370400	0.714900
C281	C28	0.158200	0.397800	0.762100
H191	H19	0.152400	0.389900	0.816000
C291	C29	0.148100	0.436200	0.729200
H201	H20	0.135900	0.454100	0.763000
C301	C30	0.195000	0.327600	0.756800
C311	C31	0.381500	0.418900	0.908300
H211	H21	0.386700	0.434300	0.862000
C321	C32	0.389600	0.378500	0.909200
H221	H22	0.399000	0.366900	0.862800
C331	C33	0.383700	0.355660	0.978300
C341	C34	0.366900	0.373600	0.044200
H231	H23	0.362900	0.358800	0.092700
C351	C35	0.356600	0.413900	0.034800
H241	H24	0.341900	0.426000	0.074400
C361	C36	0.393200	0.311200	0.984200
C371	C37	0.189000	0.409100	0.064200
H251	H25	0.178100	0.424800	0.004100
C381	C38	0.219200	0.372100	0.079300
H261	H26	0.229800	0.363400	0.031400
C391	C39	0.234100	0.347410	0.165100
C401	C40	0.214500	0.361500	0.228400
H271	H27	0.220700	0.345300	0.284300
C411	C41	0.185000	0.400000	0.210800
H281	H28	0.172500	0.409100	0.256000
C421	C42	0.275200	0.307800	0.192400
C431	C43	0.542100	0.399200	0.358000
H291	H29	0.543600	0.409900	0.302000
C441	C44	0.515500	0.361300	0.342500
H301	H30	0.500100	0.346500	0.278100
C451	C45	0.511800	0.345100	0.423700
C461	C46	0.539700	0.367100	0.521000
H311	H31	0.541200	0.356700	0.580100
C471	C47	0.565700	0.405700	0.528200
H321	H32	0.583800	0.420900	0.593400
C481	C48	0.471300	0.304300	0.400100
C491	C49	0.380900	0.410900	0.488800
H331	H33	0.396400	0.416900	0.445200
C501	C50	0.379100	0.371600	0.513600
H341	H34	0.395400	0.351700	0.489900
C511	C51	0.353700	0.362370	0.572100
C521	C52	0.335700	0.392800	0.614400
H351	H35	0.321700	0.387400	0.660100
C531	C53	0.339300	0.431000	0.586600
H361	H36	0.325500	0.451500	0.612300
C541	C54	0.342400	0.319120	0.592100
C551	C55	0.589600	0.561800	0.344400
H371	H37	0.596600	0.543200	0.305900
C561	C56	0.590000	0.603500	0.320000
H381	H38	0.598300	0.611500	0.269100
C571	C57	0.577900	0.629700	0.373300
C581	C58	0.568700	0.616100	0.454000
H391	H39	0.562200	0.633800	0.494900
C591	C59	0.569700	0.576100	0.469600
H401	H40	0.562600	0.567300	0.521200
C601	C60	0.579700	0.673600	0.353100
Sm41	Sm4	0.806280	0.757330	0.732420
Sm51	Sm5	0.875610	0.745240	0.145620
Sm61	Sm6	0.862880	0.746150	0.440870
Ag61	Ag6	0.972040	0.505580	0.949210
Ag71	Ag7	0.772210	0.500930	0.636140
Ag81	Ag8	0.863940	0.999410	0.986350
Ag91	Ag9	0.656000	0.013000	0.630330
Ag101	Ag10	0.079920	0.985630	0.442050
O211	O21	0.864000	0.707940	0.882300
O221	O22	0.872500	0.692870	0.034600
O231	O23	0.773000	0.708200	0.123300
O241	O24	0.785500	0.699080	0.282500
O251	O25	0.941700	0.694400	0.294300
O261	O26	0.956400	0.704340	0.453100
O271	O27	0.855000	0.689820	0.532700
O281	O28	0.812900	0.708090	0.628800
O291	O29	0.718900	0.805350	0.717400
O301	O30	0.689500	0.818900	0.830500
O311	O31	0.891300	0.795100	0.905900
O321	O32	0.902500	0.793710	0.063200
O331	O33	0.795300	0.798690	0.133300
O341	O34	0.787500	0.787920	0.272100
O351	O35	0.958400	0.783840	0.318500
O361	O36	0.955600	0.794940	0.464500
O371	O37	0.846900	0.793590	0.537600
O381	O38	0.827100	0.813150	0.657100
O391	O39	0.080000	0.183800	0.276500
O401	O40	0.078500	0.196680	0.419900
N111	N11	0.948800	0.566520	0.958200
N121	N12	0.763900	0.561300	0.150500
N131	N13	0.977200	0.557700	0.437100
N141	N14	0.793200	0.560980	0.621600
N151	N15	0.654000	0.950200	0.654000
N161	N16	0.866400	0.936630	0.971800
N171	N17	0.674300	0.924090	0.131000
N181	N18	0.066400	0.921800	0.449400
N191	N19	0.861500	0.940290	0.524800
N201	N20	0.080100	0.049000	0.416900
C611	C61	0.963700	0.596600	0.916300
H411	H41	0.988800	0.591300	0.885900
C621	C62	0.943000	0.635100	0.916600
H421	H42	0.953800	0.655300	0.886300
C631	C63	0.906600	0.643620	0.961700
C641	C64	0.893300	0.613400	0.007900
H431	H43	0.871100	0.618500	0.042700
C651	C65	0.913300	0.574600	0.002500
H441	H44	0.901600	0.554000	0.030500
C661	C66	0.879300	0.685130	0.959800
C671	C67	0.757700	0.586000	0.073600
H451	H45	0.754300	0.575100	0.013200
C681	C68	0.756100	0.626700	0.081500
H461	H46	0.750500	0.642800	0.026100
C691	C69	0.763000	0.643000	0.171600
C701	C70	0.766500	0.617700	0.248900
H471	H47	0.768700	0.628000	0.308700
C711	C71	0.766700	0.577000	0.235000
H481	H48	0.768900	0.560200	0.286400
C721	C72	0.773800	0.686900	0.195100
C731	C73	0.970000	0.574100	0.349800
H491	H49	0.966100	0.557500	0.296600
C741	C74	0.967900	0.614200	0.334300
H501	H50	0.964500	0.624300	0.273200
C751	C75	0.971000	0.639090	0.408700
C761	C76	0.978800	0.622400	0.501400
H511	H51	0.981600	0.638600	0.554500
C771	C77	0.982300	0.581500	0.513300
H521	H52	0.988500	0.570400	0.575600
C781	C78	0.958100	0.683600	0.386000
C791	C79	0.826400	0.571400	0.575100
H531	H53	0.841300	0.551500	0.549500
C801	C80	0.839300	0.609800	0.563300
H541	H54	0.864800	0.615500	0.533700
C811	C81	0.814700	0.640500	0.595200
C821	C82	0.778800	0.629870	0.642400
H551	H55	0.762100	0.649300	0.666600
C831	C83	0.768700	0.590500	0.652300
H561	H56	0.743600	0.583900	0.681900
C841	C84	0.828000	0.682860	0.583400
C851	C85	0.668900	0.923700	0.603600
H571	H57	0.671300	0.932500	0.547000
C861	C86	0.680700	0.883900	0.632200
H581	H58	0.691100	0.866400	0.595500
C871	C87	0.677000	0.870400	0.714900
C881	C88	0.658200	0.897800	0.762100
H591	H59	0.652400	0.889900	0.816000
C891	C89	0.648100	0.936200	0.729200
H601	H60	0.635900	0.954100	0.763000
C901	C90	0.695000	0.827600	0.756800
C911	C91	0.881500	0.918900	0.908300
H611	H61	0.886700	0.934300	0.862000
C921	C92	0.889600	0.878500	0.909200
H621	H62	0.899000	0.866900	0.862800
C931	C93	0.883700	0.855660	0.978300
C941	C94	0.866900	0.873600	0.044200
H631	H63	0.862900	0.858800	0.092700
C951	C95	0.856600	0.913900	0.034800
H641	H64	0.841900	0.926000	0.074400
C961	C96	0.893200	0.811200	0.984200
C971	C97	0.689000	0.909100	0.064200
H651	H65	0.678100	0.924800	0.004100
C981	C98	0.719200	0.872100	0.079300
H661	H66	0.729800	0.863400	0.031400
C991	C99	0.734100	0.847410	0.165100
C1001	C100	0.714500	0.861500	0.228400
H671	H67	0.720700	0.845300	0.284300
C1011	C101	0.685000	0.900000	0.210800
H681	H68	0.672500	0.909100	0.256000
C1021	C102	0.775200	0.807800	0.192400
C1031	C103	0.042100	0.899200	0.358000
H691	H69	0.043600	0.909900	0.302000
C1041	C104	0.015500	0.861300	0.342500
H701	H70	0.000100	0.846500	0.278100
C1051	C105	0.011800	0.845100	0.423700
C1061	C106	0.039700	0.867100	0.521000
H711	H71	0.041200	0.856700	0.580100
C1071	C107	0.065700	0.905700	0.528200
H721	H72	0.083800	0.920900	0.593400
C1081	C108	0.971300	0.804300	0.400100
C1091	C109	0.880900	0.910900	0.488800
H731	H73	0.896400	0.916900	0.445200
C1101	C110	0.879100	0.871600	0.513600
H741	H74	0.895400	0.851700	0.489900
C1111	C111	0.853700	0.862370	0.572100
C1121	C112	0.835700	0.892800	0.614400
H751	H75	0.821700	0.887400	0.660100
C1131	C113	0.839300	0.931000	0.586600
H761	H76	0.825500	0.951500	0.612300
C1141	C114	0.842400	0.819120	0.592100
C1151	C115	0.089600	0.061800	0.344400
H771	H77	0.096600	0.043200	0.305900
C1161	C116	0.090000	0.103500	0.320000
H781	H78	0.098300	0.111500	0.269100
C1171	C117	0.077900	0.129700	0.373300
C1181	C118	0.068700	0.116100	0.454000
H791	H79	0.062200	0.133800	0.494900
C1191	C119	0.069700	0.076100	0.469600
H801	H80	0.062600	0.067300	0.521200
C1201	C120	0.079700	0.173600	0.353100
Sm71	Sm7	0.306280	0.742670	0.232420
Sm81	Sm8	0.375610	0.754760	0.645620
Sm91	Sm9	0.362880	0.753850	0.940870
Ag111	Ag11	0.472040	0.994420	0.449210
Ag121	Ag12	0.272210	0.999070	0.136140
Ag131	Ag13	0.363940	0.500590	0.486350
Ag141	Ag14	0.156000	0.487000	0.130330
Ag151	Ag15	0.579920	0.514370	0.942050
O411	O41	0.364000	0.792060	0.382300
O421	O42	0.372500	0.807130	0.534600
O431	O43	0.273000	0.791800	0.623300
O441	O44	0.285500	0.800920	0.782500
O451	O45	0.441700	0.805600	0.794300
O461	O46	0.456400	0.795660	0.953100
O471	O47	0.355000	0.810180	0.032700
O481	O48	0.312900	0.791910	0.128800
O491	O49	0.218900	0.694650	0.217400
O501	O50	0.189500	0.681100	0.330500
O511	O51	0.391300	0.704900	0.405900
O521	O52	0.402500	0.706290	0.563200
O531	O53	0.295300	0.701310	0.633300
O541	O54	0.287500	0.712080	0.772100
O551	O55	0.458400	0.716160	0.818500
O561	O56	0.455600	0.705060	0.964500
O571	O57	0.346900	0.706410	0.037600
O581	O58	0.327100	0.686850	0.157100
O591	O59	0.580000	0.316200	0.776500
O601	O60	0.578500	0.303320	0.919900
N211	N21	0.448800	0.933480	0.458200
N221	N22	0.263900	0.938700	0.650500
N231	N23	0.477200	0.942300	0.937100
N241	N24	0.293200	0.939020	0.121600
N251	N25	0.154000	0.549800	0.154000
N261	N26	0.366400	0.563370	0.471800
N271	N27	0.174300	0.575910	0.631000
N281	N28	0.566400	0.578200	0.949400
N291	N29	0.361500	0.559710	0.024800
N301	N30	0.580100	0.451000	0.916900
C1211	C121	0.463700	0.903400	0.416300
H811	H81	0.488800	0.908700	0.385900
C1221	C122	0.443000	0.864900	0.416600
H821	H82	0.453800	0.844700	0.386300
C1231	C123	0.406600	0.856380	0.461700
C1241	C124	0.393300	0.886600	0.507900
H831	H83	0.371100	0.881500	0.542700
C1251	C125	0.413300	0.925400	0.502500
H841	H84	0.401600	0.946000	0.530500
C1261	C126	0.379300	0.814870	0.459800
C1271	C127	0.257700	0.914000	0.573600
H851	H85	0.254300	0.924900	0.513200
C1281	C128	0.256100	0.873300	0.581500
H861	H86	0.250500	0.857200	0.526100
C1291	C129	0.263000	0.857000	0.671600
C1301	C130	0.266500	0.882300	0.748900
H871	H87	0.268700	0.872000	0.808700
C1311	C131	0.266700	0.923000	0.735000
H881	H88	0.268900	0.939800	0.786400
C1321	C132	0.273800	0.813100	0.695100
C1331	C133	0.470000	0.925900	0.849800
H891	H89	0.466100	0.942500	0.796600
C1341	C134	0.467900	0.885800	0.834300
H901	H90	0.464500	0.875700	0.773200
C1351	C135	0.471000	0.860910	0.908700
C1361	C136	0.478800	0.877600	0.001400
H911	H91	0.481600	0.861400	0.054500
C1371	C137	0.482300	0.918500	0.013300
H921	H92	0.488500	0.929600	0.075600
C1381	C138	0.458100	0.816400	0.886000
C1391	C139	0.326400	0.928600	0.075100
H931	H93	0.341300	0.948500	0.049500
C1401	C140	0.339300	0.890200	0.063300
H941	H94	0.364800	0.884500	0.033700
C1411	C141	0.314700	0.859500	0.095200
C1421	C142	0.278800	0.870130	0.142400
H951	H95	0.262100	0.850700	0.166600
C1431	C143	0.268700	0.909500	0.152300
H961	H96	0.243600	0.916100	0.181900
C1441	C144	0.328000	0.817140	0.083400
C1451	C145	0.168900	0.576300	0.103600
H971	H97	0.171300	0.567500	0.047000
C1461	C146	0.180700	0.616100	0.132200
H981	H98	0.191100	0.633600	0.095500
C1471	C147	0.177000	0.629600	0.214900
C1481	C148	0.158200	0.602200	0.262100
H991	H99	0.152400	0.610100	0.316000
C1491	C149	0.148100	0.563800	0.229200
H1001	H100	0.135900	0.545900	0.263000
C1501	C150	0.195000	0.672400	0.256800
C1511	C151	0.381500	0.581100	0.408300
H1011	H101	0.386700	0.565700	0.362000
C1521	C152	0.389600	0.621500	0.409200
H1021	H102	0.399000	0.633100	0.362800
C1531	C153	0.383700	0.644340	0.478300
C1541	C154	0.366900	0.626400	0.544200
H1031	H103	0.362900	0.641200	0.592700
C1551	C155	0.356600	0.586100	0.534800
H1041	H104	0.341900	0.574000	0.574400
C1561	C156	0.393200	0.688800	0.484200
C1571	C157	0.189000	0.590900	0.564200
H1051	H105	0.178100	0.575200	0.504100
C1581	C158	0.219200	0.627900	0.579300
H1061	H106	0.229800	0.636600	0.531400
C1591	C159	0.234100	0.652590	0.665100
C1601	C160	0.214500	0.638500	0.728400
H1071	H107	0.220700	0.654700	0.784300
C1611	C161	0.185000	0.600000	0.710800
H1081	H108	0.172500	0.590900	0.756000
C1621	C162	0.275200	0.692200	0.692400
C1631	C163	0.542100	0.600800	0.858000
H1091	H109	0.543600	0.590100	0.802000
C1641	C164	0.515500	0.638700	0.842500
H1101	H110	0.500100	0.653500	0.778100
C1651	C165	0.511800	0.654900	0.923700
C1661	C166	0.539700	0.632900	0.021000
H1111	H111	0.541200	0.643300	0.080100
C1671	C167	0.565700	0.594300	0.028200
H1121	H112	0.583800	0.579100	0.093400
C1681	C168	0.471300	0.695700	0.900100
C1691	C169	0.380900	0.589100	0.988800
H1131	H113	0.396400	0.583100	0.945200
C1701	C170	0.379100	0.628400	0.013600
H1141	H114	0.395400	0.648300	0.989900
C1711	C171	0.353700	0.637630	0.072100
C1721	C172	0.335700	0.607200	0.114400
H1151	H115	0.321700	0.612600	0.160100
C1731	C173	0.339300	0.569000	0.086600
H1161	H116	0.325500	0.548500	0.112300
C1741	C174	0.342400	0.680880	0.092100
C1751	C175	0.589600	0.438200	0.844400
H1171	H117	0.596600	0.456800	0.805900
C1761	C176	0.590000	0.396500	0.820000
H1181	H118	0.598300	0.388500	0.769100
C1771	C177	0.577900	0.370300	0.873300
C1781	C178	0.568700	0.383900	0.954000
H1191	H119	0.562200	0.366200	0.994900
C1791	C179	0.569700	0.423900	0.969600
H1201	H120	0.562600	0.432700	0.021200
C1801	C180	0.579700	0.326400	0.853100
Sm101	Sm10	0.806280	0.242670	0.232420
Sm111	Sm11	0.875610	0.254760	0.645620
Sm121	Sm12	0.862880	0.253850	0.940870
Ag161	Ag16	0.972040	0.494420	0.449210
Ag171	Ag17	0.772210	0.499070	0.136140
Ag181	Ag18	0.863940	0.000590	0.486350
Ag191	Ag19	0.656000	0.987000	0.130330
Ag201	Ag20	0.079920	0.014370	0.942050
O611	O61	0.864000	0.292060	0.382300
O621	O62	0.872500	0.307130	0.534600
O631	O63	0.773000	0.291800	0.623300
O641	O64	0.785500	0.300920	0.782500
O651	O65	0.941700	0.305600	0.794300
O661	O66	0.956400	0.295660	0.953100
O671	O67	0.855000	0.310180	0.032700
O681	O68	0.812900	0.291910	0.128800
O691	O69	0.718900	0.194650	0.217400
O701	O70	0.689500	0.181100	0.330500
O711	O71	0.891300	0.204900	0.405900
O721	O72	0.902500	0.206290	0.563200
O731	O73	0.795300	0.201310	0.633300
O741	O74	0.787500	0.212080	0.772100
O751	O75	0.958400	0.216160	0.818500
O761	O76	0.955600	0.205060	0.964500
O771	O77	0.846900	0.206410	0.037600
O781	O78	0.827100	0.186850	0.157100
O791	O79	0.080000	0.816200	0.776500
O801	O80	0.078500	0.803320	0.919900
N311	N31	0.948800	0.433480	0.458200
N321	N32	0.763900	0.438700	0.650500
N331	N33	0.977200	0.442300	0.937100
N341	N34	0.793200	0.439020	0.121600
N351	N35	0.654000	0.049800	0.154000
N361	N36	0.866400	0.063370	0.471800
N371	N37	0.674300	0.075910	0.631000
N381	N38	0.066400	0.078200	0.949400
N391	N39	0.861500	0.059710	0.024800
N401	N40	0.080100	0.951000	0.916900
C1811	C181	0.963700	0.403400	0.416300
H1211	H121	0.988800	0.408700	0.385900
C1821	C182	0.943000	0.364900	0.416600
H1221	H122	0.953800	0.344700	0.386300
C1831	C183	0.906600	0.356380	0.461700
C1841	C184	0.893300	0.386600	0.507900
H1231	H123	0.871100	0.381500	0.542700
C1851	C185	0.913300	0.425400	0.502500
H1241	H124	0.901600	0.446000	0.530500
C1861	C186	0.879300	0.314870	0.459800
C1871	C187	0.757700	0.414000	0.573600
H1251	H125	0.754300	0.424900	0.513200
C1881	C188	0.756100	0.373300	0.581500
H1261	H126	0.750500	0.357200	0.526100
C1891	C189	0.763000	0.357000	0.671600
C1901	C190	0.766500	0.382300	0.748900
H1271	H127	0.768700	0.372000	0.808700
C1911	C191	0.766700	0.423000	0.735000
H1281	H128	0.768900	0.439800	0.786400
C1921	C192	0.773800	0.313100	0.695100
C1931	C193	0.970000	0.425900	0.849800
H1291	H129	0.966100	0.442500	0.796600
C1941	C194	0.967900	0.385800	0.834300
H1301	H130	0.964500	0.375700	0.773200
C1951	C195	0.971000	0.360910	0.908700
C1961	C196	0.978800	0.377600	0.001400
H1311	H131	0.981600	0.361400	0.054500
C1971	C197	0.982300	0.418500	0.013300
H1321	H132	0.988500	0.429600	0.075600
C1981	C198	0.958100	0.316400	0.886000
C1991	C199	0.826400	0.428600	0.075100
H1331	H133	0.841300	0.448500	0.049500
C2001	C200	0.839300	0.390200	0.063300
H1341	H134	0.864800	0.384500	0.033700
C2011	C201	0.814700	0.359500	0.095200
C2021	C202	0.778800	0.370130	0.142400
H1351	H135	0.762100	0.350700	0.166600
C2031	C203	0.768700	0.409500	0.152300
H1361	H136	0.743600	0.416100	0.181900
C2041	C204	0.828000	0.317140	0.083400
C2051	C205	0.668900	0.076300	0.103600
H1371	H137	0.671300	0.067500	0.047000
C2061	C206	0.680700	0.116100	0.132200
H1381	H138	0.691100	0.133600	0.095500
C2071	C207	0.677000	0.129600	0.214900
C2081	C208	0.658200	0.102200	0.262100
H1391	H139	0.652400	0.110100	0.316000
C2091	C209	0.648100	0.063800	0.229200
H1401	H140	0.635900	0.045900	0.263000
C2101	C210	0.695000	0.172400	0.256800
C2111	C211	0.881500	0.081100	0.408300
H1411	H141	0.886700	0.065700	0.362000
C2121	C212	0.889600	0.121500	0.409200
H1421	H142	0.899000	0.133100	0.362800
C2131	C213	0.883700	0.144340	0.478300
C2141	C214	0.866900	0.126400	0.544200
H1431	H143	0.862900	0.141200	0.592700
C2151	C215	0.856600	0.086100	0.534800
H1441	H144	0.841900	0.074000	0.574400
C2161	C216	0.893200	0.188800	0.484200
C2171	C217	0.689000	0.090900	0.564200
H1451	H145	0.678100	0.075200	0.504100
C2181	C218	0.719200	0.127900	0.579300
H1461	H146	0.729800	0.136600	0.531400
C2191	C219	0.734100	0.152590	0.665100
C2201	C220	0.714500	0.138500	0.728400
H1471	H147	0.720700	0.154700	0.784300
C2211	C221	0.685000	0.100000	0.710800
H1481	H148	0.672500	0.090900	0.756000
C2221	C222	0.775200	0.192200	0.692400
C2231	C223	0.042100	0.100800	0.858000
H1491	H149	0.043600	0.090100	0.802000
C2241	C224	0.015500	0.138700	0.842500
H1501	H150	0.000100	0.153500	0.778100
C2251	C225	0.011800	0.154900	0.923700
C2261	C226	0.039700	0.132900	0.021000
H1511	H151	0.041200	0.143300	0.080100
C2271	C227	0.065700	0.094300	0.028200
H1521	H152	0.083800	0.079100	0.093400
C2281	C228	0.971300	0.195700	0.900100
C2291	C229	0.880900	0.089100	0.988800
H1531	H153	0.896400	0.083100	0.945200
C2301	C230	0.879100	0.128400	0.013600
H1541	H154	0.895400	0.148300	0.989900
C2311	C231	0.853700	0.137630	0.072100
C2321	C232	0.835700	0.107200	0.114400
H1551	H155	0.821700	0.112600	0.160100
C2331	C233	0.839300	0.069000	0.086600
H1561	H156	0.825500	0.048500	0.112300
C2341	C234	0.842400	0.180880	0.092100
C2351	C235	0.089600	0.938200	0.844400
H1571	H157	0.096600	0.956800	0.805900
C2361	C236	0.090000	0.896500	0.820000
H1581	H158	0.098300	0.888500	0.769100
C2371	C237	0.077900	0.870300	0.873300
C2381	C238	0.068700	0.883900	0.954000
H1591	H159	0.062200	0.866200	0.994900
C2391	C239	0.069700	0.923900	0.969600
H1601	H160	0.062600	0.932700	0.021200
C2401	C240	0.079700	0.826400	0.853100
