data_OPURIB01_clean_PM
_symmetry_space_group_name_H-M	'P1'
_cell_length_a	4.880000
_cell_length_b	13.110000
_cell_length_c	13.289900
_cell_angle_alpha	90.000000
_cell_angle_beta	100.579000
_cell_angle_gamma	90.000000
_symmetry_Int_Tables_number 1

loop_
_symmetry_equiv_pos_as_xyz
'x,y,z'

loop_
_atom_site_label
_atom_site_type_symbol
_atom_site_fract_x
_atom_site_fract_y
_atom_site_fract_z
Ce11	Ce1	0.977780	0.758800	0.212300
Ce21	Ce2	0.022220	0.258800	0.787700
H11	H1	0.938700	0.496300	0.660600
H21	H2	0.099500	0.794300	0.869700
H31	H3	0.692600	0.578800	0.949400
H41	H4	0.474300	0.661300	0.655100
H51	H5	0.969000	0.843400	0.691300
H61	H6	0.002800	0.753200	0.616300
H71	H7	0.405500	0.972400	0.728200
H81	H8	0.278000	0.785300	0.486400
H91	H9	0.822400	0.017800	0.497600
H101	H10	0.061300	0.996300	0.339400
H111	H11	0.900500	0.294300	0.130300
H121	H12	0.307400	0.078800	0.050600
H131	H13	0.525700	0.161300	0.344900
H141	H14	0.031000	0.343400	0.308700
H151	H15	0.997200	0.253200	0.383700
H161	H16	0.594500	0.472400	0.271800
H171	H17	0.722000	0.285300	0.513600
H181	H18	0.177600	0.517800	0.502400
C11	C1	0.235600	0.748700	0.850800
C21	C2	0.397400	0.686800	0.926300
C31	C3	0.584500	0.618500	0.899300
C41	C4	0.613500	0.608400	0.797900
C51	C5	0.458000	0.670000	0.723200
C61	C6	0.273900	0.746300	0.748900
C71	C7	0.103200	0.800700	0.665600
C81	C8	0.309900	0.869300	0.613300
C91	C9	0.444300	0.953200	0.664900
C101	C10	0.632700	0.007000	0.622200
C111	C11	0.364300	0.841900	0.520600
C121	C12	0.555200	0.901100	0.476500
C131	C13	0.692600	0.981100	0.526100
C141	C14	0.611900	0.864400	0.377400
C151	C15	0.782100	0.094800	0.683200
C161	C16	0.802000	0.535500	0.766600
C171	C17	0.380900	0.699400	0.035300
C181	C18	0.764400	0.248700	0.149200
C191	C19	0.602600	0.186800	0.073700
C201	C20	0.415500	0.118500	0.100700
C211	C21	0.386500	0.108400	0.202100
C221	C22	0.542000	0.170000	0.276800
C231	C23	0.726100	0.246300	0.251100
C241	C24	0.896800	0.300700	0.334400
C251	C25	0.690100	0.369300	0.386700
C261	C26	0.555700	0.453200	0.335100
C271	C27	0.367300	0.507000	0.377800
C281	C28	0.635700	0.341900	0.479400
C291	C29	0.444800	0.401100	0.523500
C301	C30	0.307400	0.481100	0.473900
C311	C31	0.388100	0.364400	0.622600
C321	C32	0.217900	0.594800	0.316800
C331	C33	0.198000	0.035500	0.233400
C341	C34	0.619100	0.199400	0.964700
O11	O1	0.602700	0.668700	0.108400
O21	O2	0.160900	0.753900	0.054700
O31	O3	0.847900	0.545200	0.674700
O41	O4	0.913000	0.460600	0.824000
O51	O5	0.739700	0.114800	0.770300
O61	O6	0.944400	0.148500	0.642200
O71	O7	0.443400	0.808100	0.320500
O81	O8	0.869500	0.887000	0.353300
O91	O9	0.397300	0.168700	0.891600
O101	O10	0.839100	0.253900	0.945300
O111	O11	0.152100	0.045200	0.325300
O121	O12	0.087000	0.960600	0.176000
O131	O13	0.260300	0.614800	0.229700
O141	O14	0.055600	0.648500	0.357800
O151	O15	0.556600	0.308100	0.679500
O161	O16	0.130500	0.387000	0.646700
