data_OQEROS_clean_PM
_symmetry_space_group_name_H-M	'P1'
_cell_length_a	7.295300
_cell_length_b	13.298100
_cell_length_c	30.759700
_cell_angle_alpha	88.258500
_cell_angle_beta	83.639000
_cell_angle_gamma	74.079800
_symmetry_Int_Tables_number 1

loop_
_symmetry_equiv_pos_as_xyz
'x,y,z'

loop_
_atom_site_label
_atom_site_type_symbol
_atom_site_fract_x
_atom_site_fract_y
_atom_site_fract_z
Cd11	Cd1	0.155240	0.689520	0.250000
Cd21	Cd2	0.844760	0.310480	0.750000
H11	H1	0.903200	0.198800	0.144300
H21	H2	0.212200	0.075800	0.144800
H31	H3	0.653600	0.787200	0.036400
H41	H4	0.619900	0.713600	0.966700
H51	H5	0.316600	0.842600	0.145800
H61	H6	0.528800	0.787800	0.196600
H71	H7	0.905700	0.911200	0.126700
H81	H8	0.694900	0.965200	0.075600
H91	H9	0.387700	0.219000	0.118100
H101	H10	0.219800	0.352800	0.165900
H111	H11	0.623700	0.504200	0.135400
H121	H12	0.791400	0.370600	0.087600
H131	H13	0.898000	0.198800	0.355700
H141	H14	0.712000	0.075800	0.355200
H151	H15	0.559200	0.787200	0.463600
H161	H16	0.666500	0.713600	0.533300
H171	H17	0.840800	0.842600	0.354200
H181	H18	0.683400	0.787800	0.303400
H191	H19	0.183100	0.911200	0.373300
H201	H20	0.339900	0.965200	0.424400
H211	H21	0.393300	0.219000	0.381900
H221	H22	0.427400	0.352800	0.334100
H231	H23	0.872100	0.504200	0.364600
H241	H24	0.838000	0.370600	0.412400
H251	H25	0.096800	0.801200	0.855700
H261	H26	0.787800	0.924200	0.855200
H271	H27	0.346400	0.212800	0.963600
H281	H28	0.380100	0.286400	0.033300
H291	H29	0.683400	0.157400	0.854200
H301	H30	0.471200	0.212200	0.803400
H311	H31	0.094300	0.088800	0.873300
H321	H32	0.305100	0.034800	0.924400
H331	H33	0.612300	0.781000	0.881900
H341	H34	0.780200	0.647200	0.834100
H351	H35	0.376300	0.495800	0.864600
H361	H36	0.208600	0.629400	0.912400
H371	H37	0.102000	0.801200	0.644300
H381	H38	0.288000	0.924200	0.644800
H391	H39	0.440800	0.212800	0.536400
H401	H40	0.333500	0.286400	0.466700
H411	H41	0.159200	0.157400	0.645800
H421	H42	0.316600	0.212200	0.696600
H431	H43	0.816900	0.088800	0.626700
H441	H44	0.660100	0.034800	0.575600
H451	H45	0.606700	0.781000	0.618100
H461	H46	0.572600	0.647200	0.665900
H471	H47	0.127900	0.495800	0.635400
H481	H48	0.162000	0.629400	0.587600
Pd11	Pd1	0.000000	0.000000	0.000000
Pd21	Pd2	0.000000	0.000000	0.500000
C11	C1	0.894400	0.138400	0.081600
C21	C2	0.965300	0.151200	0.122300
C31	C3	0.133700	0.083400	0.122400
C41	C4	0.179300	0.022800	0.083200
C51	C5	0.343600	0.945000	0.071300
C61	C6	0.384400	0.889400	0.032000
C71	C7	0.549000	0.809400	0.020300
C81	C8	0.532000	0.769000	0.981800
C91	C9	0.354700	0.827400	0.969100
C101	C10	0.720700	0.193400	0.069500
C111	C11	0.482300	0.910600	0.105000
C121	C12	0.435500	0.856400	0.141700
C131	C13	0.563200	0.823200	0.171900
C141	C14	0.742300	0.840800	0.166400
C151	C15	0.787700	0.896200	0.130500
C161	C16	0.660500	0.929200	0.100200
C171	C17	0.887200	0.795000	0.198700
C181	C18	0.606200	0.281600	0.098100
C191	C19	0.435000	0.276200	0.121600
C201	C20	0.334400	0.356400	0.150200
C211	C21	0.405100	0.441800	0.155400
C221	C22	0.576500	0.447000	0.131900
C231	C23	0.676900	0.367000	0.103300
C241	C24	0.308300	0.527400	0.188800
C251	C25	0.967200	0.138400	0.418400
C261	C26	0.883500	0.151200	0.377700
C271	C27	0.782900	0.083400	0.377600
C281	C28	0.797900	0.022800	0.416800
C291	C29	0.711400	0.945000	0.428700
C301	C30	0.726200	0.889400	0.468000
C311	C31	0.641600	0.809400	0.479700
C321	C32	0.699000	0.769000	0.518200
C331	C33	0.817900	0.827400	0.530900
C341	C34	0.085900	0.193400	0.430500
C351	C35	0.607100	0.910600	0.395000
C361	C36	0.708100	0.856400	0.358300
C371	C37	0.613600	0.823200	0.328100
C381	C38	0.416900	0.840800	0.333600
C391	C39	0.316100	0.896200	0.369500
C401	C40	0.410300	0.929200	0.399800
C411	C41	0.317800	0.795000	0.301300
C421	C42	0.112200	0.281600	0.401900
C431	C43	0.288800	0.276200	0.378400
C441	C44	0.309200	0.356400	0.349800
C451	C45	0.153100	0.441800	0.344600
C461	C46	0.976500	0.447000	0.368100
C471	C47	0.956100	0.367000	0.396700
C481	C48	0.164300	0.527400	0.311200
C491	C49	0.105600	0.861600	0.918400
C501	C50	0.034700	0.848800	0.877700
C511	C51	0.866300	0.916600	0.877600
C521	C52	0.820700	0.977200	0.916800
C531	C53	0.656400	0.055000	0.928700
C541	C54	0.615600	0.110600	0.968000
C551	C55	0.451000	0.190600	0.979700
C561	C56	0.468000	0.231000	0.018200
C571	C57	0.645300	0.172600	0.030900
C581	C58	0.279300	0.806600	0.930500
C591	C59	0.517700	0.089400	0.895000
C601	C60	0.564500	0.143600	0.858300
C611	C61	0.436800	0.176800	0.828100
C621	C62	0.257700	0.159200	0.833600
C631	C63	0.212300	0.103800	0.869500
C641	C64	0.339500	0.070800	0.899800
C651	C65	0.112800	0.205000	0.801300
C661	C66	0.393800	0.718400	0.901900
C671	C67	0.565000	0.723800	0.878400
C681	C68	0.665600	0.643600	0.849800
C691	C69	0.594900	0.558200	0.844600
C701	C70	0.423500	0.553000	0.868100
C711	C71	0.323100	0.633000	0.896700
C721	C72	0.691700	0.472600	0.811200
C731	C73	0.032800	0.861600	0.581600
C741	C74	0.116500	0.848800	0.622300
C751	C75	0.217100	0.916600	0.622400
C761	C76	0.202100	0.977200	0.583200
C771	C77	0.288600	0.055000	0.571300
C781	C78	0.273800	0.110600	0.532000
C791	C79	0.358400	0.190600	0.520300
C801	C80	0.301000	0.231000	0.481800
C811	C81	0.182100	0.172600	0.469100
C821	C82	0.914100	0.806600	0.569500
C831	C83	0.392900	0.089400	0.605000
C841	C84	0.291900	0.143600	0.641700
C851	C85	0.386400	0.176800	0.671900
C861	C86	0.583100	0.159200	0.666400
C871	C87	0.683900	0.103800	0.630500
C881	C88	0.589700	0.070800	0.600200
C891	C89	0.682200	0.205000	0.698700
C901	C90	0.887800	0.718400	0.598100
C911	C91	0.711200	0.723800	0.621600
C921	C92	0.690800	0.643600	0.650200
C931	C93	0.846900	0.558200	0.655400
C941	C94	0.023500	0.553000	0.631900
C951	C95	0.043900	0.633000	0.603300
C961	C96	0.835700	0.472600	0.688800
N11	N1	0.025800	0.059000	0.058500
N21	N2	0.263100	0.900400	0.999700
N31	N3	0.915200	0.059000	0.441500
N41	N4	0.836500	0.900400	0.500300
N51	N5	0.974200	0.941000	0.941500
N61	N6	0.736900	0.099600	0.000300
N71	N7	0.084800	0.941000	0.558500
N81	N8	0.163500	0.099600	0.499700
O11	O1	0.846300	0.737200	0.228080
O21	O2	0.043400	0.816200	0.194300
O31	O3	0.149000	0.528000	0.202200
O41	O4	0.399700	0.594600	0.196100
O51	O5	0.416500	0.737200	0.271920
O61	O6	0.140400	0.816200	0.305700
O71	O7	0.323000	0.528000	0.297800
O81	O8	0.005700	0.594600	0.303900
O91	O9	0.153700	0.262800	0.771920
O101	O10	0.956600	0.183800	0.805700
O111	O11	0.851000	0.472000	0.797800
O121	O12	0.600300	0.405400	0.803900
O131	O13	0.583500	0.262800	0.728080
O141	O14	0.859600	0.183800	0.694300
O151	O15	0.677000	0.472000	0.702200
O161	O16	0.994300	0.405400	0.696100
