data_OQIQIQ_clean_PM
_symmetry_space_group_name_H-M	'P1'
_cell_length_a	17.409500
_cell_length_b	10.119800
_cell_length_c	17.547000
_cell_angle_alpha	90.000000
_cell_angle_beta	90.000000
_cell_angle_gamma	90.000000
_symmetry_Int_Tables_number 1

loop_
_symmetry_equiv_pos_as_xyz
'x,y,z'

loop_
_atom_site_label
_atom_site_type_symbol
_atom_site_fract_x
_atom_site_fract_y
_atom_site_fract_z
Er11	Er1	0.821470	0.879870	0.272630
Er21	Er2	0.520920	0.841130	0.258390
O11	O1	0.921000	0.895100	0.195500
O21	O2	0.085500	0.072300	0.862800
O31	O3	0.747800	0.949000	0.168700
O41	O4	0.697600	0.220100	0.868400
O51	O5	0.715900	0.937200	0.332500
C11	C1	0.679600	0.932200	0.152000
O61	O6	0.629800	0.879700	0.195600
O71	O7	0.592900	0.911900	0.364600
C21	C2	0.661000	0.938300	0.377900
C31	C3	0.680000	0.994300	0.454600
C41	C4	0.748700	0.039100	0.480100
H11	H1	0.793700	0.034700	0.451500
C51	C5	0.651400	0.974600	0.076200
S11	S1	0.702510	0.078900	0.018990
O81	O8	0.574100	0.115500	0.670300
C61	C6	0.638900	0.154300	0.878900
O91	O9	0.691600	0.190700	0.701400
O101	O10	0.583700	0.147200	0.833400
C71	C7	0.644700	0.133400	0.657700
S21	S2	0.609970	0.015700	0.521580
S31	S3	0.040560	0.962300	0.010850
O111	O11	0.036400	0.823900	0.163000
C81	C8	0.584600	0.934300	0.041600
H21	H2	0.550000	0.875400	0.063400
C91	C9	0.967200	0.954700	0.076000
C101	C10	0.574600	0.992700	0.969200
H31	H3	0.532400	0.977100	0.938100
C111	C11	0.632900	0.073300	0.950400
C121	C12	0.977500	0.888900	0.149600
C131	C13	0.903500	0.017000	0.050300
H41	H4	0.858100	0.023300	0.078000
C141	C14	0.673800	0.088300	0.583300
C151	C15	0.745500	0.092400	0.553500
H51	H5	0.787800	0.126800	0.579000
O121	O12	0.970600	0.153200	0.829500
C161	C16	0.983800	0.050300	0.948800
C171	C17	0.913300	0.071200	0.977100
H61	H6	0.874900	0.116600	0.951100
C181	C18	0.016700	0.095200	0.874700
Er31	Er3	0.178530	0.120130	0.772630
Er41	Er4	0.479080	0.158870	0.758390
O131	O13	0.079000	0.104900	0.695500
O141	O14	0.914500	0.927700	0.362800
O151	O15	0.252200	0.051000	0.668700
O161	O16	0.302400	0.779900	0.368400
O171	O17	0.284100	0.062800	0.832500
C191	C19	0.320400	0.067800	0.652000
O181	O18	0.370200	0.120300	0.695600
O191	O19	0.407100	0.088100	0.864600
C201	C20	0.339000	0.061700	0.877900
C211	C21	0.320000	0.005700	0.954600
C221	C22	0.251300	0.960900	0.980100
H71	H7	0.206300	0.965300	0.951500
C231	C23	0.348600	0.025400	0.576200
S41	S4	0.297490	0.921100	0.518990
O201	O20	0.425900	0.884500	0.170300
C241	C24	0.361100	0.845700	0.378900
O211	O21	0.308400	0.809300	0.201400
O221	O22	0.416300	0.852800	0.333400
C251	C25	0.355300	0.866600	0.157700
S51	S5	0.390030	0.984300	0.021580
S61	S6	0.959440	0.037700	0.510850
O231	O23	0.963600	0.176100	0.663000
C261	C26	0.415400	0.065700	0.541600
H81	H8	0.450000	0.124600	0.563400
C271	C27	0.032800	0.045300	0.576000
C281	C28	0.425400	0.007300	0.469200
H91	H9	0.467600	0.022900	0.438100
C291	C29	0.367100	0.926700	0.450400
C301	C30	0.022500	0.111100	0.649600
C311	C31	0.096500	0.983000	0.550300
H101	H10	0.141900	0.976700	0.578000
C321	C32	0.326200	0.911700	0.083300
C331	C33	0.254500	0.907600	0.053500
H111	H11	0.212200	0.873200	0.079000
O241	O24	0.029400	0.846800	0.329500
C341	C34	0.016200	0.949700	0.448800
C351	C35	0.086700	0.928800	0.477100
H121	H12	0.125100	0.883400	0.451100
C361	C36	0.983300	0.904800	0.374700
Er51	Er5	0.321470	0.620130	0.272630
Er61	Er6	0.020920	0.658870	0.258390
O251	O25	0.421000	0.604900	0.195500
O261	O26	0.585500	0.427700	0.862800
O271	O27	0.247800	0.551000	0.168700
O281	O28	0.197600	0.279900	0.868400
O291	O29	0.215900	0.562800	0.332500
C371	C37	0.179600	0.567800	0.152000
O301	O30	0.129800	0.620300	0.195600
O311	O31	0.092900	0.588100	0.364600
C381	C38	0.161000	0.561700	0.377900
C391	C39	0.180000	0.505700	0.454600
C401	C40	0.248700	0.460900	0.480100
H131	H13	0.293700	0.465300	0.451500
C411	C41	0.151400	0.525400	0.076200
S71	S7	0.202510	0.421100	0.018990
O321	O32	0.074100	0.384500	0.670300
C421	C42	0.138900	0.345700	0.878900
O331	O33	0.191600	0.309300	0.701400
O341	O34	0.083700	0.352800	0.833400
C431	C43	0.144700	0.366600	0.657700
S81	S8	0.109970	0.484300	0.521580
S91	S9	0.540560	0.537700	0.010850
O351	O35	0.536400	0.676100	0.163000
C441	C44	0.084600	0.565700	0.041600
H141	H14	0.050000	0.624600	0.063400
C451	C45	0.467200	0.545300	0.076000
C461	C46	0.074600	0.507300	0.969200
H151	H15	0.032400	0.522900	0.938100
C471	C47	0.132900	0.426700	0.950400
C481	C48	0.477500	0.611100	0.149600
C491	C49	0.403500	0.483000	0.050300
H161	H16	0.358100	0.476700	0.078000
C501	C50	0.173800	0.411700	0.583300
C511	C51	0.245500	0.407600	0.553500
H171	H17	0.287800	0.373200	0.579000
O361	O36	0.470600	0.346800	0.829500
C521	C52	0.483800	0.449700	0.948800
C531	C53	0.413300	0.428800	0.977100
H181	H18	0.374900	0.383400	0.951100
C541	C54	0.516700	0.404800	0.874700
Er71	Er7	0.678540	0.379870	0.772630
Er81	Er8	0.979080	0.341130	0.758390
O371	O37	0.579000	0.395100	0.695500
O381	O38	0.414500	0.572300	0.362800
O391	O39	0.752200	0.449000	0.668700
O401	O40	0.802400	0.720100	0.368400
O411	O41	0.784100	0.437200	0.832500
C551	C55	0.820400	0.432200	0.652000
O421	O42	0.870200	0.379700	0.695600
O431	O43	0.907100	0.411900	0.864600
C561	C56	0.839000	0.438300	0.877900
C571	C57	0.820000	0.494300	0.954600
C581	C58	0.751300	0.539100	0.980100
H191	H19	0.706300	0.534700	0.951500
C591	C59	0.848600	0.474600	0.576200
S101	S10	0.797490	0.578900	0.518990
O441	O44	0.925900	0.615500	0.170300
C601	C60	0.861100	0.654300	0.378900
O451	O45	0.808400	0.690700	0.201400
O461	O46	0.916300	0.647200	0.333400
C611	C61	0.855300	0.633400	0.157700
S111	S11	0.890030	0.515700	0.021580
S121	S12	0.459440	0.462300	0.510850
O471	O47	0.463600	0.323900	0.663000
C621	C62	0.915400	0.434300	0.541600
H201	H20	0.950000	0.375400	0.563400
C631	C63	0.532800	0.454700	0.576000
C641	C64	0.925400	0.492700	0.469200
H211	H21	0.967600	0.477100	0.438100
C651	C65	0.867100	0.573300	0.450400
C661	C66	0.522500	0.388900	0.649600
C671	C67	0.596500	0.517000	0.550300
H221	H22	0.641900	0.523300	0.578000
C681	C68	0.826200	0.588300	0.083300
C691	C69	0.754500	0.592400	0.053500
H231	H23	0.712200	0.626800	0.079000
O481	O48	0.529400	0.653200	0.329500
C701	C70	0.516200	0.550300	0.448800
C711	C71	0.586700	0.571200	0.477100
H241	H24	0.625100	0.616600	0.451100
C721	C72	0.483300	0.595200	0.374700
