data_OQIQEM_clean_PM
_symmetry_space_group_name_H-M	'P1'
_cell_length_a	17.261900
_cell_length_b	10.039100
_cell_length_c	17.599600
_cell_angle_alpha	90.000000
_cell_angle_beta	90.000000
_cell_angle_gamma	90.000000
_symmetry_Int_Tables_number 1

loop_
_symmetry_equiv_pos_as_xyz
'x,y,z'

loop_
_atom_site_label
_atom_site_type_symbol
_atom_site_fract_x
_atom_site_fract_y
_atom_site_fract_z
Tm11	Tm1	0.821670	0.887210	0.273280
Tm21	Tm2	0.521520	0.840500	0.257980
O11	O1	0.920800	0.897100	0.195100
O21	O2	0.082900	0.068700	0.860500
O31	O3	0.749100	0.962300	0.169400
O41	O4	0.696200	0.230300	0.869000
O51	O5	0.715600	0.948000	0.331400
C11	C1	0.679700	0.939000	0.152900
O61	O6	0.631700	0.880300	0.196200
O71	O7	0.592100	0.916300	0.363500
C21	C2	0.661400	0.950600	0.377600
C31	C3	0.679900	0.004900	0.453800
C41	C4	0.750200	0.052500	0.477800
H11	H1	0.794800	0.050400	0.448300
C51	C5	0.650200	0.980200	0.077200
S11	S1	0.700670	0.092400	0.021620
O81	O8	0.575600	0.118600	0.672300
C61	C6	0.637900	0.158900	0.879800
O91	O9	0.694300	0.195800	0.703100
O101	O10	0.582100	0.150400	0.833500
C71	C7	0.646700	0.139000	0.659100
S21	S2	0.610140	0.020500	0.522890
S31	S3	0.038280	0.958900	0.007870
O111	O11	0.036000	0.819900	0.160600
C81	C8	0.584200	0.936600	0.042600
H21	H2	0.550100	0.875300	0.063900
C91	C9	0.965300	0.952300	0.073800
C101	C10	0.574000	0.996100	0.970300
H31	H3	0.531700	0.978500	0.939200
C111	C11	0.631400	0.080900	0.950800
C121	C12	0.976000	0.885000	0.147300
C131	C13	0.898700	0.013600	0.049000
H41	H4	0.853200	0.019000	0.077100
C141	C14	0.675100	0.094700	0.583200
C151	C15	0.747600	0.105600	0.552900
H51	H5	0.789800	0.142800	0.578000
O121	O12	0.966700	0.151900	0.827200
C161	C16	0.980000	0.046100	0.945600
C171	C17	0.908400	0.068000	0.974900
H61	H6	0.869600	0.113800	0.949100
C181	C18	0.012900	0.091700	0.871900
Tm31	Tm3	0.178330	0.112790	0.773280
Tm41	Tm4	0.478480	0.159500	0.757980
O131	O13	0.079200	0.102900	0.695100
O141	O14	0.917100	0.931300	0.360500
O151	O15	0.250900	0.037700	0.669400
O161	O16	0.303800	0.769700	0.369000
O171	O17	0.284400	0.052000	0.831400
C191	C19	0.320300	0.061000	0.652900
O181	O18	0.368300	0.119700	0.696200
O191	O19	0.407900	0.083700	0.863500
C201	C20	0.338600	0.049400	0.877600
C211	C21	0.320100	0.995100	0.953800
C221	C22	0.249800	0.947500	0.977800
H71	H7	0.205200	0.949600	0.948300
C231	C23	0.349800	0.019800	0.577200
S41	S4	0.299330	0.907600	0.521620
O201	O20	0.424400	0.881400	0.172300
C241	C24	0.362100	0.841100	0.379800
O211	O21	0.305700	0.804200	0.203100
O221	O22	0.417900	0.849600	0.333500
C251	C25	0.353300	0.861000	0.159100
S51	S5	0.389860	0.979500	0.022890
S61	S6	0.961720	0.041100	0.507870
O231	O23	0.964000	0.180100	0.660600
C261	C26	0.415800	0.063400	0.542600
H81	H8	0.449900	0.124700	0.563900
C271	C27	0.034700	0.047700	0.573800
C281	C28	0.426000	0.003900	0.470300
H91	H9	0.468300	0.021500	0.439200
C291	C29	0.368600	0.919100	0.450800
C301	C30	0.024000	0.115000	0.647300
C311	C31	0.101300	0.986400	0.549000
H101	H10	0.146800	0.981000	0.577100
C321	C32	0.324900	0.905300	0.083200
C331	C33	0.252400	0.894400	0.052900
H111	H11	0.210200	0.857200	0.078000
O241	O24	0.033300	0.848100	0.327200
C341	C34	0.020000	0.953900	0.445600
C351	C35	0.091600	0.932000	0.474900
H121	H12	0.130400	0.886200	0.449100
C361	C36	0.987100	0.908300	0.371900
Tm51	Tm5	0.321670	0.612790	0.273280
Tm61	Tm6	0.021520	0.659500	0.257980
O251	O25	0.420800	0.602900	0.195100
O261	O26	0.582900	0.431300	0.860500
O271	O27	0.249100	0.537700	0.169400
O281	O28	0.196200	0.269700	0.869000
O291	O29	0.215600	0.552000	0.331400
C371	C37	0.179700	0.561000	0.152900
O301	O30	0.131700	0.619700	0.196200
O311	O31	0.092100	0.583700	0.363500
C381	C38	0.161400	0.549400	0.377600
C391	C39	0.179900	0.495100	0.453800
C401	C40	0.250200	0.447500	0.477800
H131	H13	0.294800	0.449600	0.448300
C411	C41	0.150200	0.519800	0.077200
S71	S7	0.200670	0.407600	0.021620
O321	O32	0.075600	0.381400	0.672300
C421	C42	0.137900	0.341100	0.879800
O331	O33	0.194300	0.304200	0.703100
O341	O34	0.082100	0.349600	0.833500
C431	C43	0.146700	0.361000	0.659100
S81	S8	0.110140	0.479500	0.522890
S91	S9	0.538280	0.541100	0.007870
O351	O35	0.536000	0.680100	0.160600
C441	C44	0.084200	0.563400	0.042600
H141	H14	0.050100	0.624700	0.063900
C451	C45	0.465300	0.547700	0.073800
C461	C46	0.074000	0.503900	0.970300
H151	H15	0.031700	0.521500	0.939200
C471	C47	0.131400	0.419100	0.950800
C481	C48	0.476000	0.615000	0.147300
C491	C49	0.398700	0.486400	0.049000
H161	H16	0.353200	0.481000	0.077100
C501	C50	0.175100	0.405300	0.583200
C511	C51	0.247600	0.394400	0.552900
H171	H17	0.289800	0.357200	0.578000
O361	O36	0.466700	0.348100	0.827200
C521	C52	0.480000	0.453900	0.945600
C531	C53	0.408400	0.432000	0.974900
H181	H18	0.369600	0.386200	0.949100
C541	C54	0.512900	0.408300	0.871900
Tm71	Tm7	0.678330	0.387210	0.773280
Tm81	Tm8	0.978480	0.340500	0.757980
O371	O37	0.579200	0.397100	0.695100
O381	O38	0.417100	0.568700	0.360500
O391	O39	0.750900	0.462300	0.669400
O401	O40	0.803800	0.730300	0.369000
O411	O41	0.784400	0.448000	0.831400
C551	C55	0.820300	0.439000	0.652900
O421	O42	0.868300	0.380300	0.696200
O431	O43	0.907900	0.416300	0.863500
C561	C56	0.838600	0.450600	0.877600
C571	C57	0.820100	0.504900	0.953800
C581	C58	0.749800	0.552500	0.977800
H191	H19	0.705200	0.550400	0.948300
C591	C59	0.849800	0.480200	0.577200
S101	S10	0.799330	0.592400	0.521620
O441	O44	0.924400	0.618600	0.172300
C601	C60	0.862100	0.658900	0.379800
O451	O45	0.805700	0.695800	0.203100
O461	O46	0.917900	0.650400	0.333500
C611	C61	0.853300	0.639000	0.159100
S111	S11	0.889860	0.520500	0.022890
S121	S12	0.461720	0.458900	0.507870
O471	O47	0.464000	0.319900	0.660600
C621	C62	0.915800	0.436600	0.542600
H201	H20	0.949900	0.375300	0.563900
C631	C63	0.534700	0.452300	0.573800
C641	C64	0.926000	0.496100	0.470300
H211	H21	0.968300	0.478500	0.439200
C651	C65	0.868600	0.580900	0.450800
C661	C66	0.524000	0.385000	0.647300
C671	C67	0.601300	0.513600	0.549000
H221	H22	0.646800	0.519000	0.577100
C681	C68	0.824900	0.594700	0.083200
C691	C69	0.752400	0.605600	0.052900
H231	H23	0.710200	0.642800	0.078000
O481	O48	0.533300	0.651900	0.327200
C701	C70	0.520000	0.546100	0.445600
C711	C71	0.591600	0.568000	0.474900
H241	H24	0.630400	0.613800	0.449100
C721	C72	0.487100	0.591700	0.371900
