data_OQIQOW_clean_PM
_symmetry_space_group_name_H-M	'P1'
_cell_length_a	17.439300
_cell_length_b	10.148300
_cell_length_c	17.577100
_cell_angle_alpha	90.000000
_cell_angle_beta	90.000000
_cell_angle_gamma	90.000000
_symmetry_Int_Tables_number 1

loop_
_symmetry_equiv_pos_as_xyz
'x,y,z'

loop_
_atom_site_label
_atom_site_type_symbol
_atom_site_fract_x
_atom_site_fract_y
_atom_site_fract_z
Y11	Y1	0.821570	0.880700	0.272470
Y21	Y2	0.521100	0.841120	0.258590
O11	O1	0.921700	0.895200	0.195300
O21	O2	0.085500	0.071300	0.863300
O31	O3	0.747600	0.950300	0.168400
O41	O4	0.697900	0.220400	0.868100
O51	O5	0.715600	0.936800	0.332700
C11	C1	0.679100	0.932900	0.151000
O61	O6	0.630100	0.880400	0.194500
O71	O7	0.593400	0.910700	0.364800
C21	C2	0.661600	0.941000	0.378200
C31	C3	0.679900	0.995700	0.454600
C41	C4	0.747900	0.040100	0.481000
H11	H1	0.792900	0.034400	0.452800
C51	C5	0.651500	0.974500	0.075800
S11	S1	0.702260	0.078610	0.018650
O81	O8	0.574200	0.116300	0.670300
C61	C6	0.639300	0.152400	0.878800
O91	O9	0.691200	0.190500	0.701400
O101	O10	0.583200	0.147400	0.833700
C71	C7	0.644400	0.136100	0.656800
S21	S2	0.610290	0.015970	0.521500
S31	S3	0.040620	0.962040	0.011070
O111	O11	0.036100	0.823900	0.162700
C81	C8	0.583800	0.936400	0.041600
H21	H2	0.548600	0.879200	0.063700
C91	C9	0.967600	0.955200	0.075600
C101	C10	0.574300	0.993800	0.969900
H31	H3	0.532000	0.978200	0.938900
C111	C11	0.632900	0.074200	0.950100
C121	C12	0.977100	0.887000	0.149200
C131	C13	0.903400	0.017800	0.050200
H41	H4	0.858200	0.024500	0.077900
C141	C14	0.673100	0.088400	0.582700
C151	C15	0.745700	0.094900	0.553700
H51	H5	0.787700	0.130800	0.578900
O121	O12	0.970000	0.151900	0.829700
C161	C16	0.983900	0.050000	0.948700
C171	C17	0.913700	0.070500	0.977900
H61	H6	0.875400	0.115800	0.952000
C181	C18	0.015900	0.093800	0.874300
Y31	Y3	0.178430	0.119300	0.772470
Y41	Y4	0.478900	0.158880	0.758590
O131	O13	0.078300	0.104800	0.695300
O141	O14	0.914500	0.928700	0.363300
O151	O15	0.252400	0.049700	0.668400
O161	O16	0.302100	0.779600	0.368100
O171	O17	0.284400	0.063200	0.832700
C191	C19	0.320900	0.067100	0.651000
O181	O18	0.369900	0.119600	0.694500
O191	O19	0.406600	0.089300	0.864800
C201	C20	0.338400	0.059000	0.878200
C211	C21	0.320100	0.004300	0.954600
C221	C22	0.252100	0.959900	0.981000
H71	H7	0.207100	0.965600	0.952800
C231	C23	0.348500	0.025500	0.575800
S41	S4	0.297740	0.921390	0.518650
O201	O20	0.425800	0.883700	0.170300
C241	C24	0.360700	0.847600	0.378800
O211	O21	0.308800	0.809500	0.201400
O221	O22	0.416800	0.852600	0.333700
C251	C25	0.355600	0.863900	0.156800
S51	S5	0.389710	0.984030	0.021500
S61	S6	0.959380	0.037960	0.511070
O231	O23	0.963900	0.176100	0.662700
C261	C26	0.416200	0.063600	0.541600
H81	H8	0.451400	0.120800	0.563700
C271	C27	0.032400	0.044800	0.575600
C281	C28	0.425700	0.006200	0.469900
H91	H9	0.468000	0.021800	0.438900
C291	C29	0.367100	0.925800	0.450100
C301	C30	0.022900	0.113000	0.649200
C311	C31	0.096600	0.982200	0.550200
H101	H10	0.141800	0.975500	0.577900
C321	C32	0.326900	0.911600	0.082700
C331	C33	0.254300	0.905100	0.053700
H111	H11	0.212300	0.869200	0.078900
O241	O24	0.030000	0.848100	0.329700
C341	C34	0.016100	0.950000	0.448700
C351	C35	0.086300	0.929500	0.477900
H121	H12	0.124600	0.884200	0.452000
C361	C36	0.984100	0.906200	0.374300
Y51	Y5	0.321570	0.619300	0.272470
Y61	Y6	0.021100	0.658880	0.258590
O251	O25	0.421700	0.604800	0.195300
O261	O26	0.585500	0.428700	0.863300
O271	O27	0.247600	0.549700	0.168400
O281	O28	0.197900	0.279600	0.868100
O291	O29	0.215600	0.563200	0.332700
C371	C37	0.179100	0.567100	0.151000
O301	O30	0.130100	0.619600	0.194500
O311	O31	0.093400	0.589300	0.364800
C381	C38	0.161600	0.559000	0.378200
C391	C39	0.179900	0.504300	0.454600
C401	C40	0.247900	0.459900	0.481000
H131	H13	0.292900	0.465600	0.452800
C411	C41	0.151500	0.525500	0.075800
S71	S7	0.202260	0.421390	0.018650
O321	O32	0.074200	0.383700	0.670300
C421	C42	0.139300	0.347600	0.878800
O331	O33	0.191200	0.309500	0.701400
O341	O34	0.083200	0.352600	0.833700
C431	C43	0.144400	0.363900	0.656800
S81	S8	0.110290	0.484030	0.521500
S91	S9	0.540620	0.537960	0.011070
O351	O35	0.536100	0.676100	0.162700
C441	C44	0.083800	0.563600	0.041600
H141	H14	0.048600	0.620800	0.063700
C451	C45	0.467600	0.544800	0.075600
C461	C46	0.074300	0.506200	0.969900
H151	H15	0.032000	0.521800	0.938900
C471	C47	0.132900	0.425800	0.950100
C481	C48	0.477100	0.613000	0.149200
C491	C49	0.403400	0.482200	0.050200
H161	H16	0.358200	0.475500	0.077900
C501	C50	0.173100	0.411600	0.582700
C511	C51	0.245700	0.405100	0.553700
H171	H17	0.287700	0.369200	0.578900
O361	O36	0.470000	0.348100	0.829700
C521	C52	0.483900	0.450000	0.948700
C531	C53	0.413700	0.429500	0.977900
H181	H18	0.375400	0.384200	0.952000
C541	C54	0.515900	0.406200	0.874300
Y71	Y7	0.678430	0.380700	0.772470
Y81	Y8	0.978900	0.341120	0.758590
O371	O37	0.578300	0.395200	0.695300
O381	O38	0.414500	0.571300	0.363300
O391	O39	0.752400	0.450300	0.668400
O401	O40	0.802100	0.720400	0.368100
O411	O41	0.784400	0.436800	0.832700
C551	C55	0.820900	0.432900	0.651000
O421	O42	0.869900	0.380400	0.694500
O431	O43	0.906600	0.410700	0.864800
C561	C56	0.838400	0.441000	0.878200
C571	C57	0.820100	0.495700	0.954600
C581	C58	0.752100	0.540100	0.981000
H191	H19	0.707100	0.534400	0.952800
C591	C59	0.848500	0.474500	0.575800
S101	S10	0.797740	0.578610	0.518650
O441	O44	0.925800	0.616300	0.170300
C601	C60	0.860700	0.652400	0.378800
O451	O45	0.808800	0.690500	0.201400
O461	O46	0.916800	0.647400	0.333700
C611	C61	0.855600	0.636100	0.156800
S111	S11	0.889710	0.515970	0.021500
S121	S12	0.459380	0.462040	0.511070
O471	O47	0.463900	0.323900	0.662700
C621	C62	0.916200	0.436400	0.541600
H201	H20	0.951400	0.379200	0.563700
C631	C63	0.532400	0.455200	0.575600
C641	C64	0.925700	0.493800	0.469900
H211	H21	0.968000	0.478200	0.438900
C651	C65	0.867100	0.574200	0.450100
C661	C66	0.522900	0.387000	0.649200
C671	C67	0.596600	0.517800	0.550200
H221	H22	0.641800	0.524500	0.577900
C681	C68	0.826900	0.588400	0.082700
C691	C69	0.754300	0.594900	0.053700
H231	H23	0.712300	0.630800	0.078900
O481	O48	0.530000	0.651900	0.329700
C701	C70	0.516100	0.550000	0.448700
C711	C71	0.586300	0.570500	0.477900
H241	H24	0.624600	0.615800	0.452000
C721	C72	0.484100	0.593800	0.374300
