data_OQIQUB_charged_PM
_symmetry_space_group_name_H-M	'P1'
_cell_length_a	19.303300
_cell_length_b	19.303300
_cell_length_c	19.303300
_cell_angle_alpha	63.127500
_cell_angle_beta	74.097800
_cell_angle_gamma	105.902000
_symmetry_Int_Tables_number 1

loop_
_symmetry_equiv_pos_as_xyz
'x,y,z'

loop_
_atom_site_label
_atom_site_type_symbol
_atom_site_fract_x
_atom_site_fract_y
_atom_site_fract_z
Cu11	Cu1	0.000000	0.162050	0.837950
Cu21	Cu2	0.000000	0.837950	0.162050
Cu31	Cu3	0.779050	0.520560	0.741510
Cu41	Cu4	0.220950	0.479440	0.258490
Cu51	Cu5	0.737930	0.258490	0.520560
Cu61	Cu6	0.262070	0.741510	0.479440
H11	H1	0.022000	0.902700	0.515100
H21	H2	0.964100	0.911600	0.471700
H31	H3	0.842200	0.720100	0.682100
H41	H4	0.908000	0.971200	0.884000
H51	H5	0.858100	0.888700	0.487800
H61	H6	0.768400	0.854000	0.553800
H71	H7	0.824200	0.954900	0.483300
H81	H8	0.952300	0.876200	0.788500
H91	H9	0.866700	0.864600	0.839300
H101	H10	0.670100	0.051900	0.633600
H111	H11	0.051800	0.900000	0.606200
H121	H12	0.027900	0.895200	0.693300
H131	H13	0.989000	0.810600	0.696200
H141	H14	0.073000	0.179800	0.655000
H151	H15	0.927800	0.636100	0.550500
H161	H16	0.781600	0.994700	0.737100
H171	H17	0.727800	0.893400	0.806800
H181	H18	0.807900	0.942900	0.805600
H191	H19	0.885500	0.224700	0.452400
H201	H20	0.717800	0.916400	0.608800
H211	H21	0.695900	0.911600	0.695900
H221	H22	0.978000	0.462900	0.119300
H231	H23	0.035900	0.564200	0.052500
H241	H24	0.157800	0.475700	0.122100
H251	H25	0.092000	0.208000	0.936800
H261	H26	0.141900	0.654100	0.969400
H271	H27	0.231600	0.677800	0.914400
H281	H28	0.175800	0.692500	0.869300
H291	H29	0.047700	0.259200	0.076100
H301	H30	0.133300	0.294000	0.002100
H311	H31	0.329900	0.696300	0.618200
H321	H32	0.948200	0.342000	0.151800
H331	H33	0.972100	0.278800	0.132700
H341	H34	0.011000	0.314800	0.178400
H351	H35	0.927000	0.272000	0.893200
H361	H36	0.072200	0.521700	0.291700
H371	H37	0.218400	0.481300	0.786900
H381	H38	0.272200	0.465400	0.834400
H391	H39	0.192100	0.386500	0.865000
H401	H40	0.114500	0.662100	0.660800
H411	H41	0.282200	0.673400	0.801400
H421	H42	0.304100	0.608200	0.784300
H431	H43	0.582200	0.484900	0.537100
H441	H44	0.616700	0.528300	0.435800
H451	H45	0.597800	0.317900	0.524300
H461	H46	0.144800	0.116000	0.792000
H471	H47	0.623500	0.512200	0.345900
H481	H48	0.592200	0.446200	0.322200
H491	H49	0.561800	0.516700	0.307500
H501	H50	0.335300	0.211500	0.740800
H511	H51	0.296100	0.160700	0.706000
H521	H52	0.314500	0.366400	0.303700
H531	H53	0.493800	0.393800	0.658000
H541	H54	0.411500	0.306700	0.721200
H551	H55	0.493200	0.303800	0.685200
H561	H56	0.165200	0.345000	0.728000
H571	H57	0.813400	0.449500	0.478300
H581	H58	0.268200	0.262900	0.518700
H591	H59	0.299800	0.193200	0.534600
H601	H60	0.251500	0.194400	0.613500
H611	H61	0.322900	0.547600	0.337900
H621	H62	0.474800	0.391200	0.326600
H631	H63	0.392500	0.304100	0.391800
H641	H64	0.417800	0.880700	0.097300
H651	H65	0.383300	0.947500	0.088400
H661	H66	0.402200	0.877900	0.279900
H671	H67	0.855200	0.063200	0.028800
H681	H68	0.376500	0.030600	0.111300
H691	H69	0.407800	0.085600	0.146000
H701	H70	0.438200	0.130700	0.045100
H711	H71	0.664700	0.923900	0.123800
H721	H72	0.703900	0.997900	0.135400
H731	H73	0.685500	0.381800	0.948100
H741	H74	0.506200	0.848200	0.100000
H751	H75	0.588500	0.867300	0.104800
H761	H76	0.506800	0.821600	0.189400
H771	H77	0.834800	0.106800	0.820200
H781	H78	0.186600	0.708300	0.363900
H791	H79	0.731800	0.213100	0.005300
H801	H80	0.700200	0.165600	0.106600
H811	H81	0.748500	0.135000	0.057100
H821	H82	0.677100	0.339200	0.775300
H831	H83	0.525200	0.198600	0.083600
H841	H84	0.607500	0.215700	0.088400
H851	H85	0.978000	0.097300	0.484900
H861	H86	0.035900	0.088400	0.528300
H871	H87	0.157800	0.279900	0.317900
H881	H88	0.092000	0.028800	0.116000
H891	H89	0.141900	0.111300	0.512200
H901	H90	0.231600	0.146000	0.446200
H911	H91	0.175800	0.045100	0.516700
H921	H92	0.047700	0.123800	0.211500
H931	H93	0.133300	0.135400	0.160700
H941	H94	0.329900	0.948100	0.366400
H951	H95	0.948200	0.100000	0.393800
H961	H96	0.972100	0.104800	0.306700
H971	H97	0.011000	0.189400	0.303800
H981	H98	0.927000	0.820200	0.345000
H991	H99	0.072200	0.363900	0.449500
H1001	H100	0.218400	0.005300	0.262900
H1011	H101	0.272200	0.106600	0.193200
H1021	H102	0.192100	0.057100	0.194400
H1031	H103	0.114500	0.775300	0.547600
H1041	H104	0.282200	0.083600	0.391200
H1051	H105	0.304100	0.088400	0.304100
H1061	H106	0.022000	0.537100	0.880700
H1071	H107	0.964100	0.435800	0.947500
H1081	H108	0.842200	0.524300	0.877900
H1091	H109	0.908000	0.792000	0.063200
H1101	H110	0.858100	0.345900	0.030600
H1111	H111	0.768400	0.322200	0.085600
H1121	H112	0.824200	0.307500	0.130700
H1131	H113	0.952300	0.740800	0.923900
H1141	H114	0.866700	0.706000	0.997900
H1151	H115	0.670100	0.303700	0.381800
H1161	H116	0.051800	0.658000	0.848200
H1171	H117	0.027900	0.721200	0.867300
H1181	H118	0.989000	0.685200	0.821600
H1191	H119	0.073000	0.728000	0.106800
H1201	H120	0.927800	0.478300	0.708300
H1211	H121	0.781600	0.518700	0.213100
H1221	H122	0.727800	0.534600	0.165600
H1231	H123	0.807900	0.613500	0.135000
H1241	H124	0.885500	0.337900	0.339200
H1251	H125	0.717800	0.326600	0.198600
H1261	H126	0.695900	0.391800	0.215700
H1271	H127	0.417800	0.515100	0.462900
H1281	H128	0.383300	0.471700	0.564200
H1291	H129	0.402200	0.682100	0.475700
H1301	H130	0.855200	0.884000	0.208000
H1311	H131	0.376500	0.487800	0.654100
H1321	H132	0.407800	0.553800	0.677800
H1331	H133	0.438200	0.483300	0.692500
H1341	H134	0.664700	0.788500	0.259200
H1351	H135	0.703900	0.839300	0.294000
H1361	H136	0.685500	0.633600	0.696300
H1371	H137	0.506200	0.606200	0.342000
H1381	H138	0.588500	0.693300	0.278800
H1391	H139	0.506800	0.696200	0.314800
H1401	H140	0.834800	0.655000	0.272000
H1411	H141	0.186600	0.550500	0.521700
H1421	H142	0.731800	0.737100	0.481300
H1431	H143	0.700200	0.806800	0.465400
H1441	H144	0.748500	0.805600	0.386500
H1451	H145	0.677100	0.452400	0.662100
H1461	H146	0.525200	0.608800	0.673400
H1471	H147	0.607500	0.695900	0.608200
H1481	H148	0.582200	0.119300	0.902700
H1491	H149	0.616700	0.052500	0.911600
H1501	H150	0.597800	0.122100	0.720100
H1511	H151	0.144800	0.936800	0.971200
H1521	H152	0.623500	0.969400	0.888700
H1531	H153	0.592200	0.914400	0.854000
H1541	H154	0.561800	0.869300	0.954900
H1551	H155	0.335300	0.076100	0.876200
H1561	H156	0.296100	0.002100	0.864600
H1571	H157	0.314500	0.618200	0.051900
H1581	H158	0.493800	0.151800	0.900000
H1591	H159	0.411500	0.132700	0.895200
H1601	H160	0.493200	0.178400	0.810600
H1611	H161	0.165200	0.893200	0.179800
H1621	H162	0.813400	0.291700	0.636100
H1631	H163	0.268200	0.786900	0.994700
H1641	H164	0.299800	0.834400	0.893400
H1651	H165	0.251500	0.865000	0.942900
H1661	H166	0.322900	0.660800	0.224700
H1671	H167	0.474800	0.801400	0.916400
H1681	H168	0.392500	0.784300	0.911600
H1691	H169	0.000000	0.329220	0.670780
H1701	H170	0.000000	0.670780	0.329220
H1711	H171	0.849920	0.464490	0.614570
H1721	H172	0.679840	0.538400	0.858560
H1731	H173	0.150080	0.535510	0.385430
H1741	H174	0.320160	0.461600	0.141440
H1751	H175	0.920940	0.385430	0.464490
H1761	H176	0.603040	0.141440	0.538400
H1771	H177	0.079060	0.614570	0.535510
H1781	H178	0.396960	0.858560	0.461600
C11	C1	0.939730	0.892990	0.653840
C21	C2	0.895530	0.907440	0.712320
C31	C3	0.917700	0.894320	0.590620
C41	C4	0.965700	0.880010	0.526580
C51	C5	0.808740	0.922830	0.643470
C61	C6	0.851440	0.907280	0.585650
C71	C7	0.830370	0.923520	0.706660
C81	C8	0.872910	0.717740	0.637510
C91	C9	0.944410	0.009800	0.824600
C101	C10	0.822870	0.900590	0.521740
C111	C11	0.916080	0.902410	0.783890
C121	C12	0.724290	0.078890	0.592770
C131	C13	0.008410	0.872840	0.663260
C141	C14	0.034140	0.122140	0.699570
C151	C15	0.920050	0.673410	0.566340
C161	C16	0.782460	0.940220	0.769930
C171	C17	0.839860	0.170680	0.495520
C181	C18	0.739080	0.940630	0.637290
C191	C19	0.060270	0.406430	0.046740
C201	C20	0.104470	0.392160	0.988090
C211	C21	0.082300	0.491670	0.023380
C221	C22	0.034300	0.507720	0.085690
C231	C23	0.191260	0.547790	0.885910
C241	C24	0.148560	0.562910	0.944160
C251	C25	0.169630	0.462970	0.906850
C261	C26	0.127090	0.489580	0.155170
C271	C27	0.055590	0.230990	0.934610
C281	C28	0.177130	0.655390	0.922280
C291	C29	0.083920	0.300030	0.013670
C301	C30	0.275710	0.682940	0.645400
C311	C31	0.991590	0.328330	0.135570
C321	C32	0.965860	0.266300	0.912000
C331	C33	0.079950	0.513610	0.246640
C341	C34	0.217540	0.447600	0.842250
C351	C35	0.160140	0.664620	0.669180
C361	C36	0.260920	0.623620	0.798450
C371	C37	0.453170	0.346160	0.593570
C381	C38	0.380250	0.287690	0.607840
C391	C39	0.515060	0.409380	0.508320
C401	C40	0.593410	0.473420	0.492280
C411	C41	0.433700	0.356530	0.452210
C421	C42	0.507070	0.414350	0.437090
C431	C43	0.369820	0.293340	0.537030
C441	C44	0.644750	0.362490	0.510420
C451	C45	0.165600	0.175400	0.769010
C461	C46	0.577680	0.478270	0.344600
C471	C47	0.313690	0.216100	0.699980
C481	C48	0.328340	0.407230	0.317060
C491	C49	0.463900	0.336740	0.671670
C501	C50	0.178300	0.300440	0.733700
C511	C51	0.760260	0.433670	0.486380
C521	C52	0.289850	0.230060	0.552390
C531	C53	0.333800	0.504480	0.335380
C541	C54	0.422070	0.362700	0.376380
C551	C55	0.546830	0.953260	0.107010
C561	C56	0.619750	0.011900	0.092560
C571	C57	0.484940	0.976620	0.105690
C581	C58	0.406590	0.914310	0.119990
C591	C59	0.566300	0.114090	0.077170
C601	C60	0.492930	0.055840	0.092720
C611	C61	0.630180	0.093150	0.076480
C621	C62	0.355250	0.844830	0.282260
C631	C63	0.834400	0.065390	0.990200
C641	C64	0.422320	0.077710	0.099420
C651	C65	0.686310	0.986340	0.097580
C661	C66	0.671660	0.354600	0.921110
C671	C67	0.536100	0.864430	0.127160
C681	C68	0.821700	0.087990	0.877860
C691	C69	0.239740	0.753350	0.326600
C701	C70	0.710150	0.157760	0.059790
C711	C71	0.666200	0.330820	0.829320
C721	C72	0.577920	0.201550	0.059380
C731	C73	0.060270	0.107010	0.346160
C741	C74	0.104470	0.092560	0.287680
C751	C75	0.082300	0.105680	0.409380
C761	C76	0.034300	0.119990	0.473420
C771	C77	0.191260	0.077170	0.356530
C781	C78	0.148560	0.092720	0.414350
C791	C79	0.169630	0.076480	0.293340
C801	C80	0.127090	0.282260	0.362490
C811	C81	0.055590	0.990200	0.175400
C821	C82	0.177130	0.099410	0.478260
C831	C83	0.083920	0.097590	0.216110
C841	C84	0.275710	0.921110	0.407230
C851	C85	0.991590	0.127160	0.336740
C861	C86	0.965860	0.877860	0.300430
C871	C87	0.079950	0.326590	0.433660
C881	C88	0.217540	0.059780	0.230070
C891	C89	0.160140	0.829320	0.504480
C901	C90	0.260920	0.059370	0.362710
C911	C91	0.939730	0.593570	0.953260
C921	C92	0.895530	0.607840	0.011910
C931	C93	0.917700	0.508330	0.976620
C941	C94	0.965700	0.492280	0.914310
C951	C95	0.808740	0.452210	0.114090
C961	C96	0.851440	0.437090	0.055840
C971	C97	0.830370	0.537030	0.093150
C981	C98	0.872910	0.510420	0.844830
C991	C99	0.944410	0.769010	0.065390
C1001	C100	0.822870	0.344610	0.077720
C1011	C101	0.916080	0.699970	0.986330
C1021	C102	0.724290	0.317060	0.354600
C1031	C103	0.008410	0.671670	0.864430
C1041	C104	0.034140	0.733700	0.088000
C1051	C105	0.920050	0.486390	0.753360
C1061	C106	0.782460	0.552400	0.157750
C1071	C107	0.839860	0.335380	0.330820
C1081	C108	0.739080	0.376380	0.201550
C1091	C109	0.546830	0.653840	0.406430
C1101	C110	0.619750	0.712310	0.392160
C1111	C111	0.484940	0.590620	0.491680
C1121	C112	0.406590	0.526580	0.507720
C1131	C113	0.566300	0.643470	0.547790
C1141	C114	0.492930	0.585650	0.562910
C1151	C115	0.630180	0.706660	0.462970
C1161	C116	0.355250	0.637510	0.489580
C1171	C117	0.834400	0.824600	0.230990
C1181	C118	0.422320	0.521730	0.655400
C1191	C119	0.686310	0.783900	0.300020
C1201	C120	0.671660	0.592770	0.682940
C1211	C121	0.536100	0.663260	0.328330
C1221	C122	0.821700	0.699560	0.266300
C1231	C123	0.239740	0.566330	0.513620
C1241	C124	0.710150	0.769940	0.447610
C1251	C125	0.666200	0.495520	0.664620
C1261	C126	0.577920	0.637290	0.623630
C1271	C127	0.453170	0.046740	0.892990
C1281	C128	0.380250	0.988100	0.907440
C1291	C129	0.515060	0.023380	0.894310
C1301	C130	0.593410	0.085690	0.880010
C1311	C131	0.433700	0.885910	0.922830
C1321	C132	0.507070	0.944160	0.907280
C1331	C133	0.369820	0.906850	0.923520
C1341	C134	0.644750	0.155170	0.717740
C1351	C135	0.165600	0.934610	0.009800
C1361	C136	0.577680	0.922290	0.900580
C1371	C137	0.313690	0.013660	0.902420
C1381	C138	0.328340	0.645400	0.078890
C1391	C139	0.463900	0.135570	0.872840
C1401	C140	0.178300	0.912010	0.122130
C1411	C141	0.760260	0.246650	0.673400
C1421	C142	0.289850	0.842240	0.940210
C1431	C143	0.333800	0.669180	0.170680
C1441	C144	0.422070	0.798440	0.940630
N11	N1	0.931800	0.785880	0.562120
N21	N2	0.862230	0.645080	0.642860
N31	N3	0.954810	0.988720	0.767990
N41	N4	0.993240	0.093890	0.784810
N51	N5	0.763990	0.035730	0.587400
N61	N6	0.766440	0.162160	0.536660
N71	N7	0.013310	0.059930	0.686620
N81	N8	0.966020	0.760080	0.514240
N91	N9	0.841150	0.095410	0.521940
N101	N10	0.068200	0.506080	0.145910
N111	N11	0.137770	0.494910	0.217150
N121	N12	0.045190	0.277190	0.966090
N131	N13	0.006760	0.221950	0.899350
N141	N14	0.236010	0.648600	0.728260
N151	N15	0.233560	0.696900	0.604280
N161	N16	0.986690	0.300070	0.953380
N171	N17	0.033980	0.519750	0.205940
N181	N18	0.158850	0.636910	0.745740
N191	N19	0.651990	0.437880	0.493930
N201	N20	0.712060	0.357140	0.505090
N211	N21	0.243280	0.232000	0.722810
N221	N22	0.121300	0.215190	0.778050
N231	N23	0.376860	0.412590	0.351400
N241	N24	0.301180	0.463340	0.303100
N251	N25	0.253450	0.313380	0.699930
N261	N26	0.725680	0.485760	0.480260
N271	N27	0.382650	0.478060	0.363090
N281	N28	0.348000	0.854080	0.214120
N291	N29	0.287940	0.782850	0.354920
N301	N30	0.756720	0.033920	0.011270
N311	N31	0.878700	0.100650	0.906110
N321	N32	0.623140	0.271750	0.964270
N331	N33	0.698820	0.395720	0.837840
N341	N34	0.746550	0.046620	0.940070
N351	N35	0.274320	0.794060	0.239910
N361	N36	0.617350	0.254260	0.904590
N371	N37	0.068200	0.214120	0.437880
N381	N38	0.137770	0.354920	0.357140
N391	N39	0.045190	0.011280	0.232010
N401	N40	0.006760	0.906110	0.215190
N411	N41	0.236010	0.964270	0.412600
N421	N42	0.233560	0.837840	0.463340
N431	N43	0.986690	0.940070	0.313380
N441	N44	0.033980	0.239920	0.485760
N451	N45	0.158850	0.904590	0.478060
N461	N46	0.931800	0.493920	0.854090
N471	N47	0.862230	0.505090	0.782850
N481	N48	0.954810	0.722800	0.033910
N491	N49	0.993240	0.778050	0.100650
N501	N50	0.763990	0.351400	0.271740
N511	N51	0.766440	0.303100	0.395720
N521	N52	0.013310	0.699930	0.046620
N531	N53	0.966020	0.480250	0.794060
N541	N54	0.841150	0.363090	0.254260
N551	N55	0.348000	0.562110	0.506080
N561	N56	0.287940	0.642860	0.494910
N571	N57	0.756720	0.768000	0.277190
N581	N58	0.878700	0.784810	0.221950
N591	N59	0.623140	0.587410	0.648600
N601	N60	0.698820	0.536660	0.696900
N611	N61	0.746550	0.686620	0.300070
N621	N62	0.274320	0.514240	0.519740
N631	N63	0.617350	0.521940	0.636910
N641	N64	0.651990	0.145910	0.785890
N651	N65	0.712060	0.217150	0.645080
N661	N66	0.243280	0.966080	0.988720
N671	N67	0.121300	0.899350	0.093890
N681	N68	0.376860	0.728250	0.035730
N691	N69	0.301180	0.604280	0.162160
N701	N70	0.253450	0.953380	0.059930
N711	N71	0.725680	0.205940	0.760090
N721	N72	0.382650	0.745740	0.095410
O11	O1	0.000000	0.284390	0.715610
O21	O2	0.000000	0.715610	0.284390
O31	O3	0.728970	0.563800	0.834830
O41	O4	0.817580	0.467350	0.649770
O51	O5	0.271030	0.436200	0.165170
O61	O6	0.182420	0.532650	0.350230
O71	O7	0.601380	0.165180	0.563790
O81	O8	0.882880	0.350230	0.467350
O91	O9	0.398620	0.834820	0.436210
O101	O10	0.117120	0.649770	0.532650
N731	N73	0.767930	0.827590	0.059660
O111	O11	0.698710	0.802720	0.104010
O121	O12	0.824750	0.880610	0.055860
O131	O13	0.793430	0.805120	0.011690
N741	N74	0.232070	0.172410	0.940340
O141	O14	0.301290	0.197280	0.895990
O151	O15	0.175250	0.119390	0.944140
O161	O16	0.206570	0.194880	0.988310
N751	N75	0.112750	0.940340	0.827590
O171	O17	0.093270	0.895990	0.802720
O181	O18	0.063530	0.944140	0.880610
O191	O19	0.183190	0.988310	0.805120
N761	N76	0.887250	0.059660	0.172410
O201	O20	0.906730	0.104010	0.197280
O211	O21	0.936470	0.055860	0.119390
O221	O22	0.816810	0.011690	0.194880
