data_OQOJUB_clean_PM
_symmetry_space_group_name_H-M	'P1'
_cell_length_a	8.310400
_cell_length_b	12.454600
_cell_length_c	33.585200
_cell_angle_alpha	90.000000
_cell_angle_beta	90.000000
_cell_angle_gamma	90.000000
_symmetry_Int_Tables_number 1

loop_
_symmetry_equiv_pos_as_xyz
'x,y,z'

loop_
_atom_site_label
_atom_site_type_symbol
_atom_site_fract_x
_atom_site_fract_y
_atom_site_fract_z
C11	C1	0.370600	0.571720	0.184860
H11	H1	0.315700	0.520700	0.203400
C21	C2	0.488800	0.503870	0.159280
H21	H2	0.445000	0.430900	0.155000
H31	H3	0.505700	0.538200	0.133000
C31	C3	0.649100	0.497980	0.182510
H41	H4	0.682200	0.422500	0.186900
H51	H5	0.735900	0.536200	0.168100
C41	C4	0.610400	0.553510	0.222020
H61	H6	0.550500	0.499600	0.238300
C51	C5	0.749700	0.591200	0.247680
H71	H7	0.810900	0.647500	0.232800
C61	C6	0.863700	0.498030	0.257280
H81	H8	0.800400	0.437800	0.268400
H91	H9	0.914400	0.472800	0.232300
C71	C7	0.995500	0.528640	0.286820
H101	H10	0.071100	0.579100	0.273800
H111	H11	0.056600	0.463400	0.294200
C81	C8	0.928300	0.581060	0.324680
H121	H12	0.022200	0.609400	0.340000
C91	C9	0.844000	0.498600	0.351260
H131	H13	0.756000	0.464400	0.336000
H141	H14	0.922000	0.441800	0.358500
C101	C10	0.774800	0.547050	0.389110
H151	H15	0.865100	0.575300	0.405800
C111	C11	0.660900	0.638730	0.379430
H161	H16	0.621500	0.672100	0.404300
H171	H17	0.567000	0.611300	0.364400
C121	C12	0.750900	0.721670	0.354540
H181	H18	0.841300	0.750400	0.370500
H191	H19	0.677200	0.782100	0.348700
C131	C13	0.818100	0.678250	0.314910
C141	C14	0.419700	0.686130	0.249830
H201	H20	0.358200	0.629300	0.263700
H211	H21	0.344900	0.745900	0.243900
C151	C15	0.554400	0.726850	0.277300
H221	H22	0.607200	0.789400	0.264600
H231	H23	0.506200	0.751500	0.302700
C161	C16	0.682100	0.641230	0.286350
H241	H24	0.624400	0.581900	0.300500
C171	C17	0.486300	0.641300	0.210770
C181	C18	0.238300	0.623480	0.159340
H251	H25	0.291100	0.664200	0.137300
C191	C19	0.136700	0.532840	0.140790
H261	H26	0.209800	0.484300	0.126000
H271	H27	0.087800	0.490700	0.162700
C201	C20	0.002500	0.568200	0.112570
H281	H28	0.941200	0.504000	0.104100
H291	H29	0.927600	0.615700	0.127300
C211	C21	0.061700	0.626930	0.075820
O11	O1	0.986750	0.710480	0.065780
O21	O2	0.179570	0.588720	0.057070
C221	C22	0.131300	0.701000	0.182530
H301	H30	0.044500	0.726800	0.165200
H311	H31	0.195700	0.762200	0.191700
H321	H32	0.085000	0.664000	0.205600
C231	C23	0.918700	0.769310	0.296250
H331	H33	0.959700	0.746100	0.270300
H341	H34	0.009200	0.786600	0.313800
H351	H35	0.851000	0.833100	0.292800
C241	C24	0.560000	0.731390	0.185350
H361	H36	0.596400	0.701800	0.159900
H371	H37	0.651800	0.762900	0.199500
H381	H38	0.478800	0.786900	0.180500
O31	O3	0.700740	0.458260	0.409550
C251	C25	0.609600	0.482720	0.443520
H391	H39	0.651700	0.550100	0.455900
C261	C26	0.626000	0.390650	0.472760
H401	H40	0.556100	0.405100	0.496400
C271	C27	0.570500	0.286890	0.452820
H411	H41	0.635700	0.274200	0.428200
C281	C28	0.394900	0.303080	0.441410
H421	H42	0.328700	0.311800	0.466100
C291	C29	0.376900	0.403090	0.415230
H431	H43	0.433400	0.390300	0.389400
O41	O4	0.444460	0.496450	0.433840
O51	O5	0.787690	0.380710	0.485660
H441	H44	0.802300	0.419400	0.505800
O61	O6	0.587290	0.197280	0.479000
H451	H45	0.668500	0.161300	0.472400
O71	O7	0.337690	0.212760	0.419280
H461	H46	0.239100	0.204000	0.423700
C301	C30	0.202300	0.429500	0.406900
H471	H47	0.196800	0.495800	0.390700
H481	H48	0.153700	0.370500	0.391200
O81	O8	0.111760	0.444610	0.442450
H491	H49	0.144700	0.499800	0.454300
Li11	Li1	0.009800	0.828700	0.031300
C311	C31	0.129400	0.428280	0.684860
H501	H50	0.184300	0.479300	0.703400
C321	C32	0.011200	0.496130	0.659280
H511	H51	0.055000	0.569100	0.655000
H521	H52	0.994300	0.461800	0.633000
C331	C33	0.850900	0.502020	0.682510
H531	H53	0.817800	0.577500	0.686900
H541	H54	0.764100	0.463800	0.668100
C341	C34	0.889600	0.446490	0.722020
H551	H55	0.949500	0.500400	0.738300
C351	C35	0.750300	0.408800	0.747680
H561	H56	0.689100	0.352500	0.732800
C361	C36	0.636300	0.501970	0.757280
H571	H57	0.699600	0.562200	0.768400
H581	H58	0.585600	0.527200	0.732300
C371	C37	0.504500	0.471360	0.786820
H591	H59	0.428900	0.420900	0.773800
H601	H60	0.443400	0.536600	0.794200
C381	C38	0.571700	0.418940	0.824680
H611	H61	0.477800	0.390600	0.840000
C391	C39	0.656000	0.501400	0.851260
H621	H62	0.744000	0.535600	0.836000
H631	H63	0.578000	0.558200	0.858500
C401	C40	0.725200	0.452950	0.889110
H641	H64	0.634900	0.424700	0.905800
C411	C41	0.839100	0.361270	0.879430
H651	H65	0.878500	0.327900	0.904300
H661	H66	0.933000	0.388700	0.864400
C421	C42	0.749100	0.278330	0.854540
H671	H67	0.658700	0.249600	0.870500
H681	H68	0.822800	0.217900	0.848700
C431	C43	0.681900	0.321750	0.814910
C441	C44	0.080300	0.313870	0.749830
H691	H69	0.141800	0.370700	0.763700
H701	H70	0.155100	0.254100	0.743900
C451	C45	0.945600	0.273150	0.777300
H711	H71	0.892800	0.210600	0.764600
H721	H72	0.993800	0.248500	0.802700
C461	C46	0.817900	0.358770	0.786350
H731	H73	0.875600	0.418100	0.800500
C471	C47	0.013700	0.358700	0.710770
C481	C48	0.261700	0.376520	0.659340
H741	H74	0.208900	0.335800	0.637300
C491	C49	0.363300	0.467160	0.640790
H751	H75	0.290200	0.515700	0.626000
H761	H76	0.412200	0.509300	0.662700
C501	C50	0.497500	0.431800	0.612570
H771	H77	0.558800	0.496000	0.604100
H781	H78	0.572400	0.384300	0.627300
C511	C51	0.438300	0.373070	0.575820
O91	O9	0.513250	0.289520	0.565780
O101	O10	0.320430	0.411280	0.557070
C521	C52	0.368700	0.299000	0.682530
H791	H79	0.455500	0.273200	0.665200
H801	H80	0.304300	0.237800	0.691700
H811	H81	0.415000	0.336000	0.705600
C531	C53	0.581300	0.230690	0.796250
H821	H82	0.540300	0.253900	0.770300
H831	H83	0.490800	0.213400	0.813800
H841	H84	0.649000	0.166900	0.792800
C541	C54	0.940000	0.268610	0.685350
H851	H85	0.903600	0.298200	0.659900
H861	H86	0.848200	0.237100	0.699500
H871	H87	0.021200	0.213100	0.680500
O111	O11	0.799260	0.541740	0.909550
C551	C55	0.890400	0.517280	0.943520
H881	H88	0.848300	0.449900	0.955900
C561	C56	0.874000	0.609350	0.972760
H891	H89	0.943900	0.594900	0.996400
C571	C57	0.929500	0.713110	0.952820
H901	H90	0.864300	0.725800	0.928200
C581	C58	0.105100	0.696920	0.941410
H911	H91	0.171300	0.688200	0.966100
C591	C59	0.123100	0.596910	0.915230
H921	H92	0.066600	0.609700	0.889400
O121	O12	0.055540	0.503550	0.933840
O131	O13	0.712310	0.619290	0.985660
H931	H93	0.697700	0.580600	0.005800
O141	O14	0.912710	0.802720	0.979000
H941	H94	0.831500	0.838700	0.972400
O151	O15	0.162310	0.787240	0.919280
H951	H95	0.260900	0.796000	0.923700
C601	C60	0.297700	0.570500	0.906900
H961	H96	0.303200	0.504200	0.890700
H971	H97	0.346300	0.629500	0.891200
O161	O16	0.388240	0.555390	0.942450
H981	H98	0.355300	0.500200	0.954300
Li21	Li2	0.490200	0.171300	0.531300
C611	C61	0.629400	0.071720	0.315140
H991	H99	0.684300	0.020700	0.296600
C621	C62	0.511200	0.003870	0.340720
H1001	H100	0.555000	0.930900	0.345000
H1011	H101	0.494300	0.038200	0.367000
C631	C63	0.350900	0.997980	0.317490
H1021	H102	0.317800	0.922500	0.313100
H1031	H103	0.264100	0.036200	0.331900
C641	C64	0.389600	0.053510	0.277980
H1041	H104	0.449500	0.999600	0.261700
C651	C65	0.250300	0.091200	0.252320
H1051	H105	0.189100	0.147500	0.267200
C661	C66	0.136300	0.998030	0.242720
H1061	H106	0.199600	0.937800	0.231600
H1071	H107	0.085600	0.972800	0.267700
C671	C67	0.004500	0.028640	0.213180
H1081	H108	0.928900	0.079100	0.226200
H1091	H109	0.943400	0.963400	0.205800
C681	C68	0.071700	0.081060	0.175320
H1101	H110	0.977800	0.109400	0.160000
C691	C69	0.156000	0.998600	0.148740
H1111	H111	0.244000	0.964400	0.164000
H1121	H112	0.078000	0.941800	0.141500
C701	C70	0.225200	0.047050	0.110890
H1131	H113	0.134900	0.075300	0.094200
C711	C71	0.339100	0.138730	0.120570
H1141	H114	0.378500	0.172100	0.095700
H1151	H115	0.433000	0.111300	0.135600
C721	C72	0.249100	0.221670	0.145460
H1161	H116	0.158700	0.250400	0.129500
H1171	H117	0.322800	0.282100	0.151300
C731	C73	0.181900	0.178250	0.185090
C741	C74	0.580300	0.186130	0.250170
H1181	H118	0.641800	0.129300	0.236300
H1191	H119	0.655100	0.245900	0.256100
C751	C75	0.445600	0.226850	0.222700
H1201	H120	0.392800	0.289400	0.235400
H1211	H121	0.493800	0.251500	0.197300
C761	C76	0.317900	0.141230	0.213650
H1221	H122	0.375600	0.081900	0.199500
C771	C77	0.513700	0.141300	0.289230
C781	C78	0.761700	0.123480	0.340660
H1231	H123	0.708900	0.164200	0.362700
C791	C79	0.863300	0.032840	0.359210
H1241	H124	0.790200	0.984300	0.374000
H1251	H125	0.912200	0.990700	0.337300
C801	C80	0.997500	0.068200	0.387430
H1261	H126	0.058800	0.004000	0.395900
H1271	H127	0.072400	0.115700	0.372700
C811	C81	0.938300	0.126930	0.424180
O171	O17	0.013250	0.210480	0.434220
O181	O18	0.820430	0.088720	0.442930
C821	C82	0.868700	0.201000	0.317470
H1281	H128	0.955500	0.226800	0.334800
H1291	H129	0.804300	0.262200	0.308300
H1301	H130	0.915000	0.164000	0.294400
C831	C83	0.081300	0.269310	0.203750
H1311	H131	0.040300	0.246100	0.229700
H1321	H132	0.990800	0.286600	0.186200
H1331	H133	0.149000	0.333100	0.207200
C841	C84	0.440000	0.231390	0.314650
H1341	H134	0.403600	0.201800	0.340100
H1351	H135	0.348200	0.262900	0.300500
H1361	H136	0.521200	0.286900	0.319500
O191	O19	0.299260	0.958260	0.090450
C851	C85	0.390400	0.982720	0.056480
H1371	H137	0.348300	0.050100	0.044100
C861	C86	0.374000	0.890650	0.027240
H1381	H138	0.443900	0.905100	0.003600
C871	C87	0.429500	0.786890	0.047180
H1391	H139	0.364300	0.774200	0.071800
C881	C88	0.605100	0.803080	0.058590
H1401	H140	0.671300	0.811800	0.033900
C891	C89	0.623100	0.903090	0.084770
H1411	H141	0.566600	0.890300	0.110600
O201	O20	0.555540	0.996450	0.066160
O211	O21	0.212310	0.880710	0.014340
H1421	H142	0.197700	0.919400	0.994200
O221	O22	0.412710	0.697280	0.021000
H1431	H143	0.331500	0.661300	0.027600
O231	O23	0.662310	0.712760	0.080720
H1441	H144	0.760900	0.704000	0.076300
C901	C90	0.797700	0.929500	0.093100
H1451	H145	0.803200	0.995800	0.109300
H1461	H146	0.846300	0.870500	0.108800
O241	O24	0.888240	0.944610	0.057550
H1471	H147	0.855300	0.999800	0.045700
Li31	Li3	0.990200	0.328700	0.468700
C911	C91	0.870600	0.928280	0.815140
H1481	H148	0.815700	0.979300	0.796600
C921	C92	0.988800	0.996130	0.840720
H1491	H149	0.945000	0.069100	0.845000
H1501	H150	0.005700	0.961800	0.867000
C931	C93	0.149100	0.002020	0.817490
H1511	H151	0.182200	0.077500	0.813100
H1521	H152	0.235900	0.963800	0.831900
C941	C94	0.110400	0.946490	0.777980
H1531	H153	0.050500	0.000400	0.761700
C951	C95	0.249700	0.908800	0.752320
H1541	H154	0.310900	0.852500	0.767200
C961	C96	0.363700	0.001970	0.742720
H1551	H155	0.300400	0.062200	0.731600
H1561	H156	0.414400	0.027200	0.767700
C971	C97	0.495500	0.971360	0.713180
H1571	H157	0.571100	0.920900	0.726200
H1581	H158	0.556600	0.036600	0.705800
C981	C98	0.428300	0.918940	0.675320
H1591	H159	0.522200	0.890600	0.660000
C991	C99	0.344000	0.001400	0.648740
H1601	H160	0.256000	0.035600	0.664000
H1611	H161	0.422000	0.058200	0.641500
C1001	C100	0.274800	0.952950	0.610890
H1621	H162	0.365100	0.924700	0.594200
C1011	C101	0.160900	0.861270	0.620570
H1631	H163	0.121500	0.827900	0.595700
H1641	H164	0.067000	0.888700	0.635600
C1021	C102	0.250900	0.778330	0.645460
H1651	H165	0.341300	0.749600	0.629500
H1661	H166	0.177200	0.717900	0.651300
C1031	C103	0.318100	0.821750	0.685090
C1041	C104	0.919700	0.813870	0.750170
H1671	H167	0.858200	0.870700	0.736300
H1681	H168	0.844900	0.754100	0.756100
C1051	C105	0.054400	0.773150	0.722700
H1691	H169	0.107200	0.710600	0.735400
H1701	H170	0.006200	0.748500	0.697300
C1061	C106	0.182100	0.858770	0.713650
H1711	H171	0.124400	0.918100	0.699500
C1071	C107	0.986300	0.858700	0.789230
C1081	C108	0.738300	0.876520	0.840660
H1721	H172	0.791100	0.835800	0.862700
C1091	C109	0.636700	0.967160	0.859210
H1731	H173	0.709800	0.015700	0.874000
H1741	H174	0.587800	0.009300	0.837300
C1101	C110	0.502500	0.931800	0.887430
H1751	H175	0.441200	0.996000	0.895900
H1761	H176	0.427600	0.884300	0.872700
C1111	C111	0.561700	0.873070	0.924180
O251	O25	0.486750	0.789520	0.934220
O261	O26	0.679570	0.911280	0.942930
C1121	C112	0.631300	0.799000	0.817470
H1771	H177	0.544500	0.773200	0.834800
H1781	H178	0.695700	0.737800	0.808300
H1791	H179	0.585000	0.836000	0.794400
C1131	C113	0.418700	0.730690	0.703750
H1801	H180	0.459700	0.753900	0.729700
H1811	H181	0.509200	0.713400	0.686200
H1821	H182	0.351000	0.666900	0.707200
C1141	C114	0.060000	0.768610	0.814650
H1831	H183	0.096400	0.798200	0.840100
H1841	H184	0.151800	0.737100	0.800500
H1851	H185	0.978800	0.713100	0.819500
O271	O27	0.200740	0.041740	0.590450
C1151	C115	0.109600	0.017280	0.556480
H1861	H186	0.151700	0.949900	0.544100
C1161	C116	0.126000	0.109350	0.527240
H1871	H187	0.056100	0.094900	0.503600
C1171	C117	0.070500	0.213110	0.547180
H1881	H188	0.135700	0.225800	0.571800
C1181	C118	0.894900	0.196920	0.558590
H1891	H189	0.828700	0.188200	0.533900
C1191	C119	0.876900	0.096910	0.584770
H1901	H190	0.933400	0.109700	0.610600
O281	O28	0.944460	0.003550	0.566160
O291	O29	0.287690	0.119290	0.514340
H1911	H191	0.302300	0.080600	0.494200
O301	O30	0.087290	0.302720	0.521000
H1921	H192	0.168500	0.338700	0.527600
O311	O31	0.837690	0.287240	0.580720
H1931	H193	0.739100	0.296000	0.576300
C1201	C120	0.702300	0.070500	0.593100
H1941	H194	0.696800	0.004200	0.609300
H1951	H195	0.653700	0.129500	0.608800
O321	O32	0.611760	0.055390	0.557550
H1961	H196	0.644700	0.000200	0.545700
Li41	Li4	0.509800	0.671300	0.968700
