data_OQOXAV_clean_PM
_symmetry_space_group_name_H-M	'P1'
_cell_length_a	6.587300
_cell_length_b	12.939600
_cell_length_c	13.014100
_cell_angle_alpha	90.000000
_cell_angle_beta	90.023000
_cell_angle_gamma	90.000000
_symmetry_Int_Tables_number 1

loop_
_symmetry_equiv_pos_as_xyz
'x,y,z'

loop_
_atom_site_label
_atom_site_type_symbol
_atom_site_fract_x
_atom_site_fract_y
_atom_site_fract_z
Zn11	Zn1	0.202940	0.457750	0.951980
F11	F1	0.111000	0.551700	0.060300
F21	F2	0.246800	0.934600	0.935600
N11	N1	0.245900	0.305100	0.974800
N21	N2	0.082500	0.240800	0.978800
N31	N3	0.150400	0.147600	0.985000
N41	N4	0.353400	0.145900	0.985600
C11	C1	0.409800	0.244100	0.979800
N51	N5	0.603900	0.277200	0.973600
H11	H1	0.701700	0.233100	0.973200
H21	H2	0.629700	0.342200	0.970000
N61	N6	0.244800	0.501800	0.805200
N71	N7	0.081100	0.505800	0.740400
N81	N8	0.152100	0.514300	0.646100
N91	N9	0.353600	0.517700	0.647900
C21	C2	0.406600	0.509700	0.744000
N101	N10	0.602700	0.507900	0.777800
H31	H3	0.700900	0.512100	0.734500
H41	H4	0.628000	0.502500	0.842400
Zn21	Zn2	0.797060	0.957750	0.548020
F31	F3	0.889000	0.051700	0.439700
F41	F4	0.753200	0.434600	0.564400
N111	N11	0.754100	0.805100	0.525200
N121	N12	0.917500	0.740800	0.521200
N131	N13	0.849600	0.647600	0.515000
N141	N14	0.646600	0.645900	0.514400
C31	C3	0.590200	0.744100	0.520200
N151	N15	0.396100	0.777200	0.526400
H51	H5	0.298300	0.733100	0.526800
H61	H6	0.370300	0.842200	0.530000
N161	N16	0.755200	0.001800	0.694800
N171	N17	0.918900	0.005800	0.759600
N181	N18	0.847900	0.014300	0.853900
N191	N19	0.646400	0.017700	0.852100
C41	C4	0.593400	0.009700	0.756000
N201	N20	0.397300	0.007900	0.722200
H71	H7	0.299100	0.012100	0.765500
H81	H8	0.372000	0.002500	0.657600
Zn31	Zn3	0.797060	0.542250	0.048020
F51	F5	0.889000	0.448300	0.939700
F61	F6	0.753200	0.065400	0.064400
N211	N21	0.754100	0.694900	0.025200
N221	N22	0.917500	0.759200	0.021200
N231	N23	0.849600	0.852400	0.015000
N241	N24	0.646600	0.854100	0.014400
C51	C5	0.590200	0.755900	0.020200
N251	N25	0.396100	0.722800	0.026400
H91	H9	0.298300	0.766900	0.026800
H101	H10	0.370300	0.657800	0.030000
N261	N26	0.755200	0.498200	0.194800
N271	N27	0.918900	0.494200	0.259600
N281	N28	0.847900	0.485700	0.353900
N291	N29	0.646400	0.482300	0.352100
C61	C6	0.593400	0.490300	0.256000
N301	N30	0.397300	0.492100	0.222200
H111	H11	0.299100	0.487900	0.265500
H121	H12	0.372000	0.497500	0.157600
Zn41	Zn4	0.202940	0.042250	0.451980
F71	F7	0.111000	0.948300	0.560300
F81	F8	0.246800	0.565400	0.435600
N311	N31	0.245900	0.194900	0.474800
N321	N32	0.082500	0.259200	0.478800
N331	N33	0.150400	0.352400	0.485000
N341	N34	0.353400	0.354100	0.485600
C71	C7	0.409800	0.255900	0.479800
N351	N35	0.603900	0.222800	0.473600
H131	H13	0.701700	0.266900	0.473200
H141	H14	0.629700	0.157800	0.470000
N361	N36	0.244800	0.998200	0.305200
N371	N37	0.081100	0.994200	0.240400
N381	N38	0.152100	0.985700	0.146100
N391	N39	0.353600	0.982300	0.147900
C81	C8	0.406600	0.990300	0.244000
N401	N40	0.602700	0.992100	0.277800
H151	H15	0.700900	0.987900	0.234500
H161	H16	0.628000	0.997500	0.342400
Zn51	Zn5	0.000000	0.000000	0.000000
Zn61	Zn6	0.000000	0.500000	0.500000
Zn71	Zn7	0.500000	0.000000	0.000000
Zn81	Zn8	0.500000	0.500000	0.500000
