data_OQUXEF_clean_PM
_symmetry_space_group_name_H-M	'P1'
_cell_length_a	26.780000
_cell_length_b	19.963000
_cell_length_c	12.980000
_cell_angle_alpha	90.000000
_cell_angle_beta	90.000000
_cell_angle_gamma	90.000000
_symmetry_Int_Tables_number 1

loop_
_symmetry_equiv_pos_as_xyz
'x,y,z'

loop_
_atom_site_label
_atom_site_type_symbol
_atom_site_fract_x
_atom_site_fract_y
_atom_site_fract_z
W11	W1	0.154360	0.167260	0.477660
W21	W2	0.265230	0.076940	0.392630
W31	W3	0.266610	0.167610	0.634580
W41	W4	0.265030	0.159320	0.173220
W51	W5	0.366670	0.158710	0.317690
Co11	Co1	0.240850	0.891050	0.399100
O11	O1	0.198800	0.106200	0.411500
O21	O2	0.375900	0.182400	0.455900
O31	O3	0.238900	0.884100	0.237400
O41	O4	0.242500	0.871900	0.553000
O51	O5	0.200600	0.169500	0.588300
O61	O6	0.336500	0.184300	0.644300
O71	O7	0.336300	0.077900	0.365000
O81	O8	0.199200	0.184800	0.203000
O91	O9	0.126200	0.182300	0.343800
O101	O10	0.335500	0.145200	0.188000
O111	O11	0.278200	0.105700	0.529700
O121	O12	0.254300	0.078000	0.248000
O131	O13	0.281400	0.186800	0.345000
O141	O14	0.258000	0.992200	0.410800
C11	C1	0.034100	0.917300	0.314300
C21	C2	0.026400	0.856500	0.262400
H11	H1	0.050100	0.822400	0.264700
C31	C3	0.998300	0.967100	0.314700
H21	H2	0.003500	0.006900	0.350400
C41	C4	0.087300	0.965900	0.444000
H31	H3	0.063000	0.990800	0.477300
C51	C5	0.137800	0.962000	0.471000
H41	H4	0.152500	0.985600	0.524900
C61	C6	0.124700	0.901100	0.333400
H51	H5	0.129200	0.875200	0.274600
C71	C7	0.981200	0.849000	0.206000
H61	H6	0.976300	0.810700	0.166700
C81	C8	0.952400	0.955800	0.257800
H71	H7	0.927900	0.988800	0.254500
C91	C9	0.945800	0.895400	0.209100
C101	C10	0.853300	0.901500	0.180000
H81	H8	0.844700	0.925800	0.238500
C111	C11	0.898100	0.844700	0.065100
H91	H9	0.923900	0.824000	0.029300
N11	N1	0.819000	0.878100	0.107900
N21	N2	0.900900	0.884400	0.154500
C121	C12	0.847200	0.843900	0.043500
H101	H10	0.834000	0.820900	0.987400
N31	N3	0.163100	0.918100	0.406300
N41	N4	0.080500	0.928800	0.364000
W61	W6	0.345640	0.832740	0.977660
W71	W7	0.234770	0.923060	0.892630
W81	W8	0.233390	0.832390	0.134580
W91	W9	0.234970	0.840680	0.673220
W101	W10	0.133330	0.841290	0.817690
Co21	Co2	0.259150	0.108950	0.899100
O151	O15	0.301200	0.893800	0.911500
O161	O16	0.124100	0.817600	0.955900
O171	O17	0.261100	0.115900	0.737400
O181	O18	0.257500	0.128100	0.053000
O191	O19	0.299400	0.830500	0.088300
O201	O20	0.163500	0.815700	0.144300
O211	O21	0.163700	0.922100	0.865000
O221	O22	0.300800	0.815200	0.703000
O231	O23	0.373800	0.817700	0.843800
O241	O24	0.164500	0.854800	0.688000
O251	O25	0.221800	0.894300	0.029700
O261	O26	0.245700	0.922000	0.748000
O271	O27	0.218600	0.813200	0.845000
O281	O28	0.242000	0.007800	0.910800
C131	C13	0.465900	0.082700	0.814300
C141	C14	0.473600	0.143500	0.762400
H111	H11	0.449900	0.177600	0.764700
C151	C15	0.501700	0.032900	0.814700
H121	H12	0.496500	0.993100	0.850400
C161	C16	0.412700	0.034100	0.944000
H131	H13	0.437000	0.009200	0.977300
C171	C17	0.362200	0.038000	0.971000
H141	H14	0.347500	0.014400	0.024900
C181	C18	0.375300	0.098900	0.833400
H151	H15	0.370800	0.124800	0.774600
C191	C19	0.518800	0.151000	0.706000
H161	H16	0.523700	0.189300	0.666700
C201	C20	0.547600	0.044200	0.757800
H171	H17	0.572100	0.011200	0.754500
C211	C21	0.554200	0.104600	0.709100
C221	C22	0.646700	0.098500	0.680000
H181	H18	0.655300	0.074200	0.738500
C231	C23	0.601900	0.155300	0.565100
H191	H19	0.576100	0.176000	0.529300
N51	N5	0.681000	0.121900	0.607900
N61	N6	0.599100	0.115600	0.654500
C241	C24	0.652800	0.156100	0.543500
H201	H20	0.666000	0.179100	0.487400
N71	N7	0.336900	0.081900	0.906300
N81	N8	0.419500	0.071200	0.864000
W111	W11	0.845640	0.667260	0.522340
W121	W12	0.734770	0.576940	0.607370
W131	W13	0.733390	0.667610	0.365420
W141	W14	0.734970	0.659320	0.826780
W151	W15	0.633330	0.658710	0.682310
Co31	Co3	0.759150	0.391050	0.600900
O291	O29	0.801200	0.606200	0.588500
O301	O30	0.624100	0.682400	0.544100
O311	O31	0.761100	0.384100	0.762600
O321	O32	0.757500	0.371900	0.447000
O331	O33	0.799400	0.669500	0.411700
O341	O34	0.663500	0.684300	0.355700
O351	O35	0.663700	0.577900	0.635000
O361	O36	0.800800	0.684800	0.797000
O371	O37	0.873800	0.682300	0.656200
O381	O38	0.664500	0.645200	0.812000
O391	O39	0.721800	0.605700	0.470300
O401	O40	0.745700	0.578000	0.752000
O411	O41	0.718600	0.686800	0.655000
O421	O42	0.742000	0.492200	0.589200
C251	C25	0.965900	0.417300	0.685700
C261	C26	0.973600	0.356500	0.737600
H211	H21	0.949900	0.322400	0.735300
C271	C27	0.001700	0.467100	0.685300
H221	H22	0.996500	0.506900	0.649600
C281	C28	0.912700	0.465900	0.556000
H231	H23	0.937000	0.490800	0.522700
C291	C29	0.862200	0.462000	0.529000
H241	H24	0.847500	0.485600	0.475100
C301	C30	0.875300	0.401100	0.666600
H251	H25	0.870800	0.375200	0.725400
C311	C31	0.018800	0.349000	0.794000
H261	H26	0.023700	0.310700	0.833300
C321	C32	0.047600	0.455800	0.742200
H271	H27	0.072100	0.488800	0.745500
C331	C33	0.054200	0.395400	0.790900
C341	C34	0.146700	0.401500	0.820000
H281	H28	0.155300	0.425800	0.761500
C351	C35	0.101900	0.344700	0.934900
H291	H29	0.076100	0.324000	0.970700
N91	N9	0.181000	0.378100	0.892100
N101	N10	0.099100	0.384400	0.845500
C361	C36	0.152800	0.343900	0.956500
H301	H30	0.166000	0.320900	0.012600
N111	N11	0.836900	0.418100	0.593700
N121	N12	0.919500	0.428800	0.636000
W161	W16	0.654360	0.332740	0.022340
W171	W17	0.765230	0.423060	0.107370
W181	W18	0.766610	0.332390	0.865420
W191	W19	0.765030	0.340680	0.326780
W201	W20	0.866670	0.341290	0.182310
Co41	Co4	0.740850	0.608950	0.100900
O431	O43	0.698800	0.393800	0.088500
O441	O44	0.875900	0.317600	0.044100
O451	O45	0.738900	0.615900	0.262600
O461	O46	0.742500	0.628100	0.947000
O471	O47	0.700600	0.330500	0.911700
O481	O48	0.836500	0.315700	0.855700
O491	O49	0.836300	0.422100	0.135000
O501	O50	0.699200	0.315200	0.297000
O511	O51	0.626200	0.317700	0.156200
O521	O52	0.835500	0.354800	0.312000
O531	O53	0.778200	0.394300	0.970300
O541	O54	0.754300	0.422000	0.252000
O551	O55	0.781400	0.313200	0.155000
O561	O56	0.758000	0.507800	0.089200
C371	C37	0.534100	0.582700	0.185700
C381	C38	0.526400	0.643500	0.237600
H311	H31	0.550100	0.677600	0.235300
C391	C39	0.498300	0.532900	0.185300
H321	H32	0.503500	0.493100	0.149600
C401	C40	0.587300	0.534100	0.056000
H331	H33	0.563000	0.509200	0.022700
C411	C41	0.637800	0.538000	0.029000
H341	H34	0.652500	0.514400	0.975100
C421	C42	0.624700	0.598900	0.166600
H351	H35	0.629200	0.624800	0.225400
C431	C43	0.481200	0.651000	0.294000
H361	H36	0.476300	0.689300	0.333300
C441	C44	0.452400	0.544200	0.242200
H371	H37	0.427900	0.511200	0.245500
C451	C45	0.445800	0.604600	0.290900
C461	C46	0.353300	0.598500	0.320000
H381	H38	0.344700	0.574200	0.261500
C471	C47	0.398100	0.655300	0.434900
H391	H39	0.423900	0.676000	0.470700
N131	N13	0.319000	0.621900	0.392100
N141	N14	0.400900	0.615600	0.345500
C481	C48	0.347200	0.656100	0.456500
H401	H40	0.334000	0.679100	0.512600
N151	N15	0.663100	0.581900	0.093700
N161	N16	0.580500	0.571200	0.136000
W211	W21	0.845640	0.832740	0.522340
W221	W22	0.734770	0.923060	0.607370
W231	W23	0.733390	0.832390	0.365420
W241	W24	0.734970	0.840680	0.826780
W251	W25	0.633330	0.841290	0.682310
Co51	Co5	0.759150	0.108950	0.600900
O571	O57	0.801200	0.893800	0.588500
O581	O58	0.624100	0.817600	0.544100
O591	O59	0.761100	0.115900	0.762600
O601	O60	0.757500	0.128100	0.447000
O611	O61	0.799400	0.830500	0.411700
O621	O62	0.663500	0.815700	0.355700
O631	O63	0.663700	0.922100	0.635000
O641	O64	0.800800	0.815200	0.797000
O651	O65	0.873800	0.817700	0.656200
O661	O66	0.664500	0.854800	0.812000
O671	O67	0.721800	0.894300	0.470300
O681	O68	0.745700	0.922000	0.752000
O691	O69	0.718600	0.813200	0.655000
O701	O70	0.742000	0.007800	0.589200
C491	C49	0.965900	0.082700	0.685700
C501	C50	0.973600	0.143500	0.737600
H411	H41	0.949900	0.177600	0.735300
C511	C51	0.001700	0.032900	0.685300
H421	H42	0.996500	0.993100	0.649600
C521	C52	0.912700	0.034100	0.556000
H431	H43	0.937000	0.009200	0.522700
C531	C53	0.862200	0.038000	0.529000
H441	H44	0.847500	0.014400	0.475100
C541	C54	0.875300	0.098900	0.666600
H451	H45	0.870800	0.124800	0.725400
C551	C55	0.018800	0.151000	0.794000
H461	H46	0.023700	0.189300	0.833300
C561	C56	0.047600	0.044200	0.742200
H471	H47	0.072100	0.011200	0.745500
C571	C57	0.054200	0.104600	0.790900
C581	C58	0.146700	0.098500	0.820000
H481	H48	0.155300	0.074200	0.761500
C591	C59	0.101900	0.155300	0.934900
H491	H49	0.076100	0.176000	0.970700
N171	N17	0.181000	0.121900	0.892100
N181	N18	0.099100	0.115600	0.845500
C601	C60	0.152800	0.156100	0.956500
H501	H50	0.166000	0.179100	0.012600
N191	N19	0.836900	0.081900	0.593700
N201	N20	0.919500	0.071200	0.636000
W261	W26	0.654360	0.167260	0.022340
W271	W27	0.765230	0.076940	0.107370
W281	W28	0.766610	0.167610	0.865420
W291	W29	0.765030	0.159320	0.326780
W301	W30	0.866670	0.158710	0.182310
Co61	Co6	0.740850	0.891050	0.100900
O711	O71	0.698800	0.106200	0.088500
O721	O72	0.875900	0.182400	0.044100
O731	O73	0.738900	0.884100	0.262600
O741	O74	0.742500	0.871900	0.947000
O751	O75	0.700600	0.169500	0.911700
O761	O76	0.836500	0.184300	0.855700
O771	O77	0.836300	0.077900	0.135000
O781	O78	0.699200	0.184800	0.297000
O791	O79	0.626200	0.182300	0.156200
O801	O80	0.835500	0.145200	0.312000
O811	O81	0.778200	0.105700	0.970300
O821	O82	0.754300	0.078000	0.252000
O831	O83	0.781400	0.186800	0.155000
O841	O84	0.758000	0.992200	0.089200
C611	C61	0.534100	0.917300	0.185700
C621	C62	0.526400	0.856500	0.237600
H511	H51	0.550100	0.822400	0.235300
C631	C63	0.498300	0.967100	0.185300
H521	H52	0.503500	0.006900	0.149600
C641	C64	0.587300	0.965900	0.056000
H531	H53	0.563000	0.990800	0.022700
C651	C65	0.637800	0.962000	0.029000
H541	H54	0.652500	0.985600	0.975100
C661	C66	0.624700	0.901100	0.166600
H551	H55	0.629200	0.875200	0.225400
C671	C67	0.481200	0.849000	0.294000
H561	H56	0.476300	0.810700	0.333300
C681	C68	0.452400	0.955800	0.242200
H571	H57	0.427900	0.988800	0.245500
C691	C69	0.445800	0.895400	0.290900
C701	C70	0.353300	0.901500	0.320000
H581	H58	0.344700	0.925800	0.261500
C711	C71	0.398100	0.844700	0.434900
H591	H59	0.423900	0.824000	0.470700
N211	N21	0.319000	0.878100	0.392100
N221	N22	0.400900	0.884400	0.345500
C721	C72	0.347200	0.843900	0.456500
H601	H60	0.334000	0.820900	0.512600
N231	N23	0.663100	0.918100	0.093700
N241	N24	0.580500	0.928800	0.136000
W311	W31	0.154360	0.332740	0.477660
W321	W32	0.265230	0.423060	0.392630
W331	W33	0.266610	0.332390	0.634580
W341	W34	0.265030	0.340680	0.173220
W351	W35	0.366670	0.341290	0.317690
Co71	Co7	0.240850	0.608950	0.399100
O851	O85	0.198800	0.393800	0.411500
O861	O86	0.375900	0.317600	0.455900
O871	O87	0.238900	0.615900	0.237400
O881	O88	0.242500	0.628100	0.553000
O891	O89	0.200600	0.330500	0.588300
O901	O90	0.336500	0.315700	0.644300
O911	O91	0.336300	0.422100	0.365000
O921	O92	0.199200	0.315200	0.203000
O931	O93	0.126200	0.317700	0.343800
O941	O94	0.335500	0.354800	0.188000
O951	O95	0.278200	0.394300	0.529700
O961	O96	0.254300	0.422000	0.248000
O971	O97	0.281400	0.313200	0.345000
O981	O98	0.258000	0.507800	0.410800
C731	C73	0.034100	0.582700	0.314300
C741	C74	0.026400	0.643500	0.262400
H611	H61	0.050100	0.677600	0.264700
C751	C75	0.998300	0.532900	0.314700
H621	H62	0.003500	0.493100	0.350400
C761	C76	0.087300	0.534100	0.444000
H631	H63	0.063000	0.509200	0.477300
C771	C77	0.137800	0.538000	0.471000
H641	H64	0.152500	0.514400	0.524900
C781	C78	0.124700	0.598900	0.333400
H651	H65	0.129200	0.624800	0.274600
C791	C79	0.981200	0.651000	0.206000
H661	H66	0.976300	0.689300	0.166700
C801	C80	0.952400	0.544200	0.257800
H671	H67	0.927900	0.511200	0.254500
C811	C81	0.945800	0.604600	0.209100
C821	C82	0.853300	0.598500	0.180000
H681	H68	0.844700	0.574200	0.238500
C831	C83	0.898100	0.655300	0.065100
H691	H69	0.923900	0.676000	0.029300
N251	N25	0.819000	0.621900	0.107900
N261	N26	0.900900	0.615600	0.154500
C841	C84	0.847200	0.656100	0.043500
H701	H70	0.834000	0.679100	0.987400
N271	N27	0.163100	0.581900	0.406300
N281	N28	0.080500	0.571200	0.364000
W361	W36	0.345640	0.667260	0.977660
W371	W37	0.234770	0.576940	0.892630
W381	W38	0.233390	0.667610	0.134580
W391	W39	0.234970	0.659320	0.673220
W401	W40	0.133330	0.658710	0.817690
Co81	Co8	0.259150	0.391050	0.899100
O991	O99	0.301200	0.606200	0.911500
O1001	O100	0.124100	0.682400	0.955900
O1011	O101	0.261100	0.384100	0.737400
O1021	O102	0.257500	0.371900	0.053000
O1031	O103	0.299400	0.669500	0.088300
O1041	O104	0.163500	0.684300	0.144300
O1051	O105	0.163700	0.577900	0.865000
O1061	O106	0.300800	0.684800	0.703000
O1071	O107	0.373800	0.682300	0.843800
O1081	O108	0.164500	0.645200	0.688000
O1091	O109	0.221800	0.605700	0.029700
O1101	O110	0.245700	0.578000	0.748000
O1111	O111	0.218600	0.686800	0.845000
O1121	O112	0.242000	0.492200	0.910800
C851	C85	0.465900	0.417300	0.814300
C861	C86	0.473600	0.356500	0.762400
H711	H71	0.449900	0.322400	0.764700
C871	C87	0.501700	0.467100	0.814700
H721	H72	0.496500	0.506900	0.850400
C881	C88	0.412700	0.465900	0.944000
H731	H73	0.437000	0.490800	0.977300
C891	C89	0.362200	0.462000	0.971000
H741	H74	0.347500	0.485600	0.024900
C901	C90	0.375300	0.401100	0.833400
H751	H75	0.370800	0.375200	0.774600
C911	C91	0.518800	0.349000	0.706000
H761	H76	0.523700	0.310700	0.666700
C921	C92	0.547600	0.455800	0.757800
H771	H77	0.572100	0.488800	0.754500
C931	C93	0.554200	0.395400	0.709100
C941	C94	0.646700	0.401500	0.680000
H781	H78	0.655300	0.425800	0.738500
C951	C95	0.601900	0.344700	0.565100
H791	H79	0.576100	0.324000	0.529300
N291	N29	0.681000	0.378100	0.607900
N301	N30	0.599100	0.384400	0.654500
C961	C96	0.652800	0.343900	0.543500
H801	H80	0.666000	0.320900	0.487400
N311	N31	0.336900	0.418100	0.906300
N321	N32	0.419500	0.428800	0.864000
W411	W41	0.153670	0.250000	0.256510
W421	W42	0.367560	0.250000	0.560140
B11	B1	0.262800	0.250000	0.401000
O1131	O113	0.125800	0.250000	0.520600
O1141	O114	0.255200	0.250000	0.707100
O1151	O115	0.282500	0.250000	0.513300
O1161	O116	0.206300	0.250000	0.402800
O1171	O117	0.375800	0.250000	0.282000
O1181	O118	0.277700	0.250000	0.142800
W431	W43	0.346330	0.750000	0.756510
W441	W44	0.132440	0.750000	0.060140
B21	B2	0.237200	0.750000	0.901000
O1191	O119	0.374200	0.750000	0.020600
O1201	O120	0.244800	0.750000	0.207100
O1211	O121	0.217500	0.750000	0.013300
O1221	O122	0.293700	0.750000	0.902800
O1231	O123	0.124200	0.750000	0.782000
O1241	O124	0.222300	0.750000	0.642800
W451	W45	0.846330	0.750000	0.743490
W461	W46	0.632440	0.750000	0.439860
B31	B3	0.737200	0.750000	0.599000
O1251	O125	0.874200	0.750000	0.479400
O1261	O126	0.744800	0.750000	0.292900
O1271	O127	0.717500	0.750000	0.486700
O1281	O128	0.793700	0.750000	0.597200
O1291	O129	0.624200	0.750000	0.718000
O1301	O130	0.722300	0.750000	0.857200
W471	W47	0.653670	0.250000	0.243490
W481	W48	0.867560	0.250000	0.939860
B41	B4	0.762800	0.250000	0.099000
O1311	O131	0.625800	0.250000	0.979400
O1321	O132	0.755200	0.250000	0.792900
O1331	O133	0.782500	0.250000	0.986700
O1341	O134	0.706300	0.250000	0.097200
O1351	O135	0.875800	0.250000	0.218000
O1361	O136	0.777700	0.250000	0.357200
