data_OQUZIL_clean_PM
_symmetry_space_group_name_H-M	'P1'
_cell_length_a	26.664000
_cell_length_b	20.022000
_cell_length_c	12.937000
_cell_angle_alpha	90.000000
_cell_angle_beta	90.000000
_cell_angle_gamma	90.000000
_symmetry_Int_Tables_number 1

loop_
_symmetry_equiv_pos_as_xyz
'x,y,z'

loop_
_atom_site_label
_atom_site_type_symbol
_atom_site_fract_x
_atom_site_fract_y
_atom_site_fract_z
W11	W1	0.154870	0.167190	0.969330
W21	W2	0.266720	0.168220	0.128350
W31	W3	0.266350	0.077660	0.885910
W41	W4	0.367990	0.158920	0.811620
W51	W5	0.266450	0.159550	0.666030
Ag11	Ag1	0.257100	0.105900	0.390800
O11	O1	0.281800	0.188400	0.841100
O21	O2	0.256400	0.078100	0.743700
O31	O3	0.378200	0.183800	0.953200
O41	O4	0.337500	0.184500	0.140000
O51	O5	0.200000	0.171400	0.078500
O61	O6	0.126000	0.184800	0.835300
O71	O7	0.200600	0.314500	0.696700
O81	O8	0.337700	0.146000	0.681100
O91	O9	0.337200	0.078700	0.855900
O101	O10	0.279800	0.105700	0.023100
O111	O11	0.260800	0.116200	0.234000
O121	O12	0.198900	0.107200	0.902600
O131	O13	0.258900	0.126100	0.547500
N11	N1	0.335400	0.078300	0.394000
N21	N2	0.684100	0.120800	0.115000
N31	N3	0.415400	0.070500	0.360700
N41	N4	0.598500	0.118700	0.156000
C11	C1	0.370300	0.098700	0.332000
H11	H1	0.365600	0.127900	0.277400
C21	C2	0.646200	0.099500	0.182000
H21	H2	0.653000	0.074000	0.240200
C31	C3	0.652400	0.156700	0.038000
H31	H3	0.665600	0.177500	0.979700
C41	C4	0.501100	0.034000	0.311000
H41	H4	0.495700	0.993200	0.343900
C51	C5	0.463200	0.081400	0.305000
C61	C6	0.406100	0.035500	0.442000
H51	H5	0.429600	0.011200	0.479300
C71	C7	0.358100	0.039600	0.463000
H61	H6	0.342400	0.018500	0.518700
C81	C8	0.470500	0.139800	0.250000
H71	H7	0.445000	0.171200	0.243700
C91	C9	0.515100	0.149000	0.208000
H81	H8	0.520000	0.189100	0.172100
C101	C10	0.603600	0.156400	0.060000
H91	H9	0.578000	0.176100	0.021800
C111	C11	0.555400	0.105400	0.213000
C121	C12	0.546000	0.048400	0.267000
H101	H10	0.572000	0.017800	0.275000
O141	O14	0.259900	0.992100	0.904800
W61	W6	0.345130	0.832810	0.469330
W71	W7	0.233280	0.831780	0.628350
W81	W8	0.233650	0.922340	0.385910
W91	W9	0.132010	0.841080	0.311620
W101	W10	0.233550	0.840450	0.166030
Ag21	Ag2	0.242900	0.894100	0.890800
O151	O15	0.218200	0.811600	0.341100
O161	O16	0.243600	0.921900	0.243700
O171	O17	0.121800	0.816200	0.453200
O181	O18	0.162500	0.815500	0.640000
O191	O19	0.300000	0.828600	0.578500
O201	O20	0.374000	0.815200	0.335300
O211	O21	0.299400	0.685500	0.196700
O221	O22	0.162300	0.854000	0.181100
O231	O23	0.162800	0.921300	0.355900
O241	O24	0.220200	0.894300	0.523100
O251	O25	0.239200	0.883800	0.734000
O261	O26	0.301100	0.892800	0.402600
O271	O27	0.241100	0.873900	0.047500
N51	N5	0.164600	0.921700	0.894000
N61	N6	0.815900	0.879200	0.615000
N71	N7	0.084600	0.929500	0.860700
N81	N8	0.901500	0.881300	0.656000
C131	C13	0.129700	0.901300	0.832000
H111	H11	0.134400	0.872100	0.777400
C141	C14	0.853800	0.900500	0.682000
H121	H12	0.847000	0.926000	0.740200
C151	C15	0.847600	0.843300	0.538000
H131	H13	0.834400	0.822500	0.479700
C161	C16	0.998900	0.966000	0.811000
H141	H14	0.004300	0.006800	0.843900
C171	C17	0.036800	0.918600	0.805000
C181	C18	0.093900	0.964500	0.942000
H151	H15	0.070400	0.988800	0.979300
C191	C19	0.141900	0.960400	0.963000
H161	H16	0.157600	0.981500	0.018700
C201	C20	0.029500	0.860200	0.750000
H171	H17	0.055000	0.828800	0.743700
C211	C21	0.984900	0.851000	0.708000
H181	H18	0.980000	0.810900	0.672100
C221	C22	0.896400	0.843600	0.560000
H191	H19	0.922000	0.823900	0.521800
C231	C23	0.944600	0.894600	0.713000
C241	C24	0.954000	0.951600	0.767000
H201	H20	0.928000	0.982200	0.775000
O281	O28	0.240100	0.007900	0.404800
W111	W11	0.845130	0.667190	0.030670
W121	W12	0.733280	0.668220	0.871650
W131	W13	0.733650	0.577660	0.114090
W141	W14	0.632010	0.658920	0.188380
W151	W15	0.733550	0.659550	0.333970
Ag31	Ag3	0.742900	0.605900	0.609200
O291	O29	0.718200	0.688400	0.158900
O301	O30	0.743600	0.578100	0.256300
O311	O31	0.621800	0.683800	0.046800
O321	O32	0.662500	0.684500	0.860000
O331	O33	0.800000	0.671400	0.921500
O341	O34	0.874000	0.684800	0.164700
O351	O35	0.799400	0.814500	0.303300
O361	O36	0.662300	0.646000	0.318900
O371	O37	0.662800	0.578700	0.144100
O381	O38	0.720200	0.605700	0.976900
O391	O39	0.739200	0.616200	0.766000
O401	O40	0.801100	0.607200	0.097400
O411	O41	0.741100	0.626100	0.452500
N91	N9	0.664600	0.578300	0.606000
N101	N10	0.315900	0.620800	0.885000
N111	N11	0.584600	0.570500	0.639300
N121	N12	0.401500	0.618700	0.844000
C251	C25	0.629700	0.598700	0.668000
H211	H21	0.634400	0.627900	0.722600
C261	C26	0.353800	0.599500	0.818000
H221	H22	0.347000	0.574000	0.759800
C271	C27	0.347600	0.656700	0.962000
H231	H23	0.334400	0.677500	0.020300
C281	C28	0.498900	0.534000	0.689000
H241	H24	0.504300	0.493200	0.656100
C291	C29	0.536800	0.581400	0.695000
C301	C30	0.593900	0.535500	0.558000
H251	H25	0.570400	0.511200	0.520700
C311	C31	0.641900	0.539600	0.537000
H261	H26	0.657600	0.518500	0.481300
C321	C32	0.529500	0.639800	0.750000
H271	H27	0.555000	0.671200	0.756300
C331	C33	0.484900	0.649000	0.792000
H281	H28	0.480000	0.689100	0.827900
C341	C34	0.396400	0.656400	0.940000
H291	H29	0.422000	0.676100	0.978200
C351	C35	0.444600	0.605400	0.787000
C361	C36	0.454000	0.548400	0.733000
H301	H30	0.428000	0.517800	0.725000
O421	O42	0.740100	0.492100	0.095200
W161	W16	0.654870	0.332810	0.530670
W171	W17	0.766720	0.331780	0.371650
W181	W18	0.766350	0.422340	0.614090
W191	W19	0.867990	0.341080	0.688380
W201	W20	0.766450	0.340450	0.833970
Ag41	Ag4	0.757100	0.394100	0.109200
O431	O43	0.781800	0.311600	0.658900
O441	O44	0.756400	0.421900	0.756300
O451	O45	0.878200	0.316200	0.546800
O461	O46	0.837500	0.315500	0.360000
O471	O47	0.700000	0.328600	0.421500
O481	O48	0.626000	0.315200	0.664700
O491	O49	0.700600	0.185500	0.803300
O501	O50	0.837700	0.354000	0.818900
O511	O51	0.837200	0.421300	0.644100
O521	O52	0.779800	0.394300	0.476900
O531	O53	0.760800	0.383800	0.266000
O541	O54	0.698900	0.392800	0.597400
O551	O55	0.758900	0.373900	0.952500
N131	N13	0.835400	0.421700	0.106000
N141	N14	0.184100	0.379200	0.385000
N151	N15	0.915400	0.429500	0.139300
N161	N16	0.098500	0.381300	0.344000
C371	C37	0.870300	0.401300	0.168000
H311	H31	0.865600	0.372100	0.222600
C381	C38	0.146200	0.400500	0.318000
H321	H32	0.153000	0.426000	0.259800
C391	C39	0.152400	0.343300	0.462000
H331	H33	0.165600	0.322500	0.520300
C401	C40	0.001100	0.466000	0.189000
H341	H34	0.995700	0.506800	0.156100
C411	C41	0.963200	0.418600	0.195000
C421	C42	0.906100	0.464500	0.058000
H351	H35	0.929600	0.488800	0.020700
C431	C43	0.858100	0.460400	0.037000
H361	H36	0.842400	0.481500	0.981300
C441	C44	0.970500	0.360200	0.250000
H371	H37	0.945000	0.328800	0.256300
C451	C45	0.015100	0.351000	0.292000
H381	H38	0.020000	0.310900	0.327900
C461	C46	0.103600	0.343600	0.440000
H391	H39	0.078000	0.323900	0.478200
C471	C47	0.055400	0.394600	0.287000
C481	C48	0.046000	0.451600	0.233000
H401	H40	0.072000	0.482200	0.225000
O561	O56	0.759900	0.507900	0.595200
W211	W21	0.845130	0.832810	0.030670
W221	W22	0.733280	0.831780	0.871650
W231	W23	0.733650	0.922340	0.114090
W241	W24	0.632010	0.841080	0.188380
W251	W25	0.733550	0.840450	0.333970
Ag51	Ag5	0.742900	0.894100	0.609200
O571	O57	0.718200	0.811600	0.158900
O581	O58	0.743600	0.921900	0.256300
O591	O59	0.621800	0.816200	0.046800
O601	O60	0.662500	0.815500	0.860000
O611	O61	0.800000	0.828600	0.921500
O621	O62	0.874000	0.815200	0.164700
O631	O63	0.799400	0.685500	0.303300
O641	O64	0.662300	0.854000	0.318900
O651	O65	0.662800	0.921300	0.144100
O661	O66	0.720200	0.894300	0.976900
O671	O67	0.739200	0.883800	0.766000
O681	O68	0.801100	0.892800	0.097400
O691	O69	0.741100	0.873900	0.452500
N171	N17	0.664600	0.921700	0.606000
N181	N18	0.315900	0.879200	0.885000
N191	N19	0.584600	0.929500	0.639300
N201	N20	0.401500	0.881300	0.844000
C491	C49	0.629700	0.901300	0.668000
H411	H41	0.634400	0.872100	0.722600
C501	C50	0.353800	0.900500	0.818000
H421	H42	0.347000	0.926000	0.759800
C511	C51	0.347600	0.843300	0.962000
H431	H43	0.334400	0.822500	0.020300
C521	C52	0.498900	0.966000	0.689000
H441	H44	0.504300	0.006800	0.656100
C531	C53	0.536800	0.918600	0.695000
C541	C54	0.593900	0.964500	0.558000
H451	H45	0.570400	0.988800	0.520700
C551	C55	0.641900	0.960400	0.537000
H461	H46	0.657600	0.981500	0.481300
C561	C56	0.529500	0.860200	0.750000
H471	H47	0.555000	0.828800	0.756300
C571	C57	0.484900	0.851000	0.792000
H481	H48	0.480000	0.810900	0.827900
C581	C58	0.396400	0.843600	0.940000
H491	H49	0.422000	0.823900	0.978200
C591	C59	0.444600	0.894600	0.787000
C601	C60	0.454000	0.951600	0.733000
H501	H50	0.428000	0.982200	0.725000
O701	O70	0.740100	0.007900	0.095200
W261	W26	0.654870	0.167190	0.530670
W271	W27	0.766720	0.168220	0.371650
W281	W28	0.766350	0.077660	0.614090
W291	W29	0.867990	0.158920	0.688380
W301	W30	0.766450	0.159550	0.833970
Ag61	Ag6	0.757100	0.105900	0.109200
O711	O71	0.781800	0.188400	0.658900
O721	O72	0.756400	0.078100	0.756300
O731	O73	0.878200	0.183800	0.546800
O741	O74	0.837500	0.184500	0.360000
O751	O75	0.700000	0.171400	0.421500
O761	O76	0.626000	0.184800	0.664700
O771	O77	0.700600	0.314500	0.803300
O781	O78	0.837700	0.146000	0.818900
O791	O79	0.837200	0.078700	0.644100
O801	O80	0.779800	0.105700	0.476900
O811	O81	0.760800	0.116200	0.266000
O821	O82	0.698900	0.107200	0.597400
O831	O83	0.758900	0.126100	0.952500
N211	N21	0.835400	0.078300	0.106000
N221	N22	0.184100	0.120800	0.385000
N231	N23	0.915400	0.070500	0.139300
N241	N24	0.098500	0.118700	0.344000
C611	C61	0.870300	0.098700	0.168000
H511	H51	0.865600	0.127900	0.222600
C621	C62	0.146200	0.099500	0.318000
H521	H52	0.153000	0.074000	0.259800
C631	C63	0.152400	0.156700	0.462000
H531	H53	0.165600	0.177500	0.520300
C641	C64	0.001100	0.034000	0.189000
H541	H54	0.995700	0.993200	0.156100
C651	C65	0.963200	0.081400	0.195000
C661	C66	0.906100	0.035500	0.058000
H551	H55	0.929600	0.011200	0.020700
C671	C67	0.858100	0.039600	0.037000
H561	H56	0.842400	0.018500	0.981300
C681	C68	0.970500	0.139800	0.250000
H571	H57	0.945000	0.171200	0.256300
C691	C69	0.015100	0.149000	0.292000
H581	H58	0.020000	0.189100	0.327900
C701	C70	0.103600	0.156400	0.440000
H591	H59	0.078000	0.176100	0.478200
C711	C71	0.055400	0.105400	0.287000
C721	C72	0.046000	0.048400	0.233000
H601	H60	0.072000	0.017800	0.225000
O841	O84	0.759900	0.992100	0.595200
W311	W31	0.154870	0.332810	0.969330
W321	W32	0.266720	0.331780	0.128350
W331	W33	0.266350	0.422340	0.885910
W341	W34	0.367990	0.341080	0.811620
W351	W35	0.266450	0.340450	0.666030
Ag71	Ag7	0.257100	0.394100	0.390800
O851	O85	0.281800	0.311600	0.841100
O861	O86	0.256400	0.421900	0.743700
O871	O87	0.378200	0.316200	0.953200
O881	O88	0.337500	0.315500	0.140000
O891	O89	0.200000	0.328600	0.078500
O901	O90	0.126000	0.315200	0.835300
O911	O91	0.200600	0.185500	0.696700
O921	O92	0.337700	0.354000	0.681100
O931	O93	0.337200	0.421300	0.855900
O941	O94	0.279800	0.394300	0.023100
O951	O95	0.260800	0.383800	0.234000
O961	O96	0.198900	0.392800	0.902600
O971	O97	0.258900	0.373900	0.547500
N251	N25	0.335400	0.421700	0.394000
N261	N26	0.684100	0.379200	0.115000
N271	N27	0.415400	0.429500	0.360700
N281	N28	0.598500	0.381300	0.156000
C731	C73	0.370300	0.401300	0.332000
H611	H61	0.365600	0.372100	0.277400
C741	C74	0.646200	0.400500	0.182000
H621	H62	0.653000	0.426000	0.240200
C751	C75	0.652400	0.343300	0.038000
H631	H63	0.665600	0.322500	0.979700
C761	C76	0.501100	0.466000	0.311000
H641	H64	0.495700	0.506800	0.343900
C771	C77	0.463200	0.418600	0.305000
C781	C78	0.406100	0.464500	0.442000
H651	H65	0.429600	0.488800	0.479300
C791	C79	0.358100	0.460400	0.463000
H661	H66	0.342400	0.481500	0.518700
C801	C80	0.470500	0.360200	0.250000
H671	H67	0.445000	0.328800	0.243700
C811	C81	0.515100	0.351000	0.208000
H681	H68	0.520000	0.310900	0.172100
C821	C82	0.603600	0.343600	0.060000
H691	H69	0.578000	0.323900	0.021800
C831	C83	0.555400	0.394600	0.213000
C841	C84	0.546000	0.451600	0.267000
H701	H70	0.572000	0.482200	0.275000
O981	O98	0.259900	0.507900	0.904800
W361	W36	0.345130	0.667190	0.469330
W371	W37	0.233280	0.668220	0.628350
W381	W38	0.233650	0.577660	0.385910
W391	W39	0.132010	0.658920	0.311620
W401	W40	0.233550	0.659550	0.166030
Ag81	Ag8	0.242900	0.605900	0.890800
O991	O99	0.218200	0.688400	0.341100
O1001	O100	0.243600	0.578100	0.243700
O1011	O101	0.121800	0.683800	0.453200
O1021	O102	0.162500	0.684500	0.640000
O1031	O103	0.300000	0.671400	0.578500
O1041	O104	0.374000	0.684800	0.335300
O1051	O105	0.299400	0.814500	0.196700
O1061	O106	0.162300	0.646000	0.181100
O1071	O107	0.162800	0.578700	0.355900
O1081	O108	0.220200	0.605700	0.523100
O1091	O109	0.239200	0.616200	0.734000
O1101	O110	0.301100	0.607200	0.402600
O1111	O111	0.241100	0.626100	0.047500
N291	N29	0.164600	0.578300	0.894000
N301	N30	0.815900	0.620800	0.615000
N311	N31	0.084600	0.570500	0.860700
N321	N32	0.901500	0.618700	0.656000
C851	C85	0.129700	0.598700	0.832000
H711	H71	0.134400	0.627900	0.777400
C861	C86	0.853800	0.599500	0.682000
H721	H72	0.847000	0.574000	0.740200
C871	C87	0.847600	0.656700	0.538000
H731	H73	0.834400	0.677500	0.479700
C881	C88	0.998900	0.534000	0.811000
H741	H74	0.004300	0.493200	0.843900
C891	C89	0.036800	0.581400	0.805000
C901	C90	0.093900	0.535500	0.942000
H751	H75	0.070400	0.511200	0.979300
C911	C91	0.141900	0.539600	0.963000
H761	H76	0.157600	0.518500	0.018700
C921	C92	0.029500	0.639800	0.750000
H771	H77	0.055000	0.671200	0.743700
C931	C93	0.984900	0.649000	0.708000
H781	H78	0.980000	0.689100	0.672100
C941	C94	0.896400	0.656400	0.560000
H791	H79	0.922000	0.676100	0.521800
C951	C95	0.944600	0.605400	0.713000
C961	C96	0.954000	0.548400	0.767000
H801	H80	0.928000	0.517800	0.775000
O1121	O112	0.240100	0.492100	0.404800
W411	W41	0.154690	0.250000	0.747650
W421	W42	0.367990	0.250000	0.054930
O1131	O113	0.207500	0.250000	0.894600
O1141	O114	0.376300	0.250000	0.775600
O1151	O115	0.127100	0.250000	0.007600
O1161	O116	0.279700	0.250000	0.636000
O1171	O117	0.256700	0.250000	0.201000
O1181	O118	0.284200	0.250000	0.004000
B11	B1	0.263700	0.250000	0.896000
W431	W43	0.345310	0.750000	0.247650
W441	W44	0.132010	0.750000	0.554930
O1191	O119	0.292500	0.750000	0.394600
O1201	O120	0.123700	0.750000	0.275600
O1211	O121	0.372900	0.750000	0.507600
O1221	O122	0.220300	0.750000	0.136000
O1231	O123	0.243300	0.750000	0.701000
O1241	O124	0.215800	0.750000	0.504000
B21	B2	0.236300	0.750000	0.396000
W451	W45	0.845310	0.750000	0.252350
W461	W46	0.632010	0.750000	0.945070
O1251	O125	0.792500	0.750000	0.105400
O1261	O126	0.623700	0.750000	0.224400
O1271	O127	0.872900	0.750000	0.992400
O1281	O128	0.720300	0.750000	0.364000
O1291	O129	0.743300	0.750000	0.799000
O1301	O130	0.715800	0.750000	0.996000
B31	B3	0.736300	0.750000	0.104000
W471	W47	0.654690	0.250000	0.752350
W481	W48	0.867990	0.250000	0.445070
O1311	O131	0.707500	0.250000	0.605400
O1321	O132	0.876300	0.250000	0.724400
O1331	O133	0.627100	0.250000	0.492400
O1341	O134	0.779700	0.250000	0.864000
O1351	O135	0.756700	0.250000	0.299000
O1361	O136	0.784200	0.250000	0.496000
B41	B4	0.763700	0.250000	0.604000
