data_ORAGOF_clean_PM
_symmetry_space_group_name_H-M	'P1'
_cell_length_a	15.876900
_cell_length_b	23.510300
_cell_length_c	23.157700
_cell_angle_alpha	90.000000
_cell_angle_beta	101.226000
_cell_angle_gamma	90.000000
_symmetry_Int_Tables_number 1

loop_
_symmetry_equiv_pos_as_xyz
'x,y,z'

loop_
_atom_site_label
_atom_site_type_symbol
_atom_site_fract_x
_atom_site_fract_y
_atom_site_fract_z
C11	C1	0.016800	0.416300	0.495300
C21	C2	0.074500	0.378800	0.530000
H11	H1	0.125700	0.368300	0.517300
C31	C3	0.058900	0.357800	0.580500
H21	H2	0.098400	0.332000	0.602800
C41	C4	0.984300	0.373600	0.600500
C51	C5	0.926500	0.411800	0.567400
H31	H3	0.876300	0.422800	0.581100
C61	C6	0.941800	0.433400	0.515600
H41	H4	0.902700	0.459500	0.493400
C71	C7	0.972900	0.353800	0.658800
C81	C8	0.179400	0.531800	0.603100
C91	C9	0.253100	0.502400	0.605900
H51	H5	0.293400	0.514100	0.582800
C101	C10	0.269900	0.456200	0.641500
H61	H6	0.321000	0.435200	0.641500
C111	C11	0.215000	0.438900	0.677700
C121	C12	0.139100	0.468400	0.674600
H71	H7	0.099600	0.457300	0.698500
C131	C13	0.120600	0.514500	0.636300
H81	H8	0.067500	0.534100	0.633100
C141	C14	0.235300	0.388600	0.716100
C151	C15	0.312100	0.465800	0.446700
C161	C16	0.394700	0.480600	0.475500
H91	H9	0.422700	0.513300	0.464200
C171	C17	0.434700	0.446000	0.521400
H101	H10	0.492900	0.453300	0.539200
C181	C18	0.390900	0.400300	0.542500
C191	C19	0.309200	0.386600	0.510700
H111	H11	0.280200	0.354500	0.522300
C201	C20	0.269900	0.418100	0.463700
H121	H12	0.214500	0.407800	0.442600
C211	C21	0.429900	0.370300	0.595300
C221	C22	0.274500	0.617500	0.354800
C231	C23	0.272000	0.647800	0.305000
H131	H13	0.224500	0.643700	0.273300
C241	C24	0.338300	0.684900	0.299700
H141	H14	0.336800	0.706300	0.264700
C251	C25	0.407200	0.689900	0.347400
C261	C26	0.409200	0.657500	0.396400
H151	H15	0.457900	0.659800	0.427400
C271	C27	0.343200	0.621400	0.402700
H161	H16	0.344200	0.600300	0.437800
C281	C28	0.479700	0.729600	0.343100
C291	C29	0.142700	0.684600	0.455700
C301	C30	0.098500	0.696200	0.401200
H171	H17	0.043400	0.680000	0.387800
C311	C31	0.135500	0.733000	0.363800
H181	H18	0.106600	0.740200	0.324600
C321	C32	0.211700	0.757300	0.385000
C331	C33	0.255400	0.747200	0.442200
H191	H19	0.309800	0.764200	0.456300
C341	C34	0.217900	0.711400	0.478500
H201	H20	0.244600	0.706000	0.518600
C351	C35	0.254600	0.795200	0.346300
C361	C36	0.909000	0.561600	0.370700
C371	C37	0.935000	0.587000	0.323300
H211	H21	0.975600	0.569700	0.303600
C381	C38	0.898000	0.639600	0.306100
H221	H22	0.918000	0.659800	0.275900
C391	C39	0.834900	0.663700	0.330100
C401	C40	0.808000	0.636200	0.375400
H231	H23	0.765700	0.652800	0.393900
C411	C41	0.843100	0.583900	0.393700
H241	H24	0.821100	0.563100	0.422800
C421	C42	0.794300	0.720300	0.310200
C431	C43	0.510900	0.577600	0.077600
C441	C44	0.559800	0.624300	0.064100
H251	H25	0.574700	0.626800	0.026400
C451	C45	0.586000	0.666000	0.105200
H261	H26	0.620100	0.696600	0.096000
C461	C46	0.562900	0.663800	0.159900
C471	C47	0.515600	0.617900	0.173100
H271	H27	0.499800	0.615600	0.210500
C481	C48	0.491200	0.575500	0.132000
H281	H28	0.459800	0.543900	0.142100
C491	C49	0.583400	0.710600	0.203600
C501	C50	0.198000	0.613600	0.144000
C511	C51	0.220500	0.668900	0.154300
H291	H29	0.275100	0.682100	0.149100
C521	C52	0.162200	0.706700	0.172800
H301	H30	0.177600	0.745500	0.179700
C531	C53	0.083000	0.688000	0.181100
C541	C54	0.064400	0.629600	0.172700
H311	H31	0.011800	0.615500	0.180700
C551	C55	0.118900	0.592500	0.153500
H321	H32	0.104000	0.553600	0.146800
C561	C56	0.023500	0.726500	0.201000
C571	C57	0.298800	0.719200	0.019400
C581	C58	0.371700	0.725300	0.058400
H331	H33	0.422100	0.706100	0.052800
C591	C59	0.373900	0.760300	0.108000
H341	H34	0.424100	0.763000	0.137900
C601	C60	0.298600	0.791600	0.112000
C611	C61	0.226500	0.786400	0.069200
H351	H35	0.176900	0.808100	0.071700
C621	C62	0.225100	0.749300	0.021900
H361	H36	0.174900	0.744900	0.992400
C631	C63	0.294400	0.823400	0.165600
C641	C64	0.414200	0.460300	0.923400
C651	C65	0.475600	0.491500	0.904100
H371	H37	0.499200	0.524500	0.924900
C661	C66	0.502600	0.474500	0.854600
H381	H38	0.545800	0.495800	0.840900
C671	C67	0.468500	0.427000	0.823800
C681	C68	0.407900	0.394000	0.845600
H391	H39	0.387100	0.359500	0.826700
C691	C69	0.379500	0.412000	0.894100
H401	H40	0.335800	0.391400	0.907900
C701	C70	0.503800	0.409200	0.770500
C711	C71	0.166300	0.575800	0.878300
C721	C72	0.197900	0.524000	0.866800
H411	H41	0.257900	0.517200	0.877600
C731	C73	0.144400	0.480700	0.839600
H421	H42	0.167700	0.444700	0.832900
C741	C74	0.058400	0.490300	0.822800
C751	C75	0.026700	0.543800	0.834800
H431	H43	0.966700	0.550500	0.823700
C761	C76	0.078300	0.587100	0.861900
H441	H44	0.055100	0.623100	0.869000
C771	C77	0.997400	0.445100	0.796700
C781	C78	0.135300	0.470300	0.020100
C791	C79	0.182700	0.425900	0.007900
H451	H45	0.240200	0.421900	0.028500
C801	C80	0.149000	0.387000	0.966500
H461	H46	0.183300	0.357200	0.955700
C811	C81	0.061800	0.392200	0.940200
C821	C82	0.014500	0.435800	0.955200
H471	H47	0.955800	0.438600	0.936800
C831	C83	0.049100	0.476400	0.996800
H481	H48	0.015600	0.506300	0.008300
C841	C84	0.026600	0.352400	0.891600
C851	C85	0.272300	0.952400	0.313900
C861	C86	0.208600	0.998000	0.320200
Ho11	Ho1	0.389810	0.863710	0.301060
Ho21	Ho2	0.871760	0.359400	0.769910
Ho31	Ho3	0.106290	0.307600	0.780270
Ho41	Ho4	0.609870	0.787600	0.299720
N11	N1	0.358000	0.580100	0.965800
N21	N2	0.330300	0.518100	0.057200
N31	N3	0.215000	0.600100	0.011100
N41	N4	0.105500	0.508000	0.383000
N51	N5	0.209700	0.567500	0.467800
N61	N6	0.047900	0.542800	0.481400
O11	O1	0.906000	0.369500	0.677200
O21	O2	0.030300	0.321700	0.686500
O31	O3	0.297600	0.358700	0.710800
O41	O4	0.188500	0.378800	0.754400
O51	O5	0.383100	0.334200	0.614400
O61	O6	0.505400	0.383000	0.618600
O71	O7	0.037200	0.437300	0.444500
O81	O8	0.161900	0.581600	0.568500
O91	O9	0.272400	0.499700	0.400500
O101	O10	0.944100	0.506900	0.390300
O111	O11	0.108200	0.647600	0.494200
O121	O12	0.203100	0.583400	0.355100
O131	O13	0.730100	0.735800	0.330400
O141	O14	0.824600	0.747500	0.272700
O151	O15	0.223000	0.797500	0.291300
O161	O16	0.322300	0.820800	0.370900
O171	O17	0.461100	0.775700	0.311200
O181	O18	0.553400	0.720100	0.366100
O191	O19	0.222400	0.846500	0.170400
O201	O20	0.358900	0.825600	0.207100
O211	O21	0.048300	0.776400	0.220500
O221	O22	0.945500	0.712900	0.196900
O231	O23	0.560000	0.703600	0.252600
O241	O24	0.623300	0.755600	0.197700
O251	O25	0.482800	0.535200	0.035900
O261	O26	0.298000	0.683300	0.969500
O271	O27	0.257900	0.578300	0.125100
O281	O28	0.384900	0.471000	0.975700
O291	O29	0.214800	0.620800	0.903900
O301	O30	0.168600	0.511000	0.064800
O311	O31	0.477400	0.362700	0.745000
O321	O32	0.560900	0.437300	0.754800
O331	O33	0.918000	0.454600	0.787900
O341	O34	0.026600	0.396700	0.783000
O351	O35	0.948200	0.354300	0.870800
O361	O36	0.079000	0.320000	0.872500
O371	O37	0.250300	0.912300	0.273800
O381	O38	0.345500	0.950000	0.344600
P11	P1	0.384850	0.530050	0.008820
P21	P2	0.246040	0.552930	0.061400
P31	P3	0.273300	0.617800	0.967250
P41	P4	0.193430	0.538970	0.405620
P51	P5	0.131800	0.581840	0.499700
P61	P6	0.038100	0.502680	0.426670
C871	C87	0.983200	0.916300	0.504700
C881	C88	0.925500	0.878800	0.470000
H491	H49	0.874300	0.868300	0.482700
C891	C89	0.941100	0.857800	0.419500
H501	H50	0.901600	0.832000	0.397200
C901	C90	0.015700	0.873600	0.399500
C911	C91	0.073500	0.911800	0.432600
H511	H51	0.123700	0.922800	0.418900
C921	C92	0.058200	0.933400	0.484400
H521	H52	0.097300	0.959500	0.506600
C931	C93	0.027100	0.853800	0.341200
C941	C94	0.820600	0.031800	0.396900
C951	C95	0.746900	0.002400	0.394100
H531	H53	0.706600	0.014100	0.417200
C961	C96	0.730100	0.956200	0.358500
H541	H54	0.679000	0.935200	0.358500
C971	C97	0.785000	0.938900	0.322300
C981	C98	0.860900	0.968400	0.325400
H551	H55	0.900400	0.957300	0.301500
C991	C99	0.879400	0.014500	0.363700
H561	H56	0.932500	0.034100	0.366900
C1001	C100	0.764700	0.888600	0.283900
C1011	C101	0.687900	0.965800	0.553300
C1021	C102	0.605300	0.980600	0.524500
H571	H57	0.577300	0.013300	0.535800
C1031	C103	0.565300	0.946000	0.478600
H581	H58	0.507100	0.953300	0.460800
C1041	C104	0.609100	0.900300	0.457500
C1051	C105	0.690800	0.886600	0.489300
H591	H59	0.719800	0.854500	0.477700
C1061	C106	0.730100	0.918100	0.536300
H601	H60	0.785500	0.907800	0.557400
C1071	C107	0.570100	0.870300	0.404700
C1081	C108	0.725500	0.117500	0.645200
C1091	C109	0.728000	0.147800	0.695000
H611	H61	0.775500	0.143700	0.726700
C1101	C110	0.661700	0.184900	0.700300
H621	H62	0.663200	0.206300	0.735300
C1111	C111	0.592800	0.189900	0.652600
C1121	C112	0.590800	0.157500	0.603600
H631	H63	0.542100	0.159800	0.572600
C1131	C113	0.656800	0.121400	0.597300
H641	H64	0.655800	0.100300	0.562200
C1141	C114	0.520300	0.229600	0.656900
C1151	C115	0.857300	0.184600	0.544300
C1161	C116	0.901500	0.196200	0.598800
H651	H65	0.956600	0.180000	0.612200
C1171	C117	0.864500	0.233000	0.636200
H661	H66	0.893400	0.240200	0.675400
C1181	C118	0.788300	0.257300	0.615000
C1191	C119	0.744600	0.247200	0.557800
H671	H67	0.690200	0.264200	0.543700
C1201	C120	0.782100	0.211400	0.521500
H681	H68	0.755400	0.206000	0.481400
C1211	C121	0.745400	0.295200	0.653700
C1221	C122	0.091000	0.061600	0.629300
C1231	C123	0.065000	0.087000	0.676700
H691	H69	0.024400	0.069700	0.696400
C1241	C124	0.102000	0.139600	0.693900
H701	H70	0.082000	0.159800	0.724100
C1251	C125	0.165100	0.163700	0.669900
C1261	C126	0.192000	0.136200	0.624600
H711	H71	0.234300	0.152800	0.606100
C1271	C127	0.156900	0.083900	0.606300
H721	H72	0.178900	0.063100	0.577200
C1281	C128	0.205700	0.220300	0.689800
C1291	C129	0.489100	0.077600	0.922400
C1301	C130	0.440200	0.124300	0.935900
H731	H73	0.425300	0.126800	0.973600
C1311	C131	0.414000	0.166000	0.894800
H741	H74	0.379900	0.196600	0.904000
C1321	C132	0.437100	0.163800	0.840100
C1331	C133	0.484400	0.117900	0.826900
H751	H75	0.500200	0.115600	0.789500
C1341	C134	0.508800	0.075500	0.868000
H761	H76	0.540200	0.043900	0.857900
C1351	C135	0.416600	0.210600	0.796400
C1361	C136	0.802000	0.113600	0.856000
C1371	C137	0.779500	0.168900	0.845700
H771	H77	0.724900	0.182100	0.850900
C1381	C138	0.837800	0.206700	0.827200
H781	H78	0.822400	0.245500	0.820300
C1391	C139	0.917000	0.188000	0.818900
C1401	C140	0.935600	0.129600	0.827300
H791	H79	0.988200	0.115500	0.819300
C1411	C141	0.881100	0.092500	0.846500
H801	H80	0.896000	0.053600	0.853200
C1421	C142	0.976500	0.226500	0.799000
C1431	C143	0.701200	0.219200	0.980600
C1441	C144	0.628300	0.225300	0.941600
H811	H81	0.577900	0.206100	0.947200
C1451	C145	0.626100	0.260300	0.892000
H821	H82	0.575900	0.263000	0.862100
C1461	C146	0.701400	0.291600	0.888000
C1471	C147	0.773500	0.286400	0.930800
H831	H83	0.823100	0.308100	0.928300
C1481	C148	0.774900	0.249300	0.978100
H841	H84	0.825100	0.244900	0.007600
C1491	C149	0.705600	0.323400	0.834400
C1501	C150	0.585800	0.960300	0.076600
C1511	C151	0.524400	0.991500	0.095900
H851	H85	0.500800	0.024500	0.075100
C1521	C152	0.497400	0.974500	0.145400
H861	H86	0.454200	0.995800	0.159100
C1531	C153	0.531500	0.927000	0.176200
C1541	C154	0.592100	0.894000	0.154400
H871	H87	0.612900	0.859500	0.173300
C1551	C155	0.620500	0.912000	0.105900
H881	H88	0.664200	0.891400	0.092100
C1561	C156	0.496200	0.909200	0.229500
C1571	C157	0.833700	0.075800	0.121700
C1581	C158	0.802100	0.024000	0.133200
H891	H89	0.742100	0.017200	0.122400
C1591	C159	0.855600	0.980700	0.160400
H901	H90	0.832300	0.944700	0.167100
C1601	C160	0.941600	0.990300	0.177200
C1611	C161	0.973300	0.043800	0.165200
H911	H91	0.033300	0.050500	0.176300
C1621	C162	0.921700	0.087100	0.138100
H921	H92	0.944900	0.123100	0.131000
C1631	C163	0.002600	0.945100	0.203300
C1641	C164	0.864700	0.970300	0.979900
C1651	C165	0.817300	0.925900	0.992100
H931	H93	0.759800	0.921900	0.971500
C1661	C166	0.851000	0.887000	0.033500
H941	H94	0.816700	0.857200	0.044300
C1671	C167	0.938200	0.892200	0.059800
C1681	C168	0.985500	0.935800	0.044800
H951	H95	0.044200	0.938600	0.063200
C1691	C169	0.950900	0.976400	0.003200
H961	H96	0.984400	0.006300	0.991700
C1701	C170	0.973400	0.852400	0.108400
C1711	C171	0.727700	0.452400	0.686100
C1721	C172	0.791400	0.498000	0.679800
Ho51	Ho5	0.610190	0.363710	0.698940
Ho61	Ho6	0.128240	0.859400	0.230090
Ho71	Ho7	0.893710	0.807600	0.219730
Ho81	Ho8	0.390130	0.287600	0.700280
N71	N7	0.642000	0.080100	0.034200
N81	N8	0.669700	0.018100	0.942800
N91	N9	0.785000	0.100100	0.988900
N101	N10	0.894500	0.008000	0.617000
N111	N11	0.790300	0.067500	0.532200
N121	N12	0.952100	0.042800	0.518600
O391	O39	0.094000	0.869500	0.322800
O401	O40	0.969700	0.821700	0.313500
O411	O41	0.702400	0.858700	0.289200
O421	O42	0.811500	0.878800	0.245600
O431	O43	0.616900	0.834200	0.385600
O441	O44	0.494600	0.883000	0.381400
O451	O45	0.962800	0.937300	0.555500
O461	O46	0.838100	0.081600	0.431500
O471	O47	0.727600	0.999700	0.599500
O481	O48	0.055900	0.006900	0.609700
O491	O49	0.891800	0.147600	0.505800
O501	O50	0.796900	0.083400	0.644900
O511	O51	0.269900	0.235800	0.669600
O521	O52	0.175400	0.247500	0.727300
O531	O53	0.777000	0.297500	0.708700
O541	O54	0.677700	0.320800	0.629100
O551	O55	0.538900	0.275700	0.688800
O561	O56	0.446600	0.220100	0.633900
O571	O57	0.777600	0.346500	0.829600
O581	O58	0.641100	0.325600	0.792900
O591	O59	0.951700	0.276400	0.779500
O601	O60	0.054500	0.212900	0.803100
O611	O61	0.440000	0.203600	0.747400
O621	O62	0.376700	0.255600	0.802300
O631	O63	0.517200	0.035200	0.964100
O641	O64	0.702000	0.183300	0.030500
O651	O65	0.742100	0.078300	0.874900
O661	O66	0.615100	0.971000	0.024300
O671	O67	0.785200	0.120800	0.096100
O681	O68	0.831400	0.011000	0.935200
O691	O69	0.522600	0.862700	0.255000
O701	O70	0.439100	0.937300	0.245200
O711	O71	0.082000	0.954600	0.212100
O721	O72	0.973400	0.896700	0.217000
O731	O73	0.051800	0.854300	0.129200
O741	O74	0.921000	0.820000	0.127500
O751	O75	0.749700	0.412300	0.726200
O761	O76	0.654500	0.450000	0.655400
P71	P7	0.615150	0.030050	0.991180
P81	P8	0.753960	0.052930	0.938600
P91	P9	0.726700	0.117800	0.032750
P101	P10	0.806570	0.038970	0.594380
P111	P11	0.868200	0.081840	0.500300
P121	P12	0.961900	0.002680	0.573330
