data_ORAJOH_clean_PM
_symmetry_space_group_name_H-M	'P1'
_cell_length_a	14.406600
_cell_length_b	21.333000
_cell_length_c	20.632000
_cell_angle_alpha	90.000000
_cell_angle_beta	90.000000
_cell_angle_gamma	90.000000
_symmetry_Int_Tables_number 1

loop_
_symmetry_equiv_pos_as_xyz
'x,y,z'

loop_
_atom_site_label
_atom_site_type_symbol
_atom_site_fract_x
_atom_site_fract_y
_atom_site_fract_z
Re11	Re1	0.904210	0.638820	0.441220
S11	S1	0.869640	0.737250	0.488880
N11	N1	0.148500	0.808900	0.319500
C11	C1	0.096100	0.786500	0.354700
N21	N2	0.352100	0.841400	0.153500
C21	C2	0.095500	0.669300	0.614200
C31	C3	0.888100	0.551400	0.394000
C41	C4	0.794300	0.604500	0.498800
C51	C5	0.791900	0.659200	0.379400
N31	N3	0.881000	0.506200	0.365100
N41	N4	0.735200	0.584700	0.529300
N51	N5	0.731100	0.670400	0.345900
Re21	Re2	0.404210	0.138820	0.441220
S21	S2	0.369640	0.237250	0.488880
N61	N6	0.648500	0.308900	0.319500
C61	C6	0.596100	0.286500	0.354700
N71	N7	0.852100	0.341400	0.153500
C71	C7	0.595500	0.169300	0.614200
C81	C8	0.388100	0.051400	0.394000
C91	C9	0.294300	0.104500	0.498800
C101	C10	0.291900	0.159200	0.379400
N81	N8	0.381000	0.006200	0.365100
N91	N9	0.235200	0.084700	0.529300
N101	N10	0.231100	0.170400	0.345900
Re31	Re3	0.095790	0.361180	0.941220
S31	S3	0.130360	0.262750	0.988880
N111	N11	0.851500	0.191100	0.819500
C111	C11	0.903900	0.213500	0.854700
N121	N12	0.647900	0.158600	0.653500
C121	C12	0.904500	0.330700	0.114200
C131	C13	0.111900	0.448600	0.894000
C141	C14	0.205700	0.395500	0.998800
C151	C15	0.208100	0.340800	0.879400
N131	N13	0.119000	0.493800	0.865100
N141	N14	0.264800	0.415300	0.029300
N151	N15	0.268900	0.329600	0.845900
Re41	Re4	0.595790	0.861180	0.941220
S41	S4	0.630360	0.762750	0.988880
N161	N16	0.351500	0.691100	0.819500
C161	C16	0.403900	0.713500	0.854700
N171	N17	0.147900	0.658600	0.653500
C171	C17	0.404500	0.830700	0.114200
C181	C18	0.611900	0.948600	0.894000
C191	C19	0.705700	0.895500	0.998800
C201	C20	0.708100	0.840800	0.879400
N181	N18	0.619000	0.993800	0.865100
N191	N19	0.764800	0.915300	0.029300
N201	N20	0.768900	0.829600	0.845900
Re51	Re5	0.095790	0.638820	0.058780
S51	S5	0.130360	0.737250	0.011120
N211	N21	0.851500	0.808900	0.180500
C211	C21	0.903900	0.786500	0.145300
N221	N22	0.647900	0.841400	0.346500
C221	C22	0.904500	0.669300	0.885800
C231	C23	0.111900	0.551400	0.106000
C241	C24	0.205700	0.604500	0.001200
C251	C25	0.208100	0.659200	0.120600
N231	N23	0.119000	0.506200	0.134900
N241	N24	0.264800	0.584700	0.970700
N251	N25	0.268900	0.670400	0.154100
Re61	Re6	0.595790	0.138820	0.058780
S61	S6	0.630360	0.237250	0.011120
N261	N26	0.351500	0.308900	0.180500
C261	C26	0.403900	0.286500	0.145300
N271	N27	0.147900	0.341400	0.346500
C271	C27	0.404500	0.169300	0.885800
C281	C28	0.611900	0.051400	0.106000
C291	C29	0.705700	0.104500	0.001200
C301	C30	0.708100	0.159200	0.120600
N281	N28	0.619000	0.006200	0.134900
N291	N29	0.764800	0.084700	0.970700
N301	N30	0.768900	0.170400	0.154100
Re71	Re7	0.904210	0.361180	0.558780
S71	S7	0.869640	0.262750	0.511120
N311	N31	0.148500	0.191100	0.680500
C311	C31	0.096100	0.213500	0.645300
N321	N32	0.352100	0.158600	0.846500
C321	C32	0.095500	0.330700	0.385800
C331	C33	0.888100	0.448600	0.606000
C341	C34	0.794300	0.395500	0.501200
C351	C35	0.791900	0.340800	0.620600
N331	N33	0.881000	0.493800	0.634900
N341	N34	0.735200	0.415300	0.470700
N351	N35	0.731100	0.329600	0.654100
Re81	Re8	0.404210	0.861180	0.558780
S81	S8	0.369640	0.762750	0.511120
N361	N36	0.648500	0.691100	0.680500
C361	C36	0.596100	0.713500	0.645300
N371	N37	0.852100	0.658600	0.846500
C371	C37	0.595500	0.830700	0.385800
C381	C38	0.388100	0.948600	0.606000
C391	C39	0.294300	0.895500	0.501200
C401	C40	0.291900	0.840800	0.620600
N381	N38	0.381000	0.993800	0.634900
N391	N39	0.235200	0.915300	0.470700
N401	N40	0.231100	0.829600	0.654100
Re91	Re9	0.095790	0.361180	0.558780
S91	S9	0.130360	0.262750	0.511120
N411	N41	0.851500	0.191100	0.680500
C411	C41	0.903900	0.213500	0.645300
N421	N42	0.647900	0.158600	0.846500
C421	C42	0.904500	0.330700	0.385800
C431	C43	0.111900	0.448600	0.606000
C441	C44	0.205700	0.395500	0.501200
C451	C45	0.208100	0.340800	0.620600
N431	N43	0.119000	0.493800	0.634900
N441	N44	0.264800	0.415300	0.470700
N451	N45	0.268900	0.329600	0.654100
Re101	Re10	0.595790	0.861180	0.558780
S101	S10	0.630360	0.762750	0.511120
N461	N46	0.351500	0.691100	0.680500
C461	C46	0.403900	0.713500	0.645300
N471	N47	0.147900	0.658600	0.846500
C471	C47	0.404500	0.830700	0.385800
C481	C48	0.611900	0.948600	0.606000
C491	C49	0.705700	0.895500	0.501200
C501	C50	0.708100	0.840800	0.620600
N481	N48	0.619000	0.993800	0.634900
N491	N49	0.764800	0.915300	0.470700
N501	N50	0.768900	0.829600	0.654100
Re111	Re11	0.904210	0.638820	0.058780
S111	S11	0.869640	0.737250	0.011120
N511	N51	0.148500	0.808900	0.180500
C511	C51	0.096100	0.786500	0.145300
N521	N52	0.352100	0.841400	0.346500
C521	C52	0.095500	0.669300	0.885800
C531	C53	0.888100	0.551400	0.106000
C541	C54	0.794300	0.604500	0.001200
C551	C55	0.791900	0.659200	0.120600
N531	N53	0.881000	0.506200	0.134900
N541	N54	0.735200	0.584700	0.970700
N551	N55	0.731100	0.670400	0.154100
Re121	Re12	0.404210	0.138820	0.058780
S121	S12	0.369640	0.237250	0.011120
N561	N56	0.648500	0.308900	0.180500
C561	C56	0.596100	0.286500	0.145300
N571	N57	0.852100	0.341400	0.346500
C571	C57	0.595500	0.169300	0.885800
C581	C58	0.388100	0.051400	0.106000
C591	C59	0.294300	0.104500	0.001200
C601	C60	0.291900	0.159200	0.120600
N581	N58	0.381000	0.006200	0.134900
N591	N59	0.235200	0.084700	0.970700
N601	N60	0.231100	0.170400	0.154100
Re131	Re13	0.904210	0.361180	0.941220
S131	S13	0.869640	0.262750	0.988880
N611	N61	0.148500	0.191100	0.819500
C611	C61	0.096100	0.213500	0.854700
N621	N62	0.352100	0.158600	0.653500
C621	C62	0.095500	0.330700	0.114200
C631	C63	0.888100	0.448600	0.894000
C641	C64	0.794300	0.395500	0.998800
C651	C65	0.791900	0.340800	0.879400
N631	N63	0.881000	0.493800	0.865100
N641	N64	0.735200	0.415300	0.029300
N651	N65	0.731100	0.329600	0.845900
Re141	Re14	0.404210	0.861180	0.941220
S141	S14	0.369640	0.762750	0.988880
N661	N66	0.648500	0.691100	0.819500
C661	C66	0.596100	0.713500	0.854700
N671	N67	0.852100	0.658600	0.653500
C671	C67	0.595500	0.830700	0.114200
C681	C68	0.388100	0.948600	0.894000
C691	C69	0.294300	0.895500	0.998800
C701	C70	0.291900	0.840800	0.879400
N681	N68	0.381000	0.993800	0.865100
N691	N69	0.235200	0.915300	0.029300
N701	N70	0.231100	0.829600	0.845900
Re151	Re15	0.095790	0.638820	0.441220
S151	S15	0.130360	0.737250	0.488880
N711	N71	0.851500	0.808900	0.319500
C711	C71	0.903900	0.786500	0.354700
N721	N72	0.647900	0.841400	0.153500
C721	C72	0.904500	0.669300	0.614200
C731	C73	0.111900	0.551400	0.394000
C741	C74	0.205700	0.604500	0.498800
C751	C75	0.208100	0.659200	0.379400
N731	N73	0.119000	0.506200	0.365100
N741	N74	0.264800	0.584700	0.529300
N751	N75	0.268900	0.670400	0.345900
Re161	Re16	0.595790	0.138820	0.441220
S161	S16	0.630360	0.237250	0.488880
N761	N76	0.351500	0.308900	0.319500
C761	C76	0.403900	0.286500	0.354700
N771	N77	0.147900	0.341400	0.153500
C771	C77	0.404500	0.169300	0.614200
C781	C78	0.611900	0.051400	0.394000
C791	C79	0.705700	0.104500	0.498800
C801	C80	0.708100	0.159200	0.379400
N781	N78	0.619000	0.006200	0.365100
N791	N79	0.764800	0.084700	0.529300
N801	N80	0.768900	0.170400	0.345900
Re171	Re17	0.000000	0.748930	0.420610
Re181	Re18	0.000000	0.694020	0.541390
S171	S17	0.000000	0.661230	0.351190
S181	S18	0.000000	0.583960	0.517190
C811	C81	0.000000	0.842100	0.451600
C821	C82	0.000000	0.778000	0.595100
N811	N81	0.000000	0.823000	0.625100
N821	N82	0.000000	0.894600	0.465100
Re191	Re19	0.500000	0.248930	0.420610
Re201	Re20	0.500000	0.194020	0.541390
S191	S19	0.500000	0.161230	0.351190
S201	S20	0.500000	0.083960	0.517190
C831	C83	0.500000	0.342100	0.451600
C841	C84	0.500000	0.278000	0.595100
N831	N83	0.500000	0.323000	0.625100
N841	N84	0.500000	0.394600	0.465100
Re211	Re21	0.000000	0.251070	0.920610
Re221	Re22	0.000000	0.305980	0.041390
S211	S21	0.000000	0.338770	0.851190
S221	S22	0.000000	0.416040	0.017190
C851	C85	0.000000	0.157900	0.951600
C861	C86	0.000000	0.222000	0.095100
N851	N85	0.000000	0.177000	0.125100
N861	N86	0.000000	0.105400	0.965100
Re231	Re23	0.500000	0.751070	0.920610
Re241	Re24	0.500000	0.805980	0.041390
S231	S23	0.500000	0.838770	0.851190
S241	S24	0.500000	0.916040	0.017190
C871	C87	0.500000	0.657900	0.951600
C881	C88	0.500000	0.722000	0.095100
N871	N87	0.500000	0.677000	0.125100
N881	N88	0.500000	0.605400	0.965100
Re251	Re25	0.000000	0.748930	0.079390
Re261	Re26	0.000000	0.694020	0.958610
S251	S25	0.000000	0.661230	0.148810
S261	S26	0.000000	0.583960	0.982810
C891	C89	0.000000	0.842100	0.048400
C901	C90	0.000000	0.778000	0.904900
N891	N89	0.000000	0.823000	0.874900
N901	N90	0.000000	0.894600	0.034900
Re271	Re27	0.500000	0.248930	0.079390
Re281	Re28	0.500000	0.194020	0.958610
S271	S27	0.500000	0.161230	0.148810
S281	S28	0.500000	0.083960	0.982810
C911	C91	0.500000	0.342100	0.048400
C921	C92	0.500000	0.278000	0.904900
N911	N91	0.500000	0.323000	0.874900
N921	N92	0.500000	0.394600	0.034900
Re291	Re29	0.000000	0.251070	0.579390
Re301	Re30	0.000000	0.305980	0.458610
S291	S29	0.000000	0.338770	0.648810
S301	S30	0.000000	0.416040	0.482810
C931	C93	0.000000	0.157900	0.548400
C941	C94	0.000000	0.222000	0.404900
N931	N93	0.000000	0.177000	0.374900
N941	N94	0.000000	0.105400	0.534900
Re311	Re31	0.500000	0.751070	0.579390
Re321	Re32	0.500000	0.805980	0.458610
S311	S31	0.500000	0.838770	0.648810
S321	S32	0.500000	0.916040	0.482810
C951	C95	0.500000	0.657900	0.548400
C961	C96	0.500000	0.722000	0.404900
N951	N95	0.500000	0.677000	0.374900
N961	N96	0.500000	0.605400	0.534900
Lu11	Lu1	0.262610	0.857300	0.250000
Lu21	Lu2	0.762610	0.357300	0.250000
Lu31	Lu3	0.737390	0.142700	0.750000
Lu41	Lu4	0.237390	0.642700	0.750000
Lu51	Lu5	0.737390	0.857300	0.250000
Lu61	Lu6	0.237390	0.357300	0.250000
Lu71	Lu7	0.262610	0.142700	0.750000
Lu81	Lu8	0.762610	0.642700	0.750000
K11	K1	0.587580	0.500000	0.500000
K21	K2	0.087580	0.000000	0.500000
K31	K3	0.412420	0.500000	0.000000
K41	K4	0.912420	0.000000	0.000000
K51	K5	0.412420	0.500000	0.500000
K61	K6	0.912420	0.000000	0.500000
K71	K7	0.587580	0.500000	0.000000
K81	K8	0.087580	0.000000	0.000000
