data_ORAJAT_clean_PM
_symmetry_space_group_name_H-M	'P1'
_cell_length_a	14.518500
_cell_length_b	21.570200
_cell_length_c	20.620100
_cell_angle_alpha	90.000000
_cell_angle_beta	90.000000
_cell_angle_gamma	90.000000
_symmetry_Int_Tables_number 1

loop_
_symmetry_equiv_pos_as_xyz
'x,y,z'

loop_
_atom_site_label
_atom_site_type_symbol
_atom_site_fract_x
_atom_site_fract_y
_atom_site_fract_z
Re11	Re1	0.095100	0.361780	0.559170
S11	S1	0.129400	0.264520	0.511640
N11	N1	0.146800	0.341500	0.345800
N21	N2	0.266900	0.330900	0.654800
N31	N3	0.119500	0.493200	0.635600
N41	N4	0.260800	0.414000	0.467800
N51	N5	0.148000	0.192600	0.679500
C11	C1	0.094800	0.330600	0.386500
C21	C2	0.206000	0.341600	0.621300
C31	C3	0.110900	0.448000	0.606100
C41	C4	0.203700	0.395700	0.500700
C51	C5	0.095300	0.214800	0.645200
Re21	Re2	0.595100	0.861780	0.559170
S21	S2	0.629400	0.764520	0.511640
N61	N6	0.646800	0.841500	0.345800
N71	N7	0.766900	0.830900	0.654800
N81	N8	0.619500	0.993200	0.635600
N91	N9	0.760800	0.914000	0.467800
N101	N10	0.648000	0.692600	0.679500
C61	C6	0.594800	0.830600	0.386500
C71	C7	0.706000	0.841600	0.621300
C81	C8	0.610900	0.948000	0.606100
C91	C9	0.703700	0.895700	0.500700
C101	C10	0.595300	0.714800	0.645200
Re31	Re3	0.904900	0.638220	0.059170
S31	S3	0.870600	0.735480	0.011640
N111	N11	0.853200	0.658500	0.845800
N121	N12	0.733100	0.669100	0.154800
N131	N13	0.880500	0.506800	0.135600
N141	N14	0.739200	0.586000	0.967800
N151	N15	0.852000	0.807400	0.179500
C111	C11	0.905200	0.669400	0.886500
C121	C12	0.794000	0.658400	0.121300
C131	C13	0.889100	0.552000	0.106100
C141	C14	0.796300	0.604300	0.000700
C151	C15	0.904700	0.785200	0.145200
Re41	Re4	0.404900	0.138220	0.059170
S41	S4	0.370600	0.235480	0.011640
N161	N16	0.353200	0.158500	0.845800
N171	N17	0.233100	0.169100	0.154800
N181	N18	0.380500	0.006800	0.135600
N191	N19	0.239200	0.086000	0.967800
N201	N20	0.352000	0.307400	0.179500
C161	C16	0.405200	0.169400	0.886500
C171	C17	0.294000	0.158400	0.121300
C181	C18	0.389100	0.052000	0.106100
C191	C19	0.296300	0.104300	0.000700
C201	C20	0.404700	0.285200	0.145200
Re51	Re5	0.904900	0.361780	0.940830
S51	S5	0.870600	0.264520	0.988360
N211	N21	0.853200	0.341500	0.154200
N221	N22	0.733100	0.330900	0.845200
N231	N23	0.880500	0.493200	0.864400
N241	N24	0.739200	0.414000	0.032200
N251	N25	0.852000	0.192600	0.820500
C211	C21	0.905200	0.330600	0.113500
C221	C22	0.794000	0.341600	0.878700
C231	C23	0.889100	0.448000	0.893900
C241	C24	0.796300	0.395700	0.999300
C251	C25	0.904700	0.214800	0.854800
Re61	Re6	0.404900	0.861780	0.940830
S61	S6	0.370600	0.764520	0.988360
N261	N26	0.353200	0.841500	0.154200
N271	N27	0.233100	0.830900	0.845200
N281	N28	0.380500	0.993200	0.864400
N291	N29	0.239200	0.914000	0.032200
N301	N30	0.352000	0.692600	0.820500
C261	C26	0.405200	0.830600	0.113500
C271	C27	0.294000	0.841600	0.878700
C281	C28	0.389100	0.948000	0.893900
C291	C29	0.296300	0.895700	0.999300
C301	C30	0.404700	0.714800	0.854800
Re71	Re7	0.095100	0.638220	0.440830
S71	S7	0.129400	0.735480	0.488360
N311	N31	0.146800	0.658500	0.654200
N321	N32	0.266900	0.669100	0.345200
N331	N33	0.119500	0.506800	0.364400
N341	N34	0.260800	0.586000	0.532200
N351	N35	0.148000	0.807400	0.320500
C311	C31	0.094800	0.669400	0.613500
C321	C32	0.206000	0.658400	0.378700
C331	C33	0.110900	0.552000	0.393900
C341	C34	0.203700	0.604300	0.499300
C351	C35	0.095300	0.785200	0.354800
Re81	Re8	0.595100	0.138220	0.440830
S81	S8	0.629400	0.235480	0.488360
N361	N36	0.646800	0.158500	0.654200
N371	N37	0.766900	0.169100	0.345200
N381	N38	0.619500	0.006800	0.364400
N391	N39	0.760800	0.086000	0.532200
N401	N40	0.648000	0.307400	0.320500
C361	C36	0.594800	0.169400	0.613500
C371	C37	0.706000	0.158400	0.378700
C381	C38	0.610900	0.052000	0.393900
C391	C39	0.703700	0.104300	0.499300
C401	C40	0.595300	0.285200	0.354800
Re91	Re9	0.904900	0.638220	0.440830
S91	S9	0.870600	0.735480	0.488360
N411	N41	0.853200	0.658500	0.654200
N421	N42	0.733100	0.669100	0.345200
N431	N43	0.880500	0.506800	0.364400
N441	N44	0.739200	0.586000	0.532200
N451	N45	0.852000	0.807400	0.320500
C411	C41	0.905200	0.669400	0.613500
C421	C42	0.794000	0.658400	0.378700
C431	C43	0.889100	0.552000	0.393900
C441	C44	0.796300	0.604300	0.499300
C451	C45	0.904700	0.785200	0.354800
Re101	Re10	0.404900	0.138220	0.440830
S101	S10	0.370600	0.235480	0.488360
N461	N46	0.353200	0.158500	0.654200
N471	N47	0.233100	0.169100	0.345200
N481	N48	0.380500	0.006800	0.364400
N491	N49	0.239200	0.086000	0.532200
N501	N50	0.352000	0.307400	0.320500
C461	C46	0.405200	0.169400	0.613500
C471	C47	0.294000	0.158400	0.378700
C481	C48	0.389100	0.052000	0.393900
C491	C49	0.296300	0.104300	0.499300
C501	C50	0.404700	0.285200	0.354800
Re111	Re11	0.095100	0.361780	0.940830
S111	S11	0.129400	0.264520	0.988360
N511	N51	0.146800	0.341500	0.154200
N521	N52	0.266900	0.330900	0.845200
N531	N53	0.119500	0.493200	0.864400
N541	N54	0.260800	0.414000	0.032200
N551	N55	0.148000	0.192600	0.820500
C511	C51	0.094800	0.330600	0.113500
C521	C52	0.206000	0.341600	0.878700
C531	C53	0.110900	0.448000	0.893900
C541	C54	0.203700	0.395700	0.999300
C551	C55	0.095300	0.214800	0.854800
Re121	Re12	0.595100	0.861780	0.940830
S121	S12	0.629400	0.764520	0.988360
N561	N56	0.646800	0.841500	0.154200
N571	N57	0.766900	0.830900	0.845200
N581	N58	0.619500	0.993200	0.864400
N591	N59	0.760800	0.914000	0.032200
N601	N60	0.648000	0.692600	0.820500
C561	C56	0.594800	0.830600	0.113500
C571	C57	0.706000	0.841600	0.878700
C581	C58	0.610900	0.948000	0.893900
C591	C59	0.703700	0.895700	0.999300
C601	C60	0.595300	0.714800	0.854800
Re131	Re13	0.095100	0.638220	0.059170
S131	S13	0.129400	0.735480	0.011640
N611	N61	0.146800	0.658500	0.845800
N621	N62	0.266900	0.669100	0.154800
N631	N63	0.119500	0.506800	0.135600
N641	N64	0.260800	0.586000	0.967800
N651	N65	0.148000	0.807400	0.179500
C611	C61	0.094800	0.669400	0.886500
C621	C62	0.206000	0.658400	0.121300
C631	C63	0.110900	0.552000	0.106100
C641	C64	0.203700	0.604300	0.000700
C651	C65	0.095300	0.785200	0.145200
Re141	Re14	0.595100	0.138220	0.059170
S141	S14	0.629400	0.235480	0.011640
N661	N66	0.646800	0.158500	0.845800
N671	N67	0.766900	0.169100	0.154800
N681	N68	0.619500	0.006800	0.135600
N691	N69	0.760800	0.086000	0.967800
N701	N70	0.648000	0.307400	0.179500
C661	C66	0.594800	0.169400	0.886500
C671	C67	0.706000	0.158400	0.121300
C681	C68	0.610900	0.052000	0.106100
C691	C69	0.703700	0.104300	0.000700
C701	C70	0.595300	0.285200	0.145200
Re151	Re15	0.904900	0.361780	0.559170
S151	S15	0.870600	0.264520	0.511640
N711	N71	0.853200	0.341500	0.345800
N721	N72	0.733100	0.330900	0.654800
N731	N73	0.880500	0.493200	0.635600
N741	N74	0.739200	0.414000	0.467800
N751	N75	0.852000	0.192600	0.679500
C711	C71	0.905200	0.330600	0.386500
C721	C72	0.794000	0.341600	0.621300
C731	C73	0.889100	0.448000	0.606100
C741	C74	0.796300	0.395700	0.500700
C751	C75	0.904700	0.214800	0.645200
Re161	Re16	0.404900	0.861780	0.559170
S161	S16	0.370600	0.764520	0.511640
N761	N76	0.353200	0.841500	0.345800
N771	N77	0.233100	0.830900	0.654800
N781	N78	0.380500	0.993200	0.635600
N791	N79	0.239200	0.914000	0.467800
N801	N80	0.352000	0.692600	0.679500
C761	C76	0.405200	0.830600	0.386500
C771	C77	0.294000	0.841600	0.621300
C781	C78	0.389100	0.948000	0.606100
C791	C79	0.296300	0.895700	0.500700
C801	C80	0.404700	0.714800	0.645200
Re171	Re17	0.000000	0.307120	0.459010
Re181	Re18	0.000000	0.252940	0.579700
S171	S17	0.000000	0.339730	0.649390
S181	S18	0.000000	0.416160	0.483220
N811	N81	0.000000	0.181000	0.374600
N821	N82	0.000000	0.108600	0.536100
C811	C81	0.000000	0.224000	0.406000
C821	C82	0.000000	0.160700	0.549100
Re191	Re19	0.500000	0.807120	0.459010
Re201	Re20	0.500000	0.752940	0.579700
S191	S19	0.500000	0.839730	0.649390
S201	S20	0.500000	0.916160	0.483220
N831	N83	0.500000	0.681000	0.374600
N841	N84	0.500000	0.608600	0.536100
C831	C83	0.500000	0.724000	0.406000
C841	C84	0.500000	0.660700	0.549100
Re211	Re21	0.000000	0.692880	0.959010
Re221	Re22	0.000000	0.747060	0.079700
S211	S21	0.000000	0.660270	0.149390
S221	S22	0.000000	0.583840	0.983220
N851	N85	0.000000	0.819000	0.874600
N861	N86	0.000000	0.891400	0.036100
C851	C85	0.000000	0.776000	0.906000
C861	C86	0.000000	0.839300	0.049100
Re231	Re23	0.500000	0.192880	0.959010
Re241	Re24	0.500000	0.247060	0.079700
S231	S23	0.500000	0.160270	0.149390
S241	S24	0.500000	0.083840	0.983220
N871	N87	0.500000	0.319000	0.874600
N881	N88	0.500000	0.391400	0.036100
C871	C87	0.500000	0.276000	0.906000
C881	C88	0.500000	0.339300	0.049100
Re251	Re25	0.000000	0.307120	0.040990
Re261	Re26	0.000000	0.252940	0.920300
S251	S25	0.000000	0.339730	0.850610
S261	S26	0.000000	0.416160	0.016780
N891	N89	0.000000	0.181000	0.125400
N901	N90	0.000000	0.108600	0.963900
C891	C89	0.000000	0.224000	0.094000
C901	C90	0.000000	0.160700	0.950900
Re271	Re27	0.500000	0.807120	0.040990
Re281	Re28	0.500000	0.752940	0.920300
S271	S27	0.500000	0.839730	0.850610
S281	S28	0.500000	0.916160	0.016780
N911	N91	0.500000	0.681000	0.125400
N921	N92	0.500000	0.608600	0.963900
C911	C91	0.500000	0.724000	0.094000
C921	C92	0.500000	0.660700	0.950900
Re291	Re29	0.000000	0.692880	0.540990
Re301	Re30	0.000000	0.747060	0.420300
S291	S29	0.000000	0.660270	0.350610
S301	S30	0.000000	0.583840	0.516780
N931	N93	0.000000	0.819000	0.625400
N941	N94	0.000000	0.891400	0.463900
C931	C93	0.000000	0.776000	0.594000
C941	C94	0.000000	0.839300	0.450900
Re311	Re31	0.500000	0.192880	0.540990
Re321	Re32	0.500000	0.247060	0.420300
S311	S31	0.500000	0.160270	0.350610
S321	S32	0.500000	0.083840	0.516780
N951	N95	0.500000	0.319000	0.625400
N961	N96	0.500000	0.391400	0.463900
C951	C95	0.500000	0.276000	0.594000
C961	C96	0.500000	0.339300	0.450900
Er11	Er1	0.238210	0.356830	0.250000
Er21	Er2	0.738210	0.856830	0.250000
Er31	Er3	0.761790	0.643170	0.750000
Er41	Er4	0.261790	0.143170	0.750000
Er51	Er5	0.761790	0.356830	0.250000
Er61	Er6	0.261790	0.856830	0.250000
Er71	Er7	0.238210	0.643170	0.750000
Er81	Er8	0.738210	0.143170	0.750000
K11	K1	0.409200	0.500000	0.500000
K21	K2	0.909200	0.000000	0.500000
K31	K3	0.590800	0.500000	0.000000
K41	K4	0.090800	0.000000	0.000000
K51	K5	0.590800	0.500000	0.500000
K61	K6	0.090800	0.000000	0.500000
K71	K7	0.409200	0.500000	0.000000
K81	K8	0.909200	0.000000	0.000000
