data_ORIWET_clean_PM
_symmetry_space_group_name_H-M	'P1'
_cell_length_a	26.573800
_cell_length_b	26.573800
_cell_length_c	6.808800
_cell_angle_alpha	90.000000
_cell_angle_beta	90.000000
_cell_angle_gamma	120.000000
_symmetry_Int_Tables_number 1

loop_
_symmetry_equiv_pos_as_xyz
'x,y,z'

loop_
_atom_site_label
_atom_site_type_symbol
_atom_site_fract_x
_atom_site_fract_y
_atom_site_fract_z
Mn11	Mn1	0.390720	0.351770	0.142970
C11	C1	0.321250	0.201730	0.286650
C21	C2	0.338970	0.218150	0.093420
C31	C3	0.351060	0.183090	0.973440
H11	H1	0.364820	0.195840	0.823380
C41	C4	0.308250	0.239430	0.415700
O11	O1	0.313340	0.285850	0.349600
O21	O2	0.292270	0.224630	0.589900
O31	O3	0.344440	0.268010	0.022500
Mn21	Mn2	0.057390	0.685100	0.476300
C51	C5	0.987920	0.535060	0.619980
C61	C6	0.005640	0.551480	0.426750
C71	C7	0.017730	0.516420	0.306770
H21	H2	0.031490	0.529170	0.156710
C81	C8	0.974920	0.572760	0.749030
O41	O4	0.980010	0.619180	0.682930
O51	O5	0.958940	0.557960	0.923230
O61	O6	0.011110	0.601340	0.355830
Mn31	Mn3	0.724050	0.018440	0.809640
C91	C9	0.654580	0.868400	0.953320
C101	C10	0.672300	0.884820	0.760090
C111	C11	0.684390	0.849760	0.640110
H31	H3	0.698150	0.862510	0.490050
C121	C12	0.641580	0.906100	0.082370
O71	O7	0.646670	0.952520	0.016270
O81	O8	0.625600	0.891300	0.256570
O91	O9	0.677770	0.934680	0.689170
Mn41	Mn4	0.648230	0.038950	0.142970
C131	C13	0.798270	0.119520	0.286650
C141	C14	0.781850	0.120820	0.093420
C151	C15	0.816910	0.167970	0.973440
H41	H4	0.804160	0.168980	0.823380
C161	C16	0.760570	0.068820	0.415700
O101	O10	0.714150	0.027490	0.349600
O111	O11	0.775370	0.067640	0.589900
O121	O12	0.731990	0.076430	0.022500
Mn51	Mn5	0.314900	0.372280	0.476300
C171	C17	0.464940	0.452850	0.619980
C181	C18	0.448520	0.454150	0.426750
C191	C19	0.483580	0.501300	0.306770
H51	H5	0.470830	0.502310	0.156710
C201	C20	0.427240	0.402150	0.749030
O131	O13	0.380820	0.360820	0.682930
O141	O14	0.442040	0.400970	0.923230
O151	O15	0.398660	0.409760	0.355830
Mn61	Mn6	0.981560	0.705620	0.809640
C211	C21	0.131600	0.786190	0.953320
C221	C22	0.115180	0.787490	0.760090
C231	C23	0.150240	0.834640	0.640110
H61	H6	0.137490	0.835650	0.490050
C241	C24	0.093900	0.735490	0.082370
O161	O16	0.047480	0.694160	0.016270
O171	O17	0.108700	0.734310	0.256570
O181	O18	0.065320	0.743100	0.689170
Mn71	Mn7	0.961050	0.609280	0.142970
C251	C25	0.880480	0.678750	0.286650
C261	C26	0.879180	0.661030	0.093420
C271	C27	0.832030	0.648940	0.973440
H71	H7	0.831020	0.635180	0.823380
C281	C28	0.931180	0.691750	0.415700
O191	O19	0.972510	0.686660	0.349600
O201	O20	0.932360	0.707730	0.589900
O211	O21	0.923570	0.655560	0.022500
Mn81	Mn8	0.627720	0.942610	0.476300
C291	C29	0.547150	0.012080	0.619980
C301	C30	0.545850	0.994360	0.426750
C311	C31	0.498700	0.982270	0.306770
H81	H8	0.497690	0.968510	0.156710
C321	C32	0.597850	0.025080	0.749030
O221	O22	0.639180	0.019990	0.682930
O231	O23	0.599030	0.041060	0.923230
O241	O24	0.590240	0.988890	0.355830
Mn91	Mn9	0.294380	0.275950	0.809640
C331	C33	0.213810	0.345420	0.953320
C341	C34	0.212510	0.327700	0.760090
C351	C35	0.165360	0.315610	0.640110
H91	H9	0.164350	0.301850	0.490050
C361	C36	0.264510	0.358420	0.082370
O251	O25	0.305840	0.353330	0.016270
O261	O26	0.265690	0.374400	0.256570
O271	O27	0.256900	0.322230	0.689170
Mn101	Mn10	0.609280	0.648230	0.857030
C371	C37	0.678750	0.798270	0.713350
C381	C38	0.661030	0.781850	0.906580
C391	C39	0.648940	0.816910	0.026560
H101	H10	0.635180	0.804160	0.176620
C401	C40	0.691750	0.760570	0.584300
O281	O28	0.686660	0.714150	0.650400
O291	O29	0.707730	0.775370	0.410100
O301	O30	0.655560	0.731990	0.977500
Mn111	Mn11	0.275950	0.981560	0.190360
C411	C41	0.345420	0.131600	0.046680
C421	C42	0.327700	0.115180	0.239910
C431	C43	0.315610	0.150240	0.359890
H111	H11	0.301850	0.137490	0.509950
C441	C44	0.358420	0.093900	0.917630
O311	O31	0.353330	0.047480	0.983730
O321	O32	0.374400	0.108700	0.743430
O331	O33	0.322230	0.065320	0.310830
Mn121	Mn12	0.942610	0.314900	0.523700
C451	C45	0.012080	0.464940	0.380020
C461	C46	0.994360	0.448520	0.573250
C471	C47	0.982270	0.483580	0.693230
H121	H12	0.968510	0.470830	0.843290
C481	C48	0.025080	0.427240	0.250970
O341	O34	0.019990	0.380820	0.317070
O351	O35	0.041060	0.442040	0.076770
O361	O36	0.988890	0.398660	0.644170
Mn131	Mn13	0.351770	0.961050	0.857030
C491	C49	0.201730	0.880480	0.713350
C501	C50	0.218150	0.879180	0.906580
C511	C51	0.183090	0.832030	0.026560
H131	H13	0.195840	0.831020	0.176620
C521	C52	0.239430	0.931180	0.584300
O371	O37	0.285850	0.972510	0.650400
O381	O38	0.224630	0.932360	0.410100
O391	O39	0.268010	0.923570	0.977500
Mn141	Mn14	0.018440	0.294380	0.190360
C531	C53	0.868400	0.213810	0.046680
C541	C54	0.884820	0.212510	0.239910
C551	C55	0.849760	0.165360	0.359890
H141	H14	0.862510	0.164350	0.509950
C561	C56	0.906100	0.264510	0.917630
O401	O40	0.952520	0.305840	0.983730
O411	O41	0.891300	0.265690	0.743430
O421	O42	0.934680	0.256900	0.310830
Mn151	Mn15	0.685100	0.627720	0.523700
C571	C57	0.535060	0.547150	0.380020
C581	C58	0.551480	0.545850	0.573250
C591	C59	0.516420	0.498700	0.693230
H151	H15	0.529170	0.497690	0.843290
C601	C60	0.572760	0.597850	0.250970
O431	O43	0.619180	0.639180	0.317070
O441	O44	0.557960	0.599030	0.076770
O451	O45	0.601340	0.590240	0.644170
Mn161	Mn16	0.038950	0.390720	0.857030
C611	C61	0.119520	0.321250	0.713350
C621	C62	0.120820	0.338970	0.906580
C631	C63	0.167970	0.351060	0.026560
H161	H16	0.168980	0.364820	0.176620
C641	C64	0.068820	0.308250	0.584300
O461	O46	0.027490	0.313340	0.650400
O471	O47	0.067640	0.292270	0.410100
O481	O48	0.076430	0.344440	0.977500
Mn171	Mn17	0.705620	0.724050	0.190360
C651	C65	0.786190	0.654580	0.046680
C661	C66	0.787490	0.672300	0.239910
C671	C67	0.834640	0.684390	0.359890
H171	H17	0.835650	0.698150	0.509950
C681	C68	0.735490	0.641580	0.917630
O491	O49	0.694160	0.646670	0.983730
O501	O50	0.734310	0.625600	0.743430
O511	O51	0.743100	0.677770	0.310830
Mn181	Mn18	0.372280	0.057390	0.523700
C691	C69	0.452850	0.987920	0.380020
C701	C70	0.454150	0.005640	0.573250
C711	C71	0.501300	0.017730	0.693230
H181	H18	0.502310	0.031490	0.843290
C721	C72	0.402150	0.974920	0.250970
O521	O52	0.360820	0.980010	0.317070
O531	O53	0.400970	0.958940	0.076770
O541	O54	0.409760	0.011110	0.644170
