data_OROKEN_clean_PM
_symmetry_space_group_name_H-M	'P1'
_cell_length_a	12.343100
_cell_length_b	12.954400
_cell_length_c	19.393400
_cell_angle_alpha	90.000000
_cell_angle_beta	91.944000
_cell_angle_gamma	90.000000
_symmetry_Int_Tables_number 1

loop_
_symmetry_equiv_pos_as_xyz
'x,y,z'

loop_
_atom_site_label
_atom_site_type_symbol
_atom_site_fract_x
_atom_site_fract_y
_atom_site_fract_z
Nb11	Nb1	0.101010	0.899690	0.054610
Cl11	Cl1	0.972850	0.756220	0.068220
N11	N1	0.211800	0.794100	0.113500
Nb21	Nb2	0.124770	0.107010	0.996010
Cl21	Cl2	0.176760	0.807280	0.956620
Nb31	Nb3	0.952000	0.064010	0.091130
Cl31	Cl3	0.265370	0.007140	0.058950
Cl41	Cl4	0.060790	0.957210	0.171690
C11	C1	0.279300	0.752600	0.145800
N21	N2	0.260600	0.218000	0.991700
Cl51	Cl5	0.201760	0.050080	0.887210
Cl61	Cl6	0.090850	0.200220	0.103450
N31	N3	0.898800	0.133800	0.188100
S11	S1	0.374180	0.695960	0.192650
C21	C2	0.340800	0.262500	0.984000
C31	C3	0.864200	0.175800	0.234800
Cu11	Cu1	0.519760	0.761250	0.135370
S21	S2	0.455430	0.322580	0.971740
S31	S3	0.815920	0.238790	0.299880
N41	N4	0.516500	0.912600	0.116400
C41	C4	0.529100	0.996800	0.102200
C51	C5	0.543400	0.103900	0.083300
H11	H1	0.602800	0.133900	0.111500
H21	H2	0.476400	0.142100	0.091100
H31	H3	0.560800	0.108300	0.034400
Nb41	Nb4	0.398990	0.399690	0.445390
Cl71	Cl7	0.527150	0.256220	0.431780
N51	N5	0.288200	0.294100	0.386500
Nb51	Nb5	0.375230	0.607010	0.503990
Cl81	Cl8	0.323240	0.307280	0.543380
Nb61	Nb6	0.548000	0.564010	0.408870
Cl91	Cl9	0.234630	0.507140	0.441050
Cl101	Cl10	0.439210	0.457210	0.328310
C61	C6	0.220700	0.252600	0.354200
N61	N6	0.239400	0.718000	0.508300
Cl111	Cl11	0.298240	0.550080	0.612790
Cl121	Cl12	0.409150	0.700220	0.396550
N71	N7	0.601200	0.633800	0.311900
S41	S4	0.125820	0.195960	0.307350
C71	C7	0.159200	0.762500	0.516000
C81	C8	0.635800	0.675800	0.265200
Cu21	Cu2	0.980240	0.261250	0.364630
S51	S5	0.044570	0.822580	0.528260
S61	S6	0.684080	0.738790	0.200120
N81	N8	0.983500	0.412600	0.383600
C91	C9	0.970900	0.496800	0.397800
C101	C10	0.956600	0.603900	0.416700
H41	H4	0.897200	0.633900	0.388500
H51	H5	0.023600	0.642100	0.408900
H61	H6	0.939200	0.608300	0.465600
Nb71	Nb7	0.898990	0.100310	0.945390
Cl131	Cl13	0.027150	0.243780	0.931780
N91	N9	0.788200	0.205900	0.886500
Nb81	Nb8	0.875230	0.892990	0.003990
Cl141	Cl14	0.823240	0.192720	0.043380
Nb91	Nb9	0.048000	0.935990	0.908870
Cl151	Cl15	0.734630	0.992860	0.941050
Cl161	Cl16	0.939210	0.042790	0.828310
C111	C11	0.720700	0.247400	0.854200
N101	N10	0.739400	0.782000	0.008300
Cl171	Cl17	0.798240	0.949920	0.112790
Cl181	Cl18	0.909150	0.799780	0.896550
N111	N11	0.101200	0.866200	0.811900
S71	S7	0.625820	0.304040	0.807350
C121	C12	0.659200	0.737500	0.016000
C131	C13	0.135800	0.824200	0.765200
Cu31	Cu3	0.480240	0.238750	0.864630
S81	S8	0.544570	0.677420	0.028260
S91	S9	0.184080	0.761210	0.700120
N121	N12	0.483500	0.087400	0.883600
C141	C14	0.470900	0.003200	0.897800
C151	C15	0.456600	0.896100	0.916700
H71	H7	0.397200	0.866100	0.888500
H81	H8	0.523600	0.857900	0.908900
H91	H9	0.439200	0.891700	0.965600
Nb101	Nb10	0.601010	0.600310	0.554610
Cl191	Cl19	0.472850	0.743780	0.568220
N131	N13	0.711800	0.705900	0.613500
Nb111	Nb11	0.624770	0.392990	0.496010
Cl201	Cl20	0.676760	0.692720	0.456620
Nb121	Nb12	0.452000	0.435990	0.591130
Cl211	Cl21	0.765370	0.492860	0.558950
Cl221	Cl22	0.560790	0.542790	0.671690
C161	C16	0.779300	0.747400	0.645800
N141	N14	0.760600	0.282000	0.491700
Cl231	Cl23	0.701760	0.449920	0.387210
Cl241	Cl24	0.590850	0.299780	0.603450
N151	N15	0.398800	0.366200	0.688100
S101	S10	0.874180	0.804040	0.692650
C171	C17	0.840800	0.237500	0.484000
C181	C18	0.364200	0.324200	0.734800
Cu41	Cu4	0.019760	0.738750	0.635370
S111	S11	0.955430	0.177420	0.471740
S121	S12	0.315920	0.261210	0.799880
N161	N16	0.016500	0.587400	0.616400
C191	C19	0.029100	0.503200	0.602200
C201	C20	0.043400	0.396100	0.583300
H101	H10	0.102800	0.366100	0.611500
H111	H11	0.976400	0.357900	0.591100
H121	H12	0.060800	0.391700	0.534400
