data_ORUHAM_clean_PM
_symmetry_space_group_name_H-M	'P1'
_cell_length_a	15.477000
_cell_length_b	25.656000
_cell_length_c	8.289000
_cell_angle_alpha	90.000000
_cell_angle_beta	105.077000
_cell_angle_gamma	90.000000
_symmetry_Int_Tables_number 1

loop_
_symmetry_equiv_pos_as_xyz
'x,y,z'

loop_
_atom_site_label
_atom_site_type_symbol
_atom_site_fract_x
_atom_site_fract_y
_atom_site_fract_z
Cd11	Cd1	0.453140	0.278920	0.172010
Cd21	Cd2	0.958400	0.471590	0.770390
O11	O1	0.573160	0.327480	0.331000
O21	O2	0.597600	0.302040	0.100400
O31	O3	0.981270	0.451270	0.277100
O41	O4	0.011990	0.431770	0.548300
O51	O5	0.036610	0.406240	0.917400
O61	O6	0.094140	0.479950	0.032300
O71	O7	0.323880	0.271710	0.582500
O81	O8	0.415350	0.280730	0.421800
N11	N1	0.824520	0.418520	0.752700
N21	N2	0.664400	0.366140	0.721000
N31	N3	0.692150	0.504110	0.430100
N41	N4	0.837800	0.499320	0.559400
N51	N5	0.823780	0.539340	0.453000
H11	H1	0.864300	0.560000	0.436000
N61	N6	0.616050	0.656430	0.019500
C11	C1	0.621700	0.323950	0.236400
C21	C2	0.712930	0.348510	0.284600
C31	C3	0.726700	0.391550	0.200500
H21	H2	0.679800	0.405200	0.117200
C41	C4	0.810200	0.415800	0.237100
H31	H3	0.818500	0.445100	0.176700
C51	C5	0.879800	0.397230	0.360000
C61	C6	0.964590	0.428930	0.396800
C71	C7	0.869560	0.350910	0.448800
C81	C8	0.941000	0.326690	0.567600
H41	H4	0.997800	0.341500	0.592800
C91	C9	0.927000	0.282070	0.644700
H51	H5	0.974700	0.266300	0.720900
C101	C10	0.842100	0.259340	0.611300
H61	H6	0.833500	0.229000	0.666500
C111	C11	0.772500	0.281490	0.498900
H71	H7	0.716100	0.266300	0.478800
C121	C12	0.783540	0.326880	0.411900
C131	C13	0.094100	0.431100	0.025200
C141	C14	0.162500	0.399620	0.148900
C151	C15	0.134500	0.353940	0.204500
H81	H8	0.074500	0.344500	0.169500
C161	C16	0.195300	0.321260	0.313600
H91	H9	0.174900	0.290900	0.352500
C171	C17	0.283460	0.333380	0.363100
C181	C18	0.345480	0.293210	0.464100
C191	C19	0.315160	0.381100	0.314500
C201	C20	0.405400	0.396940	0.371500
H101	H10	0.445700	0.376200	0.447700
C211	C21	0.434200	0.441900	0.316500
H111	H11	0.494000	0.451500	0.354800
C221	C22	0.374800	0.474120	0.202700
H121	H12	0.395400	0.504600	0.164500
C231	C23	0.286500	0.460720	0.147900
H131	H13	0.247600	0.482200	0.072000
C241	C24	0.253630	0.415070	0.204200
C251	C25	0.818800	0.377220	0.844200
H141	H14	0.870000	0.365100	0.920600
C261	C26	0.738900	0.351730	0.829400
H151	H15	0.737400	0.323300	0.898300
C271	C27	0.669700	0.407540	0.626600
H161	H16	0.618500	0.419100	0.548800
C281	C28	0.748960	0.433400	0.642200
C291	C29	0.757540	0.479120	0.542100
C301	C30	0.736570	0.542140	0.377600
C311	C31	0.696020	0.582290	0.255800
C321	C32	0.745500	0.622030	0.212400
H171	H17	0.806700	0.624500	0.261200
C331	C33	0.702600	0.658120	0.095000
H181	H18	0.736400	0.685000	0.067500
C341	C34	0.569100	0.618100	0.062400
H191	H19	0.508300	0.616200	0.010100
C351	C35	0.605700	0.580910	0.180400
H201	H20	0.569800	0.555200	0.208700
Cd31	Cd3	0.546860	0.778920	0.327990
Cd41	Cd4	0.041600	0.971590	0.729610
O91	O9	0.426840	0.827480	0.169000
O101	O10	0.402400	0.802040	0.399600
O111	O11	0.018730	0.951270	0.222900
O121	O12	0.988010	0.931770	0.951700
O131	O13	0.963390	0.906240	0.582600
O141	O14	0.905860	0.979950	0.467700
O151	O15	0.676120	0.771710	0.917500
O161	O16	0.584650	0.780730	0.078200
N71	N7	0.175480	0.918520	0.747300
N81	N8	0.335600	0.866140	0.779000
N91	N9	0.307850	0.004110	0.069900
N101	N10	0.162200	0.999320	0.940600
N111	N11	0.176220	0.039340	0.047000
H211	H21	0.135700	0.060000	0.064000
N121	N12	0.383950	0.156430	0.480500
C361	C36	0.378300	0.823950	0.263600
C371	C37	0.287070	0.848510	0.215400
C381	C38	0.273300	0.891550	0.299500
H221	H22	0.320200	0.905200	0.382800
C391	C39	0.189800	0.915800	0.262900
H231	H23	0.181500	0.945100	0.323300
C401	C40	0.120200	0.897230	0.140000
C411	C41	0.035410	0.928930	0.103200
C421	C42	0.130440	0.850910	0.051200
C431	C43	0.059000	0.826690	0.932400
H241	H24	0.002200	0.841500	0.907200
C441	C44	0.073000	0.782070	0.855300
H251	H25	0.025300	0.766300	0.779100
C451	C45	0.157900	0.759340	0.888700
H261	H26	0.166500	0.729000	0.833500
C461	C46	0.227500	0.781490	0.001100
H271	H27	0.283900	0.766300	0.021200
C471	C47	0.216460	0.826880	0.088100
C481	C48	0.905900	0.931100	0.474800
C491	C49	0.837500	0.899620	0.351100
C501	C50	0.865500	0.853940	0.295500
H281	H28	0.925500	0.844500	0.330500
C511	C51	0.804700	0.821260	0.186400
H291	H29	0.825100	0.790900	0.147500
C521	C52	0.716540	0.833380	0.136900
C531	C53	0.654520	0.793210	0.035900
C541	C54	0.684840	0.881100	0.185500
C551	C55	0.594600	0.896940	0.128500
H301	H30	0.554300	0.876200	0.052300
C561	C56	0.565800	0.941900	0.183500
H311	H31	0.506000	0.951500	0.145200
C571	C57	0.625200	0.974120	0.297300
H321	H32	0.604600	0.004600	0.335500
C581	C58	0.713500	0.960720	0.352100
H331	H33	0.752400	0.982200	0.428000
C591	C59	0.746370	0.915070	0.295800
C601	C60	0.181200	0.877220	0.655800
H341	H34	0.130000	0.865100	0.579400
C611	C61	0.261100	0.851730	0.670600
H351	H35	0.262600	0.823300	0.601700
C621	C62	0.330300	0.907540	0.873400
H361	H36	0.381500	0.919100	0.951200
C631	C63	0.251040	0.933400	0.857800
C641	C64	0.242460	0.979120	0.957900
C651	C65	0.263430	0.042140	0.122400
C661	C66	0.303980	0.082290	0.244200
C671	C67	0.254500	0.122030	0.287600
H371	H37	0.193300	0.124500	0.238800
C681	C68	0.297400	0.158120	0.405000
H381	H38	0.263600	0.185000	0.432500
C691	C69	0.430900	0.118100	0.437600
H391	H39	0.491700	0.116200	0.489900
C701	C70	0.394300	0.080910	0.319600
H401	H40	0.430200	0.055200	0.291300
Cd51	Cd5	0.546860	0.721080	0.827990
Cd61	Cd6	0.041600	0.528410	0.229610
O171	O17	0.426840	0.672520	0.669000
O181	O18	0.402400	0.697960	0.899600
O191	O19	0.018730	0.548730	0.722900
O201	O20	0.988010	0.568230	0.451700
O211	O21	0.963390	0.593760	0.082600
O221	O22	0.905860	0.520050	0.967700
O231	O23	0.676120	0.728290	0.417500
O241	O24	0.584650	0.719270	0.578200
N131	N13	0.175480	0.581480	0.247300
N141	N14	0.335600	0.633860	0.279000
N151	N15	0.307850	0.495890	0.569900
N161	N16	0.162200	0.500680	0.440600
N171	N17	0.176220	0.460660	0.547000
H411	H41	0.135700	0.440000	0.564000
N181	N18	0.383950	0.343570	0.980500
C711	C71	0.378300	0.676050	0.763600
C721	C72	0.287070	0.651490	0.715400
C731	C73	0.273300	0.608450	0.799500
H421	H42	0.320200	0.594800	0.882800
C741	C74	0.189800	0.584200	0.762900
H431	H43	0.181500	0.554900	0.823300
C751	C75	0.120200	0.602770	0.640000
C761	C76	0.035410	0.571070	0.603200
C771	C77	0.130440	0.649090	0.551200
C781	C78	0.059000	0.673310	0.432400
H441	H44	0.002200	0.658500	0.407200
C791	C79	0.073000	0.717930	0.355300
H451	H45	0.025300	0.733700	0.279100
C801	C80	0.157900	0.740660	0.388700
H461	H46	0.166500	0.771000	0.333500
C811	C81	0.227500	0.718510	0.501100
H471	H47	0.283900	0.733700	0.521200
C821	C82	0.216460	0.673120	0.588100
C831	C83	0.905900	0.568900	0.974800
C841	C84	0.837500	0.600380	0.851100
C851	C85	0.865500	0.646060	0.795500
H481	H48	0.925500	0.655500	0.830500
C861	C86	0.804700	0.678740	0.686400
H491	H49	0.825100	0.709100	0.647500
C871	C87	0.716540	0.666620	0.636900
C881	C88	0.654520	0.706790	0.535900
C891	C89	0.684840	0.618900	0.685500
C901	C90	0.594600	0.603060	0.628500
H501	H50	0.554300	0.623800	0.552300
C911	C91	0.565800	0.558100	0.683500
H511	H51	0.506000	0.548500	0.645200
C921	C92	0.625200	0.525880	0.797300
H521	H52	0.604600	0.495400	0.835500
C931	C93	0.713500	0.539280	0.852100
H531	H53	0.752400	0.517800	0.928000
C941	C94	0.746370	0.584930	0.795800
C951	C95	0.181200	0.622780	0.155800
H541	H54	0.130000	0.634900	0.079400
C961	C96	0.261100	0.648270	0.170600
H551	H55	0.262600	0.676700	0.101700
C971	C97	0.330300	0.592460	0.373400
H561	H56	0.381500	0.580900	0.451200
C981	C98	0.251040	0.566600	0.357800
C991	C99	0.242460	0.520880	0.457900
C1001	C100	0.263430	0.457860	0.622400
C1011	C101	0.303980	0.417710	0.744200
C1021	C102	0.254500	0.377970	0.787600
H571	H57	0.193300	0.375500	0.738800
C1031	C103	0.297400	0.341880	0.905000
H581	H58	0.263600	0.315000	0.932500
C1041	C104	0.430900	0.381900	0.937600
H591	H59	0.491700	0.383800	0.989900
C1051	C105	0.394300	0.419090	0.819600
H601	H60	0.430200	0.444800	0.791300
Cd71	Cd7	0.453140	0.221080	0.672010
Cd81	Cd8	0.958400	0.028410	0.270390
O251	O25	0.573160	0.172520	0.831000
O261	O26	0.597600	0.197960	0.600400
O271	O27	0.981270	0.048730	0.777100
O281	O28	0.011990	0.068230	0.048300
O291	O29	0.036610	0.093760	0.417400
O301	O30	0.094140	0.020050	0.532300
O311	O31	0.323880	0.228290	0.082500
O321	O32	0.415350	0.219270	0.921800
N191	N19	0.824520	0.081480	0.252700
N201	N20	0.664400	0.133860	0.221000
N211	N21	0.692150	0.995890	0.930100
N221	N22	0.837800	0.000680	0.059400
N231	N23	0.823780	0.960660	0.953000
H611	H61	0.864300	0.940000	0.936000
N241	N24	0.616050	0.843570	0.519500
C1061	C106	0.621700	0.176050	0.736400
C1071	C107	0.712930	0.151490	0.784600
C1081	C108	0.726700	0.108450	0.700500
H621	H62	0.679800	0.094800	0.617200
C1091	C109	0.810200	0.084200	0.737100
H631	H63	0.818500	0.054900	0.676700
C1101	C110	0.879800	0.102770	0.860000
C1111	C111	0.964590	0.071070	0.896800
C1121	C112	0.869560	0.149090	0.948800
C1131	C113	0.941000	0.173310	0.067600
H641	H64	0.997800	0.158500	0.092800
C1141	C114	0.927000	0.217930	0.144700
H651	H65	0.974700	0.233700	0.220900
C1151	C115	0.842100	0.240660	0.111300
H661	H66	0.833500	0.271000	0.166500
C1161	C116	0.772500	0.218510	0.998900
H671	H67	0.716100	0.233700	0.978800
C1171	C117	0.783540	0.173120	0.911900
C1181	C118	0.094100	0.068900	0.525200
C1191	C119	0.162500	0.100380	0.648900
C1201	C120	0.134500	0.146060	0.704500
H681	H68	0.074500	0.155500	0.669500
C1211	C121	0.195300	0.178740	0.813600
H691	H69	0.174900	0.209100	0.852500
C1221	C122	0.283460	0.166620	0.863100
C1231	C123	0.345480	0.206790	0.964100
C1241	C124	0.315160	0.118900	0.814500
C1251	C125	0.405400	0.103060	0.871500
H701	H70	0.445700	0.123800	0.947700
C1261	C126	0.434200	0.058100	0.816500
H711	H71	0.494000	0.048500	0.854800
C1271	C127	0.374800	0.025880	0.702700
H721	H72	0.395400	0.995400	0.664500
C1281	C128	0.286500	0.039280	0.647900
H731	H73	0.247600	0.017800	0.572000
C1291	C129	0.253630	0.084930	0.704200
C1301	C130	0.818800	0.122780	0.344200
H741	H74	0.870000	0.134900	0.420600
C1311	C131	0.738900	0.148270	0.329400
H751	H75	0.737400	0.176700	0.398300
C1321	C132	0.669700	0.092460	0.126600
H761	H76	0.618500	0.080900	0.048800
C1331	C133	0.748960	0.066600	0.142200
C1341	C134	0.757540	0.020880	0.042100
C1351	C135	0.736570	0.957860	0.877600
C1361	C136	0.696020	0.917710	0.755800
C1371	C137	0.745500	0.877970	0.712400
H771	H77	0.806700	0.875500	0.761200
C1381	C138	0.702600	0.841880	0.595000
H781	H78	0.736400	0.815000	0.567500
C1391	C139	0.569100	0.881900	0.562400
H791	H79	0.508300	0.883800	0.510100
C1401	C140	0.605700	0.919090	0.680400
H801	H80	0.569800	0.944800	0.708700
