data_ORUKET_clean_PM
_symmetry_space_group_name_H-M	'P1'
_cell_length_a	18.571000
_cell_length_b	18.571000
_cell_length_c	28.877900
_cell_angle_alpha	90.000000
_cell_angle_beta	90.000000
_cell_angle_gamma	120.000000
_symmetry_Int_Tables_number 1

loop_
_symmetry_equiv_pos_as_xyz
'x,y,z'

loop_
_atom_site_label
_atom_site_type_symbol
_atom_site_fract_x
_atom_site_fract_y
_atom_site_fract_z
P11	P1	0.627640	0.235590	0.961780
O11	O1	0.594600	0.157300	0.995210
O21	O2	0.618400	0.192800	0.913240
O31	O3	0.377400	0.127800	0.170050
O41	O4	0.501200	0.219200	0.198910
O51	O5	0.268900	0.961300	0.815800
O61	O6	0.336900	0.894800	0.800800
N11	N1	0.570000	0.275300	0.967210
C11	C1	0.454900	0.170100	0.167160
C21	C2	0.493800	0.165800	0.123240
C31	C3	0.442700	0.121800	0.085320
H11	H1	0.385300	0.094000	0.089000
C41	C4	0.475100	0.118800	0.043380
H21	H2	0.440200	0.090700	0.018600
C51	C5	0.561800	0.158700	0.038160
C61	C6	0.613900	0.200700	0.075420
H31	H3	0.671300	0.225600	0.072000
C71	C7	0.580700	0.205500	0.117600
H41	H4	0.615800	0.234800	0.142100
C81	C8	0.329200	0.949200	0.819800
C91	C9	0.403900	0.015400	0.847000
C101	C10	0.411300	0.089500	0.859900
H51	H5	0.368400	0.100100	0.853100
C111	C11	0.482100	0.150200	0.883200
H61	H6	0.487500	0.201000	0.891600
C121	C12	0.542200	0.131600	0.892810
C131	C13	0.536700	0.059000	0.881900
H71	H7	0.578600	0.047900	0.889900
C141	C14	0.466200	0.000700	0.858100
H81	H8	0.461800	0.950300	0.849600
P21	P2	0.764410	0.392050	0.961780
O71	O7	0.842700	0.437300	0.995210
O81	O8	0.807200	0.425600	0.913240
O91	O9	0.872200	0.249600	0.170050
O101	O10	0.780800	0.282000	0.198910
O111	O11	0.038700	0.307600	0.815800
O121	O12	0.105200	0.442100	0.800800
N21	N2	0.724700	0.294700	0.967210
C151	C15	0.829900	0.284800	0.167160
C161	C16	0.834200	0.328000	0.123240
C171	C17	0.878200	0.320900	0.085320
H91	H9	0.906000	0.291300	0.089000
C181	C18	0.881200	0.356300	0.043380
H101	H10	0.909300	0.349500	0.018600
C191	C19	0.841300	0.403100	0.038160
C201	C20	0.799300	0.413200	0.075420
H111	H11	0.774400	0.445700	0.072000
C211	C21	0.794500	0.375200	0.117600
H121	H12	0.765200	0.381000	0.142100
C221	C22	0.050800	0.380000	0.819800
C231	C23	0.984600	0.388500	0.847000
C241	C24	0.910500	0.321800	0.859900
H131	H13	0.899900	0.268300	0.853100
C251	C25	0.849800	0.331900	0.883200
H141	H14	0.799000	0.286500	0.891600
C261	C26	0.868400	0.410600	0.892810
C271	C27	0.941000	0.477700	0.881900
H151	H15	0.952100	0.530700	0.889900
C281	C28	0.999300	0.465500	0.858100
H161	H16	0.049700	0.511500	0.849600
P31	P3	0.607950	0.372360	0.961780
O131	O13	0.562700	0.405400	0.995210
O141	O14	0.574400	0.381600	0.913240
O151	O15	0.750400	0.622600	0.170050
O161	O16	0.718000	0.498800	0.198910
O171	O17	0.692400	0.731100	0.815800
O181	O18	0.557900	0.663100	0.800800
N31	N3	0.705300	0.430000	0.967210
C291	C29	0.715200	0.545100	0.167160
C301	C30	0.672000	0.506200	0.123240
C311	C31	0.679100	0.557300	0.085320
H171	H17	0.708700	0.614700	0.089000
C321	C32	0.643700	0.524900	0.043380
H181	H18	0.650500	0.559800	0.018600
C331	C33	0.596900	0.438200	0.038160
C341	C34	0.586800	0.386100	0.075420
H191	H19	0.554300	0.328700	0.072000
C351	C35	0.624800	0.419300	0.117600
H201	H20	0.619000	0.384200	0.142100
C361	C36	0.620000	0.670800	0.819800
C371	C37	0.611500	0.596100	0.847000
C381	C38	0.678200	0.588700	0.859900
H211	H21	0.731700	0.631600	0.853100
C391	C39	0.668100	0.517900	0.883200
H221	H22	0.713500	0.512500	0.891600
C401	C40	0.589400	0.457800	0.892810
C411	C41	0.522300	0.463300	0.881900
H231	H23	0.469300	0.421400	0.889900
C421	C42	0.534500	0.533800	0.858100
H241	H24	0.488500	0.538200	0.849600
P41	P4	0.372360	0.764410	0.461780
O191	O19	0.405400	0.842700	0.495210
O201	O20	0.381600	0.807200	0.413240
O211	O21	0.622600	0.872200	0.670050
O221	O22	0.498800	0.780800	0.698910
O231	O23	0.731100	0.038700	0.315800
O241	O24	0.663100	0.105200	0.300800
N41	N4	0.430000	0.724700	0.467210
C431	C43	0.545100	0.829900	0.667160
C441	C44	0.506200	0.834200	0.623240
C451	C45	0.557300	0.878200	0.585320
H251	H25	0.614700	0.906000	0.589000
C461	C46	0.524900	0.881200	0.543380
H261	H26	0.559800	0.909300	0.518600
C471	C47	0.438200	0.841300	0.538160
C481	C48	0.386100	0.799300	0.575420
H271	H27	0.328700	0.774400	0.572000
C491	C49	0.419300	0.794500	0.617600
H281	H28	0.384200	0.765200	0.642100
C501	C50	0.670800	0.050800	0.319800
C511	C51	0.596100	0.984600	0.347000
C521	C52	0.588700	0.910500	0.359900
H291	H29	0.631600	0.899900	0.353100
C531	C53	0.517900	0.849800	0.383200
H301	H30	0.512500	0.799000	0.391600
C541	C54	0.457800	0.868400	0.392810
C551	C55	0.463300	0.941000	0.381900
H311	H31	0.421400	0.952100	0.389900
C561	C56	0.533800	0.999300	0.358100
H321	H32	0.538200	0.049700	0.349600
P51	P5	0.235590	0.607950	0.461780
O251	O25	0.157300	0.562700	0.495210
O261	O26	0.192800	0.574400	0.413240
O271	O27	0.127800	0.750400	0.670050
O281	O28	0.219200	0.718000	0.698910
O291	O29	0.961300	0.692400	0.315800
O301	O30	0.894800	0.557900	0.300800
N51	N5	0.275300	0.705300	0.467210
C571	C57	0.170100	0.715200	0.667160
C581	C58	0.165800	0.672000	0.623240
C591	C59	0.121800	0.679100	0.585320
H331	H33	0.094000	0.708700	0.589000
C601	C60	0.118800	0.643700	0.543380
H341	H34	0.090700	0.650500	0.518600
C611	C61	0.158700	0.596900	0.538160
C621	C62	0.200700	0.586800	0.575420
H351	H35	0.225600	0.554300	0.572000
C631	C63	0.205500	0.624800	0.617600
H361	H36	0.234800	0.619000	0.642100
C641	C64	0.949200	0.620000	0.319800
C651	C65	0.015400	0.611500	0.347000
C661	C66	0.089500	0.678200	0.359900
H371	H37	0.100100	0.731700	0.353100
C671	C67	0.150200	0.668100	0.383200
H381	H38	0.201000	0.713500	0.391600
C681	C68	0.131600	0.589400	0.392810
C691	C69	0.059000	0.522300	0.381900
H391	H39	0.047900	0.469300	0.389900
C701	C70	0.000700	0.534500	0.358100
H401	H40	0.950300	0.488500	0.349600
P61	P6	0.392050	0.627640	0.461780
O311	O31	0.437300	0.594600	0.495210
O321	O32	0.425600	0.618400	0.413240
O331	O33	0.249600	0.377400	0.670050
O341	O34	0.282000	0.501200	0.698910
O351	O35	0.307600	0.268900	0.315800
O361	O36	0.442100	0.336900	0.300800
N61	N6	0.294700	0.570000	0.467210
C711	C71	0.284800	0.454900	0.667160
C721	C72	0.328000	0.493800	0.623240
C731	C73	0.320900	0.442700	0.585320
H411	H41	0.291300	0.385300	0.589000
C741	C74	0.356300	0.475100	0.543380
H421	H42	0.349500	0.440200	0.518600
C751	C75	0.403100	0.561800	0.538160
C761	C76	0.413200	0.613900	0.575420
H431	H43	0.445700	0.671300	0.572000
C771	C77	0.375200	0.580700	0.617600
H441	H44	0.381000	0.615800	0.642100
C781	C78	0.380000	0.329200	0.319800
C791	C79	0.388500	0.403900	0.347000
C801	C80	0.321800	0.411300	0.359900
H451	H45	0.268300	0.368400	0.353100
C811	C81	0.331900	0.482100	0.383200
H461	H46	0.286500	0.487500	0.391600
C821	C82	0.410600	0.542200	0.392810
C831	C83	0.477700	0.536700	0.381900
H471	H47	0.530700	0.578600	0.389900
C841	C84	0.465500	0.466200	0.358100
H481	H48	0.511500	0.461800	0.349600
P71	P7	0.372360	0.764410	0.038220
O371	O37	0.405400	0.842700	0.004790
O381	O38	0.381600	0.807200	0.086760
O391	O39	0.622600	0.872200	0.829950
O401	O40	0.498800	0.780800	0.801090
O411	O41	0.731100	0.038700	0.184200
O421	O42	0.663100	0.105200	0.199200
N71	N7	0.430000	0.724700	0.032790
C851	C85	0.545100	0.829900	0.832840
C861	C86	0.506200	0.834200	0.876760
C871	C87	0.557300	0.878200	0.914680
H491	H49	0.614700	0.906000	0.911000
C881	C88	0.524900	0.881200	0.956620
H501	H50	0.559800	0.909300	0.981400
C891	C89	0.438200	0.841300	0.961840
C901	C90	0.386100	0.799300	0.924580
H511	H51	0.328700	0.774400	0.928000
C911	C91	0.419300	0.794500	0.882400
H521	H52	0.384200	0.765200	0.857900
C921	C92	0.670800	0.050800	0.180200
C931	C93	0.596100	0.984600	0.153000
C941	C94	0.588700	0.910500	0.140100
H531	H53	0.631600	0.899900	0.146900
C951	C95	0.517900	0.849800	0.116800
H541	H54	0.512500	0.799000	0.108400
C961	C96	0.457800	0.868400	0.107190
C971	C97	0.463300	0.941000	0.118100
H551	H55	0.421400	0.952100	0.110100
C981	C98	0.533800	0.999300	0.141900
H561	H56	0.538200	0.049700	0.150400
P81	P8	0.235590	0.607950	0.038220
O431	O43	0.157300	0.562700	0.004790
O441	O44	0.192800	0.574400	0.086760
O451	O45	0.127800	0.750400	0.829950
O461	O46	0.219200	0.718000	0.801090
O471	O47	0.961300	0.692400	0.184200
O481	O48	0.894800	0.557900	0.199200
N81	N8	0.275300	0.705300	0.032790
C991	C99	0.170100	0.715200	0.832840
C1001	C100	0.165800	0.672000	0.876760
C1011	C101	0.121800	0.679100	0.914680
H571	H57	0.094000	0.708700	0.911000
C1021	C102	0.118800	0.643700	0.956620
H581	H58	0.090700	0.650500	0.981400
C1031	C103	0.158700	0.596900	0.961840
C1041	C104	0.200700	0.586800	0.924580
H591	H59	0.225600	0.554300	0.928000
C1051	C105	0.205500	0.624800	0.882400
H601	H60	0.234800	0.619000	0.857900
C1061	C106	0.949200	0.620000	0.180200
C1071	C107	0.015400	0.611500	0.153000
C1081	C108	0.089500	0.678200	0.140100
H611	H61	0.100100	0.731700	0.146900
C1091	C109	0.150200	0.668100	0.116800
H621	H62	0.201000	0.713500	0.108400
C1101	C110	0.131600	0.589400	0.107190
C1111	C111	0.059000	0.522300	0.118100
H631	H63	0.047900	0.469300	0.110100
C1121	C112	0.000700	0.534500	0.141900
H641	H64	0.950300	0.488500	0.150400
P91	P9	0.392050	0.627640	0.038220
O491	O49	0.437300	0.594600	0.004790
O501	O50	0.425600	0.618400	0.086760
O511	O51	0.249600	0.377400	0.829950
O521	O52	0.282000	0.501200	0.801090
O531	O53	0.307600	0.268900	0.184200
O541	O54	0.442100	0.336900	0.199200
N91	N9	0.294700	0.570000	0.032790
C1131	C113	0.284800	0.454900	0.832840
C1141	C114	0.328000	0.493800	0.876760
C1151	C115	0.320900	0.442700	0.914680
H651	H65	0.291300	0.385300	0.911000
C1161	C116	0.356300	0.475100	0.956620
H661	H66	0.349500	0.440200	0.981400
C1171	C117	0.403100	0.561800	0.961840
C1181	C118	0.413200	0.613900	0.924580
H671	H67	0.445700	0.671300	0.928000
C1191	C119	0.375200	0.580700	0.882400
H681	H68	0.381000	0.615800	0.857900
C1201	C120	0.380000	0.329200	0.180200
C1211	C121	0.388500	0.403900	0.153000
C1221	C122	0.321800	0.411300	0.140100
H691	H69	0.268300	0.368400	0.146900
C1231	C123	0.331900	0.482100	0.116800
H701	H70	0.286500	0.487500	0.108400
C1241	C124	0.410600	0.542200	0.107190
C1251	C125	0.477700	0.536700	0.118100
H711	H71	0.530700	0.578600	0.110100
C1261	C126	0.465500	0.466200	0.141900
H721	H72	0.511500	0.461800	0.150400
P101	P10	0.627640	0.235590	0.538220
O551	O55	0.594600	0.157300	0.504790
O561	O56	0.618400	0.192800	0.586760
O571	O57	0.377400	0.127800	0.329950
O581	O58	0.501200	0.219200	0.301090
O591	O59	0.268900	0.961300	0.684200
O601	O60	0.336900	0.894800	0.699200
N101	N10	0.570000	0.275300	0.532790
C1271	C127	0.454900	0.170100	0.332840
C1281	C128	0.493800	0.165800	0.376760
C1291	C129	0.442700	0.121800	0.414680
H731	H73	0.385300	0.094000	0.411000
C1301	C130	0.475100	0.118800	0.456620
H741	H74	0.440200	0.090700	0.481400
C1311	C131	0.561800	0.158700	0.461840
C1321	C132	0.613900	0.200700	0.424580
H751	H75	0.671300	0.225600	0.428000
C1331	C133	0.580700	0.205500	0.382400
H761	H76	0.615800	0.234800	0.357900
C1341	C134	0.329200	0.949200	0.680200
C1351	C135	0.403900	0.015400	0.653000
C1361	C136	0.411300	0.089500	0.640100
H771	H77	0.368400	0.100100	0.646900
C1371	C137	0.482100	0.150200	0.616800
H781	H78	0.487500	0.201000	0.608400
C1381	C138	0.542200	0.131600	0.607190
C1391	C139	0.536700	0.059000	0.618100
H791	H79	0.578600	0.047900	0.610100
C1401	C140	0.466200	0.000700	0.641900
H801	H80	0.461800	0.950300	0.650400
P111	P11	0.764410	0.392050	0.538220
O611	O61	0.842700	0.437300	0.504790
O621	O62	0.807200	0.425600	0.586760
O631	O63	0.872200	0.249600	0.329950
O641	O64	0.780800	0.282000	0.301090
O651	O65	0.038700	0.307600	0.684200
O661	O66	0.105200	0.442100	0.699200
N111	N11	0.724700	0.294700	0.532790
C1411	C141	0.829900	0.284800	0.332840
C1421	C142	0.834200	0.328000	0.376760
C1431	C143	0.878200	0.320900	0.414680
H811	H81	0.906000	0.291300	0.411000
C1441	C144	0.881200	0.356300	0.456620
H821	H82	0.909300	0.349500	0.481400
C1451	C145	0.841300	0.403100	0.461840
C1461	C146	0.799300	0.413200	0.424580
H831	H83	0.774400	0.445700	0.428000
C1471	C147	0.794500	0.375200	0.382400
H841	H84	0.765200	0.381000	0.357900
C1481	C148	0.050800	0.380000	0.680200
C1491	C149	0.984600	0.388500	0.653000
C1501	C150	0.910500	0.321800	0.640100
H851	H85	0.899900	0.268300	0.646900
C1511	C151	0.849800	0.331900	0.616800
H861	H86	0.799000	0.286500	0.608400
C1521	C152	0.868400	0.410600	0.607190
C1531	C153	0.941000	0.477700	0.618100
H871	H87	0.952100	0.530700	0.610100
C1541	C154	0.999300	0.465500	0.641900
H881	H88	0.049700	0.511500	0.650400
P121	P12	0.607950	0.372360	0.538220
O671	O67	0.562700	0.405400	0.504790
O681	O68	0.574400	0.381600	0.586760
O691	O69	0.750400	0.622600	0.329950
O701	O70	0.718000	0.498800	0.301090
O711	O71	0.692400	0.731100	0.684200
O721	O72	0.557900	0.663100	0.699200
N121	N12	0.705300	0.430000	0.532790
C1551	C155	0.715200	0.545100	0.332840
C1561	C156	0.672000	0.506200	0.376760
C1571	C157	0.679100	0.557300	0.414680
H891	H89	0.708700	0.614700	0.411000
C1581	C158	0.643700	0.524900	0.456620
H901	H90	0.650500	0.559800	0.481400
C1591	C159	0.596900	0.438200	0.461840
C1601	C160	0.586800	0.386100	0.424580
H911	H91	0.554300	0.328700	0.428000
C1611	C161	0.624800	0.419300	0.382400
H921	H92	0.619000	0.384200	0.357900
C1621	C162	0.620000	0.670800	0.680200
C1631	C163	0.611500	0.596100	0.653000
C1641	C164	0.678200	0.588700	0.640100
H931	H93	0.731700	0.631600	0.646900
C1651	C165	0.668100	0.517900	0.616800
H941	H94	0.713500	0.512500	0.608400
C1661	C166	0.589400	0.457800	0.607190
C1671	C167	0.522300	0.463300	0.618100
H951	H95	0.469300	0.421400	0.610100
C1681	C168	0.534500	0.533800	0.641900
H961	H96	0.488500	0.538200	0.650400
Mg11	Mg1	0.469690	0.277380	0.250000
Mg21	Mg2	0.722620	0.192310	0.250000
Mg31	Mg3	0.807690	0.530310	0.250000
Mg41	Mg4	0.530310	0.722620	0.750000
Mg51	Mg5	0.277380	0.807690	0.750000
Mg61	Mg6	0.192310	0.469690	0.750000
