data_OSAVUA_clean_PM
_symmetry_space_group_name_H-M	'P1'
_cell_length_a	9.665000
_cell_length_b	10.256900
_cell_length_c	10.345500
_cell_angle_alpha	119.717000
_cell_angle_beta	94.518100
_cell_angle_gamma	90.000000
_symmetry_Int_Tables_number 1

loop_
_symmetry_equiv_pos_as_xyz
'x,y,z'

loop_
_atom_site_label
_atom_site_type_symbol
_atom_site_fract_x
_atom_site_fract_y
_atom_site_fract_z
Ca11	Ca1	0.750000	0.078250	0.000000
Ca21	Ca2	0.250000	0.921750	0.000000
H11	H1	0.741300	0.045100	0.324200
H21	H2	0.188900	0.968300	0.365200
H31	H3	0.758700	0.720900	0.675800
H41	H4	0.311100	0.603100	0.634800
H51	H5	0.258700	0.954900	0.675800
H61	H6	0.811100	0.031700	0.634800
H71	H7	0.241300	0.279100	0.324200
H81	H8	0.688900	0.396900	0.365200
C11	C1	0.970800	0.004470	0.220340
C21	C2	0.984200	0.003410	0.366020
C31	C3	0.869400	0.023760	0.448520
C41	C4	0.112700	0.980750	0.419300
C51	C5	0.529200	0.784130	0.779660
C61	C6	0.515800	0.637390	0.633980
C71	C7	0.630600	0.575240	0.551480
C81	C8	0.387300	0.561450	0.580700
C91	C9	0.029200	0.995530	0.779660
C101	C10	0.015800	0.996590	0.633980
C111	C11	0.130600	0.976240	0.551480
C121	C12	0.887300	0.019250	0.580700
C131	C13	0.470800	0.215870	0.220340
C141	C14	0.484200	0.362610	0.366020
C151	C15	0.369400	0.424760	0.448520
C161	C16	0.612700	0.438550	0.419300
O11	O1	0.849000	0.012490	0.170580
O21	O2	0.740700	0.049840	0.405680
O31	O3	0.075840	0.993780	0.156160
O41	O4	0.651000	0.841910	0.829420
O51	O5	0.759300	0.644160	0.594320
O61	O6	0.424160	0.837620	0.843840
O71	O7	0.151000	0.987510	0.829420
O81	O8	0.259300	0.950160	0.594320
O91	O9	0.924160	0.006220	0.843840
O101	O10	0.349000	0.158090	0.170580
O111	O11	0.240700	0.355840	0.405680
O121	O12	0.575840	0.162380	0.156160
