data_OSAWEL_clean_PM
_symmetry_space_group_name_H-M	'P1'
_cell_length_a	8.332800
_cell_length_b	8.679400
_cell_length_c	9.939300
_cell_angle_alpha	70.520000
_cell_angle_beta	84.459000
_cell_angle_gamma	73.722000
_symmetry_Int_Tables_number 1

loop_
_symmetry_equiv_pos_as_xyz
'x,y,z'

loop_
_atom_site_label
_atom_site_type_symbol
_atom_site_fract_x
_atom_site_fract_y
_atom_site_fract_z
Ca11	Ca1	0.326480	0.363370	0.042490
Ca21	Ca2	0.673520	0.636630	0.957510
H11	H1	0.223900	0.442600	0.354200
H21	H2	0.675800	0.557600	0.333200
H31	H3	0.654500	0.976600	0.920700
H41	H4	0.955100	0.264900	0.025100
H51	H5	0.776100	0.557400	0.645800
H61	H6	0.324200	0.442400	0.666800
H71	H7	0.345500	0.023400	0.079300
H81	H8	0.044900	0.735100	0.974900
C11	C1	0.951100	0.476500	0.224100
C21	C2	0.973600	0.491700	0.365800
C31	C3	0.133200	0.465200	0.413500
C41	C4	0.837700	0.528700	0.454600
C51	C5	0.669200	0.232100	0.957400
C61	C6	0.841500	0.113100	0.976100
C71	C7	0.973300	0.158600	0.014900
C81	C8	0.869200	0.952700	0.961700
C91	C9	0.048900	0.523500	0.775900
C101	C10	0.026400	0.508300	0.634200
C111	C11	0.866800	0.534800	0.586500
C121	C12	0.162300	0.471300	0.545400
C131	C13	0.330800	0.767900	0.042600
C141	C14	0.158500	0.886900	0.023900
C151	C15	0.026700	0.841400	0.985100
C161	C16	0.130800	0.047300	0.038300
O11	O1	0.076400	0.418900	0.159600
O21	O2	0.803000	0.523900	0.177200
O31	O3	0.549700	0.179100	0.938500
O41	O4	0.645900	0.377200	0.965400
O51	O5	0.677100	0.560800	0.414700
O61	O6	0.742500	0.903200	0.924800
O71	O7	0.923600	0.581100	0.840400
O81	O8	0.197000	0.476100	0.822800
O91	O9	0.450300	0.820900	0.061500
O101	O10	0.354100	0.622800	0.034600
O111	O11	0.322900	0.439200	0.585300
O121	O12	0.257500	0.096800	0.075200
