data_OSAXAI_clean_PM
_symmetry_space_group_name_H-M	'P1'
_cell_length_a	11.436000
_cell_length_b	13.371700
_cell_length_c	18.386000
_cell_angle_alpha	100.389000
_cell_angle_beta	90.000000
_cell_angle_gamma	115.317000
_symmetry_Int_Tables_number 1

loop_
_symmetry_equiv_pos_as_xyz
'x,y,z'

loop_
_atom_site_label
_atom_site_type_symbol
_atom_site_fract_x
_atom_site_fract_y
_atom_site_fract_z
Zn11	Zn1	0.973750	0.393020	0.403190
Zn21	Zn2	0.580730	0.606980	0.096810
Zn31	Zn3	0.026250	0.606980	0.596810
Zn41	Zn4	0.419270	0.393020	0.903190
H11	H1	0.155100	0.651600	0.304800
H21	H2	0.233500	0.793000	0.237400
H31	H3	0.250900	0.018800	0.418400
H41	H4	0.167900	0.875800	0.485600
H51	H5	0.814400	0.328600	0.130500
H61	H6	0.659000	0.204200	0.036800
H71	H7	0.583300	0.957000	0.147400
H81	H8	0.733500	0.083200	0.242400
H91	H9	0.139700	0.295600	0.477500
H101	H10	0.339200	0.293600	0.474400
H111	H11	0.414100	0.468400	0.311300
H121	H12	0.212700	0.464600	0.317900
H131	H13	0.491000	0.238400	0.421900
H141	H14	0.697300	0.255000	0.428800
H151	H15	0.831900	0.545600	0.370700
H161	H16	0.628900	0.538400	0.361200
H171	H17	0.503500	0.348400	0.195200
H181	H18	0.440500	0.207000	0.262600
H191	H19	0.232100	0.981200	0.081600
H201	H20	0.292100	0.124200	0.014400
H211	H21	0.485800	0.671400	0.369500
H221	H22	0.454800	0.795800	0.463200
H231	H23	0.626300	0.043000	0.352600
H241	H24	0.650300	0.916800	0.257600
H251	H25	0.844100	0.704400	0.022500
H261	H26	0.045600	0.706400	0.025600
H271	H27	0.945700	0.531600	0.188700
H281	H28	0.748100	0.535400	0.182100
H291	H29	0.252600	0.761600	0.078100
H301	H30	0.442300	0.745000	0.071200
H311	H31	0.286300	0.454400	0.129300
H321	H32	0.090500	0.461600	0.138800
H331	H33	0.844900	0.348400	0.695200
H341	H34	0.766500	0.207000	0.762600
H351	H35	0.749100	0.981200	0.581600
H361	H36	0.832100	0.124200	0.514400
H371	H37	0.185600	0.671400	0.869500
H381	H38	0.341000	0.795800	0.963200
H391	H39	0.416700	0.043000	0.852600
H401	H40	0.266500	0.916800	0.757600
H411	H41	0.860300	0.704400	0.522500
H421	H42	0.660800	0.706400	0.525600
H431	H43	0.585900	0.531600	0.688700
H441	H44	0.787300	0.535400	0.682100
H451	H45	0.509000	0.761600	0.578100
H461	H46	0.302700	0.745000	0.571200
H471	H47	0.168100	0.454400	0.629300
H481	H48	0.371100	0.461600	0.638800
H491	H49	0.496500	0.651600	0.804800
H501	H50	0.559500	0.793000	0.737400
H511	H51	0.767900	0.018800	0.918400
H521	H52	0.707900	0.875800	0.985600
H531	H53	0.514200	0.328600	0.630500
H541	H54	0.545200	0.204200	0.536800
H551	H55	0.373700	0.957000	0.647400
H561	H56	0.349700	0.083200	0.742400
H571	H57	0.155900	0.295600	0.977500
H581	H58	0.954400	0.293600	0.974400
H591	H59	0.054300	0.468400	0.811300
H601	H60	0.251900	0.464600	0.817900
H611	H61	0.747400	0.238400	0.921900
H621	H62	0.557700	0.255000	0.928800
H631	H63	0.713700	0.545600	0.870700
H641	H64	0.909500	0.538400	0.861200
C11	C1	0.092850	0.655500	0.443930
C21	C2	0.150060	0.748720	0.401240
C31	C3	0.172580	0.725160	0.327340
C41	C4	0.220480	0.809560	0.287220
C51	C5	0.249480	0.920160	0.321600
C61	C6	0.230390	0.944780	0.395430
C71	C7	0.180700	0.859200	0.435710
C81	C8	0.885450	0.299900	0.260880
C91	C9	0.789430	0.218460	0.196820
C101	C10	0.767030	0.253660	0.134600
C111	C11	0.674680	0.178960	0.078100
C121	C12	0.606150	0.067700	0.082870
C131	C13	0.628820	0.032240	0.143800
C141	C14	0.719860	0.108320	0.200600
C151	C15	0.195740	0.331080	0.443810
C161	C16	0.315980	0.329960	0.442500
C171	C17	0.402160	0.383320	0.393230
C181	C18	0.360290	0.433180	0.345920
C191	C19	0.238980	0.430560	0.350170
C201	C20	0.534620	0.389040	0.393560
C211	C21	0.559170	0.303140	0.412200
C221	C22	0.683690	0.313780	0.416300
C231	C23	0.762240	0.483680	0.382200
C241	C24	0.640210	0.480220	0.376400
C251	C25	0.437350	0.344500	0.056070
C261	C26	0.401340	0.251280	0.098760
C271	C27	0.447420	0.274840	0.172660
C281	C28	0.410920	0.190440	0.212780
C291	C29	0.329320	0.079840	0.178400
C301	C30	0.285610	0.055220	0.104570
C311	C31	0.321500	0.140800	0.064290
C321	C32	0.585550	0.700100	0.239120
C331	C33	0.570970	0.781540	0.303180
C341	C34	0.513370	0.746340	0.365400
C351	C35	0.495720	0.821040	0.421900
C361	C36	0.538450	0.932300	0.417130
C371	C37	0.596580	0.967760	0.356200
C381	C38	0.611540	0.891680	0.299400
C391	C39	0.864660	0.668920	0.056190
C401	C40	0.986020	0.670040	0.057500
C411	C41	0.018840	0.616680	0.106770
C421	C42	0.927110	0.566820	0.154080
C431	C43	0.808420	0.569440	0.149830
C441	C44	0.145580	0.610960	0.106440
C451	C45	0.256030	0.696860	0.087800
C461	C46	0.369910	0.686220	0.083700
C471	C47	0.278560	0.516320	0.117800
C481	C48	0.159990	0.519780	0.123600
C491	C49	0.907150	0.344500	0.556070
C501	C50	0.849940	0.251280	0.598760
C511	C51	0.827420	0.274840	0.672660
C521	C52	0.779520	0.190440	0.712780
C531	C53	0.750520	0.079840	0.678400
C541	C54	0.769610	0.055220	0.604570
C551	C55	0.819300	0.140800	0.564290
C561	C56	0.114550	0.700100	0.739120
C571	C57	0.210570	0.781540	0.803180
C581	C58	0.232970	0.746340	0.865400
C591	C59	0.325320	0.821040	0.921900
C601	C60	0.393850	0.932300	0.917130
C611	C61	0.371180	0.967760	0.856200
C621	C62	0.280140	0.891680	0.799400
C631	C63	0.804260	0.668920	0.556190
C641	C64	0.684020	0.670040	0.557500
C651	C65	0.597840	0.616680	0.606770
C661	C66	0.639710	0.566820	0.654080
C671	C67	0.761020	0.569440	0.649830
C681	C68	0.465380	0.610960	0.606440
C691	C69	0.440830	0.696860	0.587800
C701	C70	0.316310	0.686220	0.583700
C711	C71	0.237760	0.516320	0.617800
C721	C72	0.359790	0.519780	0.623600
C731	C73	0.562650	0.655500	0.943930
C741	C74	0.598660	0.748720	0.901240
C751	C75	0.552580	0.725160	0.827340
C761	C76	0.589080	0.809560	0.787220
C771	C77	0.670680	0.920160	0.821600
C781	C78	0.714390	0.944780	0.895430
C791	C79	0.678500	0.859200	0.935710
C801	C80	0.414450	0.299900	0.760880
C811	C81	0.429030	0.218460	0.696820
C821	C82	0.486630	0.253660	0.634600
C831	C83	0.504280	0.178960	0.578100
C841	C84	0.461550	0.067700	0.582870
C851	C85	0.403420	0.032240	0.643800
C861	C86	0.388460	0.108320	0.700600
C871	C87	0.135340	0.331080	0.943810
C881	C88	0.013980	0.329960	0.942500
C891	C89	0.981160	0.383320	0.893230
C901	C90	0.072890	0.433180	0.845920
C911	C91	0.191580	0.430560	0.850170
C921	C92	0.854420	0.389040	0.893560
C931	C93	0.743970	0.303140	0.912200
C941	C94	0.630090	0.313780	0.916300
C951	C95	0.721440	0.483680	0.882200
C961	C96	0.840010	0.480220	0.876400
N11	N1	0.156650	0.381100	0.398730
N21	N2	0.786420	0.403840	0.403280
N31	N3	0.296750	0.014100	0.284610
N41	N4	0.507140	0.981880	0.027410
N51	N5	0.775550	0.618900	0.101270
N61	N6	0.382580	0.596160	0.096720
N71	N7	0.282650	0.985900	0.215390
N81	N8	0.525260	0.018120	0.472590
N91	N9	0.843350	0.618900	0.601270
N101	N10	0.213580	0.596160	0.596720
N111	N11	0.703250	0.985900	0.715390
N121	N12	0.492860	0.018120	0.972590
N131	N13	0.224450	0.381100	0.898730
N141	N14	0.617420	0.403840	0.903280
N151	N15	0.717350	0.014100	0.784610
N161	N16	0.474740	0.981880	0.527410
O11	O1	0.076630	0.559460	0.412010
O21	O2	0.954420	0.397640	0.255200
O31	O3	0.885150	0.260840	0.319110
O41	O4	0.065480	0.681400	0.508840
O51	O5	0.517170	0.440540	0.087990
O61	O6	0.556780	0.602360	0.244800
O71	O7	0.624310	0.739160	0.180890
O81	O8	0.384080	0.318600	0.991160
O91	O9	0.923370	0.440540	0.587990
O101	O10	0.045580	0.602360	0.744800
O111	O11	0.114850	0.739160	0.680890
O121	O12	0.934520	0.318600	0.491160
O131	O13	0.482830	0.559460	0.912010
O141	O14	0.443220	0.397640	0.755200
O151	O15	0.375690	0.260840	0.819110
O161	O16	0.615920	0.681400	0.008840
