data_OSIKUX_clean_h_PM
_symmetry_space_group_name_H-M	'P1'
_cell_length_a	26.204100
_cell_length_b	13.766300
_cell_length_c	43.603900
_cell_angle_alpha	90.000000
_cell_angle_beta	90.000000
_cell_angle_gamma	90.000000
_symmetry_Int_Tables_number 1

loop_
_symmetry_equiv_pos_as_xyz
'x,y,z'

loop_
_atom_site_label
_atom_site_type_symbol
_atom_site_fract_x
_atom_site_fract_y
_atom_site_fract_z
Zn11	Zn1	0.264330	0.780300	0.652960
Zn21	Zn2	0.512350	0.096600	0.908360
Zn31	Zn3	0.019200	0.138400	0.885560
C11	C1	0.273900	0.979000	0.786500
C21	C2	0.278200	0.936000	0.753700
C31	C3	0.322000	0.893000	0.744200
C41	C4	0.231900	0.928000	0.734800
C51	C5	0.313100	0.011000	0.832600
C61	C6	0.226400	0.005000	0.829700
C71	C7	0.324600	0.864000	0.713000
C81	C8	0.237100	0.880000	0.706500
C91	C9	0.361500	0.014000	0.851000
C101	C10	0.176200	0.023000	0.842800
C111	C11	0.360800	0.026000	0.881400
C121	C12	0.406700	0.010000	0.836400
C131	C13	0.133900	0.022000	0.822800
C141	C14	0.168500	0.048000	0.873700
C151	C15	0.404200	0.059000	0.894900
C161	C16	0.450200	0.037000	0.852100
C171	C17	0.086500	0.029000	0.834900
C181	C18	0.119500	0.070000	0.882200
C191	C19	0.337500	0.819800	0.599400
C201	C20	0.317100	0.956000	0.628800
C211	C21	0.363500	0.877000	0.578200
C221	C22	0.335400	0.020000	0.604200
C231	C23	0.363100	0.975000	0.581500
C241	C24	0.379700	0.038000	0.556600
C251	C25	0.416000	0.177000	0.544000
C261	C26	0.428100	0.048000	0.514000
C271	C27	0.431500	0.278000	0.553200
C281	C28	0.443200	0.007000	0.482000
C291	C29	0.472300	0.323000	0.537800
C301	C30	0.415200	0.321000	0.579800
C311	C31	0.469000	0.070000	0.460800
C321	C32	0.440400	0.910000	0.476900
C331	C33	0.485900	0.414000	0.546500
C341	C34	0.434100	0.408000	0.588100
C351	C35	0.486300	0.028000	0.433400
C361	C36	0.455100	0.870000	0.448700
Br11	Br1	0.301090	0.614000	0.665670
Br21	Br2	0.179980	0.779700	0.638000
Br31	Br3	0.574090	0.154800	0.876400
Br41	Br4	0.476410	0.170600	0.950490
Br51	Br5	0.954740	0.071500	0.859200
Br61	Br6	0.049400	0.298600	0.890980
N11	N1	0.317900	0.990000	0.802200
N21	N2	0.226600	0.992000	0.798500
N31	N3	0.268000	0.009900	0.848400
N41	N4	0.281000	0.847000	0.696400
N51	N5	0.318200	0.850000	0.626000
N61	N6	0.447600	0.060000	0.881000
N71	N7	0.079500	0.071400	0.862700
N81	N8	0.385700	0.132000	0.561800
N91	N9	0.402200	0.990300	0.532500
N101	N10	0.443000	0.138000	0.522700
N111	N11	0.463300	0.461200	0.568400
N121	N12	0.470900	0.940000	0.426100
H11	H1	0.354720	0.881550	0.761050
H21	H2	0.194350	0.959880	0.743350
H31	H3	0.363270	0.854540	0.701400
H41	H4	0.202280	0.868350	0.691260
H51	H5	0.324720	0.008710	0.894950
H61	H6	0.408560	0.984670	0.811530
H71	H7	0.140040	0.015390	0.797000
H81	H8	0.202150	0.049210	0.890260
H91	H9	0.403100	0.087250	0.919470
H101	H10	0.488520	0.039180	0.839740
H111	H11	0.052300	0.999260	0.821750
H121	H12	0.110560	0.088640	0.907100
H131	H13	0.331150	0.739280	0.594630
H141	H14	0.301430	0.988530	0.650920
H151	H15	0.384790	0.841390	0.558360
H161	H16	0.326320	0.100960	0.604860
H171	H17	0.492980	0.283030	0.518570
H181	H18	0.385700	0.283070	0.594830
H191	H19	0.474560	0.150030	0.466630
H201	H20	0.425900	0.859550	0.495710
H211	H21	0.518650	0.452720	0.534390
H221	H22	0.425780	0.438280	0.611910
H231	H23	0.513330	0.070030	0.417800
H241	H24	0.453900	0.787980	0.445170
Zn41	Zn4	0.235670	0.219700	0.152960
Zn51	Zn5	0.987650	0.903400	0.408360
Zn61	Zn6	0.480800	0.861600	0.385560
C371	C37	0.226100	0.021000	0.286500
C381	C38	0.221800	0.064000	0.253700
C391	C39	0.178000	0.107000	0.244200
C401	C40	0.268100	0.072000	0.234800
C411	C41	0.186900	0.989000	0.332600
C421	C42	0.273600	0.995000	0.329700
C431	C43	0.175400	0.136000	0.213000
C441	C44	0.262900	0.120000	0.206500
C451	C45	0.138500	0.986000	0.351000
C461	C46	0.323800	0.977000	0.342800
C471	C47	0.139200	0.974000	0.381400
C481	C48	0.093300	0.990000	0.336400
C491	C49	0.366100	0.978000	0.322800
C501	C50	0.331500	0.952000	0.373700
C511	C51	0.095800	0.941000	0.394900
C521	C52	0.049800	0.963000	0.352100
C531	C53	0.413500	0.971000	0.334900
C541	C54	0.380500	0.930000	0.382200
C551	C55	0.162500	0.180200	0.099400
C561	C56	0.182900	0.044000	0.128800
C571	C57	0.136500	0.123000	0.078200
C581	C58	0.164600	0.980000	0.104200
C591	C59	0.136900	0.025000	0.081500
C601	C60	0.120300	0.962000	0.056600
C611	C61	0.084000	0.823000	0.044000
C621	C62	0.071900	0.952000	0.014000
C631	C63	0.068500	0.722000	0.053200
C641	C64	0.056800	0.993000	0.982000
C651	C65	0.027700	0.677000	0.037800
C661	C66	0.084800	0.679000	0.079800
C671	C67	0.031000	0.930000	0.960800
C681	C68	0.059600	0.090000	0.976900
C691	C69	0.014100	0.586000	0.046500
C701	C70	0.065900	0.592000	0.088100
C711	C71	0.013700	0.972000	0.933400
C721	C72	0.044900	0.130000	0.948700
Br71	Br7	0.198910	0.386000	0.165670
Br81	Br8	0.320020	0.220300	0.138000
Br91	Br9	0.925910	0.845200	0.376400
Br101	Br10	0.023590	0.829400	0.450490
Br111	Br11	0.545260	0.928500	0.359200
Br121	Br12	0.450600	0.701400	0.390980
N131	N13	0.182100	0.010000	0.302200
N141	N14	0.273400	0.008000	0.298500
N151	N15	0.232000	0.990100	0.348400
N161	N16	0.219000	0.153000	0.196400
N171	N17	0.181800	0.150000	0.126000
N181	N18	0.052400	0.940000	0.381000
N191	N19	0.420500	0.928600	0.362700
N201	N20	0.114300	0.868000	0.061800
N211	N21	0.097800	0.009700	0.032500
N221	N22	0.057000	0.862000	0.022700
N231	N23	0.036700	0.538800	0.068400
N241	N24	0.029100	0.060000	0.926100
H251	H25	0.145280	0.118450	0.261050
H261	H26	0.305650	0.040120	0.243350
H271	H27	0.136730	0.145460	0.201400
H281	H28	0.297720	0.131650	0.191260
H291	H29	0.175280	0.991290	0.394950
H301	H30	0.091440	0.015330	0.311530
H311	H31	0.359960	0.984610	0.297000
H321	H32	0.297850	0.950790	0.390260
H331	H33	0.096900	0.912750	0.419470
H341	H34	0.011480	0.960820	0.339740
H351	H35	0.447700	0.000740	0.321750
H361	H36	0.389440	0.911360	0.407100
H371	H37	0.168850	0.260720	0.094630
H381	H38	0.198570	0.011470	0.150920
H391	H39	0.115210	0.158610	0.058360
H401	H40	0.173680	0.899040	0.104860
H411	H41	0.007020	0.716970	0.018570
H421	H42	0.114300	0.716930	0.094830
H431	H43	0.025440	0.849970	0.966630
H441	H44	0.074100	0.140450	0.995710
H451	H45	0.981350	0.547280	0.034390
H461	H46	0.074220	0.561720	0.111910
H471	H47	0.986670	0.929970	0.917800
H481	H48	0.046100	0.212020	0.945170
Zn71	Zn7	0.735670	0.280300	0.847040
Zn81	Zn8	0.487650	0.596600	0.591640
Zn91	Zn9	0.980800	0.638400	0.614440
C731	C73	0.726100	0.479000	0.713500
C741	C74	0.721800	0.436000	0.746300
C751	C75	0.678000	0.393000	0.755800
C761	C76	0.768100	0.428000	0.765200
C771	C77	0.686900	0.511000	0.667400
C781	C78	0.773600	0.505000	0.670300
C791	C79	0.675400	0.364000	0.787000
C801	C80	0.762900	0.380000	0.793500
C811	C81	0.638500	0.514000	0.649000
C821	C82	0.823800	0.523000	0.657200
C831	C83	0.639200	0.526000	0.618600
C841	C84	0.593300	0.510000	0.663600
C851	C85	0.866100	0.522000	0.677200
C861	C86	0.831500	0.548000	0.626300
C871	C87	0.595800	0.559000	0.605100
C881	C88	0.549800	0.537000	0.647900
C891	C89	0.913500	0.529000	0.665100
C901	C90	0.880500	0.570000	0.617800
C911	C91	0.662500	0.319800	0.900600
C921	C92	0.682900	0.456000	0.871200
C931	C93	0.636500	0.377000	0.921800
C941	C94	0.664600	0.520000	0.895800
C951	C95	0.636900	0.475000	0.918500
C961	C96	0.620300	0.538000	0.943400
C971	C97	0.584000	0.677000	0.956000
C981	C98	0.571900	0.548000	0.986000
C991	C99	0.568500	0.778000	0.946800
C1001	C100	0.556800	0.507000	0.018000
C1011	C101	0.527700	0.823000	0.962200
C1021	C102	0.584800	0.821000	0.920200
C1031	C103	0.531000	0.570000	0.039200
C1041	C104	0.559600	0.410000	0.023100
C1051	C105	0.514100	0.914000	0.953500
C1061	C106	0.565900	0.908000	0.911900
C1071	C107	0.513700	0.528000	0.066600
C1081	C108	0.544900	0.370000	0.051300
Br131	Br13	0.698910	0.114000	0.834330
Br141	Br14	0.820020	0.279700	0.862000
Br151	Br15	0.425910	0.654800	0.623600
Br161	Br16	0.523590	0.670600	0.549510
Br171	Br17	0.045260	0.571500	0.640800
Br181	Br18	0.950600	0.798600	0.609020
N251	N25	0.682100	0.490000	0.697800
N261	N26	0.773400	0.492000	0.701500
N271	N27	0.732000	0.509900	0.651600
N281	N28	0.719000	0.347000	0.803600
N291	N29	0.681800	0.350000	0.874000
N301	N30	0.552400	0.560000	0.619000
N311	N31	0.920500	0.571400	0.637300
N321	N32	0.614300	0.632000	0.938200
N331	N33	0.597800	0.490300	0.967500
N341	N34	0.557000	0.638000	0.977300
N351	N35	0.536700	0.961200	0.931600
N361	N36	0.529100	0.440000	0.073900
H491	H49	0.645280	0.381550	0.738950
H501	H50	0.805650	0.459880	0.756650
H511	H51	0.636730	0.354540	0.798600
H521	H52	0.797720	0.368350	0.808740
H531	H53	0.675280	0.508710	0.605050
H541	H54	0.591440	0.484670	0.688470
H551	H55	0.859960	0.515390	0.703000
H561	H56	0.797850	0.549210	0.609740
H571	H57	0.596900	0.587250	0.580530
H581	H58	0.511480	0.539180	0.660260
H591	H59	0.947700	0.499260	0.678250
H601	H60	0.889440	0.588640	0.592900
H611	H61	0.668850	0.239280	0.905370
H621	H62	0.698570	0.488530	0.849080
H631	H63	0.615210	0.341390	0.941640
H641	H64	0.673680	0.600960	0.895140
H651	H65	0.507020	0.783030	0.981430
H661	H66	0.614300	0.783070	0.905170
H671	H67	0.525440	0.650030	0.033370
H681	H68	0.574100	0.359550	0.004290
H691	H69	0.481350	0.952720	0.965610
H701	H70	0.574220	0.938280	0.888090
H711	H71	0.486670	0.570030	0.082200
H721	H72	0.546100	0.287980	0.054830
Zn101	Zn10	0.764330	0.719700	0.347040
Zn111	Zn11	0.012350	0.403400	0.091640
Zn121	Zn12	0.519200	0.361600	0.114440
C1091	C109	0.773900	0.521000	0.213500
C1101	C110	0.778200	0.564000	0.246300
C1111	C111	0.822000	0.607000	0.255800
C1121	C112	0.731900	0.572000	0.265200
C1131	C113	0.813100	0.489000	0.167400
C1141	C114	0.726400	0.495000	0.170300
C1151	C115	0.824600	0.636000	0.287000
C1161	C116	0.737100	0.620000	0.293500
C1171	C117	0.861500	0.486000	0.149000
C1181	C118	0.676200	0.477000	0.157200
C1191	C119	0.860800	0.474000	0.118600
C1201	C120	0.906700	0.490000	0.163600
C1211	C121	0.633900	0.478000	0.177200
C1221	C122	0.668500	0.452000	0.126300
C1231	C123	0.904200	0.441000	0.105100
C1241	C124	0.950200	0.463000	0.147900
C1251	C125	0.586500	0.471000	0.165100
C1261	C126	0.619500	0.430000	0.117800
C1271	C127	0.837500	0.680200	0.400600
C1281	C128	0.817100	0.544000	0.371200
C1291	C129	0.863500	0.623000	0.421800
C1301	C130	0.835400	0.480000	0.395800
C1311	C131	0.863100	0.525000	0.418500
C1321	C132	0.879700	0.462000	0.443400
C1331	C133	0.916000	0.323000	0.456000
C1341	C134	0.928100	0.452000	0.486000
C1351	C135	0.931500	0.222000	0.446800
C1361	C136	0.943200	0.493000	0.518000
C1371	C137	0.972300	0.177000	0.462200
C1381	C138	0.915200	0.179000	0.420200
C1391	C139	0.969000	0.430000	0.539200
C1401	C140	0.940400	0.590000	0.523100
C1411	C141	0.985900	0.086000	0.453500
C1421	C142	0.934100	0.092000	0.411900
C1431	C143	0.986300	0.472000	0.566600
C1441	C144	0.955100	0.630000	0.551300
Br191	Br19	0.801090	0.886000	0.334330
Br201	Br20	0.679980	0.720300	0.362000
Br211	Br21	0.074090	0.345200	0.123600
Br221	Br22	0.976410	0.329400	0.049510
Br231	Br23	0.454740	0.428500	0.140800
Br241	Br24	0.549400	0.201400	0.109020
N371	N37	0.817900	0.510000	0.197800
N381	N38	0.726600	0.508000	0.201500
N391	N39	0.768000	0.490100	0.151600
N401	N40	0.781000	0.653000	0.303600
N411	N41	0.818200	0.650000	0.374000
N421	N42	0.947600	0.440000	0.119000
N431	N43	0.579500	0.428600	0.137300
N441	N44	0.885700	0.368000	0.438200
N451	N45	0.902200	0.509700	0.467500
N461	N46	0.943000	0.362000	0.477300
N471	N47	0.963300	0.038800	0.431600
N481	N48	0.970900	0.560000	0.573900
H731	H73	0.854720	0.618450	0.238950
H741	H74	0.694350	0.540120	0.256650
H751	H75	0.863270	0.645460	0.298600
H761	H76	0.702280	0.631650	0.308740
H771	H77	0.824720	0.491290	0.105050
H781	H78	0.908560	0.515330	0.188470
H791	H79	0.640040	0.484610	0.203000
H801	H80	0.702150	0.450790	0.109740
H811	H81	0.903100	0.412750	0.080530
H821	H82	0.988520	0.460820	0.160260
H831	H83	0.552300	0.500740	0.178250
H841	H84	0.610560	0.411360	0.092900
H851	H85	0.831150	0.760720	0.405370
H861	H86	0.801430	0.511470	0.349080
H871	H87	0.884790	0.658610	0.441640
H881	H88	0.826320	0.399040	0.395140
H891	H89	0.992980	0.216970	0.481430
H901	H90	0.885700	0.216930	0.405170
H911	H91	0.974560	0.349970	0.533370
H921	H92	0.925900	0.640450	0.504290
H931	H93	0.018650	0.047280	0.465610
H941	H94	0.925780	0.061720	0.388090
H951	H95	0.013330	0.429970	0.582200
H961	H96	0.953900	0.712020	0.554830
Zn131	Zn13	0.735670	0.219700	0.347040
Zn141	Zn14	0.487650	0.903400	0.091640
Zn151	Zn15	0.980800	0.861600	0.114440
C1451	C145	0.726100	0.021000	0.213500
C1461	C146	0.721800	0.064000	0.246300
C1471	C147	0.678000	0.107000	0.255800
C1481	C148	0.768100	0.072000	0.265200
C1491	C149	0.686900	0.989000	0.167400
C1501	C150	0.773600	0.995000	0.170300
C1511	C151	0.675400	0.136000	0.287000
C1521	C152	0.762900	0.120000	0.293500
C1531	C153	0.638500	0.986000	0.149000
C1541	C154	0.823800	0.977000	0.157200
C1551	C155	0.639200	0.974000	0.118600
C1561	C156	0.593300	0.990000	0.163600
C1571	C157	0.866100	0.978000	0.177200
C1581	C158	0.831500	0.952000	0.126300
C1591	C159	0.595800	0.941000	0.105100
C1601	C160	0.549800	0.963000	0.147900
C1611	C161	0.913500	0.971000	0.165100
C1621	C162	0.880500	0.930000	0.117800
C1631	C163	0.662500	0.180200	0.400600
C1641	C164	0.682900	0.044000	0.371200
C1651	C165	0.636500	0.123000	0.421800
C1661	C166	0.664600	0.980000	0.395800
C1671	C167	0.636900	0.025000	0.418500
C1681	C168	0.620300	0.962000	0.443400
C1691	C169	0.584000	0.823000	0.456000
C1701	C170	0.571900	0.952000	0.486000
C1711	C171	0.568500	0.722000	0.446800
C1721	C172	0.556800	0.993000	0.518000
C1731	C173	0.527700	0.677000	0.462200
C1741	C174	0.584800	0.679000	0.420200
C1751	C175	0.531000	0.930000	0.539200
C1761	C176	0.559600	0.090000	0.523100
C1771	C177	0.514100	0.586000	0.453500
C1781	C178	0.565900	0.592000	0.411900
C1791	C179	0.513700	0.972000	0.566600
C1801	C180	0.544900	0.130000	0.551300
Br251	Br25	0.698910	0.386000	0.334330
Br261	Br26	0.820020	0.220300	0.362000
Br271	Br27	0.425910	0.845200	0.123600
Br281	Br28	0.523590	0.829400	0.049510
Br291	Br29	0.045260	0.928500	0.140800
Br301	Br30	0.950600	0.701400	0.109020
N491	N49	0.682100	0.010000	0.197800
N501	N50	0.773400	0.008000	0.201500
N511	N51	0.732000	0.990100	0.151600
N521	N52	0.719000	0.153000	0.303600
N531	N53	0.681800	0.150000	0.374000
N541	N54	0.552400	0.940000	0.119000
N551	N55	0.920500	0.928600	0.137300
N561	N56	0.614300	0.868000	0.438200
N571	N57	0.597800	0.009700	0.467500
N581	N58	0.557000	0.862000	0.477300
N591	N59	0.536700	0.538800	0.431600
N601	N60	0.529100	0.060000	0.573900
H971	H97	0.645280	0.118450	0.238950
H981	H98	0.805650	0.040120	0.256650
H991	H99	0.636730	0.145460	0.298600
H1001	H100	0.797720	0.131650	0.308740
H1011	H101	0.675280	0.991290	0.105050
H1021	H102	0.591440	0.015330	0.188470
H1031	H103	0.859960	0.984610	0.203000
H1041	H104	0.797850	0.950790	0.109740
H1051	H105	0.596900	0.912750	0.080530
H1061	H106	0.511480	0.960820	0.160260
H1071	H107	0.947700	0.000740	0.178250
H1081	H108	0.889440	0.911360	0.092900
H1091	H109	0.668850	0.260720	0.405370
H1101	H110	0.698570	0.011470	0.349080
H1111	H111	0.615210	0.158610	0.441640
H1121	H112	0.673680	0.899040	0.395140
H1131	H113	0.507020	0.716970	0.481430
H1141	H114	0.614300	0.716930	0.405170
H1151	H115	0.525440	0.849970	0.533370
H1161	H116	0.574100	0.140450	0.504290
H1171	H117	0.481350	0.547280	0.465610
H1181	H118	0.574220	0.561720	0.388090
H1191	H119	0.486670	0.929970	0.582200
H1201	H120	0.546100	0.212020	0.554830
Zn161	Zn16	0.764330	0.780300	0.847040
Zn171	Zn17	0.012350	0.096600	0.591640
Zn181	Zn18	0.519200	0.138400	0.614440
C1811	C181	0.773900	0.979000	0.713500
C1821	C182	0.778200	0.936000	0.746300
C1831	C183	0.822000	0.893000	0.755800
C1841	C184	0.731900	0.928000	0.765200
C1851	C185	0.813100	0.011000	0.667400
C1861	C186	0.726400	0.005000	0.670300
C1871	C187	0.824600	0.864000	0.787000
C1881	C188	0.737100	0.880000	0.793500
C1891	C189	0.861500	0.014000	0.649000
C1901	C190	0.676200	0.023000	0.657200
C1911	C191	0.860800	0.026000	0.618600
C1921	C192	0.906700	0.010000	0.663600
C1931	C193	0.633900	0.022000	0.677200
C1941	C194	0.668500	0.048000	0.626300
C1951	C195	0.904200	0.059000	0.605100
C1961	C196	0.950200	0.037000	0.647900
C1971	C197	0.586500	0.029000	0.665100
C1981	C198	0.619500	0.070000	0.617800
C1991	C199	0.837500	0.819800	0.900600
C2001	C200	0.817100	0.956000	0.871200
C2011	C201	0.863500	0.877000	0.921800
C2021	C202	0.835400	0.020000	0.895800
C2031	C203	0.863100	0.975000	0.918500
C2041	C204	0.879700	0.038000	0.943400
C2051	C205	0.916000	0.177000	0.956000
C2061	C206	0.928100	0.048000	0.986000
C2071	C207	0.931500	0.278000	0.946800
C2081	C208	0.943200	0.007000	0.018000
C2091	C209	0.972300	0.323000	0.962200
C2101	C210	0.915200	0.321000	0.920200
C2111	C211	0.969000	0.070000	0.039200
C2121	C212	0.940400	0.910000	0.023100
C2131	C213	0.985900	0.414000	0.953500
C2141	C214	0.934100	0.408000	0.911900
C2151	C215	0.986300	0.028000	0.066600
C2161	C216	0.955100	0.870000	0.051300
Br311	Br31	0.801090	0.614000	0.834330
Br321	Br32	0.679980	0.779700	0.862000
Br331	Br33	0.074090	0.154800	0.623600
Br341	Br34	0.976410	0.170600	0.549510
Br351	Br35	0.454740	0.071500	0.640800
Br361	Br36	0.549400	0.298600	0.609020
N611	N61	0.817900	0.990000	0.697800
N621	N62	0.726600	0.992000	0.701500
N631	N63	0.768000	0.009900	0.651600
N641	N64	0.781000	0.847000	0.803600
N651	N65	0.818200	0.850000	0.874000
N661	N66	0.947600	0.060000	0.619000
N671	N67	0.579500	0.071400	0.637300
N681	N68	0.885700	0.132000	0.938200
N691	N69	0.902200	0.990300	0.967500
N701	N70	0.943000	0.138000	0.977300
N711	N71	0.963300	0.461200	0.931600
N721	N72	0.970900	0.940000	0.073900
H1211	H121	0.854720	0.881550	0.738950
H1221	H122	0.694350	0.959880	0.756650
H1231	H123	0.863270	0.854540	0.798600
H1241	H124	0.702280	0.868350	0.808740
H1251	H125	0.824720	0.008710	0.605050
H1261	H126	0.908560	0.984670	0.688470
H1271	H127	0.640040	0.015390	0.703000
H1281	H128	0.702150	0.049210	0.609740
H1291	H129	0.903100	0.087250	0.580530
H1301	H130	0.988520	0.039180	0.660260
H1311	H131	0.552300	0.999260	0.678250
H1321	H132	0.610560	0.088640	0.592900
H1331	H133	0.831150	0.739280	0.905370
H1341	H134	0.801430	0.988530	0.849080
H1351	H135	0.884790	0.841390	0.941640
H1361	H136	0.826320	0.100960	0.895140
H1371	H137	0.992980	0.283030	0.981430
H1381	H138	0.885700	0.283070	0.905170
H1391	H139	0.974560	0.150030	0.033370
H1401	H140	0.925900	0.859550	0.004290
H1411	H141	0.018650	0.452720	0.965610
H1421	H142	0.925780	0.438280	0.888090
H1431	H143	0.013330	0.070030	0.082200
H1441	H144	0.953900	0.787980	0.054830
Zn191	Zn19	0.264330	0.719700	0.152960
Zn201	Zn20	0.512350	0.403400	0.408360
Zn211	Zn21	0.019200	0.361600	0.385560
C2171	C217	0.273900	0.521000	0.286500
C2181	C218	0.278200	0.564000	0.253700
C2191	C219	0.322000	0.607000	0.244200
C2201	C220	0.231900	0.572000	0.234800
C2211	C221	0.313100	0.489000	0.332600
C2221	C222	0.226400	0.495000	0.329700
C2231	C223	0.324600	0.636000	0.213000
C2241	C224	0.237100	0.620000	0.206500
C2251	C225	0.361500	0.486000	0.351000
C2261	C226	0.176200	0.477000	0.342800
C2271	C227	0.360800	0.474000	0.381400
C2281	C228	0.406700	0.490000	0.336400
C2291	C229	0.133900	0.478000	0.322800
C2301	C230	0.168500	0.452000	0.373700
C2311	C231	0.404200	0.441000	0.394900
C2321	C232	0.450200	0.463000	0.352100
C2331	C233	0.086500	0.471000	0.334900
C2341	C234	0.119500	0.430000	0.382200
C2351	C235	0.337500	0.680200	0.099400
C2361	C236	0.317100	0.544000	0.128800
C2371	C237	0.363500	0.623000	0.078200
C2381	C238	0.335400	0.480000	0.104200
C2391	C239	0.363100	0.525000	0.081500
C2401	C240	0.379700	0.462000	0.056600
C2411	C241	0.416000	0.323000	0.044000
C2421	C242	0.428100	0.452000	0.014000
C2431	C243	0.431500	0.222000	0.053200
C2441	C244	0.443200	0.493000	0.982000
C2451	C245	0.472300	0.177000	0.037800
C2461	C246	0.415200	0.179000	0.079800
C2471	C247	0.469000	0.430000	0.960800
C2481	C248	0.440400	0.590000	0.976900
C2491	C249	0.485900	0.086000	0.046500
C2501	C250	0.434100	0.092000	0.088100
C2511	C251	0.486300	0.472000	0.933400
C2521	C252	0.455100	0.630000	0.948700
Br371	Br37	0.301090	0.886000	0.165670
Br381	Br38	0.179980	0.720300	0.138000
Br391	Br39	0.574090	0.345200	0.376400
Br401	Br40	0.476410	0.329400	0.450490
Br411	Br41	0.954740	0.428500	0.359200
Br421	Br42	0.049400	0.201400	0.390980
N731	N73	0.317900	0.510000	0.302200
N741	N74	0.226600	0.508000	0.298500
N751	N75	0.268000	0.490100	0.348400
N761	N76	0.281000	0.653000	0.196400
N771	N77	0.318200	0.650000	0.126000
N781	N78	0.447600	0.440000	0.381000
N791	N79	0.079500	0.428600	0.362700
N801	N80	0.385700	0.368000	0.061800
N811	N81	0.402200	0.509700	0.032500
N821	N82	0.443000	0.362000	0.022700
N831	N83	0.463300	0.038800	0.068400
N841	N84	0.470900	0.560000	0.926100
H1451	H145	0.354720	0.618450	0.261050
H1461	H146	0.194350	0.540120	0.243350
H1471	H147	0.363270	0.645460	0.201400
H1481	H148	0.202280	0.631650	0.191260
H1491	H149	0.324720	0.491290	0.394950
H1501	H150	0.408560	0.515330	0.311530
H1511	H151	0.140040	0.484610	0.297000
H1521	H152	0.202150	0.450790	0.390260
H1531	H153	0.403100	0.412750	0.419470
H1541	H154	0.488520	0.460820	0.339740
H1551	H155	0.052300	0.500740	0.321750
H1561	H156	0.110560	0.411360	0.407100
H1571	H157	0.331150	0.760720	0.094630
H1581	H158	0.301430	0.511470	0.150920
H1591	H159	0.384790	0.658610	0.058360
H1601	H160	0.326320	0.399040	0.104860
H1611	H161	0.492980	0.216970	0.018570
H1621	H162	0.385700	0.216930	0.094830
H1631	H163	0.474560	0.349970	0.966630
H1641	H164	0.425900	0.640450	0.995710
H1651	H165	0.518650	0.047280	0.034390
H1661	H166	0.425780	0.061720	0.111910
H1671	H167	0.513330	0.429970	0.917800
H1681	H168	0.453900	0.712020	0.945170
Zn221	Zn22	0.235670	0.280300	0.652960
Zn231	Zn23	0.987650	0.596600	0.908360
Zn241	Zn24	0.480800	0.638400	0.885560
C2531	C253	0.226100	0.479000	0.786500
C2541	C254	0.221800	0.436000	0.753700
C2551	C255	0.178000	0.393000	0.744200
C2561	C256	0.268100	0.428000	0.734800
C2571	C257	0.186900	0.511000	0.832600
C2581	C258	0.273600	0.505000	0.829700
C2591	C259	0.175400	0.364000	0.713000
C2601	C260	0.262900	0.380000	0.706500
C2611	C261	0.138500	0.514000	0.851000
C2621	C262	0.323800	0.523000	0.842800
C2631	C263	0.139200	0.526000	0.881400
C2641	C264	0.093300	0.510000	0.836400
C2651	C265	0.366100	0.522000	0.822800
C2661	C266	0.331500	0.548000	0.873700
C2671	C267	0.095800	0.559000	0.894900
C2681	C268	0.049800	0.537000	0.852100
C2691	C269	0.413500	0.529000	0.834900
C2701	C270	0.380500	0.570000	0.882200
C2711	C271	0.162500	0.319800	0.599400
C2721	C272	0.182900	0.456000	0.628800
C2731	C273	0.136500	0.377000	0.578200
C2741	C274	0.164600	0.520000	0.604200
C2751	C275	0.136900	0.475000	0.581500
C2761	C276	0.120300	0.538000	0.556600
C2771	C277	0.084000	0.677000	0.544000
C2781	C278	0.071900	0.548000	0.514000
C2791	C279	0.068500	0.778000	0.553200
C2801	C280	0.056800	0.507000	0.482000
C2811	C281	0.027700	0.823000	0.537800
C2821	C282	0.084800	0.821000	0.579800
C2831	C283	0.031000	0.570000	0.460800
C2841	C284	0.059600	0.410000	0.476900
C2851	C285	0.014100	0.914000	0.546500
C2861	C286	0.065900	0.908000	0.588100
C2871	C287	0.013700	0.528000	0.433400
C2881	C288	0.044900	0.370000	0.448700
Br431	Br43	0.198910	0.114000	0.665670
Br441	Br44	0.320020	0.279700	0.638000
Br451	Br45	0.925910	0.654800	0.876400
Br461	Br46	0.023590	0.670600	0.950490
Br471	Br47	0.545260	0.571500	0.859200
Br481	Br48	0.450600	0.798600	0.890980
N851	N85	0.182100	0.490000	0.802200
N861	N86	0.273400	0.492000	0.798500
N871	N87	0.232000	0.509900	0.848400
N881	N88	0.219000	0.347000	0.696400
N891	N89	0.181800	0.350000	0.626000
N901	N90	0.052400	0.560000	0.881000
N911	N91	0.420500	0.571400	0.862700
N921	N92	0.114300	0.632000	0.561800
N931	N93	0.097800	0.490300	0.532500
N941	N94	0.057000	0.638000	0.522700
N951	N95	0.036700	0.961200	0.568400
N961	N96	0.029100	0.440000	0.426100
H1691	H169	0.145280	0.381550	0.761050
H1701	H170	0.305650	0.459880	0.743350
H1711	H171	0.136730	0.354540	0.701400
H1721	H172	0.297720	0.368350	0.691260
H1731	H173	0.175280	0.508710	0.894950
H1741	H174	0.091440	0.484670	0.811530
H1751	H175	0.359960	0.515390	0.797000
H1761	H176	0.297850	0.549210	0.890260
H1771	H177	0.096900	0.587250	0.919470
H1781	H178	0.011480	0.539180	0.839740
H1791	H179	0.447700	0.499260	0.821750
H1801	H180	0.389440	0.588640	0.907100
H1811	H181	0.168850	0.239280	0.594630
H1821	H182	0.198570	0.488530	0.650920
H1831	H183	0.115210	0.341390	0.558360
H1841	H184	0.173680	0.600960	0.604860
H1851	H185	0.007020	0.783030	0.518570
H1861	H186	0.114300	0.783070	0.594830
H1871	H187	0.025440	0.650030	0.466630
H1881	H188	0.074100	0.359550	0.495710
H1891	H189	0.981350	0.952720	0.534390
H1901	H190	0.074220	0.938280	0.611910
H1911	H191	0.986670	0.570030	0.417800
H1921	H192	0.046100	0.287980	0.445170
