data_OSIKIL_clean_PM
_symmetry_space_group_name_H-M	'P1'
_cell_length_a	13.688800
_cell_length_b	27.469000
_cell_length_c	45.996100
_cell_angle_alpha	90.000000
_cell_angle_beta	90.000000
_cell_angle_gamma	90.000000
_symmetry_Int_Tables_number 1

loop_
_symmetry_equiv_pos_as_xyz
'x,y,z'

loop_
_atom_site_label
_atom_site_type_symbol
_atom_site_fract_x
_atom_site_fract_y
_atom_site_fract_z
Zn11	Zn1	0.146300	0.469580	0.909970
Zn21	Zn2	0.350100	0.254070	0.811820
Zn31	Zn3	0.652630	0.054210	0.571960
Zn41	Zn4	0.853700	0.030420	0.409970
Zn51	Zn5	0.649900	0.245930	0.311820
Zn61	Zn6	0.347370	0.445790	0.071960
Zn71	Zn7	0.646300	0.530420	0.590030
Zn81	Zn8	0.850100	0.745930	0.688180
Zn91	Zn9	0.152630	0.945790	0.928040
Zn101	Zn10	0.353700	0.969580	0.090030
Zn111	Zn11	0.149900	0.754070	0.188180
Zn121	Zn12	0.847370	0.554210	0.428040
H11	H1	0.991200	0.414100	0.878400
H21	H2	0.835700	0.383000	0.885400
H31	H3	0.846000	0.432000	0.968500
H41	H4	0.002900	0.459600	0.959400
H51	H5	0.634800	0.443300	0.003900
H61	H6	0.543600	0.466000	0.044500
H71	H7	0.312500	0.397200	0.014400
H81	H8	0.396700	0.372800	0.972800
H91	H9	0.393900	0.343700	0.904700
H101	H10	0.312800	0.307200	0.866200
H111	H11	0.561300	0.273700	0.828600
H121	H12	0.649400	0.311700	0.865400
H131	H13	0.490900	0.346900	0.728700
H141	H14	0.425600	0.334700	0.775100
H151	H15	0.464600	0.193100	0.769000
H161	H16	0.528000	0.200500	0.722300
H171	H17	0.592000	0.351000	0.594600
H181	H18	0.613600	0.426500	0.573400
H191	H19	0.597700	0.491000	0.649900
H201	H20	0.573100	0.416100	0.673100
H211	H21	0.554100	0.150800	0.659800
H221	H22	0.576000	0.082500	0.631000
H231	H23	0.648500	0.163700	0.563600
H241	H24	0.620800	0.234400	0.589500
H251	H25	0.008800	0.085900	0.378400
H261	H26	0.164300	0.117000	0.385400
H271	H27	0.154000	0.068000	0.468500
H281	H28	0.997100	0.040400	0.459400
H291	H29	0.365200	0.056700	0.503900
H301	H30	0.456400	0.034000	0.544500
H311	H31	0.687500	0.102800	0.514400
H321	H32	0.603300	0.127200	0.472800
H331	H33	0.606100	0.156300	0.404700
H341	H34	0.687200	0.192800	0.366200
H351	H35	0.438700	0.226300	0.328600
H361	H36	0.350600	0.188300	0.365400
H371	H37	0.509100	0.153100	0.228700
H381	H38	0.574400	0.165300	0.275100
H391	H39	0.535400	0.306900	0.269000
H401	H40	0.472000	0.299500	0.222300
H411	H41	0.408000	0.149000	0.094600
H421	H42	0.386400	0.073500	0.073400
H431	H43	0.402300	0.009000	0.149900
H441	H44	0.426900	0.083900	0.173100
H451	H45	0.445900	0.349200	0.159800
H461	H46	0.424000	0.417500	0.131000
H471	H47	0.351500	0.336300	0.063600
H481	H48	0.379200	0.265600	0.089500
H491	H49	0.491200	0.585900	0.621600
H501	H50	0.335700	0.617000	0.614600
H511	H51	0.346000	0.568000	0.531500
H521	H52	0.502900	0.540400	0.540600
H531	H53	0.134800	0.556700	0.496100
H541	H54	0.043600	0.534000	0.455500
H551	H55	0.812500	0.602800	0.485600
H561	H56	0.896700	0.627200	0.527200
H571	H57	0.893900	0.656300	0.595300
H581	H58	0.812800	0.692800	0.633800
H591	H59	0.061300	0.726300	0.671400
H601	H60	0.149400	0.688300	0.634600
H611	H61	0.990900	0.653100	0.771300
H621	H62	0.925600	0.665300	0.724900
H631	H63	0.964600	0.806900	0.731000
H641	H64	0.028000	0.799500	0.777700
H651	H65	0.092000	0.649000	0.905400
H661	H66	0.113600	0.573500	0.926600
H671	H67	0.097700	0.509000	0.850100
H681	H68	0.073100	0.583900	0.826900
H691	H69	0.054100	0.849200	0.840200
H701	H70	0.076000	0.917500	0.869000
H711	H71	0.148500	0.836300	0.936400
H721	H72	0.120800	0.765600	0.910500
H731	H73	0.508800	0.914100	0.121600
H741	H74	0.664300	0.883000	0.114600
H751	H75	0.654000	0.932000	0.031500
H761	H76	0.497100	0.959600	0.040600
H771	H77	0.865200	0.943300	0.996100
H781	H78	0.956400	0.966000	0.955500
H791	H79	0.187500	0.897200	0.985600
H801	H80	0.103300	0.872800	0.027200
H811	H81	0.106100	0.843700	0.095300
H821	H82	0.187200	0.807200	0.133800
H831	H83	0.938700	0.773700	0.171400
H841	H84	0.850600	0.811700	0.134600
H851	H85	0.009100	0.846900	0.271300
H861	H86	0.074400	0.834700	0.224900
H871	H87	0.035400	0.693100	0.231000
H881	H88	0.972000	0.700500	0.277700
H891	H89	0.908000	0.851000	0.405400
H901	H90	0.886400	0.926500	0.426600
H911	H91	0.902300	0.991000	0.350100
H921	H92	0.926900	0.916100	0.326900
H931	H93	0.945900	0.650800	0.340200
H941	H94	0.924000	0.582500	0.369000
H951	H95	0.851500	0.663700	0.436400
H961	H96	0.879200	0.734400	0.410500
C11	C1	0.961100	0.417450	0.896890
C21	C2	0.868200	0.399100	0.900850
C31	C3	0.822500	0.404410	0.927740
C41	C4	0.874400	0.427660	0.949840
C51	C5	0.967600	0.444310	0.944130
C61	C6	0.568800	0.433000	0.005660
C71	C7	0.513900	0.446530	0.029900
C81	C8	0.379000	0.406370	0.012250
C91	C9	0.428700	0.391430	0.987360
C101	C10	0.526700	0.404560	0.984260
C111	C11	0.720600	0.388550	0.931730
C121	C12	0.582200	0.389070	0.958140
C131	C13	0.583600	0.354690	0.913780
C141	C14	0.531000	0.330750	0.889320
C151	C15	0.429900	0.329580	0.889200
C161	C16	0.382200	0.307590	0.866280
C171	C17	0.527000	0.288410	0.844290
C181	C18	0.580100	0.310530	0.866260
C191	C19	0.483600	0.314890	0.736240
C201	C20	0.445700	0.307260	0.763990
C211	C21	0.468200	0.224400	0.760360
C221	C22	0.505700	0.228400	0.732560
C231	C23	0.510200	0.274600	0.719840
C241	C24	0.593100	0.379340	0.606440
C251	C25	0.606400	0.424420	0.593890
C261	C26	0.596700	0.462020	0.638660
C271	C27	0.582300	0.417490	0.652650
C281	C28	0.581600	0.375280	0.636120
C291	C29	0.571600	0.326750	0.649940
C301	C30	0.540600	0.279830	0.688930
C311	C31	0.573800	0.244810	0.645820
C321	C32	0.586500	0.200520	0.627930
C331	C33	0.572800	0.154220	0.640060
C341	C34	0.586900	0.113770	0.622780
C351	C35	0.628100	0.161250	0.583330
C361	C36	0.613200	0.203610	0.598630
C371	C37	0.038900	0.082550	0.396890
C381	C38	0.131800	0.100900	0.400850
C391	C39	0.177500	0.095590	0.427740
C401	C40	0.125600	0.072340	0.449840
C411	C41	0.032400	0.055690	0.444130
C421	C42	0.431200	0.067000	0.505660
C431	C43	0.486100	0.053470	0.529900
C441	C44	0.621000	0.093630	0.512250
C451	C45	0.571300	0.108570	0.487360
C461	C46	0.473300	0.095440	0.484260
C471	C47	0.279400	0.111450	0.431730
C481	C48	0.417800	0.110930	0.458140
C491	C49	0.416400	0.145310	0.413780
C501	C50	0.469000	0.169250	0.389320
C511	C51	0.570100	0.170420	0.389200
C521	C52	0.617800	0.192410	0.366280
C531	C53	0.473000	0.211590	0.344290
C541	C54	0.419900	0.189470	0.366260
C551	C55	0.516400	0.185110	0.236240
C561	C56	0.554300	0.192740	0.263990
C571	C57	0.531800	0.275600	0.260360
C581	C58	0.494300	0.271600	0.232560
C591	C59	0.489800	0.225400	0.219840
C601	C60	0.406900	0.120660	0.106440
C611	C61	0.393600	0.075580	0.093890
C621	C62	0.403300	0.037980	0.138660
C631	C63	0.417700	0.082510	0.152650
C641	C64	0.418400	0.124720	0.136120
C651	C65	0.428400	0.173250	0.149940
C661	C66	0.459400	0.220170	0.188930
C671	C67	0.426200	0.255190	0.145820
C681	C68	0.413500	0.299480	0.127930
C691	C69	0.427200	0.345780	0.140060
C701	C70	0.413100	0.386230	0.122780
C711	C71	0.371900	0.338750	0.083330
C721	C72	0.386800	0.296390	0.098630
C731	C73	0.461100	0.582550	0.603110
C741	C74	0.368200	0.600900	0.599150
C751	C75	0.322500	0.595590	0.572260
C761	C76	0.374400	0.572340	0.550160
C771	C77	0.467600	0.555690	0.555870
C781	C78	0.068800	0.567000	0.494340
C791	C79	0.013900	0.553470	0.470100
C801	C80	0.879000	0.593630	0.487750
C811	C81	0.928700	0.608570	0.512640
C821	C82	0.026700	0.595440	0.515740
C831	C83	0.220600	0.611450	0.568270
C841	C84	0.082200	0.610930	0.541860
C851	C85	0.083600	0.645310	0.586220
C861	C86	0.031000	0.669250	0.610680
C871	C87	0.929900	0.670420	0.610800
C881	C88	0.882200	0.692410	0.633720
C891	C89	0.027000	0.711590	0.655710
C901	C90	0.080100	0.689470	0.633740
C911	C91	0.983600	0.685110	0.763760
C921	C92	0.945700	0.692740	0.736010
C931	C93	0.968200	0.775600	0.739640
C941	C94	0.005700	0.771600	0.767440
C951	C95	0.010200	0.725400	0.780160
C961	C96	0.093100	0.620660	0.893560
C971	C97	0.106400	0.575580	0.906110
C981	C98	0.096700	0.537980	0.861340
C991	C99	0.082300	0.582510	0.847350
C1001	C100	0.081600	0.624720	0.863880
C1011	C101	0.071600	0.673250	0.850060
C1021	C102	0.040600	0.720170	0.811070
C1031	C103	0.073800	0.755190	0.854180
C1041	C104	0.086500	0.799480	0.872070
C1051	C105	0.072800	0.845780	0.859940
C1061	C106	0.086900	0.886230	0.877220
C1071	C107	0.128100	0.838750	0.916670
C1081	C108	0.113200	0.796390	0.901370
C1091	C109	0.538900	0.917450	0.103110
C1101	C110	0.631800	0.899100	0.099150
C1111	C111	0.677500	0.904410	0.072260
C1121	C112	0.625600	0.927660	0.050160
C1131	C113	0.532400	0.944310	0.055870
C1141	C114	0.931200	0.933000	0.994340
C1151	C115	0.986100	0.946530	0.970100
C1161	C116	0.121000	0.906370	0.987750
C1171	C117	0.071300	0.891430	0.012640
C1181	C118	0.973300	0.904560	0.015740
C1191	C119	0.779400	0.888550	0.068270
C1201	C120	0.917800	0.889070	0.041860
C1211	C121	0.916400	0.854690	0.086220
C1221	C122	0.969000	0.830750	0.110680
C1231	C123	0.070100	0.829580	0.110800
C1241	C124	0.117800	0.807590	0.133720
C1251	C125	0.973000	0.788410	0.155710
C1261	C126	0.919900	0.810530	0.133740
C1271	C127	0.016400	0.814890	0.263760
C1281	C128	0.054300	0.807260	0.236010
C1291	C129	0.031800	0.724400	0.239640
C1301	C130	0.994300	0.728400	0.267440
C1311	C131	0.989800	0.774600	0.280160
C1321	C132	0.906900	0.879340	0.393560
C1331	C133	0.893600	0.924420	0.406110
C1341	C134	0.903300	0.962020	0.361340
C1351	C135	0.917700	0.917490	0.347350
C1361	C136	0.918400	0.875280	0.363880
C1371	C137	0.928400	0.826750	0.350060
C1381	C138	0.959400	0.779830	0.311070
C1391	C139	0.926200	0.744810	0.354180
C1401	C140	0.913500	0.700520	0.372070
C1411	C141	0.927200	0.654220	0.359940
C1421	C142	0.913100	0.613770	0.377220
C1431	C143	0.871900	0.661250	0.416670
C1441	C144	0.886800	0.703610	0.401370
I11	I1	0.198090	0.307070	0.803720
I21	I2	0.566900	0.985140	0.598420
I31	I3	0.226740	0.487090	0.958960
I41	I4	0.835230	0.063270	0.562130
I51	I5	0.328800	0.163240	0.821700
I61	I6	0.230190	0.419810	0.870760
I71	I7	0.801910	0.192930	0.303720
I81	I8	0.433100	0.514860	0.098420
I91	I9	0.773260	0.012910	0.458960
I101	I10	0.164770	0.436730	0.062130
I111	I11	0.671200	0.336760	0.321700
I121	I12	0.769810	0.080190	0.370760
I131	I13	0.698090	0.692930	0.696280
I141	I14	0.066900	0.014860	0.901580
I151	I15	0.726740	0.512910	0.541040
I161	I16	0.335230	0.936730	0.937870
I171	I17	0.828800	0.836760	0.678300
I181	I18	0.730190	0.580190	0.629240
I191	I19	0.301910	0.807070	0.196280
I201	I20	0.933100	0.485140	0.401580
I211	I21	0.273260	0.987090	0.041040
I221	I22	0.664770	0.563270	0.437870
I231	I23	0.171200	0.663240	0.178300
I241	I24	0.269810	0.919810	0.129240
N11	N1	0.010600	0.439950	0.918350
N21	N2	0.676100	0.401240	0.956830
N31	N3	0.678600	0.364170	0.910020
N41	N4	0.532000	0.365570	0.937430
N51	N5	0.429900	0.286950	0.844290
N61	N6	0.436700	0.262970	0.775570
N71	N7	0.549900	0.324750	0.678320
N81	N8	0.551900	0.238720	0.673890
N91	N9	0.584300	0.287810	0.632540
N101	N10	0.615400	0.116610	0.594660
N111	N11	0.420400	0.432880	0.033270
N121	N12	0.609400	0.465290	0.609640
N131	N13	0.989400	0.060050	0.418350
N141	N14	0.323900	0.098760	0.456830
N151	N15	0.321400	0.135830	0.410020
N161	N16	0.468000	0.134430	0.437430
N171	N17	0.570100	0.213050	0.344290
N181	N18	0.563300	0.237030	0.275570
N191	N19	0.450100	0.175250	0.178320
N201	N20	0.448100	0.261280	0.173890
N211	N21	0.415700	0.212190	0.132540
N221	N22	0.384600	0.383390	0.094660
N231	N23	0.579600	0.067120	0.533270
N241	N24	0.390600	0.034710	0.109640
N251	N25	0.510600	0.560050	0.581650
N261	N26	0.176100	0.598760	0.543170
N271	N27	0.178600	0.635830	0.589980
N281	N28	0.032000	0.634430	0.562570
N291	N29	0.929900	0.713050	0.655710
N301	N30	0.936700	0.737030	0.724430
N311	N31	0.049900	0.675250	0.821680
N321	N32	0.051900	0.761280	0.826110
N331	N33	0.084300	0.712190	0.867460
N341	N34	0.115400	0.883390	0.905340
N351	N35	0.920400	0.567120	0.466730
N361	N36	0.109400	0.534710	0.890360
N371	N37	0.489400	0.939950	0.081650
N381	N38	0.823900	0.901240	0.043170
N391	N39	0.821400	0.864170	0.089980
N401	N40	0.968000	0.865570	0.062570
N411	N41	0.070100	0.786950	0.155710
N421	N42	0.063300	0.762970	0.224430
N431	N43	0.950100	0.824750	0.321680
N441	N44	0.948100	0.738720	0.326110
N451	N45	0.915700	0.787810	0.367460
N461	N46	0.884600	0.616610	0.405340
N471	N47	0.079600	0.932880	0.966730
N481	N48	0.890600	0.965290	0.390360
Zn131	Zn13	0.853700	0.530420	0.090030
Zn141	Zn14	0.649900	0.745930	0.188180
Zn151	Zn15	0.347370	0.945790	0.428040
Zn161	Zn16	0.146300	0.969580	0.590030
Zn171	Zn17	0.350100	0.754070	0.688180
Zn181	Zn18	0.652630	0.554210	0.928040
Zn191	Zn19	0.353700	0.469580	0.409970
Zn201	Zn20	0.149900	0.254070	0.311820
Zn211	Zn21	0.847370	0.054210	0.071960
Zn221	Zn22	0.646300	0.030420	0.909970
Zn231	Zn23	0.850100	0.245930	0.811820
Zn241	Zn24	0.152630	0.445790	0.571960
H971	H97	0.008800	0.585900	0.121600
H981	H98	0.164300	0.617000	0.114600
H991	H99	0.154000	0.568000	0.031500
H1001	H100	0.997100	0.540400	0.040600
H1011	H101	0.365200	0.556700	0.996100
H1021	H102	0.456400	0.534000	0.955500
H1031	H103	0.687500	0.602800	0.985600
H1041	H104	0.603300	0.627200	0.027200
H1051	H105	0.606100	0.656300	0.095300
H1061	H106	0.687200	0.692800	0.133800
H1071	H107	0.438700	0.726300	0.171400
H1081	H108	0.350600	0.688300	0.134600
H1091	H109	0.509100	0.653100	0.271300
H1101	H110	0.574400	0.665300	0.224900
H1111	H111	0.535400	0.806900	0.231000
H1121	H112	0.472000	0.799500	0.277700
H1131	H113	0.408000	0.649000	0.405400
H1141	H114	0.386400	0.573500	0.426600
H1151	H115	0.402300	0.509000	0.350100
H1161	H116	0.426900	0.583900	0.326900
H1171	H117	0.445900	0.849200	0.340200
H1181	H118	0.424000	0.917500	0.369000
H1191	H119	0.351500	0.836300	0.436400
H1201	H120	0.379200	0.765600	0.410500
H1211	H121	0.991200	0.914100	0.621600
H1221	H122	0.835700	0.883000	0.614600
H1231	H123	0.846000	0.932000	0.531500
H1241	H124	0.002900	0.959600	0.540600
H1251	H125	0.634800	0.943300	0.496100
H1261	H126	0.543600	0.966000	0.455500
H1271	H127	0.312500	0.897200	0.485600
H1281	H128	0.396700	0.872800	0.527200
H1291	H129	0.393900	0.843700	0.595300
H1301	H130	0.312800	0.807200	0.633800
H1311	H131	0.561300	0.773700	0.671400
H1321	H132	0.649400	0.811700	0.634600
H1331	H133	0.490900	0.846900	0.771300
H1341	H134	0.425600	0.834700	0.724900
H1351	H135	0.464600	0.693100	0.731000
H1361	H136	0.528000	0.700500	0.777700
H1371	H137	0.592000	0.851000	0.905400
H1381	H138	0.613600	0.926500	0.926600
H1391	H139	0.597700	0.991000	0.850100
H1401	H140	0.573100	0.916100	0.826900
H1411	H141	0.554100	0.650800	0.840200
H1421	H142	0.576000	0.582500	0.869000
H1431	H143	0.648500	0.663700	0.936400
H1441	H144	0.620800	0.734400	0.910500
H1451	H145	0.508800	0.414100	0.378400
H1461	H146	0.664300	0.383000	0.385400
H1471	H147	0.654000	0.432000	0.468500
H1481	H148	0.497100	0.459600	0.459400
H1491	H149	0.865200	0.443300	0.503900
H1501	H150	0.956400	0.466000	0.544500
H1511	H151	0.187500	0.397200	0.514400
H1521	H152	0.103300	0.372800	0.472800
H1531	H153	0.106100	0.343700	0.404700
H1541	H154	0.187200	0.307200	0.366200
H1551	H155	0.938700	0.273700	0.328600
H1561	H156	0.850600	0.311700	0.365400
H1571	H157	0.009100	0.346900	0.228700
H1581	H158	0.074400	0.334700	0.275100
H1591	H159	0.035400	0.193100	0.269000
H1601	H160	0.972000	0.200500	0.222300
H1611	H161	0.908000	0.351000	0.094600
H1621	H162	0.886400	0.426500	0.073400
H1631	H163	0.902300	0.491000	0.149900
H1641	H164	0.926900	0.416100	0.173100
H1651	H165	0.945900	0.150800	0.159800
H1661	H166	0.924000	0.082500	0.131000
H1671	H167	0.851500	0.163700	0.063600
H1681	H168	0.879200	0.234400	0.089500
H1691	H169	0.491200	0.085900	0.878400
H1701	H170	0.335700	0.117000	0.885400
H1711	H171	0.346000	0.068000	0.968500
H1721	H172	0.502900	0.040400	0.959400
H1731	H173	0.134800	0.056700	0.003900
H1741	H174	0.043600	0.034000	0.044500
H1751	H175	0.812500	0.102800	0.014400
H1761	H176	0.896700	0.127200	0.972800
H1771	H177	0.893900	0.156300	0.904700
H1781	H178	0.812800	0.192800	0.866200
H1791	H179	0.061300	0.226300	0.828600
H1801	H180	0.149400	0.188300	0.865400
H1811	H181	0.990900	0.153100	0.728700
H1821	H182	0.925600	0.165300	0.775100
H1831	H183	0.964600	0.306900	0.769000
H1841	H184	0.028000	0.299500	0.722300
H1851	H185	0.092000	0.149000	0.594600
H1861	H186	0.113600	0.073500	0.573400
H1871	H187	0.097700	0.009000	0.649900
H1881	H188	0.073100	0.083900	0.673100
H1891	H189	0.054100	0.349200	0.659800
H1901	H190	0.076000	0.417500	0.631000
H1911	H191	0.148500	0.336300	0.563600
H1921	H192	0.120800	0.265600	0.589500
C1451	C145	0.038900	0.582550	0.103110
C1461	C146	0.131800	0.600900	0.099150
C1471	C147	0.177500	0.595590	0.072260
C1481	C148	0.125600	0.572340	0.050160
C1491	C149	0.032400	0.555690	0.055870
C1501	C150	0.431200	0.567000	0.994340
C1511	C151	0.486100	0.553470	0.970100
C1521	C152	0.621000	0.593630	0.987750
C1531	C153	0.571300	0.608570	0.012640
C1541	C154	0.473300	0.595440	0.015740
C1551	C155	0.279400	0.611450	0.068270
C1561	C156	0.417800	0.610930	0.041860
C1571	C157	0.416400	0.645310	0.086220
C1581	C158	0.469000	0.669250	0.110680
C1591	C159	0.570100	0.670420	0.110800
C1601	C160	0.617800	0.692410	0.133720
C1611	C161	0.473000	0.711590	0.155710
C1621	C162	0.419900	0.689470	0.133740
C1631	C163	0.516400	0.685110	0.263760
C1641	C164	0.554300	0.692740	0.236010
C1651	C165	0.531800	0.775600	0.239640
C1661	C166	0.494300	0.771600	0.267440
C1671	C167	0.489800	0.725400	0.280160
C1681	C168	0.406900	0.620660	0.393560
C1691	C169	0.393600	0.575580	0.406110
C1701	C170	0.403300	0.537980	0.361340
C1711	C171	0.417700	0.582510	0.347350
C1721	C172	0.418400	0.624720	0.363880
C1731	C173	0.428400	0.673250	0.350060
C1741	C174	0.459400	0.720170	0.311070
C1751	C175	0.426200	0.755190	0.354180
C1761	C176	0.413500	0.799480	0.372070
C1771	C177	0.427200	0.845780	0.359940
C1781	C178	0.413100	0.886230	0.377220
C1791	C179	0.371900	0.838750	0.416670
C1801	C180	0.386800	0.796390	0.401370
C1811	C181	0.961100	0.917450	0.603110
C1821	C182	0.868200	0.899100	0.599150
C1831	C183	0.822500	0.904410	0.572260
C1841	C184	0.874400	0.927660	0.550160
C1851	C185	0.967600	0.944310	0.555870
C1861	C186	0.568800	0.933000	0.494340
C1871	C187	0.513900	0.946530	0.470100
C1881	C188	0.379000	0.906370	0.487750
C1891	C189	0.428700	0.891430	0.512640
C1901	C190	0.526700	0.904560	0.515740
C1911	C191	0.720600	0.888550	0.568270
C1921	C192	0.582200	0.889070	0.541860
C1931	C193	0.583600	0.854690	0.586220
C1941	C194	0.531000	0.830750	0.610680
C1951	C195	0.429900	0.829580	0.610800
C1961	C196	0.382200	0.807590	0.633720
C1971	C197	0.527000	0.788410	0.655710
C1981	C198	0.580100	0.810530	0.633740
C1991	C199	0.483600	0.814890	0.763760
C2001	C200	0.445700	0.807260	0.736010
C2011	C201	0.468200	0.724400	0.739640
C2021	C202	0.505700	0.728400	0.767440
C2031	C203	0.510200	0.774600	0.780160
C2041	C204	0.593100	0.879340	0.893560
C2051	C205	0.606400	0.924420	0.906110
C2061	C206	0.596700	0.962020	0.861340
C2071	C207	0.582300	0.917490	0.847350
C2081	C208	0.581600	0.875280	0.863880
C2091	C209	0.571600	0.826750	0.850060
C2101	C210	0.540600	0.779830	0.811070
C2111	C211	0.573800	0.744810	0.854180
C2121	C212	0.586500	0.700520	0.872070
C2131	C213	0.572800	0.654220	0.859940
C2141	C214	0.586900	0.613770	0.877220
C2151	C215	0.628100	0.661250	0.916670
C2161	C216	0.613200	0.703610	0.901370
C2171	C217	0.538900	0.417450	0.396890
C2181	C218	0.631800	0.399100	0.400850
C2191	C219	0.677500	0.404410	0.427740
C2201	C220	0.625600	0.427660	0.449840
C2211	C221	0.532400	0.444310	0.444130
C2221	C222	0.931200	0.433000	0.505660
C2231	C223	0.986100	0.446530	0.529900
C2241	C224	0.121000	0.406370	0.512250
C2251	C225	0.071300	0.391430	0.487360
C2261	C226	0.973300	0.404560	0.484260
C2271	C227	0.779400	0.388550	0.431730
C2281	C228	0.917800	0.389070	0.458140
C2291	C229	0.916400	0.354690	0.413780
C2301	C230	0.969000	0.330750	0.389320
C2311	C231	0.070100	0.329580	0.389200
C2321	C232	0.117800	0.307590	0.366280
C2331	C233	0.973000	0.288410	0.344290
C2341	C234	0.919900	0.310530	0.366260
C2351	C235	0.016400	0.314890	0.236240
C2361	C236	0.054300	0.307260	0.263990
C2371	C237	0.031800	0.224400	0.260360
C2381	C238	0.994300	0.228400	0.232560
C2391	C239	0.989800	0.274600	0.219840
C2401	C240	0.906900	0.379340	0.106440
C2411	C241	0.893600	0.424420	0.093890
C2421	C242	0.903300	0.462020	0.138660
C2431	C243	0.917700	0.417490	0.152650
C2441	C244	0.918400	0.375280	0.136120
C2451	C245	0.928400	0.326750	0.149940
C2461	C246	0.959400	0.279830	0.188930
C2471	C247	0.926200	0.244810	0.145820
C2481	C248	0.913500	0.200520	0.127930
C2491	C249	0.927200	0.154220	0.140060
C2501	C250	0.913100	0.113770	0.122780
C2511	C251	0.871900	0.161250	0.083330
C2521	C252	0.886800	0.203610	0.098630
C2531	C253	0.461100	0.082550	0.896890
C2541	C254	0.368200	0.100900	0.900850
C2551	C255	0.322500	0.095590	0.927740
C2561	C256	0.374400	0.072340	0.949840
C2571	C257	0.467600	0.055690	0.944130
C2581	C258	0.068800	0.067000	0.005660
C2591	C259	0.013900	0.053470	0.029900
C2601	C260	0.879000	0.093630	0.012250
C2611	C261	0.928700	0.108570	0.987360
C2621	C262	0.026700	0.095440	0.984260
C2631	C263	0.220600	0.111450	0.931730
C2641	C264	0.082200	0.110930	0.958140
C2651	C265	0.083600	0.145310	0.913780
C2661	C266	0.031000	0.169250	0.889320
C2671	C267	0.929900	0.170420	0.889200
C2681	C268	0.882200	0.192410	0.866280
C2691	C269	0.027000	0.211590	0.844290
C2701	C270	0.080100	0.189470	0.866260
C2711	C271	0.983600	0.185110	0.736240
C2721	C272	0.945700	0.192740	0.763990
C2731	C273	0.968200	0.275600	0.760360
C2741	C274	0.005700	0.271600	0.732560
C2751	C275	0.010200	0.225400	0.719840
C2761	C276	0.093100	0.120660	0.606440
C2771	C277	0.106400	0.075580	0.593890
C2781	C278	0.096700	0.037980	0.638660
C2791	C279	0.082300	0.082510	0.652650
C2801	C280	0.081600	0.124720	0.636120
C2811	C281	0.071600	0.173250	0.649940
C2821	C282	0.040600	0.220170	0.688930
C2831	C283	0.073800	0.255190	0.645820
C2841	C284	0.086500	0.299480	0.627930
C2851	C285	0.072800	0.345780	0.640060
C2861	C286	0.086900	0.386230	0.622780
C2871	C287	0.128100	0.338750	0.583330
C2881	C288	0.113200	0.296390	0.598630
I251	I25	0.801910	0.692930	0.196280
I261	I26	0.433100	0.014860	0.401580
I271	I27	0.773260	0.512910	0.041040
I281	I28	0.164770	0.936730	0.437870
I291	I29	0.671200	0.836760	0.178300
I301	I30	0.769810	0.580190	0.129240
I311	I31	0.198090	0.807070	0.696280
I321	I32	0.566900	0.485140	0.901580
I331	I33	0.226740	0.987090	0.541040
I341	I34	0.835230	0.563270	0.937870
I351	I35	0.328800	0.663240	0.678300
I361	I36	0.230190	0.919810	0.629240
I371	I37	0.301910	0.307070	0.303720
I381	I38	0.933100	0.985140	0.098420
I391	I39	0.273260	0.487090	0.458960
I401	I40	0.664770	0.063270	0.062130
I411	I41	0.171200	0.163240	0.321700
I421	I42	0.269810	0.419810	0.370760
I431	I43	0.698090	0.192930	0.803720
I441	I44	0.066900	0.514860	0.598420
I451	I45	0.726740	0.012910	0.958960
I461	I46	0.335230	0.436730	0.562130
I471	I47	0.828800	0.336760	0.821700
I481	I48	0.730190	0.080190	0.870760
N491	N49	0.989400	0.560050	0.081650
N501	N50	0.323900	0.598760	0.043170
N511	N51	0.321400	0.635830	0.089980
N521	N52	0.468000	0.634430	0.062570
N531	N53	0.570100	0.713050	0.155710
N541	N54	0.563300	0.737030	0.224430
N551	N55	0.450100	0.675250	0.321680
N561	N56	0.448100	0.761280	0.326110
N571	N57	0.415700	0.712190	0.367460
N581	N58	0.384600	0.883390	0.405340
N591	N59	0.579600	0.567120	0.966730
N601	N60	0.390600	0.534710	0.390360
N611	N61	0.010600	0.939950	0.581650
N621	N62	0.676100	0.901240	0.543170
N631	N63	0.678600	0.864170	0.589980
N641	N64	0.532000	0.865570	0.562570
N651	N65	0.429900	0.786950	0.655710
N661	N66	0.436700	0.762970	0.724430
N671	N67	0.549900	0.824750	0.821680
N681	N68	0.551900	0.738720	0.826110
N691	N69	0.584300	0.787810	0.867460
N701	N70	0.615400	0.616610	0.905340
N711	N71	0.420400	0.932880	0.466730
N721	N72	0.609400	0.965290	0.890360
N731	N73	0.489400	0.439950	0.418350
N741	N74	0.823900	0.401240	0.456830
N751	N75	0.821400	0.364170	0.410020
N761	N76	0.968000	0.365570	0.437430
N771	N77	0.070100	0.286950	0.344290
N781	N78	0.063300	0.262970	0.275570
N791	N79	0.950100	0.324750	0.178320
N801	N80	0.948100	0.238720	0.173890
N811	N81	0.915700	0.287810	0.132540
N821	N82	0.884600	0.116610	0.094660
N831	N83	0.079600	0.432880	0.533270
N841	N84	0.890600	0.465290	0.109640
N851	N85	0.510600	0.060050	0.918350
N861	N86	0.176100	0.098760	0.956830
N871	N87	0.178600	0.135830	0.910020
N881	N88	0.032000	0.134430	0.937430
N891	N89	0.929900	0.213050	0.844290
N901	N90	0.936700	0.237030	0.775570
N911	N91	0.049900	0.175250	0.678320
N921	N92	0.051900	0.261280	0.673890
N931	N93	0.084300	0.212190	0.632540
N941	N94	0.115400	0.383390	0.594660
N951	N95	0.920400	0.067120	0.033270
N961	N96	0.109400	0.034710	0.609640
