data_OSOMIT_clean_PM
_symmetry_space_group_name_H-M	'P1'
_cell_length_a	10.721000
_cell_length_b	13.018000
_cell_length_c	15.183000
_cell_angle_alpha	95.599000
_cell_angle_beta	108.010000
_cell_angle_gamma	104.702000
_symmetry_Int_Tables_number 1

loop_
_symmetry_equiv_pos_as_xyz
'x,y,z'

loop_
_atom_site_label
_atom_site_type_symbol
_atom_site_fract_x
_atom_site_fract_y
_atom_site_fract_z
Zn11	Zn1	0.582280	0.079580	0.656210
Zn21	Zn2	0.748170	0.367970	0.916080
Zn31	Zn3	0.418310	0.541130	0.837320
Zn41	Zn4	0.417720	0.920420	0.343790
Zn51	Zn5	0.251830	0.632030	0.083920
Zn61	Zn6	0.581690	0.458870	0.162680
H11	H1	0.852300	0.431800	0.665800
H21	H2	0.694700	0.377800	0.612700
H31	H3	0.058500	0.332600	0.859000
H41	H4	0.165900	0.298300	0.936800
H51	H5	0.636800	0.274200	0.475400
H61	H6	0.753000	0.248600	0.443500
H71	H7	0.051100	0.040300	0.389800
H81	H8	0.932800	0.064900	0.419300
H91	H9	0.263000	0.089500	0.610000
H101	H10	0.239700	0.043000	0.505200
H111	H11	0.300400	0.194000	0.808200
H121	H12	0.325800	0.241700	0.912800
H131	H13	0.883400	0.684300	0.815700
H141	H14	0.015100	0.594400	0.910000
H151	H15	0.159700	0.420200	0.492800
H161	H16	0.184100	0.622800	0.764000
H171	H17	0.050200	0.033000	0.840600
H181	H18	0.260200	0.865000	0.077700
H191	H19	0.335000	0.440000	0.633600
H201	H20	0.138500	0.964100	0.988300
H211	H21	0.004900	0.606800	0.628200
H221	H22	0.728100	0.774800	0.803700
H231	H23	0.899300	0.117700	0.760000
H241	H24	0.585800	0.866500	0.721400
H251	H25	0.147700	0.568200	0.334200
H261	H26	0.305300	0.622200	0.387300
H271	H27	0.941500	0.667400	0.141000
H281	H28	0.834100	0.701700	0.063200
H291	H29	0.363200	0.725800	0.524600
H301	H30	0.247000	0.751400	0.556500
H311	H31	0.948900	0.959700	0.610200
H321	H32	0.067200	0.935100	0.580700
H331	H33	0.737000	0.910500	0.390000
H341	H34	0.760300	0.957000	0.494800
H351	H35	0.699600	0.806000	0.191800
H361	H36	0.674200	0.758300	0.087200
H371	H37	0.116600	0.315700	0.184300
H381	H38	0.984900	0.405600	0.090000
H391	H39	0.840300	0.579800	0.507200
H401	H40	0.815900	0.377200	0.236000
H411	H41	0.949800	0.967000	0.159400
H421	H42	0.739800	0.135000	0.922300
H431	H43	0.665000	0.560000	0.366400
H441	H44	0.861500	0.035900	0.011700
H451	H45	0.995100	0.393200	0.371800
H461	H46	0.271900	0.225200	0.196300
H471	H47	0.100700	0.882300	0.240000
H481	H48	0.414200	0.133500	0.278600
C11	C1	0.779300	0.363700	0.647200
C21	C2	0.764900	0.325800	0.736200
C31	C3	0.128200	0.278600	0.727000
C41	C4	0.081100	0.190600	0.579500
C51	C5	0.930800	0.267600	0.611600
C61	C6	0.156100	0.344500	0.890300
C71	C7	0.707600	0.238200	0.489600
C81	C8	0.025200	0.096800	0.419800
C91	C9	0.247000	0.106800	0.547500
C101	C10	0.639000	0.117400	0.478300
C111	C11	0.463400	0.325000	0.862900
C121	C12	0.323900	0.260900	0.852300
C131	C13	0.220300	0.461000	0.941600
C141	C14	0.369300	0.196900	0.550400
C151	C15	0.021800	0.183900	0.360300
C161	C16	0.959200	0.722900	0.868400
C171	C17	0.058400	0.507900	0.544900
C181	C18	0.038700	0.669300	0.926100
C191	C19	0.161600	0.460400	0.547500
C201	C20	0.177900	0.580700	0.708800
C211	C21	0.904400	0.894500	0.833600
C221	C22	0.956100	0.998100	0.818100
C231	C23	0.183400	0.828900	0.024800
C241	C24	0.267400	0.473300	0.632300
C251	C25	0.110800	0.889100	0.971200
C261	C26	0.994900	0.835500	0.890800
C271	C27	0.069800	0.571200	0.627600
C281	C28	0.765200	0.844600	0.796000
C291	C29	0.864300	0.047700	0.768400
C301	C30	0.680200	0.900300	0.746100
C311	C31	0.220700	0.636300	0.352800
C321	C32	0.235100	0.674200	0.263800
C331	C33	0.871800	0.721400	0.273000
C341	C34	0.918900	0.809400	0.420500
C351	C35	0.069200	0.732400	0.388400
C361	C36	0.843900	0.655500	0.109700
C371	C37	0.292400	0.761800	0.510400
C381	C38	0.974800	0.903200	0.580200
C391	C39	0.753000	0.893200	0.452500
C401	C40	0.361000	0.882600	0.521700
C411	C41	0.536600	0.675000	0.137100
C421	C42	0.676100	0.739100	0.147700
C431	C43	0.779700	0.539000	0.058400
C441	C44	0.630700	0.803100	0.449600
C451	C45	0.978200	0.816100	0.639700
C461	C46	0.040800	0.277100	0.131600
C471	C47	0.941600	0.492100	0.455100
C481	C48	0.961300	0.330700	0.073900
C491	C49	0.838400	0.539600	0.452500
C501	C50	0.822100	0.419300	0.291200
C511	C51	0.095600	0.105500	0.166400
C521	C52	0.043900	0.001900	0.181900
C531	C53	0.816600	0.171100	0.975200
C541	C54	0.732600	0.526700	0.367700
C551	C55	0.889200	0.110900	0.028800
C561	C56	0.005100	0.164500	0.109200
C571	C57	0.930200	0.428800	0.372400
C581	C58	0.234800	0.155400	0.204000
C591	C59	0.135700	0.952300	0.231600
C601	C60	0.319800	0.099700	0.253900
N11	N1	0.012300	0.307700	0.701400
N21	N2	0.808600	0.290200	0.583500
N31	N3	0.170300	0.222600	0.668800
N41	N4	0.958400	0.208000	0.545800
N51	N5	0.116700	0.131000	0.516900
N61	N6	0.212500	0.310200	0.820200
N71	N7	0.147100	0.720500	0.003400
N81	N8	0.274900	0.531900	0.711600
N91	N9	0.729500	0.001600	0.732200
N101	N10	0.987700	0.692300	0.298600
N111	N11	0.191400	0.709800	0.416500
N121	N12	0.829700	0.777400	0.331200
N131	N13	0.041600	0.792000	0.454200
N141	N14	0.883300	0.869000	0.483100
N151	N15	0.787500	0.689800	0.179800
N161	N16	0.852900	0.279500	0.996600
N171	N17	0.725100	0.468100	0.288400
N181	N18	0.270500	0.998400	0.267800
O11	O1	0.659400	0.072300	0.549200
O21	O2	0.783800	0.405500	0.802800
O31	O3	0.736500	0.231400	0.747200
O41	O4	0.568900	0.069500	0.395400
O51	O5	0.554500	0.278200	0.885500
O61	O6	0.494300	0.420800	0.851200
O71	O7	0.175200	0.484200	0.006600
O81	O8	0.305900	0.530900	0.920800
O91	O9	0.350800	0.272700	0.506800
O101	O10	0.487900	0.191800	0.593500
O111	O11	0.134200	0.264600	0.381600
O121	O12	0.918800	0.177600	0.293800
O131	O13	0.340600	0.927700	0.450800
O141	O14	0.216200	0.594500	0.197200
O151	O15	0.263500	0.768600	0.252800
O161	O16	0.431100	0.930500	0.604600
O171	O17	0.445500	0.721800	0.114500
O181	O18	0.505700	0.579200	0.148800
O191	O19	0.824800	0.515800	0.993400
O201	O20	0.694100	0.469100	0.079200
O211	O21	0.649200	0.727300	0.493200
O221	O22	0.512100	0.808200	0.406500
O231	O23	0.865800	0.735400	0.618400
O241	O24	0.081200	0.822400	0.706200
