data_OSUVOP_clean_PM
_symmetry_space_group_name_H-M	'P1'
_cell_length_a	7.263000
_cell_length_b	24.540000
_cell_length_c	17.718000
_cell_angle_alpha	90.000000
_cell_angle_beta	90.726000
_cell_angle_gamma	90.000000
_symmetry_Int_Tables_number 1

loop_
_symmetry_equiv_pos_as_xyz
'x,y,z'

loop_
_atom_site_label
_atom_site_type_symbol
_atom_site_fract_x
_atom_site_fract_y
_atom_site_fract_z
U11	U1	0.413150	0.544570	0.135930
Si11	Si1	0.666300	0.800030	0.334820
O11	O1	0.277400	0.973700	0.520400
O21	O2	0.139300	0.602100	0.136100
O31	O3	0.305700	0.603000	0.241100
O41	O4	0.364700	0.981900	0.400700
O51	O5	0.271300	0.979400	0.077600
O61	O6	0.070500	0.913300	0.063500
C11	C1	0.502300	0.915900	0.173800
H11	H1	0.550600	0.949200	0.155100
C21	C2	0.600600	0.886200	0.227200
H21	H2	0.715900	0.899800	0.244800
C31	C3	0.535100	0.836900	0.256100
C41	C4	0.330700	0.896600	0.147300
C51	C5	0.265300	0.847000	0.172500
H31	H3	0.152900	0.832800	0.152800
C61	C6	0.365200	0.817900	0.227000
H41	H4	0.317300	0.784300	0.245000
C71	C7	0.219600	0.931100	0.093900
C81	C8	0.803900	0.742300	0.292700
C91	C9	0.774400	0.720400	0.222300
H51	H5	0.673400	0.733300	0.192700
C101	C10	0.887300	0.680200	0.192800
H61	H6	0.863000	0.666000	0.143800
C111	C11	0.037500	0.660600	0.235600
C121	C12	0.067000	0.681400	0.308200
H71	H7	0.165700	0.668000	0.338600
C131	C13	0.952100	0.721400	0.335300
H81	H8	0.974100	0.735300	0.384600
C141	C14	0.166300	0.620200	0.204300
C151	C15	0.837100	0.850300	0.375400
C161	C16	0.986600	0.864700	0.329000
H91	H9	0.997700	0.848100	0.280800
C171	C17	0.117100	0.902400	0.352500
H101	H10	0.213500	0.912500	0.319700
C181	C18	0.107500	0.925700	0.424800
C191	C19	0.962700	0.911000	0.471900
H111	H11	0.956200	0.926000	0.521200
C201	C20	0.828300	0.874600	0.447400
H121	H12	0.728800	0.865900	0.479600
C211	C21	0.257400	0.962400	0.450100
C221	C22	0.502200	0.775100	0.407200
C231	C23	0.478200	0.718400	0.422100
H131	H13	0.550300	0.692200	0.396500
C241	C24	0.346700	0.701600	0.475200
H141	H14	0.328300	0.663800	0.484000
C251	C25	0.244800	0.739200	0.514400
H151	H15	0.158600	0.727400	0.550800
C261	C26	0.267800	0.793400	0.500900
H161	H16	0.196200	0.819200	0.527600
C271	C27	0.394700	0.811400	0.448400
H171	H17	0.408800	0.849400	0.440400
U21	U2	0.586850	0.044570	0.364070
Si21	Si2	0.333700	0.300030	0.165180
O71	O7	0.722600	0.473700	0.979600
O81	O8	0.860700	0.102100	0.363900
O91	O9	0.694300	0.103000	0.258900
O101	O10	0.635300	0.481900	0.099300
O111	O11	0.728700	0.479400	0.422400
O121	O12	0.929500	0.413300	0.436500
C281	C28	0.497700	0.415900	0.326200
H181	H18	0.449400	0.449200	0.344900
C291	C29	0.399400	0.386200	0.272800
H191	H19	0.284100	0.399800	0.255200
C301	C30	0.464900	0.336900	0.243900
C311	C31	0.669300	0.396600	0.352700
C321	C32	0.734700	0.347000	0.327500
H201	H20	0.847100	0.332800	0.347200
C331	C33	0.634800	0.317900	0.273000
H211	H21	0.682700	0.284300	0.255000
C341	C34	0.780400	0.431100	0.406100
C351	C35	0.196100	0.242300	0.207300
C361	C36	0.225600	0.220400	0.277700
H221	H22	0.326600	0.233300	0.307300
C371	C37	0.112700	0.180200	0.307200
H231	H23	0.137000	0.166000	0.356200
C381	C38	0.962500	0.160600	0.264400
C391	C39	0.933000	0.181400	0.191800
H241	H24	0.834300	0.168000	0.161400
C401	C40	0.047900	0.221400	0.164700
H251	H25	0.025900	0.235300	0.115400
C411	C41	0.833700	0.120200	0.295700
C421	C42	0.162900	0.350300	0.124600
C431	C43	0.013400	0.364700	0.171000
H261	H26	0.002300	0.348100	0.219200
C441	C44	0.882900	0.402400	0.147500
H271	H27	0.786500	0.412500	0.180300
C451	C45	0.892500	0.425700	0.075200
C461	C46	0.037300	0.411000	0.028100
H281	H28	0.043800	0.426000	0.978800
C471	C47	0.171700	0.374600	0.052600
H291	H29	0.271200	0.365900	0.020400
C481	C48	0.742600	0.462400	0.049900
C491	C49	0.497800	0.275100	0.092800
C501	C50	0.521800	0.218400	0.077900
H301	H30	0.449700	0.192200	0.103500
C511	C51	0.653300	0.201600	0.024800
H311	H31	0.671700	0.163800	0.016000
C521	C52	0.755200	0.239200	0.985600
H321	H32	0.841400	0.227400	0.949200
C531	C53	0.732200	0.293400	0.999100
H331	H33	0.803800	0.319200	0.972400
C541	C54	0.605300	0.311400	0.051600
H341	H34	0.591200	0.349400	0.059600
U31	U3	0.586850	0.455430	0.864070
Si31	Si3	0.333700	0.199970	0.665180
O131	O13	0.722600	0.026300	0.479600
O141	O14	0.860700	0.397900	0.863900
O151	O15	0.694300	0.397000	0.758900
O161	O16	0.635300	0.018100	0.599300
O171	O17	0.728700	0.020600	0.922400
O181	O18	0.929500	0.086700	0.936500
C551	C55	0.497700	0.084100	0.826200
H351	H35	0.449400	0.050800	0.844900
C561	C56	0.399400	0.113800	0.772800
H361	H36	0.284100	0.100200	0.755200
C571	C57	0.464900	0.163100	0.743900
C581	C58	0.669300	0.103400	0.852700
C591	C59	0.734700	0.153000	0.827500
H371	H37	0.847100	0.167200	0.847200
C601	C60	0.634800	0.182100	0.773000
H381	H38	0.682700	0.215700	0.755000
C611	C61	0.780400	0.068900	0.906100
C621	C62	0.196100	0.257700	0.707300
C631	C63	0.225600	0.279600	0.777700
H391	H39	0.326600	0.266700	0.807300
C641	C64	0.112700	0.319800	0.807200
H401	H40	0.137000	0.334000	0.856200
C651	C65	0.962500	0.339400	0.764400
C661	C66	0.933000	0.318600	0.691800
H411	H41	0.834300	0.332000	0.661400
C671	C67	0.047900	0.278600	0.664700
H421	H42	0.025900	0.264700	0.615400
C681	C68	0.833700	0.379800	0.795700
C691	C69	0.162900	0.149700	0.624600
C701	C70	0.013400	0.135300	0.671000
H431	H43	0.002300	0.151900	0.719200
C711	C71	0.882900	0.097600	0.647500
H441	H44	0.786500	0.087500	0.680300
C721	C72	0.892500	0.074300	0.575200
C731	C73	0.037300	0.089000	0.528100
H451	H45	0.043800	0.074000	0.478800
C741	C74	0.171700	0.125400	0.552600
H461	H46	0.271200	0.134100	0.520400
C751	C75	0.742600	0.037600	0.549900
C761	C76	0.497800	0.224900	0.592800
C771	C77	0.521800	0.281600	0.577900
H471	H47	0.449700	0.307800	0.603500
C781	C78	0.653300	0.298400	0.524800
H481	H48	0.671700	0.336200	0.516000
C791	C79	0.755200	0.260800	0.485600
H491	H49	0.841400	0.272600	0.449200
C801	C80	0.732200	0.206600	0.499100
H501	H50	0.803800	0.180800	0.472400
C811	C81	0.605300	0.188600	0.551600
H511	H51	0.591200	0.150600	0.559600
U41	U4	0.413150	0.955430	0.635930
Si41	Si4	0.666300	0.699970	0.834820
O191	O19	0.277400	0.526300	0.020400
O201	O20	0.139300	0.897900	0.636100
O211	O21	0.305700	0.897000	0.741100
O221	O22	0.364700	0.518100	0.900700
O231	O23	0.271300	0.520600	0.577600
O241	O24	0.070500	0.586700	0.563500
C821	C82	0.502300	0.584100	0.673800
H521	H52	0.550600	0.550800	0.655100
C831	C83	0.600600	0.613800	0.727200
H531	H53	0.715900	0.600200	0.744800
C841	C84	0.535100	0.663100	0.756100
C851	C85	0.330700	0.603400	0.647300
C861	C86	0.265300	0.653000	0.672500
H541	H54	0.152900	0.667200	0.652800
C871	C87	0.365200	0.682100	0.727000
H551	H55	0.317300	0.715700	0.745000
C881	C88	0.219600	0.568900	0.593900
C891	C89	0.803900	0.757700	0.792700
C901	C90	0.774400	0.779600	0.722300
H561	H56	0.673400	0.766700	0.692700
C911	C91	0.887300	0.819800	0.692800
H571	H57	0.863000	0.834000	0.643800
C921	C92	0.037500	0.839400	0.735600
C931	C93	0.067000	0.818600	0.808200
H581	H58	0.165700	0.832000	0.838600
C941	C94	0.952100	0.778600	0.835300
H591	H59	0.974100	0.764700	0.884600
C951	C95	0.166300	0.879800	0.704300
C961	C96	0.837100	0.649700	0.875400
C971	C97	0.986600	0.635300	0.829000
H601	H60	0.997700	0.651900	0.780800
C981	C98	0.117100	0.597600	0.852500
H611	H61	0.213500	0.587500	0.819700
C991	C99	0.107500	0.574300	0.924800
C1001	C100	0.962700	0.589000	0.971900
H621	H62	0.956200	0.574000	0.021200
C1011	C101	0.828300	0.625400	0.947400
H631	H63	0.728800	0.634100	0.979600
C1021	C102	0.257400	0.537600	0.950100
C1031	C103	0.502200	0.724900	0.907200
C1041	C104	0.478200	0.781600	0.922100
H641	H64	0.550300	0.807800	0.896500
C1051	C105	0.346700	0.798400	0.975200
H651	H65	0.328300	0.836200	0.984000
C1061	C106	0.244800	0.760800	0.014400
H661	H66	0.158600	0.772600	0.050800
C1071	C107	0.267800	0.706600	0.000900
H671	H67	0.196200	0.680800	0.027600
C1081	C108	0.394700	0.688600	0.948400
H681	H68	0.408800	0.650600	0.940400
U51	U5	0.000000	0.000000	0.000000
U61	U6	0.000000	0.500000	0.500000
