data_OTAQAD_clean_PM
_symmetry_space_group_name_H-M	'P1'
_cell_length_a	32.950900
_cell_length_b	6.699000
_cell_length_c	16.555500
_cell_angle_alpha	90.000000
_cell_angle_beta	90.000000
_cell_angle_gamma	90.000000
_symmetry_Int_Tables_number 1

loop_
_symmetry_equiv_pos_as_xyz
'x,y,z'

loop_
_atom_site_label
_atom_site_type_symbol
_atom_site_fract_x
_atom_site_fract_y
_atom_site_fract_z
O11	O1	0.790640	0.188100	0.913500
C11	C1	0.883080	0.175300	0.751000
C21	C2	0.851320	0.170700	0.807700
O21	O2	0.290640	0.688100	0.913500
C31	C3	0.383080	0.675300	0.751000
C41	C4	0.351320	0.670700	0.807700
O31	O3	0.209360	0.811900	0.913500
C51	C5	0.116920	0.824700	0.751000
C61	C6	0.148680	0.829300	0.807700
O41	O4	0.709360	0.311900	0.913500
C71	C7	0.616920	0.324700	0.751000
C81	C8	0.648680	0.329300	0.807700
O51	O5	0.209360	0.188100	0.086500
C91	C9	0.116920	0.175300	0.249000
C101	C10	0.148680	0.170700	0.192300
O61	O6	0.709360	0.688100	0.086500
C111	C11	0.616920	0.675300	0.249000
C121	C12	0.648680	0.670700	0.192300
O71	O7	0.790640	0.811900	0.086500
C131	C13	0.883080	0.824700	0.249000
C141	C14	0.851320	0.829300	0.192300
O81	O8	0.290640	0.311900	0.086500
C151	C15	0.383080	0.324700	0.249000
C161	C16	0.351320	0.329300	0.192300
O91	O9	0.209360	0.811900	0.086500
C171	C17	0.116920	0.824700	0.249000
C181	C18	0.148680	0.829300	0.192300
O101	O10	0.709360	0.311900	0.086500
C191	C19	0.616920	0.324700	0.249000
C201	C20	0.648680	0.329300	0.192300
O111	O11	0.790640	0.188100	0.086500
C211	C21	0.883080	0.175300	0.249000
C221	C22	0.851320	0.170700	0.192300
O121	O12	0.290640	0.688100	0.086500
C231	C23	0.383080	0.675300	0.249000
C241	C24	0.351320	0.670700	0.192300
O131	O13	0.790640	0.811900	0.913500
C251	C25	0.883080	0.824700	0.751000
C261	C26	0.851320	0.829300	0.807700
O141	O14	0.290640	0.311900	0.913500
C271	C27	0.383080	0.324700	0.751000
C281	C28	0.351320	0.329300	0.807700
O151	O15	0.209360	0.188100	0.913500
C291	C29	0.116920	0.175300	0.751000
C301	C30	0.148680	0.170700	0.807700
O161	O16	0.709360	0.688100	0.913500
C311	C31	0.616920	0.675300	0.751000
C321	C32	0.648680	0.670700	0.807700
C331	C33	0.968470	0.000000	0.669800
C341	C34	0.979540	0.000000	0.753300
C351	C35	0.914750	0.000000	0.567000
C361	C36	0.876800	0.000000	0.539800
C371	C37	0.929470	0.000000	0.644700
C381	C38	0.900400	0.000000	0.715500
C391	C39	0.833490	0.000000	0.841100
C401	C40	0.799100	0.000000	0.906900
C411	C41	0.468470	0.500000	0.669800
C421	C42	0.479540	0.500000	0.753300
C431	C43	0.414750	0.500000	0.567000
C441	C44	0.376800	0.500000	0.539800
C451	C45	0.429470	0.500000	0.644700
C461	C46	0.400400	0.500000	0.715500
C471	C47	0.333490	0.500000	0.841100
C481	C48	0.299100	0.500000	0.906900
C491	C49	0.031530	0.000000	0.669800
C501	C50	0.020460	0.000000	0.753300
C511	C51	0.085250	0.000000	0.567000
C521	C52	0.123200	0.000000	0.539800
C531	C53	0.070530	0.000000	0.644700
C541	C54	0.099600	0.000000	0.715500
C551	C55	0.166510	0.000000	0.841100
C561	C56	0.200900	0.000000	0.906900
C571	C57	0.531530	0.500000	0.669800
C581	C58	0.520460	0.500000	0.753300
C591	C59	0.585250	0.500000	0.567000
C601	C60	0.623200	0.500000	0.539800
C611	C61	0.570530	0.500000	0.644700
C621	C62	0.599600	0.500000	0.715500
C631	C63	0.666510	0.500000	0.841100
C641	C64	0.700900	0.500000	0.906900
C651	C65	0.031530	0.000000	0.330200
C661	C66	0.020460	0.000000	0.246700
C671	C67	0.085250	0.000000	0.433000
C681	C68	0.123200	0.000000	0.460200
C691	C69	0.070530	0.000000	0.355300
C701	C70	0.099600	0.000000	0.284500
C711	C71	0.166510	0.000000	0.158900
C721	C72	0.200900	0.000000	0.093100
C731	C73	0.531530	0.500000	0.330200
C741	C74	0.520460	0.500000	0.246700
C751	C75	0.585250	0.500000	0.433000
C761	C76	0.623200	0.500000	0.460200
C771	C77	0.570530	0.500000	0.355300
C781	C78	0.599600	0.500000	0.284500
C791	C79	0.666510	0.500000	0.158900
C801	C80	0.700900	0.500000	0.093100
C811	C81	0.968470	0.000000	0.330200
C821	C82	0.979540	0.000000	0.246700
C831	C83	0.914750	0.000000	0.433000
C841	C84	0.876800	0.000000	0.460200
C851	C85	0.929470	0.000000	0.355300
C861	C86	0.900400	0.000000	0.284500
C871	C87	0.833490	0.000000	0.158900
C881	C88	0.799100	0.000000	0.093100
C891	C89	0.468470	0.500000	0.330200
C901	C90	0.479540	0.500000	0.246700
C911	C91	0.414750	0.500000	0.433000
C921	C92	0.376800	0.500000	0.460200
C931	C93	0.429470	0.500000	0.355300
C941	C94	0.400400	0.500000	0.284500
C951	C95	0.333490	0.500000	0.158900
C961	C96	0.299100	0.500000	0.093100
N11	N1	0.000000	0.000000	0.617200
N21	N2	0.500000	0.500000	0.617200
N31	N3	0.000000	0.000000	0.382800
N41	N4	0.500000	0.500000	0.382800
N51	N5	0.938500	0.000000	0.500000
N61	N6	0.438500	0.500000	0.500000
N71	N7	0.061500	0.000000	0.500000
N81	N8	0.561500	0.500000	0.500000
Ga11	Ga1	0.750000	0.250000	0.000000
Ga21	Ga2	0.250000	0.750000	0.000000
Ga31	Ga3	0.250000	0.250000	0.000000
Ga41	Ga4	0.750000	0.750000	0.000000
O171	O17	0.726500	0.000000	0.000000
O181	O18	0.226500	0.500000	0.000000
O191	O19	0.273500	0.000000	0.000000
O201	O20	0.773500	0.500000	0.000000
