data_OTAVAH_clean_PM
_symmetry_space_group_name_H-M	'P1'
_cell_length_a	10.040000
_cell_length_b	17.788000
_cell_length_c	19.786000
_cell_angle_alpha	90.000000
_cell_angle_beta	90.000000
_cell_angle_gamma	90.000000
_symmetry_Int_Tables_number 1

loop_
_symmetry_equiv_pos_as_xyz
'x,y,z'

loop_
_atom_site_label
_atom_site_type_symbol
_atom_site_fract_x
_atom_site_fract_y
_atom_site_fract_z
Gd11	Gd1	0.469530	0.250000	0.250000
Gd21	Gd2	0.030470	0.750000	0.750000
Gd31	Gd3	0.530470	0.750000	0.750000
Gd41	Gd4	0.969530	0.250000	0.250000
H11	H1	0.330200	0.114900	0.571700
H21	H2	0.238600	0.129000	0.081500
H31	H3	0.305500	0.061800	0.991200
H41	H4	0.376100	0.136600	0.458900
H51	H5	0.987100	0.225100	0.554900
H61	H6	0.027900	0.244800	0.440600
H71	H7	0.138700	0.160700	0.619800
H81	H8	0.623200	0.993400	0.093600
H91	H9	0.551700	0.061900	0.184900
H101	H10	0.330200	0.385100	0.928300
H111	H11	0.238600	0.371000	0.418500
H121	H12	0.305500	0.438200	0.508800
H131	H13	0.376100	0.363400	0.041100
H141	H14	0.987100	0.274900	0.945100
H151	H15	0.027900	0.255200	0.059400
H161	H16	0.138700	0.339300	0.880200
H171	H17	0.623200	0.506600	0.406400
H181	H18	0.551700	0.438100	0.315100
H191	H19	0.169800	0.885100	0.071700
H201	H20	0.261400	0.871000	0.581500
H211	H21	0.194500	0.938200	0.491200
H221	H22	0.123900	0.863400	0.958900
H231	H23	0.512900	0.774900	0.054900
H241	H24	0.472100	0.755200	0.940600
H251	H25	0.361300	0.839300	0.119800
H261	H26	0.876800	0.006600	0.593600
H271	H27	0.948300	0.938100	0.684900
H281	H28	0.169800	0.614900	0.428300
H291	H29	0.261400	0.629000	0.918500
H301	H30	0.194500	0.561800	0.008800
H311	H31	0.123900	0.636600	0.541100
H321	H32	0.512900	0.725100	0.445100
H331	H33	0.472100	0.744800	0.559400
H341	H34	0.361300	0.660700	0.380200
H351	H35	0.876800	0.493400	0.906400
H361	H36	0.948300	0.561900	0.815100
H371	H37	0.669800	0.885100	0.428300
H381	H38	0.761400	0.871000	0.918500
H391	H39	0.694500	0.938200	0.008800
H401	H40	0.623900	0.863400	0.541100
H411	H41	0.012900	0.774900	0.445100
H421	H42	0.972100	0.755200	0.559400
H431	H43	0.861300	0.839300	0.380200
H441	H44	0.376800	0.006600	0.906400
H451	H45	0.448300	0.938100	0.815100
H461	H46	0.669800	0.614900	0.071700
H471	H47	0.761400	0.629000	0.581500
H481	H48	0.694500	0.561800	0.491200
H491	H49	0.623900	0.636600	0.958900
H501	H50	0.012900	0.725100	0.054900
H511	H51	0.972100	0.744800	0.940600
H521	H52	0.861300	0.660700	0.119800
H531	H53	0.376800	0.493400	0.593600
H541	H54	0.448300	0.561900	0.684900
H551	H55	0.830200	0.114900	0.928300
H561	H56	0.738600	0.129000	0.418500
H571	H57	0.805500	0.061800	0.508800
H581	H58	0.876100	0.136600	0.041100
H591	H59	0.487100	0.225100	0.945100
H601	H60	0.527900	0.244800	0.059400
H611	H61	0.638700	0.160700	0.880200
H621	H62	0.123200	0.993400	0.406400
H631	H63	0.051700	0.061900	0.315100
H641	H64	0.830200	0.385100	0.571700
H651	H65	0.738600	0.371000	0.081500
H661	H66	0.805500	0.438200	0.991200
H671	H67	0.876100	0.363400	0.458900
H681	H68	0.487100	0.274900	0.554900
H691	H69	0.527900	0.255200	0.440600
H701	H70	0.638700	0.339300	0.619800
H711	H71	0.123200	0.506600	0.093600
H721	H72	0.051700	0.438100	0.184900
C11	C1	0.229900	0.204400	0.363100
C21	C2	0.476500	0.021400	0.030800
C31	C3	0.206100	0.193000	0.438200
C41	C4	0.270000	0.141700	0.545400
C51	C5	0.317700	0.101800	0.083500
C61	C6	0.357900	0.062200	0.030000
C71	C7	0.297200	0.154200	0.477700
C81	C8	0.065100	0.207000	0.535400
C91	C9	0.089800	0.219100	0.466900
C101	C10	0.155300	0.168600	0.574100
C111	C11	0.545400	0.021600	0.090100
C121	C12	0.502600	0.062600	0.145000
C131	C13	0.229900	0.295600	0.136900
C141	C14	0.476500	0.478600	0.469200
C151	C15	0.206100	0.307000	0.061800
C161	C16	0.270000	0.358300	0.954600
C171	C17	0.317700	0.398200	0.416500
C181	C18	0.357900	0.437800	0.470000
C191	C19	0.297200	0.345800	0.022300
C201	C20	0.065100	0.293000	0.964600
C211	C21	0.089800	0.280900	0.033100
C221	C22	0.155300	0.331400	0.925900
C231	C23	0.545400	0.478400	0.409900
C241	C24	0.502600	0.437400	0.355000
C251	C25	0.270100	0.795600	0.863100
C261	C26	0.023500	0.978600	0.530800
C271	C27	0.293900	0.807000	0.938200
C281	C28	0.230000	0.858300	0.045400
C291	C29	0.182300	0.898200	0.583500
C301	C30	0.142100	0.937800	0.530000
C311	C31	0.202800	0.845800	0.977700
C321	C32	0.434900	0.793000	0.035400
C331	C33	0.410200	0.780900	0.966900
C341	C34	0.344700	0.831400	0.074100
C351	C35	0.954600	0.978400	0.590100
C361	C36	0.997400	0.937400	0.645000
C371	C37	0.270100	0.704400	0.636900
C381	C38	0.023500	0.521400	0.969200
C391	C39	0.293900	0.693000	0.561800
C401	C40	0.230000	0.641700	0.454600
C411	C41	0.182300	0.601800	0.916500
C421	C42	0.142100	0.562200	0.970000
C431	C43	0.202800	0.654200	0.522300
C441	C44	0.434900	0.707000	0.464600
C451	C45	0.410200	0.719100	0.533100
C461	C46	0.344700	0.668600	0.425900
C471	C47	0.954600	0.521600	0.909900
C481	C48	0.997400	0.562600	0.855000
C491	C49	0.770100	0.795600	0.636900
C501	C50	0.523500	0.978600	0.969200
C511	C51	0.793900	0.807000	0.561800
C521	C52	0.730000	0.858300	0.454600
C531	C53	0.682300	0.898200	0.916500
C541	C54	0.642100	0.937800	0.970000
C551	C55	0.702800	0.845800	0.522300
C561	C56	0.934900	0.793000	0.464600
C571	C57	0.910200	0.780900	0.533100
C581	C58	0.844700	0.831400	0.425900
C591	C59	0.454600	0.978400	0.909900
C601	C60	0.497400	0.937400	0.855000
C611	C61	0.770100	0.704400	0.863100
C621	C62	0.523500	0.521400	0.530800
C631	C63	0.793900	0.693000	0.938200
C641	C64	0.730000	0.641700	0.045400
C651	C65	0.682300	0.601800	0.583500
C661	C66	0.642100	0.562200	0.530000
C671	C67	0.702800	0.654200	0.977700
C681	C68	0.934900	0.707000	0.035400
C691	C69	0.910200	0.719100	0.966900
C701	C70	0.844700	0.668600	0.074100
C711	C71	0.454600	0.521600	0.590100
C721	C72	0.497400	0.562600	0.645000
C731	C73	0.729900	0.204400	0.136900
C741	C74	0.976500	0.021400	0.469200
C751	C75	0.706100	0.193000	0.061800
C761	C76	0.770000	0.141700	0.954600
C771	C77	0.817700	0.101800	0.416500
C781	C78	0.857900	0.062200	0.470000
C791	C79	0.797200	0.154200	0.022300
C801	C80	0.565100	0.207000	0.964600
C811	C81	0.589800	0.219100	0.033100
C821	C82	0.655300	0.168600	0.925900
C831	C83	0.045400	0.021600	0.409900
C841	C84	0.002600	0.062600	0.355000
C851	C85	0.729900	0.295600	0.363100
C861	C86	0.976500	0.478600	0.030800
C871	C87	0.706100	0.307000	0.438200
C881	C88	0.770000	0.358300	0.545400
C891	C89	0.817700	0.398200	0.083500
C901	C90	0.857900	0.437800	0.030000
C911	C91	0.797200	0.345800	0.477700
C921	C92	0.565100	0.293000	0.535400
C931	C93	0.589800	0.280900	0.466900
C941	C94	0.655300	0.331400	0.574100
C951	C95	0.045400	0.478400	0.090100
C961	C96	0.002600	0.437400	0.145000
N11	N1	0.393000	0.102600	0.141500
N21	N2	0.393000	0.397400	0.358500
N31	N3	0.107000	0.897400	0.641500
N41	N4	0.107000	0.602600	0.858500
N51	N5	0.607000	0.897400	0.858500
N61	N6	0.607000	0.602600	0.641500
N71	N7	0.893000	0.102600	0.358500
N81	N8	0.893000	0.397400	0.141500
O11	O1	0.352500	0.144900	0.194250
O21	O2	0.345000	0.198200	0.340850
O31	O3	0.129700	0.219800	0.328110
O41	O4	0.352500	0.355100	0.305750
O51	O5	0.345000	0.301800	0.159150
O61	O6	0.129700	0.280200	0.171890
O71	O7	0.147500	0.855100	0.694250
O81	O8	0.155000	0.801800	0.840850
O91	O9	0.370300	0.780200	0.828110
O101	O10	0.147500	0.644900	0.805750
O111	O11	0.155000	0.698200	0.659150
O121	O12	0.370300	0.719800	0.671890
O131	O13	0.647500	0.855100	0.805750
O141	O14	0.655000	0.801800	0.659150
O151	O15	0.870300	0.780200	0.671890
O161	O16	0.647500	0.644900	0.694250
O171	O17	0.655000	0.698200	0.840850
O181	O18	0.870300	0.719800	0.828110
O191	O19	0.852500	0.144900	0.305750
O201	O20	0.845000	0.198200	0.159150
O211	O21	0.629700	0.219800	0.171890
O221	O22	0.852500	0.355100	0.194250
O231	O23	0.845000	0.301800	0.340850
O241	O24	0.629700	0.280200	0.328110
