data_OTAXOX_clean_PM
_symmetry_space_group_name_H-M	'P1'
_cell_length_a	9.963800
_cell_length_b	18.082000
_cell_length_c	18.450000
_cell_angle_alpha	90.000000
_cell_angle_beta	90.000000
_cell_angle_gamma	90.000000
_symmetry_Int_Tables_number 1

loop_
_symmetry_equiv_pos_as_xyz
'x,y,z'

loop_
_atom_site_label
_atom_site_type_symbol
_atom_site_fract_x
_atom_site_fract_y
_atom_site_fract_z
Mg11	Mg1	0.424910	0.941440	0.821530
Mg21	Mg2	0.615790	0.035180	0.717170
Mg31	Mg3	0.075090	0.441440	0.678470
Mg41	Mg4	0.884210	0.535180	0.782830
Mg51	Mg5	0.575090	0.558560	0.821530
Mg61	Mg6	0.384210	0.464820	0.717170
Mg71	Mg7	0.924910	0.058560	0.678470
Mg81	Mg8	0.115790	0.964820	0.782830
Mg91	Mg9	0.575090	0.058560	0.178470
Mg101	Mg10	0.384210	0.964820	0.282830
Mg111	Mg11	0.924910	0.558560	0.321530
Mg121	Mg12	0.115790	0.464820	0.217170
Mg131	Mg13	0.424910	0.441440	0.178470
Mg141	Mg14	0.615790	0.535180	0.282830
Mg151	Mg15	0.075090	0.941440	0.321530
Mg161	Mg16	0.884210	0.035180	0.217170
Mg171	Mg17	0.500000	0.000000	0.000000
Mg181	Mg18	0.000000	0.500000	0.500000
Mg191	Mg19	0.500000	0.500000	0.000000
Mg201	Mg20	0.000000	0.000000	0.500000
Mg211	Mg21	0.500000	0.750000	0.815590
Mg221	Mg22	0.000000	0.250000	0.684410
Mg231	Mg23	0.500000	0.250000	0.184410
Mg241	Mg24	0.000000	0.750000	0.315590
H11	H1	0.267300	0.004400	0.638300
H21	H2	0.128300	0.993000	0.947700
H31	H3	0.209600	0.764600	0.817400
H41	H4	0.696800	0.874200	0.685200
H51	H5	0.538500	0.144000	0.848600
H61	H6	0.653700	0.865200	0.970300
H71	H7	0.232700	0.504400	0.861700
H81	H8	0.371700	0.493000	0.552300
H91	H9	0.290400	0.264600	0.682600
H101	H10	0.803200	0.374200	0.814800
H111	H11	0.961500	0.644000	0.651400
H121	H12	0.846300	0.365200	0.529700
H131	H13	0.732700	0.495600	0.638300
H141	H14	0.871700	0.507000	0.947700
H151	H15	0.790400	0.735400	0.817400
H161	H16	0.303200	0.625800	0.685200
H171	H17	0.461500	0.356000	0.848600
H181	H18	0.346300	0.634800	0.970300
H191	H19	0.767300	0.995600	0.861700
H201	H20	0.628300	0.007000	0.552300
H211	H21	0.709600	0.235400	0.682600
H221	H22	0.196800	0.125800	0.814800
H231	H23	0.038500	0.856000	0.651400
H241	H24	0.153700	0.134800	0.529700
H251	H25	0.732700	0.995600	0.361700
H261	H26	0.871700	0.007000	0.052300
H271	H27	0.790400	0.235400	0.182600
H281	H28	0.303200	0.125800	0.314800
H291	H29	0.461500	0.856000	0.151400
H301	H30	0.346300	0.134800	0.029700
H311	H31	0.767300	0.495600	0.138300
H321	H32	0.628300	0.507000	0.447700
H331	H33	0.709600	0.735400	0.317400
H341	H34	0.196800	0.625800	0.185200
H351	H35	0.038500	0.356000	0.348600
H361	H36	0.153700	0.634800	0.470300
H371	H37	0.267300	0.504400	0.361700
H381	H38	0.128300	0.493000	0.052300
H391	H39	0.209600	0.264600	0.182600
H401	H40	0.696800	0.374200	0.314800
H411	H41	0.538500	0.644000	0.151400
H421	H42	0.653700	0.365200	0.029700
H431	H43	0.232700	0.004400	0.138300
H441	H44	0.371700	0.993000	0.447700
H451	H45	0.290400	0.764600	0.317400
H461	H46	0.803200	0.874200	0.185200
H471	H47	0.961500	0.144000	0.348600
H481	H48	0.846300	0.865200	0.470300
C11	C1	0.334300	0.001100	0.673300
C21	C2	0.219100	0.988300	0.936800
C31	C3	0.228100	0.814700	0.811600
C41	C4	0.632000	0.867000	0.720800
C51	C5	0.519400	0.095900	0.863100
C61	C6	0.599800	0.863900	0.929200
C71	C7	0.165700	0.501100	0.826700
C81	C8	0.280900	0.488300	0.563200
C91	C9	0.271900	0.314700	0.688400
C101	C10	0.868000	0.367000	0.779200
C111	C11	0.980600	0.595900	0.636900
C121	C12	0.900200	0.363900	0.570800
C131	C13	0.665700	0.498900	0.673300
C141	C14	0.780900	0.511700	0.936800
C151	C15	0.771900	0.685300	0.811600
C161	C16	0.368000	0.633000	0.720800
C171	C17	0.480600	0.404100	0.863100
C181	C18	0.400200	0.636100	0.929200
C191	C19	0.834300	0.998900	0.826700
C201	C20	0.719100	0.011700	0.563200
C211	C21	0.728100	0.185300	0.688400
C221	C22	0.132000	0.133000	0.779200
C231	C23	0.019400	0.904100	0.636900
C241	C24	0.099800	0.136100	0.570800
C251	C25	0.665700	0.998900	0.326700
C261	C26	0.780900	0.011700	0.063200
C271	C27	0.771900	0.185300	0.188400
C281	C28	0.368000	0.133000	0.279200
C291	C29	0.480600	0.904100	0.136900
C301	C30	0.400200	0.136100	0.070800
C311	C31	0.834300	0.498900	0.173300
C321	C32	0.719100	0.511700	0.436800
C331	C33	0.728100	0.685300	0.311600
C341	C34	0.132000	0.633000	0.220800
C351	C35	0.019400	0.404100	0.363100
C361	C36	0.099800	0.636100	0.429200
C371	C37	0.334300	0.501100	0.326700
C381	C38	0.219100	0.488300	0.063200
C391	C39	0.228100	0.314700	0.188400
C401	C40	0.632000	0.367000	0.279200
C411	C41	0.519400	0.595900	0.136900
C421	C42	0.599800	0.363900	0.070800
C431	C43	0.165700	0.001100	0.173300
C441	C44	0.280900	0.988300	0.436800
C451	C45	0.271900	0.814700	0.311600
C461	C46	0.868000	0.867000	0.220800
C471	C47	0.980600	0.095900	0.363100
C481	C48	0.900200	0.863900	0.429200
O11	O1	0.303600	0.970430	0.732730
O21	O2	0.445600	0.027200	0.657620
O31	O3	0.349500	0.833690	0.816570
O41	O4	0.132200	0.855100	0.800000
O51	O5	0.513800	0.046880	0.814040
O61	O6	0.582400	0.924150	0.748630
O71	O7	0.528600	0.920840	0.916180
O81	O8	0.248200	0.979620	0.871540
O91	O9	0.604200	0.802700	0.735420
O101	O10	0.603800	0.807300	0.892270
O111	O11	0.296100	0.991100	0.987530
O121	O12	0.501500	0.085100	0.928070
O131	O13	0.196400	0.470430	0.767270
O141	O14	0.054400	0.527200	0.842380
O151	O15	0.150500	0.333690	0.683430
O161	O16	0.367800	0.355100	0.700000
O171	O17	0.986200	0.546880	0.685960
O181	O18	0.917600	0.424150	0.751370
O191	O19	0.971400	0.420840	0.583820
O201	O20	0.251800	0.479620	0.628460
O211	O21	0.895800	0.302700	0.764580
O221	O22	0.896200	0.307300	0.607730
O231	O23	0.203900	0.491100	0.512470
O241	O24	0.998500	0.585100	0.571930
O251	O25	0.696400	0.529570	0.732730
O261	O26	0.554400	0.472800	0.657620
O271	O27	0.650500	0.666310	0.816570
O281	O28	0.867800	0.644900	0.800000
O291	O29	0.486200	0.453120	0.814040
O301	O30	0.417600	0.575850	0.748630
O311	O31	0.471400	0.579160	0.916180
O321	O32	0.751800	0.520380	0.871540
O331	O33	0.395800	0.697300	0.735420
O341	O34	0.396200	0.692700	0.892270
O351	O35	0.703900	0.508900	0.987530
O361	O36	0.498500	0.414900	0.928070
O371	O37	0.803600	0.029570	0.767270
O381	O38	0.945600	0.972800	0.842380
O391	O39	0.849500	0.166310	0.683430
O401	O40	0.632200	0.144900	0.700000
O411	O41	0.013800	0.953120	0.685960
O421	O42	0.082400	0.075850	0.751370
O431	O43	0.028600	0.079160	0.583820
O441	O44	0.748200	0.020380	0.628460
O451	O45	0.104200	0.197300	0.764580
O461	O46	0.103800	0.192700	0.607730
O471	O47	0.796100	0.008900	0.512470
O481	O48	0.001500	0.914900	0.571930
O491	O49	0.696400	0.029570	0.267270
O501	O50	0.554400	0.972800	0.342380
O511	O51	0.650500	0.166310	0.183430
O521	O52	0.867800	0.144900	0.200000
O531	O53	0.486200	0.953120	0.185960
O541	O54	0.417600	0.075850	0.251370
O551	O55	0.471400	0.079160	0.083820
O561	O56	0.751800	0.020380	0.128460
O571	O57	0.395800	0.197300	0.264580
O581	O58	0.396200	0.192700	0.107730
O591	O59	0.703900	0.008900	0.012470
O601	O60	0.498500	0.914900	0.071930
O611	O61	0.803600	0.529570	0.232730
O621	O62	0.945600	0.472800	0.157620
O631	O63	0.849500	0.666310	0.316570
O641	O64	0.632200	0.644900	0.300000
O651	O65	0.013800	0.453120	0.314040
O661	O66	0.082400	0.575850	0.248630
O671	O67	0.028600	0.579160	0.416180
O681	O68	0.748200	0.520380	0.371540
O691	O69	0.104200	0.697300	0.235420
O701	O70	0.103800	0.692700	0.392270
O711	O71	0.796100	0.508900	0.487530
O721	O72	0.001500	0.414900	0.428070
O731	O73	0.303600	0.470430	0.267270
O741	O74	0.445600	0.527200	0.342380
O751	O75	0.349500	0.333690	0.183430
O761	O76	0.132200	0.355100	0.200000
O771	O77	0.513800	0.546880	0.185960
O781	O78	0.582400	0.424150	0.251370
O791	O79	0.528600	0.420840	0.083820
O801	O80	0.248200	0.479620	0.128460
O811	O81	0.604200	0.302700	0.264580
O821	O82	0.603800	0.307300	0.107730
O831	O83	0.296100	0.491100	0.012470
O841	O84	0.501500	0.585100	0.071930
O851	O85	0.196400	0.970430	0.232730
O861	O86	0.054400	0.027200	0.157620
O871	O87	0.150500	0.833690	0.316570
O881	O88	0.367800	0.855100	0.300000
O891	O89	0.986200	0.046880	0.314040
O901	O90	0.917600	0.924150	0.248630
O911	O91	0.971400	0.920840	0.416180
O921	O92	0.251800	0.979620	0.371540
O931	O93	0.895800	0.802700	0.235420
O941	O94	0.896200	0.807300	0.392270
O951	O95	0.203900	0.991100	0.487530
O961	O96	0.998500	0.085100	0.428070
