data_OTOVAW_clean_PM
_symmetry_space_group_name_H-M	'P1'
_cell_length_a	10.694500
_cell_length_b	18.576000
_cell_length_c	14.920800
_cell_angle_alpha	90.000000
_cell_angle_beta	107.758000
_cell_angle_gamma	90.000000
_symmetry_Int_Tables_number 1

loop_
_symmetry_equiv_pos_as_xyz
'x,y,z'

loop_
_atom_site_label
_atom_site_type_symbol
_atom_site_fract_x
_atom_site_fract_y
_atom_site_fract_z
Cd11	Cd1	0.670550	0.011330	0.670120
O11	O1	0.678700	0.002450	0.825300
O21	O2	0.664700	0.474670	0.013600
O31	O3	0.980600	0.019260	0.845000
F11	F1	0.038800	0.291470	0.094600
C11	C1	0.704600	0.949500	0.881100
O41	O4	0.855500	0.078840	0.719900
C21	C2	0.074100	0.271100	0.805300
C31	C3	0.611700	0.431300	0.948300
F21	F2	0.385000	0.799700	0.760000
N11	N1	0.917600	0.116500	0.011500
O51	O5	0.795500	0.946810	0.957600
C41	C4	0.569300	0.755600	0.879800
C51	C5	0.949400	0.074900	0.794200
C61	C6	0.640000	0.824200	0.902500
H11	H1	0.707900	0.825700	0.959000
N21	N2	0.443000	0.620100	0.845900
C71	C7	0.950700	0.239800	0.053700
C81	C8	0.033600	0.139900	0.824100
H21	H2	0.115100	0.135300	0.869400
C91	C9	0.618600	0.884600	0.851600
H31	H3	0.548500	0.886500	0.796500
C101	C10	0.994400	0.204800	0.786900
H41	H4	0.909400	0.208400	0.746000
C111	C11	0.663100	0.356300	0.952500
H51	H5	0.614400	0.323700	0.908100
C121	C12	0.996700	0.170100	0.053800
H61	H6	0.084900	0.160400	0.084000
C131	C13	0.772000	0.332100	0.013900
H71	H7	0.820400	0.363400	0.060200
C141	C14	0.624400	0.693500	0.929300
C151	C15	0.739900	0.200600	0.970700
H81	H8	0.650600	0.208300	0.942500
C161	C16	0.820500	0.257900	0.012600
C171	C17	0.209600	0.272700	0.821900
H91	H9	0.255600	0.229700	0.826200
C181	C18	0.447800	0.745700	0.813800
C191	C19	0.791200	0.132300	0.970400
H101	H10	0.735000	0.095600	0.940200
N31	N3	0.216600	0.401500	0.825400
C201	C20	0.276000	0.337300	0.832100
H111	H11	0.366600	0.336300	0.844300
C211	C21	0.559000	0.627900	0.910600
H121	H12	0.598200	0.587700	0.944900
C221	C22	0.388100	0.678400	0.796200
H131	H13	0.308400	0.673700	0.748900
C231	C23	0.017200	0.338500	0.800900
O61	O6	0.517500	0.444850	0.876000
F31	F3	0.885600	0.342300	0.784800
C241	C24	0.086600	0.401300	0.810400
H141	H14	0.042600	0.444900	0.806300
F41	F4	0.743100	0.694300	0.980300
Cd21	Cd2	0.329450	0.511330	0.829880
O71	O7	0.321300	0.502450	0.674700
O81	O8	0.335300	0.974670	0.486400
O91	O9	0.019400	0.519260	0.655000
F51	F5	0.961200	0.791470	0.405400
C251	C25	0.295400	0.449500	0.618900
O101	O10	0.144500	0.578840	0.780100
C261	C26	0.925900	0.771100	0.694700
C271	C27	0.388300	0.931300	0.551700
F61	F6	0.615000	0.299700	0.740000
N41	N4	0.082400	0.616500	0.488500
O111	O11	0.204500	0.446810	0.542400
C281	C28	0.430700	0.255600	0.620200
C291	C29	0.050600	0.574900	0.705800
C301	C30	0.360000	0.324200	0.597500
H151	H15	0.292100	0.325700	0.541000
N51	N5	0.557000	0.120100	0.654100
C311	C31	0.049300	0.739800	0.446300
C321	C32	0.966400	0.639900	0.675900
H161	H16	0.884900	0.635300	0.630600
C331	C33	0.381400	0.384600	0.648400
H171	H17	0.451500	0.386500	0.703500
C341	C34	0.005600	0.704800	0.713100
H181	H18	0.090600	0.708400	0.754000
C351	C35	0.336900	0.856300	0.547500
H191	H19	0.385600	0.823700	0.591900
C361	C36	0.003300	0.670100	0.446200
H201	H20	0.915100	0.660400	0.416000
C371	C37	0.228000	0.832100	0.486100
H211	H21	0.179600	0.863400	0.439800
C381	C38	0.375600	0.193500	0.570700
C391	C39	0.260100	0.700600	0.529300
H221	H22	0.349400	0.708300	0.557500
C401	C40	0.179500	0.757900	0.487400
C411	C41	0.790400	0.772700	0.678100
H231	H23	0.744400	0.729700	0.673800
C421	C42	0.552200	0.245700	0.686200
C431	C43	0.208800	0.632300	0.529600
H241	H24	0.265000	0.595600	0.559800
N61	N6	0.783400	0.901500	0.674600
C441	C44	0.724000	0.837300	0.667900
H251	H25	0.633400	0.836300	0.655700
C451	C45	0.441000	0.127900	0.589400
H261	H26	0.401800	0.087700	0.555100
C461	C46	0.611900	0.178400	0.703800
H271	H27	0.691600	0.173700	0.751100
C471	C47	0.982800	0.838500	0.699100
O121	O12	0.482500	0.944850	0.624000
F71	F7	0.114400	0.842300	0.715200
C481	C48	0.913400	0.901300	0.689600
H281	H28	0.957400	0.944900	0.693700
F81	F8	0.256900	0.194300	0.519700
Cd31	Cd3	0.329450	0.988670	0.329880
O131	O13	0.321300	0.997550	0.174700
O141	O14	0.335300	0.525330	0.986400
O151	O15	0.019400	0.980740	0.155000
F91	F9	0.961200	0.708530	0.905400
C491	C49	0.295400	0.050500	0.118900
O161	O16	0.144500	0.921160	0.280100
C501	C50	0.925900	0.728900	0.194700
C511	C51	0.388300	0.568700	0.051700
F101	F10	0.615000	0.200300	0.240000
N71	N7	0.082400	0.883500	0.988500
O171	O17	0.204500	0.053190	0.042400
C521	C52	0.430700	0.244400	0.120200
C531	C53	0.050600	0.925100	0.205800
C541	C54	0.360000	0.175800	0.097500
H291	H29	0.292100	0.174300	0.041000
N81	N8	0.557000	0.379900	0.154100
C551	C55	0.049300	0.760200	0.946300
C561	C56	0.966400	0.860100	0.175900
H301	H30	0.884900	0.864700	0.130600
C571	C57	0.381400	0.115400	0.148400
H311	H31	0.451500	0.113500	0.203500
C581	C58	0.005600	0.795200	0.213100
H321	H32	0.090600	0.791600	0.254000
C591	C59	0.336900	0.643700	0.047500
H331	H33	0.385600	0.676300	0.091900
C601	C60	0.003300	0.829900	0.946200
H341	H34	0.915100	0.839600	0.916000
C611	C61	0.228000	0.667900	0.986100
H351	H35	0.179600	0.636600	0.939800
C621	C62	0.375600	0.306500	0.070700
C631	C63	0.260100	0.799400	0.029300
H361	H36	0.349400	0.791700	0.057500
C641	C64	0.179500	0.742100	0.987400
C651	C65	0.790400	0.727300	0.178100
H371	H37	0.744400	0.770300	0.173800
C661	C66	0.552200	0.254300	0.186200
C671	C67	0.208800	0.867700	0.029600
H381	H38	0.265000	0.904400	0.059800
N91	N9	0.783400	0.598500	0.174600
C681	C68	0.724000	0.662700	0.167900
H391	H39	0.633400	0.663700	0.155700
C691	C69	0.441000	0.372100	0.089400
H401	H40	0.401800	0.412300	0.055100
C701	C70	0.611900	0.321600	0.203800
H411	H41	0.691600	0.326300	0.251100
C711	C71	0.982800	0.661500	0.199100
O181	O18	0.482500	0.555150	0.124000
F111	F11	0.114400	0.657700	0.215200
C721	C72	0.913400	0.598700	0.189600
H421	H42	0.957400	0.555100	0.193700
F121	F12	0.256900	0.305700	0.019700
Cd41	Cd4	0.670550	0.488670	0.170120
O191	O19	0.678700	0.497550	0.325300
O201	O20	0.664700	0.025330	0.513600
O211	O21	0.980600	0.480740	0.345000
F131	F13	0.038800	0.208530	0.594600
C731	C73	0.704600	0.550500	0.381100
O221	O22	0.855500	0.421160	0.219900
C741	C74	0.074100	0.228900	0.305300
C751	C75	0.611700	0.068700	0.448300
F141	F14	0.385000	0.700300	0.260000
N101	N10	0.917600	0.383500	0.511500
O231	O23	0.795500	0.553190	0.457600
C761	C76	0.569300	0.744400	0.379800
C771	C77	0.949400	0.425100	0.294200
C781	C78	0.640000	0.675800	0.402500
H431	H43	0.707900	0.674300	0.459000
N111	N11	0.443000	0.879900	0.345900
C791	C79	0.950700	0.260200	0.553700
C801	C80	0.033600	0.360100	0.324100
H441	H44	0.115100	0.364700	0.369400
C811	C81	0.618600	0.615400	0.351600
H451	H45	0.548500	0.613500	0.296500
C821	C82	0.994400	0.295200	0.286900
H461	H46	0.909400	0.291600	0.246000
C831	C83	0.663100	0.143700	0.452500
H471	H47	0.614400	0.176300	0.408100
C841	C84	0.996700	0.329900	0.553800
H481	H48	0.084900	0.339600	0.584000
C851	C85	0.772000	0.167900	0.513900
H491	H49	0.820400	0.136600	0.560200
C861	C86	0.624400	0.806500	0.429300
C871	C87	0.739900	0.299400	0.470700
H501	H50	0.650600	0.291700	0.442500
C881	C88	0.820500	0.242100	0.512600
C891	C89	0.209600	0.227300	0.321900
H511	H51	0.255600	0.270300	0.326200
C901	C90	0.447800	0.754300	0.313800
C911	C91	0.791200	0.367700	0.470400
H521	H52	0.735000	0.404400	0.440200
N121	N12	0.216600	0.098500	0.325400
C921	C92	0.276000	0.162700	0.332100
H531	H53	0.366600	0.163700	0.344300
C931	C93	0.559000	0.872100	0.410600
H541	H54	0.598200	0.912300	0.444900
C941	C94	0.388100	0.821600	0.296200
H551	H55	0.308400	0.826300	0.248900
C951	C95	0.017200	0.161500	0.300900
O241	O24	0.517500	0.055150	0.376000
F151	F15	0.885600	0.157700	0.284800
C961	C96	0.086600	0.098700	0.310400
H561	H56	0.042600	0.055100	0.306300
F161	F16	0.743100	0.805700	0.480300
Cd51	Cd5	0.000000	0.000000	0.000000
Cd61	Cd6	0.000000	0.500000	0.500000
