data_OTUDIS_clean_PM
_symmetry_space_group_name_H-M	'P1'
_cell_length_a	20.448900
_cell_length_b	20.448900
_cell_length_c	10.392800
_cell_angle_alpha	90.000000
_cell_angle_beta	90.000000
_cell_angle_gamma	120.000000
_symmetry_Int_Tables_number 1

loop_
_symmetry_equiv_pos_as_xyz
'x,y,z'

loop_
_atom_site_label
_atom_site_type_symbol
_atom_site_fract_x
_atom_site_fract_y
_atom_site_fract_z
Mn11	Mn1	0.619510	0.165150	0.491000
O11	O1	0.424140	0.758740	0.002660
O21	O2	0.515770	0.904220	0.969830
C11	C1	0.615700	0.153590	0.775700
C21	C2	0.554010	0.981880	0.988100
C31	C3	0.492810	0.780420	0.011600
C41	C4	0.569420	0.026810	0.880300
H11	H1	0.558700	0.005100	0.798800
O31	O3	0.634100	0.191550	0.271620
O41	O4	0.519660	0.737420	0.017600
C51	C5	0.571330	0.012910	0.110200
H21	H2	0.561600	0.982300	0.182100
C61	C6	0.617660	0.123770	0.256500
C71	C7	0.618140	0.136200	0.015700
H31	H3	0.639600	0.188100	0.025600
C81	C8	0.601300	0.105430	0.893900
O51	O5	0.598630	0.116660	0.670570
C91	C9	0.603710	0.091130	0.123800
O61	O6	0.610360	0.082280	0.351680
O71	O7	0.641230	0.221650	0.787500
C101	C10	0.549850	0.863990	0.022700
H41	H4	0.548800	0.872900	0.115200
C111	C11	0.626000	0.887000	0.002600
H51	H5	0.656000	0.940600	0.014000
H61	H6	0.632600	0.873900	0.916800
H71	H7	0.641600	0.862100	0.063300
Mn21	Mn2	0.834850	0.454350	0.491000
O81	O8	0.241260	0.665400	0.002660
O91	O9	0.095780	0.611550	0.969830
C121	C12	0.846410	0.462110	0.775700
C131	C13	0.018120	0.572130	0.988100
C141	C14	0.219580	0.712390	0.011600
C151	C15	0.973190	0.542610	0.880300
H81	H8	0.994900	0.553600	0.798800
O101	O10	0.808450	0.442550	0.271620
O111	O11	0.262580	0.782240	0.017600
C161	C16	0.987090	0.558420	0.110200
H91	H9	0.017700	0.579300	0.182100
C171	C17	0.876230	0.493890	0.256500
C181	C18	0.863800	0.481940	0.015700
H101	H10	0.811900	0.451500	0.025600
C191	C19	0.894570	0.495870	0.893900
O121	O12	0.883340	0.481970	0.670570
C201	C20	0.908870	0.512580	0.123800
O131	O13	0.917720	0.528080	0.351680
O141	O14	0.778350	0.419580	0.787500
C211	C21	0.136010	0.685860	0.022700
H111	H11	0.127100	0.675900	0.115200
C221	C22	0.113000	0.739000	0.002600
H121	H12	0.059400	0.715400	0.014000
H131	H13	0.126100	0.758700	0.916800
H141	H14	0.137900	0.779500	0.063300
Mn31	Mn3	0.545650	0.380490	0.491000
O151	O15	0.334600	0.575860	0.002660
O161	O16	0.388450	0.484230	0.969830
C231	C23	0.537890	0.384300	0.775700
C241	C24	0.427870	0.445990	0.988100
C251	C25	0.287610	0.507190	0.011600
C261	C26	0.457390	0.430580	0.880300
H151	H15	0.446400	0.441300	0.798800
O171	O17	0.557450	0.365900	0.271620
O181	O18	0.217760	0.480340	0.017600
C271	C27	0.441580	0.428670	0.110200
H161	H16	0.420700	0.438400	0.182100
C281	C28	0.506110	0.382340	0.256500
C291	C29	0.518060	0.381860	0.015700
H171	H17	0.548500	0.360400	0.025600
C301	C30	0.504130	0.398700	0.893900
O191	O19	0.518030	0.401370	0.670570
C311	C31	0.487420	0.396290	0.123800
O201	O20	0.471920	0.389640	0.351680
O211	O21	0.580420	0.358770	0.787500
C321	C32	0.314140	0.450150	0.022700
H181	H18	0.324100	0.451200	0.115200
C331	C33	0.261000	0.374000	0.002600
H191	H19	0.284600	0.344000	0.014000
H201	H20	0.241300	0.367400	0.916800
H211	H21	0.220500	0.358400	0.063300
Mn41	Mn4	0.380490	0.834850	0.991000
O221	O22	0.575860	0.241260	0.502660
O231	O23	0.484230	0.095780	0.469830
C341	C34	0.384300	0.846410	0.275700
C351	C35	0.445990	0.018120	0.488100
C361	C36	0.507190	0.219580	0.511600
C371	C37	0.430580	0.973190	0.380300
H221	H22	0.441300	0.994900	0.298800
O241	O24	0.365900	0.808450	0.771620
O251	O25	0.480340	0.262580	0.517600
C381	C38	0.428670	0.987090	0.610200
H231	H23	0.438400	0.017700	0.682100
C391	C39	0.382340	0.876230	0.756500
C401	C40	0.381860	0.863800	0.515700
H241	H24	0.360400	0.811900	0.525600
C411	C41	0.398700	0.894570	0.393900
O261	O26	0.401370	0.883340	0.170570
C421	C42	0.396290	0.908870	0.623800
O271	O27	0.389640	0.917720	0.851680
O281	O28	0.358770	0.778350	0.287500
C431	C43	0.450150	0.136010	0.522700
H251	H25	0.451200	0.127100	0.615200
C441	C44	0.374000	0.113000	0.502600
H261	H26	0.344000	0.059400	0.514000
H271	H27	0.367400	0.126100	0.416800
H281	H28	0.358400	0.137900	0.563300
Mn51	Mn5	0.165150	0.545650	0.991000
O291	O29	0.758740	0.334600	0.502660
O301	O30	0.904220	0.388450	0.469830
C451	C45	0.153590	0.537890	0.275700
C461	C46	0.981880	0.427870	0.488100
C471	C47	0.780420	0.287610	0.511600
C481	C48	0.026810	0.457390	0.380300
H291	H29	0.005100	0.446400	0.298800
O311	O31	0.191550	0.557450	0.771620
O321	O32	0.737420	0.217760	0.517600
C491	C49	0.012910	0.441580	0.610200
H301	H30	0.982300	0.420700	0.682100
C501	C50	0.123770	0.506110	0.756500
C511	C51	0.136200	0.518060	0.515700
H311	H31	0.188100	0.548500	0.525600
C521	C52	0.105430	0.504130	0.393900
O331	O33	0.116660	0.518030	0.170570
C531	C53	0.091130	0.487420	0.623800
O341	O34	0.082280	0.471920	0.851680
O351	O35	0.221650	0.580420	0.287500
C541	C54	0.863990	0.314140	0.522700
H321	H32	0.872900	0.324100	0.615200
C551	C55	0.887000	0.261000	0.502600
H331	H33	0.940600	0.284600	0.514000
H341	H34	0.873900	0.241300	0.416800
H351	H35	0.862100	0.220500	0.563300
Mn61	Mn6	0.454350	0.619510	0.991000
O361	O36	0.665400	0.424140	0.502660
O371	O37	0.611550	0.515770	0.469830
C561	C56	0.462110	0.615700	0.275700
C571	C57	0.572130	0.554010	0.488100
C581	C58	0.712390	0.492810	0.511600
C591	C59	0.542610	0.569420	0.380300
H361	H36	0.553600	0.558700	0.298800
O381	O38	0.442550	0.634100	0.771620
O391	O39	0.782240	0.519660	0.517600
C601	C60	0.558420	0.571330	0.610200
H371	H37	0.579300	0.561600	0.682100
C611	C61	0.493890	0.617660	0.756500
C621	C62	0.481940	0.618140	0.515700
H381	H38	0.451500	0.639600	0.525600
C631	C63	0.495870	0.601300	0.393900
O401	O40	0.481970	0.598630	0.170570
C641	C64	0.512580	0.603710	0.623800
O411	O41	0.528080	0.610360	0.851680
O421	O42	0.419580	0.641230	0.287500
C651	C65	0.685860	0.549850	0.522700
H391	H39	0.675900	0.548800	0.615200
C661	C66	0.739000	0.626000	0.502600
H401	H40	0.715400	0.656000	0.514000
H411	H41	0.758700	0.632600	0.416800
H421	H42	0.779500	0.641600	0.563300
Na11	Na1	0.333330	0.666670	0.177520
Na21	Na2	0.666670	0.333330	0.677520
K11	K1	0.666670	0.333330	0.266430
K21	K2	0.333330	0.666670	0.766430
