data_OTUYEJ_clean_PM
_symmetry_space_group_name_H-M	'P1'
_cell_length_a	14.802000
_cell_length_b	14.780000
_cell_length_c	20.801000
_cell_angle_alpha	90.000000
_cell_angle_beta	90.360000
_cell_angle_gamma	90.000000
_symmetry_Int_Tables_number 1

loop_
_symmetry_equiv_pos_as_xyz
'x,y,z'

loop_
_atom_site_label
_atom_site_type_symbol
_atom_site_fract_x
_atom_site_fract_y
_atom_site_fract_z
As11	As1	0.545890	0.025030	0.371570
As21	As2	0.380370	0.773630	0.123290
As31	As3	0.335900	0.231640	0.121360
As41	As4	0.090770	0.979330	0.329310
Mn11	Mn1	0.472880	0.889060	0.249930
Mn21	Mn2	0.448350	0.135260	0.245990
Mn31	Mn3	0.316770	0.000720	0.360210
Mn41	Mn4	0.226980	0.865390	0.224480
Mn51	Mn5	0.359990	0.002600	0.114970
Mn61	Mn6	0.205320	0.112590	0.225830
S11	S1	0.338500	0.000400	0.237120
S21	S2	0.583800	0.025800	0.266700
S31	S3	0.461500	0.898900	0.373830
S41	S4	0.362000	0.753600	0.229430
S51	S5	0.488400	0.881300	0.125090
S61	S6	0.436600	0.129800	0.371560
S71	S7	0.461800	0.147400	0.121290
S81	S8	0.316300	0.249200	0.227870
S91	S9	0.233000	0.123400	0.101690
S101	S10	0.196600	0.872700	0.348420
S111	S11	0.256800	0.856400	0.101050
S121	S12	0.091500	0.978800	0.221290
S131	S13	0.171700	0.104500	0.349810
N11	N1	0.587800	0.788000	0.259500
H11	H1	0.639800	0.818500	0.253900
H21	H2	0.588000	0.767700	0.300300
N21	N2	0.590200	0.711700	0.218800
H31	H3	0.588300	0.732100	0.178100
H41	H4	0.538800	0.680500	0.225200
N31	N3	0.546500	0.251200	0.252300
H51	H5	0.516800	0.302000	0.241100
H61	H6	0.563000	0.257400	0.293800
N41	N4	0.626600	0.246600	0.215000
H71	H7	0.610300	0.241900	0.173400
H81	H8	0.656000	0.195400	0.225700
N51	N5	0.297500	0.002400	0.469100
H91	H9	0.266800	0.052800	0.479500
H101	H10	0.262900	0.954700	0.479900
N61	N6	0.377400	0.999500	0.507300
H111	H11	0.411300	0.047900	0.497200
H121	H12	0.408800	0.949900	0.496000
As51	As5	0.045890	0.525030	0.371570
As61	As6	0.880370	0.273630	0.123290
As71	As7	0.835900	0.731640	0.121360
As81	As8	0.590770	0.479330	0.329310
Mn71	Mn7	0.972880	0.389060	0.249930
Mn81	Mn8	0.948350	0.635260	0.245990
Mn91	Mn9	0.816770	0.500720	0.360210
Mn101	Mn10	0.726980	0.365390	0.224480
Mn111	Mn11	0.859990	0.502600	0.114970
Mn121	Mn12	0.705320	0.612590	0.225830
S141	S14	0.838500	0.500400	0.237120
S151	S15	0.083800	0.525800	0.266700
S161	S16	0.961500	0.398900	0.373830
S171	S17	0.862000	0.253600	0.229430
S181	S18	0.988400	0.381300	0.125090
S191	S19	0.936600	0.629800	0.371560
S201	S20	0.961800	0.647400	0.121290
S211	S21	0.816300	0.749200	0.227870
S221	S22	0.733000	0.623400	0.101690
S231	S23	0.696600	0.372700	0.348420
S241	S24	0.756800	0.356400	0.101050
S251	S25	0.591500	0.478800	0.221290
S261	S26	0.671700	0.604500	0.349810
N71	N7	0.087800	0.288000	0.259500
H131	H13	0.139800	0.318500	0.253900
H141	H14	0.088000	0.267700	0.300300
N81	N8	0.090200	0.211700	0.218800
H151	H15	0.088300	0.232100	0.178100
H161	H16	0.038800	0.180500	0.225200
N91	N9	0.046500	0.751200	0.252300
H171	H17	0.016800	0.802000	0.241100
H181	H18	0.063000	0.757400	0.293800
N101	N10	0.126600	0.746600	0.215000
H191	H19	0.110300	0.741900	0.173400
H201	H20	0.156000	0.695400	0.225700
N111	N11	0.797500	0.502400	0.469100
H211	H21	0.766800	0.552800	0.479500
H221	H22	0.762900	0.454700	0.479900
N121	N12	0.877400	0.499500	0.507300
H231	H23	0.911300	0.547900	0.497200
H241	H24	0.908800	0.449900	0.496000
As91	As9	0.545890	0.974970	0.871570
As101	As10	0.380370	0.226370	0.623290
As111	As11	0.335900	0.768360	0.621360
As121	As12	0.090770	0.020670	0.829310
Mn131	Mn13	0.472880	0.110940	0.749930
Mn141	Mn14	0.448350	0.864740	0.745990
Mn151	Mn15	0.316770	0.999280	0.860210
Mn161	Mn16	0.226980	0.134610	0.724480
Mn171	Mn17	0.359990	0.997400	0.614970
Mn181	Mn18	0.205320	0.887410	0.725830
S271	S27	0.338500	0.999600	0.737120
S281	S28	0.583800	0.974200	0.766700
S291	S29	0.461500	0.101100	0.873830
S301	S30	0.362000	0.246400	0.729430
S311	S31	0.488400	0.118700	0.625090
S321	S32	0.436600	0.870200	0.871560
S331	S33	0.461800	0.852600	0.621290
S341	S34	0.316300	0.750800	0.727870
S351	S35	0.233000	0.876600	0.601690
S361	S36	0.196600	0.127300	0.848420
S371	S37	0.256800	0.143600	0.601050
S381	S38	0.091500	0.021200	0.721290
S391	S39	0.171700	0.895500	0.849810
N131	N13	0.587800	0.212000	0.759500
H251	H25	0.639800	0.181500	0.753900
H261	H26	0.588000	0.232300	0.800300
N141	N14	0.590200	0.288300	0.718800
H271	H27	0.588300	0.267900	0.678100
H281	H28	0.538800	0.319500	0.725200
N151	N15	0.546500	0.748800	0.752300
H291	H29	0.516800	0.698000	0.741100
H301	H30	0.563000	0.742600	0.793800
N161	N16	0.626600	0.753400	0.715000
H311	H31	0.610300	0.758100	0.673400
H321	H32	0.656000	0.804600	0.725700
N171	N17	0.297500	0.997600	0.969100
H331	H33	0.266800	0.947200	0.979500
H341	H34	0.262900	0.045300	0.979900
N181	N18	0.377400	0.000500	0.007300
H351	H35	0.411300	0.952100	0.997200
H361	H36	0.408800	0.050100	0.996000
As131	As13	0.045890	0.474970	0.871570
As141	As14	0.880370	0.726370	0.623290
As151	As15	0.835900	0.268360	0.621360
As161	As16	0.590770	0.520670	0.829310
Mn191	Mn19	0.972880	0.610940	0.749930
Mn201	Mn20	0.948350	0.364740	0.745990
Mn211	Mn21	0.816770	0.499280	0.860210
Mn221	Mn22	0.726980	0.634610	0.724480
Mn231	Mn23	0.859990	0.497400	0.614970
Mn241	Mn24	0.705320	0.387410	0.725830
S401	S40	0.838500	0.499600	0.737120
S411	S41	0.083800	0.474200	0.766700
S421	S42	0.961500	0.601100	0.873830
S431	S43	0.862000	0.746400	0.729430
S441	S44	0.988400	0.618700	0.625090
S451	S45	0.936600	0.370200	0.871560
S461	S46	0.961800	0.352600	0.621290
S471	S47	0.816300	0.250800	0.727870
S481	S48	0.733000	0.376600	0.601690
S491	S49	0.696600	0.627300	0.848420
S501	S50	0.756800	0.643600	0.601050
S511	S51	0.591500	0.521200	0.721290
S521	S52	0.671700	0.395500	0.849810
N191	N19	0.087800	0.712000	0.759500
H371	H37	0.139800	0.681500	0.753900
H381	H38	0.088000	0.732300	0.800300
N201	N20	0.090200	0.788300	0.718800
H391	H39	0.088300	0.767900	0.678100
H401	H40	0.038800	0.819500	0.725200
N211	N21	0.046500	0.248800	0.752300
H411	H41	0.016800	0.198000	0.741100
H421	H42	0.063000	0.242600	0.793800
N221	N22	0.126600	0.253400	0.715000
H431	H43	0.110300	0.258100	0.673400
H441	H44	0.156000	0.304600	0.725700
N231	N23	0.797500	0.497600	0.969100
H451	H45	0.766800	0.447200	0.979500
H461	H46	0.762900	0.545300	0.979900
N241	N24	0.877400	0.500500	0.007300
H471	H47	0.911300	0.452100	0.997200
H481	H48	0.908800	0.550100	0.996000
