data_OVIDON_clean_PM
_symmetry_space_group_name_H-M	'P1'
_cell_length_a	12.964900
_cell_length_b	16.243900
_cell_length_c	22.573600
_cell_angle_alpha	106.404000
_cell_angle_beta	90.000000
_cell_angle_gamma	90.000000
_symmetry_Int_Tables_number 1

loop_
_symmetry_equiv_pos_as_xyz
'x,y,z'

loop_
_atom_site_label
_atom_site_type_symbol
_atom_site_fract_x
_atom_site_fract_y
_atom_site_fract_z
Cd11	Cd1	0.647390	0.198020	0.139970
Cd21	Cd2	0.565400	0.421000	0.213510
Cd31	Cd3	0.147390	0.801980	0.360030
Cd41	Cd4	0.065400	0.579000	0.286490
Cd51	Cd5	0.352610	0.801980	0.860030
Cd61	Cd6	0.434600	0.579000	0.786490
Cd71	Cd7	0.852610	0.198020	0.639970
Cd81	Cd8	0.934600	0.421000	0.713510
H11	H1	0.699000	0.331500	0.108700
H21	H2	0.749400	0.345600	0.163100
H31	H3	0.331800	0.118700	0.090900
H41	H4	0.161500	0.080800	0.067200
H51	H5	0.251000	0.363100	0.120900
H61	H6	0.011500	0.276400	0.977200
H71	H7	0.995100	0.344000	0.899700
H81	H8	0.958100	0.114500	0.779000
H91	H9	0.050500	0.327100	0.245900
H101	H10	0.095000	0.038000	0.208400
H111	H11	0.935600	0.090800	0.191100
H121	H12	0.279500	0.826900	0.200300
H131	H13	0.276400	0.740300	0.098900
H141	H14	0.291700	0.951300	0.042800
H151	H15	0.778900	0.033500	0.084900
H161	H16	0.782300	0.888000	0.063000
H171	H17	0.501500	0.896300	0.137300
H181	H18	0.504400	0.042700	0.156400
H191	H19	0.638100	0.758700	0.115600
H201	H20	0.701000	0.754700	0.055500
H211	H21	0.539200	0.769100	0.007000
H221	H22	0.484700	0.754700	0.065200
H231	H23	0.487500	0.626900	0.983900
H241	H24	0.608400	0.629400	0.983100
H251	H25	0.704600	0.571600	0.053800
H261	H26	0.706800	0.499900	0.127500
H271	H27	0.410100	0.526100	0.149900
H281	H28	0.400900	0.599600	0.077500
H291	H29	0.199000	0.668500	0.391300
H301	H30	0.249400	0.654400	0.336900
H311	H31	0.831800	0.881300	0.409100
H321	H32	0.661500	0.919200	0.432800
H331	H33	0.751000	0.636900	0.379100
H341	H34	0.511500	0.723600	0.522800
H351	H35	0.495100	0.656000	0.600300
H361	H36	0.458100	0.885500	0.721000
H371	H37	0.550500	0.672900	0.254100
H381	H38	0.595000	0.962000	0.291600
H391	H39	0.435600	0.909200	0.308900
H401	H40	0.779500	0.173100	0.299700
H411	H41	0.776400	0.259700	0.401100
H421	H42	0.791700	0.048700	0.457200
H431	H43	0.278900	0.966500	0.415100
H441	H44	0.282300	0.112000	0.437000
H451	H45	0.001500	0.103700	0.362700
H461	H46	0.004400	0.957300	0.343600
H471	H47	0.138100	0.241300	0.384400
H481	H48	0.201000	0.245300	0.444500
H491	H49	0.039200	0.230900	0.493000
H501	H50	0.984700	0.245300	0.434800
H511	H51	0.987500	0.373100	0.516100
H521	H52	0.108400	0.370600	0.516900
H531	H53	0.204600	0.428400	0.446200
H541	H54	0.206800	0.500100	0.372500
H551	H55	0.910100	0.473900	0.350100
H561	H56	0.900900	0.400400	0.422500
H571	H57	0.301000	0.668500	0.891300
H581	H58	0.250600	0.654400	0.836900
H591	H59	0.668200	0.881300	0.909100
H601	H60	0.838500	0.919200	0.932800
H611	H61	0.749000	0.636900	0.879100
H621	H62	0.988500	0.723600	0.022800
H631	H63	0.004900	0.656000	0.100300
H641	H64	0.041900	0.885500	0.221000
H651	H65	0.949500	0.672900	0.754100
H661	H66	0.905000	0.962000	0.791600
H671	H67	0.064400	0.909200	0.808900
H681	H68	0.720500	0.173100	0.799700
H691	H69	0.723600	0.259700	0.901100
H701	H70	0.708300	0.048700	0.957200
H711	H71	0.221100	0.966500	0.915100
H721	H72	0.217700	0.112000	0.937000
H731	H73	0.498500	0.103700	0.862700
H741	H74	0.495600	0.957300	0.843600
H751	H75	0.361900	0.241300	0.884400
H761	H76	0.299000	0.245300	0.944500
H771	H77	0.460800	0.230900	0.993000
H781	H78	0.515300	0.245300	0.934800
H791	H79	0.512500	0.373100	0.016100
H801	H80	0.391600	0.370600	0.016900
H811	H81	0.295400	0.428400	0.946200
H821	H82	0.293200	0.500100	0.872500
H831	H83	0.589900	0.473900	0.850100
H841	H84	0.599100	0.400400	0.922500
H851	H85	0.801000	0.331500	0.608700
H861	H86	0.750600	0.345600	0.663100
H871	H87	0.168200	0.118700	0.590900
H881	H88	0.338500	0.080800	0.567200
H891	H89	0.249000	0.363100	0.620900
H901	H90	0.488500	0.276400	0.477200
H911	H91	0.504900	0.344000	0.399700
H921	H92	0.541900	0.114500	0.279000
H931	H93	0.449500	0.327100	0.745900
H941	H94	0.405000	0.038000	0.708400
H951	H95	0.564400	0.090800	0.691100
H961	H96	0.220500	0.826900	0.700300
H971	H97	0.223600	0.740300	0.598900
H981	H98	0.208300	0.951300	0.542800
H991	H99	0.721100	0.033500	0.584900
H1001	H100	0.717700	0.888000	0.563000
H1011	H101	0.998500	0.896300	0.637300
H1021	H102	0.995600	0.042700	0.656400
H1031	H103	0.861900	0.758700	0.615600
H1041	H104	0.799000	0.754700	0.555500
H1051	H105	0.960800	0.769100	0.507000
H1061	H106	0.015300	0.754700	0.565200
H1071	H107	0.012500	0.626900	0.483900
H1081	H108	0.891600	0.629400	0.483100
H1091	H109	0.795400	0.571600	0.553800
H1101	H110	0.793200	0.499900	0.627500
H1111	H111	0.089900	0.526100	0.649900
H1121	H112	0.099100	0.599600	0.577500
C11	C1	0.420000	0.273800	0.127290
C21	C2	0.310300	0.246300	0.108750
C31	C3	0.282600	0.160700	0.091980
C41	C4	0.181900	0.138000	0.076970
C51	C5	0.111800	0.201500	0.076650
C61	C6	0.233800	0.305200	0.108550
C71	C7	0.988300	0.156800	0.920580
C81	C8	0.998600	0.244900	0.936630
C91	C9	0.989100	0.284700	0.890560
C101	C10	0.970600	0.235900	0.830400
C111	C11	0.967300	0.147900	0.819570
C121	C12	0.948400	0.273800	0.778330
C131	C13	0.872900	0.250500	0.203870
C141	C14	0.975000	0.216100	0.217590
C151	C15	0.059000	0.268300	0.238770
C161	C16	0.162500	0.154900	0.238330
C171	C17	0.084200	0.096700	0.216150
C181	C18	0.989900	0.128300	0.205940
C191	C19	0.285400	0.939100	0.177310
C201	C20	0.281300	0.850800	0.167360
C211	C21	0.280000	0.799700	0.107240
C221	C22	0.284000	0.837200	0.059040
C231	C23	0.288600	0.925700	0.074750
C241	C24	0.285900	0.786600	0.991910
C251	C25	0.721900	0.005500	0.095030
C261	C26	0.724200	0.917800	0.081700
C271	C27	0.641400	0.873200	0.095600
C281	C28	0.558400	0.922700	0.125420
C291	C29	0.561000	0.011000	0.137150
C301	C30	0.638900	0.777200	0.078300
C311	C31	0.545700	0.740900	0.039420
C321	C32	0.548300	0.643800	0.009540
C331	C33	0.551600	0.594600	0.056570
C341	C34	0.643400	0.563500	0.072880
C351	C35	0.644100	0.520400	0.117370
C361	C36	0.470400	0.535900	0.130610
C371	C37	0.464400	0.579700	0.086790
C381	C38	0.920000	0.726200	0.372710
C391	C39	0.810300	0.753700	0.391250
C401	C40	0.782600	0.839300	0.408020
C411	C41	0.681900	0.862000	0.423030
C421	C42	0.611800	0.798500	0.423350
C431	C43	0.733800	0.694800	0.391450
C441	C44	0.488300	0.843200	0.579420
C451	C45	0.498600	0.755100	0.563370
C461	C46	0.489100	0.715300	0.609440
C471	C47	0.470600	0.764100	0.669600
C481	C48	0.467300	0.852100	0.680430
C491	C49	0.448400	0.726200	0.721670
C501	C50	0.372900	0.749500	0.296130
C511	C51	0.475000	0.783900	0.282410
C521	C52	0.559000	0.731700	0.261230
C531	C53	0.662500	0.845100	0.261670
C541	C54	0.584200	0.903300	0.283850
C551	C55	0.489900	0.871700	0.294060
C561	C56	0.785400	0.060900	0.322690
C571	C57	0.781300	0.149200	0.332640
C581	C58	0.780000	0.200300	0.392760
C591	C59	0.784000	0.162800	0.440960
C601	C60	0.788600	0.074300	0.425250
C611	C61	0.785900	0.213400	0.508090
C621	C62	0.221900	0.994500	0.404970
C631	C63	0.224200	0.082200	0.418300
C641	C64	0.141400	0.126800	0.404400
C651	C65	0.058400	0.077300	0.374580
C661	C66	0.061000	0.989000	0.362850
C671	C67	0.138900	0.222800	0.421700
C681	C68	0.045700	0.259100	0.460580
C691	C69	0.048300	0.356200	0.490460
C701	C70	0.051600	0.405400	0.443430
C711	C71	0.143400	0.436500	0.427120
C721	C72	0.144100	0.479600	0.382630
C731	C73	0.970400	0.464100	0.369390
C741	C74	0.964400	0.420300	0.413210
C751	C75	0.580000	0.726200	0.872710
C761	C76	0.689700	0.753700	0.891250
C771	C77	0.717400	0.839300	0.908020
C781	C78	0.818100	0.862000	0.923030
C791	C79	0.888200	0.798500	0.923350
C801	C80	0.766200	0.694800	0.891450
C811	C81	0.011700	0.843200	0.079420
C821	C82	0.001400	0.755100	0.063370
C831	C83	0.010900	0.715300	0.109440
C841	C84	0.029400	0.764100	0.169600
C851	C85	0.032700	0.852100	0.180430
C861	C86	0.051600	0.726200	0.221670
C871	C87	0.127100	0.749500	0.796130
C881	C88	0.025000	0.783900	0.782410
C891	C89	0.941000	0.731700	0.761230
C901	C90	0.837500	0.845100	0.761670
C911	C91	0.915800	0.903300	0.783850
C921	C92	0.010100	0.871700	0.794060
C931	C93	0.714600	0.060900	0.822690
C941	C94	0.718700	0.149200	0.832640
C951	C95	0.720000	0.200300	0.892760
C961	C96	0.716000	0.162800	0.940960
C971	C97	0.711400	0.074300	0.925250
C981	C98	0.714100	0.213400	0.008090
C991	C99	0.278100	0.994500	0.904970
C1001	C100	0.275800	0.082200	0.918300
C1011	C101	0.358600	0.126800	0.904400
C1021	C102	0.441600	0.077300	0.874580
C1031	C103	0.439000	0.989000	0.862850
C1041	C104	0.361100	0.222800	0.921700
C1051	C105	0.454300	0.259100	0.960580
C1061	C106	0.451700	0.356200	0.990460
C1071	C107	0.448400	0.405400	0.943430
C1081	C108	0.356600	0.436500	0.927120
C1091	C109	0.355900	0.479600	0.882630
C1101	C110	0.529600	0.464100	0.869390
C1111	C111	0.535600	0.420300	0.913210
C1121	C112	0.080000	0.273800	0.627290
C1131	C113	0.189700	0.246300	0.608750
C1141	C114	0.217400	0.160700	0.591980
C1151	C115	0.318100	0.138000	0.576970
C1161	C116	0.388200	0.201500	0.576650
C1171	C117	0.266200	0.305200	0.608550
C1181	C118	0.511700	0.156800	0.420580
C1191	C119	0.501400	0.244900	0.436630
C1201	C120	0.510900	0.284700	0.390560
C1211	C121	0.529400	0.235900	0.330400
C1221	C122	0.532700	0.147900	0.319570
C1231	C123	0.551600	0.273800	0.278330
C1241	C124	0.627100	0.250500	0.703870
C1251	C125	0.525000	0.216100	0.717590
C1261	C126	0.441000	0.268300	0.738770
C1271	C127	0.337500	0.154900	0.738330
C1281	C128	0.415800	0.096700	0.716150
C1291	C129	0.510100	0.128300	0.705940
C1301	C130	0.214600	0.939100	0.677310
C1311	C131	0.218700	0.850800	0.667360
C1321	C132	0.220000	0.799700	0.607240
C1331	C133	0.216000	0.837200	0.559040
C1341	C134	0.211400	0.925700	0.574750
C1351	C135	0.214100	0.786600	0.491910
C1361	C136	0.778100	0.005500	0.595030
C1371	C137	0.775800	0.917800	0.581700
C1381	C138	0.858600	0.873200	0.595600
C1391	C139	0.941600	0.922700	0.625420
C1401	C140	0.939000	0.011000	0.637150
C1411	C141	0.861100	0.777200	0.578300
C1421	C142	0.954300	0.740900	0.539420
C1431	C143	0.951700	0.643800	0.509540
C1441	C144	0.948400	0.594600	0.556570
C1451	C145	0.856600	0.563500	0.572880
C1461	C146	0.855900	0.520400	0.617370
C1471	C147	0.029600	0.535900	0.630610
C1481	C148	0.035600	0.579700	0.586790
S11	S1	0.987670	0.092160	0.972760
S21	S2	0.979160	0.177250	0.058230
S31	S3	0.281330	0.003780	0.255790
S41	S4	0.291110	0.126910	0.252490
S51	S5	0.487670	0.907840	0.527240
S61	S6	0.479160	0.822750	0.441770
S71	S7	0.781330	0.996220	0.244210
S81	S8	0.791110	0.873090	0.247510
S91	S9	0.012330	0.907840	0.027240
S101	S10	0.020840	0.822750	0.941770
S111	S11	0.718670	0.996220	0.744210
S121	S12	0.708890	0.873090	0.747510
S131	S13	0.512330	0.092160	0.472760
S141	S14	0.520840	0.177250	0.558230
S151	S15	0.218670	0.003780	0.755790
S161	S16	0.208890	0.126910	0.752490
N11	N1	0.136400	0.284000	0.091700
N21	N2	0.976300	0.107780	0.862800
N31	N3	0.151800	0.239950	0.249720
N41	N4	0.289000	0.977230	0.132500
N51	N5	0.640700	0.052660	0.122210
N61	N6	0.559700	0.506530	0.146680
N71	N7	0.636400	0.716000	0.408300
N81	N8	0.476300	0.892220	0.637200
N91	N9	0.651800	0.760050	0.250280
N101	N10	0.789000	0.022770	0.367500
N111	N11	0.140700	0.947340	0.377790
N121	N12	0.059700	0.493470	0.353320
N131	N13	0.863600	0.716000	0.908300
N141	N14	0.023700	0.892220	0.137200
N151	N15	0.848200	0.760050	0.750280
N161	N16	0.711000	0.022770	0.867500
N171	N17	0.359300	0.947340	0.877790
N181	N18	0.440300	0.493470	0.853320
N191	N19	0.363600	0.284000	0.591700
N201	N20	0.523700	0.107780	0.362800
N211	N21	0.348200	0.239950	0.749720
N221	N22	0.211000	0.977230	0.632500
N231	N23	0.859300	0.052660	0.622210
N241	N24	0.940300	0.506530	0.646680
O11	O1	0.430800	0.348300	0.162300
O21	O2	0.489400	0.222550	0.104890
O31	O3	0.940100	0.351550	0.788500
O41	O4	0.942100	0.220400	0.726310
O51	O5	0.800300	0.197750	0.190750
O61	O6	0.866400	0.328830	0.206580
O71	O7	0.282200	0.830740	0.954480
O81	O8	0.290000	0.706350	0.977630
O91	O9	0.692900	0.341690	0.146230
O101	O10	0.930800	0.651700	0.337700
O111	O11	0.989400	0.777450	0.395110
O121	O12	0.440100	0.648450	0.711500
O131	O13	0.442100	0.779600	0.773690
O141	O14	0.300300	0.802250	0.309250
O151	O15	0.366400	0.671170	0.293420
O161	O16	0.782200	0.169260	0.545520
O171	O17	0.790000	0.293650	0.522370
O181	O18	0.192900	0.658310	0.353770
O191	O19	0.569200	0.651700	0.837700
O201	O20	0.510600	0.777450	0.895110
O211	O21	0.059900	0.648450	0.211500
O221	O22	0.057900	0.779600	0.273690
O231	O23	0.199700	0.802250	0.809250
O241	O24	0.133600	0.671170	0.793420
O251	O25	0.717800	0.169260	0.045520
O261	O26	0.710000	0.293650	0.022370
O271	O27	0.307100	0.658310	0.853770
O281	O28	0.069200	0.348300	0.662300
O291	O29	0.010600	0.222550	0.604890
O301	O30	0.559900	0.351550	0.288500
O311	O31	0.557900	0.220400	0.226310
O321	O32	0.699700	0.197750	0.690750
O331	O33	0.633600	0.328830	0.706580
O341	O34	0.217800	0.830740	0.454480
O351	O35	0.210000	0.706350	0.477630
O361	O36	0.807100	0.341690	0.646230
