data_OVIWIA_clean_PM
_symmetry_space_group_name_H-M	'P1'
_cell_length_a	9.356800
_cell_length_b	9.502600
_cell_length_c	12.128200
_cell_angle_alpha	90.000000
_cell_angle_beta	103.912000
_cell_angle_gamma	90.000000
_symmetry_Int_Tables_number 1

loop_
_symmetry_equiv_pos_as_xyz
'x,y,z'

loop_
_atom_site_label
_atom_site_type_symbol
_atom_site_fract_x
_atom_site_fract_y
_atom_site_fract_z
U11	U1	0.782560	0.677860	0.380230
U21	U2	0.717440	0.177860	0.119770
U31	U3	0.217440	0.322140	0.619770
U41	U4	0.282560	0.822140	0.880230
Co11	Co1	0.500000	0.500000	0.500000
Co21	Co2	0.000000	0.000000	0.000000
P11	P1	0.591050	0.817470	0.115850
P21	P2	0.908950	0.317470	0.384150
P31	P3	0.408950	0.182530	0.884150
P41	P4	0.091050	0.682530	0.615850
H11	H1	0.790900	0.692600	0.084400
H21	H2	0.647500	0.660000	0.986100
H31	H3	0.709100	0.192600	0.415600
H41	H4	0.852500	0.160000	0.513900
H51	H5	0.209100	0.307400	0.915600
H61	H6	0.352500	0.340000	0.013900
H71	H7	0.290900	0.807400	0.584400
H81	H8	0.147500	0.840000	0.486100
C11	C1	0.684600	0.670000	0.069300
C21	C2	0.668000	0.530100	0.124000
C31	C3	0.815400	0.170000	0.430700
C41	C4	0.832000	0.030100	0.376000
C51	C5	0.315400	0.330000	0.930700
C61	C6	0.332000	0.469900	0.876000
C71	C7	0.184600	0.830000	0.569300
C81	C8	0.168000	0.969900	0.624000
O11	O1	0.623500	0.816000	0.244300
O21	O2	0.425300	0.804600	0.065300
O31	O3	0.654100	0.947300	0.069600
O41	O4	0.653300	0.528200	0.225700
O51	O5	0.673600	0.420900	0.066300
O61	O6	0.629300	0.658400	0.445600
O71	O7	0.876500	0.316000	0.255700
O81	O8	0.074700	0.304600	0.434700
O91	O9	0.845900	0.447300	0.430400
O101	O10	0.846700	0.028200	0.274300
O111	O11	0.826400	0.920900	0.433700
O121	O12	0.870700	0.158400	0.054400
O131	O13	0.376500	0.184000	0.755700
O141	O14	0.574700	0.195400	0.934700
O151	O15	0.345900	0.052700	0.930400
O161	O16	0.346700	0.471800	0.774300
O171	O17	0.326400	0.579100	0.933700
O181	O18	0.370700	0.341600	0.554400
O191	O19	0.123500	0.684000	0.744300
O201	O20	0.925300	0.695400	0.565300
O211	O21	0.154100	0.552700	0.569600
O221	O22	0.153300	0.971800	0.725700
O231	O23	0.173600	0.079100	0.566300
O241	O24	0.129300	0.841600	0.945600
