data_OVUCOY_clean_PM
_symmetry_space_group_name_H-M	'P1'
_cell_length_a	11.237000
_cell_length_b	20.852400
_cell_length_c	14.618900
_cell_angle_alpha	90.000000
_cell_angle_beta	104.997000
_cell_angle_gamma	90.000000
_symmetry_Int_Tables_number 1

loop_
_symmetry_equiv_pos_as_xyz
'x,y,z'

loop_
_atom_site_label
_atom_site_type_symbol
_atom_site_fract_x
_atom_site_fract_y
_atom_site_fract_z
U11	U1	0.776420	0.224930	0.560400
U21	U2	0.923260	0.418850	0.537370
U31	U3	0.373190	0.485730	0.873370
P11	P1	0.203070	0.447790	0.629100
P21	P2	0.601750	0.116000	0.386970
P31	P3	0.616920	0.364360	0.426180
P41	P4	0.124990	0.946420	0.375250
F11	F1	0.864300	0.327120	0.595400
O11	O1	0.107700	0.488250	0.557500
O21	O2	0.126200	0.389710	0.644800
O31	O3	0.263800	0.483970	0.717800
O41	O4	0.719700	0.412520	0.454300
O51	O5	0.654600	0.296140	0.450900
O61	O6	0.559300	0.366190	0.315700
O71	O7	0.704500	0.069010	0.390700
O81	O8	0.619000	0.160910	0.470100
O91	O9	0.582500	0.158060	0.294400
O101	O10	0.013500	0.961150	0.290800
O111	O11	0.077000	0.969250	0.460400
O121	O12	0.165000	0.877490	0.378600
C11	C1	0.318900	0.423500	0.572000
C21	C2	0.441900	0.436100	0.613500
H11	H1	0.465300	0.457200	0.673100
C31	C3	0.530800	0.418100	0.568600
H21	H2	0.615100	0.426300	0.598300
C41	C4	0.498700	0.388200	0.480700
C51	C5	0.373500	0.376300	0.438800
H31	H3	0.349400	0.356000	0.378600
C61	C6	0.285300	0.393800	0.483900
H41	H4	0.200900	0.385500	0.454700
C71	C7	0.464500	0.069900	0.377200
C81	C8	0.353000	0.098500	0.378200
H51	H5	0.348300	0.143900	0.381400
C91	C9	0.248600	0.062000	0.374600
H61	H6	0.172900	0.082400	0.374300
C101	C10	0.255100	0.995400	0.371400
C111	C11	0.365700	0.966800	0.371200
H71	H7	0.370900	0.921400	0.369200
C121	C12	0.469700	0.003700	0.374100
H81	H8	0.545100	0.983100	0.373900
U41	U4	0.723580	0.724930	0.939600
U51	U5	0.576740	0.918850	0.962630
U61	U6	0.126810	0.985730	0.626630
P51	P5	0.296930	0.947790	0.870900
P61	P6	0.898250	0.616000	0.113030
P71	P7	0.883080	0.864360	0.073820
P81	P8	0.375010	0.446420	0.124750
F21	F2	0.635700	0.827120	0.904600
O131	O13	0.392300	0.988250	0.942500
O141	O14	0.373800	0.889710	0.855200
O151	O15	0.236200	0.983970	0.782200
O161	O16	0.780300	0.912520	0.045700
O171	O17	0.845400	0.796140	0.049100
O181	O18	0.940700	0.866190	0.184300
O191	O19	0.795500	0.569010	0.109300
O201	O20	0.881000	0.660910	0.029900
O211	O21	0.917500	0.658060	0.205600
O221	O22	0.486500	0.461150	0.209200
O231	O23	0.423000	0.469250	0.039600
O241	O24	0.335000	0.377490	0.121400
C131	C13	0.181100	0.923500	0.928000
C141	C14	0.058100	0.936100	0.886500
H91	H9	0.034700	0.957200	0.826900
C151	C15	0.969200	0.918100	0.931400
H101	H10	0.884900	0.926300	0.901700
C161	C16	0.001300	0.888200	0.019300
C171	C17	0.126500	0.876300	0.061200
H111	H11	0.150600	0.856000	0.121400
C181	C18	0.214700	0.893800	0.016100
H121	H12	0.299100	0.885500	0.045300
C191	C19	0.035500	0.569900	0.122800
C201	C20	0.147000	0.598500	0.121800
H131	H13	0.151700	0.643900	0.118600
C211	C21	0.251400	0.562000	0.125400
H141	H14	0.327100	0.582400	0.125700
C221	C22	0.244900	0.495400	0.128600
C231	C23	0.134300	0.466800	0.128800
H151	H15	0.129100	0.421400	0.130800
C241	C24	0.030300	0.503700	0.125900
H161	H16	0.954900	0.483100	0.126100
U71	U7	0.223580	0.775070	0.439600
U81	U8	0.076740	0.581150	0.462630
U91	U9	0.626810	0.514270	0.126630
P91	P9	0.796930	0.552210	0.370900
P101	P10	0.398250	0.884000	0.613030
P111	P11	0.383080	0.635640	0.573820
P121	P12	0.875010	0.053580	0.624750
F31	F3	0.135700	0.672880	0.404600
O251	O25	0.892300	0.511750	0.442500
O261	O26	0.873800	0.610290	0.355200
O271	O27	0.736200	0.516030	0.282200
O281	O28	0.280300	0.587480	0.545700
O291	O29	0.345400	0.703860	0.549100
O301	O30	0.440700	0.633810	0.684300
O311	O31	0.295500	0.930990	0.609300
O321	O32	0.381000	0.839090	0.529900
O331	O33	0.417500	0.841940	0.705600
O341	O34	0.986500	0.038850	0.709200
O351	O35	0.923000	0.030750	0.539600
O361	O36	0.835000	0.122510	0.621400
C251	C25	0.681100	0.576500	0.428000
C261	C26	0.558100	0.563900	0.386500
H171	H17	0.534700	0.542800	0.326900
C271	C27	0.469200	0.581900	0.431400
H181	H18	0.384900	0.573700	0.401700
C281	C28	0.501300	0.611800	0.519300
C291	C29	0.626500	0.623700	0.561200
H191	H19	0.650600	0.644000	0.621400
C301	C30	0.714700	0.606200	0.516100
H201	H20	0.799100	0.614500	0.545300
C311	C31	0.535500	0.930100	0.622800
C321	C32	0.647000	0.901500	0.621800
H211	H21	0.651700	0.856100	0.618600
C331	C33	0.751400	0.938000	0.625400
H221	H22	0.827100	0.917600	0.625700
C341	C34	0.744900	0.004600	0.628600
C351	C35	0.634300	0.033200	0.628800
H231	H23	0.629100	0.078600	0.630800
C361	C36	0.530300	0.996300	0.625900
H241	H24	0.454900	0.016900	0.626100
U101	U10	0.276420	0.275070	0.060400
U111	U11	0.423260	0.081150	0.037370
U121	U12	0.873190	0.014270	0.373370
P131	P13	0.703070	0.052210	0.129100
P141	P14	0.101750	0.384000	0.886970
P151	P15	0.116920	0.135640	0.926180
P161	P16	0.624990	0.553580	0.875250
F41	F4	0.364300	0.172880	0.095400
O371	O37	0.607700	0.011750	0.057500
O381	O38	0.626200	0.110290	0.144800
O391	O39	0.763800	0.016030	0.217800
O401	O40	0.219700	0.087480	0.954300
O411	O41	0.154600	0.203860	0.950900
O421	O42	0.059300	0.133810	0.815700
O431	O43	0.204500	0.430990	0.890700
O441	O44	0.119000	0.339090	0.970100
O451	O45	0.082500	0.341940	0.794400
O461	O46	0.513500	0.538850	0.790800
O471	O47	0.577000	0.530750	0.960400
O481	O48	0.665000	0.622510	0.878600
C371	C37	0.818900	0.076500	0.072000
C381	C38	0.941900	0.063900	0.113500
H251	H25	0.965300	0.042800	0.173100
C391	C39	0.030800	0.081900	0.068600
H261	H26	0.115100	0.073700	0.098300
C401	C40	0.998700	0.111800	0.980700
C411	C41	0.873500	0.123700	0.938800
H271	H27	0.849400	0.144000	0.878600
C421	C42	0.785300	0.106200	0.983900
H281	H28	0.700900	0.114500	0.954700
C431	C43	0.964500	0.430100	0.877200
C441	C44	0.853000	0.401500	0.878200
H291	H29	0.848300	0.356100	0.881400
C451	C45	0.748600	0.438000	0.874600
H301	H30	0.672900	0.417600	0.874300
C461	C46	0.755100	0.504600	0.871400
C471	C47	0.865700	0.533200	0.871200
H311	H31	0.870900	0.578600	0.869200
C481	C48	0.969700	0.496300	0.874100
H321	H32	0.045100	0.516900	0.873900
