data_OWAVIS_clean_PM
_symmetry_space_group_name_H-M	'P1'
_cell_length_a	17.479000
_cell_length_b	25.117000
_cell_length_c	26.607000
_cell_angle_alpha	90.000000
_cell_angle_beta	90.000000
_cell_angle_gamma	90.000000
_symmetry_Int_Tables_number 1

loop_
_symmetry_equiv_pos_as_xyz
'x,y,z'

loop_
_atom_site_label
_atom_site_type_symbol
_atom_site_fract_x
_atom_site_fract_y
_atom_site_fract_z
Zn11	Zn1	0.739110	0.920990	0.828980
Zn21	Zn2	0.280330	0.279650	0.800420
Zn31	Zn3	0.434850	0.210290	0.837190
Zn41	Zn4	0.934140	0.278620	0.961670
Zn51	Zn5	0.901310	0.954370	0.905620
Zn61	Zn6	0.779200	0.348880	0.925370
Zn71	Zn7	0.318200	0.603560	0.853370
Zn81	Zn8	0.239110	0.079010	0.171020
Zn91	Zn9	0.780330	0.720350	0.199580
Zn101	Zn10	0.934850	0.789710	0.162810
Zn111	Zn11	0.434140	0.721380	0.038330
Zn121	Zn12	0.401310	0.045630	0.094380
Zn131	Zn13	0.279200	0.651120	0.074630
Zn141	Zn14	0.818200	0.396440	0.146630
Zn151	Zn15	0.739110	0.420990	0.671020
Zn161	Zn16	0.280330	0.779650	0.699580
Zn171	Zn17	0.434850	0.710290	0.662810
Zn181	Zn18	0.934140	0.778620	0.538330
Zn191	Zn19	0.901310	0.454370	0.594380
Zn201	Zn20	0.779200	0.848880	0.574630
Zn211	Zn21	0.318200	0.103560	0.646630
Zn221	Zn22	0.239110	0.579010	0.328980
Zn231	Zn23	0.780330	0.220350	0.300420
Zn241	Zn24	0.934850	0.289710	0.337190
Zn251	Zn25	0.434140	0.221380	0.461670
Zn261	Zn26	0.401310	0.545630	0.405620
Zn271	Zn27	0.279200	0.151120	0.425370
Zn281	Zn28	0.818200	0.896440	0.353370
H11	H1	0.378200	0.437200	0.836100
H21	H2	0.568600	0.497600	0.892000
H31	H3	0.555700	0.340900	0.871200
H41	H4	0.161400	0.239400	0.924600
H51	H5	0.145000	0.163900	0.058200
H61	H6	0.338100	0.154700	0.975800
H71	H7	0.055300	0.324700	0.839700
H81	H8	0.871400	0.398000	0.782100
H91	H9	0.061900	0.380600	0.700700
H101	H10	0.843100	0.121200	0.913400
H111	H11	0.646600	0.062300	0.862500
H121	H12	0.664900	0.218100	0.889600
H131	H13	0.248900	0.256600	0.669400
H141	H14	0.227400	0.198600	0.653000
H151	H15	0.188400	0.224100	0.700300
H161	H16	0.476000	0.113700	0.774400
H171	H17	0.423800	0.076500	0.741700
H181	H18	0.484300	0.113400	0.715700
H191	H19	0.680300	0.401600	0.027500
H201	H20	0.723600	0.437900	0.066000
H211	H21	0.737000	0.445300	0.008200
H221	H22	0.980000	0.290600	0.073200
H231	H23	0.958100	0.329300	0.117200
H241	H24	0.915300	0.274800	0.111100
H251	H25	0.878200	0.562800	0.163900
H261	H26	0.068600	0.502400	0.108000
H271	H27	0.055700	0.659100	0.128800
H281	H28	0.661400	0.760600	0.075400
H291	H29	0.645000	0.836100	0.941800
H301	H30	0.838100	0.845300	0.024200
H311	H31	0.555300	0.675300	0.160300
H321	H32	0.371400	0.602000	0.217900
H331	H33	0.561900	0.619400	0.299300
H341	H34	0.343100	0.878800	0.086600
H351	H35	0.146600	0.937700	0.137500
H361	H36	0.164900	0.781900	0.110400
H371	H37	0.748900	0.743400	0.330600
H381	H38	0.727400	0.801400	0.347000
H391	H39	0.688400	0.775900	0.299700
H401	H40	0.976000	0.886300	0.225600
H411	H41	0.923800	0.923500	0.258300
H421	H42	0.984300	0.886600	0.284300
H431	H43	0.180300	0.598400	0.972500
H441	H44	0.223600	0.562100	0.934000
H451	H45	0.237000	0.554700	0.991800
H461	H46	0.480000	0.709400	0.926800
H471	H47	0.458100	0.670700	0.882800
H481	H48	0.415300	0.725200	0.888900
H491	H49	0.378200	0.937200	0.663900
H501	H50	0.568600	0.997600	0.608000
H511	H51	0.555700	0.840900	0.628800
H521	H52	0.161400	0.739400	0.575400
H531	H53	0.145000	0.663900	0.441800
H541	H54	0.338100	0.654700	0.524200
H551	H55	0.055300	0.824700	0.660300
H561	H56	0.871400	0.898000	0.717900
H571	H57	0.061900	0.880600	0.799300
H581	H58	0.843100	0.621200	0.586600
H591	H59	0.646600	0.562300	0.637500
H601	H60	0.664900	0.718100	0.610400
H611	H61	0.248900	0.756600	0.830600
H621	H62	0.227400	0.698600	0.847000
H631	H63	0.188400	0.724100	0.799700
H641	H64	0.476000	0.613700	0.725600
H651	H65	0.423800	0.576500	0.758300
H661	H66	0.484300	0.613400	0.784300
H671	H67	0.680300	0.901600	0.472500
H681	H68	0.723600	0.937900	0.434000
H691	H69	0.737000	0.945300	0.491800
H701	H70	0.980000	0.790600	0.426800
H711	H71	0.958100	0.829300	0.382800
H721	H72	0.915300	0.774800	0.388900
H731	H73	0.878200	0.062800	0.336100
H741	H74	0.068600	0.002400	0.392000
H751	H75	0.055700	0.159100	0.371200
H761	H76	0.661400	0.260600	0.424600
H771	H77	0.645000	0.336100	0.558200
H781	H78	0.838100	0.345300	0.475800
H791	H79	0.555300	0.175300	0.339700
H801	H80	0.371400	0.102000	0.282100
H811	H81	0.561900	0.119400	0.200700
H821	H82	0.343100	0.378800	0.413400
H831	H83	0.146600	0.437700	0.362500
H841	H84	0.164900	0.281900	0.389600
H851	H85	0.748900	0.243400	0.169400
H861	H86	0.727400	0.301400	0.153000
H871	H87	0.688400	0.275900	0.200300
H881	H88	0.976000	0.386300	0.274400
H891	H89	0.923800	0.423500	0.241700
H901	H90	0.984300	0.386600	0.215700
H911	H91	0.180300	0.098400	0.527500
H921	H92	0.223600	0.062100	0.566000
H931	H93	0.237000	0.054700	0.508200
H941	H94	0.480000	0.209400	0.573200
H951	H95	0.458100	0.170700	0.617200
H961	H96	0.415300	0.225200	0.611100
C11	C1	0.415600	0.334400	0.833800
C21	C2	0.457200	0.380600	0.848200
C31	C3	0.427700	0.432300	0.848100
C41	C4	0.466800	0.476200	0.864400
C51	C5	0.432400	0.529500	0.863900
C61	C6	0.540200	0.468300	0.881600
C71	C7	0.573600	0.417700	0.883900
C81	C8	0.656300	0.411300	0.902800
C91	C9	0.533900	0.374600	0.868600
C101	C10	0.301600	0.213900	0.898000
C111	C11	0.257500	0.199000	0.944500
C121	C12	0.183000	0.218000	0.949400
C131	C13	0.141300	0.204400	0.992300
C141	C14	0.058400	0.223000	0.996200
C151	C15	0.173400	0.173000	0.030000
C161	C16	0.248100	0.155600	0.024800
C171	C17	0.282400	0.119200	0.065000
C181	C18	0.289000	0.168100	0.980300
C191	C19	0.151100	0.331000	0.765700
C201	C20	0.069900	0.350200	0.768500
C211	C21	0.030800	0.341800	0.813100
C221	C22	0.957000	0.358300	0.818500
C231	C23	0.913900	0.350000	0.866700
C241	C24	0.920800	0.385000	0.778300
C251	C25	0.958800	0.391700	0.733200
C261	C26	0.919600	0.415600	0.689900
C271	C27	0.034800	0.374700	0.730200
C281	C28	0.805800	0.225700	0.923300
C291	C29	0.761900	0.178000	0.905000
C301	C30	0.792900	0.126600	0.903000
C311	C31	0.750800	0.083600	0.885800
C321	C32	0.784600	0.029000	0.883000
C331	C33	0.675800	0.091200	0.872800
C341	C34	0.642600	0.141600	0.874900
C351	C35	0.558000	0.150300	0.862100
C361	C36	0.686300	0.184300	0.889700
C371	C37	0.234900	0.221800	0.681200
C381	C38	0.298300	0.200000	0.714200
C391	C39	0.392900	0.152100	0.739600
C401	C40	0.448900	0.110500	0.743100
C411	C41	0.727400	0.419900	0.034300
C421	C42	0.791400	0.380600	0.036200
C431	C43	0.881400	0.329700	0.060900
C441	C44	0.938700	0.303800	0.093400
C451	C45	0.915600	0.665600	0.166200
C461	C46	0.957200	0.619400	0.151800
C471	C47	0.927700	0.567700	0.151900
C481	C48	0.966800	0.523800	0.135600
C491	C49	0.932400	0.470500	0.136100
C501	C50	0.040200	0.531700	0.118400
C511	C51	0.073600	0.582300	0.116100
C521	C52	0.156300	0.588700	0.097200
C531	C53	0.033900	0.625400	0.131400
C541	C54	0.801600	0.786100	0.102000
C551	C55	0.757500	0.801000	0.055500
C561	C56	0.683000	0.782000	0.050600
C571	C57	0.641300	0.795600	0.007700
C581	C58	0.558400	0.777000	0.003800
C591	C59	0.673400	0.827000	0.970000
C601	C60	0.748100	0.844400	0.975200
C611	C61	0.782400	0.880800	0.935000
C621	C62	0.789000	0.831900	0.019700
C631	C63	0.651100	0.669000	0.234300
C641	C64	0.569900	0.649800	0.231500
C651	C65	0.530800	0.658200	0.186900
C661	C66	0.457000	0.641700	0.181500
C671	C67	0.413900	0.650000	0.133300
C681	C68	0.420800	0.615000	0.221700
C691	C69	0.458800	0.608300	0.266800
C701	C70	0.419600	0.584400	0.310100
C711	C71	0.534800	0.625300	0.269800
C721	C72	0.305800	0.774300	0.076700
C731	C73	0.261900	0.822000	0.095000
C741	C74	0.292900	0.873400	0.097000
C751	C75	0.250800	0.916400	0.114200
C761	C76	0.284600	0.971000	0.117000
C771	C77	0.175800	0.908800	0.127200
C781	C78	0.142600	0.858400	0.125100
C791	C79	0.058000	0.849700	0.137900
C801	C80	0.186300	0.815700	0.110300
C811	C81	0.734900	0.778200	0.318800
C821	C82	0.798300	0.800000	0.285800
C831	C83	0.892900	0.847900	0.260400
C841	C84	0.948900	0.889500	0.256900
C851	C85	0.227400	0.580100	0.965700
C861	C86	0.291400	0.619400	0.963800
C871	C87	0.381400	0.670300	0.939100
C881	C88	0.438700	0.696200	0.906600
C891	C89	0.415600	0.834400	0.666200
C901	C90	0.457200	0.880600	0.651800
C911	C91	0.427700	0.932300	0.651900
C921	C92	0.466800	0.976200	0.635600
C931	C93	0.432400	0.029500	0.636100
C941	C94	0.540200	0.968300	0.618400
C951	C95	0.573600	0.917700	0.616100
C961	C96	0.656300	0.911300	0.597200
C971	C97	0.533900	0.874600	0.631400
C981	C98	0.301600	0.713900	0.602000
C991	C99	0.257500	0.699000	0.555500
C1001	C100	0.183000	0.718000	0.550600
C1011	C101	0.141300	0.704400	0.507700
C1021	C102	0.058400	0.723000	0.503800
C1031	C103	0.173400	0.673000	0.470000
C1041	C104	0.248100	0.655600	0.475200
C1051	C105	0.282400	0.619200	0.435000
C1061	C106	0.289000	0.668100	0.519700
C1071	C107	0.151100	0.831000	0.734300
C1081	C108	0.069900	0.850200	0.731500
C1091	C109	0.030800	0.841800	0.686900
C1101	C110	0.957000	0.858300	0.681500
C1111	C111	0.913900	0.850000	0.633300
C1121	C112	0.920800	0.885000	0.721700
C1131	C113	0.958800	0.891700	0.766800
C1141	C114	0.919600	0.915600	0.810100
C1151	C115	0.034800	0.874700	0.769800
C1161	C116	0.805800	0.725700	0.576700
C1171	C117	0.761900	0.678000	0.595000
C1181	C118	0.792900	0.626600	0.597000
C1191	C119	0.750800	0.583600	0.614200
C1201	C120	0.784600	0.529000	0.617000
C1211	C121	0.675800	0.591200	0.627200
C1221	C122	0.642600	0.641600	0.625100
C1231	C123	0.558000	0.650300	0.637900
C1241	C124	0.686300	0.684300	0.610300
C1251	C125	0.234900	0.721800	0.818800
C1261	C126	0.298300	0.700000	0.785800
C1271	C127	0.392900	0.652100	0.760400
C1281	C128	0.448900	0.610500	0.756900
C1291	C129	0.727400	0.919900	0.465700
C1301	C130	0.791400	0.880600	0.463800
C1311	C131	0.881400	0.829700	0.439100
C1321	C132	0.938700	0.803800	0.406600
C1331	C133	0.915600	0.165600	0.333800
C1341	C134	0.957200	0.119400	0.348200
C1351	C135	0.927700	0.067700	0.348100
C1361	C136	0.966800	0.023800	0.364400
C1371	C137	0.932400	0.970500	0.363900
C1381	C138	0.040200	0.031700	0.381600
C1391	C139	0.073600	0.082300	0.383900
C1401	C140	0.156300	0.088700	0.402800
C1411	C141	0.033900	0.125400	0.368600
C1421	C142	0.801600	0.286100	0.398000
C1431	C143	0.757500	0.301000	0.444500
C1441	C144	0.683000	0.282000	0.449400
C1451	C145	0.641300	0.295600	0.492300
C1461	C146	0.558400	0.277000	0.496200
C1471	C147	0.673400	0.327000	0.530000
C1481	C148	0.748100	0.344400	0.524800
C1491	C149	0.782400	0.380800	0.565000
C1501	C150	0.789000	0.331900	0.480300
C1511	C151	0.651100	0.169000	0.265700
C1521	C152	0.569900	0.149800	0.268500
C1531	C153	0.530800	0.158200	0.313100
C1541	C154	0.457000	0.141700	0.318500
C1551	C155	0.413900	0.150000	0.366700
C1561	C156	0.420800	0.115000	0.278300
C1571	C157	0.458800	0.108300	0.233200
C1581	C158	0.419600	0.084400	0.189900
C1591	C159	0.534800	0.125300	0.230200
C1601	C160	0.305800	0.274300	0.423300
C1611	C161	0.261900	0.322000	0.405000
C1621	C162	0.292900	0.373400	0.403000
C1631	C163	0.250800	0.416400	0.385800
C1641	C164	0.284600	0.471000	0.383000
C1651	C165	0.175800	0.408800	0.372800
C1661	C166	0.142600	0.358400	0.374900
C1671	C167	0.058000	0.349700	0.362100
C1681	C168	0.186300	0.315700	0.389700
C1691	C169	0.734900	0.278200	0.181200
C1701	C170	0.798300	0.300000	0.214200
C1711	C171	0.892900	0.347900	0.239600
C1721	C172	0.948900	0.389500	0.243100
C1731	C173	0.227400	0.080100	0.534300
C1741	C174	0.291400	0.119400	0.536200
C1751	C175	0.381400	0.170300	0.560900
C1761	C176	0.438700	0.196200	0.593400
N11	N1	0.320900	0.221200	0.756300
N21	N2	0.382300	0.190400	0.773200
N31	N3	0.340600	0.156800	0.702100
N41	N4	0.817600	0.355800	0.995600
N51	N5	0.876900	0.323200	0.012100
N61	N6	0.828000	0.364400	0.077400
N71	N7	0.820900	0.778800	0.243700
N81	N8	0.882300	0.809600	0.226800
N91	N9	0.840600	0.843200	0.297900
N101	N10	0.317600	0.644200	0.004400
N111	N11	0.376900	0.676800	0.987900
N121	N12	0.328000	0.635600	0.922600
N131	N13	0.320900	0.721200	0.743700
N141	N14	0.382300	0.690400	0.726800
N151	N15	0.340600	0.656800	0.797900
N161	N16	0.817600	0.855800	0.504400
N171	N17	0.876900	0.823200	0.487900
N181	N18	0.828000	0.864400	0.422600
N191	N19	0.820900	0.278800	0.256300
N201	N20	0.882300	0.309600	0.273200
N211	N21	0.840600	0.343200	0.202100
N221	N22	0.317600	0.144200	0.495600
N231	N23	0.376900	0.176800	0.512100
N241	N24	0.328000	0.135600	0.577400
O11	O1	0.347200	0.340000	0.815600
O21	O2	0.447500	0.289300	0.834500
O31	O3	0.362700	0.532900	0.850100
O41	O4	0.468900	0.569400	0.875600
O51	O5	0.674600	0.362700	0.910200
O61	O6	0.697600	0.448800	0.909500
O71	O7	0.268400	0.240300	0.866400
O81	O8	0.370100	0.196000	0.895900
O91	O9	0.039200	0.258800	0.966600
O101	O10	0.019400	0.203400	0.028900
O111	O11	0.345800	0.096600	0.053300
O121	O12	0.250800	0.117900	0.105800
O131	O13	0.175000	0.300600	0.797700
O141	O14	0.190700	0.344900	0.729600
O151	O15	0.947000	0.325200	0.901600
O161	O16	0.848200	0.367600	0.871000
O171	O17	0.956000	0.423300	0.651100
O181	O18	0.851200	0.426700	0.693000
O191	O19	0.873100	0.217800	0.938000
O201	O20	0.773600	0.269500	0.918000
O211	O21	0.852100	0.023500	0.899300
O221	O22	0.745300	0.993200	0.865400
O231	O23	0.515400	0.110500	0.859500
O241	O24	0.539300	0.196600	0.850700
O251	O25	0.847200	0.660000	0.184400
O261	O26	0.947500	0.710700	0.165500
O271	O27	0.862700	0.467100	0.149900
O281	O28	0.968900	0.430600	0.124400
O291	O29	0.174600	0.637300	0.089800
O301	O30	0.197600	0.551200	0.090500
O311	O31	0.768400	0.759700	0.133600
O321	O32	0.870100	0.804000	0.104100
O331	O33	0.539200	0.741200	0.033400
O341	O34	0.519400	0.796600	0.971100
O351	O35	0.845800	0.903400	0.946700
O361	O36	0.750800	0.882100	0.894200
O371	O37	0.675000	0.699400	0.202300
O381	O38	0.690700	0.655100	0.270400
O391	O39	0.447000	0.674800	0.098400
O401	O40	0.348200	0.632400	0.129000
O411	O41	0.456000	0.576700	0.348900
O421	O42	0.351200	0.573300	0.307000
O431	O43	0.373100	0.782200	0.062000
O441	O44	0.273600	0.730500	0.082000
O451	O45	0.352100	0.976500	0.100700
O461	O46	0.245300	0.006800	0.134600
O471	O47	0.015400	0.889500	0.140500
O481	O48	0.039300	0.803400	0.149300
O491	O49	0.347200	0.840000	0.684400
O501	O50	0.447500	0.789300	0.665500
O511	O51	0.362700	0.032900	0.649900
O521	O52	0.468900	0.069400	0.624400
O531	O53	0.674600	0.862700	0.589800
O541	O54	0.697600	0.948800	0.590500
O551	O55	0.268400	0.740300	0.633600
O561	O56	0.370100	0.696000	0.604100
O571	O57	0.039200	0.758800	0.533400
O581	O58	0.019400	0.703400	0.471100
O591	O59	0.345800	0.596600	0.446700
O601	O60	0.250800	0.617900	0.394200
O611	O61	0.175000	0.800600	0.702300
O621	O62	0.190700	0.844900	0.770400
O631	O63	0.947000	0.825200	0.598400
O641	O64	0.848200	0.867600	0.629000
O651	O65	0.956000	0.923300	0.848900
O661	O66	0.851200	0.926700	0.807000
O671	O67	0.873100	0.717800	0.562000
O681	O68	0.773600	0.769500	0.582000
O691	O69	0.852100	0.523500	0.600700
O701	O70	0.745300	0.493200	0.634600
O711	O71	0.515400	0.610500	0.640500
O721	O72	0.539300	0.696600	0.649300
O731	O73	0.847200	0.160000	0.315600
O741	O74	0.947500	0.210700	0.334500
O751	O75	0.862700	0.967100	0.350100
O761	O76	0.968900	0.930600	0.375600
O771	O77	0.174600	0.137300	0.410200
O781	O78	0.197600	0.051200	0.409500
O791	O79	0.768400	0.259700	0.366400
O801	O80	0.870100	0.304000	0.395900
O811	O81	0.539200	0.241200	0.466600
O821	O82	0.519400	0.296600	0.528900
O831	O83	0.845800	0.403400	0.553300
O841	O84	0.750800	0.382100	0.605800
O851	O85	0.675000	0.199400	0.297700
O861	O86	0.690700	0.155100	0.229600
O871	O87	0.447000	0.174800	0.401600
O881	O88	0.348200	0.132400	0.371000
O891	O89	0.456000	0.076700	0.151100
O901	O90	0.351200	0.073300	0.193000
O911	O91	0.373100	0.282200	0.438000
O921	O92	0.273600	0.230500	0.418000
O931	O93	0.352100	0.476500	0.399300
O941	O94	0.245300	0.506800	0.365400
O951	O95	0.015400	0.389500	0.359500
O961	O96	0.039300	0.303400	0.350700
