data_OWIJEL_clean_PM
_symmetry_space_group_name_H-M	'P1'
_cell_length_a	15.488900
_cell_length_b	15.488900
_cell_length_c	12.308300
_cell_angle_alpha	90.000000
_cell_angle_beta	90.000000
_cell_angle_gamma	90.000000
_symmetry_Int_Tables_number 1

loop_
_symmetry_equiv_pos_as_xyz
'x,y,z'

loop_
_atom_site_label
_atom_site_type_symbol
_atom_site_fract_x
_atom_site_fract_y
_atom_site_fract_z
O11	O1	0.611800	0.379700	0.616600
O21	O2	0.592400	0.293400	0.753100
C11	C1	0.584600	0.364200	0.708700
C21	C2	0.541330	0.432800	0.767600
C31	C3	0.541330	0.432800	0.882300
H11	H1	0.572100	0.382800	0.924900
O31	O3	0.111800	0.879700	0.116600
O41	O4	0.092400	0.793400	0.253100
C41	C4	0.084600	0.864200	0.208700
C51	C5	0.041330	0.932800	0.267600
C61	C6	0.041330	0.932800	0.382300
H21	H2	0.072100	0.882800	0.424900
O51	O5	0.888200	0.120300	0.116600
O61	O6	0.907600	0.206600	0.253100
C71	C7	0.915400	0.135800	0.208700
C81	C8	0.958670	0.067200	0.267600
C91	C9	0.958670	0.067200	0.382300
H31	H3	0.927900	0.117200	0.424900
O71	O7	0.388200	0.620300	0.616600
O81	O8	0.407600	0.706600	0.753100
C101	C10	0.415400	0.635800	0.708700
C111	C11	0.458670	0.567200	0.767600
C121	C12	0.458670	0.567200	0.882300
H41	H4	0.427900	0.617200	0.924900
O91	O9	0.620300	0.111800	0.866600
O101	O10	0.706600	0.092400	0.003100
C131	C13	0.635800	0.084600	0.958700
C141	C14	0.567200	0.041330	0.017600
C151	C15	0.567200	0.041330	0.132300
H51	H5	0.617200	0.072100	0.174900
O111	O11	0.120300	0.611800	0.366600
O121	O12	0.206600	0.592400	0.503100
C161	C16	0.135800	0.584600	0.458700
C171	C17	0.067200	0.541330	0.517600
C181	C18	0.067200	0.541330	0.632300
H61	H6	0.117200	0.572100	0.674900
O131	O13	0.879700	0.388200	0.366600
O141	O14	0.793400	0.407600	0.503100
C191	C19	0.864200	0.415400	0.458700
C201	C20	0.932800	0.458670	0.517600
C211	C21	0.932800	0.458670	0.632300
H71	H7	0.882800	0.427900	0.674900
O151	O15	0.379700	0.888200	0.866600
O161	O16	0.293400	0.907600	0.003100
C221	C22	0.364200	0.915400	0.958700
C231	C23	0.432800	0.958670	0.017600
C241	C24	0.432800	0.958670	0.132300
H81	H8	0.382800	0.927900	0.174900
O171	O17	0.888200	0.379700	0.133400
O181	O18	0.907600	0.293400	0.996900
C251	C25	0.915400	0.364200	0.041300
C261	C26	0.958670	0.432800	0.982400
C271	C27	0.958670	0.432800	0.867700
H91	H9	0.927900	0.382800	0.825100
O191	O19	0.388200	0.879700	0.633400
O201	O20	0.407600	0.793400	0.496900
C281	C28	0.415400	0.864200	0.541300
C291	C29	0.458670	0.932800	0.482400
C301	C30	0.458670	0.932800	0.367700
H101	H10	0.427900	0.882800	0.325100
O211	O21	0.611800	0.120300	0.633400
O221	O22	0.592400	0.206600	0.496900
C311	C31	0.584600	0.135800	0.541300
C321	C32	0.541330	0.067200	0.482400
C331	C33	0.541330	0.067200	0.367700
H111	H11	0.572100	0.117200	0.325100
O231	O23	0.111800	0.620300	0.133400
O241	O24	0.092400	0.706600	0.996900
C341	C34	0.084600	0.635800	0.041300
C351	C35	0.041330	0.567200	0.982400
C361	C36	0.041330	0.567200	0.867700
H121	H12	0.072100	0.617200	0.825100
O251	O25	0.879700	0.111800	0.883400
O261	O26	0.793400	0.092400	0.746900
C371	C37	0.864200	0.084600	0.791300
C381	C38	0.932800	0.041330	0.732400
C391	C39	0.932800	0.041330	0.617700
H131	H13	0.882800	0.072100	0.575100
O271	O27	0.379700	0.611800	0.383400
O281	O28	0.293400	0.592400	0.246900
C401	C40	0.364200	0.584600	0.291300
C411	C41	0.432800	0.541330	0.232400
C421	C42	0.432800	0.541330	0.117700
H141	H14	0.382800	0.572100	0.075100
O291	O29	0.620300	0.388200	0.383400
O301	O30	0.706600	0.407600	0.246900
C431	C43	0.635800	0.415400	0.291300
C441	C44	0.567200	0.458670	0.232400
C451	C45	0.567200	0.458670	0.117700
H151	H15	0.617200	0.427900	0.075100
O311	O31	0.120300	0.888200	0.883400
O321	O32	0.206600	0.907600	0.746900
C461	C46	0.135800	0.915400	0.791300
C471	C47	0.067200	0.958670	0.732400
C481	C48	0.067200	0.958670	0.617700
H161	H16	0.117200	0.927900	0.575100
In11	In1	0.684200	0.315800	0.500000
In21	In2	0.184200	0.815800	0.000000
In31	In3	0.815800	0.184200	0.000000
In41	In4	0.315800	0.684200	0.500000
In51	In5	0.684200	0.184200	0.750000
In61	In6	0.184200	0.684200	0.250000
In71	In7	0.815800	0.315800	0.250000
In81	In8	0.315800	0.815800	0.750000
O331	O33	0.760800	0.250000	0.625000
H171	H17	0.818900	0.250000	0.625000
O341	O34	0.260800	0.750000	0.125000
H181	H18	0.318900	0.750000	0.125000
O351	O35	0.739200	0.250000	0.125000
H191	H19	0.681100	0.250000	0.125000
O361	O36	0.239200	0.750000	0.625000
H201	H20	0.181100	0.750000	0.625000
O371	O37	0.750000	0.260800	0.875000
H211	H21	0.750000	0.318900	0.875000
O381	O38	0.250000	0.760800	0.375000
H221	H22	0.250000	0.818900	0.375000
O391	O39	0.750000	0.239200	0.375000
H231	H23	0.750000	0.181100	0.375000
O401	O40	0.250000	0.739200	0.875000
H241	H24	0.250000	0.681100	0.875000
C491	C49	0.500000	0.500000	0.710300
C501	C50	0.500000	0.500000	0.939580
H251	H25	0.500000	0.500000	0.625000
C511	C51	0.000000	0.000000	0.210300
C521	C52	0.000000	0.000000	0.439580
H261	H26	0.000000	0.000000	0.125000
C531	C53	0.500000	0.000000	0.960300
C541	C54	0.500000	0.000000	0.189580
H271	H27	0.500000	0.000000	0.875000
C551	C55	0.000000	0.500000	0.460300
C561	C56	0.000000	0.500000	0.689580
H281	H28	0.000000	0.500000	0.375000
C571	C57	0.000000	0.500000	0.039700
C581	C58	0.000000	0.500000	0.810420
H291	H29	0.000000	0.500000	0.125000
C591	C59	0.500000	0.000000	0.539700
C601	C60	0.500000	0.000000	0.310420
H301	H30	0.500000	0.000000	0.625000
C611	C61	0.000000	0.000000	0.789700
C621	C62	0.000000	0.000000	0.560420
H311	H31	0.000000	0.000000	0.875000
C631	C63	0.500000	0.500000	0.289700
C641	C64	0.500000	0.500000	0.060420
H321	H32	0.500000	0.500000	0.375000
