data_OWIKAI_clean_PM
_symmetry_space_group_name_H-M	'P1'
_cell_length_a	9.903000
_cell_length_b	9.903000
_cell_length_c	15.720000
_cell_angle_alpha	90.000000
_cell_angle_beta	90.000000
_cell_angle_gamma	90.000000
_symmetry_Int_Tables_number 1

loop_
_symmetry_equiv_pos_as_xyz
'x,y,z'

loop_
_atom_site_label
_atom_site_type_symbol
_atom_site_fract_x
_atom_site_fract_y
_atom_site_fract_z
C11	C1	0.740900	0.161200	0.187500
H11	H1	0.736900	0.100100	0.142600
C21	C2	0.659300	0.239900	0.313400
H21	H2	0.598300	0.236100	0.358300
C31	C3	0.240900	0.661200	0.687500
H31	H3	0.236900	0.600100	0.642600
C41	C4	0.159300	0.739900	0.813400
H41	H4	0.098300	0.736100	0.858300
C51	C5	0.259100	0.838800	0.187500
H51	H5	0.263100	0.899900	0.142600
C61	C6	0.340700	0.760100	0.313400
H61	H6	0.401700	0.763900	0.358300
C71	C7	0.759100	0.338800	0.687500
H71	H7	0.763100	0.399900	0.642600
C81	C8	0.840700	0.260100	0.813400
H81	H8	0.901700	0.263900	0.858300
C91	C9	0.838800	0.740900	0.187500
H91	H9	0.899900	0.736900	0.142600
C101	C10	0.760100	0.659300	0.313400
H101	H10	0.763900	0.598300	0.358300
C111	C11	0.338800	0.240900	0.687500
H111	H11	0.399900	0.236900	0.642600
C121	C12	0.260100	0.159300	0.813400
H121	H12	0.263900	0.098300	0.858300
C131	C13	0.161200	0.259100	0.187500
H131	H13	0.100100	0.263100	0.142600
C141	C14	0.239900	0.340700	0.313400
H141	H14	0.236100	0.401700	0.358300
C151	C15	0.661200	0.759100	0.687500
H151	H15	0.600100	0.763100	0.642600
C161	C16	0.739900	0.840700	0.813400
H161	H16	0.736100	0.901700	0.858300
C171	C17	0.259100	0.161200	0.312500
H171	H17	0.263100	0.100100	0.357400
C181	C18	0.340700	0.239900	0.186600
H181	H18	0.401700	0.236100	0.141700
C191	C19	0.759100	0.661200	0.812500
H191	H19	0.763100	0.600100	0.857400
C201	C20	0.840700	0.739900	0.686600
H201	H20	0.901700	0.736100	0.641700
C211	C21	0.740900	0.838800	0.312500
H211	H21	0.736900	0.899900	0.357400
C221	C22	0.659300	0.760100	0.186600
H221	H22	0.598300	0.763900	0.141700
C231	C23	0.240900	0.338800	0.812500
H231	H23	0.236900	0.399900	0.857400
C241	C24	0.159300	0.260100	0.686600
H241	H24	0.098300	0.263900	0.641700
C251	C25	0.161200	0.740900	0.312500
H251	H25	0.100100	0.736900	0.357400
C261	C26	0.239900	0.659300	0.186600
H261	H26	0.236100	0.598300	0.141700
C271	C27	0.661200	0.240900	0.812500
H271	H27	0.600100	0.236900	0.857400
C281	C28	0.739900	0.159300	0.686600
H281	H28	0.736100	0.098300	0.641700
C291	C29	0.838800	0.259100	0.312500
H291	H29	0.899900	0.263100	0.357400
C301	C30	0.760100	0.340700	0.186600
H301	H30	0.763900	0.401700	0.141700
C311	C31	0.338800	0.759100	0.812500
H311	H31	0.399900	0.763100	0.857400
C321	C32	0.260100	0.840700	0.686600
H321	H32	0.263900	0.901700	0.641700
C331	C33	0.259100	0.838800	0.812500
H331	H33	0.263100	0.899900	0.857400
C341	C34	0.340700	0.760100	0.686600
H341	H34	0.401700	0.763900	0.641700
C351	C35	0.759100	0.338800	0.312500
H351	H35	0.763100	0.399900	0.357400
C361	C36	0.840700	0.260100	0.186600
H361	H36	0.901700	0.263900	0.141700
C371	C37	0.740900	0.161200	0.812500
H371	H37	0.736900	0.100100	0.857400
C381	C38	0.659300	0.239900	0.686600
H381	H38	0.598300	0.236100	0.641700
C391	C39	0.240900	0.661200	0.312500
H391	H39	0.236900	0.600100	0.357400
C401	C40	0.159300	0.739900	0.186600
H401	H40	0.098300	0.736100	0.141700
C411	C41	0.161200	0.259100	0.812500
H411	H41	0.100100	0.263100	0.857400
C421	C42	0.239900	0.340700	0.686600
H421	H42	0.236100	0.401700	0.641700
C431	C43	0.661200	0.759100	0.312500
H431	H43	0.600100	0.763100	0.357400
C441	C44	0.739900	0.840700	0.186600
H441	H44	0.736100	0.901700	0.141700
C451	C45	0.838800	0.740900	0.812500
H451	H45	0.899900	0.736900	0.857400
C461	C46	0.760100	0.659300	0.686600
H461	H46	0.763900	0.598300	0.641700
C471	C47	0.338800	0.240900	0.312500
H471	H47	0.399900	0.236900	0.357400
C481	C48	0.260100	0.159300	0.186600
H481	H48	0.263900	0.098300	0.141700
C491	C49	0.740900	0.838800	0.687500
H491	H49	0.736900	0.899900	0.642600
C501	C50	0.659300	0.760100	0.813400
H501	H50	0.598300	0.763900	0.858300
C511	C51	0.240900	0.338800	0.187500
H511	H51	0.236900	0.399900	0.142600
C521	C52	0.159300	0.260100	0.313400
H521	H52	0.098300	0.263900	0.358300
C531	C53	0.259100	0.161200	0.687500
H531	H53	0.263100	0.100100	0.642600
C541	C54	0.340700	0.239900	0.813400
H541	H54	0.401700	0.236100	0.858300
C551	C55	0.759100	0.661200	0.187500
H551	H55	0.763100	0.600100	0.142600
C561	C56	0.840700	0.739900	0.313400
H561	H56	0.901700	0.736100	0.358300
C571	C57	0.838800	0.259100	0.687500
H571	H57	0.899900	0.263100	0.642600
C581	C58	0.760100	0.340700	0.813400
H581	H58	0.763900	0.401700	0.858300
C591	C59	0.338800	0.759100	0.187500
H591	H59	0.399900	0.763100	0.142600
C601	C60	0.260100	0.840700	0.313400
H601	H60	0.263900	0.901700	0.358300
C611	C61	0.161200	0.740900	0.687500
H611	H61	0.100100	0.736900	0.642600
C621	C62	0.239900	0.659300	0.813400
H621	H62	0.236100	0.598300	0.858300
C631	C63	0.661200	0.240900	0.187500
H631	H63	0.600100	0.236900	0.142600
C641	C64	0.739900	0.159300	0.313400
H641	H64	0.736100	0.098300	0.358300
Nb11	Nb1	0.500000	0.000000	0.000000
Nb21	Nb2	0.000000	0.500000	0.500000
Nb31	Nb3	0.000000	0.500000	0.000000
Nb41	Nb4	0.500000	0.000000	0.500000
Ni11	Ni1	0.500000	0.000000	0.250000
Ni21	Ni2	0.000000	0.500000	0.250000
Ni31	Ni3	0.500000	0.000000	0.750000
Ni41	Ni4	0.000000	0.500000	0.750000
O11	O1	0.500000	0.000000	0.122800
O21	O2	0.000000	0.500000	0.122800
O31	O3	0.500000	0.000000	0.622800
O41	O4	0.500000	0.000000	0.377200
O51	O5	0.000000	0.500000	0.377200
O61	O6	0.500000	0.000000	0.877200
O71	O7	0.000000	0.500000	0.877200
O81	O8	0.000000	0.500000	0.622800
F11	F1	0.692200	0.009600	0.000000
F21	F2	0.192200	0.509600	0.500000
F31	F3	0.307800	0.990400	0.000000
F41	F4	0.807800	0.490400	0.500000
F51	F5	0.990400	0.692200	0.000000
F61	F6	0.490400	0.192200	0.500000
F71	F7	0.009600	0.307800	0.000000
F81	F8	0.509600	0.807800	0.500000
F91	F9	0.307800	0.009600	0.500000
F101	F10	0.807800	0.509600	0.000000
F111	F11	0.692200	0.990400	0.500000
F121	F12	0.192200	0.490400	0.000000
F131	F13	0.009600	0.692200	0.500000
F141	F14	0.509600	0.192200	0.000000
F151	F15	0.990400	0.307800	0.500000
F161	F16	0.490400	0.807800	0.000000
N11	N1	0.650600	0.150600	0.250100
N21	N2	0.349400	0.849400	0.250100
N31	N3	0.849400	0.650600	0.250100
N41	N4	0.150600	0.349400	0.250100
N51	N5	0.650600	0.849400	0.750100
N61	N6	0.349400	0.150600	0.249900
N71	N7	0.650600	0.849400	0.249900
N81	N8	0.150600	0.650600	0.249900
N91	N9	0.849400	0.349400	0.249900
N101	N10	0.349400	0.849400	0.749900
N111	N11	0.650600	0.150600	0.749900
N121	N12	0.150600	0.349400	0.749900
N131	N13	0.849400	0.650600	0.749900
N141	N14	0.349400	0.150600	0.750100
N151	N15	0.849400	0.349400	0.750100
N161	N16	0.150600	0.650600	0.750100
