data_OXALAB_clean_PM
_symmetry_space_group_name_H-M	'P1'
_cell_length_a	11.868000
_cell_length_b	16.265000
_cell_length_c	16.379000
_cell_angle_alpha	108.099000
_cell_angle_beta	102.855000
_cell_angle_gamma	101.216000
_symmetry_Int_Tables_number 1

loop_
_symmetry_equiv_pos_as_xyz
'x,y,z'

loop_
_atom_site_label
_atom_site_type_symbol
_atom_site_fract_x
_atom_site_fract_y
_atom_site_fract_z
Co11	Co1	0.182690	0.894440	0.384140
O11	O1	0.483800	0.488100	0.157500
C11	C1	0.459100	0.339900	0.058300
O21	O2	0.474700	0.864800	0.410500
C21	C2	0.403600	0.412400	0.102000
H11	H1	0.350300	0.424600	0.054000
H21	H2	0.353200	0.389400	0.135200
O31	O3	0.279000	0.810100	0.331200
C31	C3	0.449500	0.563900	0.194500
O41	O4	0.672300	0.405300	0.129600
C41	C4	0.542500	0.634700	0.250800
H31	H3	0.622500	0.630600	0.257000
O51	O5	0.017900	0.806000	0.275900
O61	O6	0.048600	0.778000	0.399800
C51	C5	0.407100	0.721500	0.292300
O71	O7	0.418600	0.210300	0.926520
C61	C6	0.313200	0.649000	0.233900
H41	H4	0.232900	0.652200	0.228100
O81	O8	0.320500	0.957660	0.522030
C71	C7	0.333500	0.569500	0.182200
H51	H5	0.267800	0.520500	0.139400
O91	O9	0.144800	0.987900	0.507600
C81	C8	0.384600	0.805500	0.348400
O101	O10	0.360800	0.236700	0.114900
C91	C9	0.583100	0.379600	0.049700
H61	H6	0.600600	0.333900	0.001800
H71	H7	0.581400	0.432500	0.032200
O111	O11	0.212800	0.995300	0.330600
C101	C10	0.748000	0.491300	0.170700
O121	O12	0.413300	0.034700	0.389900
C111	C11	0.781000	0.546500	0.127000
H81	H8	0.749300	0.526400	0.063300
C121	C12	0.860700	0.632100	0.175400
H91	H9	0.882100	0.670200	0.144100
C131	C13	0.908900	0.662700	0.266900
C141	C14	0.879400	0.606300	0.311700
H101	H10	0.914500	0.625400	0.375000
C151	C15	0.796900	0.520400	0.262700
H111	H11	0.774600	0.482000	0.293500
C161	C16	0.996100	0.753900	0.316800
C171	C17	0.372200	0.283700	0.963300
H121	H12	0.290200	0.260800	0.966100
H131	H13	0.368500	0.320800	0.925400
C181	C18	0.369800	0.158900	0.836400
C191	C19	0.438100	0.105500	0.799900
H141	H14	0.511500	0.105000	0.837300
C201	C20	0.398700	0.053500	0.709300
H151	H15	0.446600	0.018700	0.683700
C211	C21	0.289500	0.051600	0.655200
C221	C22	0.219800	0.103200	0.692000
H161	H16	0.145300	0.102200	0.654700
C231	C23	0.259600	0.156800	0.783800
H171	H17	0.211600	0.191200	0.809700
C241	C24	0.248900	0.997000	0.556400
C251	C25	0.476400	0.282000	0.115200
H181	H18	0.517700	0.237500	0.089700
H191	H19	0.526500	0.320500	0.177700
C261	C26	0.356400	0.188300	0.169500
C271	C27	0.244000	0.144400	0.168500
H201	H20	0.174100	0.147600	0.129300
C281	C28	0.230900	0.096700	0.222500
H211	H21	0.152400	0.069200	0.222300
C291	C29	0.329700	0.087900	0.277300
C301	C30	0.442600	0.130900	0.277700
H221	H22	0.511800	0.125900	0.316000
C311	C31	0.458300	0.181000	0.224200
H231	H23	0.536700	0.209600	0.225200
C321	C32	0.317800	0.036000	0.337500
C331	C33	0.523100	0.714700	0.300700
H241	H24	0.589900	0.764600	0.340600
Co21	Co2	0.817310	0.105560	0.615860
O131	O13	0.516200	0.511900	0.842500
C341	C34	0.540900	0.660100	0.941700
O141	O14	0.525300	0.135200	0.589500
C351	C35	0.596400	0.587600	0.898000
H251	H25	0.649700	0.575400	0.946000
H261	H26	0.646800	0.610600	0.864800
O151	O15	0.721000	0.189900	0.668800
C361	C36	0.550500	0.436100	0.805500
O161	O16	0.327700	0.594700	0.870400
C371	C37	0.457500	0.365300	0.749200
H271	H27	0.377500	0.369400	0.743000
O171	O17	0.982100	0.194000	0.724100
O181	O18	0.951400	0.222000	0.600200
C381	C38	0.592900	0.278500	0.707700
O191	O19	0.581400	0.789700	0.073480
C391	C39	0.686800	0.351000	0.766100
H281	H28	0.767100	0.347800	0.771900
O201	O20	0.679500	0.042340	0.477970
C401	C40	0.666500	0.430500	0.817800
H291	H29	0.732200	0.479500	0.860600
O211	O21	0.855200	0.012100	0.492400
C411	C41	0.615400	0.194500	0.651600
O221	O22	0.639200	0.763300	0.885100
C421	C42	0.416900	0.620400	0.950300
H301	H30	0.399400	0.666100	0.998200
H311	H31	0.418600	0.567500	0.967800
O231	O23	0.787200	0.004700	0.669400
C431	C43	0.252000	0.508700	0.829300
O241	O24	0.586700	0.965300	0.610100
C441	C44	0.219000	0.453500	0.873000
H321	H32	0.250700	0.473600	0.936700
C451	C45	0.139300	0.367900	0.824600
H331	H33	0.117900	0.329800	0.855900
C461	C46	0.091100	0.337300	0.733100
C471	C47	0.120600	0.393700	0.688300
H341	H34	0.085500	0.374600	0.625000
C481	C48	0.203100	0.479600	0.737300
H351	H35	0.225400	0.518000	0.706500
C491	C49	0.003900	0.246100	0.683200
C501	C50	0.627800	0.716300	0.036700
H361	H36	0.709800	0.739200	0.033900
H371	H37	0.631500	0.679200	0.074600
C511	C51	0.630200	0.841100	0.163600
C521	C52	0.561900	0.894500	0.200100
H381	H38	0.488500	0.895000	0.162700
C531	C53	0.601300	0.946500	0.290700
H391	H39	0.553400	0.981300	0.316300
C541	C54	0.710500	0.948400	0.344800
C551	C55	0.780200	0.896800	0.308000
H401	H40	0.854700	0.897800	0.345300
C561	C56	0.740400	0.843200	0.216200
H411	H41	0.788400	0.808800	0.190300
C571	C57	0.751100	0.003000	0.443600
C581	C58	0.523600	0.718000	0.884800
H421	H42	0.482300	0.762500	0.910300
H431	H43	0.473500	0.679500	0.822300
C591	C59	0.643600	0.811700	0.830500
C601	C60	0.756000	0.855600	0.831500
H441	H44	0.825900	0.852400	0.870700
C611	C61	0.769100	0.903300	0.777500
H451	H45	0.847600	0.930800	0.777700
C621	C62	0.670300	0.912100	0.722700
C631	C63	0.557400	0.869100	0.722300
H461	H46	0.488200	0.874100	0.684000
C641	C64	0.541700	0.819000	0.775800
H471	H47	0.463300	0.790400	0.774800
C651	C65	0.682200	0.964000	0.662500
C661	C66	0.476900	0.285300	0.699300
H481	H48	0.410100	0.235400	0.659400
Co31	Co3	0.500000	0.000000	0.500000
