data_OXALOP_clean_PM
_symmetry_space_group_name_H-M	'P1'
_cell_length_a	10.676200
_cell_length_b	28.242000
_cell_length_c	34.079000
_cell_angle_alpha	90.000000
_cell_angle_beta	90.000000
_cell_angle_gamma	90.000000
_symmetry_Int_Tables_number 1

loop_
_symmetry_equiv_pos_as_xyz
'x,y,z'

loop_
_atom_site_label
_atom_site_type_symbol
_atom_site_fract_x
_atom_site_fract_y
_atom_site_fract_z
O11	O1	0.656400	0.357410	0.056660
C11	C1	0.528600	0.358500	0.998920
O21	O2	0.856100	0.240890	0.204450
C21	C2	0.586600	0.327680	0.030810
H11	H1	0.520100	0.311000	0.045500
H21	H2	0.642500	0.303700	0.018800
O31	O3	0.966100	0.307890	0.209350
C31	C3	0.624900	0.389270	0.977890
H31	H3	0.583500	0.408200	0.957200
H41	H4	0.664500	0.411300	0.996800
O41	O4	0.717900	0.359300	0.960820
C41	C4	0.467300	0.324150	0.969870
H51	H5	0.532000	0.303800	0.957600
H61	H6	0.406800	0.303500	0.983700
O51	O5	0.964200	0.368470	0.793820
C51	C5	0.436100	0.393320	0.017040
H71	H7	0.480200	0.414300	0.035800
H81	H8	0.398700	0.413300	0.996300
O61	O6	0.895000	0.442030	0.797400
C61	C6	0.707800	0.336580	0.089590
O71	O7	0.404100	0.351210	0.940380
C71	C7	0.690400	0.289780	0.100370
H91	H9	0.640300	0.269400	0.084700
O81	O8	0.109200	0.287700	0.789520
C81	C8	0.746600	0.273190	0.134140
H101	H10	0.732600	0.241300	0.142000
O91	O9	0.223200	0.222830	0.796290
C91	C9	0.822700	0.301780	0.156830
O101	O10	0.340000	0.367590	0.036910
C101	C10	0.840500	0.348450	0.145640
H111	H11	0.893500	0.368300	0.160900
O111	O11	0.200800	0.458260	0.201720
C111	C11	0.782500	0.366630	0.112720
H121	H12	0.792900	0.399000	0.105800
O121	O12	0.116700	0.386870	0.206770
C121	C12	0.886000	0.281530	0.192950
C131	C13	0.769300	0.373290	0.925970
C141	C14	0.827700	0.337520	0.904980
H131	H13	0.833000	0.306400	0.915500
C151	C15	0.878600	0.347730	0.868260
H141	H14	0.919800	0.323500	0.853900
O131	O13	0.611100	0.489200	0.729500
C161	C16	0.869800	0.392430	0.852610
O141	O14	0.662700	0.445300	0.774200
C171	C17	0.817700	0.428270	0.874780
H151	H15	0.816100	0.459600	0.864700
C181	C18	0.767400	0.419310	0.911760
H161	H16	0.732400	0.444200	0.926900
C191	C19	0.911400	0.401730	0.811250
C201	C20	0.356700	0.327350	0.908790
C211	C21	0.376600	0.279770	0.900940
H171	H17	0.425200	0.261000	0.918400
C221	C22	0.324900	0.259780	0.867370
H181	H18	0.341400	0.227500	0.861600
C231	C23	0.250500	0.285540	0.842270
C241	C24	0.228100	0.333120	0.851210
H191	H19	0.175100	0.351300	0.834600
C251	C25	0.281600	0.354010	0.883530
H201	H20	0.267500	0.386600	0.888700
C261	C26	0.190300	0.263380	0.806970
C271	C27	0.301600	0.383380	0.072750
C281	C28	0.226800	0.351870	0.093240
H211	H21	0.204600	0.322400	0.081700
C291	C29	0.184300	0.362950	0.130340
H221	H22	0.132500	0.341300	0.144100
C301	C30	0.217300	0.405880	0.147630
C311	C31	0.289500	0.437680	0.126470
H231	H23	0.310500	0.467400	0.137800
C321	C32	0.331900	0.426900	0.088800
H241	H24	0.380700	0.449000	0.074400
C331	C33	0.174600	0.417790	0.188410
O151	O15	0.343600	0.642590	0.556660
C341	C34	0.471400	0.641500	0.498920
O161	O16	0.143900	0.759110	0.704450
C351	C35	0.413400	0.672320	0.530810
H251	H25	0.479900	0.689000	0.545500
H261	H26	0.357500	0.696300	0.518800
O171	O17	0.033900	0.692110	0.709350
C361	C36	0.375100	0.610730	0.477890
H271	H27	0.416500	0.591800	0.457200
H281	H28	0.335500	0.588700	0.496800
O181	O18	0.282100	0.640700	0.460820
C371	C37	0.532700	0.675850	0.469870
H291	H29	0.468000	0.696200	0.457600
H301	H30	0.593200	0.696500	0.483700
O191	O19	0.035800	0.631530	0.293820
C381	C38	0.563900	0.606680	0.517040
H311	H31	0.519800	0.585700	0.535800
H321	H32	0.601300	0.586700	0.496300
O201	O20	0.105000	0.557970	0.297400
C391	C39	0.292200	0.663420	0.589590
O211	O21	0.595900	0.648790	0.440380
C401	C40	0.309600	0.710220	0.600370
H331	H33	0.359700	0.730600	0.584700
O221	O22	0.890800	0.712300	0.289520
C411	C41	0.253400	0.726810	0.634140
H341	H34	0.267400	0.758700	0.642000
O231	O23	0.776800	0.777170	0.296290
C421	C42	0.177300	0.698220	0.656830
O241	O24	0.660000	0.632410	0.536910
C431	C43	0.159500	0.651550	0.645640
H351	H35	0.106500	0.631700	0.660900
O251	O25	0.799200	0.541740	0.701720
C441	C44	0.217500	0.633370	0.612720
H361	H36	0.207100	0.601000	0.605800
O261	O26	0.883300	0.613130	0.706770
C451	C45	0.114000	0.718470	0.692950
C461	C46	0.230700	0.626710	0.425970
C471	C47	0.172300	0.662480	0.404980
H371	H37	0.167000	0.693600	0.415500
C481	C48	0.121400	0.652270	0.368260
H381	H38	0.080200	0.676500	0.353900
O271	O27	0.388900	0.510800	0.229500
C491	C49	0.130200	0.607570	0.352610
O281	O28	0.337300	0.554700	0.274200
C501	C50	0.182300	0.571730	0.374780
H391	H39	0.183900	0.540400	0.364700
C511	C51	0.232600	0.580690	0.411760
H401	H40	0.267600	0.555800	0.426900
C521	C52	0.088600	0.598270	0.311250
C531	C53	0.643300	0.672650	0.408790
C541	C54	0.623400	0.720230	0.400940
H411	H41	0.574800	0.739000	0.418400
C551	C55	0.675100	0.740220	0.367370
H421	H42	0.658600	0.772500	0.361600
C561	C56	0.749500	0.714460	0.342270
C571	C57	0.771900	0.666880	0.351210
H431	H43	0.824900	0.648700	0.334600
C581	C58	0.718400	0.645990	0.383530
H441	H44	0.732500	0.613400	0.388700
C591	C59	0.809700	0.736620	0.306970
C601	C60	0.698400	0.616620	0.572750
C611	C61	0.773200	0.648130	0.593240
H451	H45	0.795400	0.677600	0.581700
C621	C62	0.815700	0.637050	0.630340
H461	H46	0.867500	0.658700	0.644100
C631	C63	0.782700	0.594120	0.647630
C641	C64	0.710500	0.562320	0.626470
H471	H47	0.689500	0.532600	0.637800
C651	C65	0.668100	0.573100	0.588800
H481	H48	0.619300	0.551000	0.574400
C661	C66	0.825400	0.582210	0.688410
O291	O29	0.343600	0.857410	0.443340
C671	C67	0.471400	0.858500	0.501080
O301	O30	0.143900	0.740890	0.295550
C681	C68	0.413400	0.827680	0.469190
H491	H49	0.479900	0.811000	0.454500
H501	H50	0.357500	0.803700	0.481200
O311	O31	0.033900	0.807890	0.290650
C691	C69	0.375100	0.889270	0.522110
H511	H51	0.416500	0.908200	0.542800
H521	H52	0.335500	0.911300	0.503200
O321	O32	0.282100	0.859300	0.539180
C701	C70	0.532700	0.824150	0.530130
H531	H53	0.468000	0.803800	0.542400
H541	H54	0.593200	0.803500	0.516300
O331	O33	0.035800	0.868470	0.706180
C711	C71	0.563900	0.893320	0.482960
H551	H55	0.519800	0.914300	0.464200
H561	H56	0.601300	0.913300	0.503700
O341	O34	0.105000	0.942030	0.702600
C721	C72	0.292200	0.836580	0.410410
O351	O35	0.595900	0.851210	0.559620
C731	C73	0.309600	0.789780	0.399630
H571	H57	0.359700	0.769400	0.415300
O361	O36	0.890800	0.787700	0.710480
C741	C74	0.253400	0.773190	0.365860
H581	H58	0.267400	0.741300	0.358000
O371	O37	0.776800	0.722830	0.703710
C751	C75	0.177300	0.801780	0.343170
O381	O38	0.660000	0.867590	0.463090
C761	C76	0.159500	0.848450	0.354360
H591	H59	0.106500	0.868300	0.339100
O391	O39	0.799200	0.958260	0.298280
C771	C77	0.217500	0.866630	0.387280
H601	H60	0.207100	0.899000	0.394200
O401	O40	0.883300	0.886870	0.293230
C781	C78	0.114000	0.781530	0.307050
C791	C79	0.230700	0.873290	0.574030
C801	C80	0.172300	0.837520	0.595020
H611	H61	0.167000	0.806400	0.584500
C811	C81	0.121400	0.847730	0.631740
H621	H62	0.080200	0.823500	0.646100
O411	O41	0.388900	0.989200	0.770500
C821	C82	0.130200	0.892430	0.647390
O421	O42	0.337300	0.945300	0.725800
C831	C83	0.182300	0.928270	0.625220
H631	H63	0.183900	0.959600	0.635300
C841	C84	0.232600	0.919310	0.588240
H641	H64	0.267600	0.944200	0.573100
C851	C85	0.088600	0.901730	0.688750
C861	C86	0.643300	0.827350	0.591210
C871	C87	0.623400	0.779770	0.599060
H651	H65	0.574800	0.761000	0.581600
C881	C88	0.675100	0.759780	0.632630
H661	H66	0.658600	0.727500	0.638400
C891	C89	0.749500	0.785540	0.657730
C901	C90	0.771900	0.833120	0.648790
H671	H67	0.824900	0.851300	0.665400
C911	C91	0.718400	0.854010	0.616470
H681	H68	0.732500	0.886600	0.611300
C921	C92	0.809700	0.763380	0.693030
C931	C93	0.698400	0.883380	0.427250
C941	C94	0.773200	0.851870	0.406760
H691	H69	0.795400	0.822400	0.418300
C951	C95	0.815700	0.862950	0.369660
H701	H70	0.867500	0.841300	0.355900
C961	C96	0.782700	0.905880	0.352370
C971	C97	0.710500	0.937680	0.373530
H711	H71	0.689500	0.967400	0.362200
C981	C98	0.668100	0.926900	0.411200
H721	H72	0.619300	0.949000	0.425600
C991	C99	0.825400	0.917790	0.311590
O431	O43	0.656400	0.142590	0.943340
C1001	C100	0.528600	0.141500	0.001080
O441	O44	0.856100	0.259110	0.795550
C1011	C101	0.586600	0.172320	0.969190
H731	H73	0.520100	0.189000	0.954500
H741	H74	0.642500	0.196300	0.981200
O451	O45	0.966100	0.192110	0.790650
C1021	C102	0.624900	0.110730	0.022110
H751	H75	0.583500	0.091800	0.042800
H761	H76	0.664500	0.088700	0.003200
O461	O46	0.717900	0.140700	0.039180
C1031	C103	0.467300	0.175850	0.030130
H771	H77	0.532000	0.196200	0.042400
H781	H78	0.406800	0.196500	0.016300
O471	O47	0.964200	0.131530	0.206180
C1041	C104	0.436100	0.106680	0.982960
H791	H79	0.480200	0.085700	0.964200
H801	H80	0.398700	0.086700	0.003700
O481	O48	0.895000	0.057970	0.202600
C1051	C105	0.707800	0.163420	0.910410
O491	O49	0.404100	0.148790	0.059620
C1061	C106	0.690400	0.210220	0.899630
H811	H81	0.640300	0.230600	0.915300
O501	O50	0.109200	0.212300	0.210480
C1071	C107	0.746600	0.226810	0.865860
H821	H82	0.732600	0.258700	0.858000
O511	O51	0.223200	0.277170	0.203710
C1081	C108	0.822700	0.198220	0.843170
O521	O52	0.340000	0.132410	0.963090
C1091	C109	0.840500	0.151550	0.854360
H831	H83	0.893500	0.131700	0.839100
O531	O53	0.200800	0.041740	0.798280
C1101	C110	0.782500	0.133370	0.887280
H841	H84	0.792900	0.101000	0.894200
O541	O54	0.116700	0.113130	0.793230
C1111	C111	0.886000	0.218470	0.807050
C1121	C112	0.769300	0.126710	0.074030
C1131	C113	0.827700	0.162480	0.095020
H851	H85	0.833000	0.193600	0.084500
C1141	C114	0.878600	0.152270	0.131740
H861	H86	0.919800	0.176500	0.146100
O551	O55	0.611100	0.010800	0.270500
C1151	C115	0.869800	0.107570	0.147390
O561	O56	0.662700	0.054700	0.225800
C1161	C116	0.817700	0.071730	0.125220
H871	H87	0.816100	0.040400	0.135300
C1171	C117	0.767400	0.080690	0.088240
H881	H88	0.732400	0.055800	0.073100
C1181	C118	0.911400	0.098270	0.188750
C1191	C119	0.356700	0.172650	0.091210
C1201	C120	0.376600	0.220230	0.099060
H891	H89	0.425200	0.239000	0.081600
C1211	C121	0.324900	0.240220	0.132630
H901	H90	0.341400	0.272500	0.138400
C1221	C122	0.250500	0.214460	0.157730
C1231	C123	0.228100	0.166880	0.148790
H911	H91	0.175100	0.148700	0.165400
C1241	C124	0.281600	0.145990	0.116470
H921	H92	0.267500	0.113400	0.111300
C1251	C125	0.190300	0.236620	0.193030
C1261	C126	0.301600	0.116620	0.927250
C1271	C127	0.226800	0.148130	0.906760
H931	H93	0.204600	0.177600	0.918300
C1281	C128	0.184300	0.137050	0.869660
H941	H94	0.132500	0.158700	0.855900
C1291	C129	0.217300	0.094120	0.852370
C1301	C130	0.289500	0.062320	0.873530
H951	H95	0.310500	0.032600	0.862200
C1311	C131	0.331900	0.073100	0.911200
H961	H96	0.380700	0.051000	0.925600
C1321	C132	0.174600	0.082210	0.811590
O571	O57	0.343600	0.642590	0.943340
C1331	C133	0.471400	0.641500	0.001080
O581	O58	0.143900	0.759110	0.795550
C1341	C134	0.413400	0.672320	0.969190
H971	H97	0.479900	0.689000	0.954500
H981	H98	0.357500	0.696300	0.981200
O591	O59	0.033900	0.692110	0.790650
C1351	C135	0.375100	0.610730	0.022110
H991	H99	0.416500	0.591800	0.042800
H1001	H100	0.335500	0.588700	0.003200
O601	O60	0.282100	0.640700	0.039180
C1361	C136	0.532700	0.675850	0.030130
H1011	H101	0.468000	0.696200	0.042400
H1021	H102	0.593200	0.696500	0.016300
O611	O61	0.035800	0.631530	0.206180
C1371	C137	0.563900	0.606680	0.982960
H1031	H103	0.519800	0.585700	0.964200
H1041	H104	0.601300	0.586700	0.003700
O621	O62	0.105000	0.557970	0.202600
C1381	C138	0.292200	0.663420	0.910410
O631	O63	0.595900	0.648790	0.059620
C1391	C139	0.309600	0.710220	0.899630
H1051	H105	0.359700	0.730600	0.915300
O641	O64	0.890800	0.712300	0.210480
C1401	C140	0.253400	0.726810	0.865860
H1061	H106	0.267400	0.758700	0.858000
O651	O65	0.776800	0.777170	0.203710
C1411	C141	0.177300	0.698220	0.843170
O661	O66	0.660000	0.632410	0.963090
C1421	C142	0.159500	0.651550	0.854360
H1071	H107	0.106500	0.631700	0.839100
O671	O67	0.799200	0.541740	0.798280
C1431	C143	0.217500	0.633370	0.887280
H1081	H108	0.207100	0.601000	0.894200
O681	O68	0.883300	0.613130	0.793230
C1441	C144	0.114000	0.718470	0.807050
C1451	C145	0.230700	0.626710	0.074030
C1461	C146	0.172300	0.662480	0.095020
H1091	H109	0.167000	0.693600	0.084500
C1471	C147	0.121400	0.652270	0.131740
H1101	H110	0.080200	0.676500	0.146100
O691	O69	0.388900	0.510800	0.270500
C1481	C148	0.130200	0.607570	0.147390
O701	O70	0.337300	0.554700	0.225800
C1491	C149	0.182300	0.571730	0.125220
H1111	H111	0.183900	0.540400	0.135300
C1501	C150	0.232600	0.580690	0.088240
H1121	H112	0.267600	0.555800	0.073100
C1511	C151	0.088600	0.598270	0.188750
C1521	C152	0.643300	0.672650	0.091210
C1531	C153	0.623400	0.720230	0.099060
H1131	H113	0.574800	0.739000	0.081600
C1541	C154	0.675100	0.740220	0.132630
H1141	H114	0.658600	0.772500	0.138400
C1551	C155	0.749500	0.714460	0.157730
C1561	C156	0.771900	0.666880	0.148790
H1151	H115	0.824900	0.648700	0.165400
C1571	C157	0.718400	0.645990	0.116470
H1161	H116	0.732500	0.613400	0.111300
C1581	C158	0.809700	0.736620	0.193030
C1591	C159	0.698400	0.616620	0.927250
C1601	C160	0.773200	0.648130	0.906760
H1171	H117	0.795400	0.677600	0.918300
C1611	C161	0.815700	0.637050	0.869660
H1181	H118	0.867500	0.658700	0.855900
C1621	C162	0.782700	0.594120	0.852370
C1631	C163	0.710500	0.562320	0.873530
H1191	H119	0.689500	0.532600	0.862200
C1641	C164	0.668100	0.573100	0.911200
H1201	H120	0.619300	0.551000	0.925600
C1651	C165	0.825400	0.582210	0.811590
O711	O71	0.656400	0.357410	0.443340
C1661	C166	0.528600	0.358500	0.501080
O721	O72	0.856100	0.240890	0.295550
C1671	C167	0.586600	0.327680	0.469190
H1211	H121	0.520100	0.311000	0.454500
H1221	H122	0.642500	0.303700	0.481200
O731	O73	0.966100	0.307890	0.290650
C1681	C168	0.624900	0.389270	0.522110
H1231	H123	0.583500	0.408200	0.542800
H1241	H124	0.664500	0.411300	0.503200
O741	O74	0.717900	0.359300	0.539180
C1691	C169	0.467300	0.324150	0.530130
H1251	H125	0.532000	0.303800	0.542400
H1261	H126	0.406800	0.303500	0.516300
O751	O75	0.964200	0.368470	0.706180
C1701	C170	0.436100	0.393320	0.482960
H1271	H127	0.480200	0.414300	0.464200
H1281	H128	0.398700	0.413300	0.503700
O761	O76	0.895000	0.442030	0.702600
C1711	C171	0.707800	0.336580	0.410410
O771	O77	0.404100	0.351210	0.559620
C1721	C172	0.690400	0.289780	0.399630
H1291	H129	0.640300	0.269400	0.415300
O781	O78	0.109200	0.287700	0.710480
C1731	C173	0.746600	0.273190	0.365860
H1301	H130	0.732600	0.241300	0.358000
O791	O79	0.223200	0.222830	0.703710
C1741	C174	0.822700	0.301780	0.343170
O801	O80	0.340000	0.367590	0.463090
C1751	C175	0.840500	0.348450	0.354360
H1311	H131	0.893500	0.368300	0.339100
O811	O81	0.200800	0.458260	0.298280
C1761	C176	0.782500	0.366630	0.387280
H1321	H132	0.792900	0.399000	0.394200
O821	O82	0.116700	0.386870	0.293230
C1771	C177	0.886000	0.281530	0.307050
C1781	C178	0.769300	0.373290	0.574030
C1791	C179	0.827700	0.337520	0.595020
H1331	H133	0.833000	0.306400	0.584500
C1801	C180	0.878600	0.347730	0.631740
H1341	H134	0.919800	0.323500	0.646100
O831	O83	0.611100	0.489200	0.770500
C1811	C181	0.869800	0.392430	0.647390
O841	O84	0.662700	0.445300	0.725800
C1821	C182	0.817700	0.428270	0.625220
H1351	H135	0.816100	0.459600	0.635300
C1831	C183	0.767400	0.419310	0.588240
H1361	H136	0.732400	0.444200	0.573100
C1841	C184	0.911400	0.401730	0.688750
C1851	C185	0.356700	0.327350	0.591210
C1861	C186	0.376600	0.279770	0.599060
H1371	H137	0.425200	0.261000	0.581600
C1871	C187	0.324900	0.259780	0.632630
H1381	H138	0.341400	0.227500	0.638400
C1881	C188	0.250500	0.285540	0.657730
C1891	C189	0.228100	0.333120	0.648790
H1391	H139	0.175100	0.351300	0.665400
C1901	C190	0.281600	0.354010	0.616470
H1401	H140	0.267500	0.386600	0.611300
C1911	C191	0.190300	0.263380	0.693030
C1921	C192	0.301600	0.383380	0.427250
C1931	C193	0.226800	0.351870	0.406760
H1411	H141	0.204600	0.322400	0.418300
C1941	C194	0.184300	0.362950	0.369660
H1421	H142	0.132500	0.341300	0.355900
C1951	C195	0.217300	0.405880	0.352370
C1961	C196	0.289500	0.437680	0.373530
H1431	H143	0.310500	0.467400	0.362200
C1971	C197	0.331900	0.426900	0.411200
H1441	H144	0.380700	0.449000	0.425600
C1981	C198	0.174600	0.417790	0.311590
O851	O85	0.656400	0.142590	0.556660
C1991	C199	0.528600	0.141500	0.498920
O861	O86	0.856100	0.259110	0.704450
C2001	C200	0.586600	0.172320	0.530810
H1451	H145	0.520100	0.189000	0.545500
H1461	H146	0.642500	0.196300	0.518800
O871	O87	0.966100	0.192110	0.709350
C2011	C201	0.624900	0.110730	0.477890
H1471	H147	0.583500	0.091800	0.457200
H1481	H148	0.664500	0.088700	0.496800
O881	O88	0.717900	0.140700	0.460820
C2021	C202	0.467300	0.175850	0.469870
H1491	H149	0.532000	0.196200	0.457600
H1501	H150	0.406800	0.196500	0.483700
O891	O89	0.964200	0.131530	0.293820
C2031	C203	0.436100	0.106680	0.517040
H1511	H151	0.480200	0.085700	0.535800
H1521	H152	0.398700	0.086700	0.496300
O901	O90	0.895000	0.057970	0.297400
C2041	C204	0.707800	0.163420	0.589590
O911	O91	0.404100	0.148790	0.440380
C2051	C205	0.690400	0.210220	0.600370
H1531	H153	0.640300	0.230600	0.584700
O921	O92	0.109200	0.212300	0.289520
C2061	C206	0.746600	0.226810	0.634140
H1541	H154	0.732600	0.258700	0.642000
O931	O93	0.223200	0.277170	0.296290
C2071	C207	0.822700	0.198220	0.656830
O941	O94	0.340000	0.132410	0.536910
C2081	C208	0.840500	0.151550	0.645640
H1551	H155	0.893500	0.131700	0.660900
O951	O95	0.200800	0.041740	0.701720
C2091	C209	0.782500	0.133370	0.612720
H1561	H156	0.792900	0.101000	0.605800
O961	O96	0.116700	0.113130	0.706770
C2101	C210	0.886000	0.218470	0.692950
C2111	C211	0.769300	0.126710	0.425970
C2121	C212	0.827700	0.162480	0.404980
H1571	H157	0.833000	0.193600	0.415500
C2131	C213	0.878600	0.152270	0.368260
H1581	H158	0.919800	0.176500	0.353900
O971	O97	0.611100	0.010800	0.229500
C2141	C214	0.869800	0.107570	0.352610
O981	O98	0.662700	0.054700	0.274200
C2151	C215	0.817700	0.071730	0.374780
H1591	H159	0.816100	0.040400	0.364700
C2161	C216	0.767400	0.080690	0.411760
H1601	H160	0.732400	0.055800	0.426900
C2171	C217	0.911400	0.098270	0.311250
C2181	C218	0.356700	0.172650	0.408790
C2191	C219	0.376600	0.220230	0.400940
H1611	H161	0.425200	0.239000	0.418400
C2201	C220	0.324900	0.240220	0.367370
H1621	H162	0.341400	0.272500	0.361600
C2211	C221	0.250500	0.214460	0.342270
C2221	C222	0.228100	0.166880	0.351210
H1631	H163	0.175100	0.148700	0.334600
C2231	C223	0.281600	0.145990	0.383530
H1641	H164	0.267500	0.113400	0.388700
C2241	C224	0.190300	0.236620	0.306970
C2251	C225	0.301600	0.116620	0.572750
C2261	C226	0.226800	0.148130	0.593240
H1651	H165	0.204600	0.177600	0.581700
C2271	C227	0.184300	0.137050	0.630340
H1661	H166	0.132500	0.158700	0.644100
C2281	C228	0.217300	0.094120	0.647630
C2291	C229	0.289500	0.062320	0.626470
H1671	H167	0.310500	0.032600	0.637800
C2301	C230	0.331900	0.073100	0.588800
H1681	H168	0.380700	0.051000	0.574400
C2311	C231	0.174600	0.082210	0.688410
O991	O99	0.343600	0.857410	0.056660
C2321	C232	0.471400	0.858500	0.998920
O1001	O100	0.143900	0.740890	0.204450
C2331	C233	0.413400	0.827680	0.030810
H1691	H169	0.479900	0.811000	0.045500
H1701	H170	0.357500	0.803700	0.018800
O1011	O101	0.033900	0.807890	0.209350
C2341	C234	0.375100	0.889270	0.977890
H1711	H171	0.416500	0.908200	0.957200
H1721	H172	0.335500	0.911300	0.996800
O1021	O102	0.282100	0.859300	0.960820
C2351	C235	0.532700	0.824150	0.969870
H1731	H173	0.468000	0.803800	0.957600
H1741	H174	0.593200	0.803500	0.983700
O1031	O103	0.035800	0.868470	0.793820
C2361	C236	0.563900	0.893320	0.017040
H1751	H175	0.519800	0.914300	0.035800
H1761	H176	0.601300	0.913300	0.996300
O1041	O104	0.105000	0.942030	0.797400
C2371	C237	0.292200	0.836580	0.089590
O1051	O105	0.595900	0.851210	0.940380
C2381	C238	0.309600	0.789780	0.100370
H1771	H177	0.359700	0.769400	0.084700
O1061	O106	0.890800	0.787700	0.789520
C2391	C239	0.253400	0.773190	0.134140
H1781	H178	0.267400	0.741300	0.142000
O1071	O107	0.776800	0.722830	0.796290
C2401	C240	0.177300	0.801780	0.156830
O1081	O108	0.660000	0.867590	0.036910
C2411	C241	0.159500	0.848450	0.145640
H1791	H179	0.106500	0.868300	0.160900
O1091	O109	0.799200	0.958260	0.201720
C2421	C242	0.217500	0.866630	0.112720
H1801	H180	0.207100	0.899000	0.105800
O1101	O110	0.883300	0.886870	0.206770
C2431	C243	0.114000	0.781530	0.192950
C2441	C244	0.230700	0.873290	0.925970
C2451	C245	0.172300	0.837520	0.904980
H1811	H181	0.167000	0.806400	0.915500
C2461	C246	0.121400	0.847730	0.868260
H1821	H182	0.080200	0.823500	0.853900
O1111	O111	0.388900	0.989200	0.729500
C2471	C247	0.130200	0.892430	0.852610
O1121	O112	0.337300	0.945300	0.774200
C2481	C248	0.182300	0.928270	0.874780
H1831	H183	0.183900	0.959600	0.864700
C2491	C249	0.232600	0.919310	0.911760
H1841	H184	0.267600	0.944200	0.926900
C2501	C250	0.088600	0.901730	0.811250
C2511	C251	0.643300	0.827350	0.908790
C2521	C252	0.623400	0.779770	0.900940
H1851	H185	0.574800	0.761000	0.918400
C2531	C253	0.675100	0.759780	0.867370
H1861	H186	0.658600	0.727500	0.861600
C2541	C254	0.749500	0.785540	0.842270
C2551	C255	0.771900	0.833120	0.851210
H1871	H187	0.824900	0.851300	0.834600
C2561	C256	0.718400	0.854010	0.883530
H1881	H188	0.732500	0.886600	0.888700
C2571	C257	0.809700	0.763380	0.806970
C2581	C258	0.698400	0.883380	0.072750
C2591	C259	0.773200	0.851870	0.093240
H1891	H189	0.795400	0.822400	0.081700
C2601	C260	0.815700	0.862950	0.130340
H1901	H190	0.867500	0.841300	0.144100
C2611	C261	0.782700	0.905880	0.147630
C2621	C262	0.710500	0.937680	0.126470
H1911	H191	0.689500	0.967400	0.137800
C2631	C263	0.668100	0.926900	0.088800
H1921	H192	0.619300	0.949000	0.074400
C2641	C264	0.825400	0.917790	0.188410
Y11	Y1	0.948710	0.191610	0.250000
Y21	Y2	0.128300	0.326010	0.250000
Y31	Y3	0.051290	0.808390	0.750000
Y41	Y4	0.871700	0.673990	0.750000
Y51	Y5	0.051290	0.691610	0.250000
Y61	Y6	0.871700	0.826010	0.250000
Y71	Y7	0.948710	0.308390	0.750000
Y81	Y8	0.128300	0.173990	0.750000
Y91	Y9	0.832070	0.490180	0.750000
N11	N1	0.592600	0.459500	0.750000
O1131	O113	0.475300	0.447300	0.750000
Y101	Y10	0.167930	0.509820	0.250000
N21	N2	0.407400	0.540500	0.250000
O1141	O114	0.524700	0.552700	0.250000
Y111	Y11	0.167930	0.990180	0.750000
N31	N3	0.407400	0.959500	0.750000
O1151	O115	0.524700	0.947300	0.750000
Y121	Y12	0.832070	0.009820	0.250000
N41	N4	0.592600	0.040500	0.250000
O1161	O116	0.475300	0.052700	0.250000
