data_OXAMIK_clean_PM
_symmetry_space_group_name_H-M	'P1'
_cell_length_a	5.069600
_cell_length_b	9.608100
_cell_length_c	12.532800
_cell_angle_alpha	89.120000
_cell_angle_beta	85.508000
_cell_angle_gamma	76.862000
_symmetry_Int_Tables_number 1

loop_
_symmetry_equiv_pos_as_xyz
'x,y,z'

loop_
_atom_site_label
_atom_site_type_symbol
_atom_site_fract_x
_atom_site_fract_y
_atom_site_fract_z
Co11	Co1	0.833820	0.106330	0.596550
Co21	Co2	0.166180	0.893670	0.403450
Co31	Co3	0.500000	0.000000	0.000000
P11	P1	0.683800	0.786520	0.557230
P21	P2	0.377400	0.967450	0.746810
P31	P3	0.316200	0.213480	0.442770
P41	P4	0.622600	0.032550	0.253190
H11	H1	0.945800	0.624100	0.479600
H21	H2	0.925900	0.849600	0.733000
H31	H3	0.481000	0.434100	0.624600
H41	H4	0.158800	0.279700	0.757500
H51	H5	0.981700	0.522300	0.826900
H61	H6	0.320100	0.671900	0.710900
H71	H7	0.435700	0.684400	0.821600
H81	H8	0.054200	0.375900	0.520400
H91	H9	0.074100	0.150400	0.267000
H101	H10	0.519000	0.565900	0.375400
H111	H11	0.841200	0.720300	0.242500
H121	H12	0.018300	0.477700	0.173100
H131	H13	0.679900	0.328100	0.289100
H141	H14	0.564300	0.315600	0.178400
C11	C1	0.629100	0.425200	0.665600
C21	C2	0.999700	0.341400	0.738900
C31	C3	0.903800	0.475400	0.777800
C41	C4	0.485200	0.669900	0.745600
C51	C5	0.605800	0.794300	0.702800
C61	C6	0.370900	0.574800	0.334400
C71	C7	0.000300	0.658600	0.261100
C81	C8	0.096200	0.524600	0.222200
C91	C9	0.514800	0.330100	0.254400
C101	C10	0.394200	0.205700	0.297200
N11	N1	0.667100	0.527800	0.729500
N21	N2	0.828500	0.309300	0.667800
N31	N3	0.332900	0.472200	0.270500
N41	N4	0.171500	0.690700	0.332200
O11	O1	0.827700	0.903300	0.523600
O21	O2	0.431400	0.780100	0.505900
O31	O3	0.896700	0.638100	0.543200
O41	O4	0.538100	0.078900	0.716700
O51	O5	0.114300	0.984900	0.693700
O61	O6	0.324200	0.956200	0.867500
O71	O7	0.853800	0.785300	0.754900
O81	O8	0.172300	0.096700	0.476400
O91	O9	0.568600	0.219900	0.494100
O101	O10	0.103300	0.361900	0.456800
O111	O11	0.461900	0.921100	0.283300
O121	O12	0.885700	0.015100	0.306300
O131	O13	0.675800	0.043800	0.132500
O141	O14	0.146200	0.214700	0.245100
