data_OXUNEB_clean_PM
_symmetry_space_group_name_H-M	'P1'
_cell_length_a	12.001400
_cell_length_b	14.686000
_cell_length_c	21.176000
_cell_angle_alpha	81.093000
_cell_angle_beta	83.080000
_cell_angle_gamma	76.571000
_symmetry_Int_Tables_number 1

loop_
_symmetry_equiv_pos_as_xyz
'x,y,z'

loop_
_atom_site_label
_atom_site_type_symbol
_atom_site_fract_x
_atom_site_fract_y
_atom_site_fract_z
Cd11	Cd1	0.009860	0.379020	0.128320
Mo11	Mo1	0.051470	0.019090	0.171630
Mo21	Mo2	0.805250	0.851040	0.951420
Mo31	Mo3	0.919290	0.755030	0.045530
Mo41	Mo4	0.208480	0.764080	0.055610
Mo51	Mo5	0.312810	0.861590	0.963600
Mo61	Mo6	0.836560	0.011240	0.168850
Mo71	Mo7	0.802250	0.479740	0.411870
Mo81	Mo8	0.567700	0.521110	0.317190
Mo91	Mo9	0.382690	0.647710	0.343430
Mo101	Mo10	0.365030	0.770690	0.473670
Mo111	Mo11	0.539040	0.738570	0.542290
Mo121	Mo12	0.789990	0.568630	0.510330
Mg11	Mg1	0.261700	0.076300	0.340200
Cl11	Cl1	0.834000	0.904900	0.210800
Cl21	Cl2	0.102500	0.914200	0.213400
N11	N1	0.414800	0.038000	0.378600
H11	H1	0.409300	0.984700	0.405000
H21	H2	0.409600	0.082000	0.404700
N21	N2	0.711400	0.925200	0.398300
H31	H3	0.764700	0.947100	0.371300
H41	H4	0.739400	0.902700	0.436100
H51	H5	0.691400	0.879100	0.382500
O11	O1	0.022100	0.154600	0.107900
O21	O2	0.912200	0.249900	0.018100
O31	O3	0.814600	0.152400	0.104500
O41	O4	0.870100	0.297200	0.130500
O51	O5	0.132900	0.094500	0.220400
O61	O6	0.245600	0.177300	0.130600
O71	O7	0.101500	0.273400	0.203400
O81	O8	0.282600	0.172300	0.244600
O91	O9	0.002700	0.617300	0.066800
O101	O10	0.206500	0.622100	0.079400
O111	O11	0.138900	0.471000	0.108400
O121	O12	0.067300	0.602500	0.178200
O131	O13	0.422600	0.827900	0.885900
O141	O14	0.314600	0.918000	0.790700
O151	O15	0.454500	0.762900	0.781000
O161	O16	0.522500	0.910300	0.791600
H61	H6	0.586200	0.875200	0.780000
O171	O17	0.195900	0.016000	0.102300
H71	H7	0.195600	0.976300	0.077100
O181	O18	0.871200	0.715800	0.970300
O191	O19	0.038700	0.786800	0.098600
H81	H8	0.017300	0.844400	0.104600
O201	O20	0.328200	0.726700	0.988900
O211	O21	0.262700	0.994500	0.905500
H91	H9	0.224300	0.034600	0.929200
O221	O22	0.911300	0.074600	0.220200
O231	O23	0.890700	0.889900	0.011800
O241	O24	0.168900	0.897400	0.017100
O251	O25	0.971900	0.980900	0.106900
O261	O26	0.670000	0.600900	0.364300
O271	O27	0.492000	0.719100	0.390600
O281	O28	0.658000	0.690400	0.457800
O291	O29	0.673000	0.774800	0.344700
O301	O30	0.876300	0.496300	0.318300
O311	O31	0.708400	0.517200	0.251400
O321	O32	0.907000	0.435700	0.214000
O331	O33	0.854600	0.611600	0.217300
H101	H10	0.925100	0.608500	0.204400
O341	O34	0.320700	0.786000	0.306000
O351	O35	0.314400	0.875200	0.400300
O361	O36	0.279200	0.960400	0.294200
O371	O37	0.130300	0.872300	0.354900
H111	H11	0.105800	0.906300	0.384900
O381	O38	0.668400	0.808800	0.547200
O391	O39	0.846700	0.681600	0.526400
O401	O40	0.851300	0.850100	0.494700
O411	O41	0.163500	0.213900	0.388400
O421	O42	0.464900	0.535200	0.395700
O431	O43	0.449500	0.653300	0.520200
O441	O44	0.683700	0.420300	0.372500
H121	H12	0.646000	0.392400	0.403000
O451	O45	0.503900	0.645300	0.273100
O461	O46	0.291200	0.686700	0.427900
H131	H13	0.285200	0.637000	0.453400
O471	O47	0.474800	0.845700	0.481700
O481	O48	0.654900	0.616300	0.578300
H141	H14	0.618500	0.572700	0.591100
O491	O49	0.875300	0.577800	0.427400
H151	H15	0.947800	0.561100	0.428200
O501	O50	0.688800	0.493800	0.486200
P11	P1	0.902240	0.216310	0.090880
P21	P2	0.188400	0.180990	0.199370
P31	P3	0.427560	0.852620	0.812400
P41	P4	0.104450	0.577000	0.110820
P51	P5	0.624950	0.699230	0.388130
P61	P6	0.837170	0.512340	0.250120
P71	P7	0.255330	0.870750	0.339850
P81	P8	0.802080	0.781970	0.545650
C11	C1	0.535500	0.020700	0.354400
H161	H16	0.551400	0.969100	0.328700
H171	H17	0.550000	0.076500	0.326500
C21	C2	0.616500	0.996900	0.406300
H181	H18	0.573700	0.980100	0.446600
H191	H19	0.642800	0.053300	0.410000
Cd21	Cd2	0.990140	0.620980	0.871680
Mo131	Mo13	0.948530	0.980910	0.828370
Mo141	Mo14	0.194750	0.148960	0.048580
Mo151	Mo15	0.080710	0.244970	0.954470
Mo161	Mo16	0.791520	0.235920	0.944390
Mo171	Mo17	0.687190	0.138410	0.036400
Mo181	Mo18	0.163440	0.988760	0.831150
Mo191	Mo19	0.197750	0.520260	0.588130
Mo201	Mo20	0.432300	0.478890	0.682810
Mo211	Mo21	0.617310	0.352290	0.656570
Mo221	Mo22	0.634970	0.229310	0.526330
Mo231	Mo23	0.460960	0.261430	0.457710
Mo241	Mo24	0.210010	0.431370	0.489670
Mg21	Mg2	0.738300	0.923700	0.659800
Cl31	Cl3	0.166000	0.095100	0.789200
Cl41	Cl4	0.897500	0.085800	0.786600
N31	N3	0.585200	0.962000	0.621400
H201	H20	0.590700	0.015300	0.595000
H211	H21	0.590400	0.918000	0.595300
N41	N4	0.288600	0.074800	0.601700
H221	H22	0.235300	0.052900	0.628700
H231	H23	0.260600	0.097300	0.563900
H241	H24	0.308600	0.120900	0.617500
O511	O51	0.977900	0.845400	0.892100
O521	O52	0.087800	0.750100	0.981900
O531	O53	0.185400	0.847600	0.895500
O541	O54	0.129900	0.702800	0.869500
O551	O55	0.867100	0.905500	0.779600
O561	O56	0.754400	0.822700	0.869400
O571	O57	0.898500	0.726600	0.796600
O581	O58	0.717400	0.827700	0.755400
O591	O59	0.997300	0.382700	0.933200
O601	O60	0.793500	0.377900	0.920600
O611	O61	0.861100	0.529000	0.891600
O621	O62	0.932700	0.397500	0.821800
O631	O63	0.577400	0.172100	0.114100
O641	O64	0.685400	0.082000	0.209300
O651	O65	0.545500	0.237100	0.219000
O661	O66	0.477500	0.089700	0.208400
H251	H25	0.413800	0.124800	0.220000
O671	O67	0.804100	0.984000	0.897700
H261	H26	0.804400	0.023700	0.922900
O681	O68	0.128800	0.284200	0.029700
O691	O69	0.961300	0.213200	0.901400
H271	H27	0.982700	0.155600	0.895400
O701	O70	0.671800	0.273300	0.011100
O711	O71	0.737300	0.005500	0.094500
H281	H28	0.775700	0.965400	0.070800
O721	O72	0.088700	0.925400	0.779800
O731	O73	0.109300	0.110100	0.988200
O741	O74	0.831100	0.102600	0.982900
O751	O75	0.028100	0.019100	0.893100
O761	O76	0.330000	0.399100	0.635700
O771	O77	0.508000	0.280900	0.609400
O781	O78	0.342000	0.309600	0.542200
O791	O79	0.327000	0.225200	0.655300
O801	O80	0.123700	0.503700	0.681700
O811	O81	0.291600	0.482800	0.748600
O821	O82	0.093000	0.564300	0.786000
O831	O83	0.145400	0.388400	0.782700
H291	H29	0.074900	0.391500	0.795600
O841	O84	0.679300	0.214000	0.694000
O851	O85	0.685600	0.124800	0.599700
O861	O86	0.720800	0.039600	0.705800
O871	O87	0.869700	0.127700	0.645100
H301	H30	0.894200	0.093700	0.615100
O881	O88	0.331600	0.191200	0.452800
O891	O89	0.153300	0.318400	0.473600
O901	O90	0.148700	0.149900	0.505300
O911	O91	0.836500	0.786100	0.611600
O921	O92	0.535100	0.464800	0.604300
O931	O93	0.550500	0.346700	0.479800
O941	O94	0.316300	0.579700	0.627500
H311	H31	0.354000	0.607600	0.597000
O951	O95	0.496100	0.354700	0.726900
O961	O96	0.708800	0.313300	0.572100
H321	H32	0.714800	0.363000	0.546600
O971	O97	0.525200	0.154300	0.518300
O981	O98	0.345100	0.383700	0.421700
H331	H33	0.381500	0.427300	0.408900
O991	O99	0.124700	0.422200	0.572600
H341	H34	0.052200	0.438900	0.571800
O1001	O100	0.311200	0.506200	0.513800
P91	P9	0.097760	0.783690	0.909120
P101	P10	0.811600	0.819010	0.800630
P111	P11	0.572440	0.147380	0.187600
P121	P12	0.895550	0.423000	0.889180
P131	P13	0.375050	0.300770	0.611870
P141	P14	0.162830	0.487660	0.749880
P151	P15	0.744670	0.129250	0.660150
P161	P16	0.197920	0.218030	0.454350
C31	C3	0.464500	0.979300	0.645600
H351	H35	0.448600	0.030900	0.671300
H361	H36	0.450000	0.923500	0.673500
C41	C4	0.383500	0.003100	0.593700
H371	H37	0.426300	0.019900	0.553400
H381	H38	0.357200	0.946700	0.590000
Cd31	Cd3	0.000000	0.000000	0.000000
Cd41	Cd4	0.500000	0.500000	0.500000
