data_OXUPUT_clean_PM
_symmetry_space_group_name_H-M	'P1'
_cell_length_a	7.801000
_cell_length_b	20.353900
_cell_length_c	20.353900
_cell_angle_alpha	90.000000
_cell_angle_beta	90.000000
_cell_angle_gamma	90.000000
_symmetry_Int_Tables_number 1

loop_
_symmetry_equiv_pos_as_xyz
'x,y,z'

loop_
_atom_site_label
_atom_site_type_symbol
_atom_site_fract_x
_atom_site_fract_y
_atom_site_fract_z
U11	U1	0.791620	0.597420	0.750000
U21	U2	0.791620	0.902580	0.750000
U31	U3	0.291620	0.750000	0.597420
U41	U4	0.291620	0.750000	0.902580
U51	U5	0.208380	0.402580	0.250000
U61	U6	0.208380	0.097420	0.250000
U71	U7	0.708380	0.250000	0.097420
U81	U8	0.708380	0.250000	0.402580
P11	P1	0.431500	0.574390	0.864270
P21	P2	0.431500	0.925610	0.635730
P31	P3	0.931500	0.635730	0.574390
P41	P4	0.931500	0.864270	0.925610
P51	P5	0.568500	0.425610	0.364270
P61	P6	0.568500	0.074390	0.135730
P71	P7	0.068500	0.364270	0.074390
P81	P8	0.068500	0.135730	0.425610
P91	P9	0.568500	0.425610	0.135730
P101	P10	0.568500	0.074390	0.364270
P111	P11	0.068500	0.364270	0.425610
P121	P12	0.068500	0.135730	0.074390
P131	P13	0.431500	0.574390	0.635730
P141	P14	0.431500	0.925610	0.864270
P151	P15	0.931500	0.635730	0.925610
P161	P16	0.931500	0.864270	0.574390
H11	H1	0.419000	0.609000	0.998500
H21	H2	0.419000	0.891000	0.501500
H31	H3	0.919000	0.501500	0.609000
H41	H4	0.919000	0.998500	0.891000
H51	H5	0.581000	0.391000	0.498500
H61	H6	0.581000	0.109000	0.001500
H71	H7	0.081000	0.498500	0.109000
H81	H8	0.081000	0.001500	0.391000
H91	H9	0.581000	0.391000	0.001500
H101	H10	0.581000	0.109000	0.498500
H111	H11	0.081000	0.498500	0.391000
H121	H12	0.081000	0.001500	0.109000
H131	H13	0.419000	0.609000	0.501500
H141	H14	0.419000	0.891000	0.998500
H151	H15	0.919000	0.501500	0.891000
H161	H16	0.919000	0.998500	0.609000
C11	C1	0.467100	0.532100	0.940700
C21	C2	0.510500	0.466100	0.942000
C31	C3	0.453800	0.564300	0.998500
C41	C4	0.467100	0.967900	0.559300
C51	C5	0.510500	0.033900	0.558000
C61	C6	0.453800	0.935700	0.501500
C71	C7	0.967100	0.559300	0.532100
C81	C8	0.010500	0.558000	0.466100
C91	C9	0.953800	0.501500	0.564300
C101	C10	0.967100	0.940700	0.967900
C111	C11	0.010500	0.942000	0.033900
C121	C12	0.953800	0.998500	0.935700
C131	C13	0.532900	0.467900	0.440700
C141	C14	0.489500	0.533900	0.442000
C151	C15	0.546200	0.435700	0.498500
C161	C16	0.532900	0.032100	0.059300
C171	C17	0.489500	0.966100	0.058000
C181	C18	0.546200	0.064300	0.001500
C191	C19	0.032900	0.440700	0.032100
C201	C20	0.989500	0.442000	0.966100
C211	C21	0.046200	0.498500	0.064300
C221	C22	0.032900	0.059300	0.467900
C231	C23	0.989500	0.058000	0.533900
C241	C24	0.046200	0.001500	0.435700
C251	C25	0.532900	0.467900	0.059300
C261	C26	0.489500	0.533900	0.058000
C271	C27	0.546200	0.435700	0.001500
C281	C28	0.532900	0.032100	0.440700
C291	C29	0.489500	0.966100	0.442000
C301	C30	0.546200	0.064300	0.498500
C311	C31	0.032900	0.440700	0.467900
C321	C32	0.989500	0.442000	0.533900
C331	C33	0.046200	0.498500	0.435700
C341	C34	0.032900	0.059300	0.032100
C351	C35	0.989500	0.058000	0.966100
C361	C36	0.046200	0.001500	0.064300
C371	C37	0.467100	0.532100	0.559300
C381	C38	0.510500	0.466100	0.558000
C391	C39	0.453800	0.564300	0.501500
C401	C40	0.467100	0.967900	0.940700
C411	C41	0.510500	0.033900	0.942000
C421	C42	0.453800	0.935700	0.998500
C431	C43	0.967100	0.559300	0.967900
C441	C44	0.010500	0.558000	0.033900
C451	C45	0.953800	0.501500	0.935700
C461	C46	0.967100	0.940700	0.532100
C471	C47	0.010500	0.942000	0.466100
C481	C48	0.953800	0.998500	0.564300
O11	O1	0.581500	0.560600	0.820100
O21	O2	0.398400	0.645100	0.878300
O31	O3	0.266300	0.543400	0.833600
O41	O4	0.581500	0.939400	0.679900
O51	O5	0.398400	0.854900	0.621700
O61	O6	0.266300	0.956600	0.666400
O71	O7	0.081500	0.679900	0.560600
O81	O8	0.898400	0.621700	0.645100
O91	O9	0.766300	0.666400	0.543400
O101	O10	0.081500	0.820100	0.939400
O111	O11	0.898400	0.878300	0.854900
O121	O12	0.766300	0.833600	0.956600
O131	O13	0.418500	0.439400	0.320100
O141	O14	0.601600	0.354900	0.378300
O151	O15	0.733700	0.456600	0.333600
O161	O16	0.418500	0.060600	0.179900
O171	O17	0.601600	0.145100	0.121700
O181	O18	0.733700	0.043400	0.166400
O191	O19	0.918500	0.320100	0.060600
O201	O20	0.101600	0.378300	0.145100
O211	O21	0.233700	0.333600	0.043400
O221	O22	0.918500	0.179900	0.439400
O231	O23	0.101600	0.121700	0.354900
O241	O24	0.233700	0.166400	0.456600
O251	O25	0.418500	0.439400	0.179900
O261	O26	0.601600	0.354900	0.121700
O271	O27	0.733700	0.456600	0.166400
O281	O28	0.418500	0.060600	0.320100
O291	O29	0.601600	0.145100	0.378300
O301	O30	0.733700	0.043400	0.333600
O311	O31	0.918500	0.320100	0.439400
O321	O32	0.101600	0.378300	0.354900
O331	O33	0.233700	0.333600	0.456600
O341	O34	0.918500	0.179900	0.060600
O351	O35	0.101600	0.121700	0.145100
O361	O36	0.233700	0.166400	0.043400
O371	O37	0.581500	0.560600	0.679900
O381	O38	0.398400	0.645100	0.621700
O391	O39	0.266300	0.543400	0.666400
O401	O40	0.581500	0.939400	0.820100
O411	O41	0.398400	0.854900	0.878300
O421	O42	0.266300	0.956600	0.833600
O431	O43	0.081500	0.679900	0.939400
O441	O44	0.898400	0.621700	0.854900
O451	O45	0.766300	0.666400	0.956600
O461	O46	0.081500	0.820100	0.560600
O471	O47	0.898400	0.878300	0.645100
O481	O48	0.766300	0.833600	0.543400
