data_OYERER_clean_PM
_symmetry_space_group_name_H-M	'P1'
_cell_length_a	20.772000
_cell_length_b	20.772000
_cell_length_c	21.053000
_cell_angle_alpha	90.000000
_cell_angle_beta	90.000000
_cell_angle_gamma	120.000000
_symmetry_Int_Tables_number 1

loop_
_symmetry_equiv_pos_as_xyz
'x,y,z'

loop_
_atom_site_label
_atom_site_type_symbol
_atom_site_fract_x
_atom_site_fract_y
_atom_site_fract_z
O11	O1	0.731800	0.469600	0.318100
O21	O2	0.607700	0.410900	0.316400
C11	C1	0.668800	0.455300	0.338400
C21	C2	0.673100	0.501500	0.393900
C31	C3	0.605800	0.487200	0.421900
H11	H1	0.560800	0.449600	0.403600
N11	N1	0.601200	0.523500	0.472900
C41	C4	0.666500	0.574800	0.499300
H21	H2	0.664200	0.602500	0.534200
C51	C5	0.736500	0.589900	0.479500
H31	H3	0.780200	0.622800	0.502300
C61	C6	0.739400	0.554200	0.424100
H41	H4	0.786100	0.565500	0.406800
O31	O3	0.530400	0.262200	0.318100
O41	O4	0.589100	0.196800	0.316400
C71	C7	0.544700	0.213500	0.338400
C81	C8	0.498500	0.171600	0.393900
C91	C9	0.512800	0.118600	0.421900
H51	H5	0.550400	0.111200	0.403600
N21	N2	0.476500	0.077700	0.472900
C101	C10	0.425200	0.091700	0.499300
H61	H6	0.397500	0.061700	0.534200
C111	C11	0.410100	0.146600	0.479500
H71	H7	0.377200	0.157400	0.502300
C121	C12	0.445800	0.185200	0.424100
H81	H8	0.434500	0.220600	0.406800
O51	O5	0.737800	0.268200	0.318100
O61	O6	0.803200	0.392300	0.316400
C131	C13	0.786500	0.331200	0.338400
C141	C14	0.828400	0.326900	0.393900
C151	C15	0.881400	0.394200	0.421900
H91	H9	0.888800	0.439200	0.403600
N31	N3	0.922300	0.398800	0.472900
C161	C16	0.908300	0.333500	0.499300
H101	H10	0.938300	0.335800	0.534200
C171	C17	0.853400	0.263500	0.479500
H111	H11	0.842600	0.219800	0.502300
C181	C18	0.814800	0.260600	0.424100
H121	H12	0.779400	0.213900	0.406800
O71	O7	0.268200	0.530400	0.818100
O81	O8	0.392300	0.589100	0.816400
C191	C19	0.331200	0.544700	0.838400
C201	C20	0.326900	0.498500	0.893900
C211	C21	0.394200	0.512800	0.921900
H131	H13	0.439200	0.550400	0.903600
N41	N4	0.398800	0.476500	0.972900
C221	C22	0.333500	0.425200	0.999300
H141	H14	0.335800	0.397500	0.034200
C231	C23	0.263500	0.410100	0.979500
H151	H15	0.219800	0.377200	0.002300
C241	C24	0.260600	0.445800	0.924100
H161	H16	0.213900	0.434500	0.906800
O91	O9	0.469600	0.737800	0.818100
O101	O10	0.410900	0.803200	0.816400
C251	C25	0.455300	0.786500	0.838400
C261	C26	0.501500	0.828400	0.893900
C271	C27	0.487200	0.881400	0.921900
H171	H17	0.449600	0.888800	0.903600
N51	N5	0.523500	0.922300	0.972900
C281	C28	0.574800	0.908300	0.999300
H181	H18	0.602500	0.938300	0.034200
C291	C29	0.589900	0.853400	0.979500
H191	H19	0.622800	0.842600	0.002300
C301	C30	0.554200	0.814800	0.924100
H201	H20	0.565500	0.779400	0.906800
O111	O11	0.262200	0.731800	0.818100
O121	O12	0.196800	0.607700	0.816400
C311	C31	0.213500	0.668800	0.838400
C321	C32	0.171600	0.673100	0.893900
C331	C33	0.118600	0.605800	0.921900
H211	H21	0.111200	0.560800	0.903600
N61	N6	0.077700	0.601200	0.972900
C341	C34	0.091700	0.666500	0.999300
H221	H22	0.061700	0.664200	0.034200
C351	C35	0.146600	0.736500	0.979500
H231	H23	0.157400	0.780200	0.002300
C361	C36	0.185200	0.739400	0.924100
H241	H24	0.220600	0.786100	0.906800
O131	O13	0.268200	0.530400	0.681900
O141	O14	0.392300	0.589100	0.683600
C371	C37	0.331200	0.544700	0.661600
C381	C38	0.326900	0.498500	0.606100
C391	C39	0.394200	0.512800	0.578100
H251	H25	0.439200	0.550400	0.596400
N71	N7	0.398800	0.476500	0.527100
C401	C40	0.333500	0.425200	0.500700
H261	H26	0.335800	0.397500	0.465800
C411	C41	0.263500	0.410100	0.520500
H271	H27	0.219800	0.377200	0.497700
C421	C42	0.260600	0.445800	0.575900
H281	H28	0.213900	0.434500	0.593200
O151	O15	0.469600	0.737800	0.681900
O161	O16	0.410900	0.803200	0.683600
C431	C43	0.455300	0.786500	0.661600
C441	C44	0.501500	0.828400	0.606100
C451	C45	0.487200	0.881400	0.578100
H291	H29	0.449600	0.888800	0.596400
N81	N8	0.523500	0.922300	0.527100
C461	C46	0.574800	0.908300	0.500700
H301	H30	0.602500	0.938300	0.465800
C471	C47	0.589900	0.853400	0.520500
H311	H31	0.622800	0.842600	0.497700
C481	C48	0.554200	0.814800	0.575900
H321	H32	0.565500	0.779400	0.593200
O171	O17	0.262200	0.731800	0.681900
O181	O18	0.196800	0.607700	0.683600
C491	C49	0.213500	0.668800	0.661600
C501	C50	0.171600	0.673100	0.606100
C511	C51	0.118600	0.605800	0.578100
H331	H33	0.111200	0.560800	0.596400
N91	N9	0.077700	0.601200	0.527100
C521	C52	0.091700	0.666500	0.500700
H341	H34	0.061700	0.664200	0.465800
C531	C53	0.146600	0.736500	0.520500
H351	H35	0.157400	0.780200	0.497700
C541	C54	0.185200	0.739400	0.575900
H361	H36	0.220600	0.786100	0.593200
O191	O19	0.731800	0.469600	0.181900
O201	O20	0.607700	0.410900	0.183600
C551	C55	0.668800	0.455300	0.161600
C561	C56	0.673100	0.501500	0.106100
C571	C57	0.605800	0.487200	0.078100
H371	H37	0.560800	0.449600	0.096400
N101	N10	0.601200	0.523500	0.027100
C581	C58	0.666500	0.574800	0.000700
H381	H38	0.664200	0.602500	0.965800
C591	C59	0.736500	0.589900	0.020500
H391	H39	0.780200	0.622800	0.997700
C601	C60	0.739400	0.554200	0.075900
H401	H40	0.786100	0.565500	0.093200
O211	O21	0.530400	0.262200	0.181900
O221	O22	0.589100	0.196800	0.183600
C611	C61	0.544700	0.213500	0.161600
C621	C62	0.498500	0.171600	0.106100
C631	C63	0.512800	0.118600	0.078100
H411	H41	0.550400	0.111200	0.096400
N111	N11	0.476500	0.077700	0.027100
C641	C64	0.425200	0.091700	0.000700
H421	H42	0.397500	0.061700	0.965800
C651	C65	0.410100	0.146600	0.020500
H431	H43	0.377200	0.157400	0.997700
C661	C66	0.445800	0.185200	0.075900
H441	H44	0.434500	0.220600	0.093200
O231	O23	0.737800	0.268200	0.181900
O241	O24	0.803200	0.392300	0.183600
C671	C67	0.786500	0.331200	0.161600
C681	C68	0.828400	0.326900	0.106100
C691	C69	0.881400	0.394200	0.078100
H451	H45	0.888800	0.439200	0.096400
N121	N12	0.922300	0.398800	0.027100
C701	C70	0.908300	0.333500	0.000700
H461	H46	0.938300	0.335800	0.965800
C711	C71	0.853400	0.263500	0.020500
H471	H47	0.842600	0.219800	0.997700
C721	C72	0.814800	0.260600	0.075900
H481	H48	0.779400	0.213900	0.093200
Cr11	Cr1	0.759760	0.423540	0.250000
Cr21	Cr2	0.576460	0.336220	0.250000
Cr31	Cr3	0.663780	0.240240	0.250000
Cr41	Cr4	0.240240	0.576460	0.750000
Cr51	Cr5	0.423540	0.663780	0.750000
Cr61	Cr6	0.336220	0.759760	0.750000
O251	O25	0.666670	0.333330	0.250000
O261	O26	0.333330	0.666670	0.750000
Cu11	Cu1	0.500000	0.500000	0.500000
Cu21	Cu2	0.500000	0.000000	0.500000
Cu31	Cu3	0.000000	0.500000	0.500000
Cu41	Cu4	0.500000	0.500000	0.000000
Cu51	Cu5	0.500000	0.000000	0.000000
Cu61	Cu6	0.000000	0.500000	0.000000
