data_OYEROB_clean_PM
_symmetry_space_group_name_H-M	'P1'
_cell_length_a	20.608000
_cell_length_b	20.608000
_cell_length_c	22.350000
_cell_angle_alpha	90.000000
_cell_angle_beta	90.000000
_cell_angle_gamma	90.000000
_symmetry_Int_Tables_number 1

loop_
_symmetry_equiv_pos_as_xyz
'x,y,z'

loop_
_atom_site_label
_atom_site_type_symbol
_atom_site_fract_x
_atom_site_fract_y
_atom_site_fract_z
Cd11	Cd1	0.718860	0.208710	0.114370
N11	N1	0.613400	0.198600	0.149700
N21	N2	0.815300	0.239900	0.071300
N31	N3	0.676300	0.218700	0.016600
C11	C1	0.597900	0.150800	0.186200
C21	C2	0.566900	0.241600	0.132400
H11	H1	0.630400	0.120700	0.198000
C31	C3	0.534600	0.143400	0.207700
C41	C4	0.505100	0.237900	0.151800
H21	H2	0.578400	0.275500	0.105700
C51	C5	0.520300	0.088100	0.248000
C61	C6	0.488000	0.187100	0.191300
H31	H3	0.473700	0.268800	0.139100
O11	O1	0.463200	0.087400	0.270300
O21	O2	0.563200	0.048100	0.257300
H41	H4	0.444900	0.183500	0.206100
Cr11	Cr1	0.422360	0.019450	0.319200
O31	O3	0.370400	0.954500	0.361700
O41	O4	0.395800	0.089600	0.374200
C71	C7	0.373100	0.939000	0.416200
C81	C8	0.420400	0.113600	0.421000
O51	O5	0.536300	0.912100	0.453000
O61	O6	0.413700	0.958800	0.454000
C91	C9	0.322000	0.892200	0.437300
C101	C10	0.395400	0.177200	0.441000
C111	C11	0.325000	0.867100	0.494400
C121	C12	0.272500	0.873200	0.399800
C131	C13	0.342900	0.204700	0.411100
C141	C14	0.422900	0.210300	0.490000
H51	H5	0.359600	0.880700	0.519600
C151	C15	0.225900	0.830700	0.422600
H61	H6	0.270200	0.888500	0.359800
H71	H7	0.326100	0.183200	0.376800
C161	C16	0.393300	0.268000	0.507100
H81	H8	0.460000	0.194000	0.510300
C171	C17	0.233800	0.806300	0.480300
H91	H9	0.189400	0.818500	0.399200
C181	C18	0.342700	0.291600	0.475800
H101	H10	0.408900	0.290800	0.541100
H111	H11	0.203200	0.775300	0.494300
H121	H12	0.325200	0.332400	0.487300
Cd21	Cd2	0.281140	0.791290	0.114370
N41	N4	0.386600	0.801400	0.149700
N51	N5	0.184700	0.760100	0.071300
N61	N6	0.323700	0.781300	0.016600
C191	C19	0.402100	0.849200	0.186200
C201	C20	0.433100	0.758400	0.132400
H131	H13	0.369600	0.879300	0.198000
C211	C21	0.465400	0.856600	0.207700
C221	C22	0.494900	0.762100	0.151800
H141	H14	0.421600	0.724500	0.105700
C231	C23	0.479700	0.911900	0.248000
C241	C24	0.512000	0.812900	0.191300
H151	H15	0.526300	0.731200	0.139100
O71	O7	0.536800	0.912600	0.270300
O81	O8	0.436800	0.951900	0.257300
H161	H16	0.555100	0.816500	0.206100
Cr21	Cr2	0.577640	0.980550	0.319200
O91	O9	0.629600	0.045500	0.361700
O101	O10	0.604200	0.910400	0.374200
C251	C25	0.626900	0.061000	0.416200
C261	C26	0.579600	0.886400	0.421000
O111	O11	0.463700	0.087900	0.453000
O121	O12	0.586300	0.041200	0.454000
C271	C27	0.678000	0.107800	0.437300
C281	C28	0.604600	0.822800	0.441000
C291	C29	0.675000	0.132900	0.494400
C301	C30	0.727500	0.126800	0.399800
C311	C31	0.657100	0.795300	0.411100
C321	C32	0.577100	0.789700	0.490000
H171	H17	0.640400	0.119300	0.519600
C331	C33	0.774100	0.169300	0.422600
H181	H18	0.729800	0.111500	0.359800
H191	H19	0.673900	0.816800	0.376800
C341	C34	0.606700	0.732000	0.507100
H201	H20	0.540000	0.806000	0.510300
C351	C35	0.766200	0.193700	0.480300
H211	H21	0.810600	0.181500	0.399200
C361	C36	0.657300	0.708400	0.475800
H221	H22	0.591100	0.709200	0.541100
H231	H23	0.796800	0.224700	0.494300
H241	H24	0.674800	0.667600	0.487300
Cd31	Cd3	0.208710	0.281140	0.885630
N71	N7	0.198600	0.386600	0.850300
N81	N8	0.239900	0.184700	0.928700
N91	N9	0.218700	0.323700	0.983400
C371	C37	0.150800	0.402100	0.813800
C381	C38	0.241600	0.433100	0.867600
H251	H25	0.120700	0.369600	0.802000
C391	C39	0.143400	0.465400	0.792300
C401	C40	0.237900	0.494900	0.848200
H261	H26	0.275500	0.421600	0.894300
C411	C41	0.088100	0.479700	0.752000
C421	C42	0.187100	0.512000	0.808700
H271	H27	0.268800	0.526300	0.860900
O131	O13	0.087400	0.536800	0.729700
O141	O14	0.048100	0.436800	0.742700
H281	H28	0.183500	0.555100	0.793900
Cr31	Cr3	0.019450	0.577640	0.680800
O151	O15	0.954500	0.629600	0.638300
O161	O16	0.089600	0.604200	0.625800
C431	C43	0.939000	0.626900	0.583800
C441	C44	0.113600	0.579600	0.579000
O171	O17	0.912100	0.463700	0.547000
O181	O18	0.958800	0.586300	0.546000
C451	C45	0.892200	0.678000	0.562700
C461	C46	0.177200	0.604600	0.559000
C471	C47	0.867100	0.675000	0.505600
C481	C48	0.873200	0.727500	0.600200
C491	C49	0.204700	0.657100	0.588900
C501	C50	0.210300	0.577100	0.510000
H291	H29	0.880700	0.640400	0.480400
C511	C51	0.830700	0.774100	0.577400
H301	H30	0.888500	0.729800	0.640200
H311	H31	0.183200	0.673900	0.623200
C521	C52	0.268000	0.606700	0.492900
H321	H32	0.194000	0.540000	0.489700
C531	C53	0.806300	0.766200	0.519700
H331	H33	0.818500	0.810600	0.600800
C541	C54	0.291600	0.657300	0.524200
H341	H34	0.290800	0.591100	0.458900
H351	H35	0.775300	0.796800	0.505700
H361	H36	0.332400	0.674800	0.512700
Cd41	Cd4	0.791290	0.718860	0.885630
N101	N10	0.801400	0.613400	0.850300
N111	N11	0.760100	0.815300	0.928700
N121	N12	0.781300	0.676300	0.983400
C551	C55	0.849200	0.597900	0.813800
C561	C56	0.758400	0.566900	0.867600
H371	H37	0.879300	0.630400	0.802000
C571	C57	0.856600	0.534600	0.792300
C581	C58	0.762100	0.505100	0.848200
H381	H38	0.724500	0.578400	0.894300
C591	C59	0.911900	0.520300	0.752000
C601	C60	0.812900	0.488000	0.808700
H391	H39	0.731200	0.473700	0.860900
O191	O19	0.912600	0.463200	0.729700
O201	O20	0.951900	0.563200	0.742700
H401	H40	0.816500	0.444900	0.793900
Cr41	Cr4	0.980550	0.422360	0.680800
O211	O21	0.045500	0.370400	0.638300
O221	O22	0.910400	0.395800	0.625800
C611	C61	0.061000	0.373100	0.583800
C621	C62	0.886400	0.420400	0.579000
O231	O23	0.087900	0.536300	0.547000
O241	O24	0.041200	0.413700	0.546000
C631	C63	0.107800	0.322000	0.562700
C641	C64	0.822800	0.395400	0.559000
C651	C65	0.132900	0.325000	0.505600
C661	C66	0.126800	0.272500	0.600200
C671	C67	0.795300	0.342900	0.588900
C681	C68	0.789700	0.422900	0.510000
H411	H41	0.119300	0.359600	0.480400
C691	C69	0.169300	0.225900	0.577400
H421	H42	0.111500	0.270200	0.640200
H431	H43	0.816800	0.326100	0.623200
C701	C70	0.732000	0.393300	0.492900
H441	H44	0.806000	0.460000	0.489700
C711	C71	0.193700	0.233800	0.519700
H451	H45	0.181500	0.189400	0.600800
C721	C72	0.708400	0.342700	0.524200
H461	H46	0.709200	0.408900	0.458900
H471	H47	0.224700	0.203200	0.505700
H481	H48	0.667600	0.325200	0.512700
Cd51	Cd5	0.781140	0.708710	0.385630
N131	N13	0.886600	0.698600	0.350300
N141	N14	0.684700	0.739900	0.428700
N151	N15	0.823700	0.718700	0.483400
C731	C73	0.902100	0.650800	0.313800
C741	C74	0.933100	0.741600	0.367600
H491	H49	0.869600	0.620700	0.302000
C751	C75	0.965400	0.643400	0.292300
C761	C76	0.994900	0.737900	0.348200
H501	H50	0.921600	0.775500	0.394300
C771	C77	0.979700	0.588100	0.252000
C781	C78	0.012000	0.687100	0.308700
H511	H51	0.026300	0.768800	0.360900
O251	O25	0.036800	0.587400	0.229700
O261	O26	0.936800	0.548100	0.242700
H521	H52	0.055100	0.683500	0.293900
Cr51	Cr5	0.077640	0.519450	0.180800
O271	O27	0.129600	0.454500	0.138300
O281	O28	0.104200	0.589600	0.125800
C791	C79	0.126900	0.439000	0.083800
C801	C80	0.079600	0.613600	0.079000
O291	O29	0.963700	0.412100	0.047000
O301	O30	0.086300	0.458800	0.046000
C811	C81	0.178000	0.392200	0.062700
C821	C82	0.104600	0.677200	0.059000
C831	C83	0.175000	0.367100	0.005600
C841	C84	0.227500	0.373200	0.100200
C851	C85	0.157100	0.704700	0.088900
C861	C86	0.077100	0.710300	0.010000
H531	H53	0.140400	0.380700	0.980400
C871	C87	0.274100	0.330700	0.077400
H541	H54	0.229800	0.388500	0.140200
H551	H55	0.173900	0.683200	0.123200
C881	C88	0.106700	0.768000	0.992900
H561	H56	0.040000	0.694000	0.989700
C891	C89	0.266200	0.306300	0.019700
H571	H57	0.310600	0.318500	0.100800
C901	C90	0.157300	0.791600	0.024200
H581	H58	0.091100	0.790800	0.958900
H591	H59	0.296800	0.275300	0.005700
H601	H60	0.174800	0.832400	0.012700
Cd61	Cd6	0.218860	0.291290	0.385630
N161	N16	0.113400	0.301400	0.350300
N171	N17	0.315300	0.260100	0.428700
N181	N18	0.176300	0.281300	0.483400
C911	C91	0.097900	0.349200	0.313800
C921	C92	0.066900	0.258400	0.367600
H611	H61	0.130400	0.379300	0.302000
C931	C93	0.034600	0.356600	0.292300
C941	C94	0.005100	0.262100	0.348200
H621	H62	0.078400	0.224500	0.394300
C951	C95	0.020300	0.411900	0.252000
C961	C96	0.988000	0.312900	0.308700
H631	H63	0.973700	0.231200	0.360900
O311	O31	0.963200	0.412600	0.229700
O321	O32	0.063200	0.451900	0.242700
H641	H64	0.944900	0.316500	0.293900
Cr61	Cr6	0.922360	0.480550	0.180800
O331	O33	0.870400	0.545500	0.138300
O341	O34	0.895800	0.410400	0.125800
C971	C97	0.873100	0.561000	0.083800
C981	C98	0.920400	0.386400	0.079000
O351	O35	0.036300	0.587900	0.047000
O361	O36	0.913700	0.541200	0.046000
C991	C99	0.822000	0.607800	0.062700
C1001	C100	0.895400	0.322800	0.059000
C1011	C101	0.825000	0.632900	0.005600
C1021	C102	0.772500	0.626800	0.100200
C1031	C103	0.842900	0.295300	0.088900
C1041	C104	0.922900	0.289700	0.010000
H651	H65	0.859600	0.619300	0.980400
C1051	C105	0.725900	0.669300	0.077400
H661	H66	0.770200	0.611500	0.140200
H671	H67	0.826100	0.316800	0.123200
C1061	C106	0.893300	0.232000	0.992900
H681	H68	0.960000	0.306000	0.989700
C1071	C107	0.733800	0.693700	0.019700
H691	H69	0.689400	0.681500	0.100800
C1081	C108	0.842700	0.208400	0.024200
H701	H70	0.908900	0.209200	0.958900
H711	H71	0.703200	0.724700	0.005700
H721	H72	0.825200	0.167600	0.012700
Cd71	Cd7	0.291290	0.781140	0.614370
N191	N19	0.301400	0.886600	0.649700
N201	N20	0.260100	0.684700	0.571300
N211	N21	0.281300	0.823700	0.516600
C1091	C109	0.349200	0.902100	0.686200
C1101	C110	0.258400	0.933100	0.632400
H731	H73	0.379300	0.869600	0.698000
C1111	C111	0.356600	0.965400	0.707700
C1121	C112	0.262100	0.994900	0.651800
H741	H74	0.224500	0.921600	0.605700
C1131	C113	0.411900	0.979700	0.748000
C1141	C114	0.312900	0.012000	0.691300
H751	H75	0.231200	0.026300	0.639100
O371	O37	0.412600	0.036800	0.770300
O381	O38	0.451900	0.936800	0.757300
H761	H76	0.316500	0.055100	0.706100
Cr71	Cr7	0.480550	0.077640	0.819200
O391	O39	0.545500	0.129600	0.861700
O401	O40	0.410400	0.104200	0.874200
C1151	C115	0.561000	0.126900	0.916200
C1161	C116	0.386400	0.079600	0.921000
O411	O41	0.587900	0.963700	0.953000
O421	O42	0.541200	0.086300	0.954000
C1171	C117	0.607800	0.178000	0.937300
C1181	C118	0.322800	0.104600	0.941000
C1191	C119	0.632900	0.175000	0.994400
C1201	C120	0.626800	0.227500	0.899800
C1211	C121	0.295300	0.157100	0.911100
C1221	C122	0.289700	0.077100	0.990000
H771	H77	0.619300	0.140400	0.019600
C1231	C123	0.669300	0.274100	0.922600
H781	H78	0.611500	0.229800	0.859800
H791	H79	0.316800	0.173900	0.876800
C1241	C124	0.232000	0.106700	0.007100
H801	H80	0.306000	0.040000	0.010300
C1251	C125	0.693700	0.266200	0.980300
H811	H81	0.681500	0.310600	0.899200
C1261	C126	0.208400	0.157300	0.975800
H821	H82	0.209200	0.091100	0.041100
H831	H83	0.724700	0.296800	0.994300
H841	H84	0.167600	0.174800	0.987300
Cd81	Cd8	0.708710	0.218860	0.614370
N221	N22	0.698600	0.113400	0.649700
N231	N23	0.739900	0.315300	0.571300
N241	N24	0.718700	0.176300	0.516600
C1271	C127	0.650800	0.097900	0.686200
C1281	C128	0.741600	0.066900	0.632400
H851	H85	0.620700	0.130400	0.698000
C1291	C129	0.643400	0.034600	0.707700
C1301	C130	0.737900	0.005100	0.651800
H861	H86	0.775500	0.078400	0.605700
C1311	C131	0.588100	0.020300	0.748000
C1321	C132	0.687100	0.988000	0.691300
H871	H87	0.768800	0.973700	0.639100
O431	O43	0.587400	0.963200	0.770300
O441	O44	0.548100	0.063200	0.757300
H881	H88	0.683500	0.944900	0.706100
Cr81	Cr8	0.519450	0.922360	0.819200
O451	O45	0.454500	0.870400	0.861700
O461	O46	0.589600	0.895800	0.874200
C1331	C133	0.439000	0.873100	0.916200
C1341	C134	0.613600	0.920400	0.921000
O471	O47	0.412100	0.036300	0.953000
O481	O48	0.458800	0.913700	0.954000
C1351	C135	0.392200	0.822000	0.937300
C1361	C136	0.677200	0.895400	0.941000
C1371	C137	0.367100	0.825000	0.994400
C1381	C138	0.373200	0.772500	0.899800
C1391	C139	0.704700	0.842900	0.911100
C1401	C140	0.710300	0.922900	0.990000
H891	H89	0.380700	0.859600	0.019600
C1411	C141	0.330700	0.725900	0.922600
H901	H90	0.388500	0.770200	0.859800
H911	H91	0.683200	0.826100	0.876800
C1421	C142	0.768000	0.893300	0.007100
H921	H92	0.694000	0.960000	0.010300
C1431	C143	0.306300	0.733800	0.980300
H931	H93	0.318500	0.689400	0.899200
C1441	C144	0.791600	0.842700	0.975800
H941	H94	0.790800	0.908900	0.041100
H951	H95	0.275300	0.703200	0.994300
H961	H96	0.832400	0.825200	0.987300
O491	O49	0.500000	0.000000	0.361500
Cr91	Cr9	0.500000	0.000000	0.446490
O501	O50	0.000000	0.500000	0.638500
Cr101	Cr10	0.000000	0.500000	0.553510
O511	O51	0.000000	0.500000	0.138500
Cr111	Cr11	0.000000	0.500000	0.053510
O521	O52	0.500000	0.000000	0.861500
Cr121	Cr12	0.500000	0.000000	0.946490
