data_OYERIV_clean_PM
_symmetry_space_group_name_H-M	'P1'
_cell_length_a	22.045000
_cell_length_b	22.045000
_cell_length_c	21.768000
_cell_angle_alpha	90.000000
_cell_angle_beta	90.000000
_cell_angle_gamma	120.000000
_symmetry_Int_Tables_number 1

loop_
_symmetry_equiv_pos_as_xyz
'x,y,z'

loop_
_atom_site_label
_atom_site_type_symbol
_atom_site_fract_x
_atom_site_fract_y
_atom_site_fract_z
O11	O1	0.594060	0.203890	0.185120
O21	O2	0.536410	0.263700	0.185800
C11	C1	0.548600	0.217100	0.166200
C21	C2	0.503600	0.173600	0.113900
C31	C3	0.517200	0.126000	0.085700
H11	H1	0.555700	0.121900	0.099900
N11	N1	0.478300	0.084600	0.038700
C41	C4	0.422900	0.090700	0.021200
H21	H2	0.393900	0.061100	0.989200
C51	C5	0.405800	0.137100	0.046700
H31	H3	0.366700	0.139900	0.031900
C61	C6	0.446500	0.179900	0.094500
H41	H4	0.435800	0.212300	0.113400
O31	O3	0.796110	0.390170	0.185120
O41	O4	0.736300	0.272710	0.185800
C71	C7	0.782900	0.331500	0.166200
C81	C8	0.826400	0.330000	0.113900
C91	C9	0.874000	0.391200	0.085700
H51	H5	0.878100	0.433800	0.099900
N21	N2	0.915400	0.393700	0.038700
C101	C10	0.909300	0.332200	0.021200
H61	H6	0.938900	0.332800	0.989200
C111	C11	0.862900	0.268700	0.046700
H71	H7	0.860100	0.226800	0.031900
C121	C12	0.820100	0.266600	0.094500
H81	H8	0.787700	0.223500	0.113400
O51	O5	0.609830	0.405940	0.185120
O61	O6	0.727290	0.463590	0.185800
C131	C13	0.668500	0.451400	0.166200
C141	C14	0.670000	0.496400	0.113900
C151	C15	0.608800	0.482800	0.085700
H91	H9	0.566200	0.444300	0.099900
N31	N3	0.606300	0.521700	0.038700
C161	C16	0.667800	0.577100	0.021200
H101	H10	0.667200	0.606100	0.989200
C171	C17	0.731300	0.594200	0.046700
H111	H11	0.773200	0.633300	0.031900
C181	C18	0.733400	0.553500	0.094500
H121	H12	0.776500	0.564200	0.113400
O71	O7	0.405940	0.796110	0.685120
O81	O8	0.463590	0.736300	0.685800
C191	C19	0.451400	0.782900	0.666200
C201	C20	0.496400	0.826400	0.613900
C211	C21	0.482800	0.874000	0.585700
H131	H13	0.444300	0.878100	0.599900
N41	N4	0.521700	0.915400	0.538700
C221	C22	0.577100	0.909300	0.521200
H141	H14	0.606100	0.938900	0.489200
C231	C23	0.594200	0.862900	0.546700
H151	H15	0.633300	0.860100	0.531900
C241	C24	0.553500	0.820100	0.594500
H161	H16	0.564200	0.787700	0.613400
O91	O9	0.203890	0.609830	0.685120
O101	O10	0.263700	0.727290	0.685800
C251	C25	0.217100	0.668500	0.666200
C261	C26	0.173600	0.670000	0.613900
C271	C27	0.126000	0.608800	0.585700
H171	H17	0.121900	0.566200	0.599900
N51	N5	0.084600	0.606300	0.538700
C281	C28	0.090700	0.667800	0.521200
H181	H18	0.061100	0.667200	0.489200
C291	C29	0.137100	0.731300	0.546700
H191	H19	0.139900	0.773200	0.531900
C301	C30	0.179900	0.733400	0.594500
H201	H20	0.212300	0.776500	0.613400
O111	O11	0.390170	0.594060	0.685120
O121	O12	0.272710	0.536410	0.685800
C311	C31	0.331500	0.548600	0.666200
C321	C32	0.330000	0.503600	0.613900
C331	C33	0.391200	0.517200	0.585700
H211	H21	0.433800	0.555700	0.599900
N61	N6	0.393700	0.478300	0.538700
C341	C34	0.332200	0.422900	0.521200
H221	H22	0.332800	0.393900	0.489200
C351	C35	0.268700	0.405800	0.546700
H231	H23	0.226800	0.366700	0.531900
C361	C36	0.266600	0.446500	0.594500
H241	H24	0.223500	0.435800	0.613400
O131	O13	0.203890	0.594060	0.314880
O141	O14	0.263700	0.536410	0.314200
C371	C37	0.217100	0.548600	0.333800
C381	C38	0.173600	0.503600	0.386100
C391	C39	0.126000	0.517200	0.414300
H251	H25	0.121900	0.555700	0.400100
N71	N7	0.084600	0.478300	0.461300
C401	C40	0.090700	0.422900	0.478800
H261	H26	0.061100	0.393900	0.510800
C411	C41	0.137100	0.405800	0.453300
H271	H27	0.139900	0.366700	0.468100
C421	C42	0.179900	0.446500	0.405500
H281	H28	0.212300	0.435800	0.386600
O151	O15	0.390170	0.796110	0.314880
O161	O16	0.272710	0.736300	0.314200
C431	C43	0.331500	0.782900	0.333800
C441	C44	0.330000	0.826400	0.386100
C451	C45	0.391200	0.874000	0.414300
H291	H29	0.433800	0.878100	0.400100
N81	N8	0.393700	0.915400	0.461300
C461	C46	0.332200	0.909300	0.478800
H301	H30	0.332800	0.938900	0.510800
C471	C47	0.268700	0.862900	0.453300
H311	H31	0.226800	0.860100	0.468100
C481	C48	0.266600	0.820100	0.405500
H321	H32	0.223500	0.787700	0.386600
O171	O17	0.405940	0.609830	0.314880
O181	O18	0.463590	0.727290	0.314200
C491	C49	0.451400	0.668500	0.333800
C501	C50	0.496400	0.670000	0.386100
C511	C51	0.482800	0.608800	0.414300
H331	H33	0.444300	0.566200	0.400100
N91	N9	0.521700	0.606300	0.461300
C521	C52	0.577100	0.667800	0.478800
H341	H34	0.606100	0.667200	0.510800
C531	C53	0.594200	0.731300	0.453300
H351	H35	0.633300	0.773200	0.468100
C541	C54	0.553500	0.733400	0.405500
H361	H36	0.564200	0.776500	0.386600
O191	O19	0.796110	0.405940	0.814880
O201	O20	0.736300	0.463590	0.814200
C551	C55	0.782900	0.451400	0.833800
C561	C56	0.826400	0.496400	0.886100
C571	C57	0.874000	0.482800	0.914300
H371	H37	0.878100	0.444300	0.900100
N101	N10	0.915400	0.521700	0.961300
C581	C58	0.909300	0.577100	0.978800
H381	H38	0.938900	0.606100	0.010800
C591	C59	0.862900	0.594200	0.953300
H391	H39	0.860100	0.633300	0.968100
C601	C60	0.820100	0.553500	0.905500
H401	H40	0.787700	0.564200	0.886600
O211	O21	0.609830	0.203890	0.814880
O221	O22	0.727290	0.263700	0.814200
C611	C61	0.668500	0.217100	0.833800
C621	C62	0.670000	0.173600	0.886100
C631	C63	0.608800	0.126000	0.914300
H411	H41	0.566200	0.121900	0.900100
N111	N11	0.606300	0.084600	0.961300
C641	C64	0.667800	0.090700	0.978800
H421	H42	0.667200	0.061100	0.010800
C651	C65	0.731300	0.137100	0.953300
H431	H43	0.773200	0.139900	0.968100
C661	C66	0.733400	0.179900	0.905500
H441	H44	0.776500	0.212300	0.886600
O231	O23	0.594060	0.390170	0.814880
O241	O24	0.536410	0.272710	0.814200
C671	C67	0.548600	0.331500	0.833800
C681	C68	0.503600	0.330000	0.886100
C691	C69	0.517200	0.391200	0.914300
H451	H45	0.555700	0.433800	0.900100
N121	N12	0.478300	0.393700	0.961300
C701	C70	0.422900	0.332200	0.978800
H461	H46	0.393900	0.332800	0.010800
C711	C71	0.405800	0.268700	0.953300
H471	H47	0.366700	0.226800	0.968100
C721	C72	0.446500	0.266600	0.905500
H481	H48	0.435800	0.223500	0.886600
O251	O25	0.405940	0.796110	0.814880
O261	O26	0.463590	0.736300	0.814200
C731	C73	0.451400	0.782900	0.833800
C741	C74	0.496400	0.826400	0.886100
C751	C75	0.482800	0.874000	0.914300
H491	H49	0.444300	0.878100	0.900100
N131	N13	0.521700	0.915400	0.961300
C761	C76	0.577100	0.909300	0.978800
H501	H50	0.606100	0.938900	0.010800
C771	C77	0.594200	0.862900	0.953300
H511	H51	0.633300	0.860100	0.968100
C781	C78	0.553500	0.820100	0.905500
H521	H52	0.564200	0.787700	0.886600
O271	O27	0.203890	0.609830	0.814880
O281	O28	0.263700	0.727290	0.814200
C791	C79	0.217100	0.668500	0.833800
C801	C80	0.173600	0.670000	0.886100
C811	C81	0.126000	0.608800	0.914300
H531	H53	0.121900	0.566200	0.900100
N141	N14	0.084600	0.606300	0.961300
C821	C82	0.090700	0.667800	0.978800
H541	H54	0.061100	0.667200	0.010800
C831	C83	0.137100	0.731300	0.953300
H551	H55	0.139900	0.773200	0.968100
C841	C84	0.179900	0.733400	0.905500
H561	H56	0.212300	0.776500	0.886600
O291	O29	0.390170	0.594060	0.814880
O301	O30	0.272710	0.536410	0.814200
C851	C85	0.331500	0.548600	0.833800
C861	C86	0.330000	0.503600	0.886100
C871	C87	0.391200	0.517200	0.914300
H571	H57	0.433800	0.555700	0.900100
N151	N15	0.393700	0.478300	0.961300
C881	C88	0.332200	0.422900	0.978800
H581	H58	0.332800	0.393900	0.010800
C891	C89	0.268700	0.405800	0.953300
H591	H59	0.226800	0.366700	0.968100
C901	C90	0.266600	0.446500	0.905500
H601	H60	0.223500	0.435800	0.886600
O311	O31	0.594060	0.203890	0.314880
O321	O32	0.536410	0.263700	0.314200
C911	C91	0.548600	0.217100	0.333800
C921	C92	0.503600	0.173600	0.386100
C931	C93	0.517200	0.126000	0.414300
H611	H61	0.555700	0.121900	0.400100
N161	N16	0.478300	0.084600	0.461300
C941	C94	0.422900	0.090700	0.478800
H621	H62	0.393900	0.061100	0.510800
C951	C95	0.405800	0.137100	0.453300
H631	H63	0.366700	0.139900	0.468100
C961	C96	0.446500	0.179900	0.405500
H641	H64	0.435800	0.212300	0.386600
O331	O33	0.796110	0.390170	0.314880
O341	O34	0.736300	0.272710	0.314200
C971	C97	0.782900	0.331500	0.333800
C981	C98	0.826400	0.330000	0.386100
C991	C99	0.874000	0.391200	0.414300
H651	H65	0.878100	0.433800	0.400100
N171	N17	0.915400	0.393700	0.461300
C1001	C100	0.909300	0.332200	0.478800
H661	H66	0.938900	0.332800	0.510800
C1011	C101	0.862900	0.268700	0.453300
H671	H67	0.860100	0.226800	0.468100
C1021	C102	0.820100	0.266600	0.405500
H681	H68	0.787700	0.223500	0.386600
O351	O35	0.609830	0.405940	0.314880
O361	O36	0.727290	0.463590	0.314200
C1031	C103	0.668500	0.451400	0.333800
C1041	C104	0.670000	0.496400	0.386100
C1051	C105	0.608800	0.482800	0.414300
H691	H69	0.566200	0.444300	0.400100
N181	N18	0.606300	0.521700	0.461300
C1061	C106	0.667800	0.577100	0.478800
H701	H70	0.667200	0.606100	0.510800
C1071	C107	0.731300	0.594200	0.453300
H711	H71	0.773200	0.633300	0.468100
C1081	C108	0.733400	0.553500	0.405500
H721	H72	0.776500	0.564200	0.386600
O371	O37	0.796110	0.405940	0.685120
O381	O38	0.736300	0.463590	0.685800
C1091	C109	0.782900	0.451400	0.666200
C1101	C110	0.826400	0.496400	0.613900
C1111	C111	0.874000	0.482800	0.585700
H731	H73	0.878100	0.444300	0.599900
N191	N19	0.915400	0.521700	0.538700
C1121	C112	0.909300	0.577100	0.521200
H741	H74	0.938900	0.606100	0.489200
C1131	C113	0.862900	0.594200	0.546700
H751	H75	0.860100	0.633300	0.531900
C1141	C114	0.820100	0.553500	0.594500
H761	H76	0.787700	0.564200	0.613400
O391	O39	0.609830	0.203890	0.685120
O401	O40	0.727290	0.263700	0.685800
C1151	C115	0.668500	0.217100	0.666200
C1161	C116	0.670000	0.173600	0.613900
C1171	C117	0.608800	0.126000	0.585700
H771	H77	0.566200	0.121900	0.599900
N201	N20	0.606300	0.084600	0.538700
C1181	C118	0.667800	0.090700	0.521200
H781	H78	0.667200	0.061100	0.489200
C1191	C119	0.731300	0.137100	0.546700
H791	H79	0.773200	0.139900	0.531900
C1201	C120	0.733400	0.179900	0.594500
H801	H80	0.776500	0.212300	0.613400
O411	O41	0.594060	0.390170	0.685120
O421	O42	0.536410	0.272710	0.685800
C1211	C121	0.548600	0.331500	0.666200
C1221	C122	0.503600	0.330000	0.613900
C1231	C123	0.517200	0.391200	0.585700
H811	H81	0.555700	0.433800	0.599900
N211	N21	0.478300	0.393700	0.538700
C1241	C124	0.422900	0.332200	0.521200
H821	H82	0.393900	0.332800	0.489200
C1251	C125	0.405800	0.268700	0.546700
H831	H83	0.366700	0.226800	0.531900
C1261	C126	0.446500	0.266600	0.594500
H841	H84	0.435800	0.223500	0.613400
O431	O43	0.203890	0.594060	0.185120
O441	O44	0.263700	0.536410	0.185800
C1271	C127	0.217100	0.548600	0.166200
C1281	C128	0.173600	0.503600	0.113900
C1291	C129	0.126000	0.517200	0.085700
H851	H85	0.121900	0.555700	0.099900
N221	N22	0.084600	0.478300	0.038700
C1301	C130	0.090700	0.422900	0.021200
H861	H86	0.061100	0.393900	0.989200
C1311	C131	0.137100	0.405800	0.046700
H871	H87	0.139900	0.366700	0.031900
C1321	C132	0.179900	0.446500	0.094500
H881	H88	0.212300	0.435800	0.113400
O451	O45	0.390170	0.796110	0.185120
O461	O46	0.272710	0.736300	0.185800
C1331	C133	0.331500	0.782900	0.166200
C1341	C134	0.330000	0.826400	0.113900
C1351	C135	0.391200	0.874000	0.085700
H891	H89	0.433800	0.878100	0.099900
N231	N23	0.393700	0.915400	0.038700
C1361	C136	0.332200	0.909300	0.021200
H901	H90	0.332800	0.938900	0.989200
C1371	C137	0.268700	0.862900	0.046700
H911	H91	0.226800	0.860100	0.031900
C1381	C138	0.266600	0.820100	0.094500
H921	H92	0.223500	0.787700	0.113400
O471	O47	0.405940	0.609830	0.185120
O481	O48	0.463590	0.727290	0.185800
C1391	C139	0.451400	0.668500	0.166200
C1401	C140	0.496400	0.670000	0.113900
C1411	C141	0.482800	0.608800	0.085700
H931	H93	0.444300	0.566200	0.099900
N241	N24	0.521700	0.606300	0.038700
C1421	C142	0.577100	0.667800	0.021200
H941	H94	0.606100	0.667200	0.989200
C1431	C143	0.594200	0.731300	0.046700
H951	H95	0.633300	0.773200	0.031900
C1441	C144	0.553500	0.733400	0.094500
H961	H96	0.564200	0.776500	0.113400
Mn11	Mn1	0.500000	0.000000	0.000000
Mn21	Mn2	0.000000	0.500000	0.000000
Mn31	Mn3	0.500000	0.500000	0.000000
Mn41	Mn4	0.500000	0.000000	0.500000
Mn51	Mn5	0.000000	0.500000	0.500000
Mn61	Mn6	0.500000	0.500000	0.500000
Cl11	Cl1	0.559390	0.000000	0.097140
Cl21	Cl2	0.000000	0.559390	0.097140
Cl31	Cl3	0.440610	0.440610	0.097140
Cl41	Cl4	0.440610	0.000000	0.597140
Cl51	Cl5	0.000000	0.440610	0.597140
Cl61	Cl6	0.559390	0.559390	0.597140
Cl71	Cl7	0.000000	0.559390	0.402860
Cl81	Cl8	0.559390	0.000000	0.402860
Cl91	Cl9	0.440610	0.440610	0.402860
Cl101	Cl10	0.000000	0.440610	0.902860
Cl111	Cl11	0.440610	0.000000	0.902860
Cl121	Cl12	0.559390	0.559390	0.902860
Cr11	Cr1	0.665170	0.246060	0.250000
Cr21	Cr2	0.753940	0.419110	0.250000
Cr31	Cr3	0.580890	0.334830	0.250000
Cr41	Cr4	0.334830	0.753940	0.750000
Cr51	Cr5	0.246060	0.580890	0.750000
Cr61	Cr6	0.419110	0.665170	0.750000
Cr71	Cr7	0.246060	0.665170	0.250000
Cr81	Cr8	0.419110	0.753940	0.250000
Cr91	Cr9	0.334830	0.580890	0.250000
Cr101	Cr10	0.753940	0.334830	0.750000
Cr111	Cr11	0.580890	0.246060	0.750000
Cr121	Cr12	0.665170	0.419110	0.750000
O491	O49	0.666670	0.333330	0.250000
O501	O50	0.333330	0.666670	0.750000
O511	O51	0.333330	0.666670	0.250000
O521	O52	0.666670	0.333330	0.750000
