data_OYEWEW_clean_PM
_symmetry_space_group_name_H-M	'P1'
_cell_length_a	30.324900
_cell_length_b	15.786400
_cell_length_c	40.455500
_cell_angle_alpha	90.000000
_cell_angle_beta	90.000000
_cell_angle_gamma	90.000000
_symmetry_Int_Tables_number 1

loop_
_symmetry_equiv_pos_as_xyz
'x,y,z'

loop_
_atom_site_label
_atom_site_type_symbol
_atom_site_fract_x
_atom_site_fract_y
_atom_site_fract_z
Al11	Al1	0.449620	0.540220	0.585500
Al21	Al2	0.477540	0.469240	0.655960
Al31	Al3	0.533610	0.614320	0.621510
Al41	Al4	0.286280	0.890950	0.380010
Al51	Al5	0.229000	0.030700	0.343320
Al61	Al6	0.202180	0.967890	0.415280
C11	C1	0.534870	0.559810	0.553630
C21	C2	0.563710	0.546600	0.523640
C31	C3	0.545720	0.555600	0.492950
H11	H1	0.515800	0.566500	0.490500
C41	C4	0.572860	0.548200	0.465340
H21	H2	0.560800	0.555000	0.444400
C51	C5	0.616210	0.531360	0.468290
C61	C6	0.633150	0.515900	0.500470
H31	H3	0.662000	0.496900	0.503000
C71	C7	0.607660	0.528400	0.527380
H41	H4	0.619900	0.524700	0.548400
C81	C8	0.698960	0.853940	0.394600
C91	C9	0.686670	0.770530	0.405500
C101	C10	0.685580	0.701030	0.384820
H51	H5	0.694400	0.707300	0.362900
C111	C11	0.671920	0.623130	0.395570
H61	H6	0.671000	0.578100	0.380800
C121	C12	0.659360	0.610000	0.428160
C131	C13	0.662190	0.678800	0.449720
H71	H7	0.655700	0.671400	0.472000
C141	C14	0.674480	0.757190	0.438300
H81	H8	0.674700	0.802700	0.452900
C151	C15	0.720090	0.210810	0.411800
C161	C16	0.701940	0.294260	0.418620
C171	C17	0.725130	0.369680	0.412070
H91	H9	0.752900	0.366100	0.402400
C181	C18	0.708900	0.446250	0.419190
H101	H10	0.726000	0.494400	0.415800
C191	C19	0.664520	0.453900	0.432180
C201	C20	0.641230	0.378700	0.438160
H111	H11	0.612100	0.380800	0.445400
C211	C21	0.661670	0.302000	0.433280
H121	H12	0.647400	0.253100	0.440300
C221	C22	0.321860	0.040840	0.347940
C231	C23	0.365260	0.080660	0.338740
C241	C24	0.405070	0.038900	0.345450
H131	H13	0.405000	0.988100	0.357000
C251	C25	0.445120	0.074300	0.334560
H141	H14	0.471500	0.045800	0.338300
C261	C26	0.445340	0.149600	0.318690
C271	C27	0.405830	0.195200	0.313800
C281	C28	0.366750	0.159500	0.323160
H151	H15	0.340600	0.188300	0.319100
C291	C29	0.644350	0.043990	0.360020
C301	C30	0.602170	0.081360	0.346000
C311	C31	0.595410	0.082800	0.312880
H161	H16	0.616700	0.061400	0.298600
C321	C32	0.555970	0.116900	0.300050
H171	H17	0.550300	0.114700	0.277500
C331	C33	0.526600	0.152700	0.320670
C341	C34	0.534380	0.158500	0.354000
H181	H18	0.514000	0.184500	0.367800
C351	C35	0.573880	0.124200	0.367170
H191	H19	0.580700	0.130400	0.389500
C361	C36	0.492580	0.376630	0.188780
C371	C37	0.491910	0.327400	0.219720
C381	C38	0.513730	0.355500	0.247730
H201	H20	0.528500	0.407100	0.247700
C391	C39	0.513240	0.304000	0.276590
H211	H21	0.530900	0.319000	0.294500
C401	C40	0.487790	0.233800	0.278660
C411	C41	0.464880	0.207500	0.250270
H221	H22	0.447700	0.158800	0.251000
C421	C42	0.467780	0.252800	0.221880
H231	H23	0.453100	0.233200	0.203200
C431	C43	0.449470	0.364580	0.600950
C441	C44	0.436990	0.280610	0.588890
C451	C45	0.424260	0.267150	0.556510
H241	H24	0.425300	0.312100	0.541700
C461	C46	0.409850	0.187930	0.545310
H251	H25	0.399400	0.182100	0.523800
C471	C47	0.411120	0.116470	0.566580
C481	C48	0.422940	0.130100	0.599770
H261	H26	0.421700	0.085600	0.614800
C491	C49	0.436650	0.210490	0.610170
H271	H27	0.445800	0.217600	0.631900
C501	C50	0.286590	0.966230	0.445540
C511	C51	0.316670	0.993400	0.473960
C521	C52	0.358960	0.965200	0.472940
H281	H28	0.369100	0.935700	0.454600
C531	C53	0.388470	0.981400	0.500750
H291	H29	0.417100	0.960600	0.501300
C541	C54	0.371360	0.029460	0.526250
C551	C55	0.328530	0.062600	0.525540
H301	H30	0.318400	0.096800	0.542600
C561	C56	0.301110	0.043300	0.498450
H311	H31	0.272600	0.064600	0.497400
C571	C57	0.467090	0.716910	0.591350
C581	C58	0.448800	0.805240	0.584950
C591	C59	0.476060	0.874900	0.586340
H321	H32	0.505400	0.870000	0.592800
C601	C60	0.457700	0.954840	0.577510
H331	H33	0.475000	0.003300	0.578900
C611	C61	0.415650	0.961300	0.567110
C621	C62	0.388620	0.892360	0.568170
H341	H34	0.359100	0.898400	0.562500
C631	C63	0.404330	0.813400	0.577580
H351	H35	0.385500	0.767100	0.578900
C641	C64	0.391520	0.537280	0.641750
C651	C65	0.351010	0.577600	0.655920
C661	C66	0.319870	0.612200	0.634360
H361	H36	0.324900	0.612200	0.611700
C671	C67	0.281260	0.646600	0.647240
H371	H37	0.260000	0.668400	0.633000
C681	C68	0.274390	0.648500	0.680820
C691	C69	0.304930	0.612400	0.702580
H381	H38	0.299600	0.612100	0.725200
C701	C70	0.343770	0.576700	0.689820
H391	H39	0.364500	0.552700	0.703900
C711	C71	0.071930	0.536860	0.652020
C721	C72	0.113460	0.576990	0.661780
C731	C73	0.153500	0.532200	0.658570
H401	H40	0.152800	0.478500	0.649200
C741	C74	0.191530	0.562500	0.668140
H411	H41	0.216900	0.529700	0.666200
C751	C75	0.194110	0.647200	0.681820
C761	C76	0.154350	0.690900	0.685390
H421	H42	0.154700	0.744600	0.694800
C771	C77	0.115010	0.657500	0.675460
H431	H43	0.089200	0.688700	0.677900
C781	C78	0.240900	0.877580	0.811940
C791	C79	0.239130	0.823570	0.780880
C801	C80	0.211910	0.753500	0.779700
H441	H44	0.195300	0.738000	0.798000
C811	C81	0.209710	0.706100	0.750450
H451	H45	0.191300	0.659000	0.749300
C821	C82	0.235050	0.729300	0.722950
C831	C83	0.262040	0.799300	0.725100
H461	H46	0.278800	0.815200	0.706900
C841	C84	0.264630	0.846000	0.753690
H471	H47	0.283400	0.892500	0.754800
N11	N1	0.643750	0.532690	0.439030
N21	N2	0.485750	0.187200	0.308090
N31	N3	0.398520	0.037900	0.554230
N41	N4	0.233370	0.680100	0.693610
O11	O1	0.494650	0.549380	0.552160
O21	O2	0.555900	0.579760	0.579450
O31	O3	0.714010	0.868940	0.366330
O41	O4	0.692720	0.915680	0.414890
O51	O5	0.755750	0.204480	0.394670
O61	O6	0.702930	0.149940	0.425380
O71	O7	0.288090	0.071320	0.339690
O81	O8	0.326970	0.972100	0.364100
O91	O9	0.650740	0.051530	0.390120
O101	O10	0.667580	0.002110	0.340600
O111	O11	0.478900	0.337550	0.163060
O121	O12	0.505880	0.451260	0.189580
O131	O13	0.449740	0.424570	0.579640
O141	O14	0.458950	0.372200	0.630520
O151	O15	0.303950	0.919950	0.423480
O161	O16	0.247840	0.991730	0.446140
O171	O17	0.440200	0.658390	0.585250
O181	O18	0.504650	0.710010	0.602800
O191	O19	0.397070	0.536130	0.612050
O201	O20	0.419710	0.505870	0.662900
O211	O21	0.260310	0.944000	0.810970
O221	O22	0.221900	0.847620	0.836590
O231	O23	0.073870	0.460450	0.641030
O241	O24	0.036050	0.576400	0.656440
O251	O25	0.487500	0.541090	0.621300
O261	O26	0.238880	0.962510	0.379540
Al71	Al7	0.550380	0.459780	0.085500
Al81	Al8	0.522460	0.530760	0.155960
Al91	Al9	0.466390	0.385680	0.121510
Al101	Al10	0.713720	0.109050	0.880010
Al111	Al11	0.771000	0.969300	0.843320
Al121	Al12	0.797820	0.032110	0.915280
C851	C85	0.465130	0.440190	0.053630
C861	C86	0.436290	0.453400	0.023640
C871	C87	0.454280	0.444400	0.992950
H481	H48	0.484200	0.433500	0.990500
C881	C88	0.427140	0.451800	0.965340
H491	H49	0.439200	0.445000	0.944400
C891	C89	0.383790	0.468640	0.968290
C901	C90	0.366850	0.484100	0.000470
H501	H50	0.338000	0.503100	0.003000
C911	C91	0.392340	0.471600	0.027380
H511	H51	0.380100	0.475300	0.048400
C921	C92	0.301040	0.146060	0.894600
C931	C93	0.313330	0.229470	0.905500
C941	C94	0.314420	0.298970	0.884820
H521	H52	0.305600	0.292700	0.862900
C951	C95	0.328080	0.376870	0.895570
H531	H53	0.329000	0.421900	0.880800
C961	C96	0.340640	0.390000	0.928160
C971	C97	0.337810	0.321200	0.949720
H541	H54	0.344300	0.328600	0.972000
C981	C98	0.325520	0.242810	0.938300
H551	H55	0.325300	0.197300	0.952900
C991	C99	0.279910	0.789190	0.911800
C1001	C100	0.298060	0.705740	0.918620
C1011	C101	0.274870	0.630320	0.912070
H561	H56	0.247100	0.633900	0.902400
C1021	C102	0.291100	0.553750	0.919190
H571	H57	0.274000	0.505600	0.915800
C1031	C103	0.335480	0.546100	0.932180
C1041	C104	0.358770	0.621300	0.938160
H581	H58	0.387900	0.619200	0.945400
C1051	C105	0.338330	0.698000	0.933280
H591	H59	0.352600	0.746900	0.940300
C1061	C106	0.678140	0.959160	0.847940
C1071	C107	0.634740	0.919340	0.838740
C1081	C108	0.594930	0.961100	0.845450
H601	H60	0.595000	0.011900	0.857000
C1091	C109	0.554880	0.925700	0.834560
H611	H61	0.528500	0.954200	0.838300
C1101	C110	0.554660	0.850400	0.818690
C1111	C111	0.594170	0.804800	0.813800
C1121	C112	0.633250	0.840500	0.823160
H621	H62	0.659400	0.811700	0.819100
C1131	C113	0.355650	0.956010	0.860020
C1141	C114	0.397830	0.918640	0.846000
C1151	C115	0.404590	0.917200	0.812880
H631	H63	0.383300	0.938600	0.798600
C1161	C116	0.444030	0.883100	0.800050
H641	H64	0.449700	0.885300	0.777500
C1171	C117	0.473400	0.847300	0.820670
C1181	C118	0.465620	0.841500	0.854000
H651	H65	0.486000	0.815500	0.867800
C1191	C119	0.426120	0.875800	0.867170
H661	H66	0.419300	0.869600	0.889500
C1201	C120	0.507420	0.623370	0.688780
C1211	C121	0.508090	0.672600	0.719720
C1221	C122	0.486270	0.644500	0.747730
H671	H67	0.471500	0.592900	0.747700
C1231	C123	0.486760	0.696000	0.776590
H681	H68	0.469100	0.681000	0.794500
C1241	C124	0.512210	0.766200	0.778660
C1251	C125	0.535120	0.792500	0.750270
H691	H69	0.552300	0.841200	0.751000
C1261	C126	0.532220	0.747200	0.721880
H701	H70	0.546900	0.766800	0.703200
C1271	C127	0.550530	0.635420	0.100950
C1281	C128	0.563010	0.719390	0.088890
C1291	C129	0.575740	0.732850	0.056510
H711	H71	0.574700	0.687900	0.041700
C1301	C130	0.590150	0.812070	0.045310
H721	H72	0.600600	0.817900	0.023800
C1311	C131	0.588880	0.883530	0.066580
C1321	C132	0.577060	0.869900	0.099770
H731	H73	0.578300	0.914400	0.114800
C1331	C133	0.563350	0.789510	0.110170
H741	H74	0.554200	0.782400	0.131900
C1341	C134	0.713410	0.033770	0.945540
C1351	C135	0.683330	0.006600	0.973960
C1361	C136	0.641040	0.034800	0.972940
H751	H75	0.630900	0.064300	0.954600
C1371	C137	0.611530	0.018600	0.000750
H761	H76	0.582900	0.039400	0.001300
C1381	C138	0.628640	0.970540	0.026250
C1391	C139	0.671470	0.937400	0.025540
H771	H77	0.681600	0.903200	0.042600
C1401	C140	0.698890	0.956700	0.998450
H781	H78	0.727400	0.935400	0.997400
C1411	C141	0.532910	0.283090	0.091350
C1421	C142	0.551200	0.194760	0.084950
C1431	C143	0.523940	0.125100	0.086340
H791	H79	0.494600	0.130000	0.092800
C1441	C144	0.542300	0.045160	0.077510
H801	H80	0.525000	0.996700	0.078900
C1451	C145	0.584350	0.038700	0.067110
C1461	C146	0.611380	0.107640	0.068170
H811	H81	0.640900	0.101600	0.062500
C1471	C147	0.595670	0.186600	0.077580
H821	H82	0.614500	0.232900	0.078900
C1481	C148	0.608480	0.462720	0.141750
C1491	C149	0.648990	0.422400	0.155920
C1501	C150	0.680130	0.387800	0.134360
H831	H83	0.675100	0.387800	0.111700
C1511	C151	0.718740	0.353400	0.147240
H841	H84	0.740000	0.331600	0.133000
C1521	C152	0.725610	0.351500	0.180820
C1531	C153	0.695070	0.387600	0.202580
H851	H85	0.700400	0.387900	0.225200
C1541	C154	0.656230	0.423300	0.189820
H861	H86	0.635500	0.447300	0.203900
C1551	C155	0.928070	0.463140	0.152020
C1561	C156	0.886540	0.423010	0.161780
C1571	C157	0.846500	0.467800	0.158570
H871	H87	0.847200	0.521500	0.149200
C1581	C158	0.808470	0.437500	0.168140
H881	H88	0.783100	0.470300	0.166200
C1591	C159	0.805890	0.352800	0.181820
C1601	C160	0.845650	0.309100	0.185390
H891	H89	0.845300	0.255400	0.194800
C1611	C161	0.884990	0.342500	0.175460
H901	H90	0.910800	0.311300	0.177900
C1621	C162	0.759100	0.122420	0.311940
C1631	C163	0.760870	0.176430	0.280880
C1641	C164	0.788090	0.246500	0.279700
H911	H91	0.804700	0.262000	0.298000
C1651	C165	0.790290	0.293900	0.250450
H921	H92	0.808700	0.341000	0.249300
C1661	C166	0.764950	0.270700	0.222950
C1671	C167	0.737960	0.200700	0.225100
H931	H93	0.721200	0.184800	0.206900
C1681	C168	0.735370	0.154000	0.253690
H941	H94	0.716600	0.107500	0.254800
N51	N5	0.356250	0.467310	0.939030
N61	N6	0.514250	0.812800	0.808090
N71	N7	0.601480	0.962100	0.054230
N81	N8	0.766630	0.319900	0.193610
O271	O27	0.505350	0.450620	0.052160
O281	O28	0.444100	0.420240	0.079450
O291	O29	0.285990	0.131060	0.866330
O301	O30	0.307280	0.084320	0.914890
O311	O31	0.244250	0.795520	0.894670
O321	O32	0.297070	0.850060	0.925380
O331	O33	0.711910	0.928680	0.839690
O341	O34	0.673030	0.027900	0.864100
O351	O35	0.349260	0.948470	0.890120
O361	O36	0.332420	0.997890	0.840600
O371	O37	0.521100	0.662450	0.663060
O381	O38	0.494120	0.548740	0.689580
O391	O39	0.550260	0.575430	0.079640
O401	O40	0.541050	0.627800	0.130520
O411	O41	0.696050	0.080050	0.923480
O421	O42	0.752160	0.008270	0.946140
O431	O43	0.559800	0.341610	0.085250
O441	O44	0.495350	0.289990	0.102800
O451	O45	0.602930	0.463870	0.112050
O461	O46	0.580290	0.494130	0.162900
O471	O47	0.739690	0.056000	0.310970
O481	O48	0.778100	0.152380	0.336590
O491	O49	0.926130	0.539550	0.141030
O501	O50	0.963950	0.423600	0.156440
O511	O51	0.512500	0.458910	0.121300
O521	O52	0.761120	0.037490	0.879540
Al131	Al13	0.949620	0.459780	0.585500
Al141	Al14	0.977540	0.530760	0.655960
Al151	Al15	0.033610	0.385680	0.621510
Al161	Al16	0.786280	0.109050	0.380010
Al171	Al17	0.729000	0.969300	0.343320
Al181	Al18	0.702180	0.032110	0.415280
C1691	C169	0.034870	0.440190	0.553630
C1701	C170	0.063710	0.453400	0.523640
C1711	C171	0.045720	0.444400	0.492950
H951	H95	0.015800	0.433500	0.490500
C1721	C172	0.072860	0.451800	0.465340
H961	H96	0.060800	0.445000	0.444400
C1731	C173	0.116210	0.468640	0.468290
C1741	C174	0.133150	0.484100	0.500470
H971	H97	0.162000	0.503100	0.503000
C1751	C175	0.107660	0.471600	0.527380
H981	H98	0.119900	0.475300	0.548400
C1761	C176	0.198960	0.146060	0.394600
C1771	C177	0.186670	0.229470	0.405500
C1781	C178	0.185580	0.298970	0.384820
H991	H99	0.194400	0.292700	0.362900
C1791	C179	0.171920	0.376870	0.395570
H1001	H100	0.171000	0.421900	0.380800
C1801	C180	0.159360	0.390000	0.428160
C1811	C181	0.162190	0.321200	0.449720
H1011	H101	0.155700	0.328600	0.472000
C1821	C182	0.174480	0.242810	0.438300
H1021	H102	0.174700	0.197300	0.452900
C1831	C183	0.220090	0.789190	0.411800
C1841	C184	0.201940	0.705740	0.418620
C1851	C185	0.225130	0.630320	0.412070
H1031	H103	0.252900	0.633900	0.402400
C1861	C186	0.208900	0.553750	0.419190
H1041	H104	0.226000	0.505600	0.415800
C1871	C187	0.164520	0.546100	0.432180
C1881	C188	0.141230	0.621300	0.438160
H1051	H105	0.112100	0.619200	0.445400
C1891	C189	0.161670	0.698000	0.433280
H1061	H106	0.147400	0.746900	0.440300
C1901	C190	0.821860	0.959160	0.347940
C1911	C191	0.865260	0.919340	0.338740
C1921	C192	0.905070	0.961100	0.345450
H1071	H107	0.905000	0.011900	0.357000
C1931	C193	0.945120	0.925700	0.334560
H1081	H108	0.971500	0.954200	0.338300
C1941	C194	0.945340	0.850400	0.318690
C1951	C195	0.905830	0.804800	0.313800
C1961	C196	0.866750	0.840500	0.323160
H1091	H109	0.840600	0.811700	0.319100
C1971	C197	0.144350	0.956010	0.360020
C1981	C198	0.102170	0.918640	0.346000
C1991	C199	0.095410	0.917200	0.312880
H1101	H110	0.116700	0.938600	0.298600
C2001	C200	0.055970	0.883100	0.300050
H1111	H111	0.050300	0.885300	0.277500
C2011	C201	0.026600	0.847300	0.320670
C2021	C202	0.034380	0.841500	0.354000
H1121	H112	0.014000	0.815500	0.367800
C2031	C203	0.073880	0.875800	0.367170
H1131	H113	0.080700	0.869600	0.389500
C2041	C204	0.992580	0.623370	0.188780
C2051	C205	0.991910	0.672600	0.219720
C2061	C206	0.013730	0.644500	0.247730
H1141	H114	0.028500	0.592900	0.247700
C2071	C207	0.013240	0.696000	0.276590
H1151	H115	0.030900	0.681000	0.294500
C2081	C208	0.987790	0.766200	0.278660
C2091	C209	0.964880	0.792500	0.250270
H1161	H116	0.947700	0.841200	0.251000
C2101	C210	0.967780	0.747200	0.221880
H1171	H117	0.953100	0.766800	0.203200
C2111	C211	0.949470	0.635420	0.600950
C2121	C212	0.936990	0.719390	0.588890
C2131	C213	0.924260	0.732850	0.556510
H1181	H118	0.925300	0.687900	0.541700
C2141	C214	0.909850	0.812070	0.545310
H1191	H119	0.899400	0.817900	0.523800
C2151	C215	0.911120	0.883530	0.566580
C2161	C216	0.922940	0.869900	0.599770
H1201	H120	0.921700	0.914400	0.614800
C2171	C217	0.936650	0.789510	0.610170
H1211	H121	0.945800	0.782400	0.631900
C2181	C218	0.786590	0.033770	0.445540
C2191	C219	0.816670	0.006600	0.473960
C2201	C220	0.858960	0.034800	0.472940
H1221	H122	0.869100	0.064300	0.454600
C2211	C221	0.888470	0.018600	0.500750
H1231	H123	0.917100	0.039400	0.501300
C2221	C222	0.871360	0.970540	0.526250
C2231	C223	0.828530	0.937400	0.525540
H1241	H124	0.818400	0.903200	0.542600
C2241	C224	0.801110	0.956700	0.498450
H1251	H125	0.772600	0.935400	0.497400
C2251	C225	0.967090	0.283090	0.591350
C2261	C226	0.948800	0.194760	0.584950
C2271	C227	0.976060	0.125100	0.586340
H1261	H126	0.005400	0.130000	0.592800
C2281	C228	0.957700	0.045160	0.577510
H1271	H127	0.975000	0.996700	0.578900
C2291	C229	0.915650	0.038700	0.567110
C2301	C230	0.888620	0.107640	0.568170
H1281	H128	0.859100	0.101600	0.562500
C2311	C231	0.904330	0.186600	0.577580
H1291	H129	0.885500	0.232900	0.578900
C2321	C232	0.891520	0.462720	0.641750
C2331	C233	0.851010	0.422400	0.655920
C2341	C234	0.819870	0.387800	0.634360
H1301	H130	0.824900	0.387800	0.611700
C2351	C235	0.781260	0.353400	0.647240
H1311	H131	0.760000	0.331600	0.633000
C2361	C236	0.774390	0.351500	0.680820
C2371	C237	0.804930	0.387600	0.702580
H1321	H132	0.799600	0.387900	0.725200
C2381	C238	0.843770	0.423300	0.689820
H1331	H133	0.864500	0.447300	0.703900
C2391	C239	0.571930	0.463140	0.652020
C2401	C240	0.613460	0.423010	0.661780
C2411	C241	0.653500	0.467800	0.658570
H1341	H134	0.652800	0.521500	0.649200
C2421	C242	0.691530	0.437500	0.668140
H1351	H135	0.716900	0.470300	0.666200
C2431	C243	0.694110	0.352800	0.681820
C2441	C244	0.654350	0.309100	0.685390
H1361	H136	0.654700	0.255400	0.694800
C2451	C245	0.615010	0.342500	0.675460
H1371	H137	0.589200	0.311300	0.677900
C2461	C246	0.740900	0.122420	0.811940
C2471	C247	0.739130	0.176430	0.780880
C2481	C248	0.711910	0.246500	0.779700
H1381	H138	0.695300	0.262000	0.798000
C2491	C249	0.709710	0.293900	0.750450
H1391	H139	0.691300	0.341000	0.749300
C2501	C250	0.735050	0.270700	0.722950
C2511	C251	0.762040	0.200700	0.725100
H1401	H140	0.778800	0.184800	0.706900
C2521	C252	0.764630	0.154000	0.753690
H1411	H141	0.783400	0.107500	0.754800
N91	N9	0.143750	0.467310	0.439030
N101	N10	0.985750	0.812800	0.308090
N111	N11	0.898520	0.962100	0.554230
N121	N12	0.733370	0.319900	0.693610
O531	O53	0.994650	0.450620	0.552160
O541	O54	0.055900	0.420240	0.579450
O551	O55	0.214010	0.131060	0.366330
O561	O56	0.192720	0.084320	0.414890
O571	O57	0.255750	0.795520	0.394670
O581	O58	0.202930	0.850060	0.425380
O591	O59	0.788090	0.928680	0.339690
O601	O60	0.826970	0.027900	0.364100
O611	O61	0.150740	0.948470	0.390120
O621	O62	0.167580	0.997890	0.340600
O631	O63	0.978900	0.662450	0.163060
O641	O64	0.005880	0.548740	0.189580
O651	O65	0.949740	0.575430	0.579640
O661	O66	0.958950	0.627800	0.630520
O671	O67	0.803950	0.080050	0.423480
O681	O68	0.747840	0.008270	0.446140
O691	O69	0.940200	0.341610	0.585250
O701	O70	0.004650	0.289990	0.602800
O711	O71	0.897070	0.463870	0.612050
O721	O72	0.919710	0.494130	0.662900
O731	O73	0.760310	0.056000	0.810970
O741	O74	0.721900	0.152380	0.836590
O751	O75	0.573870	0.539550	0.641030
O761	O76	0.536050	0.423600	0.656440
O771	O77	0.987500	0.458910	0.621300
O781	O78	0.738880	0.037490	0.379540
Al191	Al19	0.050380	0.540220	0.085500
Al201	Al20	0.022460	0.469240	0.155960
Al211	Al21	0.966390	0.614320	0.121510
Al221	Al22	0.213720	0.890950	0.880010
Al231	Al23	0.271000	0.030700	0.843320
Al241	Al24	0.297820	0.967890	0.915280
C2531	C253	0.965130	0.559810	0.053630
C2541	C254	0.936290	0.546600	0.023640
C2551	C255	0.954280	0.555600	0.992950
H1421	H142	0.984200	0.566500	0.990500
C2561	C256	0.927140	0.548200	0.965340
H1431	H143	0.939200	0.555000	0.944400
C2571	C257	0.883790	0.531360	0.968290
C2581	C258	0.866850	0.515900	0.000470
H1441	H144	0.838000	0.496900	0.003000
C2591	C259	0.892340	0.528400	0.027380
H1451	H145	0.880100	0.524700	0.048400
C2601	C260	0.801040	0.853940	0.894600
C2611	C261	0.813330	0.770530	0.905500
C2621	C262	0.814420	0.701030	0.884820
H1461	H146	0.805600	0.707300	0.862900
C2631	C263	0.828080	0.623130	0.895570
H1471	H147	0.829000	0.578100	0.880800
C2641	C264	0.840640	0.610000	0.928160
C2651	C265	0.837810	0.678800	0.949720
H1481	H148	0.844300	0.671400	0.972000
C2661	C266	0.825520	0.757190	0.938300
H1491	H149	0.825300	0.802700	0.952900
C2671	C267	0.779910	0.210810	0.911800
C2681	C268	0.798060	0.294260	0.918620
C2691	C269	0.774870	0.369680	0.912070
H1501	H150	0.747100	0.366100	0.902400
C2701	C270	0.791100	0.446250	0.919190
H1511	H151	0.774000	0.494400	0.915800
C2711	C271	0.835480	0.453900	0.932180
C2721	C272	0.858770	0.378700	0.938160
H1521	H152	0.887900	0.380800	0.945400
C2731	C273	0.838330	0.302000	0.933280
H1531	H153	0.852600	0.253100	0.940300
C2741	C274	0.178140	0.040840	0.847940
C2751	C275	0.134740	0.080660	0.838740
C2761	C276	0.094930	0.038900	0.845450
H1541	H154	0.095000	0.988100	0.857000
C2771	C277	0.054880	0.074300	0.834560
H1551	H155	0.028500	0.045800	0.838300
C2781	C278	0.054660	0.149600	0.818690
C2791	C279	0.094170	0.195200	0.813800
C2801	C280	0.133250	0.159500	0.823160
H1561	H156	0.159400	0.188300	0.819100
C2811	C281	0.855650	0.043990	0.860020
C2821	C282	0.897830	0.081360	0.846000
C2831	C283	0.904590	0.082800	0.812880
H1571	H157	0.883300	0.061400	0.798600
C2841	C284	0.944030	0.116900	0.800050
H1581	H158	0.949700	0.114700	0.777500
C2851	C285	0.973400	0.152700	0.820670
C2861	C286	0.965620	0.158500	0.854000
H1591	H159	0.986000	0.184500	0.867800
C2871	C287	0.926120	0.124200	0.867170
H1601	H160	0.919300	0.130400	0.889500
C2881	C288	0.007420	0.376630	0.688780
C2891	C289	0.008090	0.327400	0.719720
C2901	C290	0.986270	0.355500	0.747730
H1611	H161	0.971500	0.407100	0.747700
C2911	C291	0.986760	0.304000	0.776590
H1621	H162	0.969100	0.319000	0.794500
C2921	C292	0.012210	0.233800	0.778660
C2931	C293	0.035120	0.207500	0.750270
H1631	H163	0.052300	0.158800	0.751000
C2941	C294	0.032220	0.252800	0.721880
H1641	H164	0.046900	0.233200	0.703200
C2951	C295	0.050530	0.364580	0.100950
C2961	C296	0.063010	0.280610	0.088890
C2971	C297	0.075740	0.267150	0.056510
H1651	H165	0.074700	0.312100	0.041700
C2981	C298	0.090150	0.187930	0.045310
H1661	H166	0.100600	0.182100	0.023800
C2991	C299	0.088880	0.116470	0.066580
C3001	C300	0.077060	0.130100	0.099770
H1671	H167	0.078300	0.085600	0.114800
C3011	C301	0.063350	0.210490	0.110170
H1681	H168	0.054200	0.217600	0.131900
C3021	C302	0.213410	0.966230	0.945540
C3031	C303	0.183330	0.993400	0.973960
C3041	C304	0.141040	0.965200	0.972940
H1691	H169	0.130900	0.935700	0.954600
C3051	C305	0.111530	0.981400	0.000750
H1701	H170	0.082900	0.960600	0.001300
C3061	C306	0.128640	0.029460	0.026250
C3071	C307	0.171470	0.062600	0.025540
H1711	H171	0.181600	0.096800	0.042600
C3081	C308	0.198890	0.043300	0.998450
H1721	H172	0.227400	0.064600	0.997400
C3091	C309	0.032910	0.716910	0.091350
C3101	C310	0.051200	0.805240	0.084950
C3111	C311	0.023940	0.874900	0.086340
H1731	H173	0.994600	0.870000	0.092800
C3121	C312	0.042300	0.954840	0.077510
H1741	H174	0.025000	0.003300	0.078900
C3131	C313	0.084350	0.961300	0.067110
C3141	C314	0.111380	0.892360	0.068170
H1751	H175	0.140900	0.898400	0.062500
C3151	C315	0.095670	0.813400	0.077580
H1761	H176	0.114500	0.767100	0.078900
C3161	C316	0.108480	0.537280	0.141750
C3171	C317	0.148990	0.577600	0.155920
C3181	C318	0.180130	0.612200	0.134360
H1771	H177	0.175100	0.612200	0.111700
C3191	C319	0.218740	0.646600	0.147240
H1781	H178	0.240000	0.668400	0.133000
C3201	C320	0.225610	0.648500	0.180820
C3211	C321	0.195070	0.612400	0.202580
H1791	H179	0.200400	0.612100	0.225200
C3221	C322	0.156230	0.576700	0.189820
H1801	H180	0.135500	0.552700	0.203900
C3231	C323	0.428070	0.536860	0.152020
C3241	C324	0.386540	0.576990	0.161780
C3251	C325	0.346500	0.532200	0.158570
H1811	H181	0.347200	0.478500	0.149200
C3261	C326	0.308470	0.562500	0.168140
H1821	H182	0.283100	0.529700	0.166200
C3271	C327	0.305890	0.647200	0.181820
C3281	C328	0.345650	0.690900	0.185390
H1831	H183	0.345300	0.744600	0.194800
C3291	C329	0.384990	0.657500	0.175460
H1841	H184	0.410800	0.688700	0.177900
C3301	C330	0.259100	0.877580	0.311940
C3311	C331	0.260870	0.823570	0.280880
C3321	C332	0.288090	0.753500	0.279700
H1851	H185	0.304700	0.738000	0.298000
C3331	C333	0.290290	0.706100	0.250450
H1861	H186	0.308700	0.659000	0.249300
C3341	C334	0.264950	0.729300	0.222950
C3351	C335	0.237960	0.799300	0.225100
H1871	H187	0.221200	0.815200	0.206900
C3361	C336	0.235370	0.846000	0.253690
H1881	H188	0.216600	0.892500	0.254800
N131	N13	0.856250	0.532690	0.939030
N141	N14	0.014250	0.187200	0.808090
N151	N15	0.101480	0.037900	0.054230
N161	N16	0.266630	0.680100	0.193610
O791	O79	0.005350	0.549380	0.052160
O801	O80	0.944100	0.579760	0.079450
O811	O81	0.785990	0.868940	0.866330
O821	O82	0.807280	0.915680	0.914890
O831	O83	0.744250	0.204480	0.894670
O841	O84	0.797070	0.149940	0.925380
O851	O85	0.211910	0.071320	0.839690
O861	O86	0.173030	0.972100	0.864100
O871	O87	0.849260	0.051530	0.890120
O881	O88	0.832420	0.002110	0.840600
O891	O89	0.021100	0.337550	0.663060
O901	O90	0.994120	0.451260	0.689580
O911	O91	0.050260	0.424570	0.079640
O921	O92	0.041050	0.372200	0.130520
O931	O93	0.196050	0.919950	0.923480
O941	O94	0.252160	0.991730	0.946140
O951	O95	0.059800	0.658390	0.085250
O961	O96	0.995350	0.710010	0.102800
O971	O97	0.102930	0.536130	0.112050
O981	O98	0.080290	0.505870	0.162900
O991	O99	0.239690	0.944000	0.310970
O1001	O100	0.278100	0.847620	0.336590
O1011	O101	0.426130	0.460450	0.141030
O1021	O102	0.463950	0.576400	0.156440
O1031	O103	0.012500	0.541090	0.121300
O1041	O104	0.261120	0.962510	0.879540
