data_OYEWIA_clean_PM
_symmetry_space_group_name_H-M	'P1'
_cell_length_a	16.279600
_cell_length_b	16.755400
_cell_length_c	33.211700
_cell_angle_alpha	90.000000
_cell_angle_beta	90.000000
_cell_angle_gamma	90.000000
_symmetry_Int_Tables_number 1

loop_
_symmetry_equiv_pos_as_xyz
'x,y,z'

loop_
_atom_site_label
_atom_site_type_symbol
_atom_site_fract_x
_atom_site_fract_y
_atom_site_fract_z
Al11	Al1	0.357050	0.616570	0.091370
O11	O1	0.393110	0.644120	0.040260
O21	O2	0.289270	0.709000	0.093230
O31	O3	0.317290	0.594620	0.144950
O41	O4	0.441710	0.682950	0.114410
O51	O5	0.422050	0.527220	0.092380
H11	H1	0.438100	0.621700	0.034600
C11	C1	0.297900	0.775730	0.075440
O61	O6	0.311770	0.783400	0.038380
C21	C2	0.293200	0.847900	0.100280
C31	C3	0.291300	0.842480	0.142220
C41	C4	0.294000	0.923640	0.082840
C51	C5	0.293900	0.910300	0.165520
H21	H2	0.288400	0.792700	0.154500
C61	C6	0.294800	0.991300	0.106420
H31	H3	0.294000	0.928500	0.054900
H41	H4	0.294600	0.905500	0.193400
C71	C7	0.295500	0.985500	0.148300
H51	H5	0.294800	0.041400	0.094300
N11	N1	0.297700	0.054300	0.171810
C81	C8	0.260000	0.056040	0.210520
C91	C9	0.344600	0.121700	0.159030
C101	C10	0.300400	0.092500	0.242980
C111	C11	0.182000	0.023300	0.215960
C121	C12	0.311100	0.197800	0.163890
C131	C13	0.423300	0.114200	0.143070
C141	C14	0.263600	0.093700	0.280400
H61	H6	0.351700	0.115800	0.239300
C151	C15	0.145900	0.024100	0.254240
H71	H7	0.154100	0.001100	0.194300
H81	H8	0.258100	0.203800	0.174000
C161	C16	0.356800	0.264100	0.153710
C171	C17	0.468500	0.180300	0.132580
H91	H9	0.445600	0.063700	0.139400
C181	C18	0.186100	0.060100	0.286020
H101	H10	0.290700	0.117100	0.302000
H111	H11	0.095000	0.000300	0.258200
C191	C19	0.435600	0.256690	0.137200
H121	H12	0.334900	0.314700	0.157900
H131	H13	0.521200	0.174100	0.122300
C201	C20	0.144400	0.061480	0.326420
C211	C21	0.485720	0.328900	0.127420
O71	O7	0.073630	0.029690	0.327900
O81	O8	0.452240	0.395400	0.133230
H141	H14	0.084900	0.993500	0.426200
Al21	Al2	0.642950	0.383430	0.091370
O91	O9	0.606890	0.355880	0.040260
O101	O10	0.710730	0.291000	0.093230
O111	O11	0.682710	0.405380	0.144950
O121	O12	0.558290	0.317050	0.114410
O131	O13	0.577950	0.472780	0.092380
H151	H15	0.561900	0.378300	0.034600
C221	C22	0.702100	0.224270	0.075440
O141	O14	0.688230	0.216600	0.038380
C231	C23	0.706800	0.152100	0.100280
C241	C24	0.708700	0.157520	0.142220
C251	C25	0.706000	0.076360	0.082840
C261	C26	0.706100	0.089700	0.165520
H161	H16	0.711600	0.207300	0.154500
C271	C27	0.705200	0.008700	0.106420
H171	H17	0.706000	0.071500	0.054900
H181	H18	0.705400	0.094500	0.193400
C281	C28	0.704500	0.014500	0.148300
H191	H19	0.705200	0.958600	0.094300
N21	N2	0.702300	0.945700	0.171810
C291	C29	0.740000	0.943960	0.210520
C301	C30	0.655400	0.878300	0.159030
C311	C31	0.699600	0.907500	0.242980
C321	C32	0.818000	0.976700	0.215960
C331	C33	0.688900	0.802200	0.163890
C341	C34	0.576700	0.885800	0.143070
C351	C35	0.736400	0.906300	0.280400
H201	H20	0.648300	0.884200	0.239300
C361	C36	0.854100	0.975900	0.254240
H211	H21	0.845900	0.998900	0.194300
H221	H22	0.741900	0.796200	0.174000
C371	C37	0.643200	0.735900	0.153710
C381	C38	0.531500	0.819700	0.132580
H231	H23	0.554400	0.936300	0.139400
C391	C39	0.813900	0.939900	0.286020
H241	H24	0.709300	0.882900	0.302000
H251	H25	0.905000	0.999700	0.258200
C401	C40	0.564400	0.743310	0.137200
H261	H26	0.665100	0.685300	0.157900
H271	H27	0.478800	0.825900	0.122300
C411	C41	0.855600	0.938520	0.326420
C421	C42	0.514280	0.671100	0.127420
O151	O15	0.926370	0.970310	0.327900
O161	O16	0.547760	0.604600	0.133230
H281	H28	0.915100	0.006500	0.426200
Al31	Al3	0.142950	0.116570	0.408630
O171	O17	0.106890	0.144120	0.459740
O181	O18	0.210730	0.209000	0.406770
O191	O19	0.182710	0.094620	0.355050
O201	O20	0.058290	0.182950	0.385590
O211	O21	0.077950	0.027220	0.407620
H291	H29	0.061900	0.121700	0.465400
C431	C43	0.202100	0.275730	0.424560
O221	O22	0.188230	0.283400	0.461620
C441	C44	0.206800	0.347900	0.399720
C451	C45	0.208700	0.342480	0.357780
C461	C46	0.206000	0.423640	0.417160
C471	C47	0.206100	0.410300	0.334480
H301	H30	0.211600	0.292700	0.345500
C481	C48	0.205200	0.491300	0.393580
H311	H31	0.206000	0.428500	0.445100
H321	H32	0.205400	0.405500	0.306600
C491	C49	0.204500	0.485500	0.351700
H331	H33	0.205200	0.541400	0.405700
N31	N3	0.202300	0.554300	0.328190
C501	C50	0.240000	0.556040	0.289480
C511	C51	0.155400	0.621700	0.340970
C521	C52	0.199600	0.592500	0.257020
C531	C53	0.318000	0.523300	0.284040
C541	C54	0.188900	0.697800	0.336110
C551	C55	0.076700	0.614200	0.356930
C561	C56	0.236400	0.593700	0.219600
H341	H34	0.148300	0.615800	0.260700
C571	C57	0.354100	0.524100	0.245760
H351	H35	0.345900	0.501100	0.305700
H361	H36	0.241900	0.703800	0.326000
C581	C58	0.143200	0.764100	0.346290
C591	C59	0.031500	0.680300	0.367420
H371	H37	0.054400	0.563700	0.360600
C601	C60	0.313900	0.560100	0.213980
H381	H38	0.209300	0.617100	0.198000
H391	H39	0.405000	0.500300	0.241800
C611	C61	0.064400	0.756690	0.362800
H401	H40	0.165100	0.814700	0.342100
H411	H41	0.978800	0.674100	0.377700
C621	C62	0.355600	0.561480	0.173580
C631	C63	0.014280	0.828900	0.372580
O231	O23	0.426370	0.529690	0.172100
O241	O24	0.047760	0.895400	0.366770
H421	H42	0.415100	0.493500	0.073800
Al41	Al4	0.857050	0.883430	0.408630
O251	O25	0.893110	0.855880	0.459740
O261	O26	0.789270	0.791000	0.406770
O271	O27	0.817290	0.905380	0.355050
O281	O28	0.941710	0.817050	0.385590
O291	O29	0.922050	0.972780	0.407620
H431	H43	0.938100	0.878300	0.465400
C641	C64	0.797900	0.724270	0.424560
O301	O30	0.811770	0.716600	0.461620
C651	C65	0.793200	0.652100	0.399720
C661	C66	0.791300	0.657520	0.357780
C671	C67	0.794000	0.576360	0.417160
C681	C68	0.793900	0.589700	0.334480
H441	H44	0.788400	0.707300	0.345500
C691	C69	0.794800	0.508700	0.393580
H451	H45	0.794000	0.571500	0.445100
H461	H46	0.794600	0.594500	0.306600
C701	C70	0.795500	0.514500	0.351700
H471	H47	0.794800	0.458600	0.405700
N41	N4	0.797700	0.445700	0.328190
C711	C71	0.760000	0.443960	0.289480
C721	C72	0.844600	0.378300	0.340970
C731	C73	0.800400	0.407500	0.257020
C741	C74	0.682000	0.476700	0.284040
C751	C75	0.811100	0.302200	0.336110
C761	C76	0.923300	0.385800	0.356930
C771	C77	0.763600	0.406300	0.219600
H481	H48	0.851700	0.384200	0.260700
C781	C78	0.645900	0.475900	0.245760
H491	H49	0.654100	0.498900	0.305700
H501	H50	0.758100	0.296200	0.326000
C791	C79	0.856800	0.235900	0.346290
C801	C80	0.968500	0.319700	0.367420
H511	H51	0.945600	0.436300	0.360600
C811	C81	0.686100	0.439900	0.213980
H521	H52	0.790700	0.382900	0.198000
H531	H53	0.595000	0.499700	0.241800
C821	C82	0.935600	0.243310	0.362800
H541	H54	0.834900	0.185300	0.342100
H551	H55	0.021200	0.325900	0.377700
C831	C83	0.644400	0.438520	0.173580
C841	C84	0.985720	0.171100	0.372580
O311	O31	0.573630	0.470310	0.172100
O321	O32	0.952240	0.104600	0.366770
H561	H56	0.584900	0.506500	0.073800
Al51	Al5	0.642950	0.383430	0.908630
O331	O33	0.606890	0.355880	0.959740
O341	O34	0.710730	0.291000	0.906770
O351	O35	0.682710	0.405380	0.855050
O361	O36	0.558290	0.317050	0.885590
O371	O37	0.577950	0.472780	0.907620
H571	H57	0.561900	0.378300	0.965400
C851	C85	0.702100	0.224270	0.924560
O381	O38	0.688230	0.216600	0.961620
C861	C86	0.706800	0.152100	0.899720
C871	C87	0.708700	0.157520	0.857780
C881	C88	0.706000	0.076360	0.917160
C891	C89	0.706100	0.089700	0.834480
H581	H58	0.711600	0.207300	0.845500
C901	C90	0.705200	0.008700	0.893580
H591	H59	0.706000	0.071500	0.945100
H601	H60	0.705400	0.094500	0.806600
C911	C91	0.704500	0.014500	0.851700
H611	H61	0.705200	0.958600	0.905700
N51	N5	0.702300	0.945700	0.828190
C921	C92	0.740000	0.943960	0.789480
C931	C93	0.655400	0.878300	0.840970
C941	C94	0.699600	0.907500	0.757020
C951	C95	0.818000	0.976700	0.784040
C961	C96	0.688900	0.802200	0.836110
C971	C97	0.576700	0.885800	0.856930
C981	C98	0.736400	0.906300	0.719600
H621	H62	0.648300	0.884200	0.760700
C991	C99	0.854100	0.975900	0.745760
H631	H63	0.845900	0.998900	0.805700
H641	H64	0.741900	0.796200	0.826000
C1001	C100	0.643200	0.735900	0.846290
C1011	C101	0.531500	0.819700	0.867420
H651	H65	0.554400	0.936300	0.860600
C1021	C102	0.813900	0.939900	0.713980
H661	H66	0.709300	0.882900	0.698000
H671	H67	0.905000	0.999700	0.741800
C1031	C103	0.564400	0.743310	0.862800
H681	H68	0.665100	0.685300	0.842100
H691	H69	0.478800	0.825900	0.877700
C1041	C104	0.855600	0.938520	0.673580
C1051	C105	0.514280	0.671100	0.872580
O391	O39	0.926370	0.970310	0.672100
O401	O40	0.547760	0.604600	0.866770
H701	H70	0.915100	0.006500	0.573800
Al61	Al6	0.357050	0.616570	0.908630
O411	O41	0.393110	0.644120	0.959740
O421	O42	0.289270	0.709000	0.906770
O431	O43	0.317290	0.594620	0.855050
O441	O44	0.441710	0.682950	0.885590
O451	O45	0.422050	0.527220	0.907620
H711	H71	0.438100	0.621700	0.965400
C1061	C106	0.297900	0.775730	0.924560
O461	O46	0.311770	0.783400	0.961620
C1071	C107	0.293200	0.847900	0.899720
C1081	C108	0.291300	0.842480	0.857780
C1091	C109	0.294000	0.923640	0.917160
C1101	C110	0.293900	0.910300	0.834480
H721	H72	0.288400	0.792700	0.845500
C1111	C111	0.294800	0.991300	0.893580
H731	H73	0.294000	0.928500	0.945100
H741	H74	0.294600	0.905500	0.806600
C1121	C112	0.295500	0.985500	0.851700
H751	H75	0.294800	0.041400	0.905700
N61	N6	0.297700	0.054300	0.828190
C1131	C113	0.260000	0.056040	0.789480
C1141	C114	0.344600	0.121700	0.840970
C1151	C115	0.300400	0.092500	0.757020
C1161	C116	0.182000	0.023300	0.784040
C1171	C117	0.311100	0.197800	0.836110
C1181	C118	0.423300	0.114200	0.856930
C1191	C119	0.263600	0.093700	0.719600
H761	H76	0.351700	0.115800	0.760700
C1201	C120	0.145900	0.024100	0.745760
H771	H77	0.154100	0.001100	0.805700
H781	H78	0.258100	0.203800	0.826000
C1211	C121	0.356800	0.264100	0.846290
C1221	C122	0.468500	0.180300	0.867420
H791	H79	0.445600	0.063700	0.860600
C1231	C123	0.186100	0.060100	0.713980
H801	H80	0.290700	0.117100	0.698000
H811	H81	0.095000	0.000300	0.741800
C1241	C124	0.435600	0.256690	0.862800
H821	H82	0.334900	0.314700	0.842100
H831	H83	0.521200	0.174100	0.877700
C1251	C125	0.144400	0.061480	0.673580
C1261	C126	0.485720	0.328900	0.872580
O471	O47	0.073630	0.029690	0.672100
O481	O48	0.452240	0.395400	0.866770
H841	H84	0.084900	0.993500	0.573800
Al71	Al7	0.857050	0.883430	0.591370
O491	O49	0.893110	0.855880	0.540260
O501	O50	0.789270	0.791000	0.593230
O511	O51	0.817290	0.905380	0.644950
O521	O52	0.941710	0.817050	0.614410
O531	O53	0.922050	0.972780	0.592380
H851	H85	0.938100	0.878300	0.534600
C1271	C127	0.797900	0.724270	0.575440
O541	O54	0.811770	0.716600	0.538380
C1281	C128	0.793200	0.652100	0.600280
C1291	C129	0.791300	0.657520	0.642220
C1301	C130	0.794000	0.576360	0.582840
C1311	C131	0.793900	0.589700	0.665520
H861	H86	0.788400	0.707300	0.654500
C1321	C132	0.794800	0.508700	0.606420
H871	H87	0.794000	0.571500	0.554900
H881	H88	0.794600	0.594500	0.693400
C1331	C133	0.795500	0.514500	0.648300
H891	H89	0.794800	0.458600	0.594300
N71	N7	0.797700	0.445700	0.671810
C1341	C134	0.760000	0.443960	0.710520
C1351	C135	0.844600	0.378300	0.659030
C1361	C136	0.800400	0.407500	0.742980
C1371	C137	0.682000	0.476700	0.715960
C1381	C138	0.811100	0.302200	0.663890
C1391	C139	0.923300	0.385800	0.643070
C1401	C140	0.763600	0.406300	0.780400
H901	H90	0.851700	0.384200	0.739300
C1411	C141	0.645900	0.475900	0.754240
H911	H91	0.654100	0.498900	0.694300
H921	H92	0.758100	0.296200	0.674000
C1421	C142	0.856800	0.235900	0.653710
C1431	C143	0.968500	0.319700	0.632580
H931	H93	0.945600	0.436300	0.639400
C1441	C144	0.686100	0.439900	0.786020
H941	H94	0.790700	0.382900	0.802000
H951	H95	0.595000	0.499700	0.758200
C1451	C145	0.935600	0.243310	0.637200
H961	H96	0.834900	0.185300	0.657900
H971	H97	0.021200	0.325900	0.622300
C1461	C146	0.644400	0.438520	0.826420
C1471	C147	0.985720	0.171100	0.627420
O551	O55	0.573630	0.470310	0.827900
O561	O56	0.952240	0.104600	0.633230
H981	H98	0.584900	0.506500	0.926200
Al81	Al8	0.142950	0.116570	0.591370
O571	O57	0.106890	0.144120	0.540260
O581	O58	0.210730	0.209000	0.593230
O591	O59	0.182710	0.094620	0.644950
O601	O60	0.058290	0.182950	0.614410
O611	O61	0.077950	0.027220	0.592380
H991	H99	0.061900	0.121700	0.534600
C1481	C148	0.202100	0.275730	0.575440
O621	O62	0.188230	0.283400	0.538380
C1491	C149	0.206800	0.347900	0.600280
C1501	C150	0.208700	0.342480	0.642220
C1511	C151	0.206000	0.423640	0.582840
C1521	C152	0.206100	0.410300	0.665520
H1001	H100	0.211600	0.292700	0.654500
C1531	C153	0.205200	0.491300	0.606420
H1011	H101	0.206000	0.428500	0.554900
H1021	H102	0.205400	0.405500	0.693400
C1541	C154	0.204500	0.485500	0.648300
H1031	H103	0.205200	0.541400	0.594300
N81	N8	0.202300	0.554300	0.671810
C1551	C155	0.240000	0.556040	0.710520
C1561	C156	0.155400	0.621700	0.659030
C1571	C157	0.199600	0.592500	0.742980
C1581	C158	0.318000	0.523300	0.715960
C1591	C159	0.188900	0.697800	0.663890
C1601	C160	0.076700	0.614200	0.643070
C1611	C161	0.236400	0.593700	0.780400
H1041	H104	0.148300	0.615800	0.739300
C1621	C162	0.354100	0.524100	0.754240
H1051	H105	0.345900	0.501100	0.694300
H1061	H106	0.241900	0.703800	0.674000
C1631	C163	0.143200	0.764100	0.653710
C1641	C164	0.031500	0.680300	0.632580
H1071	H107	0.054400	0.563700	0.639400
C1651	C165	0.313900	0.560100	0.786020
H1081	H108	0.209300	0.617100	0.802000
H1091	H109	0.405000	0.500300	0.758200
C1661	C166	0.064400	0.756690	0.637200
H1101	H110	0.165100	0.814700	0.657900
H1111	H111	0.978800	0.674100	0.622300
C1671	C167	0.355600	0.561480	0.826420
C1681	C168	0.014280	0.828900	0.627420
O631	O63	0.426370	0.529690	0.827900
O641	O64	0.047760	0.895400	0.633230
H1121	H112	0.415100	0.493500	0.926200
Al91	Al9	0.353820	0.708920	0.000000
Al101	Al10	0.646180	0.291080	0.000000
Al111	Al11	0.146180	0.208920	0.500000
Al121	Al12	0.853820	0.791080	0.500000
Al131	Al13	0.000000	0.000000	0.369770
Al141	Al14	0.500000	0.500000	0.130230
Al151	Al15	0.000000	0.000000	0.630230
Al161	Al16	0.500000	0.500000	0.869770
