data_OYIVIC_clean_PM
_symmetry_space_group_name_H-M	'P1'
_cell_length_a	7.119000
_cell_length_b	21.580000
_cell_length_c	9.100000
_cell_angle_alpha	90.000000
_cell_angle_beta	90.000000
_cell_angle_gamma	90.000000
_symmetry_Int_Tables_number 1

loop_
_symmetry_equiv_pos_as_xyz
'x,y,z'

loop_
_atom_site_label
_atom_site_type_symbol
_atom_site_fract_x
_atom_site_fract_y
_atom_site_fract_z
C11	C1	0.333000	0.750800	0.779000
H11	H1	0.218600	0.770700	0.792700
C21	C2	0.332200	0.692600	0.736100
H21	H2	0.216800	0.673500	0.720400
N11	N1	0.603500	0.934800	0.932200
N21	N2	0.656800	0.881800	0.884500
O11	O1	0.645800	0.568200	0.652300
C31	C3	0.833000	0.250800	0.279000
H31	H3	0.718600	0.270700	0.292700
C41	C4	0.832200	0.192600	0.236100
H41	H4	0.716800	0.173500	0.220400
N31	N3	0.103500	0.434800	0.432200
N41	N4	0.156800	0.381800	0.384500
O21	O2	0.145800	0.068200	0.152300
C51	C5	0.667000	0.249200	0.779000
H51	H5	0.781400	0.229300	0.792700
C61	C6	0.667800	0.307400	0.736100
H61	H6	0.783200	0.326500	0.720400
N51	N5	0.396500	0.065200	0.932200
N61	N6	0.343200	0.118200	0.884500
O31	O3	0.354200	0.431800	0.652300
C71	C7	0.167000	0.749200	0.279000
H71	H7	0.281400	0.729300	0.292700
C81	C8	0.167800	0.807400	0.236100
H81	H8	0.283200	0.826500	0.220400
N71	N7	0.896500	0.565200	0.432200
N81	N8	0.843200	0.618200	0.384500
O41	O4	0.854200	0.931800	0.152300
C91	C9	0.333000	0.249200	0.779000
H91	H9	0.218600	0.229300	0.792700
C101	C10	0.332200	0.307400	0.736100
H101	H10	0.216800	0.326500	0.720400
N91	N9	0.603500	0.065200	0.932200
N101	N10	0.656800	0.118200	0.884500
O51	O5	0.645800	0.431800	0.652300
C111	C11	0.833000	0.749200	0.279000
H111	H11	0.718600	0.729300	0.292700
C121	C12	0.832200	0.807400	0.236100
H121	H12	0.716800	0.826500	0.220400
N111	N11	0.103500	0.565200	0.432200
N121	N12	0.156800	0.618200	0.384500
O61	O6	0.145800	0.931800	0.152300
C131	C13	0.667000	0.750800	0.779000
H131	H13	0.781400	0.770700	0.792700
C141	C14	0.667800	0.692600	0.736100
H141	H14	0.783200	0.673500	0.720400
N131	N13	0.396500	0.934800	0.932200
N141	N14	0.343200	0.881800	0.884500
O71	O7	0.354200	0.568200	0.652300
C151	C15	0.167000	0.250800	0.279000
H151	H15	0.281400	0.270700	0.292700
C161	C16	0.167800	0.192600	0.236100
H161	H16	0.283200	0.173500	0.220400
N151	N15	0.896500	0.434800	0.432200
N161	N16	0.843200	0.381800	0.384500
O81	O8	0.854200	0.068200	0.152300
C171	C17	0.500000	0.784400	0.803800
C181	C18	0.500000	0.656700	0.712500
C191	C19	0.500000	0.592900	0.669200
C201	C20	0.500000	0.846200	0.853500
C211	C21	0.000000	0.284400	0.303800
C221	C22	0.000000	0.156700	0.212500
C231	C23	0.000000	0.092900	0.169200
C241	C24	0.000000	0.346200	0.353500
C251	C25	0.500000	0.215600	0.803800
C261	C26	0.500000	0.343300	0.712500
C271	C27	0.500000	0.407100	0.669200
C281	C28	0.500000	0.153800	0.853500
C291	C29	0.000000	0.715600	0.303800
C301	C30	0.000000	0.843300	0.212500
C311	C31	0.000000	0.907100	0.169200
C321	C32	0.000000	0.653800	0.353500
Cu11	Cu1	0.748260	0.000000	0.033000
Cu21	Cu2	0.248260	0.500000	0.533000
Cu31	Cu3	0.251740	0.000000	0.033000
Cu41	Cu4	0.751740	0.500000	0.533000
