data_OYOSAX_clean_PM
_symmetry_space_group_name_H-M	'P1'
_cell_length_a	7.527300
_cell_length_b	9.652000
_cell_length_c	22.106000
_cell_angle_alpha	90.000000
_cell_angle_beta	90.000000
_cell_angle_gamma	110.759000
_symmetry_Int_Tables_number 1

loop_
_symmetry_equiv_pos_as_xyz
'x,y,z'

loop_
_atom_site_label
_atom_site_type_symbol
_atom_site_fract_x
_atom_site_fract_y
_atom_site_fract_z
Mn11	Mn1	0.630940	0.650310	0.753670
Mn21	Mn2	0.869060	0.349690	0.253670
Mn31	Mn3	0.369060	0.349690	0.246330
Mn41	Mn4	0.130940	0.650310	0.746330
H11	H1	0.103500	0.622400	0.607300
H21	H2	0.556600	0.428400	0.560300
H31	H3	0.642900	0.374000	0.466500
H41	H4	0.773100	0.927300	0.905300
H51	H5	0.280700	0.879800	0.907200
H61	H6	0.667500	0.033000	0.995900
H71	H7	0.396500	0.377600	0.107300
H81	H8	0.943400	0.571600	0.060300
H91	H9	0.857100	0.626000	0.966500
H101	H10	0.726900	0.072700	0.405300
H111	H11	0.219300	0.120200	0.407200
H121	H12	0.832500	0.967000	0.495900
H131	H13	0.896500	0.377600	0.392700
H141	H14	0.443400	0.571600	0.439700
H151	H15	0.357100	0.626000	0.533500
H161	H16	0.226900	0.072700	0.094700
H171	H17	0.719300	0.120200	0.092800
H181	H18	0.332500	0.967000	0.004100
H191	H19	0.603500	0.622400	0.892700
H201	H20	0.056600	0.428400	0.939700
H211	H21	0.142900	0.374000	0.033500
H221	H22	0.273100	0.927300	0.594700
H231	H23	0.780700	0.879800	0.592800
H241	H24	0.167500	0.033000	0.504100
C11	C1	0.760700	0.562310	0.654780
C21	C2	0.824500	0.530130	0.593730
C31	C3	0.012100	0.571430	0.579100
C41	C4	0.684600	0.455400	0.550520
C51	C5	0.736400	0.422800	0.494540
C61	C6	0.070300	0.537970	0.521370
C71	C7	0.982300	0.831350	0.833710
C81	C8	0.021000	0.897400	0.896310
C91	C9	0.885900	0.937380	0.925240
C101	C10	0.914700	0.993810	0.984980
C111	C11	0.189800	0.908400	0.926660
C121	C12	0.779300	0.039100	0.015500
C131	C13	0.739300	0.437690	0.154780
C141	C14	0.675500	0.469870	0.093730
C151	C15	0.487900	0.428570	0.079100
C161	C16	0.815400	0.544600	0.050520
C171	C17	0.763600	0.577200	0.994540
C181	C18	0.429700	0.462030	0.021370
C191	C19	0.517700	0.168650	0.333710
C201	C20	0.479000	0.102600	0.396310
C211	C21	0.614100	0.062620	0.425240
C221	C22	0.585300	0.006190	0.484980
C231	C23	0.310200	0.091600	0.426660
C241	C24	0.720700	0.960900	0.515500
C251	C25	0.239300	0.437690	0.345220
C261	C26	0.175500	0.469870	0.406270
C271	C27	0.987900	0.428570	0.420900
C281	C28	0.315400	0.544600	0.449480
C291	C29	0.263600	0.577200	0.505460
C301	C30	0.929700	0.462030	0.478630
C311	C31	0.017700	0.168650	0.166290
C321	C32	0.979000	0.102600	0.103690
C331	C33	0.114100	0.062620	0.074760
C341	C34	0.085300	0.006190	0.015020
C351	C35	0.810200	0.091600	0.073340
C361	C36	0.220700	0.960900	0.984500
C371	C37	0.260700	0.562310	0.845220
C381	C38	0.324500	0.530130	0.906270
C391	C39	0.512100	0.571430	0.920900
C401	C40	0.184600	0.455400	0.949480
C411	C41	0.236400	0.422800	0.005460
C421	C42	0.570300	0.537970	0.978630
C431	C43	0.482300	0.831350	0.666290
C441	C44	0.521000	0.897400	0.603690
C451	C45	0.385900	0.937380	0.574760
C461	C46	0.414700	0.993810	0.515020
C471	C47	0.689800	0.908400	0.573340
C481	C48	0.279300	0.039100	0.484500
O11	O1	0.883200	0.634280	0.694120
O21	O2	0.587520	0.520990	0.665960
O31	O3	0.814710	0.792990	0.815360
O41	O4	0.120230	0.820730	0.804950
O51	O5	0.616800	0.365720	0.194120
O61	O6	0.912480	0.479010	0.165960
O71	O7	0.685290	0.207010	0.315360
O81	O8	0.379770	0.179270	0.304950
O91	O9	0.116800	0.365720	0.305880
O101	O10	0.412480	0.479010	0.334040
O111	O11	0.185290	0.207010	0.184640
O121	O12	0.879770	0.179270	0.195050
O131	O13	0.383200	0.634280	0.805880
O141	O14	0.087520	0.520990	0.834040
O151	O15	0.314710	0.792990	0.684640
O161	O16	0.620230	0.820730	0.695050
