data_OYUSAD_charged_PM
_symmetry_space_group_name_H-M	'P1'
_cell_length_a	17.282100
_cell_length_b	17.282100
_cell_length_c	17.598500
_cell_angle_alpha	117.126000
_cell_angle_beta	117.127000
_cell_angle_gamma	94.094100
_symmetry_Int_Tables_number 1

loop_
_symmetry_equiv_pos_as_xyz
'x,y,z'

loop_
_atom_site_label
_atom_site_type_symbol
_atom_site_fract_x
_atom_site_fract_y
_atom_site_fract_z
Zn11	Zn1	0.222760	0.734840	0.055380
Zn21	Zn2	0.679460	0.167380	0.944620
Zn31	Zn3	0.917380	0.929460	0.444620
Zn41	Zn4	0.484840	0.472760	0.555380
Co11	Co1	0.722960	0.781160	0.488460
Co21	Co2	0.106880	0.486420	0.885120
Co31	Co3	0.292700	0.234500	0.511540
Co41	Co4	0.601300	0.221760	0.114880
Co51	Co5	0.984500	0.542700	0.011540
Co61	Co6	0.971760	0.851300	0.614880
Co71	Co7	0.531160	0.972960	0.988460
Co81	Co8	0.236420	0.356880	0.385120
P11	P1	0.196100	0.597660	0.121540
P21	P2	0.388000	0.262560	0.405820
P31	P3	0.476120	0.074560	0.878460
P41	P4	0.856740	0.982180	0.594180
P51	P5	0.824560	0.726120	0.378460
P61	P6	0.732180	0.106740	0.094180
P71	P7	0.347660	0.446100	0.621540
P81	P8	0.012560	0.638000	0.905820
H11	H1	0.388700	0.682100	0.248000
H21	H2	0.480000	0.601800	0.442000
H31	H3	0.208300	0.511300	0.233400
H41	H4	0.321800	0.064600	0.298800
H51	H5	0.424200	0.975800	0.122200
H61	H6	0.481300	0.248100	0.299800
H71	H7	0.434100	0.140700	0.752000
H81	H8	0.159800	0.038000	0.558000
H91	H9	0.277900	0.974900	0.766600
H101	H10	0.765800	0.023000	0.701200
H111	H11	0.853600	0.302000	0.877800
H121	H12	0.948300	0.181500	0.700200
H131	H13	0.890700	0.684100	0.252000
H141	H14	0.788000	0.409800	0.058000
H151	H15	0.724900	0.527900	0.266600
H161	H16	0.773000	0.015800	0.201200
H171	H17	0.052000	0.103600	0.377800
H181	H18	0.931500	0.198300	0.200200
H191	H19	0.432100	0.638700	0.748000
H201	H20	0.351800	0.730000	0.942000
H211	H21	0.261300	0.458300	0.733400
H221	H22	0.814600	0.571800	0.798800
H231	H23	0.725800	0.674200	0.622200
H241	H24	0.998100	0.731300	0.799800
C11	C1	0.285300	0.598700	0.228400
C21	C2	0.376100	0.648900	0.272800
C31	C3	0.448900	0.651300	0.353400
C41	C4	0.549800	0.711000	0.399600
C51	C5	0.431300	0.600700	0.388000
C61	C6	0.340100	0.547500	0.342800
C71	C7	0.324400	0.489200	0.382000
C81	C8	0.269000	0.547200	0.263800
C91	C9	0.401300	0.170700	0.314800
C101	C10	0.357300	0.077900	0.276600
C111	C11	0.367300	0.005700	0.205400
C121	C12	0.315100	0.910900	0.164400
C131	C13	0.418300	0.024500	0.169800
C141	C14	0.460500	0.115300	0.204800
C151	C15	0.513700	0.133100	0.162600
C161	C16	0.452400	0.187200	0.276200
C171	C17	0.370300	0.056900	0.771600
C181	C18	0.376100	0.103300	0.727200
C191	C19	0.297900	0.095500	0.646600
C201	C20	0.311400	0.150200	0.600400
C211	C21	0.212700	0.043300	0.612000
C221	C22	0.204700	0.997300	0.657200
C231	C23	0.107200	0.942400	0.618000
C241	C24	0.283400	0.005200	0.736200
C251	C25	0.855900	0.086500	0.685200
C261	C26	0.801300	0.080700	0.723400
C271	C27	0.800300	0.161900	0.794600
C281	C28	0.746500	0.150700	0.835600
C291	C29	0.854700	0.248500	0.830200
C301	C30	0.910500	0.255700	0.795200
C311	C31	0.970500	0.351100	0.837400
C321	C32	0.911000	0.176200	0.723800
C331	C33	0.806900	0.620300	0.271600
C341	C34	0.853300	0.626100	0.227200
C351	C35	0.845500	0.547900	0.146600
C361	C36	0.900200	0.561400	0.100400
C371	C37	0.793300	0.462700	0.112000
C381	C38	0.747300	0.454700	0.157200
C391	C39	0.692400	0.357200	0.118000
C401	C40	0.755200	0.533400	0.236200
C411	C41	0.836500	0.105900	0.185200
C421	C42	0.830700	0.051300	0.223400
C431	C43	0.911900	0.050300	0.294600
C441	C44	0.900700	0.996500	0.335600
C451	C45	0.998500	0.104700	0.330200
C461	C46	0.005700	0.160500	0.295200
C471	C47	0.101100	0.220500	0.337400
C481	C48	0.926200	0.161000	0.223800
C491	C49	0.348700	0.535300	0.728400
C501	C50	0.398900	0.626100	0.772800
C511	C51	0.401300	0.698900	0.853400
C521	C52	0.461000	0.799800	0.899600
C531	C53	0.350700	0.681300	0.888000
C541	C54	0.297500	0.590100	0.842800
C551	C55	0.239200	0.574400	0.882000
C561	C56	0.297200	0.519000	0.763800
C571	C57	0.920700	0.651300	0.814800
C581	C58	0.827900	0.607300	0.776600
C591	C59	0.755700	0.617300	0.705400
C601	C60	0.660900	0.565100	0.664400
C611	C61	0.774500	0.668300	0.669800
C621	C62	0.865300	0.710500	0.704800
C631	C63	0.883100	0.763700	0.662600
C641	C64	0.937200	0.702400	0.776200
O11	O1	0.109300	0.581500	0.123800
O21	O2	0.184700	0.519500	0.024800
O31	O3	0.229200	0.693000	0.140400
O41	O4	0.564100	0.758100	0.369200
O51	O5	0.614000	0.709200	0.471200
O61	O6	0.390900	0.498500	0.458600
O71	O7	0.240400	0.436200	0.333000
O81	O8	0.302800	0.277000	0.343200
O91	O9	0.374700	0.227900	0.465200
O101	O10	0.476300	0.347300	0.473200
O111	O11	0.268200	0.895800	0.194600
O121	O12	0.316100	0.843300	0.094000
O131	O13	0.524900	0.067500	0.105400
O141	O14	0.545600	0.214800	0.189800
O151	O15	0.457700	0.985500	0.876200
O161	O16	0.494700	0.159900	0.975200
O171	O17	0.552600	0.088800	0.859600
O181	O18	0.388900	0.194900	0.630800
O191	O19	0.238000	0.142800	0.528800
O201	O20	0.039900	0.932300	0.541400
O211	O21	0.103200	0.907400	0.667000
O221	O22	0.933800	0.959600	0.656800
O231	O23	0.762700	0.909500	0.534800
O241	O24	0.874100	0.003100	0.526800
O251	O25	0.701200	0.073600	0.805400
O261	O26	0.749300	0.222100	0.906000
O271	O27	0.962100	0.419500	0.894600
O281	O28	0.025000	0.355800	0.810200
O291	O29	0.735500	0.707700	0.376200
O301	O30	0.909900	0.744700	0.475200
O311	O31	0.838800	0.802600	0.359600
O321	O32	0.944900	0.638900	0.130800
O331	O33	0.892800	0.488000	0.028800
O341	O34	0.682300	0.289900	0.041400
O351	O35	0.657400	0.353200	0.167000
O361	O36	0.709600	0.183800	0.156800
O371	O37	0.659500	0.012700	0.034800
O381	O38	0.753100	0.124100	0.026800
O391	O39	0.823600	0.951200	0.305400
O401	O40	0.972100	0.999300	0.406000
O411	O41	0.169500	0.212100	0.394600
O421	O42	0.105800	0.275000	0.310200
O431	O43	0.331500	0.359300	0.623800
O441	O44	0.269500	0.434700	0.524800
O451	O45	0.443000	0.479200	0.640400
O461	O46	0.508100	0.814100	0.869200
O471	O47	0.459200	0.864000	0.971200
O481	O48	0.248500	0.640900	0.958600
O491	O49	0.186200	0.490400	0.833000
O501	O50	0.027000	0.552800	0.843200
O511	O51	0.977900	0.624700	0.965200
O521	O52	0.097300	0.726300	0.973200
O531	O53	0.645800	0.518200	0.694600
O541	O54	0.593300	0.566100	0.594000
O551	O55	0.817500	0.774900	0.605400
O561	O56	0.964800	0.795600	0.689800
