data_OZAVOC_clean_PM
_symmetry_space_group_name_H-M	'P1'
_cell_length_a	6.136000
_cell_length_b	16.863000
_cell_length_c	12.237000
_cell_angle_alpha	90.000000
_cell_angle_beta	92.179000
_cell_angle_gamma	90.000000
_symmetry_Int_Tables_number 1

loop_
_symmetry_equiv_pos_as_xyz
'x,y,z'

loop_
_atom_site_label
_atom_site_type_symbol
_atom_site_fract_x
_atom_site_fract_y
_atom_site_fract_z
C11	C1	0.208000	0.894600	0.365900
C21	C2	0.304200	0.631500	0.125900
C31	C3	0.210900	0.704500	0.177900
C41	C4	0.002000	0.732000	0.176000
H11	H1	0.887100	0.707500	0.137500
C51	C5	0.978200	0.801600	0.238800
H21	H2	0.845800	0.827600	0.245600
C61	C6	0.168400	0.826800	0.288200
O11	O1	0.509100	0.623930	0.132100
O21	O2	0.401000	0.910200	0.397000
O31	O3	0.042100	0.931340	0.397400
O41	O4	0.169300	0.583910	0.081400
S11	S1	0.382890	0.764870	0.256840
Sr11	Sr1	0.219290	0.484030	0.911790
C71	C7	0.292000	0.394600	0.134100
C81	C8	0.195800	0.131500	0.374100
C91	C9	0.289100	0.204500	0.322100
C101	C10	0.498000	0.232000	0.324000
H31	H3	0.612900	0.207500	0.362500
C111	C11	0.521800	0.301600	0.261200
H41	H4	0.654200	0.327600	0.254400
C121	C12	0.331600	0.326800	0.211800
O51	O5	0.990900	0.123930	0.367900
O61	O6	0.099000	0.410200	0.103000
O71	O7	0.457900	0.431340	0.102600
O81	O8	0.330700	0.083910	0.418600
S21	S2	0.117110	0.264870	0.243160
Sr21	Sr2	0.280710	0.984030	0.588210
C131	C13	0.792000	0.105400	0.634100
C141	C14	0.695800	0.368500	0.874100
C151	C15	0.789100	0.295500	0.822100
C161	C16	0.998000	0.268000	0.824000
H51	H5	0.112900	0.292500	0.862500
C171	C17	0.021800	0.198400	0.761200
H61	H6	0.154200	0.172400	0.754400
C181	C18	0.831600	0.173200	0.711800
O91	O9	0.490900	0.376070	0.867900
O101	O10	0.599000	0.089800	0.603000
O111	O11	0.957900	0.068660	0.602600
O121	O12	0.830700	0.416090	0.918600
S31	S3	0.617110	0.235130	0.743160
Sr31	Sr3	0.780710	0.515970	0.088210
C191	C19	0.708000	0.605400	0.865900
C201	C20	0.804200	0.868500	0.625900
C211	C21	0.710900	0.795500	0.677900
C221	C22	0.502000	0.768000	0.676000
H71	H7	0.387100	0.792500	0.637500
C231	C23	0.478200	0.698400	0.738800
H81	H8	0.345800	0.672400	0.745600
C241	C24	0.668400	0.673200	0.788200
O131	O13	0.009100	0.876070	0.632100
O141	O14	0.901000	0.589800	0.897000
O151	O15	0.542100	0.568660	0.897400
O161	O16	0.669300	0.916090	0.581400
S41	S4	0.882890	0.735130	0.756840
Sr41	Sr4	0.719290	0.015970	0.411790
