data_OZUKUR01_clean_PM
_symmetry_space_group_name_H-M	'P1'
_cell_length_a	26.436300
_cell_length_b	26.436300
_cell_length_c	7.106800
_cell_angle_alpha	90.000000
_cell_angle_beta	90.000000
_cell_angle_gamma	120.000000
_symmetry_Int_Tables_number 1

loop_
_symmetry_equiv_pos_as_xyz
'x,y,z'

loop_
_atom_site_label
_atom_site_type_symbol
_atom_site_fract_x
_atom_site_fract_y
_atom_site_fract_z
Mn11	Mn1	0.962900	0.643000	0.996000
C11	C1	0.019500	0.597900	0.767000
C21	C2	0.999800	0.549400	0.919000
C31	C3	0.988300	0.538000	0.110000
C41	C4	0.985600	0.493700	0.177000
O11	O1	0.026100	0.585900	0.599000
O21	O2	0.001300	0.635800	0.796000
O31	O3	0.979400	0.586200	0.160000
Mn21	Mn2	0.629570	0.976330	0.329330
C51	C5	0.686170	0.931230	0.100330
C61	C6	0.666470	0.882730	0.252330
C71	C7	0.654970	0.871330	0.443330
C81	C8	0.652270	0.827030	0.510330
O41	O4	0.692770	0.919230	0.932330
O51	O5	0.667970	0.969130	0.129330
O61	O6	0.646070	0.919530	0.493330
Mn31	Mn3	0.296230	0.309670	0.662670
C91	C9	0.352830	0.264570	0.433670
C101	C10	0.333130	0.216070	0.585670
C111	C11	0.321630	0.204670	0.776670
C121	C12	0.318930	0.160370	0.843670
O71	O7	0.359430	0.252570	0.265670
O81	O8	0.334630	0.302470	0.462670
O91	O9	0.312730	0.252870	0.826670
Mn41	Mn4	0.357000	0.319900	0.996000
C131	C13	0.402100	0.421600	0.767000
C141	C14	0.450600	0.450400	0.919000
C151	C15	0.462000	0.450300	0.110000
C161	C16	0.506300	0.491900	0.177000
O101	O10	0.414100	0.440200	0.599000
O111	O11	0.364200	0.365500	0.796000
O121	O12	0.413800	0.393200	0.160000
Mn51	Mn5	0.023670	0.653230	0.329330
C171	C17	0.068770	0.754930	0.100330
C181	C18	0.117270	0.783730	0.252330
C191	C19	0.128670	0.783630	0.443330
C201	C20	0.172970	0.825230	0.510330
O131	O13	0.080770	0.773530	0.932330
O141	O14	0.030870	0.698830	0.129330
O151	O15	0.080470	0.726530	0.493330
Mn61	Mn6	0.690330	0.986570	0.662670
C211	C21	0.735430	0.088270	0.433670
C221	C22	0.783930	0.117070	0.585670
C231	C23	0.795330	0.116970	0.776670
C241	C24	0.839630	0.158570	0.843670
O161	O16	0.747430	0.106870	0.265670
O171	O17	0.697530	0.032170	0.462670
O181	O18	0.747130	0.059870	0.826670
Mn71	Mn7	0.680100	0.037100	0.996000
C251	C25	0.578400	0.980500	0.767000
C261	C26	0.549600	0.000200	0.919000
C271	C27	0.549700	0.011700	0.110000
C281	C28	0.508100	0.014400	0.177000
O191	O19	0.559800	0.973900	0.599000
O201	O20	0.634500	0.998700	0.796000
O211	O21	0.606800	0.020600	0.160000
Mn81	Mn8	0.346770	0.370430	0.329330
C291	C29	0.245070	0.313830	0.100330
C301	C30	0.216270	0.333530	0.252330
C311	C31	0.216370	0.345030	0.443330
C321	C32	0.174770	0.347730	0.510330
O221	O22	0.226470	0.307230	0.932330
O231	O23	0.301170	0.332030	0.129330
O241	O24	0.273470	0.353930	0.493330
Mn91	Mn9	0.013430	0.703770	0.662670
C331	C33	0.911730	0.647170	0.433670
C341	C34	0.882930	0.666870	0.585670
C351	C35	0.883030	0.678370	0.776670
C361	C36	0.841430	0.681070	0.843670
O251	O25	0.893130	0.640570	0.265670
O261	O26	0.967830	0.665370	0.462670
O271	O27	0.940130	0.687270	0.826670
Mn101	Mn10	0.037100	0.357000	0.004000
C371	C37	0.980500	0.402100	0.233000
C381	C38	0.000200	0.450600	0.081000
C391	C39	0.011700	0.462000	0.890000
C401	C40	0.014400	0.506300	0.823000
O281	O28	0.973900	0.414100	0.401000
O291	O29	0.998700	0.364200	0.204000
O301	O30	0.020600	0.413800	0.840000
Mn111	Mn11	0.703770	0.690330	0.337330
C411	C41	0.647170	0.735430	0.566330
C421	C42	0.666870	0.783930	0.414330
C431	C43	0.678370	0.795330	0.223330
C441	C44	0.681070	0.839630	0.156330
O311	O31	0.640570	0.747430	0.734330
O321	O32	0.665370	0.697530	0.537330
O331	O33	0.687270	0.747130	0.173330
Mn121	Mn12	0.370430	0.023670	0.670670
C451	C45	0.313830	0.068770	0.899670
C461	C46	0.333530	0.117270	0.747670
C471	C47	0.345030	0.128670	0.556670
C481	C48	0.347730	0.172970	0.489670
O341	O34	0.307230	0.080770	0.067670
O351	O35	0.332030	0.030870	0.870670
O361	O36	0.353930	0.080470	0.506670
Mn131	Mn13	0.643000	0.680100	0.004000
C491	C49	0.597900	0.578400	0.233000
C501	C50	0.549400	0.549600	0.081000
C511	C51	0.538000	0.549700	0.890000
C521	C52	0.493700	0.508100	0.823000
O371	O37	0.585900	0.559800	0.401000
O381	O38	0.635800	0.634500	0.204000
O391	O39	0.586200	0.606800	0.840000
Mn141	Mn14	0.309670	0.013430	0.337330
C531	C53	0.264570	0.911730	0.566330
C541	C54	0.216070	0.882930	0.414330
C551	C55	0.204670	0.883030	0.223330
C561	C56	0.160370	0.841430	0.156330
O401	O40	0.252570	0.893130	0.734330
O411	O41	0.302470	0.967830	0.537330
O421	O42	0.252870	0.940130	0.173330
Mn151	Mn15	0.976330	0.346770	0.670670
C571	C57	0.931230	0.245070	0.899670
C581	C58	0.882730	0.216270	0.747670
C591	C59	0.871330	0.216370	0.556670
C601	C60	0.827030	0.174770	0.489670
O431	O43	0.919230	0.226470	0.067670
O441	O44	0.969130	0.301170	0.870670
O451	O45	0.919530	0.273470	0.506670
Mn161	Mn16	0.319900	0.962900	0.004000
C611	C61	0.421600	0.019500	0.233000
C621	C62	0.450400	0.999800	0.081000
C631	C63	0.450300	0.988300	0.890000
C641	C64	0.491900	0.985600	0.823000
O461	O46	0.440200	0.026100	0.401000
O471	O47	0.365500	0.001300	0.204000
O481	O48	0.393200	0.979400	0.840000
Mn171	Mn17	0.986570	0.296230	0.337330
C651	C65	0.088270	0.352830	0.566330
C661	C66	0.117070	0.333130	0.414330
C671	C67	0.116970	0.321630	0.223330
C681	C68	0.158570	0.318930	0.156330
O491	O49	0.106870	0.359430	0.734330
O501	O50	0.032170	0.334630	0.537330
O511	O51	0.059870	0.312730	0.173330
Mn181	Mn18	0.653230	0.629570	0.670670
C691	C69	0.754930	0.686170	0.899670
C701	C70	0.783730	0.666470	0.747670
C711	C71	0.783630	0.654970	0.556670
C721	C72	0.825230	0.652270	0.489670
O521	O52	0.773530	0.692770	0.067670
O531	O53	0.698830	0.667970	0.870670
O541	O54	0.726530	0.646070	0.506670
