data_OZULUS_clean_PM
_symmetry_space_group_name_H-M	'P1'
_cell_length_a	25.877600
_cell_length_b	25.877600
_cell_length_c	6.262300
_cell_angle_alpha	90.000000
_cell_angle_beta	90.000000
_cell_angle_gamma	120.000000
_symmetry_Int_Tables_number 1

loop_
_symmetry_equiv_pos_as_xyz
'x,y,z'

loop_
_atom_site_label
_atom_site_type_symbol
_atom_site_fract_x
_atom_site_fract_y
_atom_site_fract_z
Cu11	Cu1	0.946300	0.631500	0.979000
C11	C1	0.006400	0.585600	0.711000
C21	C2	0.023600	0.506200	0.788000
C31	C3	0.003900	0.543200	0.873000
C41	C4	0.984800	0.542800	0.087000
H11	H1	0.038300	0.512000	0.636000
O11	O1	0.040600	0.602000	0.542000
O21	O2	0.978600	0.615300	0.726000
O31	O3	0.969400	0.585400	0.147000
Cu21	Cu2	0.612970	0.964830	0.312330
C51	C5	0.673070	0.918930	0.044330
C61	C6	0.690270	0.839530	0.121330
C71	C7	0.670570	0.876530	0.206330
C81	C8	0.651470	0.876130	0.420330
H21	H2	0.704970	0.845330	0.969330
O41	O4	0.707270	0.935330	0.875330
O51	O5	0.645270	0.948630	0.059330
O61	O6	0.636070	0.918730	0.480330
Cu31	Cu3	0.279630	0.298170	0.645670
C91	C9	0.339730	0.252270	0.377670
C101	C10	0.356930	0.172870	0.454670
C111	C11	0.337230	0.209870	0.539670
C121	C12	0.318130	0.209470	0.753670
H31	H3	0.371630	0.178670	0.302670
O71	O7	0.373930	0.268670	0.208670
O81	O8	0.311930	0.281970	0.392670
O91	O9	0.302730	0.252070	0.813670
Cu41	Cu4	0.368500	0.314800	0.979000
C131	C13	0.414400	0.420800	0.711000
C141	C14	0.493800	0.517400	0.788000
C151	C15	0.456800	0.460700	0.873000
C161	C16	0.457200	0.442000	0.087000
H41	H4	0.488000	0.526300	0.636000
O101	O10	0.398000	0.438600	0.542000
O111	O11	0.384700	0.363300	0.726000
O121	O12	0.414600	0.384000	0.147000
Cu51	Cu5	0.035170	0.648130	0.312330
C171	C17	0.081070	0.754130	0.044330
C181	C18	0.160470	0.850730	0.121330
C191	C19	0.123470	0.794030	0.206330
C201	C20	0.123870	0.775330	0.420330
H51	H5	0.154670	0.859630	0.969330
O131	O13	0.064670	0.771930	0.875330
O141	O14	0.051370	0.696630	0.059330
O151	O15	0.081270	0.717330	0.480330
Cu61	Cu6	0.701830	0.981470	0.645670
C211	C21	0.747730	0.087470	0.377670
C221	C22	0.827130	0.184070	0.454670
C231	C23	0.790130	0.127370	0.539670
C241	C24	0.790530	0.108670	0.753670
H61	H6	0.821330	0.192970	0.302670
O161	O16	0.731330	0.105270	0.208670
O171	O17	0.718030	0.029970	0.392670
O181	O18	0.747930	0.050670	0.813670
Cu71	Cu7	0.685200	0.053700	0.979000
C251	C25	0.579200	0.993600	0.711000
C261	C26	0.482600	0.976400	0.788000
C271	C27	0.539300	0.996100	0.873000
C281	C28	0.558000	0.015200	0.087000
H71	H7	0.473700	0.961700	0.636000
O191	O19	0.561400	0.959400	0.542000
O201	O20	0.636700	0.021400	0.726000
O211	O21	0.616000	0.030600	0.147000
Cu81	Cu8	0.351870	0.387030	0.312330
C291	C29	0.245870	0.326930	0.044330
C301	C30	0.149270	0.309730	0.121330
C311	C31	0.205970	0.329430	0.206330
C321	C32	0.224670	0.348530	0.420330
H81	H8	0.140370	0.295030	0.969330
O221	O22	0.228070	0.292730	0.875330
O231	O23	0.303370	0.354730	0.059330
O241	O24	0.282670	0.363930	0.480330
Cu91	Cu9	0.018530	0.720370	0.645670
C331	C33	0.912530	0.660270	0.377670
C341	C34	0.815930	0.643070	0.454670
C351	C35	0.872630	0.662770	0.539670
C361	C36	0.891330	0.681870	0.753670
H91	H9	0.807030	0.628370	0.302670
O251	O25	0.894730	0.626070	0.208670
O261	O26	0.970030	0.688070	0.392670
O271	O27	0.949330	0.697270	0.813670
Cu101	Cu10	0.053700	0.368500	0.021000
C371	C37	0.993600	0.414400	0.289000
C381	C38	0.976400	0.493800	0.212000
C391	C39	0.996100	0.456800	0.127000
C401	C40	0.015200	0.457200	0.913000
H101	H10	0.961700	0.488000	0.364000
O281	O28	0.959400	0.398000	0.458000
O291	O29	0.021400	0.384700	0.274000
O301	O30	0.030600	0.414600	0.853000
Cu111	Cu11	0.720370	0.701830	0.354330
C411	C41	0.660270	0.747730	0.622330
C421	C42	0.643070	0.827130	0.545330
C431	C43	0.662770	0.790130	0.460330
C441	C44	0.681870	0.790530	0.246330
H111	H11	0.628370	0.821330	0.697330
O311	O31	0.626070	0.731330	0.791330
O321	O32	0.688070	0.718030	0.607330
O331	O33	0.697270	0.747930	0.186330
Cu121	Cu12	0.387030	0.035170	0.687670
C451	C45	0.326930	0.081070	0.955670
C461	C46	0.309730	0.160470	0.878670
C471	C47	0.329430	0.123470	0.793670
C481	C48	0.348530	0.123870	0.579670
H121	H12	0.295030	0.154670	0.030670
O341	O34	0.292730	0.064670	0.124670
O351	O35	0.354730	0.051370	0.940670
O361	O36	0.363930	0.081270	0.519670
Cu131	Cu13	0.631500	0.685200	0.021000
C491	C49	0.585600	0.579200	0.289000
C501	C50	0.506200	0.482600	0.212000
C511	C51	0.543200	0.539300	0.127000
C521	C52	0.542800	0.558000	0.913000
H131	H13	0.512000	0.473700	0.364000
O371	O37	0.602000	0.561400	0.458000
O381	O38	0.615300	0.636700	0.274000
O391	O39	0.585400	0.616000	0.853000
Cu141	Cu14	0.298170	0.018530	0.354330
C531	C53	0.252270	0.912530	0.622330
C541	C54	0.172870	0.815930	0.545330
C551	C55	0.209870	0.872630	0.460330
C561	C56	0.209470	0.891330	0.246330
H141	H14	0.178670	0.807030	0.697330
O401	O40	0.268670	0.894730	0.791330
O411	O41	0.281970	0.970030	0.607330
O421	O42	0.252070	0.949330	0.186330
Cu151	Cu15	0.964830	0.351870	0.687670
C571	C57	0.918930	0.245870	0.955670
C581	C58	0.839530	0.149270	0.878670
C591	C59	0.876530	0.205970	0.793670
C601	C60	0.876130	0.224670	0.579670
H151	H15	0.845330	0.140370	0.030670
O431	O43	0.935330	0.228070	0.124670
O441	O44	0.948630	0.303370	0.940670
O451	O45	0.918730	0.282670	0.519670
Cu161	Cu16	0.314800	0.946300	0.021000
C611	C61	0.420800	0.006400	0.289000
C621	C62	0.517400	0.023600	0.212000
C631	C63	0.460700	0.003900	0.127000
C641	C64	0.442000	0.984800	0.913000
H161	H16	0.526300	0.038300	0.364000
O461	O46	0.438600	0.040600	0.458000
O471	O47	0.363300	0.978600	0.274000
O481	O48	0.384000	0.969400	0.853000
Cu171	Cu17	0.981470	0.279630	0.354330
C651	C65	0.087470	0.339730	0.622330
C661	C66	0.184070	0.356930	0.545330
C671	C67	0.127370	0.337230	0.460330
C681	C68	0.108670	0.318130	0.246330
H171	H17	0.192970	0.371630	0.697330
O491	O49	0.105270	0.373930	0.791330
O501	O50	0.029970	0.311930	0.607330
O511	O51	0.050670	0.302730	0.186330
Cu181	Cu18	0.648130	0.612970	0.687670
C691	C69	0.754130	0.673070	0.955670
C701	C70	0.850730	0.690270	0.878670
C711	C71	0.794030	0.670570	0.793670
C721	C72	0.775330	0.651470	0.579670
H181	H18	0.859630	0.704970	0.030670
O521	O52	0.771930	0.707270	0.124670
O531	O53	0.696630	0.645270	0.940670
O541	O54	0.717330	0.636070	0.519670
