data_PACYIE_clean_PM
_symmetry_space_group_name_H-M	'P1'
_cell_length_a	7.598700
_cell_length_b	10.016600
_cell_length_c	17.457800
_cell_angle_alpha	90.000000
_cell_angle_beta	90.000000
_cell_angle_gamma	90.000000
_symmetry_Int_Tables_number 1

loop_
_symmetry_equiv_pos_as_xyz
'x,y,z'

loop_
_atom_site_label
_atom_site_type_symbol
_atom_site_fract_x
_atom_site_fract_y
_atom_site_fract_z
N11	N1	0.206040	0.412470	0.638960
N21	N2	0.327560	0.598130	0.693950
C11	C1	0.083570	0.480790	0.676160
C21	C2	0.366040	0.483740	0.648250
N31	N3	0.151430	0.594960	0.709660
H11	H1	0.943530	0.442410	0.677230
H21	H2	0.490750	0.444210	0.620850
N41	N4	0.293960	0.587530	0.138960
N51	N5	0.172440	0.401870	0.193950
C31	C3	0.416430	0.519210	0.176160
C41	C4	0.133960	0.516260	0.148250
N61	N6	0.348570	0.405040	0.209660
H31	H3	0.556470	0.557590	0.177230
H41	H4	0.009250	0.555790	0.120850
N71	N7	0.793960	0.912470	0.361040
N81	N8	0.672440	0.098130	0.306050
C51	C5	0.916430	0.980790	0.323840
C61	C6	0.633960	0.983740	0.351750
N91	N9	0.848570	0.094960	0.290340
H51	H5	0.056470	0.942410	0.322770
H61	H6	0.509250	0.944210	0.379150
N101	N10	0.706040	0.087530	0.861040
N111	N11	0.827560	0.901870	0.806050
C71	C7	0.583570	0.019210	0.823840
C81	C8	0.866040	0.016260	0.851750
N121	N12	0.651430	0.905040	0.790340
H71	H7	0.443530	0.057590	0.822770
H81	H8	0.990750	0.055790	0.879150
N131	N13	0.793960	0.587530	0.361040
N141	N14	0.672440	0.401870	0.306050
C91	C9	0.916430	0.519210	0.323840
C101	C10	0.633960	0.516260	0.351750
N151	N15	0.848570	0.405040	0.290340
H91	H9	0.056470	0.557590	0.322770
H101	H10	0.509250	0.555790	0.379150
N161	N16	0.706040	0.412470	0.861040
N171	N17	0.827560	0.598130	0.806050
C111	C11	0.583570	0.480790	0.823840
C121	C12	0.866040	0.483740	0.851750
N181	N18	0.651430	0.594960	0.790340
H111	H11	0.443530	0.442410	0.822770
H121	H12	0.990750	0.444210	0.879150
N191	N19	0.206040	0.087530	0.638960
N201	N20	0.327560	0.901870	0.693950
C131	C13	0.083570	0.019210	0.676160
C141	C14	0.366040	0.016260	0.648250
N211	N21	0.151430	0.905040	0.709660
H131	H13	0.943530	0.057590	0.677230
H141	H14	0.490750	0.055790	0.620850
N221	N22	0.293960	0.912470	0.138960
N231	N23	0.172440	0.098130	0.193950
C151	C15	0.416430	0.980790	0.176160
C161	C16	0.133960	0.983740	0.148250
N241	N24	0.348570	0.094960	0.209660
H151	H15	0.556470	0.942410	0.177230
H161	H16	0.009250	0.944210	0.120850
Co11	Co1	0.156130	0.250000	0.582170
N251	N25	0.219970	0.250000	0.472670
C171	C17	0.385730	0.250000	0.437350
H171	H17	0.506310	0.250000	0.472250
H181	H18	0.935430	0.250000	0.439760
N261	N26	0.168240	0.250000	0.349930
N271	N27	0.342380	0.250000	0.358740
C181	C18	0.072760	0.250000	0.417320
Co21	Co2	0.343870	0.750000	0.082170
N281	N28	0.280030	0.750000	0.972670
C191	C19	0.114270	0.750000	0.937350
H191	H19	0.993690	0.750000	0.972250
H201	H20	0.564570	0.750000	0.939760
N291	N29	0.331760	0.750000	0.849930
N301	N30	0.157620	0.750000	0.858740
C201	C20	0.427240	0.750000	0.917320
Co31	Co3	0.843870	0.750000	0.417830
N311	N31	0.780030	0.750000	0.527330
C211	C21	0.614270	0.750000	0.562650
H211	H21	0.493690	0.750000	0.527750
H221	H22	0.064570	0.750000	0.560240
N321	N32	0.831760	0.750000	0.650070
N331	N33	0.657620	0.750000	0.641260
C221	C22	0.927240	0.750000	0.582680
Co41	Co4	0.656130	0.250000	0.917830
N341	N34	0.719970	0.250000	0.027330
C231	C23	0.885730	0.250000	0.062650
H231	H23	0.006310	0.250000	0.027750
H241	H24	0.435430	0.250000	0.060240
N351	N35	0.668240	0.250000	0.150070
N361	N36	0.842380	0.250000	0.141260
C241	C24	0.572760	0.250000	0.082680
Co51	Co5	0.510660	0.750000	0.741550
Co61	Co6	0.989340	0.250000	0.241550
Co71	Co7	0.489340	0.250000	0.258450
Co81	Co8	0.010660	0.750000	0.758450
