data_PACZUQ_clean_PM
_symmetry_space_group_name_H-M	'P1'
_cell_length_a	12.514000
_cell_length_b	15.767000
_cell_length_c	16.171000
_cell_angle_alpha	114.130000
_cell_angle_beta	104.060000
_cell_angle_gamma	103.720000
_symmetry_Int_Tables_number 1

loop_
_symmetry_equiv_pos_as_xyz
'x,y,z'

loop_
_atom_site_label
_atom_site_type_symbol
_atom_site_fract_x
_atom_site_fract_y
_atom_site_fract_z
Pr11	Pr1	0.534410	0.893740	0.031870
Pr21	Pr2	0.997190	0.976340	0.365680
Pr31	Pr3	0.868630	0.363220	0.902120
Pr41	Pr4	0.465590	0.106260	0.968130
Pr51	Pr5	0.002810	0.023660	0.634320
Pr61	Pr6	0.131370	0.636780	0.097880
H11	H1	0.179500	0.431500	0.212400
H21	H2	0.090300	0.432300	0.264400
H31	H3	0.026600	0.290900	0.209700
H41	H4	0.150900	0.304100	0.203100
H51	H5	0.369000	0.901600	0.314900
H61	H6	0.272300	0.921700	0.252700
H71	H7	0.393100	0.065400	0.292000
H81	H8	0.419300	0.060500	0.389000
H91	H9	0.687000	0.197900	0.411200
H101	H10	0.564500	0.205300	0.407300
H111	H11	0.531300	0.217300	0.288400
H121	H12	0.669500	0.265600	0.333400
H131	H13	0.573300	0.013000	0.440300
H141	H14	0.670700	0.119300	0.482100
H151	H15	0.665700	0.938700	0.347000
H161	H16	0.756700	0.042800	0.375400
H171	H17	0.595200	0.665000	0.089000
H181	H18	0.524000	0.726400	0.136200
H191	H19	0.611500	0.734200	0.281900
H201	H20	0.546700	0.622200	0.197600
H211	H21	0.704400	0.586300	0.323000
H221	H22	0.722000	0.698800	0.386300
H231	H23	0.889400	0.664900	0.446300
H241	H24	0.908300	0.640100	0.347800
H251	H25	0.749700	0.533200	0.188100
H261	H26	0.652300	0.542000	0.113400
H271	H27	0.900000	0.651500	0.182000
H281	H28	0.802200	0.658800	0.106300
H291	H29	0.119300	0.122000	0.899500
H301	H30	0.003000	0.066400	0.906000
H311	H31	0.145300	0.167500	0.062800
H321	H32	0.169900	0.261900	0.048700
H331	H33	0.936200	0.075700	0.016000
H341	H34	0.952800	0.137300	0.125900
H351	H35	0.787000	0.128500	0.968700
H361	H36	0.803800	0.190700	0.078400
H371	H37	0.629300	0.742600	0.942000
H381	H38	0.348500	0.726000	0.004900
H391	H39	0.160600	0.086800	0.309600
H401	H40	0.827100	0.996900	0.226500
H411	H41	0.653200	0.319300	0.746200
H421	H42	0.834500	0.277900	0.698700
H431	H43	0.820500	0.568500	0.787600
H441	H44	0.909700	0.567700	0.735600
H451	H45	0.973400	0.709100	0.790300
H461	H46	0.849100	0.695900	0.796900
H471	H47	0.631000	0.098400	0.685100
H481	H48	0.727700	0.078300	0.747300
H491	H49	0.606900	0.934600	0.708000
H501	H50	0.580700	0.939500	0.611000
H511	H51	0.313000	0.802100	0.588800
H521	H52	0.435500	0.794700	0.592700
H531	H53	0.468700	0.782700	0.711600
H541	H54	0.330500	0.734400	0.666600
H551	H55	0.426700	0.987000	0.559700
H561	H56	0.329300	0.880700	0.517900
H571	H57	0.334300	0.061300	0.653000
H581	H58	0.243300	0.957200	0.624600
H591	H59	0.404800	0.335000	0.911000
H601	H60	0.476000	0.273600	0.863800
H611	H61	0.388500	0.265800	0.718100
H621	H62	0.453300	0.377800	0.802400
H631	H63	0.295600	0.413700	0.677000
H641	H64	0.278000	0.301200	0.613700
H651	H65	0.110600	0.335100	0.553700
H661	H66	0.091700	0.359900	0.652200
H671	H67	0.250300	0.466800	0.811900
H681	H68	0.347700	0.458000	0.886600
H691	H69	0.100000	0.348500	0.818000
H701	H70	0.197800	0.341200	0.893700
H711	H71	0.880700	0.878000	0.100500
H721	H72	0.997000	0.933600	0.094000
H731	H73	0.854700	0.832500	0.937200
H741	H74	0.830100	0.738100	0.951300
H751	H75	0.063800	0.924300	0.984000
H761	H76	0.047200	0.862700	0.874100
H771	H77	0.213000	0.871500	0.031300
H781	H78	0.196200	0.809300	0.921600
H791	H79	0.370700	0.257400	0.058000
H801	H80	0.651500	0.274000	0.995100
H811	H81	0.839400	0.913200	0.690400
H821	H82	0.172900	0.003100	0.773500
H831	H83	0.346800	0.680700	0.253800
H841	H84	0.165500	0.722100	0.301300
C11	C1	0.096000	0.402000	0.200800
C21	C2	0.075000	0.307600	0.175700
C31	C3	0.032600	0.440700	0.144200
C41	C4	0.369800	0.860800	0.177100
C51	C5	0.355000	0.928600	0.271000
C61	C6	0.426700	0.033600	0.325800
C71	C7	0.604100	0.170900	0.368000
C81	C8	0.602300	0.202200	0.300800
C91	C9	0.604900	0.141600	0.202700
C101	C10	0.626900	0.053500	0.424200
C111	C11	0.710600	0.007400	0.399900
C121	C12	0.795300	0.005800	0.481900
C131	C13	0.699000	0.816000	0.179600
C141	C14	0.599300	0.717700	0.149500
C151	C15	0.613600	0.684100	0.223000
C161	C16	0.749600	0.655000	0.341900
C171	C17	0.879200	0.680500	0.393500
C181	C18	0.951100	0.791600	0.435100
C191	C19	0.730300	0.578500	0.166200
C201	C20	0.822300	0.614100	0.128800
C211	C21	0.826900	0.527300	0.046500
C221	C22	0.985300	0.166000	0.860400
C231	C23	0.054800	0.131600	0.920600
C241	C24	0.108200	0.200400	0.032200
C251	C25	0.931300	0.135600	0.063200
C261	C26	0.807800	0.130100	0.031300
C271	C27	0.717500	0.041000	0.020900
C281	C28	0.904000	0.598000	0.799200
C291	C29	0.925000	0.692400	0.824300
C301	C30	0.967400	0.559300	0.855800
C311	C31	0.630200	0.139200	0.822900
C321	C32	0.645000	0.071400	0.729000
C331	C33	0.573300	0.966400	0.674200
C341	C34	0.395900	0.829100	0.632000
C351	C35	0.397700	0.797800	0.699200
C361	C36	0.395100	0.858400	0.797300
C371	C37	0.373100	0.946500	0.575800
C381	C38	0.289400	0.992600	0.600100
C391	C39	0.204700	0.994200	0.518100
C401	C40	0.301000	0.184000	0.820400
C411	C41	0.400700	0.282300	0.850500
C421	C42	0.386400	0.315900	0.777000
C431	C43	0.250400	0.345000	0.658100
C441	C44	0.120800	0.319500	0.606500
C451	C45	0.048900	0.208400	0.564900
C461	C46	0.269700	0.421500	0.833800
C471	C47	0.177700	0.385900	0.871200
C481	C48	0.173100	0.472700	0.953500
C491	C49	0.014700	0.834000	0.139600
C501	C50	0.945200	0.868400	0.079400
C511	C51	0.891800	0.799600	0.967800
C521	C52	0.068700	0.864400	0.936800
C531	C53	0.192200	0.869900	0.968700
C541	C54	0.282500	0.959000	0.979100
N11	N1	0.555000	0.064700	0.344000
N21	N2	0.728000	0.666800	0.250000
N31	N3	0.017900	0.226100	0.073100
N41	N4	0.445000	0.935300	0.656000
N51	N5	0.272000	0.333200	0.750000
N61	N6	0.982100	0.773900	0.926900
O11	O1	0.456800	0.894600	0.161800
O21	O2	0.621300	0.061800	0.185500
O31	O3	0.747300	0.989200	0.054400
O41	O4	0.677200	0.866400	0.138700
O51	O5	0.604400	0.773700	0.917200
O61	O6	0.382500	0.723800	0.967100
O71	O7	0.591000	0.176200	0.145300
O81	O8	0.606700	0.021900	0.977200
O91	O9	0.870500	0.967300	0.460500
O101	O10	0.797300	0.841000	0.242000
O111	O11	0.964400	0.818000	0.374200
O121	O12	0.795200	0.040200	0.564300
O131	O13	0.165900	0.104000	0.366200
O141	O14	0.985000	0.848600	0.526300
O151	O15	0.891800	0.041000	0.267300
O161	O16	0.952400	0.235600	0.902100
O171	O17	0.295300	0.772900	0.122700
O181	O18	0.943700	0.377900	0.067700
O191	O19	0.752100	0.440400	0.006900
O201	O20	0.686000	0.370800	0.799700
O211	O21	0.071200	0.533400	0.176400
O221	O22	0.851600	0.252700	0.733000
O231	O23	0.913800	0.545900	0.019600
O241	O24	0.961800	0.123400	0.771000
O251	O25	0.543200	0.105400	0.838200
O261	O26	0.378700	0.938200	0.814500
O271	O27	0.252700	0.010800	0.945600
O281	O28	0.322800	0.133600	0.861300
O291	O29	0.395600	0.226300	0.082800
O301	O30	0.617500	0.276200	0.032900
O311	O31	0.409000	0.823800	0.854700
O321	O32	0.393300	0.978100	0.022800
O331	O33	0.129500	0.032700	0.539500
O341	O34	0.202700	0.159000	0.758000
O351	O35	0.035600	0.182000	0.625800
O361	O36	0.204800	0.959800	0.435700
O371	O37	0.834100	0.896000	0.633800
O381	O38	0.015000	0.151400	0.473700
O391	O39	0.108200	0.959000	0.732700
O401	O40	0.047600	0.764400	0.097900
O411	O41	0.704700	0.227100	0.877300
O421	O42	0.056300	0.622100	0.932300
O431	O43	0.247900	0.559600	0.993100
O441	O44	0.314000	0.629200	0.200300
O451	O45	0.928800	0.466600	0.823600
O461	O46	0.148400	0.747300	0.267000
O471	O47	0.086200	0.454100	0.980400
O481	O48	0.038200	0.876600	0.229000
