data_PAKFEP_clean_PM
_symmetry_space_group_name_H-M	'P1'
_cell_length_a	12.238300
_cell_length_b	25.491000
_cell_length_c	7.553900
_cell_angle_alpha	90.000000
_cell_angle_beta	94.329000
_cell_angle_gamma	90.000000
_symmetry_Int_Tables_number 1

loop_
_symmetry_equiv_pos_as_xyz
'x,y,z'

loop_
_atom_site_label
_atom_site_type_symbol
_atom_site_fract_x
_atom_site_fract_y
_atom_site_fract_z
C11	C1	0.865200	0.889600	0.392800
C21	C2	0.864700	0.957400	0.912200
C31	C3	0.765700	0.755940	0.757100
H11	H1	0.702800	0.750300	0.682500
C41	C4	0.821500	0.712710	0.830000
H21	H2	0.795500	0.679000	0.805500
C51	C5	0.914800	0.720010	0.937900
C61	C6	0.952700	0.770760	0.966000
H31	H3	0.017700	0.777200	0.034500
C71	C7	0.892500	0.811100	0.890800
H41	H4	0.918400	0.845000	0.911200
C81	C8	0.972200	0.673700	0.030300
Mn11	Mn1	0.688090	0.875370	0.703070
N11	N1	0.792800	0.883960	0.478400
N21	N2	0.792600	0.931320	0.859700
N31	N3	0.797900	0.805160	0.788800
O11	O1	0.073800	0.677520	0.065200
O21	O2	0.913100	0.634920	0.066100
C91	C9	0.365200	0.389600	0.392800
C101	C10	0.364700	0.457400	0.912200
C111	C11	0.265700	0.255940	0.757100
H51	H5	0.202800	0.250300	0.682500
C121	C12	0.321500	0.212710	0.830000
H61	H6	0.295500	0.179000	0.805500
C131	C13	0.414800	0.220010	0.937900
C141	C14	0.452700	0.270760	0.966000
H71	H7	0.517700	0.277200	0.034500
C151	C15	0.392500	0.311100	0.890800
H81	H8	0.418400	0.345000	0.911200
C161	C16	0.472200	0.173700	0.030300
Mn21	Mn2	0.188090	0.375370	0.703070
N41	N4	0.292800	0.383960	0.478400
N51	N5	0.292600	0.431320	0.859700
N61	N6	0.297900	0.305160	0.788800
O31	O3	0.573800	0.177520	0.065200
O41	O4	0.413100	0.134920	0.066100
C171	C17	0.134800	0.889600	0.107200
C181	C18	0.135300	0.957400	0.587800
C191	C19	0.234300	0.755940	0.742900
H91	H9	0.297200	0.750300	0.817500
C201	C20	0.178500	0.712710	0.670000
H101	H10	0.204500	0.679000	0.694500
C211	C21	0.085200	0.720010	0.562100
C221	C22	0.047300	0.770760	0.534000
H111	H11	0.982300	0.777200	0.465500
C231	C23	0.107500	0.811100	0.609200
H121	H12	0.081600	0.845000	0.588800
C241	C24	0.027800	0.673700	0.469700
Mn31	Mn3	0.311910	0.875370	0.796930
N71	N7	0.207200	0.883960	0.021600
N81	N8	0.207400	0.931320	0.640300
N91	N9	0.202100	0.805160	0.711200
O51	O5	0.926200	0.677520	0.434800
O61	O6	0.086900	0.634920	0.433900
C251	C25	0.634800	0.389600	0.107200
C261	C26	0.635300	0.457400	0.587800
C271	C27	0.734300	0.255940	0.742900
H131	H13	0.797200	0.250300	0.817500
C281	C28	0.678500	0.212710	0.670000
H141	H14	0.704500	0.179000	0.694500
C291	C29	0.585200	0.220010	0.562100
C301	C30	0.547300	0.270760	0.534000
H151	H15	0.482300	0.277200	0.465500
C311	C31	0.607500	0.311100	0.609200
H161	H16	0.581600	0.345000	0.588800
C321	C32	0.527800	0.173700	0.469700
Mn41	Mn4	0.811910	0.375370	0.796930
N101	N10	0.707200	0.383960	0.021600
N111	N11	0.707400	0.431320	0.640300
N121	N12	0.702100	0.305160	0.711200
O71	O7	0.426200	0.177520	0.434800
O81	O8	0.586900	0.134920	0.433900
C331	C33	0.134800	0.110400	0.607200
C341	C34	0.135300	0.042600	0.087800
C351	C35	0.234300	0.244060	0.242900
H171	H17	0.297200	0.249700	0.317500
C361	C36	0.178500	0.287290	0.170000
H181	H18	0.204500	0.321000	0.194500
C371	C37	0.085200	0.279990	0.062100
C381	C38	0.047300	0.229240	0.034000
H191	H19	0.982300	0.222800	0.965500
C391	C39	0.107500	0.188900	0.109200
H201	H20	0.081600	0.155000	0.088800
C401	C40	0.027800	0.326300	0.969700
Mn51	Mn5	0.311910	0.124630	0.296930
N131	N13	0.207200	0.116040	0.521600
N141	N14	0.207400	0.068680	0.140300
N151	N15	0.202100	0.194840	0.211200
O91	O9	0.926200	0.322480	0.934800
O101	O10	0.086900	0.365080	0.933900
C411	C41	0.634800	0.610400	0.607200
C421	C42	0.635300	0.542600	0.087800
C431	C43	0.734300	0.744060	0.242900
H211	H21	0.797200	0.749700	0.317500
C441	C44	0.678500	0.787290	0.170000
H221	H22	0.704500	0.821000	0.194500
C451	C45	0.585200	0.779990	0.062100
C461	C46	0.547300	0.729240	0.034000
H231	H23	0.482300	0.722800	0.965500
C471	C47	0.607500	0.688900	0.109200
H241	H24	0.581600	0.655000	0.088800
C481	C48	0.527800	0.826300	0.969700
Mn61	Mn6	0.811910	0.624630	0.296930
N161	N16	0.707200	0.616040	0.521600
N171	N17	0.707400	0.568680	0.140300
N181	N18	0.702100	0.694840	0.211200
O111	O11	0.426200	0.822480	0.934800
O121	O12	0.586900	0.865080	0.933900
C491	C49	0.865200	0.110400	0.892800
C501	C50	0.864700	0.042600	0.412200
C511	C51	0.765700	0.244060	0.257100
H251	H25	0.702800	0.249700	0.182500
C521	C52	0.821500	0.287290	0.330000
H261	H26	0.795500	0.321000	0.305500
C531	C53	0.914800	0.279990	0.437900
C541	C54	0.952700	0.229240	0.466000
H271	H27	0.017700	0.222800	0.534500
C551	C55	0.892500	0.188900	0.390800
H281	H28	0.918400	0.155000	0.411200
C561	C56	0.972200	0.326300	0.530300
Mn71	Mn7	0.688090	0.124630	0.203070
N191	N19	0.792800	0.116040	0.978400
N201	N20	0.792600	0.068680	0.359700
N211	N21	0.797900	0.194840	0.288800
O131	O13	0.073800	0.322480	0.565200
O141	O14	0.913100	0.365080	0.566100
C571	C57	0.365200	0.610400	0.892800
C581	C58	0.364700	0.542600	0.412200
C591	C59	0.265700	0.744060	0.257100
H291	H29	0.202800	0.749700	0.182500
C601	C60	0.321500	0.787290	0.330000
H301	H30	0.295500	0.821000	0.305500
C611	C61	0.414800	0.779990	0.437900
C621	C62	0.452700	0.729240	0.466000
H311	H31	0.517700	0.722800	0.534500
C631	C63	0.392500	0.688900	0.390800
H321	H32	0.418400	0.655000	0.411200
C641	C64	0.472200	0.826300	0.530300
Mn81	Mn8	0.188090	0.624630	0.203070
N221	N22	0.292800	0.616040	0.978400
N231	N23	0.292600	0.568680	0.359700
N241	N24	0.297900	0.694840	0.288800
O151	O15	0.573800	0.822480	0.565200
O161	O16	0.413100	0.865080	0.566100
Ag11	Ag1	0.000000	0.897110	0.250000
Ag21	Ag2	0.500000	0.397110	0.250000
Ag31	Ag3	0.000000	0.102890	0.750000
Ag41	Ag4	0.500000	0.602890	0.750000
Ag51	Ag5	0.000000	0.000000	0.000000
Ag61	Ag6	0.500000	0.500000	0.000000
Ag71	Ag7	0.000000	0.000000	0.500000
Ag81	Ag8	0.500000	0.500000	0.500000
