data_PAMHIW_clean_PM
_symmetry_space_group_name_H-M	'P1'
_cell_length_a	18.621000
_cell_length_b	18.621000
_cell_length_c	25.628300
_cell_angle_alpha	68.697600
_cell_angle_beta	68.697600
_cell_angle_gamma	60.000000
_symmetry_Int_Tables_number 1

loop_
_symmetry_equiv_pos_as_xyz
'x,y,z'

loop_
_atom_site_label
_atom_site_type_symbol
_atom_site_fract_x
_atom_site_fract_y
_atom_site_fract_z
Cu11	Cu1	0.687300	0.272520	0.796540
Cu21	Cu2	0.272520	0.243640	0.796540
Cu31	Cu3	0.243640	0.687300	0.796540
Cu41	Cu4	0.812700	0.256360	0.703460
Cu51	Cu5	0.227480	0.812700	0.703460
Cu61	Cu6	0.256360	0.227480	0.703460
Cu71	Cu7	0.312700	0.727480	0.203460
Cu81	Cu8	0.727480	0.756360	0.203460
Cu91	Cu9	0.756360	0.312700	0.203460
Cu101	Cu10	0.187300	0.743640	0.296540
Cu111	Cu11	0.772520	0.187300	0.296540
Cu121	Cu12	0.743640	0.772520	0.296540
H11	H1	0.506300	0.521300	0.740200
H21	H2	0.486700	0.729700	0.608800
H31	H3	0.712700	0.523500	0.611200
H41	H4	0.608000	0.726400	0.534100
H51	H5	0.750500	0.602400	0.517900
H61	H6	0.753700	0.648000	0.559000
H71	H7	0.749100	0.668800	0.420100
H81	H8	0.733800	0.797500	0.520300
H91	H9	0.727300	0.926000	0.433600
H101	H10	0.769800	0.887100	0.344500
H111	H11	0.521300	0.232200	0.740200
H121	H12	0.729700	0.174800	0.608800
H131	H13	0.523500	0.152600	0.611200
H141	H14	0.726400	0.131500	0.534100
H151	H15	0.602400	0.129200	0.517900
H161	H16	0.648000	0.039300	0.559000
H171	H17	0.668800	0.162000	0.420100
H181	H18	0.797500	0.948400	0.520300
H191	H19	0.926000	0.913100	0.433600
H201	H20	0.887100	0.998600	0.344500
H211	H21	0.232200	0.506300	0.740200
H221	H22	0.174800	0.486700	0.608800
H231	H23	0.152600	0.712700	0.611200
H241	H24	0.131500	0.608000	0.534100
H251	H25	0.129200	0.750500	0.517900
H261	H26	0.039300	0.753700	0.559000
H271	H27	0.162000	0.749100	0.420100
H281	H28	0.948400	0.733800	0.520300
H291	H29	0.913100	0.727300	0.433600
H301	H30	0.998600	0.769800	0.344500
H311	H31	0.993700	0.267800	0.759800
H321	H32	0.013300	0.325200	0.891200
H331	H33	0.787300	0.347400	0.888800
H341	H34	0.892000	0.368500	0.965900
H351	H35	0.749500	0.370800	0.982100
H361	H36	0.746300	0.460700	0.941000
H371	H37	0.750900	0.338000	0.079900
H381	H38	0.766200	0.551600	0.979700
H391	H39	0.772700	0.586900	0.066400
H401	H40	0.730200	0.501400	0.155500
H411	H41	0.978700	0.993700	0.759800
H421	H42	0.770300	0.013300	0.891200
H431	H43	0.976500	0.787300	0.888800
H441	H44	0.773600	0.892000	0.965900
H451	H45	0.897600	0.749500	0.982100
H461	H46	0.852000	0.746300	0.941000
H471	H47	0.831200	0.750900	0.079900
H481	H48	0.702500	0.766200	0.979700
H491	H49	0.574000	0.772700	0.066400
H501	H50	0.612900	0.730200	0.155500
H511	H51	0.267800	0.978700	0.759800
H521	H52	0.325200	0.770300	0.891200
H531	H53	0.347400	0.976500	0.888800
H541	H54	0.368500	0.773600	0.965900
H551	H55	0.370800	0.897600	0.982100
H561	H56	0.460700	0.852000	0.941000
H571	H57	0.338000	0.831200	0.079900
H581	H58	0.551600	0.702500	0.979700
H591	H59	0.586900	0.574000	0.066400
H601	H60	0.501400	0.612900	0.155500
H611	H61	0.493700	0.478700	0.259800
H621	H62	0.513300	0.270300	0.391200
H631	H63	0.287300	0.476500	0.388800
H641	H64	0.392000	0.273600	0.465900
H651	H65	0.249500	0.397600	0.482100
H661	H66	0.246300	0.352000	0.441000
H671	H67	0.250900	0.331200	0.579900
H681	H68	0.266200	0.202500	0.479700
H691	H69	0.272700	0.074000	0.566400
H701	H70	0.230200	0.112900	0.655500
H711	H71	0.478700	0.767800	0.259800
H721	H72	0.270300	0.825200	0.391200
H731	H73	0.476500	0.847400	0.388800
H741	H74	0.273600	0.868500	0.465900
H751	H75	0.397600	0.870800	0.482100
H761	H76	0.352000	0.960700	0.441000
H771	H77	0.331200	0.838000	0.579900
H781	H78	0.202500	0.051600	0.479700
H791	H79	0.074000	0.086900	0.566400
H801	H80	0.112900	0.001400	0.655500
H811	H81	0.767800	0.493700	0.259800
H821	H82	0.825200	0.513300	0.391200
H831	H83	0.847400	0.287300	0.388800
H841	H84	0.868500	0.392000	0.465900
H851	H85	0.870800	0.249500	0.482100
H861	H86	0.960700	0.246300	0.441000
H871	H87	0.838000	0.250900	0.579900
H881	H88	0.051600	0.266200	0.479700
H891	H89	0.086900	0.272700	0.566400
H901	H90	0.001400	0.230200	0.655500
H911	H91	0.006300	0.732200	0.240200
H921	H92	0.986700	0.674800	0.108800
H931	H93	0.212700	0.652600	0.111200
H941	H94	0.108000	0.631500	0.034100
H951	H95	0.250500	0.629200	0.017900
H961	H96	0.253700	0.539300	0.059000
H971	H97	0.249100	0.662000	0.920100
H981	H98	0.233800	0.448400	0.020300
H991	H99	0.227300	0.413100	0.933600
H1001	H100	0.269800	0.498600	0.844500
H1011	H101	0.021300	0.006300	0.240200
H1021	H102	0.229700	0.986700	0.108800
H1031	H103	0.023500	0.212700	0.111200
H1041	H104	0.226400	0.108000	0.034100
H1051	H105	0.102400	0.250500	0.017900
H1061	H106	0.148000	0.253700	0.059000
H1071	H107	0.168800	0.249100	0.920100
H1081	H108	0.297500	0.233800	0.020300
H1091	H109	0.426000	0.227300	0.933600
H1101	H110	0.387100	0.269800	0.844500
H1111	H111	0.732200	0.021300	0.240200
H1121	H112	0.674800	0.229700	0.108800
H1131	H113	0.652600	0.023500	0.111200
H1141	H114	0.631500	0.226400	0.034100
H1151	H115	0.629200	0.102400	0.017900
H1161	H116	0.539300	0.148000	0.059000
H1171	H117	0.662000	0.168800	0.920100
H1181	H118	0.448400	0.297500	0.020300
H1191	H119	0.413100	0.426000	0.933600
H1201	H120	0.498600	0.387100	0.844500
C11	C1	0.668480	0.419360	0.706240
C21	C2	0.616960	0.509160	0.679120
C31	C3	0.531270	0.549570	0.704890
C41	C4	0.482620	0.632120	0.678340
C51	C5	0.520360	0.673760	0.627220
C61	C6	0.606640	0.634440	0.602680
C71	C7	0.654160	0.551560	0.628420
C81	C8	0.391220	0.675320	0.704740
C91	C9	0.724950	0.656550	0.530050
C101	C10	0.737340	0.725740	0.478480
C111	C11	0.744450	0.719650	0.424450
C121	C12	0.735100	0.795100	0.483700
C131	C13	0.736490	0.872490	0.430630
C141	C14	0.752470	0.851970	0.379390
C151	C15	0.419360	0.205920	0.706240
C161	C16	0.509160	0.194760	0.679120
C171	C17	0.549570	0.214270	0.704890
C181	C18	0.632120	0.206920	0.678340
C191	C19	0.673760	0.178660	0.627220
C201	C20	0.634440	0.156240	0.602680
C211	C21	0.551560	0.165860	0.628420
C221	C22	0.675320	0.228720	0.704740
C231	C23	0.656550	0.088450	0.530050
C241	C24	0.725740	0.058440	0.478480
C251	C25	0.719650	0.111450	0.424450
C261	C26	0.795100	0.986100	0.483700
C271	C27	0.872490	0.960390	0.430630
C281	C28	0.851970	0.016170	0.379390
C291	C29	0.205920	0.668480	0.706240
C301	C30	0.194760	0.616960	0.679120
C311	C31	0.214270	0.531270	0.704890
C321	C32	0.206920	0.482620	0.678340
C331	C33	0.178660	0.520360	0.627220
C341	C34	0.156240	0.606640	0.602680
C351	C35	0.165860	0.654160	0.628420
C361	C36	0.228720	0.391220	0.704740
C371	C37	0.088450	0.724950	0.530050
C381	C38	0.058440	0.737340	0.478480
C391	C39	0.111450	0.744450	0.424450
C401	C40	0.986100	0.735100	0.483700
C411	C41	0.960390	0.736490	0.430630
C421	C42	0.016170	0.752470	0.379390
C431	C43	0.831520	0.294080	0.793760
C441	C44	0.883040	0.305240	0.820880
C451	C45	0.968730	0.285730	0.795110
C461	C46	0.017380	0.293080	0.821660
C471	C47	0.979640	0.321340	0.872780
C481	C48	0.893360	0.343760	0.897320
C491	C49	0.845840	0.334140	0.871580
C501	C50	0.108780	0.271280	0.795260
C511	C51	0.775050	0.411550	0.969950
C521	C52	0.762660	0.441560	0.021520
C531	C53	0.755550	0.388550	0.075550
C541	C54	0.764900	0.513900	0.016300
C551	C55	0.763510	0.539610	0.069370
C561	C56	0.747530	0.483830	0.120610
C571	C57	0.080640	0.831520	0.793760
C581	C58	0.990840	0.883040	0.820880
C591	C59	0.950430	0.968730	0.795110
C601	C60	0.867880	0.017380	0.821660
C611	C61	0.826240	0.979640	0.872780
C621	C62	0.865560	0.893360	0.897320
C631	C63	0.948440	0.845840	0.871580
C641	C64	0.824680	0.108780	0.795260
C651	C65	0.843450	0.775050	0.969950
C661	C66	0.774260	0.762660	0.021520
C671	C67	0.780350	0.755550	0.075550
C681	C68	0.704900	0.764900	0.016300
C691	C69	0.627510	0.763510	0.069370
C701	C70	0.648030	0.747530	0.120610
C711	C71	0.294080	0.080640	0.793760
C721	C72	0.305240	0.990840	0.820880
C731	C73	0.285730	0.950430	0.795110
C741	C74	0.293080	0.867880	0.821660
C751	C75	0.321340	0.826240	0.872780
C761	C76	0.343760	0.865560	0.897320
C771	C77	0.334140	0.948440	0.871580
C781	C78	0.271280	0.824680	0.795260
C791	C79	0.411550	0.843450	0.969950
C801	C80	0.441560	0.774260	0.021520
C811	C81	0.388550	0.780350	0.075550
C821	C82	0.513900	0.704900	0.016300
C831	C83	0.539610	0.627510	0.069370
C841	C84	0.483830	0.648030	0.120610
C851	C85	0.331520	0.580640	0.293760
C861	C86	0.383040	0.490840	0.320880
C871	C87	0.468730	0.450430	0.295110
C881	C88	0.517380	0.367880	0.321660
C891	C89	0.479640	0.326240	0.372780
C901	C90	0.393360	0.365560	0.397320
C911	C91	0.345840	0.448440	0.371580
C921	C92	0.608780	0.324680	0.295260
C931	C93	0.275050	0.343450	0.469950
C941	C94	0.262660	0.274260	0.521520
C951	C95	0.255550	0.280350	0.575550
C961	C96	0.264900	0.204900	0.516300
C971	C97	0.263510	0.127510	0.569370
C981	C98	0.247530	0.148030	0.620610
C991	C99	0.580640	0.794080	0.293760
C1001	C100	0.490840	0.805240	0.320880
C1011	C101	0.450430	0.785730	0.295110
C1021	C102	0.367880	0.793080	0.321660
C1031	C103	0.326240	0.821340	0.372780
C1041	C104	0.365560	0.843760	0.397320
C1051	C105	0.448440	0.834140	0.371580
C1061	C106	0.324680	0.771280	0.295260
C1071	C107	0.343450	0.911550	0.469950
C1081	C108	0.274260	0.941560	0.521520
C1091	C109	0.280350	0.888550	0.575550
C1101	C110	0.204900	0.013900	0.516300
C1111	C111	0.127510	0.039610	0.569370
C1121	C112	0.148030	0.983830	0.620610
C1131	C113	0.794080	0.331520	0.293760
C1141	C114	0.805240	0.383040	0.320880
C1151	C115	0.785730	0.468730	0.295110
C1161	C116	0.793080	0.517380	0.321660
C1171	C117	0.821340	0.479640	0.372780
C1181	C118	0.843760	0.393360	0.397320
C1191	C119	0.834140	0.345840	0.371580
C1201	C120	0.771280	0.608780	0.295260
C1211	C121	0.911550	0.275050	0.469950
C1221	C122	0.941560	0.262660	0.521520
C1231	C123	0.888550	0.255550	0.575550
C1241	C124	0.013900	0.264900	0.516300
C1251	C125	0.039610	0.263510	0.569370
C1261	C126	0.983830	0.247530	0.620610
C1271	C127	0.168480	0.705920	0.206240
C1281	C128	0.116960	0.694760	0.179120
C1291	C129	0.031270	0.714270	0.204890
C1301	C130	0.982620	0.706920	0.178340
C1311	C131	0.020360	0.678660	0.127220
C1321	C132	0.106640	0.656240	0.102680
C1331	C133	0.154160	0.665860	0.128420
C1341	C134	0.891220	0.728720	0.204740
C1351	C135	0.224950	0.588450	0.030050
C1361	C136	0.237340	0.558440	0.978480
C1371	C137	0.244450	0.611450	0.924450
C1381	C138	0.235100	0.486100	0.983700
C1391	C139	0.236490	0.460390	0.930630
C1401	C140	0.252470	0.516170	0.879390
C1411	C141	0.919360	0.168480	0.206240
C1421	C142	0.009160	0.116960	0.179120
C1431	C143	0.049570	0.031270	0.204890
C1441	C144	0.132120	0.982620	0.178340
C1451	C145	0.173760	0.020360	0.127220
C1461	C146	0.134440	0.106640	0.102680
C1471	C147	0.051560	0.154160	0.128420
C1481	C148	0.175320	0.891220	0.204740
C1491	C149	0.156550	0.224950	0.030050
C1501	C150	0.225740	0.237340	0.978480
C1511	C151	0.219650	0.244450	0.924450
C1521	C152	0.295100	0.235100	0.983700
C1531	C153	0.372490	0.236490	0.930630
C1541	C154	0.351970	0.252470	0.879390
C1551	C155	0.705920	0.919360	0.206240
C1561	C156	0.694760	0.009160	0.179120
C1571	C157	0.714270	0.049570	0.204890
C1581	C158	0.706920	0.132120	0.178340
C1591	C159	0.678660	0.173760	0.127220
C1601	C160	0.656240	0.134440	0.102680
C1611	C161	0.665860	0.051560	0.128420
C1621	C162	0.728720	0.175320	0.204740
C1631	C163	0.588450	0.156550	0.030050
C1641	C164	0.558440	0.225740	0.978480
C1651	C165	0.611450	0.219650	0.924450
C1661	C166	0.486100	0.295100	0.983700
C1671	C167	0.460390	0.372490	0.930630
C1681	C168	0.516170	0.351970	0.879390
N11	N1	0.745190	0.786350	0.375730
N21	N2	0.643150	0.678850	0.552550
N31	N3	0.786350	0.092730	0.375730
N41	N4	0.678850	0.125450	0.552550
N51	N5	0.092730	0.745190	0.375730
N61	N6	0.125450	0.643150	0.552550
N71	N7	0.754810	0.407270	0.124270
N81	N8	0.856850	0.374550	0.947450
N91	N9	0.713650	0.754810	0.124270
N101	N10	0.821150	0.856850	0.947450
N111	N11	0.407270	0.713650	0.124270
N121	N12	0.374550	0.821150	0.947450
N131	N13	0.254810	0.213650	0.624270
N141	N14	0.356850	0.321150	0.447450
N151	N15	0.213650	0.907270	0.624270
N161	N16	0.321150	0.874550	0.447450
N171	N17	0.907270	0.254810	0.624270
N181	N18	0.874550	0.356850	0.447450
N191	N19	0.245190	0.592730	0.875730
N201	N20	0.143150	0.625450	0.052550
N211	N21	0.286350	0.245190	0.875730
N221	N22	0.178850	0.143150	0.052550
N231	N23	0.592730	0.286350	0.875730
N241	N24	0.625450	0.178850	0.052550
O11	O1	0.634860	0.390120	0.757240
O21	O2	0.740570	0.379490	0.677980
O31	O3	0.362890	0.639920	0.754180
O41	O4	0.348210	0.746130	0.675790
O51	O5	0.390120	0.217780	0.757240
O61	O6	0.379490	0.201960	0.677980
O71	O7	0.639920	0.243010	0.754180
O81	O8	0.746130	0.229870	0.675790
O91	O9	0.217780	0.634860	0.757240
O101	O10	0.201960	0.740570	0.677980
O111	O11	0.243010	0.362890	0.754180
O121	O12	0.229870	0.348210	0.675790
O131	O13	0.865140	0.282220	0.742760
O141	O14	0.759430	0.298040	0.822020
O151	O15	0.137110	0.256990	0.745820
O161	O16	0.151790	0.270130	0.824210
O171	O17	0.109880	0.865140	0.742760
O181	O18	0.120510	0.759430	0.822020
O191	O19	0.860080	0.137110	0.745820
O201	O20	0.753870	0.151790	0.824210
O211	O21	0.282220	0.109880	0.742760
O221	O22	0.298040	0.120510	0.822020
O231	O23	0.256990	0.860080	0.745820
O241	O24	0.270130	0.753870	0.824210
O251	O25	0.365140	0.609880	0.242760
O261	O26	0.259430	0.620510	0.322020
O271	O27	0.637110	0.360080	0.245820
O281	O28	0.651790	0.253870	0.324210
O291	O29	0.609880	0.782220	0.242760
O301	O30	0.620510	0.798040	0.322020
O311	O31	0.360080	0.756990	0.245820
O321	O32	0.253870	0.770130	0.324210
O331	O33	0.782220	0.365140	0.242760
O341	O34	0.798040	0.259430	0.322020
O351	O35	0.756990	0.637110	0.245820
O361	O36	0.770130	0.651790	0.324210
O371	O37	0.134860	0.717780	0.257240
O381	O38	0.240570	0.701960	0.177980
O391	O39	0.862890	0.743010	0.254180
O401	O40	0.848210	0.729870	0.175790
O411	O41	0.890120	0.134860	0.257240
O421	O42	0.879490	0.240570	0.177980
O431	O43	0.139920	0.862890	0.254180
O441	O44	0.246130	0.848210	0.175790
O451	O45	0.717780	0.890120	0.257240
O461	O46	0.701960	0.879490	0.177980
O471	O47	0.743010	0.139920	0.254180
O481	O48	0.729870	0.246130	0.175790
