data_PAPKOJ_clean_PM
_symmetry_space_group_name_H-M	'P1'
_cell_length_a	30.231000
_cell_length_b	9.875000
_cell_length_c	14.191000
_cell_angle_alpha	90.000000
_cell_angle_beta	97.128000
_cell_angle_gamma	90.000000
_symmetry_Int_Tables_number 1

loop_
_symmetry_equiv_pos_as_xyz
'x,y,z'

loop_
_atom_site_label
_atom_site_type_symbol
_atom_site_fract_x
_atom_site_fract_y
_atom_site_fract_z
O11	O1	0.581700	0.223600	0.807100
O21	O2	0.549630	0.093000	0.894700
O31	O3	0.966000	0.483700	0.822500
O41	O4	0.969000	0.301700	0.901800
O51	O5	0.474200	0.232800	0.901200
O61	O6	0.432700	0.138700	0.992300
C11	C1	0.582600	0.165200	0.880700
C21	C2	0.622300	0.163100	0.957100
H11	H1	0.622800	0.075400	0.991000
H21	H2	0.618600	0.235500	0.003700
C31	C3	0.667000	0.182500	0.919800
C41	C4	0.681300	0.305300	0.901100
H31	H3	0.662600	0.381100	0.907900
C51	C5	0.723100	0.325800	0.871700
H41	H4	0.732200	0.415300	0.858700
C61	C6	0.751100	0.221100	0.861100
C71	C7	0.736700	0.100300	0.883200
H51	H5	0.755400	0.024000	0.878300
C81	C8	0.695500	0.080600	0.913200
H61	H6	0.687100	0.991700	0.929600
C91	C9	0.796100	0.240700	0.831100
C101	C10	0.812000	0.366300	0.809900
H71	H7	0.793700	0.443600	0.814600
C111	C11	0.853800	0.383400	0.782200
H81	H8	0.863500	0.472000	0.768900
C121	C12	0.881000	0.277400	0.773500
C131	C13	0.866600	0.151100	0.791800
H91	H9	0.885100	0.075000	0.784900
C141	C14	0.824600	0.133100	0.820700
H101	H10	0.815200	0.044000	0.833800
C151	C15	0.927800	0.297300	0.745800
H111	H11	0.940400	0.208800	0.730500
H121	H12	0.926400	0.355800	0.688900
C161	C16	0.957000	0.362600	0.827700
C171	C17	0.437600	0.226000	0.933400
C181	C18	0.403500	0.332200	0.905600
H131	H13	0.400600	0.343800	0.835800
H141	H14	0.414300	0.419100	0.934700
C191	C19	0.357800	0.303700	0.933900
C201	C20	0.324600	0.250900	0.871800
H151	H15	0.330200	0.227400	0.809400
C211	C21	0.283400	0.231300	0.897700
H161	H16	0.260700	0.195500	0.852000
C221	C22	0.272700	0.260900	0.987200
C231	C23	0.307300	0.311500	0.051000
H171	H17	0.301900	0.333100	0.113900
C241	C24	0.349000	0.330700	0.025000
H181	H18	0.372200	0.363300	0.070600
O71	O7	0.081700	0.723600	0.807100
O81	O8	0.049630	0.593000	0.894700
O91	O9	0.466000	0.983700	0.822500
O101	O10	0.469000	0.801700	0.901800
O111	O11	0.974200	0.732800	0.901200
O121	O12	0.932700	0.638700	0.992300
C251	C25	0.082600	0.665200	0.880700
C261	C26	0.122300	0.663100	0.957100
H191	H19	0.122800	0.575400	0.991000
H201	H20	0.118600	0.735500	0.003700
C271	C27	0.167000	0.682500	0.919800
C281	C28	0.181300	0.805300	0.901100
H211	H21	0.162600	0.881100	0.907900
C291	C29	0.223100	0.825800	0.871700
H221	H22	0.232200	0.915300	0.858700
C301	C30	0.251100	0.721100	0.861100
C311	C31	0.236700	0.600300	0.883200
H231	H23	0.255400	0.524000	0.878300
C321	C32	0.195500	0.580600	0.913200
H241	H24	0.187100	0.491700	0.929600
C331	C33	0.296100	0.740700	0.831100
C341	C34	0.312000	0.866300	0.809900
H251	H25	0.293700	0.943600	0.814600
C351	C35	0.353800	0.883400	0.782200
H261	H26	0.363500	0.972000	0.768900
C361	C36	0.381000	0.777400	0.773500
C371	C37	0.366600	0.651100	0.791800
H271	H27	0.385100	0.575000	0.784900
C381	C38	0.324600	0.633100	0.820700
H281	H28	0.315200	0.544000	0.833800
C391	C39	0.427800	0.797300	0.745800
H291	H29	0.440400	0.708800	0.730500
H301	H30	0.426400	0.855800	0.688900
C401	C40	0.457000	0.862600	0.827700
C411	C41	0.937600	0.726000	0.933400
C421	C42	0.903500	0.832200	0.905600
H311	H31	0.900600	0.843800	0.835800
H321	H32	0.914300	0.919100	0.934700
C431	C43	0.857800	0.803700	0.933900
C441	C44	0.824600	0.750900	0.871800
H331	H33	0.830200	0.727400	0.809400
C451	C45	0.783400	0.731300	0.897700
H341	H34	0.760700	0.695500	0.852000
C461	C46	0.772700	0.760900	0.987200
C471	C47	0.807300	0.811500	0.051000
H351	H35	0.801900	0.833100	0.113900
C481	C48	0.849000	0.830700	0.025000
H361	H36	0.872200	0.863300	0.070600
O131	O13	0.418300	0.223600	0.692900
O141	O14	0.450370	0.093000	0.605300
O151	O15	0.034000	0.483700	0.677500
O161	O16	0.031000	0.301700	0.598200
O171	O17	0.525800	0.232800	0.598800
O181	O18	0.567300	0.138700	0.507700
C491	C49	0.417400	0.165200	0.619300
C501	C50	0.377700	0.163100	0.542900
H371	H37	0.377200	0.075400	0.509000
H381	H38	0.381400	0.235500	0.496300
C511	C51	0.333000	0.182500	0.580200
C521	C52	0.318700	0.305300	0.598900
H391	H39	0.337400	0.381100	0.592100
C531	C53	0.276900	0.325800	0.628300
H401	H40	0.267800	0.415300	0.641300
C541	C54	0.248900	0.221100	0.638900
C551	C55	0.263300	0.100300	0.616800
H411	H41	0.244600	0.024000	0.621700
C561	C56	0.304500	0.080600	0.586800
H421	H42	0.312900	0.991700	0.570400
C571	C57	0.203900	0.240700	0.668900
C581	C58	0.188000	0.366300	0.690100
H431	H43	0.206300	0.443600	0.685400
C591	C59	0.146200	0.383400	0.717800
H441	H44	0.136500	0.472000	0.731100
C601	C60	0.119000	0.277400	0.726500
C611	C61	0.133400	0.151100	0.708200
H451	H45	0.114900	0.075000	0.715100
C621	C62	0.175400	0.133100	0.679300
H461	H46	0.184800	0.044000	0.666200
C631	C63	0.072200	0.297300	0.754200
H471	H47	0.059600	0.208800	0.769500
H481	H48	0.073600	0.355800	0.811100
C641	C64	0.043000	0.362600	0.672300
C651	C65	0.562400	0.226000	0.566600
C661	C66	0.596500	0.332200	0.594400
H491	H49	0.599400	0.343800	0.664200
H501	H50	0.585700	0.419100	0.565300
C671	C67	0.642200	0.303700	0.566100
C681	C68	0.675400	0.250900	0.628200
H511	H51	0.669800	0.227400	0.690600
C691	C69	0.716600	0.231300	0.602300
H521	H52	0.739300	0.195500	0.648000
C701	C70	0.727300	0.260900	0.512800
C711	C71	0.692700	0.311500	0.449000
H531	H53	0.698100	0.333100	0.386100
C721	C72	0.651000	0.330700	0.475000
H541	H54	0.627800	0.363300	0.429400
O191	O19	0.918300	0.723600	0.692900
O201	O20	0.950370	0.593000	0.605300
O211	O21	0.534000	0.983700	0.677500
O221	O22	0.531000	0.801700	0.598200
O231	O23	0.025800	0.732800	0.598800
O241	O24	0.067300	0.638700	0.507700
C731	C73	0.917400	0.665200	0.619300
C741	C74	0.877700	0.663100	0.542900
H551	H55	0.877200	0.575400	0.509000
H561	H56	0.881400	0.735500	0.496300
C751	C75	0.833000	0.682500	0.580200
C761	C76	0.818700	0.805300	0.598900
H571	H57	0.837400	0.881100	0.592100
C771	C77	0.776900	0.825800	0.628300
H581	H58	0.767800	0.915300	0.641300
C781	C78	0.748900	0.721100	0.638900
C791	C79	0.763300	0.600300	0.616800
H591	H59	0.744600	0.524000	0.621700
C801	C80	0.804500	0.580600	0.586800
H601	H60	0.812900	0.491700	0.570400
C811	C81	0.703900	0.740700	0.668900
C821	C82	0.688000	0.866300	0.690100
H611	H61	0.706300	0.943600	0.685400
C831	C83	0.646200	0.883400	0.717800
H621	H62	0.636500	0.972000	0.731100
C841	C84	0.619000	0.777400	0.726500
C851	C85	0.633400	0.651100	0.708200
H631	H63	0.614900	0.575000	0.715100
C861	C86	0.675400	0.633100	0.679300
H641	H64	0.684800	0.544000	0.666200
C871	C87	0.572200	0.797300	0.754200
H651	H65	0.559600	0.708800	0.769500
H661	H66	0.573600	0.855800	0.811100
C881	C88	0.543000	0.862600	0.672300
C891	C89	0.062400	0.726000	0.566600
C901	C90	0.096500	0.832200	0.594400
H671	H67	0.099400	0.843800	0.664200
H681	H68	0.085700	0.919100	0.565300
C911	C91	0.142200	0.803700	0.566100
C921	C92	0.175400	0.750900	0.628200
H691	H69	0.169800	0.727400	0.690600
C931	C93	0.216600	0.731300	0.602300
H701	H70	0.239300	0.695500	0.648000
C941	C94	0.227300	0.760900	0.512800
C951	C95	0.192700	0.811500	0.449000
H711	H71	0.198100	0.833100	0.386100
C961	C96	0.151000	0.830700	0.475000
H721	H72	0.127800	0.863300	0.429400
O251	O25	0.418300	0.776400	0.192900
O261	O26	0.450370	0.907000	0.105300
O271	O27	0.034000	0.516300	0.177500
O281	O28	0.031000	0.698300	0.098200
O291	O29	0.525800	0.767200	0.098800
O301	O30	0.567300	0.861300	0.007700
C971	C97	0.417400	0.834800	0.119300
C981	C98	0.377700	0.836900	0.042900
H731	H73	0.377200	0.924600	0.009000
H741	H74	0.381400	0.764500	0.996300
C991	C99	0.333000	0.817500	0.080200
C1001	C100	0.318700	0.694700	0.098900
H751	H75	0.337400	0.618900	0.092100
C1011	C101	0.276900	0.674200	0.128300
H761	H76	0.267800	0.584700	0.141300
C1021	C102	0.248900	0.778900	0.138900
C1031	C103	0.263300	0.899700	0.116800
H771	H77	0.244600	0.976000	0.121700
C1041	C104	0.304500	0.919400	0.086800
H781	H78	0.312900	0.008300	0.070400
C1051	C105	0.203900	0.759300	0.168900
C1061	C106	0.188000	0.633700	0.190100
H791	H79	0.206300	0.556400	0.185400
C1071	C107	0.146200	0.616600	0.217800
H801	H80	0.136500	0.528000	0.231100
C1081	C108	0.119000	0.722600	0.226500
C1091	C109	0.133400	0.848900	0.208200
H811	H81	0.114900	0.925000	0.215100
C1101	C110	0.175400	0.866900	0.179300
H821	H82	0.184800	0.956000	0.166200
C1111	C111	0.072200	0.702700	0.254200
H831	H83	0.059600	0.791200	0.269500
H841	H84	0.073600	0.644200	0.311100
C1121	C112	0.043000	0.637400	0.172300
C1131	C113	0.562400	0.774000	0.066600
C1141	C114	0.596500	0.667800	0.094400
H851	H85	0.599400	0.656200	0.164200
H861	H86	0.585700	0.580900	0.065300
C1151	C115	0.642200	0.696300	0.066100
C1161	C116	0.675400	0.749100	0.128200
H871	H87	0.669800	0.772600	0.190600
C1171	C117	0.716600	0.768700	0.102300
H881	H88	0.739300	0.804500	0.148000
C1181	C118	0.727300	0.739100	0.012800
C1191	C119	0.692700	0.688500	0.949000
H891	H89	0.698100	0.666900	0.886100
C1201	C120	0.651000	0.669300	0.975000
H901	H90	0.627800	0.636700	0.929400
O311	O31	0.918300	0.276400	0.192900
O321	O32	0.950370	0.407000	0.105300
O331	O33	0.534000	0.016300	0.177500
O341	O34	0.531000	0.198300	0.098200
O351	O35	0.025800	0.267200	0.098800
O361	O36	0.067300	0.361300	0.007700
C1211	C121	0.917400	0.334800	0.119300
C1221	C122	0.877700	0.336900	0.042900
H911	H91	0.877200	0.424600	0.009000
H921	H92	0.881400	0.264500	0.996300
C1231	C123	0.833000	0.317500	0.080200
C1241	C124	0.818700	0.194700	0.098900
H931	H93	0.837400	0.118900	0.092100
C1251	C125	0.776900	0.174200	0.128300
H941	H94	0.767800	0.084700	0.141300
C1261	C126	0.748900	0.278900	0.138900
C1271	C127	0.763300	0.399700	0.116800
H951	H95	0.744600	0.476000	0.121700
C1281	C128	0.804500	0.419400	0.086800
H961	H96	0.812900	0.508300	0.070400
C1291	C129	0.703900	0.259300	0.168900
C1301	C130	0.688000	0.133700	0.190100
H971	H97	0.706300	0.056400	0.185400
C1311	C131	0.646200	0.116600	0.217800
H981	H98	0.636500	0.028000	0.231100
C1321	C132	0.619000	0.222600	0.226500
C1331	C133	0.633400	0.348900	0.208200
H991	H99	0.614900	0.425000	0.215100
C1341	C134	0.675400	0.366900	0.179300
H1001	H100	0.684800	0.456000	0.166200
C1351	C135	0.572200	0.202700	0.254200
H1011	H101	0.559600	0.291200	0.269500
H1021	H102	0.573600	0.144200	0.311100
C1361	C136	0.543000	0.137400	0.172300
C1371	C137	0.062400	0.274000	0.066600
C1381	C138	0.096500	0.167800	0.094400
H1031	H103	0.099400	0.156200	0.164200
H1041	H104	0.085700	0.080900	0.065300
C1391	C139	0.142200	0.196300	0.066100
C1401	C140	0.175400	0.249100	0.128200
H1051	H105	0.169800	0.272600	0.190600
C1411	C141	0.216600	0.268700	0.102300
H1061	H106	0.239300	0.304500	0.148000
C1421	C142	0.227300	0.239100	0.012800
C1431	C143	0.192700	0.188500	0.949000
H1071	H107	0.198100	0.166900	0.886100
C1441	C144	0.151000	0.169300	0.975000
H1081	H108	0.127800	0.136700	0.929400
O371	O37	0.581700	0.776400	0.307100
O381	O38	0.549630	0.907000	0.394700
O391	O39	0.966000	0.516300	0.322500
O401	O40	0.969000	0.698300	0.401800
O411	O41	0.474200	0.767200	0.401200
O421	O42	0.432700	0.861300	0.492300
C1451	C145	0.582600	0.834800	0.380700
C1461	C146	0.622300	0.836900	0.457100
H1091	H109	0.622800	0.924600	0.491000
H1101	H110	0.618600	0.764500	0.503700
C1471	C147	0.667000	0.817500	0.419800
C1481	C148	0.681300	0.694700	0.401100
H1111	H111	0.662600	0.618900	0.407900
C1491	C149	0.723100	0.674200	0.371700
H1121	H112	0.732200	0.584700	0.358700
C1501	C150	0.751100	0.778900	0.361100
C1511	C151	0.736700	0.899700	0.383200
H1131	H113	0.755400	0.976000	0.378300
C1521	C152	0.695500	0.919400	0.413200
H1141	H114	0.687100	0.008300	0.429600
C1531	C153	0.796100	0.759300	0.331100
C1541	C154	0.812000	0.633700	0.309900
H1151	H115	0.793700	0.556400	0.314600
C1551	C155	0.853800	0.616600	0.282200
H1161	H116	0.863500	0.528000	0.268900
C1561	C156	0.881000	0.722600	0.273500
C1571	C157	0.866600	0.848900	0.291800
H1171	H117	0.885100	0.925000	0.284900
C1581	C158	0.824600	0.866900	0.320700
H1181	H118	0.815200	0.956000	0.333800
C1591	C159	0.927800	0.702700	0.245800
H1191	H119	0.940400	0.791200	0.230500
H1201	H120	0.926400	0.644200	0.188900
C1601	C160	0.957000	0.637400	0.327700
C1611	C161	0.437600	0.774000	0.433400
C1621	C162	0.403500	0.667800	0.405600
H1211	H121	0.400600	0.656200	0.335800
H1221	H122	0.414300	0.580900	0.434700
C1631	C163	0.357800	0.696300	0.433900
C1641	C164	0.324600	0.749100	0.371800
H1231	H123	0.330200	0.772600	0.309400
C1651	C165	0.283400	0.768700	0.397700
H1241	H124	0.260700	0.804500	0.352000
C1661	C166	0.272700	0.739100	0.487200
C1671	C167	0.307300	0.688500	0.551000
H1251	H125	0.301900	0.666900	0.613900
C1681	C168	0.349000	0.669300	0.525000
H1261	H126	0.372200	0.636700	0.570600
O431	O43	0.081700	0.276400	0.307100
O441	O44	0.049630	0.407000	0.394700
O451	O45	0.466000	0.016300	0.322500
O461	O46	0.469000	0.198300	0.401800
O471	O47	0.974200	0.267200	0.401200
O481	O48	0.932700	0.361300	0.492300
C1691	C169	0.082600	0.334800	0.380700
C1701	C170	0.122300	0.336900	0.457100
H1271	H127	0.122800	0.424600	0.491000
H1281	H128	0.118600	0.264500	0.503700
C1711	C171	0.167000	0.317500	0.419800
C1721	C172	0.181300	0.194700	0.401100
H1291	H129	0.162600	0.118900	0.407900
C1731	C173	0.223100	0.174200	0.371700
H1301	H130	0.232200	0.084700	0.358700
C1741	C174	0.251100	0.278900	0.361100
C1751	C175	0.236700	0.399700	0.383200
H1311	H131	0.255400	0.476000	0.378300
C1761	C176	0.195500	0.419400	0.413200
H1321	H132	0.187100	0.508300	0.429600
C1771	C177	0.296100	0.259300	0.331100
C1781	C178	0.312000	0.133700	0.309900
H1331	H133	0.293700	0.056400	0.314600
C1791	C179	0.353800	0.116600	0.282200
H1341	H134	0.363500	0.028000	0.268900
C1801	C180	0.381000	0.222600	0.273500
C1811	C181	0.366600	0.348900	0.291800
H1351	H135	0.385100	0.425000	0.284900
C1821	C182	0.324600	0.366900	0.320700
H1361	H136	0.315200	0.456000	0.333800
C1831	C183	0.427800	0.202700	0.245800
H1371	H137	0.440400	0.291200	0.230500
H1381	H138	0.426400	0.144200	0.188900
C1841	C184	0.457000	0.137400	0.327700
C1851	C185	0.937600	0.274000	0.433400
C1861	C186	0.903500	0.167800	0.405600
H1391	H139	0.900600	0.156200	0.335800
H1401	H140	0.914300	0.080900	0.434700
C1871	C187	0.857800	0.196300	0.433900
C1881	C188	0.824600	0.249100	0.371800
H1411	H141	0.830200	0.272600	0.309400
C1891	C189	0.783400	0.268700	0.397700
H1421	H142	0.760700	0.304500	0.352000
C1901	C190	0.772700	0.239100	0.487200
C1911	C191	0.807300	0.188500	0.551000
H1431	H143	0.801900	0.166900	0.613900
C1921	C192	0.849000	0.169300	0.525000
H1441	H144	0.872200	0.136700	0.570600
Pr11	Pr1	0.500000	0.177360	0.750000
Pr21	Pr2	0.000000	0.677360	0.750000
Pr31	Pr3	0.500000	0.822640	0.250000
Pr41	Pr4	0.000000	0.322640	0.250000
Pr51	Pr5	0.500000	0.000000	0.000000
Pr61	Pr6	0.000000	0.500000	0.000000
Pr71	Pr7	0.500000	0.000000	0.500000
Pr81	Pr8	0.000000	0.500000	0.500000
