data_PAPKUP_clean_PM
_symmetry_space_group_name_H-M	'P1'
_cell_length_a	30.174000
_cell_length_b	9.983900
_cell_length_c	14.099000
_cell_angle_alpha	90.000000
_cell_angle_beta	97.353000
_cell_angle_gamma	90.000000
_symmetry_Int_Tables_number 1

loop_
_symmetry_equiv_pos_as_xyz
'x,y,z'

loop_
_atom_site_label
_atom_site_type_symbol
_atom_site_fract_x
_atom_site_fract_y
_atom_site_fract_z
O11	O1	0.950550	0.589300	0.105400
O21	O2	0.918900	0.718500	0.193900
O31	O3	0.530900	0.805600	0.095900
O41	O4	0.533000	0.981600	0.177400
O51	O5	0.067000	0.639600	0.007900
O61	O6	0.025400	0.730300	0.099100
C11	C1	0.917100	0.659000	0.119400
C21	C2	0.878000	0.657300	0.042900
H11	H1	0.877300	0.569700	0.009800
H21	H2	0.882400	0.727300	0.995400
C31	C3	0.833100	0.679900	0.077400
C41	C4	0.818400	0.802900	0.097800
H31	H3	0.837200	0.878100	0.092100
C51	C5	0.777000	0.822300	0.126700
H41	H4	0.767900	0.910700	0.139800
C61	C6	0.748600	0.717900	0.137200
C71	C7	0.763600	0.595300	0.116400
H51	H5	0.744900	0.519800	0.121200
C81	C8	0.805200	0.576200	0.088400
H61	H6	0.814700	0.487800	0.076500
C91	C9	0.704000	0.737200	0.169500
C101	C10	0.688400	0.862200	0.189900
H71	H7	0.706800	0.938200	0.184500
C111	C11	0.646400	0.879900	0.217800
H81	H8	0.637000	0.967800	0.231600
C121	C12	0.618300	0.775400	0.226300
C131	C13	0.633600	0.653500	0.206300
H91	H9	0.615100	0.577900	0.212000
C141	C14	0.675400	0.633500	0.177700
H101	H10	0.684300	0.545200	0.163400
C151	C15	0.571900	0.795900	0.254600
H111	H11	0.558800	0.708600	0.269400
H121	H12	0.573500	0.853400	0.312100
C161	C16	0.543400	0.861600	0.172000
C171	C17	0.062400	0.724000	0.066300
C181	C18	0.095800	0.828000	0.092800
H131	H13	0.098800	0.840300	0.163000
H141	H14	0.084600	0.913300	0.063000
C191	C19	0.141300	0.801700	0.064900
C201	C20	0.174800	0.749900	0.128000
H151	H15	0.169000	0.727700	0.190700
C211	C21	0.217000	0.728700	0.103600
H161	H16	0.239400	0.691500	0.149400
C221	C22	0.227100	0.760700	0.013300
C231	C23	0.193200	0.812800	0.949800
H171	H17	0.198900	0.835700	0.887000
C241	C24	0.150800	0.832400	0.975700
H181	H18	0.127900	0.868100	0.930100
O71	O7	0.450550	0.089300	0.105400
O81	O8	0.418900	0.218500	0.193900
O91	O9	0.030900	0.305600	0.095900
O101	O10	0.033000	0.481600	0.177400
O111	O11	0.567000	0.139600	0.007900
O121	O12	0.525400	0.230300	0.099100
C251	C25	0.417100	0.159000	0.119400
C261	C26	0.378000	0.157300	0.042900
H191	H19	0.377300	0.069700	0.009800
H201	H20	0.382400	0.227300	0.995400
C271	C27	0.333100	0.179900	0.077400
C281	C28	0.318400	0.302900	0.097800
H211	H21	0.337200	0.378100	0.092100
C291	C29	0.277000	0.322300	0.126700
H221	H22	0.267900	0.410700	0.139800
C301	C30	0.248600	0.217900	0.137200
C311	C31	0.263600	0.095300	0.116400
H231	H23	0.244900	0.019800	0.121200
C321	C32	0.305200	0.076200	0.088400
H241	H24	0.314700	0.987800	0.076500
C331	C33	0.204000	0.237200	0.169500
C341	C34	0.188400	0.362200	0.189900
H251	H25	0.206800	0.438200	0.184500
C351	C35	0.146400	0.379900	0.217800
H261	H26	0.137000	0.467800	0.231600
C361	C36	0.118300	0.275400	0.226300
C371	C37	0.133600	0.153500	0.206300
H271	H27	0.115100	0.077900	0.212000
C381	C38	0.175400	0.133500	0.177700
H281	H28	0.184300	0.045200	0.163400
C391	C39	0.071900	0.295900	0.254600
H291	H29	0.058800	0.208600	0.269400
H301	H30	0.073500	0.353400	0.312100
C401	C40	0.043400	0.361600	0.172000
C411	C41	0.562400	0.224000	0.066300
C421	C42	0.595800	0.328000	0.092800
H311	H31	0.598800	0.340300	0.163000
H321	H32	0.584600	0.413300	0.063000
C431	C43	0.641300	0.301700	0.064900
C441	C44	0.674800	0.249900	0.128000
H331	H33	0.669000	0.227700	0.190700
C451	C45	0.717000	0.228700	0.103600
H341	H34	0.739400	0.191500	0.149400
C461	C46	0.727100	0.260700	0.013300
C471	C47	0.693200	0.312800	0.949800
H351	H35	0.698900	0.335700	0.887000
C481	C48	0.650800	0.332400	0.975700
H361	H36	0.627900	0.368100	0.930100
O131	O13	0.049450	0.589300	0.394600
O141	O14	0.081100	0.718500	0.306100
O151	O15	0.469100	0.805600	0.404100
O161	O16	0.467000	0.981600	0.322600
O171	O17	0.933000	0.639600	0.492100
O181	O18	0.974600	0.730300	0.400900
C491	C49	0.082900	0.659000	0.380600
C501	C50	0.122000	0.657300	0.457100
H371	H37	0.122700	0.569700	0.490200
H381	H38	0.117600	0.727300	0.504600
C511	C51	0.166900	0.679900	0.422600
C521	C52	0.181600	0.802900	0.402200
H391	H39	0.162800	0.878100	0.407900
C531	C53	0.223000	0.822300	0.373300
H401	H40	0.232100	0.910700	0.360200
C541	C54	0.251400	0.717900	0.362800
C551	C55	0.236400	0.595300	0.383600
H411	H41	0.255100	0.519800	0.378800
C561	C56	0.194800	0.576200	0.411600
H421	H42	0.185300	0.487800	0.423500
C571	C57	0.296000	0.737200	0.330500
C581	C58	0.311600	0.862200	0.310100
H431	H43	0.293200	0.938200	0.315500
C591	C59	0.353600	0.879900	0.282200
H441	H44	0.363000	0.967800	0.268400
C601	C60	0.381700	0.775400	0.273700
C611	C61	0.366400	0.653500	0.293700
H451	H45	0.384900	0.577900	0.288000
C621	C62	0.324600	0.633500	0.322300
H461	H46	0.315700	0.545200	0.336600
C631	C63	0.428100	0.795900	0.245400
H471	H47	0.441200	0.708600	0.230600
H481	H48	0.426500	0.853400	0.187900
C641	C64	0.456600	0.861600	0.328000
C651	C65	0.937600	0.724000	0.433700
C661	C66	0.904200	0.828000	0.407200
H491	H49	0.901200	0.840300	0.337000
H501	H50	0.915400	0.913300	0.437000
C671	C67	0.858700	0.801700	0.435100
C681	C68	0.825200	0.749900	0.372000
H511	H51	0.831000	0.727700	0.309300
C691	C69	0.783000	0.728700	0.396400
H521	H52	0.760600	0.691500	0.350600
C701	C70	0.772900	0.760700	0.486700
C711	C71	0.806800	0.812800	0.550200
H531	H53	0.801100	0.835700	0.613000
C721	C72	0.849200	0.832400	0.524300
H541	H54	0.872100	0.868100	0.569900
O191	O19	0.549450	0.089300	0.394600
O201	O20	0.581100	0.218500	0.306100
O211	O21	0.969100	0.305600	0.404100
O221	O22	0.967000	0.481600	0.322600
O231	O23	0.433000	0.139600	0.492100
O241	O24	0.474600	0.230300	0.400900
C731	C73	0.582900	0.159000	0.380600
C741	C74	0.622000	0.157300	0.457100
H551	H55	0.622700	0.069700	0.490200
H561	H56	0.617600	0.227300	0.504600
C751	C75	0.666900	0.179900	0.422600
C761	C76	0.681600	0.302900	0.402200
H571	H57	0.662800	0.378100	0.407900
C771	C77	0.723000	0.322300	0.373300
H581	H58	0.732100	0.410700	0.360200
C781	C78	0.751400	0.217900	0.362800
C791	C79	0.736400	0.095300	0.383600
H591	H59	0.755100	0.019800	0.378800
C801	C80	0.694800	0.076200	0.411600
H601	H60	0.685300	0.987800	0.423500
C811	C81	0.796000	0.237200	0.330500
C821	C82	0.811600	0.362200	0.310100
H611	H61	0.793200	0.438200	0.315500
C831	C83	0.853600	0.379900	0.282200
H621	H62	0.863000	0.467800	0.268400
C841	C84	0.881700	0.275400	0.273700
C851	C85	0.866400	0.153500	0.293700
H631	H63	0.884900	0.077900	0.288000
C861	C86	0.824600	0.133500	0.322300
H641	H64	0.815700	0.045200	0.336600
C871	C87	0.928100	0.295900	0.245400
H651	H65	0.941200	0.208600	0.230600
H661	H66	0.926500	0.353400	0.187900
C881	C88	0.956600	0.361600	0.328000
C891	C89	0.437600	0.224000	0.433700
C901	C90	0.404200	0.328000	0.407200
H671	H67	0.401200	0.340300	0.337000
H681	H68	0.415400	0.413300	0.437000
C911	C91	0.358700	0.301700	0.435100
C921	C92	0.325200	0.249900	0.372000
H691	H69	0.331000	0.227700	0.309300
C931	C93	0.283000	0.228700	0.396400
H701	H70	0.260600	0.191500	0.350600
C941	C94	0.272900	0.260700	0.486700
C951	C95	0.306800	0.312800	0.550200
H711	H71	0.301100	0.335700	0.613000
C961	C96	0.349200	0.332400	0.524300
H721	H72	0.372100	0.368100	0.569900
O251	O25	0.049450	0.410700	0.894600
O261	O26	0.081100	0.281500	0.806100
O271	O27	0.469100	0.194400	0.904100
O281	O28	0.467000	0.018400	0.822600
O291	O29	0.933000	0.360400	0.992100
O301	O30	0.974600	0.269700	0.900900
C971	C97	0.082900	0.341000	0.880600
C981	C98	0.122000	0.342700	0.957100
H731	H73	0.122700	0.430300	0.990200
H741	H74	0.117600	0.272700	0.004600
C991	C99	0.166900	0.320100	0.922600
C1001	C100	0.181600	0.197100	0.902200
H751	H75	0.162800	0.121900	0.907900
C1011	C101	0.223000	0.177700	0.873300
H761	H76	0.232100	0.089300	0.860200
C1021	C102	0.251400	0.282100	0.862800
C1031	C103	0.236400	0.404700	0.883600
H771	H77	0.255100	0.480200	0.878800
C1041	C104	0.194800	0.423800	0.911600
H781	H78	0.185300	0.512200	0.923500
C1051	C105	0.296000	0.262800	0.830500
C1061	C106	0.311600	0.137800	0.810100
H791	H79	0.293200	0.061800	0.815500
C1071	C107	0.353600	0.120100	0.782200
H801	H80	0.363000	0.032200	0.768400
C1081	C108	0.381700	0.224600	0.773700
C1091	C109	0.366400	0.346500	0.793700
H811	H81	0.384900	0.422100	0.788000
C1101	C110	0.324600	0.366500	0.822300
H821	H82	0.315700	0.454800	0.836600
C1111	C111	0.428100	0.204100	0.745400
H831	H83	0.441200	0.291400	0.730600
H841	H84	0.426500	0.146600	0.687900
C1121	C112	0.456600	0.138400	0.828000
C1131	C113	0.937600	0.276000	0.933700
C1141	C114	0.904200	0.172000	0.907200
H851	H85	0.901200	0.159700	0.837000
H861	H86	0.915400	0.086700	0.937000
C1151	C115	0.858700	0.198300	0.935100
C1161	C116	0.825200	0.250100	0.872000
H871	H87	0.831000	0.272300	0.809300
C1171	C117	0.783000	0.271300	0.896400
H881	H88	0.760600	0.308500	0.850600
C1181	C118	0.772900	0.239300	0.986700
C1191	C119	0.806800	0.187200	0.050200
H891	H89	0.801100	0.164300	0.113000
C1201	C120	0.849200	0.167600	0.024300
H901	H90	0.872100	0.131900	0.069900
O311	O31	0.549450	0.910700	0.894600
O321	O32	0.581100	0.781500	0.806100
O331	O33	0.969100	0.694400	0.904100
O341	O34	0.967000	0.518400	0.822600
O351	O35	0.433000	0.860400	0.992100
O361	O36	0.474600	0.769700	0.900900
C1211	C121	0.582900	0.841000	0.880600
C1221	C122	0.622000	0.842700	0.957100
H911	H91	0.622700	0.930300	0.990200
H921	H92	0.617600	0.772700	0.004600
C1231	C123	0.666900	0.820100	0.922600
C1241	C124	0.681600	0.697100	0.902200
H931	H93	0.662800	0.621900	0.907900
C1251	C125	0.723000	0.677700	0.873300
H941	H94	0.732100	0.589300	0.860200
C1261	C126	0.751400	0.782100	0.862800
C1271	C127	0.736400	0.904700	0.883600
H951	H95	0.755100	0.980200	0.878800
C1281	C128	0.694800	0.923800	0.911600
H961	H96	0.685300	0.012200	0.923500
C1291	C129	0.796000	0.762800	0.830500
C1301	C130	0.811600	0.637800	0.810100
H971	H97	0.793200	0.561800	0.815500
C1311	C131	0.853600	0.620100	0.782200
H981	H98	0.863000	0.532200	0.768400
C1321	C132	0.881700	0.724600	0.773700
C1331	C133	0.866400	0.846500	0.793700
H991	H99	0.884900	0.922100	0.788000
C1341	C134	0.824600	0.866500	0.822300
H1001	H100	0.815700	0.954800	0.836600
C1351	C135	0.928100	0.704100	0.745400
H1011	H101	0.941200	0.791400	0.730600
H1021	H102	0.926500	0.646600	0.687900
C1361	C136	0.956600	0.638400	0.828000
C1371	C137	0.437600	0.776000	0.933700
C1381	C138	0.404200	0.672000	0.907200
H1031	H103	0.401200	0.659700	0.837000
H1041	H104	0.415400	0.586700	0.937000
C1391	C139	0.358700	0.698300	0.935100
C1401	C140	0.325200	0.750100	0.872000
H1051	H105	0.331000	0.772300	0.809300
C1411	C141	0.283000	0.771300	0.896400
H1061	H106	0.260600	0.808500	0.850600
C1421	C142	0.272900	0.739300	0.986700
C1431	C143	0.306800	0.687200	0.050200
H1071	H107	0.301100	0.664300	0.113000
C1441	C144	0.349200	0.667600	0.024300
H1081	H108	0.372100	0.631900	0.069900
O371	O37	0.950550	0.410700	0.605400
O381	O38	0.918900	0.281500	0.693900
O391	O39	0.530900	0.194400	0.595900
O401	O40	0.533000	0.018400	0.677400
O411	O41	0.067000	0.360400	0.507900
O421	O42	0.025400	0.269700	0.599100
C1451	C145	0.917100	0.341000	0.619400
C1461	C146	0.878000	0.342700	0.542900
H1091	H109	0.877300	0.430300	0.509800
H1101	H110	0.882400	0.272700	0.495400
C1471	C147	0.833100	0.320100	0.577400
C1481	C148	0.818400	0.197100	0.597800
H1111	H111	0.837200	0.121900	0.592100
C1491	C149	0.777000	0.177700	0.626700
H1121	H112	0.767900	0.089300	0.639800
C1501	C150	0.748600	0.282100	0.637200
C1511	C151	0.763600	0.404700	0.616400
H1131	H113	0.744900	0.480200	0.621200
C1521	C152	0.805200	0.423800	0.588400
H1141	H114	0.814700	0.512200	0.576500
C1531	C153	0.704000	0.262800	0.669500
C1541	C154	0.688400	0.137800	0.689900
H1151	H115	0.706800	0.061800	0.684500
C1551	C155	0.646400	0.120100	0.717800
H1161	H116	0.637000	0.032200	0.731600
C1561	C156	0.618300	0.224600	0.726300
C1571	C157	0.633600	0.346500	0.706300
H1171	H117	0.615100	0.422100	0.712000
C1581	C158	0.675400	0.366500	0.677700
H1181	H118	0.684300	0.454800	0.663400
C1591	C159	0.571900	0.204100	0.754600
H1191	H119	0.558800	0.291400	0.769400
H1201	H120	0.573500	0.146600	0.812100
C1601	C160	0.543400	0.138400	0.672000
C1611	C161	0.062400	0.276000	0.566300
C1621	C162	0.095800	0.172000	0.592800
H1211	H121	0.098800	0.159700	0.663000
H1221	H122	0.084600	0.086700	0.563000
C1631	C163	0.141300	0.198300	0.564900
C1641	C164	0.174800	0.250100	0.628000
H1231	H123	0.169000	0.272300	0.690700
C1651	C165	0.217000	0.271300	0.603600
H1241	H124	0.239400	0.308500	0.649400
C1661	C166	0.227100	0.239300	0.513300
C1671	C167	0.193200	0.187200	0.449800
H1251	H125	0.198900	0.164300	0.387000
C1681	C168	0.150800	0.167600	0.475700
H1261	H126	0.127900	0.131900	0.430100
O431	O43	0.450550	0.910700	0.605400
O441	O44	0.418900	0.781500	0.693900
O451	O45	0.030900	0.694400	0.595900
O461	O46	0.033000	0.518400	0.677400
O471	O47	0.567000	0.860400	0.507900
O481	O48	0.525400	0.769700	0.599100
C1691	C169	0.417100	0.841000	0.619400
C1701	C170	0.378000	0.842700	0.542900
H1271	H127	0.377300	0.930300	0.509800
H1281	H128	0.382400	0.772700	0.495400
C1711	C171	0.333100	0.820100	0.577400
C1721	C172	0.318400	0.697100	0.597800
H1291	H129	0.337200	0.621900	0.592100
C1731	C173	0.277000	0.677700	0.626700
H1301	H130	0.267900	0.589300	0.639800
C1741	C174	0.248600	0.782100	0.637200
C1751	C175	0.263600	0.904700	0.616400
H1311	H131	0.244900	0.980200	0.621200
C1761	C176	0.305200	0.923800	0.588400
H1321	H132	0.314700	0.012200	0.576500
C1771	C177	0.204000	0.762800	0.669500
C1781	C178	0.188400	0.637800	0.689900
H1331	H133	0.206800	0.561800	0.684500
C1791	C179	0.146400	0.620100	0.717800
H1341	H134	0.137000	0.532200	0.731600
C1801	C180	0.118300	0.724600	0.726300
C1811	C181	0.133600	0.846500	0.706300
H1351	H135	0.115100	0.922100	0.712000
C1821	C182	0.175400	0.866500	0.677700
H1361	H136	0.184300	0.954800	0.663400
C1831	C183	0.071900	0.704100	0.754600
H1371	H137	0.058800	0.791400	0.769400
H1381	H138	0.073500	0.646600	0.812100
C1841	C184	0.043400	0.638400	0.672000
C1851	C185	0.562400	0.776000	0.566300
C1861	C186	0.595800	0.672000	0.592800
H1391	H139	0.598800	0.659700	0.663000
H1401	H140	0.584600	0.586700	0.563000
C1871	C187	0.641300	0.698300	0.564900
C1881	C188	0.674800	0.750100	0.628000
H1411	H141	0.669000	0.772300	0.690700
C1891	C189	0.717000	0.771300	0.603600
H1421	H142	0.739400	0.808500	0.649400
C1901	C190	0.727100	0.739300	0.513300
C1911	C191	0.693200	0.687200	0.449800
H1431	H143	0.698900	0.664300	0.387000
C1921	C192	0.650800	0.667600	0.475700
H1441	H144	0.627900	0.631900	0.430100
Nd11	Nd1	0.000000	0.673980	0.250000
Nd21	Nd2	0.500000	0.173980	0.250000
Nd31	Nd3	0.000000	0.326020	0.750000
Nd41	Nd4	0.500000	0.826020	0.750000
Nd51	Nd5	0.000000	0.500000	0.000000
Nd61	Nd6	0.500000	0.000000	0.000000
Nd71	Nd7	0.000000	0.500000	0.500000
Nd81	Nd8	0.500000	0.000000	0.500000
