data_PAPPED_clean_PM
_symmetry_space_group_name_H-M	'P1'
_cell_length_a	12.929200
_cell_length_b	12.929200
_cell_length_c	20.103900
_cell_angle_alpha	90.000000
_cell_angle_beta	90.000000
_cell_angle_gamma	120.000000
_symmetry_Int_Tables_number 1

loop_
_symmetry_equiv_pos_as_xyz
'x,y,z'

loop_
_atom_site_label
_atom_site_type_symbol
_atom_site_fract_x
_atom_site_fract_y
_atom_site_fract_z
Cu11	Cu1	0.620470	0.000000	0.000000
Cu21	Cu2	0.379530	0.379530	0.333330
Cu31	Cu3	0.000000	0.620470	0.666670
H11	H1	0.871400	0.100100	0.946500
H21	H2	0.959100	0.088000	0.849300
H31	H3	0.846600	0.945100	0.770200
H41	H4	0.568700	0.821700	0.894400
H51	H5	0.542300	0.737500	0.792700
H61	H6	0.472500	0.640500	0.691600
H71	H7	0.478500	0.526100	0.780500
H81	H8	0.565500	0.498100	0.740500
H91	H9	0.406300	0.394400	0.660500
H101	H10	0.213000	0.330600	0.698200
H111	H11	0.285500	0.469500	0.688700
H121	H12	0.265900	0.414400	0.760200
H131	H13	0.375900	0.296600	0.788900
H141	H14	0.447000	0.280300	0.730600
H151	H15	0.307600	0.219700	0.726600
H161	H16	0.638400	0.607500	0.623400
H171	H17	0.728900	0.649700	0.532500
H181	H18	0.785500	0.605700	0.431600
H191	H19	0.642200	0.495900	0.354200
H201	H20	0.393600	0.489200	0.466900
H211	H21	0.228700	0.128600	0.279830
H221	H22	0.128900	0.040900	0.182630
H231	H23	0.098500	0.153400	0.103530
H241	H24	0.253000	0.431300	0.227730
H251	H25	0.195200	0.457700	0.126030
H261	H26	0.168000	0.527500	0.024930
H271	H27	0.047600	0.521500	0.113830
H281	H28	0.932600	0.434500	0.073830
H291	H29	0.988100	0.593700	0.993830
H301	H30	0.117600	0.787000	0.031530
H311	H31	0.184000	0.714500	0.022030
H321	H32	0.148500	0.734100	0.093530
H331	H33	0.920700	0.624100	0.122230
H341	H34	0.833300	0.553000	0.063930
H351	H35	0.912100	0.692400	0.059930
H361	H36	0.969100	0.361600	0.956730
H371	H37	0.920800	0.271100	0.865830
H381	H38	0.820200	0.214500	0.764930
H391	H39	0.853700	0.357800	0.687530
H401	H40	0.095600	0.606400	0.800230
H411	H41	0.899900	0.771300	0.613170
H421	H42	0.912000	0.871100	0.515970
H431	H43	0.054900	0.901500	0.436870
H441	H44	0.178300	0.747000	0.561070
H451	H45	0.262500	0.804800	0.459370
H461	H46	0.359500	0.832000	0.358270
H471	H47	0.473900	0.952400	0.447170
H481	H48	0.501900	0.067400	0.407170
H491	H49	0.605600	0.011900	0.327170
H501	H50	0.669400	0.882400	0.364870
H511	H51	0.530500	0.816000	0.355370
H521	H52	0.585600	0.851500	0.426870
H531	H53	0.703400	0.079300	0.455570
H541	H54	0.719700	0.166700	0.397270
H551	H55	0.780300	0.087900	0.393270
H561	H56	0.392500	0.030900	0.290070
H571	H57	0.350300	0.079200	0.199170
H581	H58	0.394300	0.179800	0.098270
H591	H59	0.504100	0.146300	0.020870
H601	H60	0.510800	0.904400	0.133570
H611	H61	0.771300	0.899900	0.053500
H621	H62	0.871100	0.912000	0.150700
H631	H63	0.901500	0.054900	0.229800
H641	H64	0.747000	0.178300	0.105600
H651	H65	0.804800	0.262500	0.207300
H661	H66	0.832000	0.359500	0.308400
H671	H67	0.952400	0.473900	0.219500
H681	H68	0.067400	0.501900	0.259500
H691	H69	0.011900	0.605600	0.339500
H701	H70	0.882400	0.669400	0.301800
H711	H71	0.816000	0.530500	0.311300
H721	H72	0.851500	0.585600	0.239800
H731	H73	0.079300	0.703400	0.211100
H741	H74	0.166700	0.719700	0.269400
H751	H75	0.087900	0.780300	0.273400
H761	H76	0.030900	0.392500	0.376600
H771	H77	0.079200	0.350300	0.467500
H781	H78	0.179800	0.394300	0.568400
H791	H79	0.146300	0.504100	0.645800
H801	H80	0.904400	0.510800	0.533100
H811	H81	0.100100	0.871400	0.720170
H821	H82	0.088000	0.959100	0.817370
H831	H83	0.945100	0.846600	0.896470
H841	H84	0.821700	0.568700	0.772270
H851	H85	0.737500	0.542300	0.873970
H861	H86	0.640500	0.472500	0.975070
H871	H87	0.526100	0.478500	0.886170
H881	H88	0.498100	0.565500	0.926170
H891	H89	0.394400	0.406300	0.006170
H901	H90	0.330600	0.213000	0.968470
H911	H91	0.469500	0.285500	0.977970
H921	H92	0.414400	0.265900	0.906470
H931	H93	0.296600	0.375900	0.877770
H941	H94	0.280300	0.447000	0.936070
H951	H95	0.219700	0.307600	0.940070
H961	H96	0.607500	0.638400	0.043270
H971	H97	0.649700	0.728900	0.134170
H981	H98	0.605700	0.785500	0.235070
H991	H99	0.495900	0.642200	0.312470
H1001	H100	0.489200	0.393600	0.199770
H1011	H101	0.128600	0.228700	0.386830
H1021	H102	0.040900	0.128900	0.484030
H1031	H103	0.153400	0.098500	0.563130
H1041	H104	0.431300	0.253000	0.438930
H1051	H105	0.457700	0.195200	0.540630
H1061	H106	0.527500	0.168000	0.641730
H1071	H107	0.521500	0.047600	0.552830
H1081	H108	0.434500	0.932600	0.592830
H1091	H109	0.593700	0.988100	0.672830
H1101	H110	0.787000	0.117600	0.635130
H1111	H111	0.714500	0.184000	0.644630
H1121	H112	0.734100	0.148500	0.573130
H1131	H113	0.624100	0.920700	0.544430
H1141	H114	0.553000	0.833300	0.602730
H1151	H115	0.692400	0.912100	0.606730
H1161	H116	0.361600	0.969100	0.709930
H1171	H117	0.271100	0.920800	0.800830
H1181	H118	0.214500	0.820200	0.901730
H1191	H119	0.357800	0.853700	0.979130
H1201	H120	0.606400	0.095600	0.866430
C11	C1	0.825800	0.041600	0.915440
C21	C2	0.878700	0.034500	0.857040
C31	C3	0.812400	0.948200	0.810290
C41	C4	0.694900	0.866700	0.824120
C51	C5	0.647400	0.877800	0.884140
C61	C6	0.646000	0.732400	0.727030
C71	C7	0.538800	0.624400	0.695010
C81	C8	0.498800	0.512200	0.736250
C91	C9	0.391600	0.399100	0.707880
C101	C10	0.278900	0.403800	0.714300
C111	C11	0.379400	0.288800	0.741600
C121	C12	0.507000	0.595400	0.574250
C131	C13	0.553700	0.572700	0.510810
C141	C14	0.672100	0.607900	0.499830
C151	C15	0.705700	0.580700	0.440130
C161	C16	0.619700	0.516400	0.393750
C171	C17	0.473200	0.511200	0.460510
C181	C18	0.215800	0.174200	0.248770
C191	C19	0.155800	0.121300	0.190370
C201	C20	0.135800	0.187600	0.143620
C211	C21	0.171800	0.305100	0.157450
C221	C22	0.230400	0.352600	0.217470
C231	C23	0.086400	0.354000	0.060360
C241	C24	0.085600	0.461200	0.028340
C251	C25	0.013400	0.501200	0.069580
C261	C26	0.007500	0.608400	0.041210
C271	C27	0.124900	0.721100	0.047630
C281	C28	0.909400	0.620600	0.074930
C291	C29	0.088400	0.493000	0.907580
C301	C30	0.019000	0.446300	0.844140
C311	C31	0.935800	0.327900	0.833160
C321	C32	0.875000	0.294300	0.773460
C331	C33	0.896700	0.380300	0.727080
C341	C34	0.038000	0.526800	0.793840
C351	C35	0.958400	0.784200	0.582110
C361	C36	0.965500	0.844200	0.523710
C371	C37	0.051800	0.864200	0.476960
C381	C38	0.133300	0.828200	0.490790
C391	C39	0.122200	0.769600	0.550810
C401	C40	0.267600	0.913600	0.393700
C411	C41	0.375600	0.914400	0.361680
C421	C42	0.487800	0.986600	0.402920
C431	C43	0.600900	0.992500	0.374550
C441	C44	0.596200	0.875100	0.380970
C451	C45	0.711200	0.090600	0.408270
C461	C46	0.404600	0.911600	0.240920
C471	C47	0.427300	0.981000	0.177480
C481	C48	0.392100	0.064200	0.166500
C491	C49	0.419300	0.125000	0.106800
C501	C50	0.483600	0.103300	0.060420
C511	C51	0.488800	0.962000	0.127180
C521	C52	0.784200	0.958400	0.084560
C531	C53	0.844200	0.965500	0.142960
C541	C54	0.864200	0.051800	0.189710
C551	C55	0.828200	0.133300	0.175880
C561	C56	0.769600	0.122200	0.115860
C571	C57	0.913600	0.267600	0.272970
C581	C58	0.914400	0.375600	0.304990
C591	C59	0.986600	0.487800	0.263750
C601	C60	0.992500	0.600900	0.292120
C611	C61	0.875100	0.596200	0.285700
C621	C62	0.090600	0.711200	0.258400
C631	C63	0.911600	0.404600	0.425750
C641	C64	0.981000	0.427300	0.489190
C651	C65	0.064200	0.392100	0.500170
C661	C66	0.125000	0.419300	0.559870
C671	C67	0.103300	0.483600	0.606250
C681	C68	0.962000	0.488800	0.539490
C691	C69	0.041600	0.825800	0.751230
C701	C70	0.034500	0.878700	0.809630
C711	C71	0.948200	0.812400	0.856380
C721	C72	0.866700	0.694900	0.842550
C731	C73	0.877800	0.647400	0.782530
C741	C74	0.732400	0.646000	0.939640
C751	C75	0.624400	0.538800	0.971660
C761	C76	0.512200	0.498800	0.930420
C771	C77	0.399100	0.391600	0.958790
C781	C78	0.403800	0.278900	0.952370
C791	C79	0.288800	0.379400	0.925070
C801	C80	0.595400	0.507000	0.092420
C811	C81	0.572700	0.553700	0.155860
C821	C82	0.607900	0.672100	0.166840
C831	C83	0.580700	0.705700	0.226540
C841	C84	0.516400	0.619700	0.272920
C851	C85	0.511200	0.473200	0.206160
C861	C86	0.174200	0.215800	0.417890
C871	C87	0.121300	0.155800	0.476290
C881	C88	0.187600	0.135800	0.523040
C891	C89	0.305100	0.171800	0.509210
C901	C90	0.352600	0.230400	0.449190
C911	C91	0.354000	0.086400	0.606300
C921	C92	0.461200	0.085600	0.638320
C931	C93	0.501200	0.013400	0.597080
C941	C94	0.608400	0.007500	0.625450
C951	C95	0.721100	0.124900	0.619030
C961	C96	0.620600	0.909400	0.591730
C971	C97	0.493000	0.088400	0.759080
C981	C98	0.446300	0.019000	0.822520
C991	C99	0.327900	0.935800	0.833500
C1001	C100	0.294300	0.875000	0.893200
C1011	C101	0.380300	0.896700	0.939580
C1021	C102	0.526800	0.038000	0.872820
N11	N1	0.710400	0.966000	0.927990
N21	N2	0.616800	0.773100	0.782280
N31	N3	0.572800	0.608500	0.628240
N41	N4	0.504200	0.481800	0.403150
N51	N5	0.255600	0.289600	0.261320
N61	N6	0.156300	0.383200	0.115610
N71	N7	0.035700	0.427200	0.961570
N81	N8	0.977600	0.495800	0.736480
N91	N9	0.034000	0.744400	0.594660
N101	N10	0.226900	0.843700	0.448950
N111	N11	0.391500	0.964300	0.294910
N121	N12	0.518200	0.022400	0.069820
N131	N13	0.744400	0.034000	0.072010
N141	N14	0.843700	0.226900	0.217720
N151	N15	0.964300	0.391500	0.371760
N161	N16	0.022400	0.518200	0.596850
N171	N17	0.966000	0.710400	0.738680
N181	N18	0.773100	0.616800	0.884390
N191	N19	0.608500	0.572800	0.038430
N201	N20	0.481800	0.504200	0.263520
N211	N21	0.289600	0.255600	0.405340
N221	N22	0.383200	0.156300	0.551050
N231	N23	0.427200	0.035700	0.705090
N241	N24	0.495800	0.977600	0.930180
O11	O1	0.746200	0.774100	0.705780
O21	O2	0.414900	0.600300	0.575350
O31	O3	0.027900	0.253800	0.039110
O41	O4	0.185400	0.585100	0.908680
O51	O5	0.225900	0.972100	0.372450
O61	O6	0.399700	0.814600	0.242020
O71	O7	0.972100	0.225900	0.294220
O81	O8	0.814600	0.399700	0.424650
O91	O9	0.774100	0.746200	0.960890
O101	O10	0.600300	0.414900	0.091320
O111	O11	0.253800	0.027900	0.627550
O121	O12	0.585100	0.185400	0.757980
