data_PAPPIH_clean_PM
_symmetry_space_group_name_H-M	'P1'
_cell_length_a	13.078500
_cell_length_b	13.078500
_cell_length_c	20.083000
_cell_angle_alpha	90.000000
_cell_angle_beta	90.000000
_cell_angle_gamma	120.000000
_symmetry_Int_Tables_number 1

loop_
_symmetry_equiv_pos_as_xyz
'x,y,z'

loop_
_atom_site_label
_atom_site_type_symbol
_atom_site_fract_x
_atom_site_fract_y
_atom_site_fract_z
Cu11	Cu1	0.384630	0.000000	0.000000
Cu21	Cu2	0.615370	0.615370	0.333330
Cu31	Cu3	0.000000	0.384630	0.666670
H11	H1	0.434100	0.171900	0.893300
H21	H2	0.153400	0.056800	0.773500
H31	H3	0.044600	0.915900	0.853000
H41	H4	0.135000	0.899800	0.948000
H51	H5	0.456300	0.260000	0.794200
H61	H6	0.526300	0.353800	0.692100
H71	H7	0.433500	0.494500	0.741200
H81	H8	0.520700	0.468100	0.780900
H91	H9	0.588800	0.594800	0.660400
H101	H10	0.627800	0.700400	0.786900
H111	H11	0.544400	0.705000	0.732400
H121	H12	0.681200	0.770500	0.720600
H131	H13	0.780300	0.656800	0.693300
H141	H14	0.708200	0.518500	0.694200
H151	H15	0.735800	0.589200	0.761100
H161	H16	0.361000	0.383500	0.623600
H171	H17	0.604800	0.509500	0.468200
H181	H18	0.355800	0.496300	0.355000
H191	H19	0.214700	0.386700	0.433200
H201	H20	0.272400	0.342900	0.533400
H211	H21	0.737800	0.565900	0.226630
H221	H22	0.903400	0.846600	0.106830
H231	H23	0.871300	0.955400	0.186330
H241	H24	0.764800	0.865000	0.281330
H251	H25	0.803700	0.543700	0.127530
H261	H26	0.827500	0.473700	0.025430
H271	H27	0.061000	0.566500	0.074530
H281	H28	0.947400	0.479300	0.114230
H291	H29	0.006000	0.411200	0.993730
H301	H30	0.072600	0.372200	0.120230
H311	H31	0.160600	0.455600	0.065730
H321	H32	0.089300	0.318800	0.053930
H331	H33	0.876500	0.219700	0.026630
H341	H34	0.810300	0.291800	0.027530
H351	H35	0.853400	0.264200	0.094430
H361	H36	0.022500	0.639000	0.956930
H371	H37	0.904700	0.395200	0.801530
H381	H38	0.140500	0.644200	0.688330
H391	H39	0.172000	0.785300	0.766530
H401	H40	0.070500	0.727600	0.866730
H411	H41	0.828100	0.262200	0.559970
H421	H42	0.943200	0.096600	0.440170
H431	H43	0.084100	0.128700	0.519670
H441	H44	0.100200	0.235200	0.614670
H451	H45	0.740000	0.196300	0.460870
H461	H46	0.646200	0.172500	0.358770
H471	H47	0.505500	0.939000	0.407870
H481	H48	0.531900	0.052600	0.447570
H491	H49	0.405200	0.994000	0.327070
H501	H50	0.299600	0.927400	0.453570
H511	H51	0.295000	0.839400	0.399070
H521	H52	0.229500	0.910700	0.387270
H531	H53	0.343200	0.123500	0.359970
H541	H54	0.481500	0.189700	0.360870
H551	H55	0.410800	0.146600	0.427770
H561	H56	0.616500	0.977500	0.290270
H571	H57	0.490500	0.095300	0.134870
H581	H58	0.503700	0.859500	0.021670
H591	H59	0.613300	0.828000	0.099870
H601	H60	0.657100	0.929500	0.200070
H611	H61	0.262200	0.828100	0.106700
H621	H62	0.096600	0.943200	0.226500
H631	H63	0.128700	0.084100	0.147000
H641	H64	0.235200	0.100200	0.052000
H651	H65	0.196300	0.740000	0.205800
H661	H66	0.172500	0.646200	0.307900
H671	H67	0.939000	0.505500	0.258800
H681	H68	0.052600	0.531900	0.219100
H691	H69	0.994000	0.405200	0.339600
H701	H70	0.927400	0.299600	0.213100
H711	H71	0.839400	0.295000	0.267600
H721	H72	0.910700	0.229500	0.279400
H731	H73	0.123500	0.343200	0.306700
H741	H74	0.189700	0.481500	0.305800
H751	H75	0.146600	0.410800	0.238900
H761	H76	0.977500	0.616500	0.376400
H771	H77	0.095300	0.490500	0.531800
H781	H78	0.859500	0.503700	0.645000
H791	H79	0.828000	0.613300	0.566800
H801	H80	0.929500	0.657100	0.466600
H811	H81	0.171900	0.434100	0.773370
H821	H82	0.056800	0.153400	0.893170
H831	H83	0.915900	0.044600	0.813670
H841	H84	0.899800	0.135000	0.718670
H851	H85	0.260000	0.456300	0.872470
H861	H86	0.353800	0.526300	0.974570
H871	H87	0.494500	0.433500	0.925470
H881	H88	0.468100	0.520700	0.885770
H891	H89	0.594800	0.588800	0.006270
H901	H90	0.700400	0.627800	0.879770
H911	H91	0.705000	0.544400	0.934270
H921	H92	0.770500	0.681200	0.946070
H931	H93	0.656800	0.780300	0.973370
H941	H94	0.518500	0.708200	0.972470
H951	H95	0.589200	0.735800	0.905570
H961	H96	0.383500	0.361000	0.043070
H971	H97	0.509500	0.604800	0.198470
H981	H98	0.496300	0.355800	0.311670
H991	H99	0.386700	0.214700	0.233470
H1001	H100	0.342900	0.272400	0.133270
H1011	H101	0.565900	0.737800	0.440030
H1021	H102	0.846600	0.903400	0.559830
H1031	H103	0.955400	0.871300	0.480330
H1041	H104	0.865000	0.764800	0.385330
H1051	H105	0.543700	0.803700	0.539130
H1061	H106	0.473700	0.827500	0.641230
H1071	H107	0.566500	0.061000	0.592130
H1081	H108	0.479300	0.947400	0.552430
H1091	H109	0.411200	0.006000	0.672930
H1101	H110	0.372200	0.072600	0.546430
H1111	H111	0.455600	0.160600	0.600930
H1121	H112	0.318800	0.089300	0.612730
H1131	H113	0.219700	0.876500	0.640030
H1141	H114	0.291800	0.810300	0.639130
H1151	H115	0.264200	0.853400	0.572230
H1161	H116	0.639000	0.022500	0.709730
H1171	H117	0.395200	0.904700	0.865130
H1181	H118	0.644200	0.140500	0.978330
H1191	H119	0.785300	0.172000	0.900130
H1201	H120	0.727600	0.070500	0.799930
C11	C1	0.355400	0.118100	0.884030
C21	C2	0.306400	0.131600	0.824930
C31	C3	0.188800	0.052600	0.812760
C41	C4	0.124700	0.967300	0.859670
C51	C5	0.179200	0.958000	0.916820
C61	C6	0.354500	0.264500	0.727710
C71	C7	0.460900	0.370000	0.695190
C81	C8	0.499800	0.481300	0.736680
C91	C9	0.603800	0.592100	0.708050
C101	C10	0.615400	0.702100	0.739900
C111	C11	0.717400	0.588800	0.714800
C121	C12	0.493000	0.400300	0.574720
C131	C13	0.445600	0.422500	0.511270
C141	C14	0.525600	0.485500	0.461550
C151	C15	0.378800	0.477000	0.394620
C161	C16	0.293800	0.412100	0.441510
C171	C17	0.328000	0.385400	0.500750
C181	C18	0.762700	0.644600	0.217360
C191	C19	0.825200	0.693600	0.158260
C201	C20	0.863800	0.811200	0.146090
C211	C21	0.842600	0.875300	0.193000
C221	C22	0.778800	0.820800	0.250150
C231	C23	0.910000	0.645500	0.061040
C241	C24	0.909100	0.539100	0.028520
C251	C25	0.981500	0.500200	0.070010
C261	C26	0.988300	0.396200	0.041380
C271	C27	0.086700	0.384600	0.073230
C281	C28	0.871400	0.282600	0.048130
C291	C29	0.907300	0.507000	0.908050
C301	C30	0.976900	0.554400	0.844600
C311	C31	0.959900	0.474400	0.794880
C321	C32	0.098200	0.621200	0.727950
C331	C33	0.118300	0.706200	0.774840
C341	C34	0.057400	0.672000	0.834080
C351	C35	0.881900	0.237300	0.550700
C361	C36	0.868400	0.174800	0.491600
C371	C37	0.947400	0.136200	0.479430
C381	C38	0.032700	0.157400	0.526340
C391	C39	0.042000	0.221200	0.583490
C401	C40	0.735500	0.090000	0.394380
C411	C41	0.630000	0.090900	0.361860
C421	C42	0.518700	0.018500	0.403350
C431	C43	0.407900	0.011700	0.374720
C441	C44	0.297900	0.913300	0.406570
C451	C45	0.411200	0.128600	0.381470
C461	C46	0.599700	0.092700	0.241390
C471	C47	0.577500	0.023100	0.177940
C481	C48	0.514500	0.040100	0.128220
C491	C49	0.523000	0.901800	0.061290
C501	C50	0.587900	0.881700	0.108180
C511	C51	0.614600	0.942600	0.167420
C521	C52	0.237300	0.881900	0.115970
C531	C53	0.174800	0.868400	0.175070
C541	C54	0.136200	0.947400	0.187240
C551	C55	0.157400	0.032700	0.140330
C561	C56	0.221200	0.042000	0.083180
C571	C57	0.090000	0.735500	0.272290
C581	C58	0.090900	0.630000	0.304810
C591	C59	0.018500	0.518700	0.263320
C601	C60	0.011700	0.407900	0.291950
C611	C61	0.913300	0.297900	0.260100
C621	C62	0.128600	0.411200	0.285200
C631	C63	0.092700	0.599700	0.425280
C641	C64	0.023100	0.577500	0.488730
C651	C65	0.040100	0.514500	0.538450
C661	C66	0.901800	0.523000	0.605380
C671	C67	0.881700	0.587900	0.558490
C681	C68	0.942600	0.614600	0.499250
C691	C69	0.118100	0.355400	0.782640
C701	C70	0.131600	0.306400	0.841740
C711	C71	0.052600	0.188800	0.853910
C721	C72	0.967300	0.124700	0.807000
C731	C73	0.958000	0.179200	0.749850
C741	C74	0.264500	0.354500	0.938960
C751	C75	0.370000	0.460900	0.971480
C761	C76	0.481300	0.499800	0.929990
C771	C77	0.592100	0.603800	0.958620
C781	C78	0.702100	0.615400	0.926770
C791	C79	0.588800	0.717400	0.951870
C801	C80	0.400300	0.493000	0.091950
C811	C81	0.422500	0.445600	0.155400
C821	C82	0.485500	0.525600	0.205120
C831	C83	0.477000	0.378800	0.272050
C841	C84	0.412100	0.293800	0.225160
C851	C85	0.385400	0.328000	0.165920
C861	C86	0.644600	0.762700	0.449300
C871	C87	0.693600	0.825200	0.508400
C881	C88	0.811200	0.863800	0.520570
C891	C89	0.875300	0.842600	0.473660
C901	C90	0.820800	0.778800	0.416510
C911	C91	0.645500	0.910000	0.605620
C921	C92	0.539100	0.909100	0.638140
C931	C93	0.500200	0.981500	0.596650
C941	C94	0.396200	0.988300	0.625280
C951	C95	0.384600	0.086700	0.593430
C961	C96	0.282600	0.871400	0.618530
C971	C97	0.507000	0.907300	0.758610
C981	C98	0.554400	0.976900	0.822060
C991	C99	0.474400	0.959900	0.871780
C1001	C100	0.621200	0.098200	0.938710
C1011	C101	0.706200	0.118300	0.891820
C1021	C102	0.672000	0.057400	0.832580
N11	N1	0.294070	0.031300	0.927630
N21	N2	0.382900	0.224300	0.783410
N31	N3	0.426900	0.384800	0.628590
N41	N4	0.493400	0.513440	0.403970
N51	N5	0.737230	0.705930	0.260960
N61	N6	0.841400	0.617100	0.116740
N71	N7	0.957900	0.573100	0.961920
N81	N8	0.020040	0.506600	0.737300
N91	N9	0.968700	0.262770	0.594300
N101	N10	0.775700	0.158600	0.450080
N111	N11	0.615200	0.042100	0.295260
N121	N12	0.486560	0.979960	0.070640
N131	N13	0.262770	0.968700	0.072370
N141	N14	0.158600	0.775700	0.216590
N151	N15	0.042100	0.615200	0.371410
N161	N16	0.979960	0.486560	0.596030
N171	N17	0.031300	0.294070	0.739040
N181	N18	0.224300	0.382900	0.883260
N191	N19	0.384800	0.426900	0.038080
N201	N20	0.513440	0.493400	0.262700
N211	N21	0.705930	0.737230	0.405700
N221	N22	0.617100	0.841400	0.549920
N231	N23	0.573100	0.957900	0.704740
N241	N24	0.506600	0.020040	0.929360
O11	O1	0.255340	0.222940	0.706680
O21	O2	0.585800	0.399020	0.575780
O31	O3	0.967600	0.744660	0.040010
O41	O4	0.813220	0.414200	0.909110
O51	O5	0.777060	0.032400	0.373350
O61	O6	0.600980	0.186780	0.242450
O71	O7	0.032400	0.777060	0.293320
O81	O8	0.186780	0.600980	0.424220
O91	O9	0.222940	0.255340	0.959990
O101	O10	0.399020	0.585800	0.090890
O111	O11	0.744660	0.967600	0.626650
O121	O12	0.414200	0.813220	0.757550
