data_PAPVAF_clean_PM
_symmetry_space_group_name_H-M	'P1'
_cell_length_a	19.869000
_cell_length_b	19.869000
_cell_length_c	27.470000
_cell_angle_alpha	90.000000
_cell_angle_beta	90.000000
_cell_angle_gamma	120.000000
_symmetry_Int_Tables_number 1

loop_
_symmetry_equiv_pos_as_xyz
'x,y,z'

loop_
_atom_site_label
_atom_site_type_symbol
_atom_site_fract_x
_atom_site_fract_y
_atom_site_fract_z
Pr11	Pr1	0.484940	0.527530	0.929780
C11	C1	0.107500	0.461600	0.030500
C21	C2	0.163900	0.437600	0.045400
C31	C3	0.229200	0.458200	0.018300
H11	H1	0.236800	0.486100	0.989600
O11	O1	0.355700	0.487300	0.962900
C41	C4	0.283200	0.439300	0.032000
C51	C5	0.354600	0.463300	0.005300
O21	O2	0.411300	0.460800	0.022300
C61	C6	0.272900	0.398400	0.074800
H21	H2	0.310000	0.386400	0.085400
O31	O3	0.054600	0.450300	0.059500
C71	C7	0.207100	0.376400	0.100600
O41	O4	0.116500	0.490600	0.991000
C81	C8	0.153200	0.397200	0.087300
H31	H3	0.110000	0.383800	0.106700
O51	O5	0.185000	0.331400	0.144100
C91	C9	0.235900	0.303400	0.159300
H41	H4	0.287600	0.346400	0.165800
H51	H5	0.239400	0.270700	0.134400
C101	C10	0.148800	0.179100	0.205900
C111	C11	0.128500	0.145300	0.156100
H61	H6	0.152800	0.186000	0.132400
H71	H7	0.073100	0.119100	0.151900
H81	H8	0.146400	0.108800	0.151900
C121	C12	0.198900	0.255900	0.206300
Pr21	Pr2	0.472470	0.957410	0.929780
C131	C13	0.538400	0.645900	0.030500
C141	C14	0.562400	0.726300	0.045400
C151	C15	0.541800	0.771000	0.018300
H91	H9	0.513900	0.750700	0.989600
O61	O6	0.512700	0.868400	0.962900
C161	C16	0.560700	0.843900	0.032000
C171	C17	0.536700	0.891300	0.005300
O71	O7	0.539200	0.950500	0.022300
C181	C18	0.601600	0.874500	0.074800
H101	H10	0.613600	0.923600	0.085400
O81	O8	0.549700	0.604300	0.059500
C191	C19	0.623600	0.830700	0.100600
O91	O9	0.509400	0.625900	0.991000
C201	C20	0.602800	0.756000	0.087300
H111	H11	0.616200	0.726200	0.106700
O101	O10	0.668600	0.853600	0.144100
C211	C21	0.696600	0.932500	0.159300
H121	H12	0.653600	0.941200	0.165800
H131	H13	0.729300	0.968700	0.134400
C221	C22	0.820900	0.969700	0.205900
C231	C23	0.854700	0.983200	0.156100
H141	H14	0.814000	0.966800	0.132400
H151	H15	0.880900	0.954000	0.151900
H161	H16	0.891200	0.037600	0.151900
C241	C24	0.744100	0.943000	0.206300
Pr31	Pr3	0.042590	0.515060	0.929780
C251	C25	0.354100	0.892500	0.030500
C261	C26	0.273700	0.836100	0.045400
C271	C27	0.229000	0.770800	0.018300
H171	H17	0.249300	0.763200	0.989600
O111	O11	0.131600	0.644300	0.962900
C281	C28	0.156100	0.716800	0.032000
C291	C29	0.108700	0.645400	0.005300
O121	O12	0.049500	0.588700	0.022300
C301	C30	0.125500	0.727100	0.074800
H181	H18	0.076400	0.690000	0.085400
O131	O13	0.395700	0.945400	0.059500
C311	C31	0.169300	0.792900	0.100600
O141	O14	0.374100	0.883500	0.991000
C321	C32	0.244000	0.846800	0.087300
H191	H19	0.273800	0.890000	0.106700
O151	O15	0.146400	0.815000	0.144100
C331	C33	0.067500	0.764100	0.159300
H201	H20	0.058800	0.712400	0.165800
H211	H21	0.031300	0.760600	0.134400
C341	C34	0.030300	0.851200	0.205900
C351	C35	0.016800	0.871500	0.156100
H221	H22	0.033200	0.847200	0.132400
H231	H23	0.046000	0.926900	0.151900
H241	H24	0.962400	0.853600	0.151900
C361	C36	0.057000	0.801100	0.206300
Pr41	Pr4	0.515060	0.472470	0.429780
C371	C37	0.892500	0.538400	0.530500
C381	C38	0.836100	0.562400	0.545400
C391	C39	0.770800	0.541800	0.518300
H251	H25	0.763200	0.513900	0.489600
O161	O16	0.644300	0.512700	0.462900
C401	C40	0.716800	0.560700	0.532000
C411	C41	0.645400	0.536700	0.505300
O171	O17	0.588700	0.539200	0.522300
C421	C42	0.727100	0.601600	0.574800
H261	H26	0.690000	0.613600	0.585400
O181	O18	0.945400	0.549700	0.559500
C431	C43	0.792900	0.623600	0.600600
O191	O19	0.883500	0.509400	0.491000
C441	C44	0.846800	0.602800	0.587300
H271	H27	0.890000	0.616200	0.606700
O201	O20	0.815000	0.668600	0.644100
C451	C45	0.764100	0.696600	0.659300
H281	H28	0.712400	0.653600	0.665800
H291	H29	0.760600	0.729300	0.634400
C461	C46	0.851200	0.820900	0.705900
C471	C47	0.871500	0.854700	0.656100
H301	H30	0.847200	0.814000	0.632400
H311	H31	0.926900	0.880900	0.651900
H321	H32	0.853600	0.891200	0.651900
C481	C48	0.801100	0.744100	0.706300
Pr51	Pr5	0.527530	0.042590	0.429780
C491	C49	0.461600	0.354100	0.530500
C501	C50	0.437600	0.273700	0.545400
C511	C51	0.458200	0.229000	0.518300
H331	H33	0.486100	0.249300	0.489600
O211	O21	0.487300	0.131600	0.462900
C521	C52	0.439300	0.156100	0.532000
C531	C53	0.463300	0.108700	0.505300
O221	O22	0.460800	0.049500	0.522300
C541	C54	0.398400	0.125500	0.574800
H341	H34	0.386400	0.076400	0.585400
O231	O23	0.450300	0.395700	0.559500
C551	C55	0.376400	0.169300	0.600600
O241	O24	0.490600	0.374100	0.491000
C561	C56	0.397200	0.244000	0.587300
H351	H35	0.383800	0.273800	0.606700
O251	O25	0.331400	0.146400	0.644100
C571	C57	0.303400	0.067500	0.659300
H361	H36	0.346400	0.058800	0.665800
H371	H37	0.270700	0.031300	0.634400
C581	C58	0.179100	0.030300	0.705900
C591	C59	0.145300	0.016800	0.656100
H381	H38	0.186000	0.033200	0.632400
H391	H39	0.119100	0.046000	0.651900
H401	H40	0.108800	0.962400	0.651900
C601	C60	0.255900	0.057000	0.706300
Pr61	Pr6	0.957410	0.484940	0.429780
C611	C61	0.645900	0.107500	0.530500
C621	C62	0.726300	0.163900	0.545400
C631	C63	0.771000	0.229200	0.518300
H411	H41	0.750700	0.236800	0.489600
O261	O26	0.868400	0.355700	0.462900
C641	C64	0.843900	0.283200	0.532000
C651	C65	0.891300	0.354600	0.505300
O271	O27	0.950500	0.411300	0.522300
C661	C66	0.874500	0.272900	0.574800
H421	H42	0.923600	0.310000	0.585400
O281	O28	0.604300	0.054600	0.559500
C671	C67	0.830700	0.207100	0.600600
O291	O29	0.625900	0.116500	0.491000
C681	C68	0.756000	0.153200	0.587300
H431	H43	0.726200	0.110000	0.606700
O301	O30	0.853600	0.185000	0.644100
C691	C69	0.932500	0.235900	0.659300
H441	H44	0.941200	0.287600	0.665800
H451	H45	0.968700	0.239400	0.634400
C701	C70	0.969700	0.148800	0.705900
C711	C71	0.983200	0.128500	0.656100
H461	H46	0.966800	0.152800	0.632400
H471	H47	0.954000	0.073100	0.651900
H481	H48	0.037600	0.146400	0.651900
C721	C72	0.943000	0.198900	0.706300
Pr71	Pr7	0.515060	0.472470	0.070220
C731	C73	0.892500	0.538400	0.969500
C741	C74	0.836100	0.562400	0.954600
C751	C75	0.770800	0.541800	0.981700
H491	H49	0.763200	0.513900	0.010400
O311	O31	0.644300	0.512700	0.037100
C761	C76	0.716800	0.560700	0.968000
C771	C77	0.645400	0.536700	0.994700
O321	O32	0.588700	0.539200	0.977700
C781	C78	0.727100	0.601600	0.925200
H501	H50	0.690000	0.613600	0.914600
O331	O33	0.945400	0.549700	0.940500
C791	C79	0.792900	0.623600	0.899400
O341	O34	0.883500	0.509400	0.009000
C801	C80	0.846800	0.602800	0.912700
H511	H51	0.890000	0.616200	0.893300
O351	O35	0.815000	0.668600	0.855900
C811	C81	0.764100	0.696600	0.840700
H521	H52	0.712400	0.653600	0.834200
H531	H53	0.760600	0.729300	0.865600
C821	C82	0.851200	0.820900	0.794100
C831	C83	0.871500	0.854700	0.843900
H541	H54	0.847200	0.814000	0.867600
H551	H55	0.926900	0.880900	0.848100
H561	H56	0.853600	0.891200	0.848100
C841	C84	0.801100	0.744100	0.793700
Pr81	Pr8	0.527530	0.042590	0.070220
C851	C85	0.461600	0.354100	0.969500
C861	C86	0.437600	0.273700	0.954600
C871	C87	0.458200	0.229000	0.981700
H571	H57	0.486100	0.249300	0.010400
O361	O36	0.487300	0.131600	0.037100
C881	C88	0.439300	0.156100	0.968000
C891	C89	0.463300	0.108700	0.994700
O371	O37	0.460800	0.049500	0.977700
C901	C90	0.398400	0.125500	0.925200
H581	H58	0.386400	0.076400	0.914600
O381	O38	0.450300	0.395700	0.940500
C911	C91	0.376400	0.169300	0.899400
O391	O39	0.490600	0.374100	0.009000
C921	C92	0.397200	0.244000	0.912700
H591	H59	0.383800	0.273800	0.893300
O401	O40	0.331400	0.146400	0.855900
C931	C93	0.303400	0.067500	0.840700
H601	H60	0.346400	0.058800	0.834200
H611	H61	0.270700	0.031300	0.865600
C941	C94	0.179100	0.030300	0.794100
C951	C95	0.145300	0.016800	0.843900
H621	H62	0.186000	0.033200	0.867600
H631	H63	0.119100	0.046000	0.848100
H641	H64	0.108800	0.962400	0.848100
C961	C96	0.255900	0.057000	0.793700
Pr91	Pr9	0.957410	0.484940	0.070220
C971	C97	0.645900	0.107500	0.969500
C981	C98	0.726300	0.163900	0.954600
C991	C99	0.771000	0.229200	0.981700
H651	H65	0.750700	0.236800	0.010400
O411	O41	0.868400	0.355700	0.037100
C1001	C100	0.843900	0.283200	0.968000
C1011	C101	0.891300	0.354600	0.994700
O421	O42	0.950500	0.411300	0.977700
C1021	C102	0.874500	0.272900	0.925200
H661	H66	0.923600	0.310000	0.914600
O431	O43	0.604300	0.054600	0.940500
C1031	C103	0.830700	0.207100	0.899400
O441	O44	0.625900	0.116500	0.009000
C1041	C104	0.756000	0.153200	0.912700
H671	H67	0.726200	0.110000	0.893300
O451	O45	0.853600	0.185000	0.855900
C1051	C105	0.932500	0.235900	0.840700
H681	H68	0.941200	0.287600	0.834200
H691	H69	0.968700	0.239400	0.865600
C1061	C106	0.969700	0.148800	0.794100
C1071	C107	0.983200	0.128500	0.843900
H701	H70	0.966800	0.152800	0.867600
H711	H71	0.954000	0.073100	0.848100
H721	H72	0.037600	0.146400	0.848100
C1081	C108	0.943000	0.198900	0.793700
Pr101	Pr10	0.484940	0.527530	0.570220
C1091	C109	0.107500	0.461600	0.469500
C1101	C110	0.163900	0.437600	0.454600
C1111	C111	0.229200	0.458200	0.481700
H731	H73	0.236800	0.486100	0.510400
O461	O46	0.355700	0.487300	0.537100
C1121	C112	0.283200	0.439300	0.468000
C1131	C113	0.354600	0.463300	0.494700
O471	O47	0.411300	0.460800	0.477700
C1141	C114	0.272900	0.398400	0.425200
H741	H74	0.310000	0.386400	0.414600
O481	O48	0.054600	0.450300	0.440500
C1151	C115	0.207100	0.376400	0.399400
O491	O49	0.116500	0.490600	0.509000
C1161	C116	0.153200	0.397200	0.412700
H751	H75	0.110000	0.383800	0.393300
O501	O50	0.185000	0.331400	0.355900
C1171	C117	0.235900	0.303400	0.340700
H761	H76	0.287600	0.346400	0.334200
H771	H77	0.239400	0.270700	0.365600
C1181	C118	0.148800	0.179100	0.294100
C1191	C119	0.128500	0.145300	0.343900
H781	H78	0.152800	0.186000	0.367600
H791	H79	0.073100	0.119100	0.348100
H801	H80	0.146400	0.108800	0.348100
C1201	C120	0.198900	0.255900	0.293700
Pr111	Pr11	0.472470	0.957410	0.570220
C1211	C121	0.538400	0.645900	0.469500
C1221	C122	0.562400	0.726300	0.454600
C1231	C123	0.541800	0.771000	0.481700
H811	H81	0.513900	0.750700	0.510400
O511	O51	0.512700	0.868400	0.537100
C1241	C124	0.560700	0.843900	0.468000
C1251	C125	0.536700	0.891300	0.494700
O521	O52	0.539200	0.950500	0.477700
C1261	C126	0.601600	0.874500	0.425200
H821	H82	0.613600	0.923600	0.414600
O531	O53	0.549700	0.604300	0.440500
C1271	C127	0.623600	0.830700	0.399400
O541	O54	0.509400	0.625900	0.509000
C1281	C128	0.602800	0.756000	0.412700
H831	H83	0.616200	0.726200	0.393300
O551	O55	0.668600	0.853600	0.355900
C1291	C129	0.696600	0.932500	0.340700
H841	H84	0.653600	0.941200	0.334200
H851	H85	0.729300	0.968700	0.365600
C1301	C130	0.820900	0.969700	0.294100
C1311	C131	0.854700	0.983200	0.343900
H861	H86	0.814000	0.966800	0.367600
H871	H87	0.880900	0.954000	0.348100
H881	H88	0.891200	0.037600	0.348100
C1321	C132	0.744100	0.943000	0.293700
Pr121	Pr12	0.042590	0.515060	0.570220
C1331	C133	0.354100	0.892500	0.469500
C1341	C134	0.273700	0.836100	0.454600
C1351	C135	0.229000	0.770800	0.481700
H891	H89	0.249300	0.763200	0.510400
O561	O56	0.131600	0.644300	0.537100
C1361	C136	0.156100	0.716800	0.468000
C1371	C137	0.108700	0.645400	0.494700
O571	O57	0.049500	0.588700	0.477700
C1381	C138	0.125500	0.727100	0.425200
H901	H90	0.076400	0.690000	0.414600
O581	O58	0.395700	0.945400	0.440500
C1391	C139	0.169300	0.792900	0.399400
O591	O59	0.374100	0.883500	0.509000
C1401	C140	0.244000	0.846800	0.412700
H911	H91	0.273800	0.890000	0.393300
O601	O60	0.146400	0.815000	0.355900
C1411	C141	0.067500	0.764100	0.340700
H921	H92	0.058800	0.712400	0.334200
H931	H93	0.031300	0.760600	0.365600
C1421	C142	0.030300	0.851200	0.294100
C1431	C143	0.016800	0.871500	0.343900
H941	H94	0.033200	0.847200	0.367600
H951	H95	0.046000	0.926900	0.348100
H961	H96	0.962400	0.853600	0.348100
C1441	C144	0.057000	0.801100	0.293700
C1451	C145	0.127200	0.144700	0.250000
C1461	C146	0.223900	0.302500	0.250000
C1471	C147	0.855300	0.982500	0.250000
C1481	C148	0.697500	0.921400	0.250000
C1491	C149	0.017500	0.872800	0.250000
C1501	C150	0.078600	0.776100	0.250000
C1511	C151	0.872800	0.855300	0.750000
C1521	C152	0.776100	0.697500	0.750000
C1531	C153	0.144700	0.017500	0.750000
C1541	C154	0.302500	0.078600	0.750000
C1551	C155	0.982500	0.127200	0.750000
C1561	C156	0.921400	0.223900	0.750000
