data_PAQMEB_clean_PM
_symmetry_space_group_name_H-M	'P1'
_cell_length_a	16.246900
_cell_length_b	11.877500
_cell_length_c	18.028000
_cell_angle_alpha	90.000000
_cell_angle_beta	103.749000
_cell_angle_gamma	90.000000
_symmetry_Int_Tables_number 1

loop_
_symmetry_equiv_pos_as_xyz
'x,y,z'

loop_
_atom_site_label
_atom_site_type_symbol
_atom_site_fract_x
_atom_site_fract_y
_atom_site_fract_z
Mo11	Mo1	0.617680	0.267300	0.966850
Mo21	Mo2	0.479310	0.146210	0.805250
Mo31	Mo3	0.476220	0.929600	0.786930
Mo41	Mo4	0.611010	0.755710	0.921630
Mo51	Mo5	0.715610	0.848170	0.036840
Mo61	Mo6	0.716780	0.141430	0.067530
Mn11	Mn1	0.875510	0.003040	0.865460
P11	P1	0.672560	0.025210	0.885770
P21	P2	0.623160	0.337100	0.789950
P31	P3	0.561020	0.701510	0.737120
P41	P4	0.889030	0.008000	0.058620
O11	O1	0.740000	0.040300	0.842100
O21	O2	0.613700	0.922600	0.858500
O31	O3	0.615400	0.132400	0.876800
O41	O4	0.711800	0.010000	0.973200
O51	O5	0.630100	0.444400	0.748000
O61	O6	0.538500	0.275800	0.760500
O71	O7	0.699400	0.259500	0.780200
O81	O8	0.634400	0.363200	0.876200
O91	O9	0.608300	0.670400	0.677100
O101	O10	0.484900	0.622500	0.733900
O111	O11	0.529200	0.824900	0.721800
O121	O12	0.621800	0.696100	0.818000
O131	O13	0.977500	0.996400	0.117400
O141	O14	0.901900	0.039000	0.981700
O151	O15	0.841100	0.101100	0.091700
O161	O16	0.843100	0.894000	0.060500
O171	O17	0.738800	0.245700	0.992400
O181	O18	0.593000	0.135300	0.024200
O191	O19	0.491800	0.254800	0.901100
O201	O20	0.517300	0.050600	0.733000
O211	O21	0.464200	0.023300	0.875100
O221	O22	0.486000	0.791000	0.862400
O231	O23	0.591700	0.860900	0.000800
O241	O24	0.733700	0.773900	0.946100
O251	O25	0.704100	0.980300	0.114500
Mo71	Mo7	0.882320	0.767300	0.533150
Mo81	Mo8	0.020690	0.646210	0.694750
Mo91	Mo9	0.023780	0.429600	0.713070
Mo101	Mo10	0.888990	0.255710	0.578370
Mo111	Mo11	0.784390	0.348170	0.463160
Mo121	Mo12	0.783220	0.641430	0.432470
Mn21	Mn2	0.624490	0.503040	0.634540
P51	P5	0.827440	0.525210	0.614230
P61	P6	0.876840	0.837100	0.710050
P71	P7	0.938980	0.201510	0.762880
P81	P8	0.610970	0.508000	0.441380
O261	O26	0.760000	0.540300	0.657900
O271	O27	0.886300	0.422600	0.641500
O281	O28	0.884600	0.632400	0.623200
O291	O29	0.788200	0.510000	0.526800
O301	O30	0.869900	0.944400	0.752000
O311	O31	0.961500	0.775800	0.739500
O321	O32	0.800600	0.759500	0.719800
O331	O33	0.865600	0.863200	0.623800
O341	O34	0.891700	0.170400	0.822900
O351	O35	0.015100	0.122500	0.766100
O361	O36	0.970800	0.324900	0.778200
O371	O37	0.878200	0.196100	0.682000
O381	O38	0.522500	0.496400	0.382600
O391	O39	0.598100	0.539000	0.518300
O401	O40	0.658900	0.601100	0.408300
O411	O41	0.656900	0.394000	0.439500
O421	O42	0.761200	0.745700	0.507600
O431	O43	0.907000	0.635300	0.475800
O441	O44	0.008200	0.754800	0.598900
O451	O45	0.982700	0.550600	0.767000
O461	O46	0.035800	0.523300	0.624900
O471	O47	0.014000	0.291000	0.637600
O481	O48	0.908300	0.360900	0.499200
O491	O49	0.766300	0.273900	0.553900
O501	O50	0.795900	0.480300	0.385500
Mo131	Mo13	0.382320	0.732700	0.033150
Mo141	Mo14	0.520690	0.853790	0.194750
Mo151	Mo15	0.523780	0.070400	0.213070
Mo161	Mo16	0.388990	0.244290	0.078370
Mo171	Mo17	0.284390	0.151830	0.963160
Mo181	Mo18	0.283220	0.858570	0.932470
Mn31	Mn3	0.124490	0.996960	0.134540
P91	P9	0.327440	0.974790	0.114230
P101	P10	0.376840	0.662900	0.210050
P111	P11	0.438980	0.298490	0.262880
P121	P12	0.110970	0.992000	0.941380
O511	O51	0.260000	0.959700	0.157900
O521	O52	0.386300	0.077400	0.141500
O531	O53	0.384600	0.867600	0.123200
O541	O54	0.288200	0.990000	0.026800
O551	O55	0.369900	0.555600	0.252000
O561	O56	0.461500	0.724200	0.239500
O571	O57	0.300600	0.740500	0.219800
O581	O58	0.365600	0.636800	0.123800
O591	O59	0.391700	0.329600	0.322900
O601	O60	0.515100	0.377500	0.266100
O611	O61	0.470800	0.175100	0.278200
O621	O62	0.378200	0.303900	0.182000
O631	O63	0.022500	0.003600	0.882600
O641	O64	0.098100	0.961000	0.018300
O651	O65	0.158900	0.898900	0.908300
O661	O66	0.156900	0.106000	0.939500
O671	O67	0.261200	0.754300	0.007600
O681	O68	0.407000	0.864700	0.975800
O691	O69	0.508200	0.745200	0.098900
O701	O70	0.482700	0.949400	0.267000
O711	O71	0.535800	0.976700	0.124900
O721	O72	0.514000	0.209000	0.137600
O731	O73	0.408300	0.139100	0.999200
O741	O74	0.266300	0.226100	0.053900
O751	O75	0.295900	0.019700	0.885500
Mo191	Mo19	0.117680	0.232700	0.466850
Mo201	Mo20	0.979310	0.353790	0.305250
Mo211	Mo21	0.976220	0.570400	0.286930
Mo221	Mo22	0.111010	0.744290	0.421630
Mo231	Mo23	0.215610	0.651830	0.536840
Mo241	Mo24	0.216780	0.358570	0.567530
Mn41	Mn4	0.375510	0.496960	0.365460
P131	P13	0.172560	0.474790	0.385770
P141	P14	0.123160	0.162900	0.289950
P151	P15	0.061020	0.798490	0.237120
P161	P16	0.389030	0.492000	0.558620
O761	O76	0.240000	0.459700	0.342100
O771	O77	0.113700	0.577400	0.358500
O781	O78	0.115400	0.367600	0.376800
O791	O79	0.211800	0.490000	0.473200
O801	O80	0.130100	0.055600	0.248000
O811	O81	0.038500	0.224200	0.260500
O821	O82	0.199400	0.240500	0.280200
O831	O83	0.134400	0.136800	0.376200
O841	O84	0.108300	0.829600	0.177100
O851	O85	0.984900	0.877500	0.233900
O861	O86	0.029200	0.675100	0.221800
O871	O87	0.121800	0.803900	0.318000
O881	O88	0.477500	0.503600	0.617400
O891	O89	0.401900	0.461000	0.481700
O901	O90	0.341100	0.398900	0.591700
O911	O91	0.343100	0.606000	0.560500
O921	O92	0.238800	0.254300	0.492400
O931	O93	0.093000	0.364700	0.524200
O941	O94	0.991800	0.245200	0.401100
O951	O95	0.017300	0.449400	0.233000
O961	O96	0.964200	0.476700	0.375100
O971	O97	0.986000	0.709000	0.362400
O981	O98	0.091700	0.639100	0.500800
O991	O99	0.233700	0.726100	0.446100
O1001	O100	0.204100	0.519700	0.614500
Mn51	Mn5	0.500000	0.000000	0.000000
Mn61	Mn6	0.000000	0.500000	0.500000
