data_PAQPIG_clean_PM
_symmetry_space_group_name_H-M	'P1'
_cell_length_a	10.187000
_cell_length_b	10.241000
_cell_length_c	8.213700
_cell_angle_alpha	90.398000
_cell_angle_beta	95.930000
_cell_angle_gamma	117.325000
_symmetry_Int_Tables_number 1

loop_
_symmetry_equiv_pos_as_xyz
'x,y,z'

loop_
_atom_site_label
_atom_site_type_symbol
_atom_site_fract_x
_atom_site_fract_y
_atom_site_fract_z
V11	V1	0.986560	0.215300	0.354320
V21	V2	0.519730	0.783460	0.152040
V31	V3	0.786840	0.147980	0.693500
P11	P1	0.783100	0.884300	0.455700
P21	P2	0.185900	0.536800	0.205300
P31	P3	0.286700	0.879300	0.941000
O11	O1	0.119800	0.430500	0.338300
O21	O2	0.366200	0.784800	0.980900
O31	O3	0.888000	0.997500	0.347200
O41	O4	0.627200	0.794200	0.368200
O51	O5	0.136300	0.774000	0.841200
O61	O6	0.772800	0.958600	0.614800
O71	O7	0.260600	0.941600	0.097100
O81	O8	0.126000	0.444500	0.034600
O91	O9	0.895200	0.236000	0.497000
O101	O10	0.353000	0.601800	0.224800
O111	O11	0.127600	0.650400	0.202200
O121	O12	0.844300	0.776900	0.505000
O131	O13	0.378200	0.002800	0.836200
V41	V4	0.013440	0.784700	0.645680
V51	V5	0.480270	0.216540	0.847960
V61	V6	0.213160	0.852020	0.306500
P41	P4	0.216900	0.115700	0.544300
P51	P5	0.814100	0.463200	0.794700
P61	P6	0.713300	0.120700	0.059000
O141	O14	0.880200	0.569500	0.661700
O151	O15	0.633800	0.215200	0.019100
O161	O16	0.112000	0.002500	0.652800
O171	O17	0.372800	0.205800	0.631800
O181	O18	0.863700	0.226000	0.158800
O191	O19	0.227200	0.041400	0.385200
O201	O20	0.739400	0.058400	0.902900
O211	O21	0.874000	0.555500	0.965400
O221	O22	0.104800	0.764000	0.503000
O231	O23	0.647000	0.398200	0.775200
O241	O24	0.872400	0.349600	0.797800
O251	O25	0.155700	0.223100	0.495000
O261	O26	0.621800	0.997200	0.163800
