data_PAQVEK_clean_PM
_symmetry_space_group_name_H-M	'P1'
_cell_length_a	7.228000
_cell_length_b	24.997000
_cell_length_c	30.902000
_cell_angle_alpha	90.000000
_cell_angle_beta	93.167000
_cell_angle_gamma	90.000000
_symmetry_Int_Tables_number 1

loop_
_symmetry_equiv_pos_as_xyz
'x,y,z'

loop_
_atom_site_label
_atom_site_type_symbol
_atom_site_fract_x
_atom_site_fract_y
_atom_site_fract_z
N11	N1	0.289500	0.549990	0.000720
N21	N2	0.558200	0.526540	0.942400
C11	C1	0.168400	0.557200	0.033520
C21	C2	0.036700	0.598200	0.022260
H11	H1	0.942100	0.610000	0.039100
C31	C3	0.074500	0.616500	0.982900
H21	H2	0.010500	0.643200	0.967300
C41	C4	0.233300	0.587100	0.969230
C51	C5	0.318100	0.596400	0.930910
C61	C6	0.468100	0.567200	0.918590
C71	C7	0.549600	0.572400	0.876630
H31	H3	0.513200	0.596300	0.854700
C81	C8	0.686000	0.536600	0.875560
H41	H4	0.762200	0.531100	0.852700
C91	C9	0.694600	0.507700	0.916130
C101	C10	0.180100	0.531700	0.073460
C111	C11	0.238300	0.638500	0.899990
C121	C12	0.065800	0.631800	0.879900
H51	H5	0.996600	0.601600	0.885900
C131	C13	0.992300	0.670000	0.850300
H61	H6	0.875500	0.664300	0.836900
C141	C14	0.085800	0.714000	0.841000
C151	C15	0.264000	0.722200	0.861900
H71	H7	0.331500	0.752700	0.855900
C161	C16	0.338000	0.684400	0.891400
H81	H8	0.453800	0.690000	0.905300
C171	C17	0.008000	0.756600	0.807000
O11	O1	0.117700	0.790300	0.793970
O21	O2	0.833300	0.748800	0.795900
C181	C18	0.050200	0.548600	0.108030
C191	C19	0.122400	0.578300	0.143390
H91	H9	0.248400	0.586000	0.146000
C201	C20	0.005600	0.596400	0.174700
H101	H10	0.055000	0.615700	0.198300
C211	C21	0.818600	0.586180	0.171110
C221	C22	0.743000	0.556100	0.136140
H111	H11	0.617100	0.548200	0.133900
C231	C23	0.859600	0.538400	0.104760
H121	H12	0.809600	0.519200	0.081100
C241	C24	0.690300	0.609460	0.203040
O31	O3	0.759900	0.640220	0.233470
O41	O4	0.518300	0.603080	0.200550
N31	N3	0.789500	0.049990	0.000720
N41	N4	0.058200	0.026540	0.942400
C251	C25	0.668400	0.057200	0.033520
C261	C26	0.536700	0.098200	0.022260
H131	H13	0.442100	0.110000	0.039100
C271	C27	0.574500	0.116500	0.982900
H141	H14	0.510500	0.143200	0.967300
C281	C28	0.733300	0.087100	0.969230
C291	C29	0.818100	0.096400	0.930910
C301	C30	0.968100	0.067200	0.918590
C311	C31	0.049600	0.072400	0.876630
H151	H15	0.013200	0.096300	0.854700
C321	C32	0.186000	0.036600	0.875560
H161	H16	0.262200	0.031100	0.852700
C331	C33	0.194600	0.007700	0.916130
C341	C34	0.680100	0.031700	0.073460
C351	C35	0.738300	0.138500	0.899990
C361	C36	0.565800	0.131800	0.879900
H171	H17	0.496600	0.101600	0.885900
C371	C37	0.492300	0.170000	0.850300
H181	H18	0.375500	0.164300	0.836900
C381	C38	0.585800	0.214000	0.841000
C391	C39	0.764000	0.222200	0.861900
H191	H19	0.831500	0.252700	0.855900
C401	C40	0.838000	0.184400	0.891400
H201	H20	0.953800	0.190000	0.905300
C411	C41	0.508000	0.256600	0.807000
O51	O5	0.617700	0.290300	0.793970
O61	O6	0.333300	0.248800	0.795900
C421	C42	0.550200	0.048600	0.108030
C431	C43	0.622400	0.078300	0.143390
H211	H21	0.748400	0.086000	0.146000
C441	C44	0.505600	0.096400	0.174700
H221	H22	0.555000	0.115700	0.198300
C451	C45	0.318600	0.086180	0.171110
C461	C46	0.243000	0.056100	0.136140
H231	H23	0.117100	0.048200	0.133900
C471	C47	0.359600	0.038400	0.104760
H241	H24	0.309600	0.019200	0.081100
C481	C48	0.190300	0.109460	0.203040
O71	O7	0.259900	0.140220	0.233470
O81	O8	0.018300	0.103080	0.200550
N51	N5	0.710500	0.549990	0.499280
N61	N6	0.441800	0.526540	0.557600
C491	C49	0.831600	0.557200	0.466480
C501	C50	0.963300	0.598200	0.477740
H251	H25	0.057900	0.610000	0.460900
C511	C51	0.925500	0.616500	0.517100
H261	H26	0.989500	0.643200	0.532700
C521	C52	0.766700	0.587100	0.530770
C531	C53	0.681900	0.596400	0.569090
C541	C54	0.531900	0.567200	0.581410
C551	C55	0.450400	0.572400	0.623370
H271	H27	0.486800	0.596300	0.645300
C561	C56	0.314000	0.536600	0.624440
H281	H28	0.237800	0.531100	0.647300
C571	C57	0.305400	0.507700	0.583870
C581	C58	0.819900	0.531700	0.426540
C591	C59	0.761700	0.638500	0.600010
C601	C60	0.934200	0.631800	0.620100
H291	H29	0.003400	0.601600	0.614100
C611	C61	0.007700	0.670000	0.649700
H301	H30	0.124500	0.664300	0.663100
C621	C62	0.914200	0.714000	0.659000
C631	C63	0.736000	0.722200	0.638100
H311	H31	0.668500	0.752700	0.644100
C641	C64	0.662000	0.684400	0.608600
H321	H32	0.546200	0.690000	0.594700
C651	C65	0.992000	0.756600	0.693000
O91	O9	0.882300	0.790300	0.706030
O101	O10	0.166700	0.748800	0.704100
C661	C66	0.949800	0.548600	0.391970
C671	C67	0.877600	0.578300	0.356610
H331	H33	0.751600	0.586000	0.354000
C681	C68	0.994400	0.596400	0.325300
H341	H34	0.945000	0.615700	0.301700
C691	C69	0.181400	0.586180	0.328890
C701	C70	0.257000	0.556100	0.363860
H351	H35	0.382900	0.548200	0.366100
C711	C71	0.140400	0.538400	0.395240
H361	H36	0.190400	0.519200	0.418900
C721	C72	0.309700	0.609460	0.296960
O111	O11	0.240100	0.640220	0.266530
O121	O12	0.481700	0.603080	0.299450
N71	N7	0.210500	0.049990	0.499280
N81	N8	0.941800	0.026540	0.557600
C731	C73	0.331600	0.057200	0.466480
C741	C74	0.463300	0.098200	0.477740
H371	H37	0.557900	0.110000	0.460900
C751	C75	0.425500	0.116500	0.517100
H381	H38	0.489500	0.143200	0.532700
C761	C76	0.266700	0.087100	0.530770
C771	C77	0.181900	0.096400	0.569090
C781	C78	0.031900	0.067200	0.581410
C791	C79	0.950400	0.072400	0.623370
H391	H39	0.986800	0.096300	0.645300
C801	C80	0.814000	0.036600	0.624440
H401	H40	0.737800	0.031100	0.647300
C811	C81	0.805400	0.007700	0.583870
C821	C82	0.319900	0.031700	0.426540
C831	C83	0.261700	0.138500	0.600010
C841	C84	0.434200	0.131800	0.620100
H411	H41	0.503400	0.101600	0.614100
C851	C85	0.507700	0.170000	0.649700
H421	H42	0.624500	0.164300	0.663100
C861	C86	0.414200	0.214000	0.659000
C871	C87	0.236000	0.222200	0.638100
H431	H43	0.168500	0.252700	0.644100
C881	C88	0.162000	0.184400	0.608600
H441	H44	0.046200	0.190000	0.594700
C891	C89	0.492000	0.256600	0.693000
O131	O13	0.382300	0.290300	0.706030
O141	O14	0.666700	0.248800	0.704100
C901	C90	0.449800	0.048600	0.391970
C911	C91	0.377600	0.078300	0.356610
H451	H45	0.251600	0.086000	0.354000
C921	C92	0.494400	0.096400	0.325300
H461	H46	0.445000	0.115700	0.301700
C931	C93	0.681400	0.086180	0.328890
C941	C94	0.757000	0.056100	0.363860
H471	H47	0.882900	0.048200	0.366100
C951	C95	0.640400	0.038400	0.395240
H481	H48	0.690400	0.019200	0.418900
C961	C96	0.809700	0.109460	0.296960
O151	O15	0.740100	0.140220	0.266530
O161	O16	0.981700	0.103080	0.299450
N91	N9	0.710500	0.450010	0.999280
N101	N10	0.441800	0.473460	0.057600
C971	C97	0.831600	0.442800	0.966480
C981	C98	0.963300	0.401800	0.977740
H491	H49	0.057900	0.390000	0.960900
C991	C99	0.925500	0.383500	0.017100
H501	H50	0.989500	0.356800	0.032700
C1001	C100	0.766700	0.412900	0.030770
C1011	C101	0.681900	0.403600	0.069090
C1021	C102	0.531900	0.432800	0.081410
C1031	C103	0.450400	0.427600	0.123370
H511	H51	0.486800	0.403700	0.145300
C1041	C104	0.314000	0.463400	0.124440
H521	H52	0.237800	0.468900	0.147300
C1051	C105	0.305400	0.492300	0.083870
C1061	C106	0.819900	0.468300	0.926540
C1071	C107	0.761700	0.361500	0.100010
C1081	C108	0.934200	0.368200	0.120100
H531	H53	0.003400	0.398400	0.114100
C1091	C109	0.007700	0.330000	0.149700
H541	H54	0.124500	0.335700	0.163100
C1101	C110	0.914200	0.286000	0.159000
C1111	C111	0.736000	0.277800	0.138100
H551	H55	0.668500	0.247300	0.144100
C1121	C112	0.662000	0.315600	0.108600
H561	H56	0.546200	0.310000	0.094700
C1131	C113	0.992000	0.243400	0.193000
O171	O17	0.882300	0.209700	0.206030
O181	O18	0.166700	0.251200	0.204100
C1141	C114	0.949800	0.451400	0.891970
C1151	C115	0.877600	0.421700	0.856610
H571	H57	0.751600	0.414000	0.854000
C1161	C116	0.994400	0.403600	0.825300
H581	H58	0.945000	0.384300	0.801700
C1171	C117	0.181400	0.413820	0.828890
C1181	C118	0.257000	0.443900	0.863860
H591	H59	0.382900	0.451800	0.866100
C1191	C119	0.140400	0.461600	0.895240
H601	H60	0.190400	0.480800	0.918900
C1201	C120	0.309700	0.390540	0.796960
O191	O19	0.240100	0.359780	0.766530
O201	O20	0.481700	0.396920	0.799450
N111	N11	0.210500	0.950010	0.999280
N121	N12	0.941800	0.973460	0.057600
C1211	C121	0.331600	0.942800	0.966480
C1221	C122	0.463300	0.901800	0.977740
H611	H61	0.557900	0.890000	0.960900
C1231	C123	0.425500	0.883500	0.017100
H621	H62	0.489500	0.856800	0.032700
C1241	C124	0.266700	0.912900	0.030770
C1251	C125	0.181900	0.903600	0.069090
C1261	C126	0.031900	0.932800	0.081410
C1271	C127	0.950400	0.927600	0.123370
H631	H63	0.986800	0.903700	0.145300
C1281	C128	0.814000	0.963400	0.124440
H641	H64	0.737800	0.968900	0.147300
C1291	C129	0.805400	0.992300	0.083870
C1301	C130	0.319900	0.968300	0.926540
C1311	C131	0.261700	0.861500	0.100010
C1321	C132	0.434200	0.868200	0.120100
H651	H65	0.503400	0.898400	0.114100
C1331	C133	0.507700	0.830000	0.149700
H661	H66	0.624500	0.835700	0.163100
C1341	C134	0.414200	0.786000	0.159000
C1351	C135	0.236000	0.777800	0.138100
H671	H67	0.168500	0.747300	0.144100
C1361	C136	0.162000	0.815600	0.108600
H681	H68	0.046200	0.810000	0.094700
C1371	C137	0.492000	0.743400	0.193000
O211	O21	0.382300	0.709700	0.206030
O221	O22	0.666700	0.751200	0.204100
C1381	C138	0.449800	0.951400	0.891970
C1391	C139	0.377600	0.921700	0.856610
H691	H69	0.251600	0.914000	0.854000
C1401	C140	0.494400	0.903600	0.825300
H701	H70	0.445000	0.884300	0.801700
C1411	C141	0.681400	0.913820	0.828890
C1421	C142	0.757000	0.943900	0.863860
H711	H71	0.882900	0.951800	0.866100
C1431	C143	0.640400	0.961600	0.895240
H721	H72	0.690400	0.980800	0.918900
C1441	C144	0.809700	0.890540	0.796960
O231	O23	0.740100	0.859780	0.766530
O241	O24	0.981700	0.896920	0.799450
N131	N13	0.289500	0.450010	0.500720
N141	N14	0.558200	0.473460	0.442400
C1451	C145	0.168400	0.442800	0.533520
C1461	C146	0.036700	0.401800	0.522260
H731	H73	0.942100	0.390000	0.539100
C1471	C147	0.074500	0.383500	0.482900
H741	H74	0.010500	0.356800	0.467300
C1481	C148	0.233300	0.412900	0.469230
C1491	C149	0.318100	0.403600	0.430910
C1501	C150	0.468100	0.432800	0.418590
C1511	C151	0.549600	0.427600	0.376630
H751	H75	0.513200	0.403700	0.354700
C1521	C152	0.686000	0.463400	0.375560
H761	H76	0.762200	0.468900	0.352700
C1531	C153	0.694600	0.492300	0.416130
C1541	C154	0.180100	0.468300	0.573460
C1551	C155	0.238300	0.361500	0.399990
C1561	C156	0.065800	0.368200	0.379900
H771	H77	0.996600	0.398400	0.385900
C1571	C157	0.992300	0.330000	0.350300
H781	H78	0.875500	0.335700	0.336900
C1581	C158	0.085800	0.286000	0.341000
C1591	C159	0.264000	0.277800	0.361900
H791	H79	0.331500	0.247300	0.355900
C1601	C160	0.338000	0.315600	0.391400
H801	H80	0.453800	0.310000	0.405300
C1611	C161	0.008000	0.243400	0.307000
O251	O25	0.117700	0.209700	0.293970
O261	O26	0.833300	0.251200	0.295900
C1621	C162	0.050200	0.451400	0.608030
C1631	C163	0.122400	0.421700	0.643390
H811	H81	0.248400	0.414000	0.646000
C1641	C164	0.005600	0.403600	0.674700
H821	H82	0.055000	0.384300	0.698300
C1651	C165	0.818600	0.413820	0.671110
C1661	C166	0.743000	0.443900	0.636140
H831	H83	0.617100	0.451800	0.633900
C1671	C167	0.859600	0.461600	0.604760
H841	H84	0.809600	0.480800	0.581100
C1681	C168	0.690300	0.390540	0.703040
O271	O27	0.759900	0.359780	0.733470
O281	O28	0.518300	0.396920	0.700550
N151	N15	0.789500	0.950010	0.500720
N161	N16	0.058200	0.973460	0.442400
C1691	C169	0.668400	0.942800	0.533520
C1701	C170	0.536700	0.901800	0.522260
H851	H85	0.442100	0.890000	0.539100
C1711	C171	0.574500	0.883500	0.482900
H861	H86	0.510500	0.856800	0.467300
C1721	C172	0.733300	0.912900	0.469230
C1731	C173	0.818100	0.903600	0.430910
C1741	C174	0.968100	0.932800	0.418590
C1751	C175	0.049600	0.927600	0.376630
H871	H87	0.013200	0.903700	0.354700
C1761	C176	0.186000	0.963400	0.375560
H881	H88	0.262200	0.968900	0.352700
C1771	C177	0.194600	0.992300	0.416130
C1781	C178	0.680100	0.968300	0.573460
C1791	C179	0.738300	0.861500	0.399990
C1801	C180	0.565800	0.868200	0.379900
H891	H89	0.496600	0.898400	0.385900
C1811	C181	0.492300	0.830000	0.350300
H901	H90	0.375500	0.835700	0.336900
C1821	C182	0.585800	0.786000	0.341000
C1831	C183	0.764000	0.777800	0.361900
H911	H91	0.831500	0.747300	0.355900
C1841	C184	0.838000	0.815600	0.391400
H921	H92	0.953800	0.810000	0.405300
C1851	C185	0.508000	0.743400	0.307000
O291	O29	0.617700	0.709700	0.293970
O301	O30	0.333300	0.751200	0.295900
C1861	C186	0.550200	0.951400	0.608030
C1871	C187	0.622400	0.921700	0.643390
H931	H93	0.748400	0.914000	0.646000
C1881	C188	0.505600	0.903600	0.674700
H941	H94	0.555000	0.884300	0.698300
C1891	C189	0.318600	0.913820	0.671110
C1901	C190	0.243000	0.943900	0.636140
H951	H95	0.117100	0.951800	0.633900
C1911	C191	0.359600	0.961600	0.604760
H961	H96	0.309600	0.980800	0.581100
C1921	C192	0.190300	0.890540	0.703040
O311	O31	0.259900	0.859780	0.733470
O321	O32	0.018300	0.896920	0.700550
Ni11	Ni1	0.500000	0.500000	0.000000
Ni21	Ni2	0.000000	0.000000	0.000000
Ni31	Ni3	0.500000	0.500000	0.500000
Ni41	Ni4	0.000000	0.000000	0.500000
Fe11	Fe1	0.500000	0.336180	0.750000
Fe21	Fe2	0.000000	0.836180	0.750000
Fe31	Fe3	0.500000	0.663820	0.250000
Fe41	Fe4	0.000000	0.163820	0.250000
K11	K1	0.000000	0.264890	0.750000
K21	K2	0.500000	0.764890	0.750000
K31	K3	0.000000	0.735110	0.250000
K41	K4	0.500000	0.235110	0.250000
