data_PARHAS_clean_PM
_symmetry_space_group_name_H-M	'P1'
_cell_length_a	7.779000
_cell_length_b	14.855000
_cell_length_c	15.339000
_cell_angle_alpha	90.000000
_cell_angle_beta	90.000000
_cell_angle_gamma	98.631000
_symmetry_Int_Tables_number 1

loop_
_symmetry_equiv_pos_as_xyz
'x,y,z'

loop_
_atom_site_label
_atom_site_type_symbol
_atom_site_fract_x
_atom_site_fract_y
_atom_site_fract_z
Ca11	Ca1	0.548890	0.220530	0.719290
Ca21	Ca2	0.951110	0.779470	0.219290
Ca31	Ca3	0.451110	0.779470	0.280710
Ca41	Ca4	0.048890	0.220530	0.780710
H11	H1	0.772500	0.042900	0.946700
H21	H2	0.761700	0.139000	0.985900
H31	H3	0.538700	0.912200	0.982500
H41	H4	0.408900	0.959600	0.927200
H51	H5	0.300400	0.378900	0.958300
H61	H6	0.461700	0.342900	0.998900
H71	H7	0.486400	0.511100	0.908700
H81	H8	0.643800	0.475500	0.954000
H91	H9	0.727500	0.957100	0.446700
H101	H10	0.738300	0.861000	0.485900
H111	H11	0.961300	0.087800	0.482500
H121	H12	0.091100	0.040400	0.427200
H131	H13	0.199600	0.621100	0.458300
H141	H14	0.038300	0.657100	0.498900
H151	H15	0.013600	0.488900	0.408700
H161	H16	0.856200	0.524500	0.454000
H171	H17	0.227500	0.957100	0.053300
H181	H18	0.238300	0.861000	0.014100
H191	H19	0.461300	0.087800	0.017500
H201	H20	0.591100	0.040400	0.072800
H211	H21	0.699600	0.621100	0.041700
H221	H22	0.538300	0.657100	0.001100
H231	H23	0.513600	0.488900	0.091300
H241	H24	0.356200	0.524500	0.046000
H251	H25	0.272500	0.042900	0.553300
H261	H26	0.261700	0.139000	0.514100
H271	H27	0.038700	0.912200	0.517500
H281	H28	0.908900	0.959600	0.572800
H291	H29	0.800400	0.378900	0.541700
H301	H30	0.961700	0.342900	0.501100
H311	H31	0.986400	0.511100	0.591300
H321	H32	0.143800	0.475500	0.546000
C11	C1	0.646600	0.120210	0.868130
C21	C2	0.695700	0.087920	0.955400
C31	C3	0.546000	0.046190	0.014480
C41	C4	0.454100	0.331560	0.866280
C51	C5	0.424100	0.378210	0.951300
C61	C6	0.519600	0.476320	0.957800
C71	C7	0.853400	0.879790	0.368130
C81	C8	0.804300	0.912080	0.455400
C91	C9	0.954000	0.953810	0.514480
C101	C10	0.045900	0.668440	0.366280
C111	C11	0.075900	0.621790	0.451300
C121	C12	0.980400	0.523680	0.457800
C131	C13	0.353400	0.879790	0.131870
C141	C14	0.304300	0.912080	0.044600
C151	C15	0.454000	0.953810	0.985520
C161	C16	0.545900	0.668440	0.133720
C171	C17	0.575900	0.621790	0.048700
C181	C18	0.480400	0.523680	0.042200
C191	C19	0.146600	0.120210	0.631870
C201	C20	0.195700	0.087920	0.544600
C211	C21	0.046000	0.046190	0.485520
C221	C22	0.954100	0.331560	0.633720
C231	C23	0.924100	0.378210	0.548700
C241	C24	0.019600	0.476320	0.542200
O11	O1	0.766400	0.150020	0.815300
O21	O2	0.489300	0.119070	0.847720
O31	O3	0.609100	0.330400	0.841800
O41	O4	0.327400	0.295590	0.821380
O51	O5	0.733600	0.849980	0.315300
O61	O6	0.010700	0.880930	0.347720
O71	O7	0.890900	0.669600	0.341800
O81	O8	0.172600	0.704410	0.321380
O91	O9	0.233600	0.849980	0.184700
O101	O10	0.510700	0.880930	0.152280
O111	O11	0.390900	0.669600	0.158200
O121	O12	0.672600	0.704410	0.178620
O131	O13	0.266400	0.150020	0.684700
O141	O14	0.989300	0.119070	0.652280
O151	O15	0.109100	0.330400	0.658200
O161	O16	0.827400	0.295590	0.678620
