data_PARKUQ01_clean_PM
_symmetry_space_group_name_H-M	'P1'
_cell_length_a	10.099000
_cell_length_b	14.363000
_cell_length_c	12.975000
_cell_angle_alpha	90.000000
_cell_angle_beta	105.690000
_cell_angle_gamma	90.000000
_symmetry_Int_Tables_number 1

loop_
_symmetry_equiv_pos_as_xyz
'x,y,z'

loop_
_atom_site_label
_atom_site_type_symbol
_atom_site_fract_x
_atom_site_fract_y
_atom_site_fract_z
O11	O1	0.303700	0.098680	0.431600
O21	O2	0.452700	0.441410	0.167600
O31	O3	0.600400	0.363180	0.096900
C11	C1	0.529900	0.374400	0.162600
O41	O4	0.781200	0.042770	0.442800
Cd11	Cd1	0.091200	0.066280	0.439470
O51	O5	0.895200	0.138010	0.362000
C21	C2	0.655200	0.242800	0.277100
C31	C3	0.544400	0.148000	0.380200
C41	C4	0.661200	0.169200	0.347200
C51	C5	0.422600	0.275100	0.277800
C61	C6	0.537200	0.296600	0.242600
C71	C7	0.425200	0.199300	0.344900
C81	C8	0.789800	0.111800	0.387000
C91	C9	0.296200	0.169700	0.374100
O61	O6	0.189000	0.213100	0.340900
H11	H1	0.344000	0.310000	0.255000
H21	H2	0.543000	0.093000	0.427000
H31	H3	0.730000	0.254000	0.253000
O71	O7	0.196300	0.598680	0.068400
O81	O8	0.047300	0.941410	0.332400
O91	O9	0.899600	0.863180	0.403100
C101	C10	0.970100	0.874400	0.337400
O101	O10	0.718800	0.542770	0.057200
Cd21	Cd2	0.408800	0.566280	0.060530
O111	O11	0.604800	0.638010	0.138000
C111	C11	0.844800	0.742800	0.222900
C121	C12	0.955600	0.648000	0.119800
C131	C13	0.838800	0.669200	0.152800
C141	C14	0.077400	0.775100	0.222200
C151	C15	0.962800	0.796600	0.257400
C161	C16	0.074800	0.699300	0.155100
C171	C17	0.710200	0.611800	0.113000
C181	C18	0.203800	0.669700	0.125900
O121	O12	0.311000	0.713100	0.159100
H41	H4	0.156000	0.810000	0.245000
H51	H5	0.957000	0.593000	0.073000
H61	H6	0.770000	0.754000	0.247000
O131	O13	0.696300	0.901320	0.568400
O141	O14	0.547300	0.558590	0.832400
O151	O15	0.399600	0.636820	0.903100
C191	C19	0.470100	0.625600	0.837400
O161	O16	0.218800	0.957230	0.557200
Cd31	Cd3	0.908800	0.933720	0.560530
O171	O17	0.104800	0.861990	0.638000
C201	C20	0.344800	0.757200	0.722900
C211	C21	0.455600	0.852000	0.619800
C221	C22	0.338800	0.830800	0.652800
C231	C23	0.577400	0.724900	0.722200
C241	C24	0.462800	0.703400	0.757400
C251	C25	0.574800	0.800700	0.655100
C261	C26	0.210200	0.888200	0.613000
C271	C27	0.703800	0.830300	0.625900
O181	O18	0.811000	0.786900	0.659100
H71	H7	0.656000	0.690000	0.745000
H81	H8	0.457000	0.907000	0.573000
H91	H9	0.270000	0.746000	0.747000
O191	O19	0.803700	0.401320	0.931600
O201	O20	0.952700	0.058590	0.667600
O211	O21	0.100400	0.136820	0.596900
C281	C28	0.029900	0.125600	0.662600
O221	O22	0.281200	0.457230	0.942800
Cd41	Cd4	0.591200	0.433720	0.939470
O231	O23	0.395200	0.361990	0.862000
C291	C29	0.155200	0.257200	0.777100
C301	C30	0.044400	0.352000	0.880200
C311	C31	0.161200	0.330800	0.847200
C321	C32	0.922600	0.224900	0.777800
C331	C33	0.037200	0.203400	0.742600
C341	C34	0.925200	0.300700	0.844900
C351	C35	0.289800	0.388200	0.887000
C361	C36	0.796200	0.330300	0.874100
O241	O24	0.689000	0.286900	0.840900
H101	H10	0.844000	0.190000	0.755000
H111	H11	0.043000	0.407000	0.927000
H121	H12	0.230000	0.246000	0.753000
