data_PARMIG_clean_PM
_symmetry_space_group_name_H-M	'P1'
_cell_length_a	8.386200
_cell_length_b	15.036300
_cell_length_c	15.036300
_cell_angle_alpha	90.000000
_cell_angle_beta	90.000000
_cell_angle_gamma	90.000000
_symmetry_Int_Tables_number 1

loop_
_symmetry_equiv_pos_as_xyz
'x,y,z'

loop_
_atom_site_label
_atom_site_type_symbol
_atom_site_fract_x
_atom_site_fract_y
_atom_site_fract_z
Ni11	Ni1	0.000000	0.255800	0.255800
Ni21	Ni2	0.500000	0.744200	0.744200
Ni31	Ni3	0.250000	0.244200	0.755800
Ni41	Ni4	0.750000	0.755800	0.244200
H11	H1	0.175400	0.274200	0.077100
H21	H2	0.068500	0.273800	0.931500
H31	H3	0.757000	0.258000	0.861000
H41	H4	0.437000	0.221000	0.051000
H51	H5	0.634000	0.231000	0.163000
H61	H6	0.675400	0.725800	0.922900
H71	H7	0.568500	0.726200	0.068500
H81	H8	0.257000	0.742000	0.139000
H91	H9	0.937000	0.779000	0.949000
H101	H10	0.134000	0.769000	0.837000
H111	H11	0.425400	0.422900	0.774200
H121	H12	0.318500	0.568500	0.773800
H131	H13	0.007000	0.639000	0.758000
H141	H14	0.687000	0.449000	0.721000
H151	H15	0.884000	0.337000	0.731000
H161	H16	0.925400	0.577100	0.225800
H171	H17	0.818500	0.431500	0.226200
H181	H18	0.507000	0.361000	0.242000
H191	H19	0.187000	0.551000	0.279000
H201	H20	0.384000	0.663000	0.269000
H211	H21	0.074600	0.225800	0.577100
H221	H22	0.181500	0.226200	0.431500
H231	H23	0.493000	0.242000	0.361000
H241	H24	0.813000	0.279000	0.551000
H251	H25	0.616000	0.269000	0.663000
H261	H26	0.574600	0.774200	0.422900
H271	H27	0.681500	0.773800	0.568500
H281	H28	0.993000	0.758000	0.639000
H291	H29	0.313000	0.721000	0.449000
H301	H30	0.116000	0.731000	0.337000
H311	H31	0.824600	0.077100	0.274200
H321	H32	0.931500	0.931500	0.273800
H331	H33	0.243000	0.861000	0.258000
H341	H34	0.563000	0.051000	0.221000
H351	H35	0.366000	0.163000	0.231000
H361	H36	0.324600	0.922900	0.725800
H371	H37	0.431500	0.068500	0.726200
H381	H38	0.743000	0.139000	0.742000
H391	H39	0.063000	0.949000	0.779000
H401	H40	0.866000	0.837000	0.769000
C11	C1	0.448100	0.241000	0.877700
C21	C2	0.579000	0.242200	0.944800
C31	C3	0.542500	0.233000	0.036000
C41	C4	0.657800	0.237300	0.101100
C51	C5	0.815700	0.251300	0.074200
C61	C6	0.849800	0.256800	0.983500
C71	C7	0.733900	0.253000	0.918200
C81	C8	0.067900	0.268600	0.062900
C91	C9	0.948100	0.759000	0.122300
C101	C10	0.079000	0.757800	0.055200
C111	C11	0.042500	0.767000	0.964000
C121	C12	0.157800	0.762700	0.898900
C131	C13	0.315700	0.748700	0.925800
C141	C14	0.349800	0.743200	0.016500
C151	C15	0.233900	0.747000	0.081800
C161	C16	0.567900	0.731400	0.937100
C171	C17	0.698100	0.622300	0.741000
C181	C18	0.829000	0.555200	0.742200
C191	C19	0.792500	0.464000	0.733000
C201	C20	0.907800	0.398900	0.737300
C211	C21	0.065700	0.425800	0.751300
C221	C22	0.099800	0.516500	0.756800
C231	C23	0.983900	0.581800	0.753000
C241	C24	0.317900	0.437100	0.768600
C251	C25	0.198100	0.377700	0.259000
C261	C26	0.329000	0.444800	0.257800
C271	C27	0.292500	0.536000	0.267000
C281	C28	0.407800	0.601100	0.262700
C291	C29	0.565700	0.574200	0.248700
C301	C30	0.599800	0.483500	0.243200
C311	C31	0.483900	0.418200	0.247000
C321	C32	0.817900	0.562900	0.231400
C331	C33	0.801900	0.259000	0.377700
C341	C34	0.671000	0.257800	0.444800
C351	C35	0.707500	0.267000	0.536000
C361	C36	0.592200	0.262700	0.601100
C371	C37	0.434300	0.248700	0.574200
C381	C38	0.400200	0.243200	0.483500
C391	C39	0.516100	0.247000	0.418200
C401	C40	0.182100	0.231400	0.562900
C411	C41	0.301900	0.741000	0.622300
C421	C42	0.171000	0.742200	0.555200
C431	C43	0.207500	0.733000	0.464000
C441	C44	0.092200	0.737300	0.398900
C451	C45	0.934300	0.751300	0.425800
C461	C46	0.900200	0.756800	0.516500
C471	C47	0.016100	0.753000	0.581800
C481	C48	0.682100	0.768600	0.437100
C491	C49	0.551900	0.877700	0.241000
C501	C50	0.421000	0.944800	0.242200
C511	C51	0.457500	0.036000	0.233000
C521	C52	0.342200	0.101100	0.237300
C531	C53	0.184300	0.074200	0.251300
C541	C54	0.150200	0.983500	0.256800
C551	C55	0.266100	0.918200	0.253000
C561	C56	0.932100	0.062900	0.268600
C571	C57	0.051900	0.122300	0.759000
C581	C58	0.921000	0.055200	0.757800
C591	C59	0.957500	0.964000	0.767000
C601	C60	0.842200	0.898900	0.762700
C611	C61	0.684300	0.925800	0.748700
C621	C62	0.650200	0.016500	0.743200
C631	C63	0.766100	0.081800	0.747000
C641	C64	0.432100	0.937100	0.731400
N11	N1	0.955400	0.260200	0.122520
N21	N2	0.012600	0.268100	0.979100
N31	N3	0.455400	0.739800	0.877480
N41	N4	0.512600	0.731900	0.020900
N51	N5	0.205400	0.377480	0.760200
N61	N6	0.262600	0.520900	0.768100
N71	N7	0.705400	0.622520	0.239800
N81	N8	0.762600	0.479100	0.231900
N91	N9	0.294600	0.239800	0.622520
N101	N10	0.237400	0.231900	0.479100
N111	N11	0.794600	0.760200	0.377480
N121	N12	0.737400	0.768100	0.520900
N131	N13	0.044600	0.122520	0.260200
N141	N14	0.987400	0.979100	0.268100
N151	N15	0.544600	0.877480	0.739800
N161	N16	0.487400	0.020900	0.731900
O11	O1	0.304800	0.239300	0.900340
O21	O2	0.484700	0.244950	0.795880
O31	O3	0.804800	0.760700	0.099660
O41	O4	0.984700	0.755050	0.204120
O51	O5	0.554800	0.599660	0.739300
O61	O6	0.734700	0.704120	0.744950
O71	O7	0.054800	0.400340	0.260700
O81	O8	0.234700	0.295880	0.255050
O91	O9	0.945200	0.260700	0.400340
O101	O10	0.765300	0.255050	0.295880
O111	O11	0.445200	0.739300	0.599660
O121	O12	0.265300	0.744950	0.704120
O131	O13	0.695200	0.900340	0.239300
O141	O14	0.515300	0.795880	0.244950
O151	O15	0.195200	0.099660	0.760700
O161	O16	0.015300	0.204120	0.755050
