data_PARNIH_clean_PM
_symmetry_space_group_name_H-M	'P1'
_cell_length_a	16.154400
_cell_length_b	16.154400
_cell_length_c	21.820000
_cell_angle_alpha	84.600600
_cell_angle_beta	84.600600
_cell_angle_gamma	60.482200
_symmetry_Int_Tables_number 1

loop_
_symmetry_equiv_pos_as_xyz
'x,y,z'

loop_
_atom_site_label
_atom_site_type_symbol
_atom_site_fract_x
_atom_site_fract_y
_atom_site_fract_z
Cu11	Cu1	0.494450	0.989770	0.813220
Cu21	Cu2	0.460420	0.441220	0.505120
Cu31	Cu3	0.510230	0.005550	0.686780
Cu41	Cu4	0.058780	0.039580	0.994880
Cu51	Cu5	0.505550	0.010230	0.186780
Cu61	Cu6	0.539580	0.558780	0.494880
Cu71	Cu7	0.489770	0.994450	0.313220
Cu81	Cu8	0.941220	0.960420	0.005120
H11	H1	0.734100	0.148100	0.866500
H21	H2	0.659500	0.214100	0.632800
H31	H3	0.804800	0.396600	0.788800
H41	H4	0.195200	0.036400	0.821500
H51	H5	0.038700	0.063100	0.814000
H61	H6	0.549900	0.708300	0.654600
H71	H7	0.595700	0.686700	0.839400
H81	H8	0.219100	0.084900	0.633800
H91	H9	0.916400	0.263200	0.850500
H101	H10	0.796700	0.093500	0.686900
H111	H11	0.061600	0.117800	0.625200
H121	H12	0.602700	0.541300	0.658600
H131	H13	0.788300	0.383100	0.605400
H141	H14	0.917400	0.269200	0.666400
H151	H15	0.651600	0.520200	0.841900
H161	H16	0.351900	0.765900	0.633500
H171	H17	0.285900	0.840500	0.867200
H181	H18	0.103400	0.695200	0.711200
H191	H19	0.463600	0.304800	0.678500
H201	H20	0.436900	0.461300	0.686000
H211	H21	0.791700	0.950100	0.845400
H221	H22	0.813300	0.904300	0.660600
H231	H23	0.415100	0.280900	0.866200
H241	H24	0.236800	0.583600	0.649500
H251	H25	0.406500	0.703300	0.813100
H261	H26	0.382200	0.438400	0.874800
H271	H27	0.958700	0.897300	0.841400
H281	H28	0.116900	0.711700	0.894600
H291	H29	0.230800	0.582600	0.833600
H301	H30	0.979800	0.848400	0.658100
H311	H31	0.265900	0.851900	0.133500
H321	H32	0.340500	0.785900	0.367200
H331	H33	0.195200	0.603400	0.211200
H341	H34	0.804800	0.963600	0.178500
H351	H35	0.961300	0.936900	0.186000
H361	H36	0.450100	0.291700	0.345400
H371	H37	0.404300	0.313300	0.160600
H381	H38	0.780900	0.915100	0.366200
H391	H39	0.083600	0.736800	0.149500
H401	H40	0.203300	0.906500	0.313100
H411	H41	0.938400	0.882200	0.374800
H421	H42	0.397300	0.458700	0.341400
H431	H43	0.211700	0.616900	0.394600
H441	H44	0.082600	0.730800	0.333600
H451	H45	0.348400	0.479800	0.158100
H461	H46	0.648100	0.234100	0.366500
H471	H47	0.714100	0.159500	0.132800
H481	H48	0.896600	0.304800	0.288800
H491	H49	0.536400	0.695200	0.321500
H501	H50	0.563100	0.538700	0.314000
H511	H51	0.208300	0.049900	0.154600
H521	H52	0.186700	0.095700	0.339400
H531	H53	0.584900	0.719100	0.133800
H541	H54	0.763200	0.416400	0.350500
H551	H55	0.593500	0.296700	0.186900
H561	H56	0.617800	0.561600	0.125200
H571	H57	0.041300	0.102700	0.158600
H581	H58	0.883100	0.288300	0.105400
H591	H59	0.769200	0.417400	0.166400
H601	H60	0.020200	0.151600	0.341900
C11	C1	0.575600	0.713800	0.747200
C21	C2	0.549000	0.818800	0.746500
C31	C3	0.222900	0.059700	0.727500
C41	C4	0.747000	0.198800	0.851100
C51	C5	0.628600	0.382600	0.573700
C61	C6	0.682400	0.276600	0.811200
C71	C7	0.712300	0.224100	0.637600
C81	C8	0.623200	0.518200	0.748600
C91	C9	0.830800	0.195800	0.868400
C101	C10	0.792200	0.345600	0.804200
C111	C11	0.706400	0.349000	0.789600
C121	C12	0.709800	0.311800	0.612600
C131	C13	0.167700	0.052700	0.781900
C141	C14	0.074700	0.068700	0.778000
C151	C15	0.571500	0.669900	0.692400
C161	C16	0.034400	0.094000	0.717200
C171	C17	0.599300	0.657300	0.802300
C181	C18	0.327600	0.040600	0.731100
C191	C19	0.182600	0.081600	0.670200
C201	C20	0.856700	0.269100	0.842100
C211	C21	0.793800	0.152800	0.670900
C221	C22	0.873800	0.169200	0.679000
C231	C23	0.898200	0.117200	0.914900
C241	C24	0.088900	0.100100	0.664900
C251	C25	0.600200	0.571200	0.695200
C261	C26	0.788800	0.325600	0.622800
C271	C27	0.868100	0.256100	0.657700
C281	C28	0.628400	0.559800	0.804700
C291	C29	0.786200	0.924400	0.752800
C301	C30	0.681200	0.951000	0.753500
C311	C31	0.440300	0.277100	0.772500
C321	C32	0.301200	0.753000	0.648900
C331	C33	0.117400	0.871400	0.926300
C341	C34	0.223400	0.817600	0.688800
C351	C35	0.275900	0.787700	0.862400
C361	C36	0.981800	0.876800	0.751400
C371	C37	0.304200	0.669200	0.631600
C381	C38	0.154400	0.707800	0.695800
C391	C39	0.151000	0.793600	0.710400
C401	C40	0.188200	0.790200	0.887400
C411	C41	0.447300	0.332300	0.718100
C421	C42	0.431300	0.425300	0.722000
C431	C43	0.830100	0.928500	0.807600
C441	C44	0.406000	0.465600	0.782800
C451	C45	0.842700	0.900700	0.697700
C461	C46	0.459400	0.172400	0.768900
C471	C47	0.418400	0.317400	0.829800
C481	C48	0.230900	0.643300	0.657900
C491	C49	0.347200	0.706200	0.829100
C501	C50	0.330800	0.626200	0.821000
C511	C51	0.382800	0.601800	0.585100
C521	C52	0.399900	0.411100	0.835100
C531	C53	0.928800	0.899800	0.804800
C541	C54	0.174400	0.711200	0.877200
C551	C55	0.243900	0.631900	0.842300
C561	C56	0.940200	0.871600	0.695300
C571	C57	0.424400	0.286200	0.252800
C581	C58	0.451000	0.181200	0.253500
C591	C59	0.777100	0.940300	0.272500
C601	C60	0.253000	0.801200	0.148900
C611	C61	0.371400	0.617400	0.426300
C621	C62	0.317600	0.723400	0.188800
C631	C63	0.287700	0.775900	0.362400
C641	C64	0.376800	0.481800	0.251400
C651	C65	0.169200	0.804200	0.131600
C661	C66	0.207800	0.654400	0.195800
C671	C67	0.293600	0.651000	0.210400
C681	C68	0.290200	0.688200	0.387400
C691	C69	0.832300	0.947300	0.218100
C701	C70	0.925300	0.931300	0.222000
C711	C71	0.428500	0.330100	0.307600
C721	C72	0.965600	0.906000	0.282800
C731	C73	0.400700	0.342700	0.197700
C741	C74	0.672400	0.959400	0.268900
C751	C75	0.817400	0.918400	0.329800
C761	C76	0.143300	0.730900	0.157900
C771	C77	0.206200	0.847200	0.329100
C781	C78	0.126200	0.830800	0.321000
C791	C79	0.101800	0.882800	0.085100
C801	C80	0.911100	0.899900	0.335100
C811	C81	0.399800	0.428800	0.304800
C821	C82	0.211200	0.674400	0.377200
C831	C83	0.131900	0.743900	0.342300
C841	C84	0.371600	0.440200	0.195300
C851	C85	0.213800	0.075600	0.247200
C861	C86	0.318800	0.049000	0.246500
C871	C87	0.559700	0.722900	0.227500
C881	C88	0.698800	0.247000	0.351100
C891	C89	0.882600	0.128600	0.073700
C901	C90	0.776600	0.182400	0.311200
C911	C91	0.724100	0.212300	0.137600
C921	C92	0.018200	0.123200	0.248600
C931	C93	0.695800	0.330800	0.368400
C941	C94	0.845600	0.292200	0.304200
C951	C95	0.849000	0.206400	0.289600
C961	C96	0.811800	0.209800	0.112600
C971	C97	0.552700	0.667700	0.281900
C981	C98	0.568700	0.574700	0.278000
C991	C99	0.169900	0.071500	0.192400
C1001	C100	0.594000	0.534400	0.217200
C1011	C101	0.157300	0.099300	0.302300
C1021	C102	0.540600	0.827600	0.231100
C1031	C103	0.581600	0.682600	0.170200
C1041	C104	0.769100	0.356700	0.342100
C1051	C105	0.652800	0.293800	0.170900
C1061	C106	0.669200	0.373800	0.179000
C1071	C107	0.617200	0.398200	0.414900
C1081	C108	0.600100	0.588900	0.164900
C1091	C109	0.071200	0.100200	0.195200
C1101	C110	0.825600	0.288800	0.122800
C1111	C111	0.756100	0.368100	0.157700
C1121	C112	0.059800	0.128400	0.304700
O11	O1	0.563000	0.361000	0.564800
O21	O2	0.630200	0.461400	0.555600
O31	O3	0.540800	0.852000	0.800100
O41	O4	0.533900	0.866900	0.693100
O51	O5	0.641300	0.423300	0.749400
O61	O6	0.872100	0.054100	0.935300
O71	O7	0.971800	0.121400	0.927100
O81	O8	0.361200	0.016600	0.788500
O91	O9	0.372500	0.048900	0.685500
O101	O10	0.942000	0.099000	0.715500
O111	O11	0.139000	0.937000	0.935200
O121	O12	0.038600	0.869800	0.944400
O131	O13	0.648000	0.959200	0.699900
O141	O14	0.633100	0.966100	0.806900
O151	O15	0.076700	0.858700	0.750600
O161	O16	0.445900	0.627900	0.564700
O171	O17	0.378600	0.528200	0.572900
O181	O18	0.483400	0.138800	0.711500
O191	O19	0.451100	0.127500	0.814500
O201	O20	0.401000	0.558000	0.784500
O211	O21	0.437000	0.639000	0.435200
O221	O22	0.369800	0.538600	0.444400
O231	O23	0.459200	0.148000	0.199900
O241	O24	0.466100	0.133100	0.306900
O251	O25	0.358700	0.576700	0.250600
O261	O26	0.127900	0.945900	0.064700
O271	O27	0.028200	0.878600	0.072900
O281	O28	0.638800	0.983400	0.211500
O291	O29	0.627500	0.951100	0.314500
O301	O30	0.058000	0.901000	0.284500
O311	O31	0.861000	0.063000	0.064800
O321	O32	0.961400	0.130200	0.055600
O331	O33	0.352000	0.040800	0.300100
O341	O34	0.366900	0.033900	0.193100
O351	O35	0.923300	0.141300	0.249400
O361	O36	0.554100	0.372100	0.435300
O371	O37	0.621400	0.471800	0.427100
O381	O38	0.516600	0.861200	0.288500
O391	O39	0.548900	0.872500	0.185500
O401	O40	0.599000	0.442000	0.215500
