data_PASKAX_clean_PM
_symmetry_space_group_name_H-M	'P1'
_cell_length_a	9.361000
_cell_length_b	12.713000
_cell_length_c	12.755000
_cell_angle_alpha	111.843000
_cell_angle_beta	105.938000
_cell_angle_gamma	97.104000
_symmetry_Int_Tables_number 1

loop_
_symmetry_equiv_pos_as_xyz
'x,y,z'

loop_
_atom_site_label
_atom_site_type_symbol
_atom_site_fract_x
_atom_site_fract_y
_atom_site_fract_z
Cd11	Cd1	0.014850	0.396690	0.577740
Cd21	Cd2	0.985150	0.603310	0.422260
H11	H1	0.625200	0.352600	0.447100
H21	H2	0.444000	0.176500	0.280200
H31	H3	0.864900	0.134900	0.339600
H41	H4	0.388100	0.956400	0.202600
H51	H5	0.290900	0.773200	0.040500
H61	H6	0.665200	0.829100	0.952900
H71	H7	0.759500	0.010900	0.114800
H81	H8	0.181900	0.657500	0.823800
H91	H9	0.595100	0.604800	0.853700
H101	H10	0.406700	0.439400	0.679200
H111	H11	0.064000	0.061100	0.633900
H121	H12	0.229400	0.141200	0.714100
H131	H13	0.417900	0.238600	0.688600
H141	H14	0.225200	0.853400	0.407100
H151	H15	0.675000	0.283600	0.706100
H161	H16	0.698400	0.671200	0.640300
H171	H17	0.849400	0.737800	0.637700
H181	H18	0.835200	0.902700	0.694100
H191	H19	0.915800	0.105500	0.786000
H201	H20	0.029000	0.204200	0.990300
H211	H21	0.374800	0.647400	0.552900
H221	H22	0.556000	0.823500	0.719800
H231	H23	0.135100	0.865100	0.660400
H241	H24	0.611900	0.043600	0.797400
H251	H25	0.709100	0.226800	0.959500
H261	H26	0.334800	0.170900	0.047100
H271	H27	0.240500	0.989100	0.885200
H281	H28	0.818100	0.342500	0.176200
H291	H29	0.404900	0.395200	0.146300
H301	H30	0.593300	0.560600	0.320800
H311	H31	0.936000	0.938900	0.366100
H321	H32	0.770600	0.858800	0.285900
H331	H33	0.582100	0.761400	0.311400
H341	H34	0.774800	0.146600	0.592900
H351	H35	0.325000	0.716400	0.293900
H361	H36	0.301600	0.328800	0.359700
H371	H37	0.150600	0.262200	0.362300
H381	H38	0.164800	0.097300	0.305900
H391	H39	0.084200	0.894500	0.214000
H401	H40	0.971000	0.795800	0.009700
C11	C1	0.650800	0.285200	0.404400
C21	C2	0.550000	0.189300	0.311400
C31	C3	0.782500	0.167800	0.346200
C41	C4	0.579100	0.001500	0.171700
C51	C5	0.442600	0.930600	0.151100
C61	C6	0.384300	0.821000	0.054700
C71	C7	0.469100	0.784100	0.979800
C81	C8	0.608700	0.855000	0.002800
C91	C9	0.665000	0.963600	0.099000
C101	C10	0.260700	0.623200	0.809200
C111	C11	0.489400	0.595600	0.826800
C121	C12	0.384700	0.504200	0.730600
C131	C13	0.106900	0.209200	0.607200
C141	C14	0.153300	0.108500	0.633700
C151	C15	0.367100	0.072900	0.568600
C161	C16	0.457800	0.181900	0.643600
C171	C17	0.421400	0.985500	0.493700
C181	C18	0.327600	0.872600	0.414000
C191	C19	0.612500	0.209100	0.653300
C201	C20	0.866800	0.583500	0.648900
C211	C21	0.809600	0.692400	0.674700
C221	C22	0.905000	0.881500	0.846300
C231	C23	0.882300	0.942200	0.777300
C241	C24	0.930500	0.063700	0.832800
C251	C25	0.999000	0.122800	0.954900
C261	C26	0.975100	0.938200	0.972200
C271	C27	0.349200	0.714800	0.595600
C281	C28	0.450000	0.810700	0.688600
C291	C29	0.217500	0.832200	0.653800
C301	C30	0.420900	0.998500	0.828300
C311	C31	0.557400	0.069400	0.848900
C321	C32	0.615700	0.179000	0.945300
C331	C33	0.530900	0.215900	0.020200
C341	C34	0.391300	0.145000	0.997200
C351	C35	0.335000	0.036400	0.901000
C361	C36	0.739300	0.376800	0.190800
C371	C37	0.510600	0.404400	0.173200
C381	C38	0.615300	0.495800	0.269400
C391	C39	0.893100	0.790800	0.392800
C401	C40	0.846700	0.891500	0.366300
C411	C41	0.632900	0.927100	0.431400
C421	C42	0.542200	0.818100	0.356400
C431	C43	0.578600	0.014500	0.506300
C441	C44	0.672400	0.127400	0.586000
C451	C45	0.387500	0.790900	0.346700
C461	C46	0.133200	0.416500	0.351100
C471	C47	0.190400	0.307600	0.325300
C481	C48	0.095000	0.118500	0.153700
C491	C49	0.117700	0.057800	0.222700
C501	C50	0.069500	0.936300	0.167200
C511	C51	0.001000	0.877200	0.045100
C521	C52	0.024900	0.061800	0.027800
N11	N1	0.795700	0.269700	0.427200
N21	N2	0.637400	0.114300	0.272400
N31	N3	0.410600	0.672800	0.877800
N41	N4	0.238300	0.521700	0.720000
N51	N5	0.204300	0.730300	0.572800
N61	N6	0.362600	0.885700	0.727600
N71	N7	0.589400	0.327200	0.122200
N81	N8	0.761700	0.478300	0.280000
O11	O1	0.122900	0.222000	0.519500
O21	O2	0.051000	0.274400	0.677600
O31	O3	0.895700	0.545400	0.553800
O41	O4	0.887300	0.534800	0.717000
O51	O5	0.857600	0.761200	0.801400
O61	O6	0.213700	0.034600	0.553000
O71	O7	0.877100	0.778000	0.480500
O81	O8	0.949000	0.725600	0.322400
O91	O9	0.104300	0.454600	0.446200
O101	O10	0.112700	0.465200	0.283000
O111	O11	0.142400	0.238800	0.198600
O121	O12	0.786300	0.965400	0.447000
