data_PASNEE_clean_PM
_symmetry_space_group_name_H-M	'P1'
_cell_length_a	8.386300
_cell_length_b	9.521900
_cell_length_c	27.087600
_cell_angle_alpha	83.105100
_cell_angle_beta	81.094800
_cell_angle_gamma	63.872500
_symmetry_Int_Tables_number 1

loop_
_symmetry_equiv_pos_as_xyz
'x,y,z'

loop_
_atom_site_label
_atom_site_type_symbol
_atom_site_fract_x
_atom_site_fract_y
_atom_site_fract_z
Cu11	Cu1	0.452760	0.710660	0.418220
Cu21	Cu2	0.105870	0.135510	0.224430
Cu31	Cu3	0.581640	0.789340	0.081780
Cu41	Cu4	0.465810	0.364490	0.275570
Cu51	Cu5	0.547240	0.289340	0.581780
Cu61	Cu6	0.894130	0.864490	0.775570
Cu71	Cu7	0.418360	0.210660	0.918220
Cu81	Cu8	0.534190	0.635510	0.724430
Cu91	Cu9	0.761990	0.750000	0.250000
Cu101	Cu10	0.238010	0.250000	0.750000
H11	H1	0.968400	0.404600	0.382200
H21	H2	0.743200	0.441500	0.442300
H31	H3	0.979500	0.215000	0.450800
H41	H4	0.057100	0.982000	0.422400
H51	H5	0.152600	0.139500	0.372900
H61	H6	0.036200	0.302700	0.308500
H71	H7	0.799200	0.934800	0.450000
H81	H8	0.755200	0.095400	0.117800
H91	H9	0.627000	0.058500	0.057700
H101	H10	0.645300	0.285000	0.049200
H111	H11	0.461500	0.518000	0.077600
H121	H12	0.665000	0.360500	0.127100
H131	H13	0.647400	0.197300	0.191500
H141	H14	0.184000	0.565200	0.050000
H151	H15	0.031600	0.595400	0.617800
H161	H16	0.256800	0.558500	0.557700
H171	H17	0.020500	0.785000	0.549200
H181	H18	0.942900	0.018000	0.577600
H191	H19	0.847400	0.860500	0.627100
H201	H20	0.963800	0.697300	0.691500
H211	H21	0.200800	0.065200	0.550000
H221	H22	0.244800	0.904600	0.882200
H231	H23	0.373000	0.941500	0.942300
H241	H24	0.354700	0.715000	0.950800
H251	H25	0.538500	0.482000	0.922400
H261	H26	0.335000	0.639500	0.872900
H271	H27	0.352600	0.802700	0.808500
H281	H28	0.816000	0.434800	0.950000
C11	C1	0.865600	0.401910	0.370090
C21	C2	0.760140	0.365390	0.418330
C31	C3	0.878300	0.202830	0.441370
C41	C4	0.965000	0.068680	0.404920
C51	C5	0.065920	0.117130	0.358830
C61	C6	0.951100	0.274320	0.331480
C71	C7	0.774110	0.562460	0.344120
C81	C8	0.573890	0.380070	0.413550
C91	C9	0.786980	0.164450	0.490790
C101	C10	0.852170	0.999620	0.388040
C111	C11	0.181860	0.976890	0.327190
C121	C12	0.814730	0.277870	0.299070
C131	C13	0.637600	0.098090	0.129910
C141	C14	0.543860	0.134610	0.081670
C151	C15	0.522500	0.297170	0.058630
C161	C16	0.438600	0.431320	0.095080
C171	C17	0.541880	0.382870	0.141170
C181	C18	0.556900	0.225680	0.168520
C191	C19	0.680690	0.937540	0.155880
C201	C20	0.367510	0.119930	0.086450
C211	C21	0.442220	0.335550	0.009210
C221	C22	0.239830	0.500380	0.111960
C231	C23	0.485940	0.523110	0.172810
C241	C24	0.391670	0.222130	0.200930
C251	C25	0.134400	0.598090	0.629910
C261	C26	0.239860	0.634610	0.581670
C271	C27	0.121700	0.797170	0.558630
C281	C28	0.035000	0.931320	0.595080
C291	C29	0.934080	0.882870	0.641170
C301	C30	0.048900	0.725680	0.668520
C311	C31	0.225890	0.437540	0.655880
C321	C32	0.426110	0.619930	0.586450
C331	C33	0.213020	0.835550	0.509210
C341	C34	0.147830	0.000380	0.611960
C351	C35	0.818140	0.023110	0.672810
C361	C36	0.185270	0.722130	0.700930
C371	C37	0.362400	0.901910	0.870090
C381	C38	0.456140	0.865390	0.918330
C391	C39	0.477500	0.702830	0.941370
C401	C40	0.561400	0.568680	0.904920
C411	C41	0.458120	0.617130	0.858830
C421	C42	0.443100	0.774320	0.831480
C431	C43	0.319310	0.062460	0.844120
C441	C44	0.632490	0.880070	0.913550
C451	C45	0.557780	0.664450	0.990790
C461	C46	0.760170	0.499620	0.888040
C471	C47	0.514060	0.476890	0.827190
C481	C48	0.608330	0.777870	0.799070
O11	O1	0.839610	0.577980	0.300600
O21	O2	0.650150	0.675730	0.366970
O31	O3	0.445000	0.516790	0.410610
O41	O4	0.550890	0.259130	0.415890
O51	O5	0.714260	0.272590	0.520890
O61	O6	0.793440	0.029480	0.500840
O71	O7	0.788450	0.918780	0.421920
O81	O8	0.836860	0.001570	0.344310
O91	O9	0.251110	0.846350	0.349830
O101	O10	0.218440	0.996830	0.280090
O111	O11	0.866550	0.207290	0.259010
O121	O12	0.652620	0.360300	0.312460
O131	O13	0.718190	0.922020	0.199400
O141	O14	0.692850	0.824270	0.133030
O151	O15	0.372400	0.983210	0.089390
O161	O16	0.225910	0.240870	0.084110
O171	O17	0.507740	0.227410	0.979110
O181	O18	0.323760	0.470520	0.999160
O191	O19	0.129150	0.581220	0.078080
O201	O20	0.182740	0.498430	0.155690
O211	O21	0.447290	0.653650	0.150170
O221	O22	0.495360	0.503170	0.219910
O231	O23	0.332850	0.292710	0.240990
O241	O24	0.325380	0.139700	0.187540
O251	O25	0.160390	0.422020	0.699400
O261	O26	0.349850	0.324270	0.633030
O271	O27	0.555000	0.483210	0.589390
O281	O28	0.449110	0.740870	0.584110
O291	O29	0.285740	0.727410	0.479110
O301	O30	0.206560	0.970520	0.499160
O311	O31	0.211550	0.081220	0.578080
O321	O32	0.163140	0.998430	0.655690
O331	O33	0.748890	0.153650	0.650170
O341	O34	0.781560	0.003170	0.719910
O351	O35	0.133450	0.792710	0.740990
O361	O36	0.347380	0.639700	0.687540
O371	O37	0.281810	0.077980	0.800600
O381	O38	0.307150	0.175730	0.866970
O391	O39	0.627600	0.016790	0.910610
O401	O40	0.774090	0.759130	0.915890
O411	O41	0.492260	0.772590	0.020890
O421	O42	0.676240	0.529480	0.000840
O431	O43	0.870850	0.418780	0.921920
O441	O44	0.817260	0.501570	0.844310
O451	O45	0.552710	0.346350	0.849830
O461	O46	0.504640	0.496830	0.780090
O471	O47	0.667150	0.707290	0.759010
O481	O48	0.674620	0.860300	0.812460
