data_PASTOU_clean_PM
_symmetry_space_group_name_H-M	'P1'
_cell_length_a	13.901700
_cell_length_b	13.901700
_cell_length_c	13.901700
_cell_angle_alpha	108.017000
_cell_angle_beta	108.017000
_cell_angle_gamma	108.017000
_symmetry_Int_Tables_number 1

loop_
_symmetry_equiv_pos_as_xyz
'x,y,z'

loop_
_atom_site_label
_atom_site_type_symbol
_atom_site_fract_x
_atom_site_fract_y
_atom_site_fract_z
Cd11	Cd1	0.964750	0.478130	0.616120
Cd21	Cd2	0.616120	0.964750	0.478130
Cd31	Cd3	0.478130	0.616120	0.964750
Cd41	Cd4	0.035250	0.521870	0.383880
Cd51	Cd5	0.383880	0.035250	0.521870
Cd61	Cd6	0.521870	0.383880	0.035250
H11	H1	0.711400	0.469300	0.414200
H21	H2	0.574000	0.143600	0.259600
H31	H3	0.725200	0.108200	0.385000
H41	H4	0.842800	0.203500	0.417800
H51	H5	0.023100	0.455600	0.869200
H61	H6	0.005100	0.398800	0.004900
H71	H7	0.877000	0.219000	0.954000
H81	H8	0.760200	0.091300	0.766800
H91	H9	0.414200	0.711400	0.469300
H101	H10	0.259600	0.574000	0.143600
H111	H11	0.385000	0.725200	0.108200
H121	H12	0.417800	0.842800	0.203500
H131	H13	0.869200	0.023100	0.455600
H141	H14	0.004900	0.005100	0.398800
H151	H15	0.954000	0.877000	0.219000
H161	H16	0.766800	0.760200	0.091300
H171	H17	0.469300	0.414200	0.711400
H181	H18	0.143600	0.259600	0.574000
H191	H19	0.108200	0.385000	0.725200
H201	H20	0.203500	0.417800	0.842800
H211	H21	0.455600	0.869200	0.023100
H221	H22	0.398800	0.004900	0.005100
H231	H23	0.219000	0.954000	0.877000
H241	H24	0.091300	0.766800	0.760200
H251	H25	0.288600	0.530700	0.585800
H261	H26	0.426000	0.856400	0.740400
H271	H27	0.274800	0.891800	0.615000
H281	H28	0.157200	0.796500	0.582200
H291	H29	0.976900	0.544400	0.130800
H301	H30	0.994900	0.601200	0.995100
H311	H31	0.123000	0.781000	0.046000
H321	H32	0.239800	0.908700	0.233200
H331	H33	0.585800	0.288600	0.530700
H341	H34	0.740400	0.426000	0.856400
H351	H35	0.615000	0.274800	0.891800
H361	H36	0.582200	0.157200	0.796500
H371	H37	0.130800	0.976900	0.544400
H381	H38	0.995100	0.994900	0.601200
H391	H39	0.046000	0.123000	0.781000
H401	H40	0.233200	0.239800	0.908700
H411	H41	0.530700	0.585800	0.288600
H421	H42	0.856400	0.740400	0.426000
H431	H43	0.891800	0.615000	0.274800
H441	H44	0.796500	0.582200	0.157200
H451	H45	0.544400	0.130800	0.976900
H461	H46	0.601200	0.995100	0.994900
H471	H47	0.781000	0.046000	0.123000
H481	H48	0.908700	0.233200	0.239800
C11	C1	0.699300	0.395000	0.395300
C21	C2	0.623300	0.218900	0.310500
C31	C3	0.776500	0.188200	0.431300
C41	C4	0.811400	0.215400	0.553700
C51	C5	0.900700	0.305700	0.735000
C61	C6	0.970700	0.383100	0.848600
C71	C7	0.959700	0.348600	0.928600
C81	C8	0.881900	0.240100	0.897700
C91	C9	0.812500	0.163600	0.786800
C101	C10	0.822800	0.197400	0.705200
C111	C11	0.395300	0.699300	0.395000
C121	C12	0.310500	0.623300	0.218900
C131	C13	0.431300	0.776500	0.188200
C141	C14	0.553700	0.811400	0.215400
C151	C15	0.735000	0.900700	0.305700
C161	C16	0.848600	0.970700	0.383100
C171	C17	0.928600	0.959700	0.348600
C181	C18	0.897700	0.881900	0.240100
C191	C19	0.786800	0.812500	0.163600
C201	C20	0.705200	0.822800	0.197400
C211	C21	0.395000	0.395300	0.699300
C221	C22	0.218900	0.310500	0.623300
C231	C23	0.188200	0.431300	0.776500
C241	C24	0.215400	0.553700	0.811400
C251	C25	0.305700	0.735000	0.900700
C261	C26	0.383100	0.848600	0.970700
C271	C27	0.348600	0.928600	0.959700
C281	C28	0.240100	0.897700	0.881900
C291	C29	0.163600	0.786800	0.812500
C301	C30	0.197400	0.705200	0.822800
C311	C31	0.300700	0.605000	0.604700
C321	C32	0.376700	0.781100	0.689500
C331	C33	0.223500	0.811800	0.568700
C341	C34	0.188600	0.784600	0.446300
C351	C35	0.099300	0.694300	0.265000
C361	C36	0.029300	0.616900	0.151400
C371	C37	0.040300	0.651400	0.071400
C381	C38	0.118100	0.759900	0.102300
C391	C39	0.187500	0.836400	0.213200
C401	C40	0.177200	0.802600	0.294800
C411	C41	0.604700	0.300700	0.605000
C421	C42	0.689500	0.376700	0.781100
C431	C43	0.568700	0.223500	0.811800
C441	C44	0.446300	0.188600	0.784600
C451	C45	0.265000	0.099300	0.694300
C461	C46	0.151400	0.029300	0.616900
C471	C47	0.071400	0.040300	0.651400
C481	C48	0.102300	0.118100	0.759900
C491	C49	0.213200	0.187500	0.836400
C501	C50	0.294800	0.177200	0.802600
C511	C51	0.605000	0.604700	0.300700
C521	C52	0.781100	0.689500	0.376700
C531	C53	0.811800	0.568700	0.223500
C541	C54	0.784600	0.446300	0.188600
C551	C55	0.694300	0.265000	0.099300
C561	C56	0.616900	0.151400	0.029300
C571	C57	0.651400	0.071400	0.040300
C581	C58	0.759900	0.102300	0.118100
C591	C59	0.836400	0.213200	0.187500
C601	C60	0.802600	0.294800	0.177200
N11	N1	0.605600	0.306700	0.306400
N21	N2	0.772800	0.369000	0.453700
N31	N3	0.721000	0.254000	0.397300
N41	N4	0.892900	0.316800	0.637200
N51	N5	0.765100	0.139500	0.586800
N61	N6	0.306400	0.605600	0.306700
N71	N7	0.453700	0.772800	0.369000
N81	N8	0.397300	0.721000	0.254000
N91	N9	0.637200	0.892900	0.316800
N101	N10	0.586800	0.765100	0.139500
N111	N11	0.306700	0.306400	0.605600
N121	N12	0.369000	0.453700	0.772800
N131	N13	0.254000	0.397300	0.721000
N141	N14	0.316800	0.637200	0.892900
N151	N15	0.139500	0.586800	0.765100
N161	N16	0.394400	0.693300	0.693600
N171	N17	0.227200	0.631000	0.546300
N181	N18	0.279000	0.746000	0.602700
N191	N19	0.107100	0.683200	0.362800
N201	N20	0.234900	0.860500	0.413200
N211	N21	0.693600	0.394400	0.693300
N221	N22	0.546300	0.227200	0.631000
N231	N23	0.602700	0.279000	0.746000
N241	N24	0.362800	0.107100	0.683200
N251	N25	0.413200	0.234900	0.860500
N261	N26	0.693300	0.693600	0.394400
N271	N27	0.631000	0.546300	0.227200
N281	N28	0.746000	0.602700	0.279000
N291	N29	0.683200	0.362800	0.107100
N301	N30	0.860500	0.413200	0.234900
Cl11	Cl1	0.964150	0.618490	0.525380
Cl21	Cl2	0.525380	0.964150	0.618490
Cl31	Cl3	0.618490	0.525380	0.964150
Cl41	Cl4	0.035850	0.381510	0.474620
Cl51	Cl5	0.474620	0.035850	0.381510
Cl61	Cl6	0.381510	0.474620	0.035850
