data_PATNAB_clean_PM
_symmetry_space_group_name_H-M	'P1'
_cell_length_a	9.939000
_cell_length_b	14.021000
_cell_length_c	20.341000
_cell_angle_alpha	90.000000
_cell_angle_beta	107.325000
_cell_angle_gamma	90.000000
_symmetry_Int_Tables_number 1

loop_
_symmetry_equiv_pos_as_xyz
'x,y,z'

loop_
_atom_site_label
_atom_site_type_symbol
_atom_site_fract_x
_atom_site_fract_y
_atom_site_fract_z
Ag11	Ag1	0.328290	0.154190	0.718230
Ag21	Ag2	0.842940	0.972240	0.452410
Ag31	Ag3	0.700600	0.870440	0.635150
S11	S1	0.776800	0.982470	0.559170
N11	N1	0.086700	0.132900	0.668300
C11	C1	0.562100	0.412900	0.811200
N21	N2	0.030200	0.070400	0.615900
N31	N3	0.469000	0.280600	0.765100
N41	N4	0.872800	0.116400	0.662400
N51	N5	0.454600	0.354400	0.807100
N61	N6	0.638000	0.374800	0.773200
N71	N7	0.992700	0.161000	0.695500
C21	C2	0.746000	0.133700	0.681900
H11	H1	0.766200	0.178200	0.719400
H21	H2	0.713600	0.074800	0.695900
H31	H3	0.674300	0.159500	0.643300
C31	C3	0.767800	0.408200	0.761300
H41	H4	0.795300	0.467800	0.784600
H51	H5	0.752400	0.416800	0.712800
H61	H6	0.841000	0.362000	0.778600
C41	C4	0.897300	0.058800	0.613400
N81	N8	0.578500	0.291700	0.745200
S21	S2	0.590700	0.520890	0.853900
Ag41	Ag4	0.671710	0.654190	0.781770
Ag51	Ag5	0.157060	0.472240	0.047590
Ag61	Ag6	0.299400	0.370440	0.864850
S31	S3	0.223200	0.482470	0.940830
N91	N9	0.913300	0.632900	0.831700
C51	C5	0.437900	0.912900	0.688800
N101	N10	0.969800	0.570400	0.884100
N111	N11	0.531000	0.780600	0.734900
N121	N12	0.127200	0.616400	0.837600
N131	N13	0.545400	0.854400	0.692900
N141	N14	0.362000	0.874800	0.726800
N151	N15	0.007300	0.661000	0.804500
C61	C6	0.254000	0.633700	0.818100
H71	H7	0.233800	0.678200	0.780600
H81	H8	0.286400	0.574800	0.804100
H91	H9	0.325700	0.659500	0.856700
C71	C7	0.232200	0.908200	0.738700
H101	H10	0.204700	0.967800	0.715400
H111	H11	0.247600	0.916800	0.787200
H121	H12	0.159000	0.862000	0.721400
C81	C8	0.102700	0.558800	0.886600
N161	N16	0.421500	0.791700	0.754800
S41	S4	0.409300	0.020890	0.646100
Ag71	Ag7	0.671710	0.845810	0.281770
Ag81	Ag8	0.157060	0.027760	0.547590
Ag91	Ag9	0.299400	0.129560	0.364850
S51	S5	0.223200	0.017530	0.440830
N171	N17	0.913300	0.867100	0.331700
C91	C9	0.437900	0.587100	0.188800
N181	N18	0.969800	0.929600	0.384100
N191	N19	0.531000	0.719400	0.234900
N201	N20	0.127200	0.883600	0.337600
N211	N21	0.545400	0.645600	0.192900
N221	N22	0.362000	0.625200	0.226800
N231	N23	0.007300	0.839000	0.304500
C101	C10	0.254000	0.866300	0.318100
H131	H13	0.233800	0.821800	0.280600
H141	H14	0.286400	0.925200	0.304100
H151	H15	0.325700	0.840500	0.356700
C111	C11	0.232200	0.591800	0.238700
H161	H16	0.204700	0.532200	0.215400
H171	H17	0.247600	0.583200	0.287200
H181	H18	0.159000	0.638000	0.221400
C121	C12	0.102700	0.941200	0.386600
N241	N24	0.421500	0.708300	0.254800
S61	S6	0.409300	0.479110	0.146100
Ag101	Ag10	0.328290	0.345810	0.218230
Ag111	Ag11	0.842940	0.527760	0.952410
Ag121	Ag12	0.700600	0.629560	0.135150
S71	S7	0.776800	0.517530	0.059170
N251	N25	0.086700	0.367100	0.168300
C131	C13	0.562100	0.087100	0.311200
N261	N26	0.030200	0.429600	0.115900
N271	N27	0.469000	0.219400	0.265100
N281	N28	0.872800	0.383600	0.162400
N291	N29	0.454600	0.145600	0.307100
N301	N30	0.638000	0.125200	0.273200
N311	N31	0.992700	0.339000	0.195500
C141	C14	0.746000	0.366300	0.181900
H191	H19	0.766200	0.321800	0.219400
H201	H20	0.713600	0.425200	0.195900
H211	H21	0.674300	0.340500	0.143300
C151	C15	0.767800	0.091800	0.261300
H221	H22	0.795300	0.032200	0.284600
H231	H23	0.752400	0.083200	0.212800
H241	H24	0.841000	0.138000	0.278600
C161	C16	0.897300	0.441200	0.113400
N321	N32	0.578500	0.208300	0.245200
S81	S8	0.590700	0.979110	0.353900
