data_PECBOQ_clean_PM
_symmetry_space_group_name_H-M	'P1'
_cell_length_a	19.113000
_cell_length_b	18.617000
_cell_length_c	15.959000
_cell_angle_alpha	90.000000
_cell_angle_beta	90.000000
_cell_angle_gamma	90.000000
_symmetry_Int_Tables_number 1

loop_
_symmetry_equiv_pos_as_xyz
'x,y,z'

loop_
_atom_site_label
_atom_site_type_symbol
_atom_site_fract_x
_atom_site_fract_y
_atom_site_fract_z
Mo11	Mo1	0.420390	0.909740	0.140830
Mo21	Mo2	0.469920	0.839380	0.322440
Mo31	Mo3	0.491300	0.836910	0.943740
Cu11	Cu1	0.557730	0.021300	0.218960
O11	O1	0.488800	0.970800	0.149400
O21	O2	0.409000	0.898000	0.259700
O31	O3	0.450300	0.880000	0.863000
O41	O4	0.498100	0.817800	0.179600
O51	O5	0.440200	0.876800	0.032800
O61	O6	0.852700	0.684300	0.356300
N11	N1	0.640400	0.985700	0.159400
N21	N2	0.489200	0.054500	0.300500
N31	N3	0.627900	0.046200	0.310700
C11	C1	0.647000	0.975100	0.077300
H11	H1	0.608000	0.983200	0.041600
C21	C2	0.695600	0.977600	0.210400
C31	C3	0.761200	0.957000	0.179600
H21	H2	0.800500	0.952300	0.215700
C41	C4	0.683200	0.989600	0.302000
H31	H3	0.726900	0.005500	0.329600
H41	H4	0.667600	0.944400	0.328900
C51	C5	0.660200	0.118200	0.298900
H51	H5	0.698400	0.123400	0.340400
H61	H6	0.681700	0.119600	0.242600
C61	C6	0.613200	0.181100	0.307100
H71	H7	0.594300	0.183800	0.364800
H81	H8	0.573400	0.176600	0.267700
C71	C7	0.422600	0.071800	0.284400
H91	H9	0.406600	0.070500	0.228000
C81	C8	0.377100	0.091200	0.345800
H101	H10	0.329300	0.100500	0.333300
C91	C9	0.766500	0.943800	0.094600
H111	H11	0.809900	0.928500	0.071800
C101	C10	0.710000	0.952500	0.043000
H121	H12	0.713800	0.943200	0.984600
C111	C11	0.514300	0.060200	0.379100
C121	C12	0.589600	0.042300	0.391300
H131	H13	0.610700	0.076300	0.431700
H141	H14	0.593800	0.993300	0.414800
C131	C13	0.471400	0.081300	0.443100
H151	H15	0.489500	0.085100	0.498300
C141	C14	0.402300	0.097100	0.428300
H161	H16	0.372300	0.111600	0.472600
C151	C15	0.743500	0.783600	0.184900
C161	C16	0.658700	0.797000	0.174000
Mo41	Mo4	0.079610	0.090260	0.640830
Mo51	Mo5	0.030080	0.160620	0.822440
Mo61	Mo6	0.008700	0.163090	0.443740
Cu21	Cu2	0.942270	0.978700	0.718960
O71	O7	0.011200	0.029200	0.649400
O81	O8	0.091000	0.102000	0.759700
O91	O9	0.049700	0.120000	0.363000
O101	O10	0.001900	0.182200	0.679600
O111	O11	0.059800	0.123200	0.532800
O121	O12	0.647300	0.315700	0.856300
N41	N4	0.859600	0.014300	0.659400
N51	N5	0.010800	0.945500	0.800500
N61	N6	0.872100	0.953800	0.810700
C171	C17	0.853000	0.024900	0.577300
H171	H17	0.892000	0.016800	0.541600
C181	C18	0.804400	0.022400	0.710400
C191	C19	0.738800	0.043000	0.679600
H181	H18	0.699500	0.047700	0.715700
C201	C20	0.816800	0.010400	0.802000
H191	H19	0.773100	0.994500	0.829600
H201	H20	0.832400	0.055600	0.828900
C211	C21	0.839800	0.881800	0.798900
H211	H21	0.801600	0.876600	0.840400
H221	H22	0.818300	0.880400	0.742600
C221	C22	0.886800	0.818900	0.807100
H231	H23	0.905700	0.816200	0.864800
H241	H24	0.926600	0.823400	0.767700
C231	C23	0.077400	0.928200	0.784400
H251	H25	0.093400	0.929500	0.728000
C241	C24	0.122900	0.908800	0.845800
H261	H26	0.170700	0.899500	0.833300
C251	C25	0.733500	0.056200	0.594600
H271	H27	0.690100	0.071500	0.571800
C261	C26	0.790000	0.047500	0.543000
H281	H28	0.786200	0.056800	0.484600
C271	C27	0.985700	0.939800	0.879100
C281	C28	0.910400	0.957700	0.891300
H291	H29	0.889300	0.923700	0.931700
H301	H30	0.906200	0.006700	0.914800
C291	C29	0.028600	0.918700	0.943100
H311	H31	0.010500	0.914900	0.998300
C301	C30	0.097700	0.902900	0.928300
H321	H32	0.127700	0.888400	0.972600
C311	C31	0.756500	0.216400	0.684900
C321	C32	0.841300	0.203000	0.674000
Mo71	Mo7	0.579610	0.409740	0.859170
Mo81	Mo8	0.530080	0.339380	0.677560
Mo91	Mo9	0.508700	0.336910	0.056260
Cu31	Cu3	0.442270	0.521300	0.781040
O131	O13	0.511200	0.470800	0.850600
O141	O14	0.591000	0.398000	0.740300
O151	O15	0.549700	0.380000	0.137000
O161	O16	0.501900	0.317800	0.820400
O171	O17	0.559800	0.376800	0.967200
O181	O18	0.147300	0.184300	0.643700
N71	N7	0.359600	0.485700	0.840600
N81	N8	0.510800	0.554500	0.699500
N91	N9	0.372100	0.546200	0.689300
C331	C33	0.353000	0.475100	0.922700
H331	H33	0.392000	0.483200	0.958400
C341	C34	0.304400	0.477600	0.789600
C351	C35	0.238800	0.457000	0.820400
H341	H34	0.199500	0.452300	0.784300
C361	C36	0.316800	0.489600	0.698000
H351	H35	0.273100	0.505500	0.670400
H361	H36	0.332400	0.444400	0.671100
C371	C37	0.339800	0.618200	0.701100
H371	H37	0.301600	0.623400	0.659600
H381	H38	0.318300	0.619600	0.757400
C381	C38	0.386800	0.681100	0.692900
H391	H39	0.405700	0.683800	0.635200
H401	H40	0.426600	0.676600	0.732300
C391	C39	0.577400	0.571800	0.715600
H411	H41	0.593400	0.570500	0.772000
C401	C40	0.622900	0.591200	0.654200
H421	H42	0.670700	0.600500	0.666700
C411	C41	0.233500	0.443800	0.905400
H431	H43	0.190100	0.428500	0.928200
C421	C42	0.290000	0.452500	0.957000
H441	H44	0.286200	0.443200	0.015400
C431	C43	0.485700	0.560200	0.620900
C441	C44	0.410400	0.542300	0.608700
H451	H45	0.389300	0.576300	0.568300
H461	H46	0.406200	0.493300	0.585200
C451	C45	0.528600	0.581300	0.556900
H471	H47	0.510500	0.585100	0.501700
C461	C46	0.597700	0.597100	0.571700
H481	H48	0.627700	0.611600	0.527400
C471	C47	0.256500	0.283600	0.815100
C481	C48	0.341300	0.297000	0.826000
Mo101	Mo10	0.920390	0.590260	0.359170
Mo111	Mo11	0.969920	0.660620	0.177560
Mo121	Mo12	0.991300	0.663090	0.556260
Cu41	Cu4	0.057730	0.478700	0.281040
O191	O19	0.988800	0.529200	0.350600
O201	O20	0.909000	0.602000	0.240300
O211	O21	0.950300	0.620000	0.637000
O221	O22	0.998100	0.682200	0.320400
O231	O23	0.940200	0.623200	0.467200
O241	O24	0.352700	0.815700	0.143700
N101	N10	0.140400	0.514300	0.340600
N111	N11	0.989200	0.445500	0.199500
N121	N12	0.127900	0.453800	0.189300
C491	C49	0.147000	0.524900	0.422700
H491	H49	0.108000	0.516800	0.458400
C501	C50	0.195600	0.522400	0.289600
C511	C51	0.261200	0.543000	0.320400
H501	H50	0.300500	0.547700	0.284300
C521	C52	0.183200	0.510400	0.198000
H511	H51	0.226900	0.494500	0.170400
H521	H52	0.167600	0.555600	0.171100
C531	C53	0.160200	0.381800	0.201100
H531	H53	0.198400	0.376600	0.159600
H541	H54	0.181700	0.380400	0.257400
C541	C54	0.113200	0.318900	0.192900
H551	H55	0.094300	0.316200	0.135200
H561	H56	0.073400	0.323400	0.232300
C551	C55	0.922600	0.428200	0.215600
H571	H57	0.906600	0.429500	0.272000
C561	C56	0.877100	0.408800	0.154200
H581	H58	0.829300	0.399500	0.166700
C571	C57	0.266500	0.556200	0.405400
H591	H59	0.309900	0.571500	0.428200
C581	C58	0.210000	0.547500	0.457000
H601	H60	0.213800	0.556800	0.515400
C591	C59	0.014300	0.439800	0.120900
C601	C60	0.089600	0.457700	0.108700
H611	H61	0.110700	0.423700	0.068300
H621	H62	0.093800	0.506700	0.085200
C611	C61	0.971400	0.418700	0.056900
H631	H63	0.989500	0.414900	0.001700
C621	C62	0.902300	0.402900	0.071700
H641	H64	0.872300	0.388400	0.027400
C631	C63	0.243500	0.716400	0.315100
C641	C64	0.158700	0.703000	0.326000
Mo131	Mo13	0.579610	0.090260	0.859170
Mo141	Mo14	0.530080	0.160620	0.677560
Mo151	Mo15	0.508700	0.163090	0.056260
Cu51	Cu5	0.442270	0.978700	0.781040
O251	O25	0.511200	0.029200	0.850600
O261	O26	0.591000	0.102000	0.740300
O271	O27	0.549700	0.120000	0.137000
O281	O28	0.501900	0.182200	0.820400
O291	O29	0.559800	0.123200	0.967200
O301	O30	0.147300	0.315700	0.643700
N131	N13	0.359600	0.014300	0.840600
N141	N14	0.510800	0.945500	0.699500
N151	N15	0.372100	0.953800	0.689300
C651	C65	0.353000	0.024900	0.922700
H651	H65	0.392000	0.016800	0.958400
C661	C66	0.304400	0.022400	0.789600
C671	C67	0.238800	0.043000	0.820400
H661	H66	0.199500	0.047700	0.784300
C681	C68	0.316800	0.010400	0.698000
H671	H67	0.273100	0.994500	0.670400
H681	H68	0.332400	0.055600	0.671100
C691	C69	0.339800	0.881800	0.701100
H691	H69	0.301600	0.876600	0.659600
H701	H70	0.318300	0.880400	0.757400
C701	C70	0.386800	0.818900	0.692900
H711	H71	0.405700	0.816200	0.635200
H721	H72	0.426600	0.823400	0.732300
C711	C71	0.577400	0.928200	0.715600
H731	H73	0.593400	0.929500	0.772000
C721	C72	0.622900	0.908800	0.654200
H741	H74	0.670700	0.899500	0.666700
C731	C73	0.233500	0.056200	0.905400
H751	H75	0.190100	0.071500	0.928200
C741	C74	0.290000	0.047500	0.957000
H761	H76	0.286200	0.056800	0.015400
C751	C75	0.485700	0.939800	0.620900
C761	C76	0.410400	0.957700	0.608700
H771	H77	0.389300	0.923700	0.568300
H781	H78	0.406200	0.006700	0.585200
C771	C77	0.528600	0.918700	0.556900
H791	H79	0.510500	0.914900	0.501700
C781	C78	0.597700	0.902900	0.571700
H801	H80	0.627700	0.888400	0.527400
C791	C79	0.256500	0.216400	0.815100
C801	C80	0.341300	0.203000	0.826000
Mo161	Mo16	0.920390	0.909740	0.359170
Mo171	Mo17	0.969920	0.839380	0.177560
Mo181	Mo18	0.991300	0.836910	0.556260
Cu61	Cu6	0.057730	0.021300	0.281040
O311	O31	0.988800	0.970800	0.350600
O321	O32	0.909000	0.898000	0.240300
O331	O33	0.950300	0.880000	0.637000
O341	O34	0.998100	0.817800	0.320400
O351	O35	0.940200	0.876800	0.467200
O361	O36	0.352700	0.684300	0.143700
N161	N16	0.140400	0.985700	0.340600
N171	N17	0.989200	0.054500	0.199500
N181	N18	0.127900	0.046200	0.189300
C811	C81	0.147000	0.975100	0.422700
H811	H81	0.108000	0.983200	0.458400
C821	C82	0.195600	0.977600	0.289600
C831	C83	0.261200	0.957000	0.320400
H821	H82	0.300500	0.952300	0.284300
C841	C84	0.183200	0.989600	0.198000
H831	H83	0.226900	0.005500	0.170400
H841	H84	0.167600	0.944400	0.171100
C851	C85	0.160200	0.118200	0.201100
H851	H85	0.198400	0.123400	0.159600
H861	H86	0.181700	0.119600	0.257400
C861	C86	0.113200	0.181100	0.192900
H871	H87	0.094300	0.183800	0.135200
H881	H88	0.073400	0.176600	0.232300
C871	C87	0.922600	0.071800	0.215600
H891	H89	0.906600	0.070500	0.272000
C881	C88	0.877100	0.091200	0.154200
H901	H90	0.829300	0.100500	0.166700
C891	C89	0.266500	0.943800	0.405400
H911	H91	0.309900	0.928500	0.428200
C901	C90	0.210000	0.952500	0.457000
H921	H92	0.213800	0.943200	0.515400
C911	C91	0.014300	0.060200	0.120900
C921	C92	0.089600	0.042300	0.108700
H931	H93	0.110700	0.076300	0.068300
H941	H94	0.093800	0.993300	0.085200
C931	C93	0.971400	0.081300	0.056900
H951	H95	0.989500	0.085100	0.001700
C941	C94	0.902300	0.097100	0.071700
H961	H96	0.872300	0.111600	0.027400
C951	C95	0.243500	0.783600	0.315100
C961	C96	0.158700	0.797000	0.326000
Mo191	Mo19	0.420390	0.590260	0.140830
Mo201	Mo20	0.469920	0.660620	0.322440
Mo211	Mo21	0.491300	0.663090	0.943740
Cu71	Cu7	0.557730	0.478700	0.218960
O371	O37	0.488800	0.529200	0.149400
O381	O38	0.409000	0.602000	0.259700
O391	O39	0.450300	0.620000	0.863000
O401	O40	0.498100	0.682200	0.179600
O411	O41	0.440200	0.623200	0.032800
O421	O42	0.852700	0.815700	0.356300
N191	N19	0.640400	0.514300	0.159400
N201	N20	0.489200	0.445500	0.300500
N211	N21	0.627900	0.453800	0.310700
C971	C97	0.647000	0.524900	0.077300
H971	H97	0.608000	0.516800	0.041600
C981	C98	0.695600	0.522400	0.210400
C991	C99	0.761200	0.543000	0.179600
H981	H98	0.800500	0.547700	0.215700
C1001	C100	0.683200	0.510400	0.302000
H991	H99	0.726900	0.494500	0.329600
H1001	H100	0.667600	0.555600	0.328900
C1011	C101	0.660200	0.381800	0.298900
H1011	H101	0.698400	0.376600	0.340400
H1021	H102	0.681700	0.380400	0.242600
C1021	C102	0.613200	0.318900	0.307100
H1031	H103	0.594300	0.316200	0.364800
H1041	H104	0.573400	0.323400	0.267700
C1031	C103	0.422600	0.428200	0.284400
H1051	H105	0.406600	0.429500	0.228000
C1041	C104	0.377100	0.408800	0.345800
H1061	H106	0.329300	0.399500	0.333300
C1051	C105	0.766500	0.556200	0.094600
H1071	H107	0.809900	0.571500	0.071800
C1061	C106	0.710000	0.547500	0.043000
H1081	H108	0.713800	0.556800	0.984600
C1071	C107	0.514300	0.439800	0.379100
C1081	C108	0.589600	0.457700	0.391300
H1091	H109	0.610700	0.423700	0.431700
H1101	H110	0.593800	0.506700	0.414800
C1091	C109	0.471400	0.418700	0.443100
H1111	H111	0.489500	0.414900	0.498300
C1101	C110	0.402300	0.402900	0.428300
H1121	H112	0.372300	0.388400	0.472600
C1111	C111	0.743500	0.716400	0.184900
C1121	C112	0.658700	0.703000	0.174000
Mo221	Mo22	0.079610	0.409740	0.640830
Mo231	Mo23	0.030080	0.339380	0.822440
Mo241	Mo24	0.008700	0.336910	0.443740
Cu81	Cu8	0.942270	0.521300	0.718960
O431	O43	0.011200	0.470800	0.649400
O441	O44	0.091000	0.398000	0.759700
O451	O45	0.049700	0.380000	0.363000
O461	O46	0.001900	0.317800	0.679600
O471	O47	0.059800	0.376800	0.532800
O481	O48	0.647300	0.184300	0.856300
N221	N22	0.859600	0.485700	0.659400
N231	N23	0.010800	0.554500	0.800500
N241	N24	0.872100	0.546200	0.810700
C1131	C113	0.853000	0.475100	0.577300
H1131	H113	0.892000	0.483200	0.541600
C1141	C114	0.804400	0.477600	0.710400
C1151	C115	0.738800	0.457000	0.679600
H1141	H114	0.699500	0.452300	0.715700
C1161	C116	0.816800	0.489600	0.802000
H1151	H115	0.773100	0.505500	0.829600
H1161	H116	0.832400	0.444400	0.828900
C1171	C117	0.839800	0.618200	0.798900
H1171	H117	0.801600	0.623400	0.840400
H1181	H118	0.818300	0.619600	0.742600
C1181	C118	0.886800	0.681100	0.807100
H1191	H119	0.905700	0.683800	0.864800
H1201	H120	0.926600	0.676600	0.767700
C1191	C119	0.077400	0.571800	0.784400
H1211	H121	0.093400	0.570500	0.728000
C1201	C120	0.122900	0.591200	0.845800
H1221	H122	0.170700	0.600500	0.833300
C1211	C121	0.733500	0.443800	0.594600
H1231	H123	0.690100	0.428500	0.571800
C1221	C122	0.790000	0.452500	0.543000
H1241	H124	0.786200	0.443200	0.484600
C1231	C123	0.985700	0.560200	0.879100
C1241	C124	0.910400	0.542300	0.891300
H1251	H125	0.889300	0.576300	0.931700
H1261	H126	0.906200	0.493300	0.914800
C1251	C125	0.028600	0.581300	0.943100
H1271	H127	0.010500	0.585100	0.998300
C1261	C126	0.097700	0.597100	0.928300
H1281	H128	0.127700	0.611600	0.972600
C1271	C127	0.756500	0.283600	0.684900
C1281	C128	0.841300	0.297000	0.674000
P11	P1	0.527720	0.750000	0.140200
P21	P2	0.845090	0.750000	0.301900
O491	O49	0.394500	0.750000	0.961700
O501	O50	0.894600	0.750000	0.224700
O511	O51	0.518800	0.750000	0.335400
O521	O52	0.515700	0.750000	0.887300
O531	O53	0.515300	0.750000	0.044700
C1291	C129	0.617900	0.750000	0.157700
C1301	C130	0.757000	0.750000	0.263900
P31	P3	0.972280	0.250000	0.640200
P41	P4	0.654910	0.250000	0.801900
O541	O54	0.105500	0.250000	0.461700
O551	O55	0.605400	0.250000	0.724700
O561	O56	0.981200	0.250000	0.835400
O571	O57	0.984300	0.250000	0.387300
O581	O58	0.984700	0.250000	0.544700
C1311	C131	0.882100	0.250000	0.657700
C1321	C132	0.743000	0.250000	0.763900
P51	P5	0.472280	0.250000	0.859800
P61	P6	0.154910	0.250000	0.698100
O591	O59	0.605500	0.250000	0.038300
O601	O60	0.105400	0.250000	0.775300
O611	O61	0.481200	0.250000	0.664600
O621	O62	0.484300	0.250000	0.112700
O631	O63	0.484700	0.250000	0.955300
C1331	C133	0.382100	0.250000	0.842300
C1341	C134	0.243000	0.250000	0.736100
P71	P7	0.027720	0.750000	0.359800
P81	P8	0.345090	0.750000	0.198100
O641	O64	0.894500	0.750000	0.538300
O651	O65	0.394600	0.750000	0.275300
O661	O66	0.018800	0.750000	0.164600
O671	O67	0.015700	0.750000	0.612700
O681	O68	0.015300	0.750000	0.455300
C1351	C135	0.117900	0.750000	0.342300
C1361	C136	0.257000	0.750000	0.236100
C1371	C137	0.656100	0.250000	0.286900
C1381	C138	0.843900	0.750000	0.786900
C1391	C139	0.343900	0.750000	0.713100
C1401	C140	0.156100	0.250000	0.213100
