data_PECMOB_clean_PM
_symmetry_space_group_name_H-M	'P1'
_cell_length_a	10.122000
_cell_length_b	10.806000
_cell_length_c	13.723000
_cell_angle_alpha	79.153000
_cell_angle_beta	78.796000
_cell_angle_gamma	86.392000
_symmetry_Int_Tables_number 1

loop_
_symmetry_equiv_pos_as_xyz
'x,y,z'

loop_
_atom_site_label
_atom_site_type_symbol
_atom_site_fract_x
_atom_site_fract_y
_atom_site_fract_z
Sm11	Sm1	0.318990	0.922520	0.296870
Sm21	Sm2	0.681010	0.077480	0.703130
Co11	Co1	0.000000	0.500000	0.500000
H11	H1	0.327400	0.669700	0.153000
H21	H2	0.346500	0.328700	0.076600
H31	H3	0.281500	0.360400	0.368100
H41	H4	0.345700	0.773800	0.850900
H51	H5	0.353400	0.881300	0.689900
H61	H6	0.365300	0.571700	0.585100
H71	H7	0.356900	0.454300	0.742700
H81	H8	0.823400	0.913800	0.281500
H91	H9	0.089400	0.838800	0.040800
H101	H10	0.695200	0.853400	0.036300
H111	H11	0.017100	0.829300	0.715900
H121	H12	0.032800	0.749200	0.571300
H131	H13	0.014000	0.407100	0.723000
H141	H14	0.008400	0.477200	0.870800
H151	H15	0.379500	0.645900	0.982200
H161	H16	0.881400	0.842800	0.880700
H171	H17	0.672600	0.330300	0.847000
H181	H18	0.653500	0.671300	0.923400
H191	H19	0.718500	0.639600	0.631900
H201	H20	0.654300	0.226200	0.149100
H211	H21	0.646600	0.118700	0.310100
H221	H22	0.634700	0.428300	0.414900
H231	H23	0.643100	0.545700	0.257300
H241	H24	0.176600	0.086200	0.718500
H251	H25	0.910600	0.161200	0.959200
H261	H26	0.304800	0.146600	0.963700
H271	H27	0.982900	0.170700	0.284100
H281	H28	0.967200	0.250800	0.428700
H291	H29	0.986000	0.592900	0.277000
H301	H30	0.991600	0.522800	0.129200
H311	H31	0.620500	0.354100	0.017800
H321	H32	0.118600	0.157200	0.119300
C11	C1	0.298400	0.527700	0.273200
C21	C2	0.321700	0.582600	0.171400
C31	C3	0.336400	0.509600	0.097500
C41	C4	0.334800	0.379200	0.125700
C51	C5	0.315900	0.324900	0.226300
C61	C6	0.296200	0.398100	0.300400
C71	C7	0.312700	0.184900	0.252800
C81	C8	0.267400	0.605900	0.353700
C91	C9	0.333900	0.517800	0.918100
C101	C10	0.347900	0.599700	0.816100
C111	C11	0.348600	0.730100	0.798200
C121	C12	0.353800	0.793700	0.700900
C131	C13	0.360600	0.613000	0.639400
C141	C14	0.355400	0.541800	0.734100
C151	C15	0.737500	0.885800	0.168100
C161	C16	0.841400	0.896100	0.216400
C171	C17	0.974100	0.880000	0.168300
C181	C18	0.000800	0.850400	0.072700
C191	C19	0.895800	0.837800	0.024200
C201	C20	0.765400	0.858100	0.070200
C211	C21	0.592900	0.901900	0.215000
C221	C22	0.091100	0.890600	0.217600
C231	C23	0.005900	0.705000	0.907800
C241	C24	0.009500	0.661700	0.809700
C251	C25	0.017000	0.742600	0.718900
C261	C26	0.024600	0.693600	0.632700
C271	C27	0.015000	0.493400	0.721400
C281	C28	0.010600	0.534400	0.810800
C291	C29	0.701600	0.472300	0.726800
C301	C30	0.678300	0.417400	0.828600
C311	C31	0.663600	0.490400	0.902500
C321	C32	0.665200	0.620800	0.874300
C331	C33	0.684100	0.675100	0.773700
C341	C34	0.703800	0.601900	0.699600
C351	C35	0.687300	0.815100	0.747200
C361	C36	0.732600	0.394100	0.646300
C371	C37	0.666100	0.482200	0.081900
C381	C38	0.652100	0.400300	0.183900
C391	C39	0.651400	0.269900	0.201800
C401	C40	0.646200	0.206300	0.299100
C411	C41	0.639400	0.387000	0.360600
C421	C42	0.644600	0.458200	0.265900
C431	C43	0.262500	0.114200	0.831900
C441	C44	0.158600	0.103900	0.783600
C451	C45	0.025900	0.120000	0.831700
C461	C46	0.999200	0.149600	0.927300
C471	C47	0.104200	0.162200	0.975800
C481	C48	0.234600	0.141900	0.929800
C491	C49	0.407100	0.098100	0.785000
C501	C50	0.908900	0.109400	0.782400
C511	C51	0.994100	0.295000	0.092200
C521	C52	0.990500	0.338300	0.190300
C531	C53	0.983000	0.257400	0.281100
C541	C54	0.975400	0.306400	0.367300
C551	C55	0.985000	0.506600	0.278600
C561	C56	0.989400	0.465600	0.189200
N11	N1	0.353700	0.569200	0.996000
N21	N2	0.359300	0.738400	0.621800
N31	N3	0.921100	0.801800	0.927400
N41	N4	0.020700	0.570400	0.632100
N51	N5	0.646300	0.430800	0.004000
N61	N6	0.640700	0.261600	0.378200
N71	N7	0.078900	0.198200	0.072600
N81	N8	0.979300	0.429600	0.367900
O11	O1	0.192900	0.564400	0.435100
O21	O2	0.320100	0.712600	0.335600
O31	O3	0.329300	0.129000	0.338800
O41	O4	0.293900	0.122800	0.189500
O51	O5	0.307900	0.408300	0.926000
O61	O6	0.559000	0.901100	0.309300
O71	O7	0.503700	0.916000	0.162500
O81	O8	0.073200	0.905200	0.309200
O91	O9	0.208200	0.885400	0.167400
O101	O10	0.075400	0.648700	0.966900
O111	O11	0.807100	0.435600	0.564900
O121	O12	0.679900	0.287400	0.664400
O131	O13	0.670700	0.871000	0.661200
O141	O14	0.706100	0.877200	0.810500
O151	O15	0.692100	0.591700	0.074000
O161	O16	0.441000	0.098900	0.690700
O171	O17	0.496300	0.084000	0.837500
O181	O18	0.926800	0.094800	0.690800
O191	O19	0.791800	0.114600	0.832600
O201	O20	0.924600	0.351300	0.033100
