data_PEDGUA_clean_PM
_symmetry_space_group_name_H-M	'P1'
_cell_length_a	13.367000
_cell_length_b	13.852000
_cell_length_c	14.023000
_cell_angle_alpha	90.000000
_cell_angle_beta	91.610000
_cell_angle_gamma	90.000000
_symmetry_Int_Tables_number 1

loop_
_symmetry_equiv_pos_as_xyz
'x,y,z'

loop_
_atom_site_label
_atom_site_type_symbol
_atom_site_fract_x
_atom_site_fract_y
_atom_site_fract_z
Ba11	Ba1	0.033490	0.069760	0.236220
Ba21	Ba2	0.965360	0.337800	0.044500
Ba31	Ba3	0.466510	0.569760	0.263780
Ba41	Ba4	0.534640	0.837800	0.455500
Ba51	Ba5	0.966510	0.930240	0.763780
Ba61	Ba6	0.034640	0.662200	0.955500
Ba71	Ba7	0.533490	0.430240	0.736220
Ba81	Ba8	0.465360	0.162200	0.544500
Ti11	Ti1	0.872700	0.377200	0.472300
Ti21	Ti2	0.582000	0.111100	0.117100
Ti31	Ti3	0.627300	0.877200	0.027700
Ti41	Ti4	0.918000	0.611100	0.382900
Ti51	Ti5	0.127300	0.622800	0.527700
Ti61	Ti6	0.418000	0.888900	0.882900
Ti71	Ti7	0.372700	0.122800	0.972300
Ti81	Ti8	0.082000	0.388900	0.617100
C11	C1	0.951800	0.320000	0.294600
C21	C2	0.844800	0.350000	0.267700
C31	C3	0.793400	0.152000	0.108000
C41	C4	0.740000	0.209000	0.028500
C51	C5	0.032800	0.424500	0.811200
C61	C6	0.040000	0.317000	0.802700
C71	C7	0.227000	0.273000	0.009400
C81	C8	0.183200	0.176000	0.045800
C91	C9	0.548200	0.820000	0.205400
C101	C10	0.655200	0.850000	0.232300
C111	C11	0.706600	0.652000	0.392000
C121	C12	0.760000	0.709000	0.471500
C131	C13	0.467200	0.924500	0.688800
C141	C14	0.460000	0.817000	0.697300
C151	C15	0.273000	0.773000	0.490600
C161	C16	0.316800	0.676000	0.454200
C171	C17	0.048200	0.680000	0.705400
C181	C18	0.155200	0.650000	0.732300
C191	C19	0.206600	0.848000	0.892000
C201	C20	0.260000	0.791000	0.971500
C211	C21	0.967200	0.575500	0.188800
C221	C22	0.960000	0.683000	0.197300
C231	C23	0.773000	0.727000	0.990600
C241	C24	0.816800	0.824000	0.954200
C251	C25	0.451800	0.180000	0.794600
C261	C26	0.344800	0.150000	0.767700
C271	C27	0.293400	0.348000	0.608000
C281	C28	0.240000	0.291000	0.528500
C291	C29	0.532800	0.075500	0.311200
C301	C30	0.540000	0.183000	0.302700
C311	C31	0.727000	0.227000	0.509400
C321	C32	0.683200	0.324000	0.545800
O11	O1	0.456600	0.139100	0.073800
O21	O2	0.893900	0.504400	0.451800
O31	O3	0.794200	0.373000	0.339900
O41	O4	0.974500	0.325500	0.384200
O51	O5	0.815300	0.350700	0.183700
O61	O6	0.009900	0.288700	0.235500
O71	O7	0.885400	0.152100	0.114100
O81	O8	0.643200	0.204300	0.029900
O91	O9	0.787800	0.257600	0.971300
O101	O10	0.733000	0.109300	0.162800
O111	O11	0.012700	0.466400	0.886700
O121	O12	0.051100	0.469800	0.733300
O131	O13	0.015700	0.262600	0.869900
O141	O14	0.068500	0.285800	0.723100
O151	O15	0.314600	0.265700	0.979900
O161	O16	0.175800	0.346000	0.016500
O171	O17	0.241500	0.102500	0.034300
O181	O18	0.099100	0.172600	0.077900
O191	O19	0.043400	0.639100	0.426200
O201	O20	0.606100	0.004400	0.048200
O211	O21	0.705800	0.873000	0.160100
O221	O22	0.525500	0.825500	0.115800
O231	O23	0.684700	0.850700	0.316300
O241	O24	0.490100	0.788700	0.264500
O251	O25	0.614600	0.652100	0.385900
O261	O26	0.856800	0.704300	0.470100
O271	O27	0.712200	0.757600	0.528700
O281	O28	0.767000	0.609300	0.337200
O291	O29	0.487300	0.966400	0.613300
O301	O30	0.448900	0.969800	0.766700
O311	O31	0.484300	0.762600	0.630100
O321	O32	0.431500	0.785800	0.776900
O331	O33	0.185400	0.765700	0.520100
O341	O34	0.324200	0.846000	0.483500
O351	O35	0.258500	0.602500	0.465700
O361	O36	0.400900	0.672600	0.422100
O371	O37	0.543400	0.860900	0.926200
O381	O38	0.106100	0.495600	0.548200
O391	O39	0.205800	0.627000	0.660100
O401	O40	0.025500	0.674500	0.615800
O411	O41	0.184700	0.649300	0.816300
O421	O42	0.990100	0.711300	0.764500
O431	O43	0.114600	0.847900	0.885900
O441	O44	0.356800	0.795700	0.970100
O451	O45	0.212200	0.742400	0.028700
O461	O46	0.267000	0.890700	0.837200
O471	O47	0.987300	0.533600	0.113300
O481	O48	0.948900	0.530200	0.266700
O491	O49	0.984300	0.737400	0.130100
O501	O50	0.931500	0.714200	0.276900
O511	O51	0.685400	0.734300	0.020100
O521	O52	0.824200	0.654000	0.983500
O531	O53	0.758500	0.897500	0.965700
O541	O54	0.900900	0.827400	0.922100
O551	O55	0.956600	0.360900	0.573800
O561	O56	0.393900	0.995600	0.951800
O571	O57	0.294200	0.127000	0.839900
O581	O58	0.474500	0.174500	0.884200
O591	O59	0.315300	0.149300	0.683700
O601	O60	0.509900	0.211300	0.735500
O611	O61	0.385400	0.347900	0.614100
O621	O62	0.143200	0.295700	0.529900
O631	O63	0.287800	0.242400	0.471300
O641	O64	0.233000	0.390700	0.662800
O651	O65	0.512700	0.033600	0.386700
O661	O66	0.551100	0.030200	0.233300
O671	O67	0.515700	0.237400	0.369900
O681	O68	0.568500	0.214200	0.223100
O691	O69	0.814600	0.234300	0.479900
O701	O70	0.675800	0.154000	0.516500
O711	O71	0.741500	0.397500	0.534300
O721	O72	0.599100	0.327400	0.577900
