data_PEFTAX_clean_PM
_symmetry_space_group_name_H-M	'P1'
_cell_length_a	9.697200
_cell_length_b	10.795700
_cell_length_c	26.967100
_cell_angle_alpha	90.000000
_cell_angle_beta	90.000000
_cell_angle_gamma	90.000000
_symmetry_Int_Tables_number 1

loop_
_symmetry_equiv_pos_as_xyz
'x,y,z'

loop_
_atom_site_label
_atom_site_type_symbol
_atom_site_fract_x
_atom_site_fract_y
_atom_site_fract_z
Cu11	Cu1	0.314050	0.614930	0.332120
Cu21	Cu2	0.186750	0.389800	0.166090
Cu31	Cu3	0.314050	0.385070	0.667880
Cu41	Cu4	0.186750	0.610200	0.833910
Cu51	Cu5	0.685950	0.885070	0.832120
Cu61	Cu6	0.813250	0.110200	0.666090
Cu71	Cu7	0.685950	0.114930	0.167880
Cu81	Cu8	0.813250	0.889800	0.333910
H11	H1	0.087800	0.714000	0.398600
H21	H2	0.417700	0.279800	0.100700
H31	H3	0.482900	0.723700	0.190700
H41	H4	0.459000	0.814200	0.236900
H51	H5	0.612200	0.784500	0.218400
H61	H6	0.586100	0.575200	0.243300
H71	H7	0.969500	0.317400	0.262900
H81	H8	0.903000	0.519000	0.286400
H91	H9	0.864600	0.551400	0.230200
H101	H10	0.776100	0.450900	0.260000
H111	H11	0.454800	0.466300	0.399500
H121	H12	0.479700	0.477200	0.458000
H131	H13	0.391500	0.364400	0.436100
H141	H14	0.925200	0.728200	0.464000
H151	H15	0.908600	0.601400	0.494100
H161	H16	0.999500	0.711800	0.516500
H171	H17	0.589900	0.272800	0.037200
H181	H18	0.526300	0.297900	0.983400
H191	H19	0.608700	0.405400	0.011500
H201	H20	0.051400	0.535400	0.097700
H211	H21	0.127200	0.640400	0.065900
H221	H22	0.035400	0.537600	0.038600
H231	H23	0.087800	0.286000	0.601400
H241	H24	0.417700	0.720200	0.899300
H251	H25	0.482900	0.276300	0.809300
H261	H26	0.459000	0.185800	0.763100
H271	H27	0.612200	0.215500	0.781600
H281	H28	0.586100	0.424800	0.756700
H291	H29	0.969500	0.682600	0.737100
H301	H30	0.903000	0.481000	0.713600
H311	H31	0.864600	0.448600	0.769800
H321	H32	0.776100	0.549100	0.740000
H331	H33	0.454800	0.533700	0.600500
H341	H34	0.479700	0.522800	0.542000
H351	H35	0.391500	0.635600	0.563900
H361	H36	0.925200	0.271800	0.536000
H371	H37	0.908600	0.398600	0.505900
H381	H38	0.999500	0.288200	0.483500
H391	H39	0.589900	0.727200	0.962800
H401	H40	0.526300	0.702100	0.016600
H411	H41	0.608700	0.594600	0.988500
H421	H42	0.051400	0.464600	0.902300
H431	H43	0.127200	0.359600	0.934100
H441	H44	0.035400	0.462400	0.961400
H451	H45	0.912200	0.786000	0.898600
H461	H46	0.582300	0.220200	0.600700
H471	H47	0.517100	0.776300	0.690700
H481	H48	0.541000	0.685800	0.736900
H491	H49	0.387800	0.715500	0.718400
H501	H50	0.413900	0.924800	0.743300
H511	H51	0.030500	0.182600	0.762900
H521	H52	0.097000	0.981000	0.786400
H531	H53	0.135400	0.948600	0.730200
H541	H54	0.223900	0.049100	0.760000
H551	H55	0.545200	0.033700	0.899500
H561	H56	0.520300	0.022800	0.958000
H571	H57	0.608500	0.135600	0.936100
H581	H58	0.074800	0.771800	0.964000
H591	H59	0.091400	0.898600	0.994100
H601	H60	0.000500	0.788200	0.016500
H611	H61	0.410100	0.227200	0.537200
H621	H62	0.473700	0.202100	0.483400
H631	H63	0.391300	0.094600	0.511500
H641	H64	0.948600	0.964600	0.597700
H651	H65	0.872800	0.859600	0.565900
H661	H66	0.964600	0.962400	0.538600
H671	H67	0.912200	0.214000	0.101400
H681	H68	0.582300	0.779800	0.399300
H691	H69	0.517100	0.223700	0.309300
H701	H70	0.541000	0.314200	0.263100
H711	H71	0.387800	0.284500	0.281600
H721	H72	0.413900	0.075200	0.256700
H731	H73	0.030500	0.817400	0.237100
H741	H74	0.097000	0.019000	0.213600
H751	H75	0.135400	0.051400	0.269800
H761	H76	0.223900	0.950900	0.240000
H771	H77	0.545200	0.966300	0.100500
H781	H78	0.520300	0.977200	0.042000
H791	H79	0.608500	0.864400	0.063900
H801	H80	0.074800	0.228200	0.036000
H811	H81	0.091400	0.101400	0.005900
H821	H82	0.000500	0.211800	0.983500
H831	H83	0.410100	0.772800	0.462800
H841	H84	0.473700	0.797900	0.516600
H851	H85	0.391300	0.905400	0.488500
H861	H86	0.948600	0.035400	0.402300
H871	H87	0.872800	0.140400	0.434100
H881	H88	0.964600	0.037600	0.461400
C11	C1	0.519400	0.750500	0.222850
C21	C2	0.525500	0.641000	0.257680
C31	C3	0.583500	0.682600	0.308230
C41	C4	0.316600	0.527000	0.237030
C51	C5	0.181100	0.486900	0.259870
C61	C6	0.965000	0.383700	0.237090
C71	C7	0.868600	0.485200	0.255000
C81	C8	0.913900	0.326700	0.188630
C91	C9	0.413900	0.452400	0.432200
C101	C10	0.285300	0.527700	0.437080
C111	C11	0.193500	0.535200	0.476440
C121	C12	0.094700	0.619400	0.461040
C131	C13	0.971800	0.669400	0.486000
C141	C14	0.546200	0.334800	0.015800
C151	C15	0.414700	0.378100	0.039130
C161	C16	0.319700	0.464300	0.023300
C171	C17	0.222200	0.472200	0.061510
C181	C18	0.098400	0.553400	0.066300
C191	C19	0.519400	0.249500	0.777150
C201	C20	0.525500	0.359000	0.742320
C211	C21	0.583500	0.317400	0.691770
C221	C22	0.316600	0.473000	0.762970
C231	C23	0.181100	0.513100	0.740130
C241	C24	0.965000	0.616300	0.762910
C251	C25	0.868600	0.514800	0.745000
C261	C26	0.913900	0.673300	0.811370
C271	C27	0.413900	0.547600	0.567800
C281	C28	0.285300	0.472300	0.562920
C291	C29	0.193500	0.464800	0.523560
C301	C30	0.094700	0.380600	0.538960
C311	C31	0.971800	0.330600	0.514000
C321	C32	0.546200	0.665200	0.984200
C331	C33	0.414700	0.621900	0.960870
C341	C34	0.319700	0.535700	0.976700
C351	C35	0.222200	0.527800	0.938490
C361	C36	0.098400	0.446600	0.933700
C371	C37	0.480600	0.749500	0.722850
C381	C38	0.474500	0.859000	0.757680
C391	C39	0.416500	0.817400	0.808230
C401	C40	0.683400	0.973000	0.737030
C411	C41	0.818900	0.013100	0.759870
C421	C42	0.035000	0.116300	0.737090
C431	C43	0.131400	0.014800	0.755000
C441	C44	0.086100	0.173300	0.688630
C451	C45	0.586100	0.047600	0.932200
C461	C46	0.714700	0.972300	0.937080
C471	C47	0.806500	0.964800	0.976440
C481	C48	0.905300	0.880600	0.961040
C491	C49	0.028200	0.830600	0.986000
C501	C50	0.453800	0.165200	0.515800
C511	C51	0.585300	0.121900	0.539130
C521	C52	0.680300	0.035700	0.523300
C531	C53	0.777800	0.027800	0.561510
C541	C54	0.901600	0.946600	0.566300
C551	C55	0.480600	0.250500	0.277150
C561	C56	0.474500	0.141000	0.242320
C571	C57	0.416500	0.182600	0.191770
C581	C58	0.683400	0.027000	0.262970
C591	C59	0.818900	0.986900	0.240130
C601	C60	0.035000	0.883700	0.262910
C611	C61	0.131400	0.985200	0.245000
C621	C62	0.086100	0.826700	0.311370
C631	C63	0.586100	0.952400	0.067800
C641	C64	0.714700	0.027700	0.062920
C651	C65	0.806500	0.035200	0.023560
C661	C66	0.905300	0.119400	0.038960
C671	C67	0.028200	0.169400	0.014000
C681	C68	0.453800	0.834800	0.484200
C691	C69	0.585300	0.878100	0.460870
C701	C70	0.680300	0.964300	0.476700
C711	C71	0.777800	0.972200	0.438490
C721	C72	0.901600	0.053400	0.433700
N11	N1	0.390700	0.590100	0.267920
N21	N2	0.103200	0.429600	0.228030
N31	N3	0.247800	0.603500	0.401020
N41	N4	0.133200	0.658400	0.416090
N51	N5	0.373500	0.336600	0.083490
N61	N6	0.255200	0.392600	0.098770
N71	N7	0.390700	0.409900	0.732080
N81	N8	0.103200	0.570400	0.771970
N91	N9	0.247800	0.396500	0.598980
N101	N10	0.133200	0.341600	0.583910
N111	N11	0.373500	0.663400	0.916510
N121	N12	0.255200	0.607400	0.901230
N131	N13	0.609300	0.909900	0.767920
N141	N14	0.896800	0.070400	0.728030
N151	N15	0.752200	0.896500	0.901020
N161	N16	0.866800	0.841600	0.916090
N171	N17	0.626500	0.163400	0.583490
N181	N18	0.744800	0.107400	0.598770
N191	N19	0.609300	0.090100	0.232080
N201	N20	0.896800	0.929600	0.271970
N211	N21	0.752200	0.103500	0.098980
N221	N22	0.866800	0.158400	0.083910
N231	N23	0.626500	0.836600	0.416510
N241	N24	0.744800	0.892600	0.401230
O11	O1	0.501800	0.682900	0.345310
O21	O2	0.157000	0.513000	0.304880
O31	O3	0.342800	0.496800	0.192270
O41	O4	0.001900	0.317600	0.152770
O51	O5	0.792200	0.296000	0.184900
O61	O6	0.705400	0.716700	0.310430
O71	O7	0.501800	0.317100	0.654690
O81	O8	0.157000	0.487000	0.695120
O91	O9	0.342800	0.503200	0.807730
O101	O10	0.001900	0.682400	0.847230
O111	O11	0.792200	0.704000	0.815100
O121	O12	0.705400	0.283300	0.689570
O131	O13	0.498200	0.817100	0.845310
O141	O14	0.843000	0.987000	0.804880
O151	O15	0.657200	0.003200	0.692270
O161	O16	0.998100	0.182400	0.652770
O171	O17	0.207800	0.204000	0.684900
O181	O18	0.294600	0.783300	0.810430
O191	O19	0.498200	0.182900	0.154690
O201	O20	0.843000	0.013000	0.195120
O211	O21	0.657200	0.996800	0.307730
O221	O22	0.998100	0.817600	0.347230
O231	O23	0.207800	0.796000	0.315100
O241	O24	0.294600	0.216700	0.189570
