data_PEGBAG_clean_PM
_symmetry_space_group_name_H-M	'P1'
_cell_length_a	10.578300
_cell_length_b	12.328800
_cell_length_c	17.236000
_cell_angle_alpha	90.000000
_cell_angle_beta	93.714000
_cell_angle_gamma	90.000000
_symmetry_Int_Tables_number 1

loop_
_symmetry_equiv_pos_as_xyz
'x,y,z'

loop_
_atom_site_label
_atom_site_type_symbol
_atom_site_fract_x
_atom_site_fract_y
_atom_site_fract_z
Zn11	Zn1	0.283010	0.259560	0.406750
Zn21	Zn2	0.294480	0.244000	0.054380
Zn31	Zn3	0.216990	0.759560	0.093250
Zn41	Zn4	0.205520	0.744000	0.445620
Zn51	Zn5	0.716990	0.740440	0.593250
Zn61	Zn6	0.705520	0.756000	0.945620
Zn71	Zn7	0.783010	0.240440	0.906750
Zn81	Zn8	0.794480	0.256000	0.554380
H11	H1	0.443600	0.138700	0.289800
H21	H2	0.499500	0.193700	0.215200
H31	H3	0.400100	0.096100	0.204500
H41	H4	0.003500	0.425800	0.160100
H51	H5	0.123100	0.481300	0.124300
H61	H6	0.044000	0.192700	0.846800
H71	H7	0.159700	0.151800	0.903700
H81	H8	0.171200	0.262900	0.856700
H91	H9	0.010400	0.983400	0.355900
H101	H10	0.062700	0.081100	0.305900
H111	H11	0.157000	0.015900	0.365300
H121	H12	0.048200	0.371300	0.581200
H131	H13	0.182000	0.310500	0.589000
H141	H14	0.388900	0.610200	0.359700
H151	H15	0.463500	0.501400	0.384200
H161	H16	0.352300	0.498400	0.316700
H171	H17	0.056400	0.638700	0.210200
H181	H18	0.000500	0.693700	0.284800
H191	H19	0.099900	0.596100	0.295500
H201	H20	0.496500	0.925800	0.339900
H211	H21	0.376900	0.981300	0.375700
H221	H22	0.456000	0.692700	0.653200
H231	H23	0.340300	0.651800	0.596300
H241	H24	0.328800	0.762900	0.643300
H251	H25	0.489600	0.483400	0.144100
H261	H26	0.437300	0.581100	0.194100
H271	H27	0.343000	0.515900	0.134700
H281	H28	0.451800	0.871300	0.918800
H291	H29	0.318000	0.810500	0.911000
H301	H30	0.111100	0.110200	0.140300
H311	H31	0.036500	0.001400	0.115800
H321	H32	0.147700	0.998400	0.183300
H331	H33	0.556400	0.861300	0.710200
H341	H34	0.500500	0.806300	0.784800
H351	H35	0.599900	0.903900	0.795500
H361	H36	0.996500	0.574200	0.839900
H371	H37	0.876900	0.518700	0.875700
H381	H38	0.956000	0.807300	0.153200
H391	H39	0.840300	0.848200	0.096300
H401	H40	0.828800	0.737100	0.143300
H411	H41	0.989600	0.016600	0.644100
H421	H42	0.937300	0.918900	0.694100
H431	H43	0.843000	0.984100	0.634700
H441	H44	0.951800	0.628700	0.418800
H451	H45	0.818000	0.689500	0.411000
H461	H46	0.611100	0.389800	0.640300
H471	H47	0.536500	0.498600	0.615800
H481	H48	0.647700	0.501600	0.683300
H491	H49	0.943600	0.361300	0.789800
H501	H50	0.999500	0.306300	0.715200
H511	H51	0.900100	0.403900	0.704500
H521	H52	0.503500	0.074200	0.660100
H531	H53	0.623100	0.018700	0.624300
H541	H54	0.544000	0.307300	0.346800
H551	H55	0.659700	0.348200	0.403700
H561	H56	0.671200	0.237100	0.356700
H571	H57	0.510400	0.516600	0.855900
H581	H58	0.562700	0.418900	0.805900
H591	H59	0.657000	0.484100	0.865300
H601	H60	0.548200	0.128700	0.081200
H611	H61	0.682000	0.189500	0.089000
H621	H62	0.888900	0.889800	0.859700
H631	H63	0.963500	0.998600	0.884200
H641	H64	0.852300	0.001600	0.816700
C11	C1	0.424400	0.160300	0.235580
C21	C2	0.317800	0.239900	0.231390
C31	C3	0.169800	0.345000	0.188060
C41	C4	0.082200	0.410800	0.133820
C51	C5	0.047200	0.358100	0.056800
C61	C6	0.061100	0.276100	0.948880
C71	C7	0.113500	0.215700	0.883420
C81	C8	0.070600	0.043800	0.356200
C91	C9	0.043100	0.121000	0.418860
C101	C10	0.062500	0.249610	0.501640
C111	C11	0.116300	0.340100	0.551300
C121	C12	0.173400	0.428400	0.505230
C131	C13	0.287000	0.508800	0.425440
C141	C14	0.381000	0.531700	0.366430
C151	C15	0.075600	0.660300	0.264420
C161	C16	0.182200	0.739900	0.268610
C171	C17	0.330200	0.845000	0.311940
C181	C18	0.417800	0.910800	0.366180
C191	C19	0.452800	0.858100	0.443200
C201	C20	0.438900	0.776100	0.551120
C211	C21	0.386500	0.715700	0.616580
C221	C22	0.429400	0.543800	0.143800
C231	C23	0.456900	0.621000	0.081140
C241	C24	0.437500	0.749610	0.998360
C251	C25	0.383700	0.840100	0.948700
C261	C26	0.326600	0.928400	0.994770
C271	C27	0.213000	0.008800	0.074560
C281	C28	0.119000	0.031700	0.133570
C291	C29	0.575600	0.839700	0.764420
C301	C30	0.682200	0.760100	0.768610
C311	C31	0.830200	0.655000	0.811940
C321	C32	0.917800	0.589200	0.866180
C331	C33	0.952800	0.641900	0.943200
C341	C34	0.938900	0.723900	0.051120
C351	C35	0.886500	0.784300	0.116580
C361	C36	0.929400	0.956200	0.643800
C371	C37	0.956900	0.879000	0.581140
C381	C38	0.937500	0.750390	0.498360
C391	C39	0.883700	0.659900	0.448700
C401	C40	0.826600	0.571600	0.494770
C411	C41	0.713000	0.491200	0.574560
C421	C42	0.619000	0.468300	0.633570
C431	C43	0.924400	0.339700	0.735580
C441	C44	0.817800	0.260100	0.731390
C451	C45	0.669800	0.155000	0.688060
C461	C46	0.582200	0.089200	0.633820
C471	C47	0.547200	0.141900	0.556800
C481	C48	0.561100	0.223900	0.448880
C491	C49	0.613500	0.284300	0.383420
C501	C50	0.570600	0.456200	0.856200
C511	C51	0.543100	0.379000	0.918860
C521	C52	0.562500	0.250390	0.001640
C531	C53	0.616300	0.159900	0.051300
C541	C54	0.673400	0.071600	0.005230
C551	C55	0.787000	0.991200	0.925440
C561	C56	0.881000	0.968300	0.866430
N11	N1	0.125600	0.198320	0.447210
N21	N2	0.935600	0.122790	0.453250
N31	N3	0.948100	0.207060	0.506880
N41	N4	0.259700	0.408840	0.451080
N51	N5	0.148300	0.531890	0.513360
N61	N6	0.222400	0.583960	0.460750
N71	N7	0.941000	0.305710	0.953160
N81	N8	0.931700	0.359590	0.023610
N91	N9	0.131300	0.308010	0.012510
N101	N10	0.265500	0.281160	0.164710
N111	N11	0.163500	0.345650	0.263920
N121	N12	0.260500	0.276710	0.292030
N131	N13	0.374400	0.698320	0.052790
N141	N14	0.564400	0.622790	0.046750
N151	N15	0.551900	0.707060	0.993120
N161	N16	0.240300	0.908840	0.048920
N171	N17	0.351700	0.031890	0.986640
N181	N18	0.277600	0.083960	0.039250
N191	N19	0.559000	0.805710	0.546840
N201	N20	0.568300	0.859590	0.476390
N211	N21	0.368700	0.808010	0.487490
N221	N22	0.234500	0.781160	0.335290
N231	N23	0.336500	0.845650	0.236080
N241	N24	0.239500	0.776710	0.207970
N251	N25	0.874400	0.801680	0.552790
N261	N26	0.064400	0.877210	0.546750
N271	N27	0.051900	0.792940	0.493120
N281	N28	0.740300	0.591160	0.548920
N291	N29	0.851700	0.468110	0.486640
N301	N30	0.777600	0.416040	0.539250
N311	N31	0.059000	0.694290	0.046840
N321	N32	0.068300	0.640410	0.976390
N331	N33	0.868700	0.691990	0.987490
N341	N34	0.734500	0.718840	0.835290
N351	N35	0.836500	0.654350	0.736080
N361	N36	0.739500	0.723290	0.707970
N371	N37	0.625600	0.301680	0.947210
N381	N38	0.435600	0.377210	0.953250
N391	N39	0.448100	0.292940	0.006880
N401	N40	0.759700	0.091160	0.951080
N411	N41	0.648300	0.968110	0.013360
N421	N42	0.722400	0.916040	0.960750
N431	N43	0.441000	0.194290	0.453160
N441	N44	0.431700	0.140410	0.523610
N451	N45	0.631300	0.191990	0.512510
N461	N46	0.765500	0.218840	0.664710
N471	N47	0.663500	0.154350	0.763920
N481	N48	0.760500	0.223290	0.792030
