data_PEGCAH_clean_PM
_symmetry_space_group_name_H-M	'P1'
_cell_length_a	10.829100
_cell_length_b	12.529000
_cell_length_c	16.848000
_cell_angle_alpha	90.000000
_cell_angle_beta	94.993000
_cell_angle_gamma	90.000000
_symmetry_Int_Tables_number 1

loop_
_symmetry_equiv_pos_as_xyz
'x,y,z'

loop_
_atom_site_label
_atom_site_type_symbol
_atom_site_fract_x
_atom_site_fract_y
_atom_site_fract_z
Zn11	Zn1	0.275400	0.267850	0.404420
Zn21	Zn2	0.794210	0.256730	0.543270
Zn31	Zn3	0.224600	0.767850	0.095580
Zn41	Zn4	0.705790	0.756730	0.956730
Zn51	Zn5	0.724600	0.732150	0.595580
Zn61	Zn6	0.205790	0.743270	0.456730
Zn71	Zn7	0.775400	0.232150	0.904420
Zn81	Zn8	0.294210	0.243270	0.043270
H11	H1	0.935100	0.356000	0.792200
H21	H2	0.988400	0.316700	0.711500
H31	H3	0.882900	0.406400	0.708600
H41	H4	0.531200	0.051700	0.644800
H51	H5	0.651200	0.019800	0.601100
H61	H6	0.520200	0.330000	0.342400
H71	H7	0.635700	0.370500	0.400300
H81	H8	0.649000	0.266800	0.346200
H91	H9	0.999500	0.028200	0.317000
H101	H10	0.133100	0.082500	0.315500
H111	H11	0.113700	0.985700	0.375200
H121	H12	0.166700	0.312700	0.589200
H131	H13	0.036500	0.373100	0.575600
H141	H14	0.369300	0.613100	0.358400
H151	H15	0.459000	0.523100	0.398700
H161	H16	0.360600	0.493100	0.325700
H171	H17	0.564900	0.856000	0.707800
H181	H18	0.511600	0.816700	0.788500
H191	H19	0.617100	0.906400	0.791400
H201	H20	0.968800	0.551700	0.855200
H211	H21	0.848800	0.519800	0.898900
H221	H22	0.979800	0.830000	0.157600
H231	H23	0.864300	0.870500	0.099700
H241	H24	0.851000	0.766800	0.153800
H251	H25	0.500500	0.528200	0.183000
H261	H26	0.366900	0.582500	0.184500
H271	H27	0.386300	0.485700	0.124800
H281	H28	0.333300	0.812700	0.910800
H291	H29	0.463500	0.873100	0.924400
H301	H30	0.130700	0.113100	0.141600
H311	H31	0.041000	0.023100	0.101300
H321	H32	0.139400	0.993100	0.174300
H331	H33	0.064900	0.644000	0.207800
H341	H34	0.011600	0.683300	0.288500
H351	H35	0.117100	0.593600	0.291400
H361	H36	0.468800	0.948300	0.355200
H371	H37	0.348800	0.980200	0.398900
H381	H38	0.479800	0.670000	0.657600
H391	H39	0.364300	0.629500	0.599700
H401	H40	0.351000	0.733200	0.653800
H411	H41	0.000500	0.971800	0.683000
H421	H42	0.866900	0.917500	0.684500
H431	H43	0.886300	0.014300	0.624800
H441	H44	0.833300	0.687300	0.410800
H451	H45	0.963500	0.626900	0.424400
H461	H46	0.630700	0.386900	0.641600
H471	H47	0.541000	0.476900	0.601300
H481	H48	0.639400	0.506900	0.674300
H491	H49	0.435100	0.144000	0.292200
H501	H50	0.488400	0.183300	0.211500
H511	H51	0.382900	0.093600	0.208600
H521	H52	0.031200	0.448300	0.144800
H531	H53	0.151200	0.480200	0.101100
H541	H54	0.020200	0.170000	0.842400
H551	H55	0.135700	0.129500	0.900300
H561	H56	0.149000	0.233200	0.846200
H571	H57	0.499500	0.471800	0.817000
H581	H58	0.633100	0.417500	0.815500
H591	H59	0.613700	0.514300	0.875200
H601	H60	0.666700	0.187300	0.089200
H611	H61	0.536500	0.126900	0.075600
H621	H62	0.869300	0.886900	0.858400
H631	H63	0.959000	0.976900	0.898700
H641	H64	0.860600	0.006900	0.825700
C11	C1	0.914200	0.341200	0.735500
C21	C2	0.816700	0.256500	0.726500
C31	C3	0.681500	0.146500	0.677500
C41	C4	0.601900	0.080900	0.618200
C51	C5	0.553000	0.142500	0.546100
C61	C6	0.551700	0.239100	0.442200
C71	C7	0.592700	0.307400	0.377200
C81	C8	0.075100	0.049100	0.349600
C91	C9	0.043400	0.126000	0.411500
C101	C10	0.055900	0.253900	0.494600
C111	C11	0.105500	0.342600	0.548000
C121	C12	0.165900	0.430500	0.505100
C131	C13	0.282000	0.512500	0.430300
C141	C14	0.375700	0.537600	0.373400
C151	C15	0.585800	0.841200	0.764500
C161	C16	0.683300	0.756500	0.773500
C171	C17	0.818500	0.646500	0.822500
C181	C18	0.898100	0.580900	0.881800
C191	C19	0.947000	0.642500	0.953900
C201	C20	0.948300	0.739100	0.057800
C211	C21	0.907300	0.807400	0.122800
C221	C22	0.424900	0.549100	0.150400
C231	C23	0.456600	0.626000	0.088500
C241	C24	0.444100	0.753900	0.005400
C251	C25	0.394500	0.842600	0.952000
C261	C26	0.334100	0.930500	0.994900
C271	C27	0.218000	0.012500	0.069700
C281	C28	0.124300	0.037600	0.126600
C291	C29	0.085800	0.658800	0.264500
C301	C30	0.183300	0.743500	0.273500
C311	C31	0.318500	0.853500	0.322500
C321	C32	0.398100	0.919100	0.381800
C331	C33	0.447000	0.857500	0.453900
C341	C34	0.448300	0.760900	0.557800
C351	C35	0.407300	0.692600	0.622800
C361	C36	0.924900	0.950900	0.650400
C371	C37	0.956600	0.874000	0.588500
C381	C38	0.944100	0.746100	0.505400
C391	C39	0.894500	0.657400	0.452000
C401	C40	0.834100	0.569500	0.494900
C411	C41	0.718000	0.487500	0.569700
C421	C42	0.624300	0.462400	0.626600
C431	C43	0.414200	0.158800	0.235500
C441	C44	0.316700	0.243500	0.226500
C451	C45	0.181500	0.353500	0.177500
C461	C46	0.101900	0.419100	0.118200
C471	C47	0.053000	0.357500	0.046100
C481	C48	0.051700	0.260900	0.942200
C491	C49	0.092700	0.192600	0.877200
C501	C50	0.575100	0.450900	0.849600
C511	C51	0.543400	0.374000	0.911500
C521	C52	0.555900	0.246100	0.994600
C531	C53	0.605500	0.157400	0.048000
C541	C54	0.665900	0.069500	0.005100
C551	C55	0.782000	0.987500	0.930300
C561	C56	0.875700	0.962400	0.873400
N11	N1	0.121700	0.204600	0.441600
N21	N2	0.936800	0.126100	0.442700
N31	N3	0.945100	0.209600	0.497100
N41	N4	0.251600	0.412800	0.452140
N51	N5	0.143700	0.532200	0.517300
N61	N6	0.219100	0.585000	0.467200
N71	N7	0.435500	0.207800	0.449400
N81	N8	0.436600	0.144700	0.517500
N91	N9	0.628900	0.200100	0.501600
N101	N10	0.771200	0.215700	0.656500
N111	N11	0.673400	0.142500	0.754400
N121	N12	0.761700	0.214800	0.785900
N131	N13	0.378300	0.704600	0.058400
N141	N14	0.563200	0.626100	0.057300
N151	N15	0.554900	0.709600	0.002900
N161	N16	0.248400	0.912800	0.047860
N171	N17	0.356300	0.032200	0.982700
N181	N18	0.280900	0.085000	0.032800
N191	N19	0.064500	0.707800	0.050600
N201	N20	0.063400	0.644700	0.982500
N211	N21	0.871100	0.700100	0.998400
N221	N22	0.728800	0.715700	0.843500
N231	N23	0.826600	0.642500	0.745600
N241	N24	0.738300	0.714800	0.714100
N251	N25	0.878300	0.795400	0.558400
N261	N26	0.063200	0.873900	0.557300
N271	N27	0.054900	0.790400	0.502900
N281	N28	0.748400	0.587200	0.547860
N291	N29	0.856300	0.467800	0.482700
N301	N30	0.780900	0.415000	0.532800
N311	N31	0.564500	0.792200	0.550600
N321	N32	0.563400	0.855300	0.482500
N331	N33	0.371100	0.799900	0.498400
N341	N34	0.228800	0.784300	0.343500
N351	N35	0.326600	0.857500	0.245600
N361	N36	0.238300	0.785200	0.214100
N371	N37	0.621700	0.295400	0.941600
N381	N38	0.436800	0.373900	0.942700
N391	N39	0.445100	0.290400	0.997100
N401	N40	0.751600	0.087200	0.952140
N411	N41	0.643700	0.967800	0.017300
N421	N42	0.719100	0.915000	0.967200
N431	N43	0.935500	0.292200	0.949400
N441	N44	0.936600	0.355300	0.017500
N451	N45	0.128900	0.299900	0.001600
N461	N46	0.271200	0.284300	0.156500
N471	N47	0.173400	0.357500	0.254400
N481	N48	0.261700	0.285200	0.285900
