data_PEGCIP_clean_PM
_symmetry_space_group_name_H-M	'P1'
_cell_length_a	19.293000
_cell_length_b	19.293000
_cell_length_c	20.838000
_cell_angle_alpha	90.000000
_cell_angle_beta	90.000000
_cell_angle_gamma	120.000000
_symmetry_Int_Tables_number 1

loop_
_symmetry_equiv_pos_as_xyz
'x,y,z'

loop_
_atom_site_label
_atom_site_type_symbol
_atom_site_fract_x
_atom_site_fract_y
_atom_site_fract_z
Zn11	Zn1	0.435690	0.722840	0.879870
Zn21	Zn2	0.368870	0.646590	0.042810
Zn31	Zn3	0.287150	0.564310	0.213200
Zn41	Zn4	0.277720	0.631130	0.376140
Zn51	Zn5	0.277160	0.712850	0.546540
Zn61	Zn6	0.353410	0.722280	0.709480
Zn71	Zn7	0.564310	0.277160	0.379870
Zn81	Zn8	0.631130	0.353410	0.542810
Zn91	Zn9	0.712850	0.435690	0.713200
Zn101	Zn10	0.722280	0.368870	0.876140
Zn111	Zn11	0.722840	0.287150	0.046540
Zn121	Zn12	0.646590	0.277720	0.209480
H11	H1	0.944500	0.351100	0.851800
H21	H2	0.930100	0.157300	0.993800
H31	H3	0.038700	0.309800	0.845500
H41	H4	0.837200	0.200800	0.000900
H51	H5	0.214500	0.489800	0.976900
H61	H6	0.127700	0.351200	0.980000
H71	H7	0.253500	0.323600	0.835500
H81	H8	0.340100	0.461700	0.833200
H91	H9	0.195700	0.735300	0.785500
H101	H10	0.112500	0.789900	0.795100
H111	H11	0.257200	0.939200	0.934000
H121	H12	0.339600	0.884300	0.924600
H131	H13	0.823000	0.673500	0.776800
H141	H14	0.916700	0.806200	0.799400
H151	H15	0.029000	0.731600	0.921600
H161	H16	0.933900	0.599100	0.899000
H171	H17	0.406600	0.055500	0.185130
H181	H18	0.227200	0.069900	0.327130
H191	H19	0.271100	0.961300	0.178830
H201	H20	0.363600	0.162800	0.334230
H211	H21	0.275300	0.785500	0.310230
H221	H22	0.223500	0.872300	0.313330
H231	H23	0.070100	0.746500	0.168830
H241	H24	0.121600	0.659900	0.166530
H251	H25	0.539600	0.804300	0.118830
H261	H26	0.677400	0.887500	0.128430
H271	H27	0.682000	0.742800	0.267330
H281	H28	0.544700	0.660400	0.257930
H291	H29	0.850500	0.177000	0.110130
H301	H30	0.889500	0.083300	0.132730
H311	H31	0.702600	0.971000	0.254930
H321	H32	0.665200	0.066100	0.232330
H331	H33	0.648900	0.593400	0.518470
H341	H34	0.842700	0.772800	0.660470
H351	H35	0.690200	0.728900	0.512170
H361	H36	0.799200	0.636400	0.667570
H371	H37	0.510200	0.724700	0.643570
H381	H38	0.648800	0.776500	0.646670
H391	H39	0.676400	0.929900	0.502170
H401	H40	0.538300	0.878400	0.499870
H411	H41	0.264700	0.460400	0.452170
H421	H42	0.210100	0.322600	0.461770
H431	H43	0.060800	0.318000	0.600670
H441	H44	0.115700	0.455300	0.591270
H451	H45	0.326500	0.149500	0.443470
H461	H46	0.193800	0.110500	0.466070
H471	H47	0.268400	0.297400	0.588270
H481	H48	0.400900	0.334800	0.565670
H491	H49	0.055500	0.648900	0.351800
H501	H50	0.069900	0.842700	0.493800
H511	H51	0.961300	0.690200	0.345500
H521	H52	0.162800	0.799200	0.500900
H531	H53	0.785500	0.510200	0.476900
H541	H54	0.872300	0.648800	0.480000
H551	H55	0.746500	0.676400	0.335500
H561	H56	0.659900	0.538300	0.333200
H571	H57	0.804300	0.264700	0.285500
H581	H58	0.887500	0.210100	0.295100
H591	H59	0.742800	0.060800	0.434000
H601	H60	0.660400	0.115700	0.424600
H611	H61	0.177000	0.326500	0.276800
H621	H62	0.083300	0.193800	0.299400
H631	H63	0.971000	0.268400	0.421600
H641	H64	0.066100	0.400900	0.399000
H651	H65	0.593400	0.944500	0.685130
H661	H66	0.772800	0.930100	0.827130
H671	H67	0.728900	0.038700	0.678830
H681	H68	0.636400	0.837200	0.834230
H691	H69	0.724700	0.214500	0.810230
H701	H70	0.776500	0.127700	0.813330
H711	H71	0.929900	0.253500	0.668830
H721	H72	0.878400	0.340100	0.666530
H731	H73	0.460400	0.195700	0.618830
H741	H74	0.322600	0.112500	0.628430
H751	H75	0.318000	0.257200	0.767330
H761	H76	0.455300	0.339600	0.757930
H771	H77	0.149500	0.823000	0.610130
H781	H78	0.110500	0.916700	0.632730
H791	H79	0.297400	0.029000	0.754930
H801	H80	0.334800	0.933900	0.732330
H811	H81	0.351100	0.406600	0.018470
H821	H82	0.157300	0.227200	0.160470
H831	H83	0.309800	0.271100	0.012170
H841	H84	0.200800	0.363600	0.167570
H851	H85	0.489800	0.275300	0.143570
H861	H86	0.351200	0.223500	0.146670
H871	H87	0.323600	0.070100	0.002170
H881	H88	0.461700	0.121600	0.999870
H891	H89	0.735300	0.539600	0.952170
H901	H90	0.789900	0.677400	0.961770
H911	H91	0.939200	0.682000	0.100670
H921	H92	0.884300	0.544700	0.091270
H931	H93	0.673500	0.850500	0.943470
H941	H94	0.806200	0.889500	0.966070
H951	H95	0.731600	0.702600	0.088270
H961	H96	0.599100	0.665200	0.065670
C11	C1	0.088100	0.085700	0.904330
C21	C2	0.087000	0.017000	0.896860
C31	C3	0.048200	0.196400	0.913280
C41	C4	0.128400	0.235800	0.909530
C51	C5	0.122500	0.904200	0.874600
C61	C6	0.042300	0.867400	0.874240
C71	C7	0.879900	0.277500	0.925620
C81	C8	0.941300	0.311200	0.880310
C91	C9	0.933000	0.196600	0.964830
C101	C10	0.993200	0.228900	0.918780
C111	C11	0.997300	0.287000	0.876720
C121	C12	0.877330	0.221910	0.968590
C131	C13	0.814770	0.298730	0.928010
C141	C14	0.285020	0.488660	0.904900
C151	C15	0.222340	0.455960	0.948390
C161	C16	0.170900	0.373600	0.950300
C171	C17	0.182700	0.323600	0.908350
C181	C18	0.245700	0.357100	0.864430
C191	C19	0.296900	0.439100	0.862880
C201	C20	0.341100	0.576300	0.902070
C211	C21	0.275600	0.803500	0.854220
C221	C22	0.208000	0.776500	0.816020
C231	C23	0.158300	0.808800	0.821810
C241	C24	0.175000	0.869000	0.866580
C251	C25	0.244000	0.897100	0.904130
C261	C26	0.293300	0.864800	0.898350
C271	C27	0.328000	0.767400	0.849090
C281	C28	0.869500	0.623200	0.835430
C291	C29	0.865100	0.685300	0.806210
C301	C30	0.921100	0.764300	0.819180
C311	C31	0.983300	0.781700	0.861080
C321	C32	0.987500	0.720000	0.891670
C331	C33	0.930700	0.641400	0.878270
C341	C34	0.810000	0.538300	0.819700
C351	C35	0.997600	0.911900	0.237660
C361	C36	0.930000	0.913000	0.230190
C371	C37	0.148200	0.951800	0.246610
C381	C38	0.107400	0.871600	0.242860
C391	C39	0.781700	0.877500	0.207930
C401	C40	0.825100	0.957700	0.207570
C411	C41	0.397600	0.120100	0.258950
C421	C42	0.369900	0.058700	0.213640
C431	C43	0.263600	0.067000	0.298160
C441	C44	0.235700	0.006800	0.252110
C451	C45	0.289700	0.002700	0.210050
C461	C46	0.344580	0.122670	0.301920
C471	C47	0.483960	0.185230	0.261340
C481	C48	0.203640	0.714980	0.238230
C491	C49	0.233620	0.777660	0.281720
C501	C50	0.202700	0.829100	0.283630
C511	C51	0.140900	0.817300	0.241680
C521	C52	0.111400	0.754300	0.197760
C531	C53	0.142200	0.703100	0.196210
C541	C54	0.235200	0.658900	0.235400
C551	C55	0.527900	0.724400	0.187550
C561	C56	0.568500	0.792000	0.149350
C571	C57	0.650500	0.841700	0.155140
C581	C58	0.694000	0.825000	0.199910
C591	C59	0.653100	0.756000	0.237460
C601	C60	0.571500	0.706700	0.231680
C611	C61	0.439400	0.672000	0.182420
C621	C62	0.753700	0.130500	0.168760
C631	C63	0.820200	0.134900	0.139540
C641	C64	0.843200	0.078900	0.152510
C651	C65	0.798400	0.016700	0.194410
C661	C66	0.732500	0.012500	0.225000
C671	C67	0.710700	0.069300	0.211600
C681	C68	0.728300	0.190000	0.153030
C691	C69	0.914300	0.002400	0.571000
C701	C70	0.983000	0.070000	0.563530
C711	C71	0.803600	0.851800	0.579950
C721	C72	0.764200	0.892600	0.576200
C731	C73	0.095800	0.218300	0.541270
C741	C74	0.132600	0.174900	0.540910
C751	C75	0.722500	0.602400	0.592290
C761	C76	0.688800	0.630100	0.546980
C771	C77	0.803400	0.736400	0.631500
C781	C78	0.771100	0.764300	0.585450
C791	C79	0.713000	0.710300	0.543390
C801	C80	0.778090	0.655420	0.635260
C811	C81	0.701270	0.516040	0.594680
C821	C82	0.511340	0.796360	0.571570
C831	C83	0.544040	0.766380	0.615060
C841	C84	0.626400	0.797300	0.616970
C851	C85	0.676400	0.859100	0.575020
C861	C86	0.642900	0.888600	0.531100
C871	C87	0.560900	0.857800	0.529550
C881	C88	0.423700	0.764800	0.568740
C891	C89	0.196500	0.472100	0.520890
C901	C90	0.223500	0.431500	0.482690
C911	C91	0.191200	0.349500	0.488480
C921	C92	0.131000	0.306000	0.533250
C931	C93	0.102900	0.346900	0.570800
C941	C94	0.135200	0.428500	0.565020
C951	C95	0.232600	0.560600	0.515760
C961	C96	0.376800	0.246300	0.502100
C971	C97	0.314700	0.179800	0.472880
C981	C98	0.235700	0.156800	0.485850
C991	C99	0.218300	0.201600	0.527750
C1001	C100	0.280000	0.267500	0.558340
C1011	C101	0.358600	0.289300	0.544940
C1021	C102	0.461700	0.271700	0.486370
C1031	C103	0.911900	0.914300	0.404330
C1041	C104	0.913000	0.983000	0.396860
C1051	C105	0.951800	0.803600	0.413280
C1061	C106	0.871600	0.764200	0.409530
C1071	C107	0.877500	0.095800	0.374600
C1081	C108	0.957700	0.132600	0.374240
C1091	C109	0.120100	0.722500	0.425620
C1101	C110	0.058700	0.688800	0.380310
C1111	C111	0.067000	0.803400	0.464830
C1121	C112	0.006800	0.771100	0.418780
C1131	C113	0.002700	0.713000	0.376720
C1141	C114	0.122670	0.778090	0.468590
C1151	C115	0.185230	0.701270	0.428010
C1161	C116	0.714980	0.511340	0.404900
C1171	C117	0.777660	0.544040	0.448390
C1181	C118	0.829100	0.626400	0.450300
C1191	C119	0.817300	0.676400	0.408350
C1201	C120	0.754300	0.642900	0.364430
C1211	C121	0.703100	0.560900	0.362880
C1221	C122	0.658900	0.423700	0.402070
C1231	C123	0.724400	0.196500	0.354220
C1241	C124	0.792000	0.223500	0.316020
C1251	C125	0.841700	0.191200	0.321810
C1261	C126	0.825000	0.131000	0.366580
C1271	C127	0.756000	0.102900	0.404130
C1281	C128	0.706700	0.135200	0.398350
C1291	C129	0.672000	0.232600	0.349090
C1301	C130	0.130500	0.376800	0.335430
C1311	C131	0.134900	0.314700	0.306210
C1321	C132	0.078900	0.235700	0.319180
C1331	C133	0.016700	0.218300	0.361080
C1341	C134	0.012500	0.280000	0.391670
C1351	C135	0.069300	0.358600	0.378270
C1361	C136	0.190000	0.461700	0.319700
C1371	C137	0.002400	0.088100	0.737660
C1381	C138	0.070000	0.087000	0.730190
C1391	C139	0.851800	0.048200	0.746610
C1401	C140	0.892600	0.128400	0.742860
C1411	C141	0.218300	0.122500	0.707930
C1421	C142	0.174900	0.042300	0.707570
C1431	C143	0.602400	0.879900	0.758950
C1441	C144	0.630100	0.941300	0.713640
C1451	C145	0.736400	0.933000	0.798160
C1461	C146	0.764300	0.993200	0.752110
C1471	C147	0.710300	0.997300	0.710050
C1481	C148	0.655420	0.877330	0.801920
C1491	C149	0.516040	0.814770	0.761340
C1501	C150	0.796360	0.285020	0.738230
C1511	C151	0.766380	0.222340	0.781720
C1521	C152	0.797300	0.170900	0.783630
C1531	C153	0.859100	0.182700	0.741680
C1541	C154	0.888600	0.245700	0.697760
C1551	C155	0.857800	0.296900	0.696210
C1561	C156	0.764800	0.341100	0.735400
C1571	C157	0.472100	0.275600	0.687550
C1581	C158	0.431500	0.208000	0.649350
C1591	C159	0.349500	0.158300	0.655140
C1601	C160	0.306000	0.175000	0.699910
C1611	C161	0.346900	0.244000	0.737460
C1621	C162	0.428500	0.293300	0.731680
C1631	C163	0.560600	0.328000	0.682420
C1641	C164	0.246300	0.869500	0.668760
C1651	C165	0.179800	0.865100	0.639540
C1661	C166	0.156800	0.921100	0.652510
C1671	C167	0.201600	0.983300	0.694410
C1681	C168	0.267500	0.987500	0.725000
C1691	C169	0.289300	0.930700	0.711600
C1701	C170	0.271700	0.810000	0.653030
C1711	C171	0.085700	0.997600	0.071000
C1721	C172	0.017000	0.930000	0.063530
C1731	C173	0.196400	0.148200	0.079950
C1741	C174	0.235800	0.107400	0.076200
C1751	C175	0.904200	0.781700	0.041270
C1761	C176	0.867400	0.825100	0.040910
C1771	C177	0.277500	0.397600	0.092290
C1781	C178	0.311200	0.369900	0.046980
C1791	C179	0.196600	0.263600	0.131500
C1801	C180	0.228900	0.235700	0.085450
C1811	C181	0.287000	0.289700	0.043390
C1821	C182	0.221910	0.344580	0.135260
C1831	C183	0.298730	0.483960	0.094680
C1841	C184	0.488660	0.203640	0.071570
C1851	C185	0.455960	0.233620	0.115060
C1861	C186	0.373600	0.202700	0.116970
C1871	C187	0.323600	0.140900	0.075020
C1881	C188	0.357100	0.111400	0.031100
C1891	C189	0.439100	0.142200	0.029550
C1901	C190	0.576300	0.235200	0.068740
C1911	C191	0.803500	0.527900	0.020890
C1921	C192	0.776500	0.568500	0.982690
C1931	C193	0.808800	0.650500	0.988480
C1941	C194	0.869000	0.694000	0.033250
C1951	C195	0.897100	0.653100	0.070800
C1961	C196	0.864800	0.571500	0.065020
C1971	C197	0.767400	0.439400	0.015760
C1981	C198	0.623200	0.753700	0.002100
C1991	C199	0.685300	0.820200	0.972880
C2001	C200	0.764300	0.843200	0.985850
C2011	C201	0.781700	0.798400	0.027750
C2021	C202	0.720000	0.732500	0.058340
C2031	C203	0.641400	0.710700	0.044940
C2041	C204	0.538300	0.728300	0.986370
S11	S1	0.000420	0.090990	0.914110
S21	S2	0.176640	0.178680	0.906340
S31	S3	0.173540	0.008490	0.890730
S41	S4	0.997500	0.924540	0.893100
S51	S5	0.090570	0.999580	0.247440
S61	S6	0.002040	0.823360	0.239670
S71	S7	0.834950	0.826460	0.224060
S81	S8	0.927040	0.002500	0.226430
S91	S9	0.909010	0.909430	0.580780
S101	S10	0.821320	0.997960	0.573010
S111	S11	0.991510	0.165050	0.557400
S121	S12	0.075460	0.072960	0.559770
S131	S13	0.999580	0.909010	0.414110
S141	S14	0.823360	0.821320	0.406340
S151	S15	0.826460	0.991510	0.390730
S161	S16	0.002500	0.075460	0.393100
S171	S17	0.909430	0.000420	0.747440
S181	S18	0.997960	0.176640	0.739670
S191	S19	0.165050	0.173540	0.724060
S201	S20	0.072960	0.997500	0.726430
S211	S21	0.090990	0.090570	0.080780
S221	S22	0.178680	0.002040	0.073010
S231	S23	0.008490	0.834950	0.057400
S241	S24	0.924540	0.927040	0.059770
O11	O1	0.817670	0.351490	0.891250
O21	O2	0.758460	0.258510	0.966730
O31	O3	0.393280	0.605480	0.858540
O41	O4	0.335470	0.622940	0.942490
O51	O5	0.385030	0.789680	0.889830
O61	O6	0.315340	0.716100	0.806490
O71	O7	0.807550	0.485000	0.854670
O81	O8	0.766540	0.527560	0.770180
O91	O9	0.533820	0.182330	0.224580
O101	O10	0.500050	0.241540	0.300060
O111	O11	0.212200	0.606720	0.191870
O121	O12	0.287470	0.664530	0.275820
O131	O13	0.404650	0.614970	0.223160
O141	O14	0.400760	0.684660	0.139820
O151	O15	0.677450	0.192450	0.188000
O161	O16	0.761020	0.233460	0.103510
O171	O17	0.648510	0.466180	0.557920
O181	O18	0.741490	0.499950	0.633400
O191	O19	0.394520	0.787800	0.525210
O201	O20	0.377060	0.712530	0.609160
O211	O21	0.210320	0.595350	0.556500
O221	O22	0.283900	0.599240	0.473160
O231	O23	0.515000	0.322550	0.521340
O241	O24	0.472440	0.238980	0.436850
O251	O25	0.182330	0.648510	0.391250
O261	O26	0.241540	0.741490	0.466730
O271	O27	0.606720	0.394520	0.358540
O281	O28	0.664530	0.377060	0.442490
O291	O29	0.614970	0.210320	0.389830
O301	O30	0.684660	0.283900	0.306490
O311	O31	0.192450	0.515000	0.354670
O321	O32	0.233460	0.472440	0.270180
O331	O33	0.466180	0.817670	0.724580
O341	O34	0.499950	0.758460	0.800060
O351	O35	0.787800	0.393280	0.691870
O361	O36	0.712530	0.335470	0.775820
O371	O37	0.595350	0.385030	0.723160
O381	O38	0.599240	0.315340	0.639820
O391	O39	0.322550	0.807550	0.688000
O401	O40	0.238980	0.766540	0.603510
O411	O41	0.351490	0.533820	0.057920
O421	O42	0.258510	0.500050	0.133400
O431	O43	0.605480	0.212200	0.025210
O441	O44	0.622940	0.287470	0.109160
O451	O45	0.789680	0.404650	0.056500
O461	O46	0.716100	0.400760	0.973160
O471	O47	0.485000	0.677450	0.021340
O481	O48	0.527560	0.761020	0.936850
