data_PEGCEL_clean_PM
_symmetry_space_group_name_H-M	'P1'
_cell_length_a	10.877000
_cell_length_b	12.829000
_cell_length_c	16.881000
_cell_angle_alpha	90.000000
_cell_angle_beta	94.445000
_cell_angle_gamma	90.000000
_symmetry_Int_Tables_number 1

loop_
_symmetry_equiv_pos_as_xyz
'x,y,z'

loop_
_atom_site_label
_atom_site_type_symbol
_atom_site_fract_x
_atom_site_fract_y
_atom_site_fract_z
Zn11	Zn1	0.276070	0.273140	0.405340
Zn21	Zn2	0.794730	0.260170	0.544910
Zn31	Zn3	0.223930	0.773140	0.094660
Zn41	Zn4	0.705270	0.760170	0.955090
Zn51	Zn5	0.723930	0.726860	0.594660
Zn61	Zn6	0.205270	0.739830	0.455090
Zn71	Zn7	0.776070	0.226860	0.905340
Zn81	Zn8	0.294730	0.239830	0.044910
H11	H1	0.933400	0.351600	0.793300
H21	H2	0.993200	0.306100	0.716800
H31	H3	0.891500	0.396300	0.706900
H41	H4	0.525700	0.063600	0.645600
H51	H5	0.643600	0.028600	0.601200
H61	H6	0.522300	0.334800	0.343900
H71	H7	0.628000	0.381700	0.404900
H81	H8	0.655500	0.281100	0.353100
H91	H9	0.016400	0.005400	0.343800
H101	H10	0.110600	0.087400	0.310500
H111	H11	0.155900	0.010500	0.381500
H121	H12	0.033600	0.377200	0.574400
H131	H13	0.163900	0.320100	0.589200
H141	H14	0.369900	0.612900	0.359100
H151	H15	0.449300	0.513100	0.388000
H161	H16	0.343300	0.502400	0.317300
H171	H17	0.566600	0.851600	0.706700
H181	H18	0.506800	0.806100	0.783200
H191	H19	0.608500	0.896300	0.793100
H201	H20	0.974300	0.563600	0.854400
H211	H21	0.856400	0.528600	0.898800
H221	H22	0.977700	0.834800	0.156100
H231	H23	0.872000	0.881700	0.095100
H241	H24	0.844500	0.781100	0.146900
H251	H25	0.483600	0.505400	0.156200
H261	H26	0.389400	0.587400	0.189500
H271	H27	0.344100	0.510500	0.118500
H281	H28	0.466400	0.877200	0.925600
H291	H29	0.336100	0.820100	0.910800
H301	H30	0.130100	0.112900	0.140900
H311	H31	0.050700	0.013100	0.112000
H321	H32	0.156700	0.002400	0.182700
H331	H33	0.066600	0.648400	0.206700
H341	H34	0.006800	0.693900	0.283200
H351	H35	0.108500	0.603700	0.293100
H361	H36	0.474300	0.936400	0.354400
H371	H37	0.356400	0.971400	0.398800
H381	H38	0.477700	0.665200	0.656100
H391	H39	0.372000	0.618300	0.595100
H401	H40	0.344500	0.718900	0.646900
H411	H41	0.983600	0.994600	0.656200
H421	H42	0.889400	0.912600	0.689500
H431	H43	0.844100	0.989500	0.618500
H441	H44	0.966400	0.622800	0.425600
H451	H45	0.836100	0.679900	0.410800
H461	H46	0.630100	0.387100	0.640900
H471	H47	0.550700	0.486900	0.612000
H481	H48	0.656700	0.497600	0.682700
H491	H49	0.433400	0.148400	0.293300
H501	H50	0.493200	0.193900	0.216800
H511	H51	0.391500	0.103700	0.206900
H521	H52	0.025700	0.436400	0.145600
H531	H53	0.143600	0.471400	0.101200
H541	H54	0.022300	0.165200	0.843900
H551	H55	0.128000	0.118300	0.904900
H561	H56	0.155500	0.218900	0.853100
H571	H57	0.516400	0.494600	0.843800
H581	H58	0.610600	0.412600	0.810500
H591	H59	0.655900	0.489500	0.881500
H601	H60	0.533600	0.122800	0.074400
H611	H61	0.663900	0.179900	0.089200
H621	H62	0.869900	0.887100	0.859100
H631	H63	0.949300	0.986900	0.888000
H641	H64	0.843300	0.997600	0.817300
C11	C1	0.917600	0.333700	0.737000
C21	C2	0.818400	0.253400	0.727700
C31	C3	0.679900	0.151000	0.678000
C41	C4	0.597500	0.089800	0.618800
C51	C5	0.551800	0.151500	0.547600
C61	C6	0.551000	0.248800	0.445200
C71	C7	0.592800	0.317500	0.381300
C81	C8	0.086300	0.051600	0.358200
C91	C9	0.050200	0.129900	0.416800
C101	C10	0.056600	0.258800	0.496000
C111	C11	0.103500	0.347600	0.547500
C121	C12	0.163500	0.433800	0.504200
C131	C13	0.275800	0.512900	0.426800
C141	C14	0.367500	0.537400	0.367700
C151	C15	0.582400	0.833700	0.763000
C161	C16	0.681600	0.753400	0.772300
C171	C17	0.820100	0.651000	0.822000
C181	C18	0.902500	0.589800	0.881200
C191	C19	0.948200	0.651500	0.952400
C201	C20	0.949000	0.748800	0.054800
C211	C21	0.907200	0.817500	0.118700
C221	C22	0.413700	0.551600	0.141800
C231	C23	0.449800	0.629900	0.083200
C241	C24	0.443400	0.758800	0.004000
C251	C25	0.396500	0.847600	0.952500
C261	C26	0.336500	0.933800	0.995800
C271	C27	0.224200	0.012900	0.073200
C281	C28	0.132500	0.037400	0.132300
C291	C29	0.082400	0.666300	0.263000
C301	C30	0.181600	0.746600	0.272300
C311	C31	0.320100	0.849000	0.322000
C321	C32	0.402500	0.910200	0.381200
C331	C33	0.448200	0.848500	0.452400
C341	C34	0.449000	0.751200	0.554800
C351	C35	0.407200	0.682500	0.618700
C361	C36	0.913700	0.948400	0.641800
C371	C37	0.949800	0.870100	0.583200
C381	C38	0.943400	0.741200	0.504000
C391	C39	0.896500	0.652400	0.452500
C401	C40	0.836500	0.566200	0.495800
C411	C41	0.724200	0.487100	0.573200
C421	C42	0.632500	0.462600	0.632300
C431	C43	0.417600	0.166300	0.237000
C441	C44	0.318400	0.246600	0.227700
C451	C45	0.179900	0.349000	0.178000
C461	C46	0.097500	0.410200	0.118800
C471	C47	0.051800	0.348500	0.047600
C481	C48	0.051000	0.251200	0.945200
C491	C49	0.092800	0.182500	0.881300
C501	C50	0.586300	0.448400	0.858200
C511	C51	0.550200	0.370100	0.916800
C521	C52	0.556600	0.241200	0.996000
C531	C53	0.603500	0.152400	0.047500
C541	C54	0.663500	0.066200	0.004200
C551	C55	0.775800	0.987100	0.926800
C561	C56	0.867500	0.962600	0.867700
N11	N1	0.124200	0.209100	0.444600
N21	N2	0.941200	0.130400	0.447500
N31	N3	0.947200	0.214800	0.498700
N41	N4	0.247000	0.416100	0.449560
N51	N5	0.141800	0.532600	0.515740
N61	N6	0.214900	0.584500	0.464500
N71	N7	0.435900	0.217800	0.452000
N81	N8	0.435500	0.154300	0.519000
N91	N9	0.627600	0.209300	0.504250
N101	N10	0.770800	0.216500	0.657420
N111	N11	0.671400	0.144800	0.755000
N121	N12	0.761700	0.212800	0.787200
N131	N13	0.375800	0.709100	0.055400
N141	N14	0.558800	0.630400	0.052500
N151	N15	0.552800	0.714800	0.001300
N161	N16	0.253000	0.916100	0.050440
N171	N17	0.358200	0.032600	0.984260
N181	N18	0.285100	0.084500	0.035500
N191	N19	0.064100	0.717800	0.048000
N201	N20	0.064500	0.654300	0.981000
N211	N21	0.872400	0.709300	0.995750
N221	N22	0.729200	0.716500	0.842580
N231	N23	0.828600	0.644800	0.745000
N241	N24	0.738300	0.712800	0.712800
N251	N25	0.875800	0.790900	0.555400
N261	N26	0.058800	0.869600	0.552500
N271	N27	0.052800	0.785200	0.501300
N281	N28	0.753000	0.583900	0.550440
N291	N29	0.858200	0.467400	0.484260
N301	N30	0.785100	0.415500	0.535500
N311	N31	0.564100	0.782200	0.548000
N321	N32	0.564500	0.845700	0.481000
N331	N33	0.372400	0.790700	0.495750
N341	N34	0.229200	0.783500	0.342580
N351	N35	0.328600	0.855200	0.245000
N361	N36	0.238300	0.787200	0.212800
N371	N37	0.624200	0.290900	0.944600
N381	N38	0.441200	0.369600	0.947500
N391	N39	0.447200	0.285200	0.998700
N401	N40	0.747000	0.083900	0.949560
N411	N41	0.641800	0.967400	0.015740
N421	N42	0.714900	0.915500	0.964500
N431	N43	0.935900	0.282200	0.952000
N441	N44	0.935500	0.345700	0.019000
N451	N45	0.127600	0.290700	0.004250
N461	N46	0.270800	0.283500	0.157420
N471	N47	0.171400	0.355200	0.255000
N481	N48	0.261700	0.287200	0.287200
