data_PEGPOI_clean_PM
_symmetry_space_group_name_H-M	'P1'
_cell_length_a	20.154700
_cell_length_b	20.154700
_cell_length_c	15.905000
_cell_angle_alpha	90.000000
_cell_angle_beta	90.000000
_cell_angle_gamma	90.000000
_symmetry_Int_Tables_number 1

loop_
_symmetry_equiv_pos_as_xyz
'x,y,z'

loop_
_atom_site_label
_atom_site_type_symbol
_atom_site_fract_x
_atom_site_fract_y
_atom_site_fract_z
Y11	Y1	0.292660	0.173020	0.908810
Y21	Y2	0.293270	0.819100	0.830830
C11	C1	0.277900	0.998100	0.848700
H11	H1	0.246200	0.003100	0.806700
C21	C2	0.347200	0.019400	0.943100
C31	C3	0.343600	0.950800	0.935800
C41	C4	0.378100	0.894900	0.974300
C51	C5	0.382800	0.062900	0.999600
C61	C6	0.162500	0.078000	0.973600
H21	H2	0.157700	0.059000	0.920700
C71	C7	0.196700	0.140600	0.073300
C81	C8	0.147100	0.099600	0.103000
C91	C9	0.118600	0.087000	0.187200
C101	C10	0.237900	0.192800	0.108900
N11	N1	0.299500	0.936900	0.873400
N21	N2	0.303600	0.048500	0.886200
N31	N3	0.206100	0.125500	0.989800
N41	N4	0.126500	0.059900	0.039100
O11	O1	0.365700	0.838300	0.943100
O21	O2	0.417700	0.900900	0.034800
O31	O3	0.414300	0.042400	0.062600
O41	O4	0.379900	0.124800	0.983600
O51	O5	0.080800	0.036700	0.192500
O61	O6	0.132700	0.125000	0.247200
O71	O7	0.229800	0.216700	0.182400
O81	O8	0.282700	0.216500	0.062300
Y31	Y3	0.792660	0.673020	0.408810
Y41	Y4	0.793270	0.319100	0.330830
C111	C11	0.777900	0.498100	0.348700
H31	H3	0.746200	0.503100	0.306700
C121	C12	0.847200	0.519400	0.443100
C131	C13	0.843600	0.450800	0.435800
C141	C14	0.878100	0.394900	0.474300
C151	C15	0.882800	0.562900	0.499600
C161	C16	0.662500	0.578000	0.473600
H41	H4	0.657700	0.559000	0.420700
C171	C17	0.696700	0.640600	0.573300
C181	C18	0.647100	0.599600	0.603000
C191	C19	0.618600	0.587000	0.687200
C201	C20	0.737900	0.692800	0.608900
N51	N5	0.799500	0.436900	0.373400
N61	N6	0.803600	0.548500	0.386200
N71	N7	0.706100	0.625500	0.489800
N81	N8	0.626500	0.559900	0.539100
O91	O9	0.865700	0.338300	0.443100
O101	O10	0.917700	0.400900	0.534800
O111	O11	0.914300	0.542400	0.562600
O121	O12	0.879900	0.624800	0.483600
O131	O13	0.580800	0.536700	0.692500
O141	O14	0.632700	0.625000	0.747200
O151	O15	0.729800	0.716700	0.682400
O161	O16	0.782700	0.716500	0.562300
Y51	Y5	0.207340	0.826980	0.408810
Y61	Y6	0.206730	0.180900	0.330830
C211	C21	0.222100	0.001900	0.348700
H51	H5	0.253800	0.996900	0.306700
C221	C22	0.152800	0.980600	0.443100
C231	C23	0.156400	0.049200	0.435800
C241	C24	0.121900	0.105100	0.474300
C251	C25	0.117200	0.937100	0.499600
C261	C26	0.337500	0.922000	0.473600
H61	H6	0.342300	0.941000	0.420700
C271	C27	0.303300	0.859400	0.573300
C281	C28	0.352900	0.900400	0.603000
C291	C29	0.381400	0.913000	0.687200
C301	C30	0.262100	0.807200	0.608900
N91	N9	0.200500	0.063100	0.373400
N101	N10	0.196400	0.951500	0.386200
N111	N11	0.293900	0.874500	0.489800
N121	N12	0.373500	0.940100	0.539100
O171	O17	0.134300	0.161700	0.443100
O181	O18	0.082300	0.099100	0.534800
O191	O19	0.085700	0.957600	0.562600
O201	O20	0.120100	0.875200	0.483600
O211	O21	0.419200	0.963300	0.692500
O221	O22	0.367300	0.875000	0.747200
O231	O23	0.270200	0.783300	0.682400
O241	O24	0.217300	0.783500	0.562300
Y71	Y7	0.707340	0.326980	0.908810
Y81	Y8	0.706730	0.680900	0.830830
C311	C31	0.722100	0.501900	0.848700
H71	H7	0.753800	0.496900	0.806700
C321	C32	0.652800	0.480600	0.943100
C331	C33	0.656400	0.549200	0.935800
C341	C34	0.621900	0.605100	0.974300
C351	C35	0.617200	0.437100	0.999600
C361	C36	0.837500	0.422000	0.973600
H81	H8	0.842300	0.441000	0.920700
C371	C37	0.803300	0.359400	0.073300
C381	C38	0.852900	0.400400	0.103000
C391	C39	0.881400	0.413000	0.187200
C401	C40	0.762100	0.307200	0.108900
N131	N13	0.700500	0.563100	0.873400
N141	N14	0.696400	0.451500	0.886200
N151	N15	0.793900	0.374500	0.989800
N161	N16	0.873500	0.440100	0.039100
O251	O25	0.634300	0.661700	0.943100
O261	O26	0.582300	0.599100	0.034800
O271	O27	0.585700	0.457600	0.062600
O281	O28	0.620100	0.375200	0.983600
O291	O29	0.919200	0.463300	0.192500
O301	O30	0.867300	0.375000	0.247200
O311	O31	0.770200	0.283300	0.182400
O321	O32	0.717300	0.283500	0.062300
Y91	Y9	0.576980	0.542660	0.158810
Y101	Y10	0.930900	0.543270	0.080830
C411	C41	0.751900	0.527900	0.098700
H91	H9	0.746900	0.496200	0.056700
C421	C42	0.730600	0.597200	0.193100
C431	C43	0.799200	0.593600	0.185800
C441	C44	0.855100	0.628100	0.224300
C451	C45	0.687100	0.632800	0.249600
C461	C46	0.672000	0.412500	0.223600
H101	H10	0.691000	0.407700	0.170700
C471	C47	0.609400	0.446700	0.323300
C481	C48	0.650400	0.397100	0.353000
C491	C49	0.663000	0.368600	0.437200
C501	C50	0.557200	0.487900	0.358900
N171	N17	0.813100	0.549500	0.123400
N181	N18	0.701500	0.553600	0.136200
N191	N19	0.624500	0.456100	0.239800
N201	N20	0.690100	0.376500	0.289100
O331	O33	0.911700	0.615700	0.193100
O341	O34	0.849100	0.667700	0.284800
O351	O35	0.707600	0.664300	0.312600
O361	O36	0.625200	0.629900	0.233600
O371	O37	0.713300	0.330800	0.442500
O381	O38	0.625000	0.382700	0.497200
O391	O39	0.533300	0.479800	0.432400
O401	O40	0.533500	0.532700	0.312300
Y111	Y11	0.076980	0.042660	0.658810
Y121	Y12	0.430900	0.043270	0.580830
C511	C51	0.251900	0.027900	0.598700
H111	H11	0.246900	0.996200	0.556700
C521	C52	0.230600	0.097200	0.693100
C531	C53	0.299200	0.093600	0.685800
C541	C54	0.355100	0.128100	0.724300
C551	C55	0.187100	0.132800	0.749600
C561	C56	0.172000	0.912500	0.723600
H121	H12	0.191000	0.907700	0.670700
C571	C57	0.109400	0.946700	0.823300
C581	C58	0.150400	0.897100	0.853000
C591	C59	0.163000	0.868600	0.937200
C601	C60	0.057200	0.987900	0.858900
N211	N21	0.313100	0.049500	0.623400
N221	N22	0.201500	0.053600	0.636200
N231	N23	0.124500	0.956100	0.739800
N241	N24	0.190100	0.876500	0.789100
O411	O41	0.411700	0.115700	0.693100
O421	O42	0.349100	0.167700	0.784800
O431	O43	0.207600	0.164300	0.812600
O441	O44	0.125200	0.129900	0.733600
O451	O45	0.213300	0.830800	0.942500
O461	O46	0.125000	0.882700	0.997200
O471	O47	0.033300	0.979800	0.932400
O481	O48	0.033500	0.032700	0.812300
Y131	Y13	0.923020	0.457340	0.658810
Y141	Y14	0.569100	0.456730	0.580830
C611	C61	0.748100	0.472100	0.598700
H131	H13	0.753100	0.503800	0.556700
C621	C62	0.769400	0.402800	0.693100
C631	C63	0.700800	0.406400	0.685800
C641	C64	0.644900	0.371900	0.724300
C651	C65	0.812900	0.367200	0.749600
C661	C66	0.828000	0.587500	0.723600
H141	H14	0.809000	0.592300	0.670700
C671	C67	0.890600	0.553300	0.823300
C681	C68	0.849600	0.602900	0.853000
C691	C69	0.837000	0.631400	0.937200
C701	C70	0.942800	0.512100	0.858900
N251	N25	0.686900	0.450500	0.623400
N261	N26	0.798500	0.446400	0.636200
N271	N27	0.875500	0.543900	0.739800
N281	N28	0.809900	0.623500	0.789100
O491	O49	0.588300	0.384300	0.693100
O501	O50	0.650900	0.332300	0.784800
O511	O51	0.792400	0.335700	0.812600
O521	O52	0.874800	0.370100	0.733600
O531	O53	0.786700	0.669200	0.942500
O541	O54	0.875000	0.617300	0.997200
O551	O55	0.966700	0.520200	0.932400
O561	O56	0.966500	0.467300	0.812300
Y151	Y15	0.423020	0.957340	0.158810
Y161	Y16	0.069100	0.956730	0.080830
C711	C71	0.248100	0.972100	0.098700
H151	H15	0.253100	0.003800	0.056700
C721	C72	0.269400	0.902800	0.193100
C731	C73	0.200800	0.906400	0.185800
C741	C74	0.144900	0.871900	0.224300
C751	C75	0.312900	0.867200	0.249600
C761	C76	0.328000	0.087500	0.223600
H161	H16	0.309000	0.092300	0.170700
C771	C77	0.390600	0.053300	0.323300
C781	C78	0.349600	0.102900	0.353000
C791	C79	0.337000	0.131400	0.437200
C801	C80	0.442800	0.012100	0.358900
N291	N29	0.186900	0.950500	0.123400
N301	N30	0.298500	0.946400	0.136200
N311	N31	0.375500	0.043900	0.239800
N321	N32	0.309900	0.123500	0.289100
O571	O57	0.088300	0.884300	0.193100
O581	O58	0.150900	0.832300	0.284800
O591	O59	0.292400	0.835700	0.312600
O601	O60	0.374800	0.870100	0.233600
O611	O61	0.286700	0.169200	0.442500
O621	O62	0.375000	0.117300	0.497200
O631	O63	0.466700	0.020200	0.432400
O641	O64	0.466500	0.967300	0.312300
Y171	Y17	0.707340	0.826980	0.091190
Y181	Y18	0.706730	0.180900	0.169170
C811	C81	0.722100	0.001900	0.151300
H171	H17	0.753800	0.996900	0.193300
C821	C82	0.652800	0.980600	0.056900
C831	C83	0.656400	0.049200	0.064200
C841	C84	0.621900	0.105100	0.025700
C851	C85	0.617200	0.937100	0.000400
C861	C86	0.837500	0.922000	0.026400
H181	H18	0.842300	0.941000	0.079300
C871	C87	0.803300	0.859400	0.926700
C881	C88	0.852900	0.900400	0.897000
C891	C89	0.881400	0.913000	0.812800
C901	C90	0.762100	0.807200	0.891100
N331	N33	0.700500	0.063100	0.126600
N341	N34	0.696400	0.951500	0.113800
N351	N35	0.793900	0.874500	0.010200
N361	N36	0.873500	0.940100	0.960900
O651	O65	0.634300	0.161700	0.056900
O661	O66	0.582300	0.099100	0.965200
O671	O67	0.585700	0.957600	0.937400
O681	O68	0.620100	0.875200	0.016400
O691	O69	0.919200	0.963300	0.807500
O701	O70	0.867300	0.875000	0.752800
O711	O71	0.770200	0.783300	0.817600
O721	O72	0.717300	0.783500	0.937700
Y191	Y19	0.207340	0.326980	0.591190
Y201	Y20	0.206730	0.680900	0.669170
C911	C91	0.222100	0.501900	0.651300
H191	H19	0.253800	0.496900	0.693300
C921	C92	0.152800	0.480600	0.556900
C931	C93	0.156400	0.549200	0.564200
C941	C94	0.121900	0.605100	0.525700
C951	C95	0.117200	0.437100	0.500400
C961	C96	0.337500	0.422000	0.526400
H201	H20	0.342300	0.441000	0.579300
C971	C97	0.303300	0.359400	0.426700
C981	C98	0.352900	0.400400	0.397000
C991	C99	0.381400	0.413000	0.312800
C1001	C100	0.262100	0.307200	0.391100
N371	N37	0.200500	0.563100	0.626600
N381	N38	0.196400	0.451500	0.613800
N391	N39	0.293900	0.374500	0.510200
N401	N40	0.373500	0.440100	0.460900
O731	O73	0.134300	0.661700	0.556900
O741	O74	0.082300	0.599100	0.465200
O751	O75	0.085700	0.457600	0.437400
O761	O76	0.120100	0.375200	0.516400
O771	O77	0.419200	0.463300	0.307500
O781	O78	0.367300	0.375000	0.252800
O791	O79	0.270200	0.283300	0.317600
O801	O80	0.217300	0.283500	0.437700
Y211	Y21	0.792660	0.173020	0.591190
Y221	Y22	0.793270	0.819100	0.669170
C1011	C101	0.777900	0.998100	0.651300
H211	H21	0.746200	0.003100	0.693300
C1021	C102	0.847200	0.019400	0.556900
C1031	C103	0.843600	0.950800	0.564200
C1041	C104	0.878100	0.894900	0.525700
C1051	C105	0.882800	0.062900	0.500400
C1061	C106	0.662500	0.078000	0.526400
H221	H22	0.657700	0.059000	0.579300
C1071	C107	0.696700	0.140600	0.426700
C1081	C108	0.647100	0.099600	0.397000
C1091	C109	0.618600	0.087000	0.312800
C1101	C110	0.737900	0.192800	0.391100
N411	N41	0.799500	0.936900	0.626600
N421	N42	0.803600	0.048500	0.613800
N431	N43	0.706100	0.125500	0.510200
N441	N44	0.626500	0.059900	0.460900
O811	O81	0.865700	0.838300	0.556900
O821	O82	0.917700	0.900900	0.465200
O831	O83	0.914300	0.042400	0.437400
O841	O84	0.879900	0.124800	0.516400
O851	O85	0.580800	0.036700	0.307500
O861	O86	0.632700	0.125000	0.252800
O871	O87	0.729800	0.216700	0.317600
O881	O88	0.782700	0.216500	0.437700
Y231	Y23	0.292660	0.673020	0.091190
Y241	Y24	0.293270	0.319100	0.169170
C1111	C111	0.277900	0.498100	0.151300
H231	H23	0.246200	0.503100	0.193300
C1121	C112	0.347200	0.519400	0.056900
C1131	C113	0.343600	0.450800	0.064200
C1141	C114	0.378100	0.394900	0.025700
C1151	C115	0.382800	0.562900	0.000400
C1161	C116	0.162500	0.578000	0.026400
H241	H24	0.157700	0.559000	0.079300
C1171	C117	0.196700	0.640600	0.926700
C1181	C118	0.147100	0.599600	0.897000
C1191	C119	0.118600	0.587000	0.812800
C1201	C120	0.237900	0.692800	0.891100
N451	N45	0.299500	0.436900	0.126600
N461	N46	0.303600	0.548500	0.113800
N471	N47	0.206100	0.625500	0.010200
N481	N48	0.126500	0.559900	0.960900
O891	O89	0.365700	0.338300	0.056900
O901	O90	0.417700	0.400900	0.965200
O911	O91	0.414300	0.542400	0.937400
O921	O92	0.379900	0.624800	0.016400
O931	O93	0.080800	0.536700	0.807500
O941	O94	0.132700	0.625000	0.752800
O951	O95	0.229800	0.716700	0.817600
O961	O96	0.282700	0.716500	0.937700
Y251	Y25	0.423020	0.457340	0.841190
Y261	Y26	0.069100	0.456730	0.919170
C1211	C121	0.248100	0.472100	0.901300
H251	H25	0.253100	0.503800	0.943300
C1221	C122	0.269400	0.402800	0.806900
C1231	C123	0.200800	0.406400	0.814200
C1241	C124	0.144900	0.371900	0.775700
C1251	C125	0.312900	0.367200	0.750400
C1261	C126	0.328000	0.587500	0.776400
H261	H26	0.309000	0.592300	0.829300
C1271	C127	0.390600	0.553300	0.676700
C1281	C128	0.349600	0.602900	0.647000
C1291	C129	0.337000	0.631400	0.562800
C1301	C130	0.442800	0.512100	0.641100
N491	N49	0.186900	0.450500	0.876600
N501	N50	0.298500	0.446400	0.863800
N511	N51	0.375500	0.543900	0.760200
N521	N52	0.309900	0.623500	0.710900
O971	O97	0.088300	0.384300	0.806900
O981	O98	0.150900	0.332300	0.715200
O991	O99	0.292400	0.335700	0.687400
O1001	O100	0.374800	0.370100	0.766400
O1011	O101	0.286700	0.669200	0.557500
O1021	O102	0.375000	0.617300	0.502800
O1031	O103	0.466700	0.520200	0.567600
O1041	O104	0.466500	0.467300	0.687700
Y271	Y27	0.923020	0.957340	0.341190
Y281	Y28	0.569100	0.956730	0.419170
C1311	C131	0.748100	0.972100	0.401300
H271	H27	0.753100	0.003800	0.443300
C1321	C132	0.769400	0.902800	0.306900
C1331	C133	0.700800	0.906400	0.314200
C1341	C134	0.644900	0.871900	0.275700
C1351	C135	0.812900	0.867200	0.250400
C1361	C136	0.828000	0.087500	0.276400
H281	H28	0.809000	0.092300	0.329300
C1371	C137	0.890600	0.053300	0.176700
C1381	C138	0.849600	0.102900	0.147000
C1391	C139	0.837000	0.131400	0.062800
C1401	C140	0.942800	0.012100	0.141100
N531	N53	0.686900	0.950500	0.376600
N541	N54	0.798500	0.946400	0.363800
N551	N55	0.875500	0.043900	0.260200
N561	N56	0.809900	0.123500	0.210900
O1051	O105	0.588300	0.884300	0.306900
O1061	O106	0.650900	0.832300	0.215200
O1071	O107	0.792400	0.835700	0.187400
O1081	O108	0.874800	0.870100	0.266400
O1091	O109	0.786700	0.169200	0.057500
O1101	O110	0.875000	0.117300	0.002800
O1111	O111	0.966700	0.020200	0.067600
O1121	O112	0.966500	0.967300	0.187700
Y291	Y29	0.076980	0.542660	0.341190
Y301	Y30	0.430900	0.543270	0.419170
C1411	C141	0.251900	0.527900	0.401300
H291	H29	0.246900	0.496200	0.443300
C1421	C142	0.230600	0.597200	0.306900
C1431	C143	0.299200	0.593600	0.314200
C1441	C144	0.355100	0.628100	0.275700
C1451	C145	0.187100	0.632800	0.250400
C1461	C146	0.172000	0.412500	0.276400
H301	H30	0.191000	0.407700	0.329300
C1471	C147	0.109400	0.446700	0.176700
C1481	C148	0.150400	0.397100	0.147000
C1491	C149	0.163000	0.368600	0.062800
C1501	C150	0.057200	0.487900	0.141100
N571	N57	0.313100	0.549500	0.376600
N581	N58	0.201500	0.553600	0.363800
N591	N59	0.124500	0.456100	0.260200
N601	N60	0.190100	0.376500	0.210900
O1131	O113	0.411700	0.615700	0.306900
O1141	O114	0.349100	0.667700	0.215200
O1151	O115	0.207600	0.664300	0.187400
O1161	O116	0.125200	0.629900	0.266400
O1171	O117	0.213300	0.330800	0.057500
O1181	O118	0.125000	0.382700	0.002800
O1191	O119	0.033300	0.479800	0.067600
O1201	O120	0.033500	0.532700	0.187700
Y311	Y31	0.576980	0.042660	0.841190
Y321	Y32	0.930900	0.043270	0.919170
C1511	C151	0.751900	0.027900	0.901300
H311	H31	0.746900	0.996200	0.943300
C1521	C152	0.730600	0.097200	0.806900
C1531	C153	0.799200	0.093600	0.814200
C1541	C154	0.855100	0.128100	0.775700
C1551	C155	0.687100	0.132800	0.750400
C1561	C156	0.672000	0.912500	0.776400
H321	H32	0.691000	0.907700	0.829300
C1571	C157	0.609400	0.946700	0.676700
C1581	C158	0.650400	0.897100	0.647000
C1591	C159	0.663000	0.868600	0.562800
C1601	C160	0.557200	0.987900	0.641100
N611	N61	0.813100	0.049500	0.876600
N621	N62	0.701500	0.053600	0.863800
N631	N63	0.624500	0.956100	0.760200
N641	N64	0.690100	0.876500	0.710900
O1211	O121	0.911700	0.115700	0.806900
O1221	O122	0.849100	0.167700	0.715200
O1231	O123	0.707600	0.164300	0.687400
O1241	O124	0.625200	0.129900	0.766400
O1251	O125	0.713300	0.830800	0.557500
O1261	O126	0.625000	0.882700	0.502800
O1271	O127	0.533300	0.979800	0.567600
O1281	O128	0.533500	0.032700	0.687700
