data_PEGPUO_clean_PM
_symmetry_space_group_name_H-M	'P1'
_cell_length_a	16.600400
_cell_length_b	16.600400
_cell_length_c	16.600400
_cell_angle_alpha	104.573000
_cell_angle_beta	104.573000
_cell_angle_gamma	119.786000
_symmetry_Int_Tables_number 1

loop_
_symmetry_equiv_pos_as_xyz
'x,y,z'

loop_
_atom_site_label
_atom_site_type_symbol
_atom_site_fract_x
_atom_site_fract_y
_atom_site_fract_z
Pr11	Pr1	0.745100	0.761640	0.361180
Pr21	Pr2	0.488830	0.870840	0.017910
Pr31	Pr3	0.900460	0.383920	0.138820
Pr41	Pr4	0.352930	0.470920	0.482090
Pr51	Pr5	0.883920	0.245100	0.483460
Pr61	Pr6	0.970920	0.988830	0.117990
Pr71	Pr7	0.261640	0.400460	0.016540
Pr81	Pr8	0.370840	0.852930	0.382010
Pr91	Pr9	0.254900	0.238360	0.638820
Pr101	Pr10	0.511170	0.129160	0.982090
Pr111	Pr11	0.099540	0.616080	0.861180
Pr121	Pr12	0.647070	0.529080	0.517910
Pr131	Pr13	0.116080	0.754900	0.516540
Pr141	Pr14	0.029080	0.011170	0.882010
Pr151	Pr15	0.738360	0.599540	0.983460
Pr161	Pr16	0.629160	0.147070	0.617990
H11	H1	0.686700	0.912500	0.236200
H21	H2	0.623000	0.896100	0.385300
H31	H3	0.176300	0.450500	0.263800
H41	H4	0.010800	0.237700	0.114700
H51	H5	0.950500	0.186700	0.274200
H61	H6	0.737700	0.123000	0.226900
H71	H7	0.412500	0.676300	0.225800
H81	H8	0.396100	0.510800	0.273100
H91	H9	0.313300	0.087500	0.763800
H101	H10	0.377000	0.103900	0.614700
H111	H11	0.823700	0.549500	0.736200
H121	H12	0.989200	0.762300	0.885300
H131	H13	0.049500	0.813300	0.725800
H141	H14	0.262300	0.877000	0.773100
H151	H15	0.587500	0.323700	0.774200
H161	H16	0.603900	0.489200	0.726900
C11	C1	0.635000	0.841500	0.200700
C21	C2	0.550400	0.680000	0.153800
C31	C3	0.497500	0.697200	0.089900
C41	C4	0.401500	0.632800	0.000300
C51	C5	0.531000	0.584300	0.163300
C61	C6	0.590800	0.843100	0.401900
C71	C7	0.556300	0.717900	0.435400
C81	C8	0.489700	0.743900	0.444600
C91	C9	0.400400	0.698600	0.466800
C101	C10	0.573500	0.642300	0.447800
C111	C11	0.140800	0.434300	0.299300
C121	C12	0.026200	0.396600	0.346200
C131	C13	0.107300	0.407600	0.410100
C141	C14	0.132500	0.401200	0.499700
C151	C15	0.921000	0.367700	0.336700
C161	C16	0.941200	0.188900	0.098100
C171	C17	0.782500	0.120900	0.064600
C181	C18	0.799300	0.045100	0.055400
C191	C19	0.731800	0.933600	0.033200
C201	C20	0.694500	0.125700	0.052200
C211	C21	0.934300	0.135000	0.293500
C221	C22	0.896600	0.050400	0.370400
C231	C23	0.907600	0.997500	0.300300
C241	C24	0.901200	0.901500	0.268700
C251	C25	0.867700	0.031000	0.446700
C261	C26	0.688900	0.090800	0.247700
C271	C27	0.620900	0.056300	0.338400
C281	C28	0.545100	0.989700	0.245800
C291	C29	0.433600	0.900400	0.201800
C301	C30	0.625700	0.073500	0.431200
C311	C31	0.341500	0.640800	0.206500
C321	C32	0.180000	0.526200	0.129600
C331	C33	0.197200	0.607300	0.199700
C341	C34	0.132800	0.632500	0.231300
C351	C35	0.084300	0.421000	0.053300
C361	C36	0.343100	0.441200	0.252300
C371	C37	0.217900	0.282500	0.161600
C381	C38	0.243900	0.299300	0.254200
C391	C39	0.198600	0.231800	0.298200
C401	C40	0.142300	0.194500	0.068800
C411	C41	0.365000	0.158500	0.799300
C421	C42	0.449600	0.320000	0.846200
C431	C43	0.502500	0.302800	0.910100
C441	C44	0.598500	0.367200	0.999700
C451	C45	0.469000	0.415700	0.836700
C461	C46	0.409200	0.156900	0.598100
C471	C47	0.443700	0.282100	0.564600
C481	C48	0.510300	0.256100	0.555400
C491	C49	0.599600	0.301400	0.533200
C501	C50	0.426500	0.357700	0.552200
C511	C51	0.859200	0.565700	0.700700
C521	C52	0.973800	0.603400	0.653800
C531	C53	0.892700	0.592400	0.589900
C541	C54	0.867500	0.598800	0.500300
C551	C55	0.079000	0.632300	0.663300
C561	C56	0.058800	0.811100	0.901900
C571	C57	0.217500	0.879100	0.935400
C581	C58	0.200700	0.954900	0.944600
C591	C59	0.268200	0.066400	0.966800
C601	C60	0.305500	0.874300	0.947800
C611	C61	0.065700	0.865000	0.706500
C621	C62	0.103400	0.949600	0.629600
C631	C63	0.092400	0.002500	0.699700
C641	C64	0.098800	0.098500	0.731300
C651	C65	0.132300	0.969000	0.553300
C661	C66	0.311100	0.909200	0.752300
C671	C67	0.379100	0.943700	0.661600
C681	C68	0.454900	0.010300	0.754200
C691	C69	0.566400	0.099600	0.798200
C701	C70	0.374300	0.926500	0.568800
C711	C71	0.658500	0.359200	0.793500
C721	C72	0.820000	0.473800	0.870400
C731	C73	0.802800	0.392700	0.800300
C741	C74	0.867200	0.367500	0.768700
C751	C75	0.915700	0.579000	0.946700
C761	C76	0.656900	0.558800	0.747700
C771	C77	0.782100	0.717500	0.838400
C781	C78	0.756100	0.700700	0.745800
C791	C79	0.801400	0.768200	0.701800
C801	C80	0.857700	0.805500	0.931200
N11	N1	0.553100	0.803900	0.122400
N21	N2	0.639400	0.773800	0.225400
N31	N3	0.621300	0.784400	0.406900
N41	N4	0.511200	0.823400	0.421400
N51	N5	0.181500	0.430700	0.377600
N61	N6	0.048400	0.414000	0.274600
N71	N7	0.877500	0.214400	0.093100
N81	N8	0.902000	0.089800	0.078600
N91	N9	0.930700	0.053100	0.249200
N101	N10	0.914000	0.139400	0.365600
N111	N11	0.714400	0.121300	0.336900
N121	N12	0.589800	0.011200	0.187800
N131	N13	0.303900	0.681500	0.250800
N141	N14	0.273800	0.548400	0.134400
N151	N15	0.284400	0.377500	0.163100
N161	N16	0.323400	0.402000	0.312200
N171	N17	0.446900	0.196100	0.877600
N181	N18	0.360600	0.226200	0.774600
N191	N19	0.378700	0.215600	0.593100
N201	N20	0.488800	0.176600	0.578600
N211	N21	0.818500	0.569300	0.622400
N221	N22	0.951600	0.586000	0.725400
N231	N23	0.122500	0.785600	0.906900
N241	N24	0.098000	0.910200	0.921400
N251	N25	0.069300	0.946900	0.750800
N261	N26	0.086000	0.860600	0.634400
N271	N27	0.285600	0.878700	0.663100
N281	N28	0.410200	0.988800	0.812200
N291	N29	0.696100	0.318500	0.749200
N301	N30	0.726200	0.451600	0.865600
N311	N31	0.715600	0.622500	0.836900
N321	N32	0.676600	0.598000	0.687800
O11	O1	0.390900	0.681100	0.956400
O21	O2	0.337800	0.536700	0.970100
O31	O3	0.445500	0.497500	0.105200
O41	O4	0.602200	0.597800	0.227000
O51	O5	0.349900	0.734600	0.456300
O61	O6	0.382400	0.631200	0.495800
O71	O7	0.527400	0.585200	0.484400
O81	O8	0.639700	0.637600	0.425300
O91	O9	0.224700	0.434500	0.543600
O101	O10	0.066600	0.367700	0.529900
O111	O11	0.892300	0.340300	0.394800
O121	O12	0.870800	0.375200	0.273000
O131	O13	0.778300	0.893600	0.043700
O141	O14	0.635400	0.886600	0.004200
O151	O15	0.600800	0.043000	0.015600
O161	O16	0.712300	0.214400	0.074700
O171	O17	0.934500	0.890900	0.209800
O181	O18	0.867700	0.837800	0.301100
O191	O19	0.840300	0.945500	0.448000
O201	O20	0.875200	0.102200	0.504400
O211	O21	0.393600	0.849900	0.115300
O221	O22	0.386600	0.882400	0.251200
O231	O23	0.543000	0.027400	0.442200
O241	O24	0.714400	0.139700	0.502100
O251	O25	0.181100	0.724700	0.290200
O261	O26	0.036700	0.566600	0.198900
O271	O27	0.997500	0.392300	0.052000
O281	O28	0.097800	0.370800	0.995600
O291	O29	0.234600	0.278300	0.384700
O301	O30	0.131200	0.135400	0.248800
O311	O31	0.085200	0.100800	0.057800
O321	O32	0.137600	0.212300	0.997900
O331	O33	0.609100	0.318900	0.043600
O341	O34	0.662200	0.463300	0.029900
O351	O35	0.554500	0.502500	0.894800
O361	O36	0.397800	0.402200	0.773000
O371	O37	0.650100	0.265400	0.543700
O381	O38	0.617600	0.368800	0.504200
O391	O39	0.472600	0.414800	0.515600
O401	O40	0.360300	0.362400	0.574700
O411	O41	0.775300	0.565500	0.456400
O421	O42	0.933400	0.632300	0.470100
O431	O43	0.107700	0.659700	0.605200
O441	O44	0.129200	0.624800	0.727000
O451	O45	0.221700	0.106400	0.956300
O461	O46	0.364600	0.113400	0.995800
O471	O47	0.399200	0.957000	0.984400
O481	O48	0.287700	0.785600	0.925300
O491	O49	0.065500	0.109100	0.790200
O501	O50	0.132300	0.162200	0.698900
O511	O51	0.159700	0.054500	0.552000
O521	O52	0.124800	0.897800	0.495600
O531	O53	0.606400	0.150100	0.884700
O541	O54	0.613400	0.117600	0.748800
O551	O55	0.457000	0.972600	0.557800
O561	O56	0.285600	0.860300	0.497900
O571	O57	0.818900	0.275300	0.709800
O581	O58	0.963300	0.433400	0.801100
O591	O59	0.002500	0.607700	0.948000
O601	O60	0.902200	0.629200	0.004400
O611	O61	0.765400	0.721700	0.615300
O621	O62	0.868800	0.864600	0.751200
O631	O63	0.914800	0.899200	0.942200
O641	O64	0.862400	0.787700	0.002100
