data_PEGQID_clean_PM
_symmetry_space_group_name_H-M	'P1'
_cell_length_a	16.115900
_cell_length_b	16.442200
_cell_length_c	16.442200
_cell_angle_alpha	76.103000
_cell_angle_beta	60.654200
_cell_angle_gamma	60.654300
_symmetry_Int_Tables_number 1

loop_
_symmetry_equiv_pos_as_xyz
'x,y,z'

loop_
_atom_site_label
_atom_site_type_symbol
_atom_site_fract_x
_atom_site_fract_y
_atom_site_fract_z
Gd11	Gd1	0.915480	0.968070	0.379230
Gd21	Gd2	0.350390	0.613370	0.023670
Gd31	Gd3	0.762780	0.531930	0.120770
Gd41	Gd4	0.487430	0.886630	0.476330
Gd51	Gd5	0.294710	0.620770	0.468070
Gd61	Gd6	0.374060	0.976330	0.113370
Gd71	Gd7	0.883550	0.879230	0.031930
Gd81	Gd8	0.963760	0.523670	0.386630
Gd91	Gd9	0.084520	0.031930	0.620770
Gd101	Gd10	0.649610	0.386630	0.976330
Gd111	Gd11	0.237220	0.468070	0.879230
Gd121	Gd12	0.512570	0.113370	0.523670
Gd131	Gd13	0.705290	0.379230	0.531930
Gd141	Gd14	0.625940	0.023670	0.886630
Gd151	Gd15	0.116450	0.120770	0.968070
Gd161	Gd16	0.036240	0.476330	0.613370
H11	H1	0.192000	0.746000	0.260000
H21	H2	0.017000	0.722000	0.394000
H31	H3	0.698000	0.754000	0.240000
H41	H4	0.633000	0.778000	0.106000
H51	H5	0.452000	0.740000	0.246000
H61	H6	0.411000	0.606000	0.222000
H71	H7	0.938000	0.760000	0.254000
H81	H8	0.739000	0.894000	0.278000
H91	H9	0.808000	0.254000	0.740000
H101	H10	0.983000	0.278000	0.606000
H111	H11	0.302000	0.246000	0.760000
H121	H12	0.367000	0.222000	0.894000
H131	H13	0.548000	0.260000	0.754000
H141	H14	0.589000	0.394000	0.778000
H151	H15	0.062000	0.240000	0.746000
H161	H16	0.261000	0.106000	0.722000
C11	C1	0.153300	0.777300	0.217300
C21	C2	0.034500	0.868700	0.171100
C31	C3	0.111900	0.796900	0.105500
C41	C4	0.129800	0.776400	0.015400
C51	C5	0.934900	0.947700	0.178900
C61	C6	0.946400	0.741500	0.413900
C71	C7	0.785400	0.836600	0.442200
C81	C8	0.797700	0.745800	0.450200
C91	C9	0.726800	0.705800	0.467600
C101	C10	0.697900	0.930800	0.453600
C111	C11	0.647900	0.722700	0.282700
C121	C12	0.574300	0.631300	0.328900
C131	C13	0.514300	0.703100	0.394500
C141	C14	0.421600	0.723600	0.484600
C151	C15	0.561500	0.552300	0.321100
C161	C16	0.601800	0.758500	0.086100
C171	C17	0.564200	0.663400	0.057800
C181	C18	0.493700	0.754200	0.049800
C191	C19	0.400200	0.794200	0.032400
C201	C20	0.582300	0.569200	0.046400
C211	C21	0.370600	0.782700	0.277300
C221	C22	0.205600	0.828900	0.368700
C231	C23	0.217400	0.894500	0.296900
C241	C24	0.145200	0.984600	0.276400
C251	C25	0.113800	0.821100	0.447700
C261	C26	0.360300	0.586100	0.241500
C271	C27	0.227600	0.557800	0.336600
C281	C28	0.247900	0.549800	0.245800
C291	C29	0.194400	0.532400	0.205800
C301	C30	0.151500	0.546400	0.430800
C311	C31	0.930600	0.717300	0.222700
C321	C32	0.903200	0.671100	0.131300
C331	C33	0.908800	0.605500	0.203100
C341	C34	0.906200	0.515400	0.223600
C351	C35	0.882600	0.678900	0.052300
C361	C36	0.687900	0.913900	0.258500
C371	C37	0.622000	0.942200	0.163400
C381	C38	0.543500	0.950200	0.254200
C391	C39	0.432600	0.967600	0.294200
C401	C40	0.628700	0.953600	0.069200
C411	C41	0.846700	0.222700	0.782700
C421	C42	0.965500	0.131300	0.828900
C431	C43	0.888100	0.203100	0.894500
C441	C44	0.870200	0.223600	0.984600
C451	C45	0.065100	0.052300	0.821100
C461	C46	0.053600	0.258500	0.586100
C471	C47	0.214600	0.163400	0.557800
C481	C48	0.202300	0.254200	0.549800
C491	C49	0.273200	0.294200	0.532400
C501	C50	0.302100	0.069200	0.546400
C511	C51	0.352100	0.277300	0.717300
C521	C52	0.425700	0.368700	0.671100
C531	C53	0.485700	0.296900	0.605500
C541	C54	0.578400	0.276400	0.515400
C551	C55	0.438500	0.447700	0.678900
C561	C56	0.398200	0.241500	0.913900
C571	C57	0.435800	0.336600	0.942200
C581	C58	0.506300	0.245800	0.950200
C591	C59	0.599800	0.205800	0.967600
C601	C60	0.417700	0.430800	0.953600
C611	C61	0.629400	0.217300	0.722700
C621	C62	0.794400	0.171100	0.631300
C631	C63	0.782600	0.105500	0.703100
C641	C64	0.854800	0.015400	0.723600
C651	C65	0.886200	0.178900	0.552300
C661	C66	0.639700	0.413900	0.758500
C671	C67	0.772400	0.442200	0.663400
C681	C68	0.752100	0.450200	0.754200
C691	C69	0.805600	0.467600	0.794200
C701	C70	0.848500	0.453600	0.569200
C711	C71	0.069400	0.282700	0.777300
C721	C72	0.096800	0.328900	0.868700
C731	C73	0.091200	0.394500	0.796900
C741	C74	0.093800	0.484600	0.776400
C751	C75	0.117400	0.321100	0.947700
C761	C76	0.312100	0.086100	0.741500
C771	C77	0.378000	0.057800	0.836600
C781	C78	0.456500	0.049800	0.745800
C791	C79	0.567400	0.032400	0.705800
C801	C80	0.371300	0.046400	0.930800
N11	N1	0.187700	0.739400	0.136000
N21	N2	0.062400	0.854600	0.242000
N31	N3	0.882500	0.832900	0.417500
N41	N4	0.900800	0.685900	0.431700
N51	N5	0.563100	0.760600	0.364000
N61	N6	0.659000	0.645400	0.258000
N71	N7	0.632900	0.667100	0.082500
N81	N8	0.518400	0.814100	0.068300
N91	N9	0.323700	0.864000	0.239400
N101	N10	0.304400	0.758000	0.354600
N111	N11	0.300000	0.582500	0.332900
N121	N12	0.332500	0.568300	0.185900
N131	N13	0.927100	0.636000	0.260600
N141	N14	0.917000	0.742000	0.145400
N151	N15	0.715400	0.917500	0.167100
N161	N16	0.586700	0.931700	0.314100
N171	N17	0.812300	0.260600	0.864000
N181	N18	0.937600	0.145400	0.758000
N191	N19	0.117500	0.167100	0.582500
N201	N20	0.099200	0.314100	0.568300
N211	N21	0.436900	0.239400	0.636000
N221	N22	0.341000	0.354600	0.742000
N231	N23	0.367100	0.332900	0.917500
N241	N24	0.481600	0.185900	0.931700
N251	N25	0.676300	0.136000	0.760600
N261	N26	0.695600	0.242000	0.645400
N271	N27	0.700000	0.417500	0.667100
N281	N28	0.667500	0.431700	0.814100
N291	N29	0.072900	0.364000	0.739400
N301	N30	0.083000	0.258000	0.854600
N311	N31	0.284600	0.082500	0.832900
N321	N32	0.413300	0.068300	0.685900
O11	O1	0.218600	0.707300	0.969900
O21	O2	0.063700	0.821100	0.982100
O31	O3	0.893600	0.954700	0.128500
O41	O4	0.891900	0.007800	0.240800
O51	O5	0.771100	0.618300	0.457300
O61	O6	0.629600	0.756300	0.494100
O71	O7	0.601700	0.944600	0.485400
O81	O8	0.719800	0.999000	0.432000
O91	O9	0.395800	0.792700	0.530100
O101	O10	0.366900	0.678900	0.517900
O111	O11	0.476800	0.545300	0.371500
O121	O12	0.640500	0.492200	0.259200
O131	O13	0.346700	0.881700	0.042700
O141	O14	0.380000	0.743700	0.005900
O151	O15	0.531700	0.555400	0.014600
O161	O16	0.650800	0.501000	0.068000
O171	O17	0.188500	0.030100	0.207300
O181	O18	0.045800	0.017900	0.321100
O191	O19	0.022100	0.871500	0.454700
O201	O20	0.132700	0.759200	0.507800
O211	O21	0.228400	0.542700	0.118300
O221	O22	0.123700	0.505900	0.256300
O231	O23	0.087100	0.514600	0.444600
O241	O24	0.151800	0.568000	0.499000
O251	O25	0.925900	0.469900	0.292700
O261	O26	0.884800	0.482100	0.178900
O271	O27	0.848300	0.628500	0.045300
O281	O28	0.899700	0.740800	0.992200
O291	O29	0.389400	0.957300	0.381700
O301	O30	0.385900	0.994100	0.243700
O311	O31	0.546300	0.985400	0.055400
O321	O32	0.718800	0.932000	0.001000
O331	O33	0.781400	0.292700	0.030100
O341	O34	0.936300	0.178900	0.017900
O351	O35	0.106400	0.045300	0.871500
O361	O36	0.108100	0.992200	0.759200
O371	O37	0.228900	0.381700	0.542700
O381	O38	0.370400	0.243700	0.505900
O391	O39	0.398300	0.055400	0.514600
O401	O40	0.280200	0.001000	0.568000
O411	O41	0.604200	0.207300	0.469900
O421	O42	0.633100	0.321100	0.482100
O431	O43	0.523200	0.454700	0.628500
O441	O44	0.359500	0.507800	0.740800
O451	O45	0.653300	0.118300	0.957300
O461	O46	0.620000	0.256300	0.994100
O471	O47	0.468300	0.444600	0.985400
O481	O48	0.349200	0.499000	0.932000
O491	O49	0.811500	0.969900	0.792700
O501	O50	0.954200	0.982100	0.678900
O511	O51	0.977900	0.128500	0.545300
O521	O52	0.867300	0.240800	0.492200
O531	O53	0.771600	0.457300	0.881700
O541	O54	0.876300	0.494100	0.743700
O551	O55	0.912900	0.485400	0.555400
O561	O56	0.848200	0.432000	0.501000
O571	O57	0.074100	0.530100	0.707300
O581	O58	0.115200	0.517900	0.821100
O591	O59	0.151700	0.371500	0.954700
O601	O60	0.100300	0.259200	0.007800
O611	O61	0.610600	0.042700	0.618300
O621	O62	0.614100	0.005900	0.756300
O631	O63	0.453700	0.014600	0.944600
O641	O64	0.281200	0.068000	0.999000
