data_PEJFOA_clean_PM
_symmetry_space_group_name_H-M	'P1'
_cell_length_a	9.039000
_cell_length_b	15.641000
_cell_length_c	19.370000
_cell_angle_alpha	90.000000
_cell_angle_beta	90.000000
_cell_angle_gamma	90.000000
_symmetry_Int_Tables_number 1

loop_
_symmetry_equiv_pos_as_xyz
'x,y,z'

loop_
_atom_site_label
_atom_site_type_symbol
_atom_site_fract_x
_atom_site_fract_y
_atom_site_fract_z
Ga11	Ga1	0.387500	0.887150	0.588710
Ga21	Ga2	0.934200	0.867030	0.502530
Ga31	Ga3	0.112500	0.387150	0.411290
Ga41	Ga4	0.565800	0.367030	0.497470
Ga51	Ga5	0.612500	0.112850	0.088710
Ga61	Ga6	0.065800	0.132970	0.002530
Ga71	Ga7	0.887500	0.612850	0.911290
Ga81	Ga8	0.434200	0.632970	0.997470
Ga91	Ga9	0.612500	0.112850	0.411290
Ga101	Ga10	0.065800	0.132970	0.497470
Ga111	Ga11	0.887500	0.612850	0.588710
Ga121	Ga12	0.434200	0.632970	0.502530
Ga131	Ga13	0.387500	0.887150	0.911290
Ga141	Ga14	0.934200	0.867030	0.997470
Ga151	Ga15	0.112500	0.387150	0.088710
Ga161	Ga16	0.565800	0.367030	0.002530
Ga171	Ga17	0.147600	0.071100	0.750000
Ga181	Ga18	0.352400	0.571100	0.250000
Ga191	Ga19	0.852400	0.928900	0.250000
Ga201	Ga20	0.647600	0.428900	0.750000
P11	P1	0.158900	0.729200	0.541400
P21	P2	0.073100	0.985400	0.604800
P31	P3	0.341100	0.229200	0.458600
P41	P4	0.426900	0.485400	0.395200
P51	P5	0.841100	0.270800	0.041400
P61	P6	0.926900	0.014600	0.104800
P71	P7	0.658900	0.770800	0.958600
P81	P8	0.573100	0.514600	0.895200
P91	P9	0.841100	0.270800	0.458600
P101	P10	0.926900	0.014600	0.395200
P111	P11	0.658900	0.770800	0.541400
P121	P12	0.573100	0.514600	0.604800
P131	P13	0.158900	0.729200	0.958600
P141	P14	0.073100	0.985400	0.895200
P151	P15	0.341100	0.229200	0.041400
P161	P16	0.426900	0.485400	0.104800
P171	P17	0.411300	0.941600	0.750000
P181	P18	0.088700	0.441600	0.250000
P191	P19	0.588700	0.058400	0.250000
P201	P20	0.911300	0.558400	0.750000
C11	C1	0.466800	0.973100	0.469300
C21	C2	0.033200	0.473100	0.530700
C31	C3	0.533200	0.026900	0.969300
C41	C4	0.966800	0.526900	0.030700
C51	C5	0.533200	0.026900	0.530700
C61	C6	0.966800	0.526900	0.469300
C71	C7	0.466800	0.973100	0.030700
C81	C8	0.033200	0.473100	0.969300
O11	O1	0.409900	0.904200	0.484300
O21	O2	0.486900	0.005200	0.410100
O31	O3	0.375200	0.888200	0.687000
O41	O4	0.222200	0.965800	0.576400
O51	O5	0.265000	0.786800	0.581500
O61	O6	0.242500	0.665600	0.494700
O71	O7	0.061100	0.682300	0.593100
O81	O8	0.062900	0.779300	0.489500
O91	O9	0.964000	0.910600	0.587700
O101	O10	0.012800	0.067800	0.569000
O111	O11	0.067700	0.995600	0.682300
O121	O12	0.090100	0.404200	0.515700
O131	O13	0.013100	0.505200	0.589900
O141	O14	0.124800	0.388200	0.313000
O151	O15	0.277800	0.465800	0.423600
O161	O16	0.235000	0.286800	0.418500
O171	O17	0.257500	0.165600	0.505300
O181	O18	0.438900	0.182300	0.406900
O191	O19	0.437100	0.279300	0.510500
O201	O20	0.536000	0.410600	0.412300
O211	O21	0.487200	0.567800	0.431000
O221	O22	0.432300	0.495600	0.317700
O231	O23	0.590100	0.095800	0.984300
O241	O24	0.513100	0.994800	0.910100
O251	O25	0.624800	0.111800	0.187000
O261	O26	0.777800	0.034200	0.076400
O271	O27	0.735000	0.213200	0.081500
O281	O28	0.757500	0.334400	0.994700
O291	O29	0.938900	0.317700	0.093100
O301	O30	0.937100	0.220700	0.989500
O311	O31	0.036000	0.089400	0.087700
O321	O32	0.987200	0.932200	0.069000
O331	O33	0.932300	0.004400	0.182300
O341	O34	0.909900	0.595800	0.015700
O351	O35	0.986900	0.494800	0.089900
O361	O36	0.875200	0.611800	0.813000
O371	O37	0.722200	0.534200	0.923600
O381	O38	0.765000	0.713200	0.918500
O391	O39	0.742500	0.834400	0.005300
O401	O40	0.561100	0.817700	0.906900
O411	O41	0.562900	0.720700	0.010500
O421	O42	0.464000	0.589400	0.912300
O431	O43	0.512800	0.432200	0.931000
O441	O44	0.567700	0.504400	0.817700
O451	O45	0.590100	0.095800	0.515700
O461	O46	0.513100	0.994800	0.589900
O471	O47	0.624800	0.111800	0.313000
O481	O48	0.777800	0.034200	0.423600
O491	O49	0.735000	0.213200	0.418500
O501	O50	0.757500	0.334400	0.505300
O511	O51	0.938900	0.317700	0.406900
O521	O52	0.937100	0.220700	0.510500
O531	O53	0.036000	0.089400	0.412300
O541	O54	0.987200	0.932200	0.431000
O551	O55	0.932300	0.004400	0.317700
O561	O56	0.909900	0.595800	0.484300
O571	O57	0.986900	0.494800	0.410100
O581	O58	0.875200	0.611800	0.687000
O591	O59	0.722200	0.534200	0.576400
O601	O60	0.765000	0.713200	0.581500
O611	O61	0.742500	0.834400	0.494700
O621	O62	0.561100	0.817700	0.593100
O631	O63	0.562900	0.720700	0.489500
O641	O64	0.464000	0.589400	0.587700
O651	O65	0.512800	0.432200	0.569000
O661	O66	0.567700	0.504400	0.682300
O671	O67	0.409900	0.904200	0.015700
O681	O68	0.486900	0.005200	0.089900
O691	O69	0.375200	0.888200	0.813000
O701	O70	0.222200	0.965800	0.923600
O711	O71	0.265000	0.786800	0.918500
O721	O72	0.242500	0.665600	0.005300
O731	O73	0.061100	0.682300	0.906900
O741	O74	0.062900	0.779300	0.010500
O751	O75	0.964000	0.910600	0.912300
O761	O76	0.012800	0.067800	0.931000
O771	O77	0.067700	0.995600	0.817700
O781	O78	0.090100	0.404200	0.984300
O791	O79	0.013100	0.505200	0.910100
O801	O80	0.124800	0.388200	0.187000
O811	O81	0.277800	0.465800	0.076400
O821	O82	0.235000	0.286800	0.081500
O831	O83	0.257500	0.165600	0.994700
O841	O84	0.438900	0.182300	0.093100
O851	O85	0.437100	0.279300	0.989500
O861	O86	0.536000	0.410600	0.087700
O871	O87	0.487200	0.567800	0.069000
O881	O88	0.432300	0.495600	0.182300
O891	O89	0.337000	0.026200	0.750000
O901	O90	0.583000	0.960700	0.750000
O911	O91	0.163000	0.526200	0.250000
O921	O92	0.917000	0.460700	0.250000
O931	O93	0.663000	0.973800	0.250000
O941	O94	0.417000	0.039300	0.250000
O951	O95	0.837000	0.473800	0.750000
O961	O96	0.083000	0.539300	0.750000
