data_PEJFEQ_clean_PM
_symmetry_space_group_name_H-M	'P1'
_cell_length_a	7.973000
_cell_length_b	8.423000
_cell_length_c	8.834000
_cell_angle_alpha	116.834000
_cell_angle_beta	100.992000
_cell_angle_gamma	103.428000
_symmetry_Int_Tables_number 1

loop_
_symmetry_equiv_pos_as_xyz
'x,y,z'

loop_
_atom_site_label
_atom_site_type_symbol
_atom_site_fract_x
_atom_site_fract_y
_atom_site_fract_z
Ga11	Ga1	0.677610	0.279790	0.313530
Ga21	Ga2	0.230790	0.462360	0.006530
P11	P1	0.459550	0.190270	0.912240
P21	P2	0.961100	0.507670	0.734680
C11	C1	0.558500	0.582700	0.496100
O11	O1	0.673500	0.554400	0.419500
O21	O2	0.527100	0.735200	0.571600
O31	O3	0.494800	0.212000	0.095900
O41	O4	0.368600	0.983300	0.757400
O51	O5	0.329700	0.293500	0.885000
O61	O6	0.636300	0.283000	0.887700
O71	O7	0.025200	0.399200	0.824500
O81	O8	0.830600	0.591700	0.828100
O91	O9	0.855100	0.356300	0.539300
O101	O10	0.122100	0.671400	0.769900
Ga31	Ga3	0.322390	0.720210	0.686470
Ga41	Ga4	0.769210	0.537640	0.993470
P31	P3	0.540450	0.809730	0.087760
P41	P4	0.038900	0.492330	0.265320
C21	C2	0.441500	0.417300	0.503900
O111	O11	0.326500	0.445600	0.580500
O121	O12	0.472900	0.264800	0.428400
O131	O13	0.505200	0.788000	0.904100
O141	O14	0.631400	0.016700	0.242600
O151	O15	0.670300	0.706500	0.115000
O161	O16	0.363700	0.717000	0.112300
O171	O17	0.974800	0.600800	0.175500
O181	O18	0.169400	0.408300	0.171900
O191	O19	0.144900	0.643700	0.460700
O201	O20	0.877900	0.328600	0.230100
