data_PEJPIF_charged_PM
_symmetry_space_group_name_H-M	'P1'
_cell_length_a	14.418900
_cell_length_b	14.593200
_cell_length_c	18.057100
_cell_angle_alpha	66.230100
_cell_angle_beta	66.468200
_cell_angle_gamma	60.394400
_symmetry_Int_Tables_number 1

loop_
_symmetry_equiv_pos_as_xyz
'x,y,z'

loop_
_atom_site_label
_atom_site_type_symbol
_atom_site_fract_x
_atom_site_fract_y
_atom_site_fract_z
Zn11	Zn1	0.555450	0.738080	0.855860
Zn21	Zn2	0.302980	0.751170	0.479170
Zn31	Zn3	0.649390	0.761920	0.644140
Zn41	Zn4	0.033320	0.748830	0.020830
Zn51	Zn5	0.444550	0.261920	0.144140
Zn61	Zn6	0.697020	0.248830	0.520830
Zn71	Zn7	0.350610	0.238080	0.355860
Zn81	Zn8	0.966680	0.251170	0.979170
H11	H1	0.943000	0.758400	0.628000
H21	H2	0.519900	0.481300	0.901100
H31	H3	0.558900	0.220200	0.850200
H41	H4	0.649200	0.449700	0.666300
H51	H5	0.545400	0.563000	0.513400
H61	H6	0.497600	0.543300	0.610700
H71	H7	0.416700	0.726100	0.600500
H81	H8	0.539600	0.700400	0.547600
H91	H9	0.450500	0.912000	0.456600
H101	H10	0.342600	0.905800	0.524200
H111	H11	0.280900	0.035700	0.414700
H121	H12	0.375000	0.969600	0.350400
H131	H13	0.551500	0.661100	0.421900
H141	H14	0.587500	0.751400	0.412400
H151	H15	0.511800	0.775300	0.358500
H161	H16	0.829400	0.741600	0.872000
H171	H17	0.402300	0.018700	0.598900
H181	H18	0.129300	0.279800	0.649800
H191	H19	0.265200	0.050300	0.833700
H201	H20	0.121800	0.937000	0.986600
H211	H21	0.151600	0.956700	0.889300
H221	H22	0.243300	0.773900	0.899500
H231	H23	0.287600	0.799600	0.952400
H241	H24	0.319100	0.588000	0.043400
H251	H25	0.272600	0.594200	0.975800
H261	H26	0.231300	0.464300	0.085300
H271	H27	0.195000	0.530400	0.149600
H281	H28	0.134500	0.838900	0.078100
H291	H29	0.251300	0.748600	0.087600
H301	H30	0.145600	0.724700	0.141500
H311	H31	0.057000	0.241600	0.372000
H321	H32	0.480100	0.518700	0.098900
H331	H33	0.441100	0.779800	0.149800
H341	H34	0.350800	0.550300	0.333700
H351	H35	0.454600	0.437000	0.486600
H361	H36	0.502400	0.456700	0.389300
H371	H37	0.583300	0.273900	0.399500
H381	H38	0.460400	0.299600	0.452400
H391	H39	0.549500	0.088000	0.543400
H401	H40	0.657400	0.094200	0.475800
H411	H41	0.719100	0.964300	0.585300
H421	H42	0.625000	0.030400	0.649600
H431	H43	0.448500	0.338900	0.578100
H441	H44	0.412500	0.248600	0.587600
H451	H45	0.488200	0.224700	0.641500
H461	H46	0.170600	0.258400	0.128000
H471	H47	0.597700	0.981300	0.401100
H481	H48	0.870700	0.720200	0.350200
H491	H49	0.734800	0.949700	0.166300
H501	H50	0.878200	0.063000	0.013400
H511	H51	0.848400	0.043300	0.110700
H521	H52	0.756700	0.226100	0.100500
H531	H53	0.712400	0.200400	0.047600
H541	H54	0.680900	0.412000	0.956600
H551	H55	0.727400	0.405800	0.024200
H561	H56	0.768700	0.535700	0.914700
H571	H57	0.805000	0.469600	0.850400
H581	H58	0.865500	0.161100	0.921900
H591	H59	0.748700	0.251400	0.912400
H601	H60	0.854400	0.275300	0.858500
H611	H61	0.124800	0.750000	0.750000
H621	H62	0.875200	0.250000	0.250000
C11	C1	0.951200	0.755800	0.677400
C21	C2	0.045200	0.757800	0.677000
C31	C3	0.135500	0.766600	0.601800
C41	C4	0.596900	0.588200	0.751600
C51	C5	0.585800	0.481800	0.778000
C61	C6	0.541600	0.442000	0.863200
C71	C7	0.530700	0.345400	0.890000
C81	C8	0.564800	0.286900	0.832300
C91	C9	0.606600	0.327300	0.749900
C101	C10	0.618700	0.423900	0.722500
C111	C11	0.491500	0.297300	0.981700
C121	C12	0.644600	0.260000	0.689400
C131	C13	0.482900	0.591900	0.557300
C141	C14	0.469700	0.702500	0.551100
C151	C15	0.389400	0.892100	0.470500
C161	C16	0.324600	0.963200	0.405600
C171	C17	0.528900	0.738000	0.412000
C181	C18	0.884400	0.744200	0.822600
C191	C19	0.980000	0.742200	0.823000
C201	C20	0.003900	0.733400	0.898200
C211	C21	0.436700	0.911800	0.748400
C221	C22	0.345600	0.018200	0.722000
C231	C23	0.346800	0.058000	0.636800
C241	C24	0.266100	0.154600	0.610000
C251	C25	0.184000	0.213100	0.667700
C261	C26	0.183800	0.172700	0.750100
C271	C27	0.265100	0.076100	0.777500
C281	C28	0.270500	0.202700	0.518300
C291	C29	0.094000	0.240000	0.810600
C301	C30	0.132100	0.908100	0.942700
C311	C31	0.223300	0.797500	0.948900
C321	C32	0.252000	0.607900	0.029500
C331	C33	0.193400	0.536800	0.094400
C341	C34	0.178900	0.762000	0.088000
C351	C35	0.048800	0.244200	0.322600
C361	C36	0.954800	0.242200	0.323000
C371	C37	0.864500	0.233400	0.398200
C381	C38	0.403100	0.411800	0.248400
C391	C39	0.414200	0.518200	0.222000
C401	C40	0.458400	0.558000	0.136800
C411	C41	0.469300	0.654600	0.110000
C421	C42	0.435200	0.713100	0.167700
C431	C43	0.393400	0.672700	0.250100
C441	C44	0.381300	0.576100	0.277500
C451	C45	0.508500	0.702700	0.018300
C461	C46	0.355400	0.740000	0.310600
C471	C47	0.517100	0.408100	0.442700
C481	C48	0.530300	0.297500	0.448900
C491	C49	0.610600	0.107900	0.529500
C501	C50	0.675400	0.036800	0.594400
C511	C51	0.471100	0.262000	0.588000
C521	C52	0.115600	0.255800	0.177400
C531	C53	0.020000	0.257800	0.177000
C541	C54	0.996100	0.266600	0.101800
C551	C55	0.563300	0.088200	0.251600
C561	C56	0.654400	0.981800	0.278000
C571	C57	0.653200	0.942000	0.363200
C581	C58	0.733900	0.845400	0.390000
C591	C59	0.816000	0.786900	0.332300
C601	C60	0.816200	0.827300	0.249900
C611	C61	0.734900	0.923900	0.222500
C621	C62	0.729500	0.797300	0.481700
C631	C63	0.906000	0.760000	0.189400
C641	C64	0.867900	0.091900	0.057300
C651	C65	0.776700	0.202500	0.051100
C661	C66	0.748000	0.392100	0.970500
C671	C67	0.806600	0.463200	0.905600
C681	C68	0.821100	0.238000	0.912000
C691	C69	0.766300	0.750000	0.750000
C701	C70	0.867500	0.750000	0.750000
C711	C71	0.060300	0.750000	0.750000
C721	C72	0.233700	0.250000	0.250000
C731	C73	0.132500	0.250000	0.250000
C741	C74	0.939700	0.250000	0.250000
N11	N1	0.431800	0.777900	0.477100
N21	N2	0.186800	0.722100	0.022900
N31	N3	0.568200	0.222100	0.522900
N41	N4	0.813200	0.277900	0.977100
O11	O1	0.694500	0.751700	0.817500
O21	O2	0.140700	0.746200	0.539200
O31	O3	0.206700	0.790400	0.599000
O41	O4	0.574540	0.629960	0.808360
O51	O5	0.632170	0.626500	0.675160
O61	O6	0.474800	0.348450	0.030550
O71	O7	0.482600	0.210800	0.005200
O81	O8	0.665840	0.306560	0.613360
O91	O9	0.554500	0.226300	0.702700
O101	O10	0.389900	0.595500	0.550100
O111	O11	0.255700	0.920200	0.409000
O121	O12	0.763700	0.748300	0.682500
O131	O13	0.926100	0.753800	0.960800
O141	O14	0.096100	0.709600	0.901000
O151	O15	0.512860	0.870040	0.691640
O161	O16	0.433830	0.873500	0.824840
O171	O17	0.353800	0.151550	0.469450
O181	O18	0.198600	0.289200	0.494800
O191	O19	0.085760	0.193440	0.886640
O201	O20	0.983500	0.273700	0.797300
O211	O21	0.035500	0.904500	0.949900
O221	O22	0.084900	0.579800	0.091000
O231	O23	0.305500	0.248300	0.182500
O241	O24	0.859300	0.253800	0.460800
O251	O25	0.793300	0.209600	0.401000
O261	O26	0.425460	0.370040	0.191640
O271	O27	0.367830	0.373500	0.324840
O281	O28	0.525200	0.651550	0.969450
O291	O29	0.517400	0.789200	0.994800
O301	O30	0.334160	0.693440	0.386640
O311	O31	0.445500	0.773700	0.297300
O321	O32	0.610100	0.404500	0.449900
O331	O33	0.744300	0.079800	0.591000
O341	O34	0.236300	0.251700	0.317500
O351	O35	0.073900	0.246200	0.039200
O361	O36	0.903900	0.290400	0.099000
O371	O37	0.487140	0.129960	0.308360
O381	O38	0.566170	0.126500	0.175160
O391	O39	0.646200	0.848450	0.530550
O401	O40	0.801400	0.710800	0.505200
O411	O41	0.914240	0.806560	0.113360
O421	O42	0.016500	0.726300	0.202700
O431	O43	0.964500	0.095500	0.050100
O441	O44	0.915100	0.420200	0.909000
