data_PEKCUF_clean_PM
_symmetry_space_group_name_H-M	'P1'
_cell_length_a	11.303100
_cell_length_b	24.233400
_cell_length_c	36.079000
_cell_angle_alpha	98.213000
_cell_angle_beta	90.000000
_cell_angle_gamma	90.000000
_symmetry_Int_Tables_number 1

loop_
_symmetry_equiv_pos_as_xyz
'x,y,z'

loop_
_atom_site_label
_atom_site_type_symbol
_atom_site_fract_x
_atom_site_fract_y
_atom_site_fract_z
Mn11	Mn1	0.120990	0.284150	0.621050
Mn21	Mn2	0.844530	0.325640	0.658580
Mn31	Mn3	0.601150	0.696600	0.402890
Mn41	Mn4	0.620990	0.715850	0.878950
Mn51	Mn5	0.344530	0.674360	0.841420
Mn61	Mn6	0.101150	0.303400	0.097110
Mn71	Mn7	0.879010	0.715850	0.378950
Mn81	Mn8	0.155470	0.674360	0.341420
Mn91	Mn9	0.398850	0.303400	0.597110
Mn101	Mn10	0.379010	0.284150	0.121050
Mn111	Mn11	0.655470	0.325640	0.158580
Mn121	Mn12	0.898850	0.696600	0.902890
H11	H1	0.099900	0.277400	0.413200
H21	H2	0.074400	0.341900	0.421900
H31	H3	0.903500	0.353200	0.339100
H41	H4	0.854300	0.349000	0.379300
H51	H5	0.167600	0.350000	0.362300
H61	H6	0.181000	0.285300	0.350200
H71	H7	0.886200	0.245400	0.365400
H81	H8	0.934300	0.255100	0.326000
H91	H9	0.755600	0.275300	0.463300
H101	H10	0.724300	0.283900	0.526000
H111	H11	0.058000	0.333300	0.544800
H121	H12	0.088100	0.325900	0.480700
H131	H13	0.048700	0.502600	0.396300
H141	H14	0.950900	0.585000	0.397000
H151	H15	0.658300	0.502500	0.360400
H161	H16	0.758500	0.418300	0.358900
H171	H17	0.333500	0.313300	0.317600
H181	H18	0.468700	0.322600	0.271300
H191	H19	0.208800	0.354200	0.202500
H201	H20	0.072900	0.345700	0.248100
H211	H21	0.930800	0.151000	0.361400
H221	H22	0.958500	0.151900	0.318900
H231	H23	0.215800	0.160300	0.371700
H241	H24	0.243300	0.095900	0.366200
H251	H25	0.986100	0.052300	0.312300
H261	H26	0.001200	0.051000	0.355500
H271	H27	0.226700	0.097600	0.297100
H281	H28	0.196500	0.161700	0.305100
H291	H29	0.317800	0.163000	0.424200
H301	H30	0.366500	0.205400	0.485500
H311	H31	0.034800	0.185600	0.517600
H321	H32	0.986200	0.140500	0.459000
H331	H33	0.282500	0.940700	0.324500
H341	H34	0.254400	0.848900	0.331400
H351	H35	0.908100	0.874500	0.342200
H361	H36	0.933600	0.965200	0.333000
H371	H37	0.920200	0.149500	0.232600
H381	H38	0.926900	0.204800	0.186100
H391	H39	0.279800	0.211800	0.194500
H401	H40	0.271500	0.161000	0.244700
H411	H41	0.599900	0.722600	0.086800
H421	H42	0.574400	0.658100	0.078100
H431	H43	0.403500	0.646800	0.160900
H441	H44	0.354300	0.651000	0.120700
H451	H45	0.667600	0.650000	0.137700
H461	H46	0.681000	0.714700	0.149800
H471	H47	0.386200	0.754600	0.134600
H481	H48	0.434300	0.744900	0.174000
H491	H49	0.255600	0.724700	0.036700
H501	H50	0.224300	0.716100	0.974000
H511	H51	0.558000	0.666700	0.955200
H521	H52	0.588100	0.674100	0.019300
H531	H53	0.548700	0.497400	0.103700
H541	H54	0.450900	0.415000	0.103000
H551	H55	0.158300	0.497500	0.139600
H561	H56	0.258500	0.581700	0.141100
H571	H57	0.833500	0.686700	0.182400
H581	H58	0.968700	0.677400	0.228700
H591	H59	0.708800	0.645800	0.297500
H601	H60	0.572900	0.654300	0.251900
H611	H61	0.430800	0.849000	0.138600
H621	H62	0.458500	0.848100	0.181100
H631	H63	0.715800	0.839700	0.128300
H641	H64	0.743300	0.904100	0.133800
H651	H65	0.486100	0.947700	0.187700
H661	H66	0.501200	0.949000	0.144500
H671	H67	0.726700	0.902400	0.202900
H681	H68	0.696500	0.838300	0.194900
H691	H69	0.817800	0.837000	0.075800
H701	H70	0.866500	0.794600	0.014500
H711	H71	0.534800	0.814400	0.982400
H721	H72	0.486200	0.859500	0.041000
H731	H73	0.782500	0.059300	0.175500
H741	H74	0.754400	0.151100	0.168600
H751	H75	0.408100	0.125500	0.157800
H761	H76	0.433600	0.034800	0.167000
H771	H77	0.420200	0.850500	0.267400
H781	H78	0.426900	0.795200	0.313900
H791	H79	0.779800	0.788200	0.305500
H801	H80	0.771500	0.839000	0.255300
H811	H81	0.900100	0.722600	0.586800
H821	H82	0.925600	0.658100	0.578100
H831	H83	0.096500	0.646800	0.660900
H841	H84	0.145700	0.651000	0.620700
H851	H85	0.832400	0.650000	0.637700
H861	H86	0.819000	0.714700	0.649800
H871	H87	0.113800	0.754600	0.634600
H881	H88	0.065700	0.744900	0.674000
H891	H89	0.244400	0.724700	0.536700
H901	H90	0.275700	0.716100	0.474000
H911	H91	0.942000	0.666700	0.455200
H921	H92	0.911900	0.674100	0.519300
H931	H93	0.951300	0.497400	0.603700
H941	H94	0.049100	0.415000	0.603000
H951	H95	0.341700	0.497500	0.639600
H961	H96	0.241500	0.581700	0.641100
H971	H97	0.666500	0.686700	0.682400
H981	H98	0.531300	0.677400	0.728700
H991	H99	0.791200	0.645800	0.797500
H1001	H100	0.927100	0.654300	0.751900
H1011	H101	0.069200	0.849000	0.638600
H1021	H102	0.041500	0.848100	0.681100
H1031	H103	0.784200	0.839700	0.628300
H1041	H104	0.756700	0.904100	0.633800
H1051	H105	0.013900	0.947700	0.687700
H1061	H106	0.998800	0.949000	0.644500
H1071	H107	0.773300	0.902400	0.702900
H1081	H108	0.803500	0.838300	0.694900
H1091	H109	0.682200	0.837000	0.575800
H1101	H110	0.633500	0.794600	0.514500
H1111	H111	0.965200	0.814400	0.482400
H1121	H112	0.013800	0.859500	0.541000
H1131	H113	0.717500	0.059300	0.675500
H1141	H114	0.745600	0.151100	0.668600
H1151	H115	0.091900	0.125500	0.657800
H1161	H116	0.066400	0.034800	0.667000
H1171	H117	0.079800	0.850500	0.767400
H1181	H118	0.073100	0.795200	0.813900
H1191	H119	0.720200	0.788200	0.805500
H1201	H120	0.728500	0.839000	0.755300
H1211	H121	0.400100	0.277400	0.913200
H1221	H122	0.425600	0.341900	0.921900
H1231	H123	0.596500	0.353200	0.839100
H1241	H124	0.645700	0.349000	0.879300
H1251	H125	0.332400	0.350000	0.862300
H1261	H126	0.319000	0.285300	0.850200
H1271	H127	0.613800	0.245400	0.865400
H1281	H128	0.565700	0.255100	0.826000
H1291	H129	0.744400	0.275300	0.963300
H1301	H130	0.775700	0.283900	0.026000
H1311	H131	0.442000	0.333300	0.044800
H1321	H132	0.411900	0.325900	0.980700
H1331	H133	0.451300	0.502600	0.896300
H1341	H134	0.549100	0.585000	0.897000
H1351	H135	0.841700	0.502500	0.860400
H1361	H136	0.741500	0.418300	0.858900
H1371	H137	0.166500	0.313300	0.817600
H1381	H138	0.031300	0.322600	0.771300
H1391	H139	0.291200	0.354200	0.702500
H1401	H140	0.427100	0.345700	0.748100
H1411	H141	0.569200	0.151000	0.861400
H1421	H142	0.541500	0.151900	0.818900
H1431	H143	0.284200	0.160300	0.871700
H1441	H144	0.256700	0.095900	0.866200
H1451	H145	0.513900	0.052300	0.812300
H1461	H146	0.498800	0.051000	0.855500
H1471	H147	0.273300	0.097600	0.797100
H1481	H148	0.303500	0.161700	0.805100
H1491	H149	0.182200	0.163000	0.924200
H1501	H150	0.133500	0.205400	0.985500
H1511	H151	0.465200	0.185600	0.017600
H1521	H152	0.513800	0.140500	0.959000
H1531	H153	0.217500	0.940700	0.824500
H1541	H154	0.245600	0.848900	0.831400
H1551	H155	0.591900	0.874500	0.842200
H1561	H156	0.566400	0.965200	0.833000
H1571	H157	0.579800	0.149500	0.732600
H1581	H158	0.573100	0.204800	0.686100
H1591	H159	0.220200	0.211800	0.694500
H1601	H160	0.228500	0.161000	0.744700
C11	C1	0.013300	0.307500	0.368880
C21	C2	0.042400	0.306300	0.410640
C31	C3	0.925400	0.354000	0.365120
C41	C4	0.128600	0.316900	0.349810
C51	C5	0.956700	0.252900	0.351660
C61	C6	0.924700	0.300800	0.466130
C71	C7	0.816400	0.287600	0.479810
C81	C8	0.798200	0.292600	0.517100
C91	C9	0.887800	0.310300	0.542350
C101	C10	0.996200	0.322100	0.528430
C111	C11	0.014500	0.317500	0.490010
C121	C12	0.865400	0.315200	0.582800
C131	C13	0.912500	0.452400	0.377560
C141	C14	0.969700	0.502600	0.389100
C151	C15	0.911100	0.551600	0.389840
C161	C16	0.793900	0.552300	0.380150
C171	C17	0.737000	0.502300	0.367920
C181	C18	0.796900	0.451900	0.366830
C191	C19	0.726300	0.605200	0.383670
C201	C20	0.188500	0.328300	0.287570
C211	C21	0.308200	0.321400	0.294460
C221	C22	0.388500	0.326700	0.266630
C231	C23	0.352700	0.338200	0.231530
C241	C24	0.234100	0.345600	0.225560
C251	C25	0.152800	0.340500	0.252780
C261	C26	0.440300	0.340100	0.200960
C271	C27	0.991800	0.155800	0.343600
C281	C28	0.094100	0.115000	0.337320
C291	C29	0.180600	0.123400	0.369700
C301	C30	0.042500	0.056800	0.332760
C311	C31	0.162800	0.124500	0.301780
C321	C32	0.148500	0.146000	0.436500
C331	C33	0.261400	0.166500	0.443140
C341	C34	0.289600	0.193300	0.480060
C351	C35	0.205900	0.201200	0.507210
C361	C36	0.092300	0.180800	0.499010
C371	C37	0.062800	0.153600	0.463990
C381	C38	0.233000	0.231600	0.544960
C391	C39	0.108800	0.962900	0.328710
C401	C40	0.206700	0.927400	0.327900
C411	C41	0.189300	0.872500	0.332300
C421	C42	0.079900	0.851600	0.337980
C431	C43	0.983800	0.887600	0.338410
C441	C44	0.999200	0.942100	0.333300
C451	C45	0.063900	0.793500	0.345700
C461	C46	0.095100	0.150300	0.243550
C471	C47	0.992500	0.163000	0.225510
C481	C48	0.996600	0.195200	0.197270
C491	C49	0.105300	0.213600	0.185200
C501	C50	0.207000	0.200100	0.202610
C511	C51	0.202400	0.169000	0.232470
C521	C52	0.109700	0.247600	0.154560
C531	C53	0.513300	0.692500	0.131120
C541	C54	0.542400	0.693700	0.089360
C551	C55	0.425400	0.646000	0.134880
C561	C56	0.628600	0.683100	0.150190
C571	C57	0.456700	0.747100	0.148340
C581	C58	0.424700	0.699200	0.033870
C591	C59	0.316400	0.712400	0.020190
C601	C60	0.298200	0.707400	0.982900
C611	C61	0.387800	0.689700	0.957650
C621	C62	0.496200	0.677900	0.971570
C631	C63	0.514500	0.682500	0.009990
C641	C64	0.365400	0.684800	0.917200
C651	C65	0.412500	0.547600	0.122440
C661	C66	0.469700	0.497400	0.110900
C671	C67	0.411100	0.448400	0.110160
C681	C68	0.293900	0.447700	0.119850
C691	C69	0.237000	0.497700	0.132080
C701	C70	0.296900	0.548100	0.133170
C711	C71	0.226300	0.394800	0.116330
C721	C72	0.688500	0.671700	0.212430
C731	C73	0.808200	0.678600	0.205540
C741	C74	0.888500	0.673300	0.233370
C751	C75	0.852700	0.661800	0.268470
C761	C76	0.734100	0.654400	0.274440
C771	C77	0.652800	0.659500	0.247220
C781	C78	0.940300	0.659900	0.299040
C791	C79	0.491800	0.844200	0.156400
C801	C80	0.594100	0.885000	0.162680
C811	C81	0.680600	0.876600	0.130300
C821	C82	0.542500	0.943200	0.167240
C831	C83	0.662800	0.875500	0.198220
C841	C84	0.648500	0.854000	0.063500
C851	C85	0.761400	0.833500	0.056860
C861	C86	0.789600	0.806700	0.019940
C871	C87	0.705900	0.798800	0.992790
C881	C88	0.592300	0.819200	0.000990
C891	C89	0.562800	0.846400	0.036010
C901	C90	0.733000	0.768400	0.955040
C911	C91	0.608800	0.037100	0.171290
C921	C92	0.706700	0.072600	0.172100
C931	C93	0.689300	0.127500	0.167700
C941	C94	0.579900	0.148400	0.162020
C951	C95	0.483800	0.112400	0.161590
C961	C96	0.499200	0.057900	0.166700
C971	C97	0.563900	0.206500	0.154300
C981	C98	0.595100	0.849700	0.256450
C991	C99	0.492500	0.837000	0.274490
C1001	C100	0.496600	0.804800	0.302730
C1011	C101	0.605300	0.786400	0.314800
C1021	C102	0.707000	0.799900	0.297390
C1031	C103	0.702400	0.831000	0.267530
C1041	C104	0.609700	0.752400	0.345440
C1051	C105	0.986700	0.692500	0.631120
C1061	C106	0.957600	0.693700	0.589360
C1071	C107	0.074600	0.646000	0.634880
C1081	C108	0.871400	0.683100	0.650190
C1091	C109	0.043300	0.747100	0.648340
C1101	C110	0.075300	0.699200	0.533870
C1111	C111	0.183600	0.712400	0.520190
C1121	C112	0.201800	0.707400	0.482900
C1131	C113	0.112200	0.689700	0.457650
C1141	C114	0.003800	0.677900	0.471570
C1151	C115	0.985500	0.682500	0.509990
C1161	C116	0.134600	0.684800	0.417200
C1171	C117	0.087500	0.547600	0.622440
C1181	C118	0.030300	0.497400	0.610900
C1191	C119	0.088900	0.448400	0.610160
C1201	C120	0.206100	0.447700	0.619850
C1211	C121	0.263000	0.497700	0.632080
C1221	C122	0.203100	0.548100	0.633170
C1231	C123	0.273700	0.394800	0.616330
C1241	C124	0.811500	0.671700	0.712430
C1251	C125	0.691800	0.678600	0.705540
C1261	C126	0.611500	0.673300	0.733370
C1271	C127	0.647300	0.661800	0.768470
C1281	C128	0.765900	0.654400	0.774440
C1291	C129	0.847200	0.659500	0.747220
C1301	C130	0.559700	0.659900	0.799040
C1311	C131	0.008200	0.844200	0.656400
C1321	C132	0.905900	0.885000	0.662680
C1331	C133	0.819400	0.876600	0.630300
C1341	C134	0.957500	0.943200	0.667240
C1351	C135	0.837200	0.875500	0.698220
C1361	C136	0.851500	0.854000	0.563500
C1371	C137	0.738600	0.833500	0.556860
C1381	C138	0.710400	0.806700	0.519940
C1391	C139	0.794100	0.798800	0.492790
C1401	C140	0.907700	0.819200	0.500990
C1411	C141	0.937200	0.846400	0.536010
C1421	C142	0.767000	0.768400	0.455040
C1431	C143	0.891200	0.037100	0.671290
C1441	C144	0.793300	0.072600	0.672100
C1451	C145	0.810700	0.127500	0.667700
C1461	C146	0.920100	0.148400	0.662020
C1471	C147	0.016200	0.112400	0.661590
C1481	C148	0.000800	0.057900	0.666700
C1491	C149	0.936100	0.206500	0.654300
C1501	C150	0.904900	0.849700	0.756450
C1511	C151	0.007500	0.837000	0.774490
C1521	C152	0.003400	0.804800	0.802730
C1531	C153	0.894700	0.786400	0.814800
C1541	C154	0.793000	0.799900	0.797390
C1551	C155	0.797600	0.831000	0.767530
C1561	C156	0.890300	0.752400	0.845440
C1571	C157	0.486700	0.307500	0.868880
C1581	C158	0.457600	0.306300	0.910640
C1591	C159	0.574600	0.354000	0.865120
C1601	C160	0.371400	0.316900	0.849810
C1611	C161	0.543300	0.252900	0.851660
C1621	C162	0.575300	0.300800	0.966130
C1631	C163	0.683600	0.287600	0.979810
C1641	C164	0.701800	0.292600	0.017100
C1651	C165	0.612200	0.310300	0.042350
C1661	C166	0.503800	0.322100	0.028430
C1671	C167	0.485500	0.317500	0.990010
C1681	C168	0.634600	0.315200	0.082800
C1691	C169	0.587500	0.452400	0.877560
C1701	C170	0.530300	0.502600	0.889100
C1711	C171	0.588900	0.551600	0.889840
C1721	C172	0.706100	0.552300	0.880150
C1731	C173	0.763000	0.502300	0.867920
C1741	C174	0.703100	0.451900	0.866830
C1751	C175	0.773700	0.605200	0.883670
C1761	C176	0.311500	0.328300	0.787570
C1771	C177	0.191800	0.321400	0.794460
C1781	C178	0.111500	0.326700	0.766630
C1791	C179	0.147300	0.338200	0.731530
C1801	C180	0.265900	0.345600	0.725560
C1811	C181	0.347200	0.340500	0.752780
C1821	C182	0.059700	0.340100	0.700960
C1831	C183	0.508200	0.155800	0.843600
C1841	C184	0.405900	0.115000	0.837320
C1851	C185	0.319400	0.123400	0.869700
C1861	C186	0.457500	0.056800	0.832760
C1871	C187	0.337200	0.124500	0.801780
C1881	C188	0.351500	0.146000	0.936500
C1891	C189	0.238600	0.166500	0.943140
C1901	C190	0.210400	0.193300	0.980060
C1911	C191	0.294100	0.201200	0.007210
C1921	C192	0.407700	0.180800	0.999010
C1931	C193	0.437200	0.153600	0.963990
C1941	C194	0.267000	0.231600	0.044960
C1951	C195	0.391200	0.962900	0.828710
C1961	C196	0.293300	0.927400	0.827900
C1971	C197	0.310700	0.872500	0.832300
C1981	C198	0.420100	0.851600	0.837980
C1991	C199	0.516200	0.887600	0.838410
C2001	C200	0.500800	0.942100	0.833300
C2011	C201	0.436100	0.793500	0.845700
C2021	C202	0.404900	0.150300	0.743550
C2031	C203	0.507500	0.163000	0.725510
C2041	C204	0.503400	0.195200	0.697270
C2051	C205	0.394700	0.213600	0.685200
C2061	C206	0.293000	0.200100	0.702610
C2071	C207	0.297600	0.169000	0.732470
C2081	C208	0.390300	0.247600	0.654560
O11	O1	0.040500	0.209960	0.352470
O21	O2	0.932200	0.295000	0.427890
O31	O3	0.978900	0.405430	0.378700
O41	O4	0.100100	0.323730	0.312090
O51	O5	0.953800	0.319510	0.605580
O61	O6	0.763700	0.316130	0.595830
O71	O7	0.623000	0.606610	0.371350
O81	O8	0.772800	0.649730	0.401850
O91	O9	0.549800	0.336660	0.208020
O101	O10	0.401100	0.345140	0.168850
O111	O11	0.112800	0.118260	0.402780
O121	O12	0.135000	0.017130	0.325280
O131	O13	0.081900	0.118190	0.271170
O141	O14	0.151500	0.235240	0.569080
O151	O15	0.334000	0.251200	0.550820
O161	O16	0.153400	0.762210	0.343240
O171	O17	0.961100	0.778570	0.353190
O181	O18	0.206200	0.257300	0.140180
O191	O19	0.015400	0.266120	0.141510
O201	O20	0.540500	0.790040	0.147530
O211	O21	0.432200	0.705000	0.072110
O221	O22	0.478900	0.594570	0.121300
O231	O23	0.600100	0.676270	0.187910
O241	O24	0.453800	0.680490	0.894420
O251	O25	0.263700	0.683870	0.904170
O261	O26	0.123000	0.393390	0.128650
O271	O27	0.272800	0.350270	0.098150
O281	O28	0.049800	0.663340	0.291980
O291	O29	0.901100	0.654860	0.331150
O301	O30	0.612800	0.881740	0.097220
O311	O31	0.635000	0.982870	0.174720
O321	O32	0.581900	0.881810	0.228830
O331	O33	0.651500	0.764760	0.930920
O341	O34	0.834000	0.748800	0.949180
O351	O35	0.653400	0.237790	0.156760
O361	O36	0.461100	0.221430	0.146810
O371	O37	0.706200	0.742700	0.359820
O381	O38	0.515400	0.733880	0.358490
O391	O39	0.959500	0.790040	0.647530
O401	O40	0.067800	0.705000	0.572110
O411	O41	0.021100	0.594570	0.621300
O421	O42	0.899900	0.676270	0.687910
O431	O43	0.046200	0.680490	0.394420
O441	O44	0.236300	0.683870	0.404170
O451	O45	0.377000	0.393390	0.628650
O461	O46	0.227200	0.350270	0.598150
O471	O47	0.450200	0.663340	0.791980
O481	O48	0.598900	0.654860	0.831150
O491	O49	0.887200	0.881740	0.597220
O501	O50	0.865000	0.982870	0.674720
O511	O51	0.918100	0.881810	0.728830
O521	O52	0.848500	0.764760	0.430920
O531	O53	0.666000	0.748800	0.449180
O541	O54	0.846600	0.237790	0.656760
O551	O55	0.038900	0.221430	0.646810
O561	O56	0.793800	0.742700	0.859820
O571	O57	0.984600	0.733880	0.858490
O581	O58	0.459500	0.209960	0.852470
O591	O59	0.567800	0.295000	0.927890
O601	O60	0.521100	0.405430	0.878700
O611	O61	0.399900	0.323730	0.812090
O621	O62	0.546200	0.319510	0.105580
O631	O63	0.736300	0.316130	0.095830
O641	O64	0.877000	0.606610	0.871350
O651	O65	0.727200	0.649730	0.901850
O661	O66	0.950200	0.336660	0.708020
O671	O67	0.098900	0.345140	0.668850
O681	O68	0.387200	0.118260	0.902780
O691	O69	0.365000	0.017130	0.825280
O701	O70	0.418100	0.118190	0.771170
O711	O71	0.348500	0.235240	0.069080
O721	O72	0.166000	0.251200	0.050820
O731	O73	0.346600	0.762210	0.843240
O741	O74	0.538900	0.778570	0.853190
O751	O75	0.293800	0.257300	0.640180
O761	O76	0.484600	0.266120	0.641510
