data_PEKZIP_clean_PM
_symmetry_space_group_name_H-M	'P1'
_cell_length_a	5.586400
_cell_length_b	12.769000
_cell_length_c	15.621000
_cell_angle_alpha	90.000000
_cell_angle_beta	90.000000
_cell_angle_gamma	90.000000
_symmetry_Int_Tables_number 1

loop_
_symmetry_equiv_pos_as_xyz
'x,y,z'

loop_
_atom_site_label
_atom_site_type_symbol
_atom_site_fract_x
_atom_site_fract_y
_atom_site_fract_z
N11	N1	0.985000	0.661700	0.563700
C11	C1	0.845300	0.614200	0.621100
H11	H1	0.876100	0.624900	0.679000
C21	C2	0.657900	0.550200	0.598500
H21	H2	0.568200	0.517300	0.640800
C31	C3	0.601700	0.534200	0.513700
C41	C4	0.743400	0.585100	0.454600
H31	H3	0.712600	0.577800	0.396400
C51	C5	0.931400	0.647100	0.482100
H41	H4	0.025200	0.680200	0.441000
N21	N2	0.515000	0.838300	0.563700
C61	C6	0.654700	0.885800	0.621100
H51	H5	0.623900	0.875100	0.679000
C71	C7	0.842100	0.949800	0.598500
H61	H6	0.931800	0.982700	0.640800
C81	C8	0.898300	0.965800	0.513700
C91	C9	0.756600	0.914900	0.454600
H71	H7	0.787400	0.922200	0.396400
C101	C10	0.568600	0.852900	0.482100
H81	H8	0.474800	0.819800	0.441000
N31	N3	0.515000	0.661700	0.936300
C111	C11	0.654700	0.614200	0.878900
H91	H9	0.623900	0.624900	0.821000
C121	C12	0.842100	0.550200	0.901500
H101	H10	0.931800	0.517300	0.859200
C131	C13	0.898300	0.534200	0.986300
C141	C14	0.756600	0.585100	0.045400
H111	H11	0.787400	0.577800	0.103600
C151	C15	0.568600	0.647100	0.017900
H121	H12	0.474800	0.680200	0.059000
N41	N4	0.985000	0.838300	0.936300
C161	C16	0.845300	0.885800	0.878900
H131	H13	0.876100	0.875100	0.821000
C171	C17	0.657900	0.949800	0.901500
H141	H14	0.568200	0.982700	0.859200
C181	C18	0.601700	0.965800	0.986300
C191	C19	0.743400	0.914900	0.045400
H151	H15	0.712600	0.922200	0.103600
C201	C20	0.931400	0.852900	0.017900
H161	H16	0.025200	0.819800	0.059000
N51	N5	0.015000	0.338300	0.436300
C211	C21	0.154700	0.385800	0.378900
H171	H17	0.123900	0.375100	0.321000
C221	C22	0.342100	0.449800	0.401500
H181	H18	0.431800	0.482700	0.359200
C231	C23	0.398300	0.465800	0.486300
C241	C24	0.256600	0.414900	0.545400
H191	H19	0.287400	0.422200	0.603600
C251	C25	0.068600	0.352900	0.517900
H201	H20	0.974800	0.319800	0.559000
N61	N6	0.485000	0.161700	0.436300
C261	C26	0.345300	0.114200	0.378900
H211	H21	0.376100	0.124900	0.321000
C271	C27	0.157900	0.050200	0.401500
H221	H22	0.068200	0.017300	0.359200
C281	C28	0.101700	0.034200	0.486300
C291	C29	0.243400	0.085100	0.545400
H231	H23	0.212600	0.077800	0.603600
C301	C30	0.431400	0.147100	0.517900
H241	H24	0.525200	0.180200	0.559000
N71	N7	0.485000	0.338300	0.063700
C311	C31	0.345300	0.385800	0.121100
H251	H25	0.376100	0.375100	0.179000
C321	C32	0.157900	0.449800	0.098500
H261	H26	0.068200	0.482700	0.140800
C331	C33	0.101700	0.465800	0.013700
C341	C34	0.243400	0.414900	0.954600
H271	H27	0.212600	0.422200	0.896400
C351	C35	0.431400	0.352900	0.982100
H281	H28	0.525200	0.319800	0.941000
N81	N8	0.015000	0.161700	0.063700
C361	C36	0.154700	0.114200	0.121100
H291	H29	0.123900	0.124900	0.179000
C371	C37	0.342100	0.050200	0.098500
H301	H30	0.431800	0.017300	0.140800
C381	C38	0.398300	0.034200	0.013700
C391	C39	0.256600	0.085100	0.954600
H311	H31	0.287400	0.077800	0.896400
C401	C40	0.068600	0.147100	0.982100
H321	H32	0.974800	0.180200	0.941000
Cu11	Cu1	0.250000	0.750000	0.597700
Cu21	Cu2	0.250000	0.750000	0.902300
Cu31	Cu3	0.750000	0.250000	0.402300
Cu41	Cu4	0.750000	0.250000	0.097700
Cl11	Cl1	0.250000	0.750000	0.750000
Cl21	Cl2	0.750000	0.250000	0.250000
