data_PELGOE_clean_PM
_symmetry_space_group_name_H-M	'P1'
_cell_length_a	11.428400
_cell_length_b	11.428400
_cell_length_c	30.743000
_cell_angle_alpha	90.000000
_cell_angle_beta	90.000000
_cell_angle_gamma	120.000000
_symmetry_Int_Tables_number 1

loop_
_symmetry_equiv_pos_as_xyz
'x,y,z'

loop_
_atom_site_label
_atom_site_type_symbol
_atom_site_fract_x
_atom_site_fract_y
_atom_site_fract_z
Co11	Co1	0.000000	0.937880	0.166670
Co21	Co2	0.937880	0.000000	0.500000
Co31	Co3	0.062120	0.062120	0.833330
Co41	Co4	0.914300	0.000000	0.000000
Co51	Co5	0.085700	0.085700	0.333330
Co61	Co6	0.000000	0.914300	0.666670
H11	H1	0.441500	0.572200	0.002400
H21	H2	0.429300	0.204600	0.999300
H31	H3	0.221600	0.198200	0.997100
H41	H4	0.593500	0.836100	0.128000
H51	H5	0.367400	0.734400	0.108500
H61	H6	0.023700	0.361600	0.101500
H71	H7	0.023300	0.157800	0.103100
H81	H8	0.968700	0.511600	0.101800
H91	H9	0.443400	0.878500	0.947200
H101	H10	0.650200	0.887400	0.947900
H111	H11	0.961000	0.710600	0.104400
H121	H12	0.289300	0.601000	0.045600
H131	H13	0.130700	0.558500	0.335730
H141	H14	0.775300	0.570700	0.332630
H151	H15	0.976600	0.778400	0.330430
H161	H16	0.242600	0.406500	0.461330
H171	H17	0.367000	0.632600	0.441830
H181	H18	0.337900	0.976300	0.434830
H191	H19	0.134500	0.976700	0.436430
H201	H20	0.542900	0.031300	0.435130
H211	H21	0.435100	0.556600	0.280530
H221	H22	0.237200	0.349800	0.281230
H231	H23	0.749600	0.039000	0.437730
H241	H24	0.311700	0.710700	0.378930
H251	H25	0.427800	0.869300	0.669070
H261	H26	0.795400	0.224700	0.665970
H271	H27	0.801800	0.023400	0.663770
H281	H28	0.163900	0.757400	0.794670
H291	H29	0.265600	0.633000	0.775170
H301	H30	0.638400	0.662100	0.768170
H311	H31	0.842200	0.865500	0.769770
H321	H32	0.488400	0.457100	0.768470
H331	H33	0.121500	0.564900	0.613870
H341	H34	0.112600	0.762800	0.614570
H351	H35	0.289400	0.250400	0.771070
H361	H36	0.399000	0.688300	0.712270
H371	H37	0.869300	0.427800	0.997600
H381	H38	0.224700	0.795400	0.000700
H391	H39	0.023400	0.801800	0.002900
H401	H40	0.757400	0.163900	0.872000
H411	H41	0.633000	0.265600	0.891500
H421	H42	0.662100	0.638400	0.898500
H431	H43	0.865500	0.842200	0.896900
H441	H44	0.457100	0.488400	0.898200
H451	H45	0.564900	0.121500	0.052800
H461	H46	0.762800	0.112600	0.052100
H471	H47	0.250400	0.289400	0.895600
H481	H48	0.688300	0.399000	0.954400
H491	H49	0.572200	0.441500	0.664270
H501	H50	0.204600	0.429300	0.667370
H511	H51	0.198200	0.221600	0.669570
H521	H52	0.836100	0.593500	0.538670
H531	H53	0.734400	0.367400	0.558170
H541	H54	0.361600	0.023700	0.565170
H551	H55	0.157800	0.023300	0.563570
H561	H56	0.511600	0.968700	0.564870
H571	H57	0.878500	0.443400	0.719470
H581	H58	0.887400	0.650200	0.718770
H591	H59	0.710600	0.961000	0.562270
H601	H60	0.601000	0.289300	0.621070
H611	H61	0.558500	0.130700	0.330930
H621	H62	0.570700	0.775300	0.334030
H631	H63	0.778400	0.976600	0.336230
H641	H64	0.406500	0.242600	0.205330
H651	H65	0.632600	0.367000	0.224830
H661	H66	0.976300	0.337900	0.231830
H671	H67	0.976700	0.134500	0.230230
H681	H68	0.031300	0.542900	0.231530
H691	H69	0.556600	0.435100	0.386130
H701	H70	0.349800	0.237200	0.385430
H711	H71	0.039000	0.749600	0.228930
H721	H72	0.710700	0.311700	0.287730
C11	C1	0.473100	0.628700	0.027360
C21	C2	0.804300	0.854900	0.089660
C31	C3	0.657200	0.775100	0.074970
C41	C4	0.347600	0.120200	0.999310
C51	C5	0.222600	0.115600	0.998620
C61	C6	0.611300	0.695900	0.037600
C71	C7	0.563700	0.785500	0.101750
C81	C8	0.428900	0.723200	0.090570
C91	C9	0.013900	0.316800	0.128430
C101	C10	0.013500	0.194400	0.129670
C111	C11	0.980600	0.556800	0.128780
C121	C12	0.508300	0.929300	0.968880
C131	C13	0.631700	0.934100	0.969950
C141	C14	0.978500	0.677300	0.130420
C151	C15	0.382200	0.644000	0.053250
C161	C16	0.155600	0.526900	0.360690
C171	C17	0.050600	0.195700	0.422990
C181	C18	0.117900	0.342800	0.408300
C191	C19	0.772600	0.652400	0.332640
C201	C20	0.893000	0.777400	0.331950
C211	C21	0.084600	0.388700	0.370930
C221	C22	0.221800	0.436300	0.435080
C231	C23	0.294300	0.571100	0.423900
C241	C24	0.302900	0.986100	0.461760
C251	C25	0.180900	0.986500	0.463000
C261	C26	0.576200	0.019400	0.462110
C271	C27	0.421000	0.491700	0.302210
C281	C28	0.302400	0.368300	0.303280
C291	C29	0.698800	0.021500	0.463750
C301	C30	0.261800	0.617800	0.386580
C311	C31	0.371300	0.844400	0.694030
C321	C32	0.145100	0.949400	0.756330
C331	C33	0.224900	0.882100	0.741640
C341	C34	0.879800	0.227400	0.665980
C351	C35	0.884400	0.107000	0.665290
C361	C36	0.304100	0.915400	0.704270
C371	C37	0.214500	0.778200	0.768420
C381	C38	0.276800	0.705700	0.757240
C391	C39	0.683200	0.697100	0.795100
C401	C40	0.805600	0.819100	0.796340
C411	C41	0.443200	0.423800	0.795450
C421	C42	0.070700	0.579000	0.635550
C431	C43	0.065900	0.697600	0.636620
C441	C44	0.322700	0.301200	0.797090
C451	C45	0.356000	0.738200	0.719920
C461	C46	0.844400	0.371300	0.972640
C471	C47	0.949400	0.145100	0.910340
C481	C48	0.882100	0.224900	0.925030
C491	C49	0.227400	0.879800	0.000690
C501	C50	0.107000	0.884400	0.001380
C511	C51	0.915400	0.304100	0.962400
C521	C52	0.778200	0.214500	0.898250
C531	C53	0.705700	0.276800	0.909430
C541	C54	0.697100	0.683200	0.871570
C551	C55	0.819100	0.805600	0.870330
C561	C56	0.423800	0.443200	0.871220
C571	C57	0.579000	0.070700	0.031120
C581	C58	0.697600	0.065900	0.030050
C591	C59	0.301200	0.322700	0.869580
C601	C60	0.738200	0.356000	0.946750
C611	C61	0.628700	0.473100	0.639310
C621	C62	0.854900	0.804300	0.577010
C631	C63	0.775100	0.657200	0.591700
C641	C64	0.120200	0.347600	0.667360
C651	C65	0.115600	0.222600	0.668050
C661	C66	0.695900	0.611300	0.629070
C671	C67	0.785500	0.563700	0.564920
C681	C68	0.723200	0.428900	0.576100
C691	C69	0.316800	0.013900	0.538240
C701	C70	0.194400	0.013500	0.537000
C711	C71	0.556800	0.980600	0.537890
C721	C72	0.929300	0.508300	0.697790
C731	C73	0.934100	0.631700	0.696720
C741	C74	0.677300	0.978500	0.536250
C751	C75	0.644000	0.382200	0.613420
C761	C76	0.526900	0.155600	0.305970
C771	C77	0.195700	0.050600	0.243670
C781	C78	0.342800	0.117900	0.258360
C791	C79	0.652400	0.772600	0.334020
C801	C80	0.777400	0.893000	0.334710
C811	C81	0.388700	0.084600	0.295730
C821	C82	0.436300	0.221800	0.231580
C831	C83	0.571100	0.294300	0.242760
C841	C84	0.986100	0.302900	0.204900
C851	C85	0.986500	0.180900	0.203660
C861	C86	0.019400	0.576200	0.204550
C871	C87	0.491700	0.421000	0.364450
C881	C88	0.368300	0.302400	0.363380
C891	C89	0.021500	0.698800	0.202910
C901	C90	0.617800	0.261800	0.280080
C911	C91	0.000000	0.502600	0.166670
C921	C92	0.000000	0.371900	0.166670
C931	C93	0.502600	0.000000	0.500000
C941	C94	0.371900	0.000000	0.500000
C951	C95	0.497400	0.497400	0.833330
C961	C96	0.628100	0.628100	0.833330
C971	C97	0.481300	0.000000	0.000000
C981	C98	0.350800	0.000000	0.000000
C991	C99	0.518700	0.518700	0.333330
C1001	C100	0.649200	0.649200	0.333330
C1011	C101	0.000000	0.481300	0.666670
C1021	C102	0.000000	0.350800	0.666670
S11	S1	0.720940	0.667460	0.002960
S21	S2	0.946520	0.279060	0.336290
S31	S3	0.332540	0.053480	0.669630
S41	S4	0.053480	0.332540	0.997040
S51	S5	0.667460	0.720940	0.663710
S61	S6	0.279060	0.946520	0.330370
N11	N1	0.000000	0.126200	0.166670
N21	N2	0.000000	0.747800	0.166670
N31	N3	0.126200	0.000000	0.500000
N41	N4	0.747800	0.000000	0.500000
N51	N5	0.873800	0.873800	0.833330
N61	N6	0.252200	0.252200	0.833330
N71	N7	0.105600	0.000000	0.000000
N81	N8	0.725900	0.000000	0.000000
N91	N9	0.894400	0.894400	0.333330
N101	N10	0.274100	0.274100	0.333330
N111	N11	0.000000	0.105600	0.666670
N121	N12	0.000000	0.725900	0.666670
O11	O1	0.895600	0.932000	0.063280
O21	O2	0.805800	0.795200	0.979030
O31	O3	0.632300	0.561300	0.973140
O41	O4	0.825600	0.843800	0.128660
O51	O5	0.800200	0.633000	0.031480
O61	O6	0.036400	0.104400	0.396610
O71	O7	0.989400	0.194200	0.312360
O81	O8	0.929000	0.367700	0.306470
O91	O9	0.018200	0.174400	0.461990
O101	O10	0.832800	0.199800	0.364810
O111	O11	0.068000	0.963600	0.729950
O121	O12	0.204800	0.010600	0.645700
O131	O13	0.438700	0.071000	0.639810
O141	O14	0.156200	0.981800	0.795330
O151	O15	0.367000	0.167200	0.698150
O161	O16	0.963600	0.068000	0.936720
O171	O17	0.010600	0.204800	0.020970
O181	O18	0.071000	0.438700	0.026860
O191	O19	0.981800	0.156200	0.871340
O201	O20	0.167200	0.367000	0.968520
O211	O21	0.932000	0.895600	0.603390
O221	O22	0.795200	0.805800	0.687640
O231	O23	0.561300	0.632300	0.693530
O241	O24	0.843800	0.825600	0.538010
O251	O25	0.633000	0.800200	0.635190
O261	O26	0.104400	0.036400	0.270050
O271	O27	0.194200	0.989400	0.354300
O281	O28	0.367700	0.929000	0.360190
O291	O29	0.174400	0.018200	0.204670
O301	O30	0.199800	0.832800	0.301850
