data_PELRAB_clean_PM
_symmetry_space_group_name_H-M	'P1'
_cell_length_a	13.584200
_cell_length_b	13.584200
_cell_length_c	14.850200
_cell_angle_alpha	90.000000
_cell_angle_beta	90.000000
_cell_angle_gamma	120.000000
_symmetry_Int_Tables_number 1

loop_
_symmetry_equiv_pos_as_xyz
'x,y,z'

loop_
_atom_site_label
_atom_site_type_symbol
_atom_site_fract_x
_atom_site_fract_y
_atom_site_fract_z
N11	N1	0.179470	0.339220	0.548810
C11	C1	0.078030	0.315000	0.517240
H11	H1	0.048700	0.267500	0.467500
C21	C2	0.015290	0.357600	0.555430
H21	H2	0.946100	0.341700	0.530400
C31	C3	0.055690	0.424200	0.631170
H31	H3	0.013200	0.452000	0.659000
C41	C4	0.160160	0.449300	0.665460
C51	C5	0.222380	0.408150	0.620460
H41	H4	0.295100	0.428900	0.640500
N21	N2	0.197570	0.511840	0.745790
H51	H5	0.153300	0.533600	0.768400
C61	C6	0.294400	0.542200	0.792080
O11	O1	0.374450	0.535820	0.763500
C71	C7	0.288900	0.578400	0.888330
H61	H6	0.239500	0.611800	0.889600
C81	C8	0.238200	0.474600	0.948300
H71	H7	0.286800	0.442100	0.948500
H81	H8	0.164500	0.419700	0.926000
H91	H9	0.231100	0.496100	0.008500
N31	N3	0.401600	0.662900	0.918950
H101	H10	0.430700	0.647500	0.964400
C91	C9	0.460300	0.761900	0.879500
O21	O2	0.423100	0.789700	0.813510
C101	C10	0.577400	0.842200	0.913010
C111	C11	0.603800	0.863800	0.004540
H111	H11	0.546100	0.825300	0.046400
N41	N4	0.707900	0.937050	0.034490
C121	C12	0.791900	0.985600	0.973840
H121	H12	0.865700	0.032800	0.994300
C131	C13	0.773900	0.968800	0.882590
H131	H13	0.834300	0.004100	0.842400
C141	C14	0.666300	0.899600	0.852100
H141	H14	0.652100	0.890600	0.790500
N51	N5	0.660780	0.840250	0.215480
C151	C15	0.685000	0.763030	0.183910
H151	H15	0.732500	0.781200	0.134170
C161	C16	0.642400	0.657690	0.222100
H161	H16	0.658300	0.604400	0.197070
C171	C17	0.575800	0.631490	0.297840
H171	H17	0.548000	0.561200	0.325670
C181	C18	0.550700	0.710860	0.332130
C191	C19	0.591850	0.814230	0.287130
H181	H18	0.571100	0.866200	0.307170
N61	N6	0.488160	0.685730	0.412460
H191	H19	0.466400	0.619700	0.435070
C201	C20	0.457800	0.752200	0.458750
O31	O3	0.464180	0.838630	0.430170
C211	C21	0.421600	0.710500	0.555000
H201	H20	0.388200	0.627700	0.556270
C221	C22	0.525400	0.763600	0.614970
H211	H21	0.557900	0.844700	0.615170
H221	H22	0.580300	0.744800	0.592670
H231	H23	0.503900	0.735000	0.675170
N71	N7	0.337100	0.738700	0.585620
H241	H24	0.352500	0.783200	0.631070
C231	C23	0.238100	0.698400	0.546170
O41	O4	0.210300	0.633400	0.480180
C241	C24	0.157800	0.735200	0.579680
C251	C25	0.136200	0.740000	0.671210
H251	H25	0.174700	0.720800	0.713070
N81	N8	0.062950	0.770850	0.701160
C261	C26	0.014400	0.806300	0.640510
H261	H26	0.967200	0.832900	0.660970
C271	C27	0.031200	0.805100	0.549260
H271	H27	0.995900	0.830200	0.509070
C281	C28	0.100400	0.766700	0.518770
H281	H28	0.109400	0.761500	0.457170
N91	N9	0.159750	0.820530	0.882140
C291	C29	0.236970	0.921970	0.850570
H291	H29	0.218800	0.951300	0.800830
C301	C30	0.342310	0.984710	0.888760
H301	H30	0.395600	0.053900	0.863730
C311	C31	0.368510	0.944310	0.964500
H311	H31	0.438800	0.986800	0.992330
C321	C32	0.289140	0.839840	0.998790
C331	C33	0.185770	0.777620	0.953790
H321	H32	0.133800	0.704900	0.973830
N101	N10	0.314270	0.802430	0.079120
H331	H33	0.380300	0.846700	0.101730
C341	C34	0.247800	0.705600	0.125410
O51	O5	0.161370	0.625550	0.096830
C351	C35	0.289500	0.711100	0.221660
H341	H34	0.372300	0.760500	0.222930
C361	C36	0.236400	0.761800	0.281630
H351	H35	0.155300	0.713200	0.281830
H361	H36	0.255200	0.835500	0.259330
H371	H37	0.265000	0.768900	0.341830
N111	N11	0.261300	0.598400	0.252280
H381	H38	0.216800	0.569300	0.297730
C371	C37	0.301600	0.539700	0.212830
O61	O6	0.366600	0.576900	0.146840
C381	C38	0.264800	0.422600	0.246340
C391	C39	0.260000	0.396200	0.337870
H391	H39	0.279200	0.453900	0.379730
N121	N12	0.229150	0.292100	0.367820
C401	C40	0.193700	0.208100	0.307170
H401	H40	0.167100	0.134300	0.327630
C411	C41	0.194900	0.226100	0.215920
H411	H41	0.169800	0.165700	0.175730
C421	C42	0.233300	0.333700	0.185430
H421	H42	0.238500	0.347900	0.123830
N131	N13	0.339220	0.179470	0.451190
C431	C43	0.315000	0.078030	0.482760
H431	H43	0.267500	0.048700	0.532500
C441	C44	0.357600	0.015290	0.444570
H441	H44	0.341700	0.946100	0.469600
C451	C45	0.424200	0.055690	0.368830
H451	H45	0.452000	0.013200	0.341000
C461	C46	0.449300	0.160160	0.334540
C471	C47	0.408150	0.222380	0.379540
H461	H46	0.428900	0.295100	0.359500
N141	N14	0.511840	0.197570	0.254210
H471	H47	0.533600	0.153300	0.231600
C481	C48	0.542200	0.294400	0.207920
O71	O7	0.535820	0.374450	0.236500
C491	C49	0.578400	0.288900	0.111670
H481	H48	0.611800	0.239500	0.110400
C501	C50	0.474600	0.238200	0.051700
H491	H49	0.442100	0.286800	0.051500
H501	H50	0.419700	0.164500	0.074000
H511	H51	0.496100	0.231100	0.991500
N151	N15	0.662900	0.401600	0.081050
H521	H52	0.647500	0.430700	0.035600
C511	C51	0.761900	0.460300	0.120500
O81	O8	0.789700	0.423100	0.186490
C521	C52	0.842200	0.577400	0.086990
C531	C53	0.863800	0.603800	0.995460
H531	H53	0.825300	0.546100	0.953600
N161	N16	0.937050	0.707900	0.965510
C541	C54	0.985600	0.791900	0.026160
H541	H54	0.032800	0.865700	0.005700
C551	C55	0.968800	0.773900	0.117410
H551	H55	0.004100	0.834300	0.157600
C561	C56	0.899600	0.666300	0.147900
H561	H56	0.890600	0.652100	0.209500
N171	N17	0.840250	0.660780	0.784520
C571	C57	0.763030	0.685000	0.816090
H571	H57	0.781200	0.732500	0.865830
C581	C58	0.657690	0.642400	0.777900
H581	H58	0.604400	0.658300	0.802930
C591	C59	0.631490	0.575800	0.702160
H591	H59	0.561200	0.548000	0.674330
C601	C60	0.710860	0.550700	0.667870
C611	C61	0.814230	0.591850	0.712870
H601	H60	0.866200	0.571100	0.692830
N181	N18	0.685730	0.488160	0.587540
H611	H61	0.619700	0.466400	0.564930
C621	C62	0.752200	0.457800	0.541250
O91	O9	0.838630	0.464180	0.569830
C631	C63	0.710500	0.421600	0.445000
H621	H62	0.627700	0.388200	0.443730
C641	C64	0.763600	0.525400	0.385030
H631	H63	0.844700	0.557900	0.384830
H641	H64	0.744800	0.580300	0.407330
H651	H65	0.735000	0.503900	0.324830
N191	N19	0.738700	0.337100	0.414380
H661	H66	0.783200	0.352500	0.368930
C651	C65	0.698400	0.238100	0.453830
O101	O10	0.633400	0.210300	0.519820
C661	C66	0.735200	0.157800	0.420320
C671	C67	0.740000	0.136200	0.328790
H671	H67	0.720800	0.174700	0.286930
N201	N20	0.770850	0.062950	0.298840
C681	C68	0.806300	0.014400	0.359490
H681	H68	0.832900	0.967200	0.339030
C691	C69	0.805100	0.031200	0.450740
H691	H69	0.830200	0.995900	0.490930
C701	C70	0.766700	0.100400	0.481230
H701	H70	0.761500	0.109400	0.542830
N211	N21	0.820530	0.159750	0.117860
C711	C71	0.921970	0.236970	0.149430
H711	H71	0.951300	0.218800	0.199170
C721	C72	0.984710	0.342310	0.111240
H721	H72	0.053900	0.395600	0.136270
C731	C73	0.944310	0.368510	0.035500
H731	H73	0.986800	0.438800	0.007670
C741	C74	0.839840	0.289140	0.001210
C751	C75	0.777620	0.185770	0.046210
H741	H74	0.704900	0.133800	0.026170
N221	N22	0.802430	0.314270	0.920880
H751	H75	0.846700	0.380300	0.898270
C761	C76	0.705600	0.247800	0.874590
O111	O11	0.625550	0.161370	0.903170
C771	C77	0.711100	0.289500	0.778340
H761	H76	0.760500	0.372300	0.777070
C781	C78	0.761800	0.236400	0.718370
H771	H77	0.713200	0.155300	0.718170
H781	H78	0.835500	0.255200	0.740670
H791	H79	0.768900	0.265000	0.658170
N231	N23	0.598400	0.261300	0.747720
H801	H80	0.569300	0.216800	0.702270
C791	C79	0.539700	0.301600	0.787170
O121	O12	0.576900	0.366600	0.853160
C801	C80	0.422600	0.264800	0.753660
C811	C81	0.396200	0.260000	0.662130
H811	H81	0.453900	0.279200	0.620270
N241	N24	0.292100	0.229150	0.632180
C821	C82	0.208100	0.193700	0.692830
H821	H82	0.134300	0.167100	0.672370
C831	C83	0.226100	0.194900	0.784080
H831	H83	0.165700	0.169800	0.824270
C841	C84	0.333700	0.233300	0.814570
H841	H84	0.347900	0.238500	0.876170
Cu11	Cu1	0.262640	0.262640	0.500000
Cu21	Cu2	0.737360	0.000000	0.166670
Cu31	Cu3	0.000000	0.737360	0.833330
