data_PEMGIZ_charged_PM
_symmetry_space_group_name_H-M	'P1'
_cell_length_a	13.984200
_cell_length_b	18.473100
_cell_length_c	18.473100
_cell_angle_alpha	81.763300
_cell_angle_beta	67.759000
_cell_angle_gamma	67.759100
_symmetry_Int_Tables_number 1

loop_
_symmetry_equiv_pos_as_xyz
'x,y,z'

loop_
_atom_site_label
_atom_site_type_symbol
_atom_site_fract_x
_atom_site_fract_y
_atom_site_fract_z
Ag11	Ag1	0.625000	0.199560	0.300440
Ag21	Ag2	0.125000	0.800440	0.699560
Ag31	Ag3	0.074560	0.300440	0.800440
Ag41	Ag4	0.175440	0.699560	0.199560
H11	H1	0.694400	0.046500	0.196700
H21	H2	0.072400	0.092600	0.166000
H31	H3	0.730100	0.230100	0.161700
H41	H4	0.737700	0.261900	0.075300
H51	H5	0.412100	0.192300	0.287700
H61	H6	0.310900	0.232100	0.204100
H71	H7	0.391600	0.269000	0.075400
H81	H8	0.573500	0.266000	0.030400
H91	H9	0.487500	0.929900	0.247700
H101	H10	0.533500	0.987600	0.269800
H111	H11	0.600200	0.895400	0.265200
H121	H12	0.682300	0.834900	0.111900
H131	H13	0.654400	0.901200	0.049400
H141	H14	0.556800	0.880500	0.117900
H151	H15	0.509100	0.062400	0.170000
H161	H16	0.550200	0.029700	0.083500
H171	H17	0.630300	0.054400	0.109800
H181	H18	0.937600	0.953500	0.803300
H191	H19	0.331000	0.907400	0.834000
H201	H20	0.121900	0.769900	0.838300
H211	H21	0.074900	0.738100	0.924700
H221	H22	0.892100	0.807700	0.712300
H231	H23	0.747100	0.767900	0.795900
H241	H24	0.736000	0.731000	0.924600
H251	H25	0.869900	0.734000	0.969600
H261	H26	0.665100	0.070100	0.752300
H271	H27	0.790900	0.012400	0.730200
H281	H28	0.760800	0.104600	0.734800
H291	H29	0.629100	0.165100	0.888100
H301	H30	0.605000	0.098800	0.950600
H311	H31	0.555200	0.119500	0.882100
H321	H32	0.741500	0.937600	0.830000
H331	H33	0.663400	0.970300	0.916500
H341	H34	0.794500	0.945600	0.890200
H351	H35	0.108900	0.196700	0.953500
H361	H36	0.761600	0.166000	0.907400
H371	H37	0.108200	0.161700	0.769900
H381	H38	0.187000	0.075300	0.738100
H391	H39	0.300200	0.287700	0.807700
H401	H40	0.485000	0.204100	0.767900
H411	H41	0.533000	0.075400	0.731000
H421	H42	0.396100	0.030400	0.734000
H431	H43	0.264800	0.247700	0.070100
H441	H44	0.196700	0.269800	0.012400
H451	H45	0.134600	0.265200	0.104600
H461	H46	0.205800	0.111900	0.165100
H471	H47	0.296200	0.049400	0.098800
H481	H48	0.325300	0.117900	0.119500
H491	H49	0.320900	0.170000	0.937600
H501	H50	0.366300	0.083500	0.970300
H511	H51	0.259900	0.109800	0.945600
H521	H52	0.259100	0.803300	0.046500
H531	H53	0.835000	0.834000	0.092600
H541	H54	0.039800	0.838300	0.230100
H551	H55	0.000400	0.924700	0.261900
H561	H56	0.395600	0.712300	0.192300
H571	H57	0.457000	0.795900	0.232100
H581	H58	0.339400	0.924600	0.269000
H591	H59	0.160500	0.969600	0.266000
H601	H60	0.582600	0.752300	0.929900
H611	H61	0.478900	0.730200	0.987600
H621	H62	0.504400	0.734800	0.895400
H631	H63	0.482800	0.888100	0.834900
H641	H64	0.444400	0.950600	0.901200
H651	H65	0.562700	0.882100	0.880500
H661	H66	0.428500	0.830000	0.062400
H671	H67	0.420100	0.916500	0.029700
H681	H68	0.315300	0.890200	0.054400
H691	H69	0.312400	0.696700	0.546500
H701	H70	0.919000	0.666000	0.592600
H711	H71	0.128100	0.661700	0.730100
H721	H72	0.175100	0.575300	0.761900
H731	H73	0.357900	0.787700	0.692300
H741	H74	0.502900	0.704100	0.732100
H751	H75	0.514000	0.575400	0.769000
H761	H76	0.380100	0.530400	0.766000
H771	H77	0.584900	0.747700	0.429900
H781	H78	0.459100	0.769800	0.487600
H791	H79	0.489200	0.765200	0.395400
H801	H80	0.620900	0.611900	0.334900
H811	H81	0.645000	0.549400	0.401200
H821	H82	0.694800	0.617900	0.380500
H831	H83	0.508500	0.670000	0.562400
H841	H84	0.586600	0.583500	0.529700
H851	H85	0.455500	0.609800	0.554400
H861	H86	0.555600	0.303300	0.453500
H871	H87	0.177600	0.334000	0.407400
H881	H88	0.519900	0.338300	0.269900
H891	H89	0.512300	0.424700	0.238100
H901	H90	0.837900	0.212300	0.307700
H911	H91	0.939100	0.295900	0.267900
H921	H92	0.858400	0.424600	0.231000
H931	H93	0.676500	0.469600	0.234000
H941	H94	0.762500	0.252300	0.570100
H951	H95	0.716500	0.230200	0.512400
H961	H96	0.649800	0.234800	0.604600
H971	H97	0.567700	0.388100	0.665100
H981	H98	0.595600	0.450600	0.598800
H991	H99	0.693200	0.382100	0.619500
H1001	H100	0.740900	0.330000	0.437600
H1011	H101	0.699800	0.416500	0.470300
H1021	H102	0.619700	0.390200	0.445600
H1031	H103	0.990900	0.453500	0.696700
H1041	H104	0.415000	0.407400	0.666000
H1051	H105	0.210200	0.269900	0.661700
H1061	H106	0.249600	0.238100	0.575300
H1071	H107	0.854400	0.307700	0.787700
H1081	H108	0.793000	0.267900	0.704100
H1091	H109	0.910600	0.231000	0.575400
H1101	H110	0.089500	0.234000	0.530400
H1111	H111	0.667400	0.570100	0.747700
H1121	H112	0.771100	0.512400	0.769800
H1131	H113	0.745600	0.604600	0.765200
H1141	H114	0.767200	0.665100	0.611900
H1151	H115	0.805600	0.598800	0.549400
H1161	H116	0.687300	0.619500	0.617900
H1171	H117	0.821500	0.437600	0.670000
H1181	H118	0.829900	0.470300	0.583500
H1191	H119	0.934700	0.445600	0.609800
H1201	H120	0.141100	0.546500	0.303300
H1211	H121	0.488400	0.592600	0.334000
H1221	H122	0.141800	0.730100	0.338300
H1231	H123	0.063000	0.761900	0.424700
H1241	H124	0.949800	0.692300	0.212300
H1251	H125	0.765000	0.732100	0.295900
H1261	H126	0.717000	0.769000	0.424600
H1271	H127	0.853900	0.766000	0.469600
H1281	H128	0.985200	0.429900	0.252300
H1291	H129	0.053300	0.487600	0.230200
H1301	H130	0.115400	0.395400	0.234800
H1311	H131	0.044200	0.334900	0.388100
H1321	H132	0.953800	0.401200	0.450600
H1331	H133	0.924700	0.380500	0.382100
H1341	H134	0.929100	0.562400	0.330000
H1351	H135	0.883700	0.529700	0.416500
H1361	H136	0.990100	0.554400	0.390200
C11	C1	0.941500	0.115900	0.131300
C21	C2	0.900900	0.147700	0.071300
C31	C3	0.858900	0.995000	0.177800
C41	C4	0.757500	0.001300	0.176100
C51	C5	0.748700	0.941300	0.144300
C61	C6	0.044600	0.114300	0.124900
C71	C7	0.721700	0.220800	0.113400
C81	C8	0.601000	0.227300	0.132300
C91	C9	0.444900	0.207300	0.235500
C101	C10	0.384700	0.230900	0.185900
C111	C11	0.432700	0.252800	0.109400
C121	C12	0.540800	0.251000	0.082600
C131	C13	0.618900	0.946900	0.156300
C141	C14	0.554300	0.939200	0.242400
C151	C15	0.629000	0.885400	0.104200
C161	C16	0.573000	0.031000	0.127200
C171	C17	0.188700	0.884100	0.868700
C181	C18	0.119900	0.852300	0.928700
C191	C19	0.031700	0.005000	0.822200
C201	C20	0.934900	0.998700	0.823900
C211	C21	0.834300	0.058700	0.855700
C221	C22	0.283800	0.885700	0.875100
C231	C23	0.055900	0.779200	0.886600
C241	C24	0.960600	0.772700	0.867700
C251	C25	0.887700	0.792700	0.764500
C261	C26	0.801500	0.769100	0.814100
C271	C27	0.794900	0.747200	0.890600
C281	C28	0.874400	0.749000	0.917400
C291	C29	0.722100	0.053100	0.843700
C301	C30	0.735900	0.060800	0.757600
C311	C31	0.618600	0.114600	0.895800
C321	C32	0.731200	0.969000	0.872800
C331	C33	0.927200	0.131300	0.884100
C341	C34	0.027800	0.071300	0.852300
C351	C35	0.963300	0.177800	0.005000
C361	C36	0.066400	0.176100	0.998700
C371	C37	0.107000	0.144300	0.058700
C381	C38	0.830500	0.124900	0.885700
C391	C39	0.164900	0.113400	0.779200
C401	C40	0.266700	0.132300	0.772700
C411	C41	0.319600	0.235500	0.792700
C421	C42	0.429400	0.185900	0.769100
C431	C43	0.457900	0.109400	0.747200
C441	C44	0.376600	0.082600	0.749000
C451	C45	0.224800	0.156300	0.053100
C461	C46	0.203300	0.242400	0.060800
C471	C47	0.266800	0.104200	0.114600
C481	C48	0.299800	0.127200	0.969000
C491	C49	0.942600	0.868700	0.115900
C501	C50	0.951400	0.928700	0.147700
C511	C51	0.146100	0.822200	0.995000
C521	C52	0.241200	0.823900	0.001300
C531	C53	0.310000	0.855700	0.941300
C541	C54	0.841100	0.875100	0.114300
C551	C55	0.057500	0.886600	0.220800
C561	C56	0.171700	0.867700	0.227300
C571	C57	0.347800	0.764500	0.207300
C581	C58	0.384400	0.814100	0.230900
C591	C59	0.314500	0.890600	0.252800
C601	C60	0.208200	0.917400	0.251000
C611	C61	0.434200	0.843700	0.946900
C621	C62	0.506500	0.757600	0.939200
C631	C63	0.485600	0.895800	0.885400
C641	C64	0.396000	0.872800	0.031000
C651	C65	0.061300	0.631300	0.615900
C661	C66	0.130100	0.571300	0.647700
C671	C67	0.218300	0.677800	0.495000
C681	C68	0.315100	0.676100	0.501300
C691	C69	0.415700	0.644300	0.441300
C701	C70	0.966200	0.624900	0.614300
C711	C71	0.194100	0.613400	0.720800
C721	C72	0.289400	0.632300	0.727300
C731	C73	0.362300	0.735500	0.707300
C741	C74	0.448500	0.685900	0.730900
C751	C75	0.455100	0.609400	0.752800
C761	C76	0.375600	0.582600	0.751000
C771	C77	0.527900	0.656300	0.446900
C781	C78	0.514100	0.742400	0.439200
C791	C79	0.631400	0.604200	0.385400
C801	C80	0.518800	0.627200	0.531000
C811	C81	0.308500	0.368700	0.384100
C821	C82	0.349100	0.428700	0.352300
C831	C83	0.391100	0.322200	0.505000
C841	C84	0.492500	0.323900	0.498700
C851	C85	0.501300	0.355700	0.558700
C861	C86	0.205400	0.375100	0.385700
C871	C87	0.528300	0.386600	0.279200
C881	C88	0.649000	0.367700	0.272700
C891	C89	0.805100	0.264500	0.292700
C901	C90	0.865300	0.314100	0.269100
C911	C91	0.817300	0.390600	0.247200
C921	C92	0.709200	0.417400	0.249000
C931	C93	0.631100	0.343700	0.553100
C941	C94	0.695700	0.257600	0.560800
C951	C95	0.621000	0.395800	0.614600
C961	C96	0.677000	0.372800	0.469000
C971	C97	0.307400	0.384100	0.631300
C981	C98	0.298600	0.352300	0.571300
C991	C99	0.103900	0.505000	0.677800
C1001	C100	0.008800	0.498700	0.676100
C1011	C101	0.940000	0.558700	0.644300
C1021	C102	0.408900	0.385700	0.624900
C1031	C103	0.192500	0.279200	0.613400
C1041	C104	0.078300	0.272700	0.632300
C1051	C105	0.902200	0.292700	0.735500
C1061	C106	0.865600	0.269100	0.685900
C1071	C107	0.935500	0.247200	0.609400
C1081	C108	0.041800	0.249000	0.582600
C1091	C109	0.815800	0.553100	0.656300
C1101	C110	0.743500	0.560800	0.742400
C1111	C111	0.764400	0.614600	0.604200
C1121	C112	0.854000	0.469000	0.627200
C1131	C113	0.322800	0.615900	0.368700
C1141	C114	0.222200	0.647700	0.428700
C1151	C115	0.286700	0.495000	0.322200
C1161	C116	0.183600	0.501300	0.323900
C1171	C117	0.143000	0.441300	0.355700
C1181	C118	0.419500	0.614300	0.375100
C1191	C119	0.085100	0.720800	0.386600
C1201	C120	0.983300	0.727300	0.367700
C1211	C121	0.930400	0.707300	0.264500
C1221	C122	0.820600	0.730900	0.314100
C1231	C123	0.792100	0.752800	0.390600
C1241	C124	0.873400	0.751000	0.417400
C1251	C125	0.025200	0.446900	0.343700
C1261	C126	0.046700	0.439200	0.257600
C1271	C127	0.983200	0.385400	0.395800
C1281	C128	0.950200	0.531000	0.372800
S11	S1	0.871550	0.073060	0.217040
S21	S2	0.161650	0.926940	0.782960
S31	S3	0.911410	0.217040	0.926940
S41	S4	0.055390	0.782960	0.073060
S51	S5	0.088350	0.717040	0.573060
S61	S6	0.378450	0.282960	0.426940
S71	S7	0.194610	0.426940	0.717040
S81	S8	0.338590	0.573060	0.282960
N11	N1	0.553000	0.205500	0.208700
N21	N2	0.967200	0.794500	0.791300
N31	N3	0.238300	0.208700	0.794500
N41	N4	0.241500	0.791300	0.205500
N51	N5	0.282800	0.708700	0.705500
N61	N6	0.697000	0.291300	0.294500
N71	N7	0.008500	0.294500	0.708700
N81	N8	0.011700	0.705500	0.291300
O11	O1	0.795700	0.150400	0.083800
O21	O2	0.029900	0.849600	0.916200
O31	O3	0.120500	0.083800	0.849600
O41	O4	0.053900	0.916200	0.150400
O51	O5	0.220100	0.583800	0.650400
O61	O6	0.454300	0.416200	0.349600
O71	O7	0.196100	0.349600	0.583800
O81	O8	0.129500	0.650400	0.416200
Sb11	Sb1	0.510000	0.365000	0.865000
F11	F1	0.407100	0.400700	0.814300
F21	F2	0.433600	0.302200	0.934000
F31	F3	0.627900	0.314300	0.900700
F41	F4	0.580200	0.434000	0.802200
F51	F5	0.430600	0.444400	0.944400
F61	F6	0.590600	0.284400	0.784400
Sb21	Sb2	0.740000	0.635000	0.135000
F71	F7	0.622100	0.599300	0.185700
F81	F8	0.669800	0.697800	0.066000
F91	F9	0.842900	0.685700	0.099300
F101	F10	0.816400	0.566000	0.197800
F111	F11	0.819400	0.555600	0.055600
F121	F12	0.659400	0.715600	0.215600
Sb31	Sb3	0.625000	0.865000	0.635000
F131	F13	0.778600	0.814300	0.599300
F141	F14	0.632400	0.934000	0.697800
F151	F15	0.471400	0.900700	0.685700
F161	F16	0.617600	0.802200	0.566000
F171	F17	0.625000	0.944400	0.555600
F181	F18	0.625000	0.784400	0.715600
Sb41	Sb4	0.125000	0.135000	0.365000
F191	F19	0.192200	0.185700	0.400700
F201	F20	0.264200	0.066000	0.302200
F211	F21	0.057800	0.099300	0.314300
F221	F22	0.985800	0.197800	0.434000
F231	F23	0.125000	0.055600	0.444400
F241	F24	0.125000	0.215600	0.284400
