data_PEMREG_clean_PM
_symmetry_space_group_name_H-M	'P1'
_cell_length_a	17.837200
_cell_length_b	21.164000
_cell_length_c	21.721000
_cell_angle_alpha	90.000000
_cell_angle_beta	90.300000
_cell_angle_gamma	90.000000
_symmetry_Int_Tables_number 1

loop_
_symmetry_equiv_pos_as_xyz
'x,y,z'

loop_
_atom_site_label
_atom_site_type_symbol
_atom_site_fract_x
_atom_site_fract_y
_atom_site_fract_z
Cd11	Cd1	0.601990	0.340680	0.514480
Cd21	Cd2	0.200360	0.915850	0.482890
Cd31	Cd3	0.398010	0.840680	0.985520
Cd41	Cd4	0.799640	0.415850	0.017110
Cd51	Cd5	0.398010	0.659320	0.485520
Cd61	Cd6	0.799640	0.084150	0.517110
Cd71	Cd7	0.601990	0.159320	0.014480
Cd81	Cd8	0.200360	0.584150	0.982890
H11	H1	0.381500	0.894500	0.508600
H21	H2	0.413000	0.962100	0.529300
H31	H3	0.318400	0.972100	0.603600
H41	H4	0.362900	0.907500	0.615200
H51	H5	0.312800	0.818600	0.556700
H61	H6	0.278400	0.812500	0.624100
H71	H7	0.215600	0.744000	0.558300
H81	H8	0.158200	0.796700	0.581800
H91	H9	0.289900	0.784500	0.465700
H101	H10	0.228900	0.734400	0.442500
H111	H11	0.277300	0.791500	0.360500
H121	H12	0.188900	0.801900	0.366400
H131	H13	0.353900	0.861300	0.416800
H141	H14	0.350100	0.888600	0.348300
H151	H15	0.404500	0.962600	0.415700
H161	H16	0.329100	0.990500	0.385800
H171	H17	0.443400	0.186500	0.402300
H181	H18	0.353700	0.107600	0.403000
H191	H19	0.400400	0.067800	0.579100
H201	H20	0.485700	0.149500	0.581700
H211	H21	0.276000	0.039400	0.530800
H221	H22	0.265400	0.051100	0.458900
H231	H23	0.245400	0.809900	0.809600
H241	H24	0.196700	0.820000	0.713200
H251	H25	0.277800	0.999500	0.701400
H261	H26	0.318800	0.991500	0.803200
H271	H27	0.156900	0.889900	0.629300
H281	H28	0.190500	0.959800	0.625000
H291	H29	0.957900	0.944100	0.418400
H301	H30	0.045800	0.865400	0.400800
H311	H31	0.030300	0.813500	0.581000
H321	H32	0.942100	0.894100	0.595900
H331	H33	0.096900	0.745500	0.506200
H341	H34	0.102400	0.765900	0.435400
H351	H35	0.234200	0.805800	0.157400
H361	H36	0.185800	0.822100	0.255200
H371	H37	0.301600	0.984300	0.268700
H381	H38	0.356400	0.965800	0.172900
H391	H39	0.213300	0.961300	0.344700
H401	H40	0.157100	0.903300	0.335500
H411	H41	0.618500	0.394500	0.991400
H421	H42	0.587000	0.462100	0.970700
H431	H43	0.681600	0.472100	0.896400
H441	H44	0.637100	0.407500	0.884800
H451	H45	0.687200	0.318600	0.943300
H461	H46	0.721600	0.312500	0.875900
H471	H47	0.784400	0.244000	0.941700
H481	H48	0.841800	0.296700	0.918200
H491	H49	0.710100	0.284500	0.034300
H501	H50	0.771100	0.234400	0.057500
H511	H51	0.722700	0.291500	0.139500
H521	H52	0.811100	0.301900	0.133600
H531	H53	0.646100	0.361300	0.083200
H541	H54	0.649900	0.388600	0.151700
H551	H55	0.595500	0.462600	0.084300
H561	H56	0.670900	0.490500	0.114200
H571	H57	0.556600	0.686500	0.097700
H581	H58	0.646300	0.607600	0.097000
H591	H59	0.599600	0.567800	0.920900
H601	H60	0.514300	0.649500	0.918300
H611	H61	0.724000	0.539400	0.969200
H621	H62	0.734600	0.551100	0.041100
H631	H63	0.754600	0.309900	0.690400
H641	H64	0.803300	0.320000	0.786800
H651	H65	0.722200	0.499500	0.798600
H661	H66	0.681200	0.491500	0.696800
H671	H67	0.843100	0.389900	0.870700
H681	H68	0.809500	0.459800	0.875000
H691	H69	0.042100	0.444100	0.081600
H701	H70	0.954200	0.365400	0.099200
H711	H71	0.969700	0.313500	0.919000
H721	H72	0.057900	0.394100	0.904100
H731	H73	0.903100	0.245500	0.993800
H741	H74	0.897600	0.265900	0.064600
H751	H75	0.765800	0.305800	0.342600
H761	H76	0.814200	0.322100	0.244800
H771	H77	0.698400	0.484300	0.231300
H781	H78	0.643600	0.465800	0.327100
H791	H79	0.786700	0.461300	0.155300
H801	H80	0.842900	0.403300	0.164500
H811	H81	0.618500	0.105500	0.491400
H821	H82	0.587000	0.037900	0.470700
H831	H83	0.681600	0.027900	0.396400
H841	H84	0.637100	0.092500	0.384800
H851	H85	0.687200	0.181400	0.443300
H861	H86	0.721600	0.187500	0.375900
H871	H87	0.784400	0.256000	0.441700
H881	H88	0.841800	0.203300	0.418200
H891	H89	0.710100	0.215500	0.534300
H901	H90	0.771100	0.265600	0.557500
H911	H91	0.722700	0.208500	0.639500
H921	H92	0.811100	0.198100	0.633600
H931	H93	0.646100	0.138700	0.583200
H941	H94	0.649900	0.111400	0.651700
H951	H95	0.595500	0.037400	0.584300
H961	H96	0.670900	0.009500	0.614200
H971	H97	0.556600	0.813500	0.597700
H981	H98	0.646300	0.892400	0.597000
H991	H99	0.599600	0.932200	0.420900
H1001	H100	0.514300	0.850500	0.418300
H1011	H101	0.724000	0.960600	0.469200
H1021	H102	0.734600	0.948900	0.541100
H1031	H103	0.754600	0.190100	0.190400
H1041	H104	0.803300	0.180000	0.286800
H1051	H105	0.722200	0.000500	0.298600
H1061	H106	0.681200	0.008500	0.196800
H1071	H107	0.843100	0.110100	0.370700
H1081	H108	0.809500	0.040200	0.375000
H1091	H109	0.042100	0.055900	0.581600
H1101	H110	0.954200	0.134600	0.599200
H1111	H111	0.969700	0.186500	0.419000
H1121	H112	0.057900	0.105900	0.404100
H1131	H113	0.903100	0.254500	0.493800
H1141	H114	0.897600	0.234100	0.564600
H1151	H115	0.765800	0.194200	0.842600
H1161	H116	0.814200	0.177900	0.744800
H1171	H117	0.698400	0.015700	0.731300
H1181	H118	0.643600	0.034200	0.827100
H1191	H119	0.786700	0.038700	0.655300
H1201	H120	0.842900	0.096700	0.664500
H1211	H121	0.381500	0.605500	0.008600
H1221	H122	0.413000	0.537900	0.029300
H1231	H123	0.318400	0.527900	0.103600
H1241	H124	0.362900	0.592500	0.115200
H1251	H125	0.312800	0.681400	0.056700
H1261	H126	0.278400	0.687500	0.124100
H1271	H127	0.215600	0.756000	0.058300
H1281	H128	0.158200	0.703300	0.081800
H1291	H129	0.289900	0.715500	0.965700
H1301	H130	0.228900	0.765600	0.942500
H1311	H131	0.277300	0.708500	0.860500
H1321	H132	0.188900	0.698100	0.866400
H1331	H133	0.353900	0.638700	0.916800
H1341	H134	0.350100	0.611400	0.848300
H1351	H135	0.404500	0.537400	0.915700
H1361	H136	0.329100	0.509500	0.885800
H1371	H137	0.443400	0.313500	0.902300
H1381	H138	0.353700	0.392400	0.903000
H1391	H139	0.400400	0.432200	0.079100
H1401	H140	0.485700	0.350500	0.081700
H1411	H141	0.276000	0.460600	0.030800
H1421	H142	0.265400	0.448900	0.958900
H1431	H143	0.245400	0.690100	0.309600
H1441	H144	0.196700	0.680000	0.213200
H1451	H145	0.277800	0.500500	0.201400
H1461	H146	0.318800	0.508500	0.303200
H1471	H147	0.156900	0.610100	0.129300
H1481	H148	0.190500	0.540200	0.125000
H1491	H149	0.957900	0.555900	0.918400
H1501	H150	0.045800	0.634600	0.900800
H1511	H151	0.030300	0.686500	0.081000
H1521	H152	0.942100	0.605900	0.095900
H1531	H153	0.096900	0.754500	0.006200
H1541	H154	0.102400	0.734100	0.935400
H1551	H155	0.234200	0.694200	0.657400
H1561	H156	0.185800	0.677900	0.755200
H1571	H157	0.301600	0.515700	0.768700
H1581	H158	0.356400	0.534200	0.672900
H1591	H159	0.213300	0.538700	0.844700
H1601	H160	0.157100	0.596700	0.835500
C11	C1	0.366900	0.936700	0.524100
C21	C2	0.328300	0.929500	0.586600
C31	C3	0.267800	0.827300	0.581800
C41	C4	0.203100	0.789500	0.556100
C51	C5	0.239200	0.780100	0.447600
C61	C6	0.237800	0.810800	0.386400
C71	C7	0.329400	0.893300	0.390200
C81	C8	0.349300	0.958000	0.414100
C91	C9	0.526500	0.231200	0.496300
C101	C10	0.474300	0.175500	0.492100
C111	C11	0.434300	0.163100	0.438800
C121	C12	0.380900	0.116000	0.439800
C131	C13	0.364800	0.080400	0.491200
C141	C14	0.407400	0.092900	0.543300
C151	C15	0.459500	0.140400	0.544500
C161	C16	0.301400	0.036300	0.490500
C171	C17	0.328500	0.889100	0.879900
C181	C18	0.293000	0.896800	0.816000
C191	C19	0.252900	0.848200	0.787800
C201	C20	0.224200	0.854100	0.730500
C211	C21	0.234000	0.908900	0.695900
C221	C22	0.271100	0.961200	0.723700
C231	C23	0.297400	0.955700	0.783400
C241	C24	0.203700	0.915000	0.632500
C251	C25	0.892900	0.982100	0.518900
C261	C26	0.945100	0.928700	0.508700
C271	C27	0.973800	0.918200	0.451700
C281	C28	0.025500	0.870800	0.440800
C291	C29	0.047600	0.831200	0.488400
C301	C30	0.016100	0.840200	0.547700
C311	C31	0.964400	0.888600	0.556600
C321	C32	0.106200	0.781600	0.478200
C331	C33	0.332100	0.872100	0.091700
C341	C34	0.298900	0.884900	0.154100
C351	C35	0.249000	0.842200	0.180100
C361	C36	0.220400	0.851600	0.238600
C371	C37	0.242000	0.904200	0.273400
C381	C38	0.289400	0.946800	0.246900
C391	C39	0.320500	0.936900	0.188700
C401	C40	0.210700	0.915500	0.335900
C411	C41	0.633100	0.436700	0.975900
C421	C42	0.671700	0.429500	0.913400
C431	C43	0.732200	0.327300	0.918200
C441	C44	0.796900	0.289500	0.943900
C451	C45	0.760800	0.280100	0.052400
C461	C46	0.762200	0.310800	0.113600
C471	C47	0.670600	0.393300	0.109800
C481	C48	0.650700	0.458000	0.085900
C491	C49	0.473500	0.731200	0.003700
C501	C50	0.525700	0.675500	0.007900
C511	C51	0.565700	0.663100	0.061200
C521	C52	0.619100	0.616000	0.060200
C531	C53	0.635200	0.580400	0.008800
C541	C54	0.592600	0.592900	0.956700
C551	C55	0.540500	0.640400	0.955500
C561	C56	0.698600	0.536300	0.009500
C571	C57	0.671500	0.389100	0.620100
C581	C58	0.707000	0.396800	0.684000
C591	C59	0.747100	0.348200	0.712200
C601	C60	0.775800	0.354100	0.769500
C611	C61	0.766000	0.408900	0.804100
C621	C62	0.728900	0.461200	0.776300
C631	C63	0.702600	0.455700	0.716600
C641	C64	0.796300	0.415000	0.867500
C651	C65	0.107100	0.482100	0.981100
C661	C66	0.054900	0.428700	0.991300
C671	C67	0.026200	0.418200	0.048300
C681	C68	0.974500	0.370800	0.059200
C691	C69	0.952400	0.331200	0.011600
C701	C70	0.983900	0.340200	0.952300
C711	C71	0.035600	0.388600	0.943400
C721	C72	0.893800	0.281600	0.021800
C731	C73	0.667900	0.372100	0.408300
C741	C74	0.701100	0.384900	0.345900
C751	C75	0.751000	0.342200	0.319900
C761	C76	0.779600	0.351600	0.261400
C771	C77	0.758000	0.404200	0.226600
C781	C78	0.710600	0.446800	0.253100
C791	C79	0.679500	0.436900	0.311300
C801	C80	0.789300	0.415500	0.164100
C811	C81	0.633100	0.063300	0.475900
C821	C82	0.671700	0.070500	0.413400
C831	C83	0.732200	0.172700	0.418200
C841	C84	0.796900	0.210500	0.443900
C851	C85	0.760800	0.219900	0.552400
C861	C86	0.762200	0.189200	0.613600
C871	C87	0.670600	0.106700	0.609800
C881	C88	0.650700	0.042000	0.585900
C891	C89	0.473500	0.768800	0.503700
C901	C90	0.525700	0.824500	0.507900
C911	C91	0.565700	0.836900	0.561200
C921	C92	0.619100	0.884000	0.560200
C931	C93	0.635200	0.919600	0.508800
C941	C94	0.592600	0.907100	0.456700
C951	C95	0.540500	0.859600	0.455500
C961	C96	0.698600	0.963700	0.509500
C971	C97	0.671500	0.110900	0.120100
C981	C98	0.707000	0.103200	0.184000
C991	C99	0.747100	0.151800	0.212200
C1001	C100	0.775800	0.145900	0.269500
C1011	C101	0.766000	0.091100	0.304100
C1021	C102	0.728900	0.038800	0.276300
C1031	C103	0.702600	0.044300	0.216600
C1041	C104	0.796300	0.085000	0.367500
C1051	C105	0.107100	0.017900	0.481100
C1061	C106	0.054900	0.071300	0.491300
C1071	C107	0.026200	0.081800	0.548300
C1081	C108	0.974500	0.129200	0.559200
C1091	C109	0.952400	0.168800	0.511600
C1101	C110	0.983900	0.159800	0.452300
C1111	C111	0.035600	0.111400	0.443400
C1121	C112	0.893800	0.218400	0.521800
C1131	C113	0.667900	0.127900	0.908300
C1141	C114	0.701100	0.115100	0.845900
C1151	C115	0.751000	0.157800	0.819900
C1161	C116	0.779600	0.148400	0.761400
C1171	C117	0.758000	0.095800	0.726600
C1181	C118	0.710600	0.053200	0.753100
C1191	C119	0.679500	0.063100	0.811300
C1201	C120	0.789300	0.084500	0.664100
C1211	C121	0.366900	0.563300	0.024100
C1221	C122	0.328300	0.570500	0.086600
C1231	C123	0.267800	0.672700	0.081800
C1241	C124	0.203100	0.710500	0.056100
C1251	C125	0.239200	0.719900	0.947600
C1261	C126	0.237800	0.689200	0.886400
C1271	C127	0.329400	0.606700	0.890200
C1281	C128	0.349300	0.542000	0.914100
C1291	C129	0.526500	0.268800	0.996300
C1301	C130	0.474300	0.324500	0.992100
C1311	C131	0.434300	0.336900	0.938800
C1321	C132	0.380900	0.384000	0.939800
C1331	C133	0.364800	0.419600	0.991200
C1341	C134	0.407400	0.407100	0.043300
C1351	C135	0.459500	0.359600	0.044500
C1361	C136	0.301400	0.463700	0.990500
C1371	C137	0.328500	0.610900	0.379900
C1381	C138	0.293000	0.603200	0.316000
C1391	C139	0.252900	0.651800	0.287800
C1401	C140	0.224200	0.645900	0.230500
C1411	C141	0.234000	0.591100	0.195900
C1421	C142	0.271100	0.538800	0.223700
C1431	C143	0.297400	0.544300	0.283400
C1441	C144	0.203700	0.585000	0.132500
C1451	C145	0.892900	0.517900	0.018900
C1461	C146	0.945100	0.571300	0.008700
C1471	C147	0.973800	0.581800	0.951700
C1481	C148	0.025500	0.629200	0.940800
C1491	C149	0.047600	0.668800	0.988400
C1501	C150	0.016100	0.659800	0.047700
C1511	C151	0.964400	0.611400	0.056600
C1521	C152	0.106200	0.718400	0.978200
C1531	C153	0.332100	0.627900	0.591700
C1541	C154	0.298900	0.615100	0.654100
C1551	C155	0.249000	0.657800	0.680100
C1561	C156	0.220400	0.648400	0.738600
C1571	C157	0.242000	0.595800	0.773400
C1581	C158	0.289400	0.553200	0.746900
C1591	C159	0.320500	0.563100	0.688700
C1601	C160	0.210700	0.584500	0.835900
N11	N1	0.256100	0.893700	0.583370
N21	N2	0.316900	0.967800	0.478420
N31	N3	0.184700	0.806810	0.489600
N41	N4	0.249500	0.880400	0.387910
N51	N5	0.743900	0.393700	0.916630
N61	N6	0.683100	0.467800	0.021580
N71	N7	0.815300	0.306810	0.010400
N81	N8	0.750500	0.380400	0.112090
N91	N9	0.743900	0.106300	0.416630
N101	N10	0.683100	0.032200	0.521580
N111	N11	0.815300	0.193190	0.510400
N121	N12	0.750500	0.119600	0.612090
N131	N13	0.256100	0.606300	0.083370
N141	N14	0.316900	0.532200	0.978420
N151	N15	0.184700	0.693190	0.989600
N161	N16	0.249500	0.619600	0.887910
O11	O1	0.517900	0.276900	0.458400
O21	O2	0.573600	0.233100	0.533600
O31	O3	0.350200	0.938300	0.906100
O41	O4	0.328400	0.836300	0.900620
O51	O5	0.864400	0.993270	0.570020
O61	O6	0.875300	0.014880	0.471260
O71	O7	0.310100	0.825200	0.063000
O81	O8	0.380800	0.907760	0.071230
O91	O9	0.482100	0.776900	0.041600
O101	O10	0.426400	0.733100	0.966400
O111	O11	0.649800	0.438300	0.593900
O121	O12	0.671600	0.336300	0.599380
O131	O13	0.135600	0.493270	0.929980
O141	O14	0.124700	0.514880	0.028740
O151	O15	0.689900	0.325200	0.437000
O161	O16	0.619200	0.407760	0.428770
O171	O17	0.482100	0.723100	0.541600
O181	O18	0.426400	0.766900	0.466400
O191	O19	0.649800	0.061700	0.093900
O201	O20	0.671600	0.163700	0.099380
O211	O21	0.135600	0.006730	0.429980
O221	O22	0.124700	0.985120	0.528740
O231	O23	0.689900	0.174800	0.937000
O241	O24	0.619200	0.092240	0.928770
O251	O25	0.517900	0.223100	0.958400
O261	O26	0.573600	0.266900	0.033600
O271	O27	0.350200	0.561700	0.406100
O281	O28	0.328400	0.663700	0.400620
O291	O29	0.864400	0.506730	0.070020
O301	O30	0.875300	0.485120	0.971260
O311	O31	0.310100	0.674800	0.563000
O321	O32	0.380800	0.592240	0.571230
