data_PENNUT_clean_PM
_symmetry_space_group_name_H-M	'P1'
_cell_length_a	11.727000
_cell_length_b	13.451000
_cell_length_c	15.565000
_cell_angle_alpha	113.390000
_cell_angle_beta	98.710000
_cell_angle_gamma	102.970000
_symmetry_Int_Tables_number 1

loop_
_symmetry_equiv_pos_as_xyz
'x,y,z'

loop_
_atom_site_label
_atom_site_type_symbol
_atom_site_fract_x
_atom_site_fract_y
_atom_site_fract_z
Zn11	Zn1	0.348640	0.345720	0.652910
Zn21	Zn2	0.480420	0.808350	0.309400
Zn31	Zn3	0.076570	0.420300	0.688070
Zn41	Zn4	0.651360	0.654280	0.347090
Zn51	Zn5	0.519580	0.191650	0.690600
Zn61	Zn6	0.923430	0.579700	0.311930
H11	H1	0.103200	0.005700	0.372100
H21	H2	0.900200	0.848900	0.298700
H31	H3	0.551200	0.649300	0.953300
H41	H4	0.662600	0.729900	0.131000
H51	H5	0.189100	0.726600	0.637500
H61	H6	0.267400	0.813200	0.532700
H71	H7	0.010600	0.450200	0.412000
H81	H8	0.162300	0.374500	0.429200
H91	H9	0.127100	0.532200	0.219400
H101	H10	0.285000	0.461200	0.235100
H111	H11	0.346600	0.344300	0.403100
H121	H12	0.426500	0.432000	0.376300
H131	H13	0.349600	0.295300	0.211900
H141	H14	0.435700	0.263500	0.276600
H151	H15	0.198700	0.174900	0.266500
H161	H16	0.222200	0.130900	0.163400
H171	H17	0.325900	0.993800	0.118400
H181	H18	0.320300	0.132700	0.392600
H191	H19	0.401000	0.001900	0.416900
H201	H20	0.403100	0.864300	0.145500
H211	H21	0.896800	0.994300	0.627900
H221	H22	0.099800	0.151100	0.701300
H231	H23	0.448800	0.350700	0.046700
H241	H24	0.337400	0.270100	0.869000
H251	H25	0.810900	0.273400	0.362500
H261	H26	0.732600	0.186800	0.467300
H271	H27	0.989400	0.549800	0.588000
H281	H28	0.837700	0.625500	0.570800
H291	H29	0.872900	0.467800	0.780600
H301	H30	0.715000	0.538800	0.764900
H311	H31	0.653400	0.655700	0.596900
H321	H32	0.573500	0.568000	0.623700
H331	H33	0.650400	0.704700	0.788100
H341	H34	0.564300	0.736500	0.723400
H351	H35	0.801300	0.825100	0.733500
H361	H36	0.777800	0.869100	0.836600
H371	H37	0.674100	0.006200	0.881600
H381	H38	0.679700	0.867300	0.607400
H391	H39	0.599000	0.998100	0.583100
H401	H40	0.596900	0.135700	0.854500
C11	C1	0.093700	0.220800	0.518400
C21	C2	0.013500	0.103800	0.449900
C31	C3	0.030400	0.011800	0.386900
C41	C4	0.916300	0.923300	0.345700
C51	C5	0.837500	0.968900	0.388100
C61	C6	0.708200	0.922000	0.382800
C71	C7	0.559600	0.419900	0.835500
C81	C8	0.611100	0.512700	0.935600
C91	C9	0.594800	0.615000	0.981500
C101	C10	0.657000	0.660100	0.081200
C111	C11	0.706800	0.581200	0.089700
C121	C12	0.782200	0.578600	0.171800
C131	C13	0.284200	0.547000	0.639900
C141	C14	0.304400	0.632000	0.602200
C151	C15	0.246700	0.709000	0.604000
C161	C16	0.290700	0.757700	0.545400
C171	C17	0.374100	0.707500	0.511100
C181	C18	0.446000	0.722900	0.445200
C191	C19	0.067000	0.453600	0.376400
C201	C20	0.158500	0.407900	0.387300
C211	C21	0.245800	0.411200	0.336000
C221	C22	0.135200	0.502400	0.263800
C231	C23	0.230600	0.458600	0.272500
C241	C24	0.351700	0.369200	0.352900
C251	C25	0.356700	0.273900	0.264600
C261	C26	0.260500	0.161900	0.232300
C271	C27	0.309900	0.076100	0.250400
C281	C28	0.338600	0.996700	0.179900
C291	C29	0.336000	0.077900	0.340700
C301	C30	0.385400	0.998900	0.355400
C311	C31	0.386600	0.919300	0.196900
C321	C32	0.906300	0.779200	0.481600
C331	C33	0.986500	0.896200	0.550100
C341	C34	0.969600	0.988200	0.613100
C351	C35	0.083700	0.076700	0.654300
C361	C36	0.162500	0.031100	0.611900
C371	C37	0.291800	0.078000	0.617200
C381	C38	0.440400	0.580100	0.164500
C391	C39	0.388900	0.487300	0.064400
C401	C40	0.405200	0.385000	0.018500
C411	C41	0.343000	0.339900	0.918800
C421	C42	0.293200	0.418800	0.910300
C431	C43	0.217800	0.421400	0.828200
C441	C44	0.715800	0.453000	0.360100
C451	C45	0.695600	0.368000	0.397800
C461	C46	0.753300	0.291000	0.396000
C471	C47	0.709300	0.242300	0.454600
C481	C48	0.625900	0.292500	0.488900
C491	C49	0.554000	0.277100	0.554800
C501	C50	0.933000	0.546400	0.623600
C511	C51	0.841500	0.592100	0.612700
C521	C52	0.754200	0.588800	0.664000
C531	C53	0.864800	0.497600	0.736200
C541	C54	0.769400	0.541400	0.727500
C551	C55	0.648300	0.630800	0.647100
C561	C56	0.643300	0.726100	0.735400
C571	C57	0.739500	0.838100	0.767700
C581	C58	0.690100	0.923900	0.749600
C591	C59	0.661400	0.003300	0.820100
C601	C60	0.664000	0.922100	0.659300
C611	C61	0.614600	0.001100	0.644600
C621	C62	0.613400	0.080700	0.803100
N11	N1	0.054000	0.503700	0.316400
N21	N2	0.410700	0.919900	0.284400
N31	N3	0.946000	0.496300	0.683600
N41	N4	0.589300	0.080100	0.715600
O11	O1	0.206900	0.233900	0.535400
O21	O2	0.045700	0.295900	0.553400
O31	O3	0.893400	0.081900	0.452400
O41	O4	0.653300	0.818300	0.317900
O51	O5	0.657800	0.982000	0.435100
O61	O6	0.593000	0.332400	0.816600
O71	O7	0.486600	0.436800	0.779000
O81	O8	0.682800	0.490000	0.000000
O91	O9	0.779800	0.641800	0.256100
O101	O10	0.850500	0.517400	0.158300
O111	O11	0.198400	0.547300	0.680600
O121	O12	0.351000	0.484100	0.630200
O131	O13	0.385800	0.630700	0.546600
O141	O14	0.530800	0.682300	0.433500
O151	O15	0.409600	0.780300	0.404400
O161	O16	0.793100	0.766100	0.464600
O171	O17	0.954300	0.704100	0.446600
O181	O18	0.106600	0.918100	0.547600
O191	O19	0.346700	0.181700	0.682100
O201	O20	0.342200	0.018000	0.564900
O211	O21	0.407000	0.667600	0.183400
O221	O22	0.513400	0.563200	0.221000
O231	O23	0.317200	0.510000	0.000000
O241	O24	0.220200	0.358200	0.743900
O251	O25	0.149500	0.482600	0.841700
O261	O26	0.801600	0.452700	0.319400
O271	O27	0.649000	0.515900	0.369800
O281	O28	0.614200	0.369300	0.453400
O291	O29	0.469200	0.317700	0.566500
O301	O30	0.590400	0.219700	0.595600
