data_PENNAZ_clean_PM
_symmetry_space_group_name_H-M	'P1'
_cell_length_a	18.617800
_cell_length_b	19.754000
_cell_length_c	23.142300
_cell_angle_alpha	66.085700
_cell_angle_beta	66.281300
_cell_angle_gamma	61.885200
_symmetry_Int_Tables_number 1

loop_
_symmetry_equiv_pos_as_xyz
'x,y,z'

loop_
_atom_site_label
_atom_site_type_symbol
_atom_site_fract_x
_atom_site_fract_y
_atom_site_fract_z
Cd11	Cd1	0.332170	0.885320	0.695520
Cd21	Cd2	0.461250	0.680770	0.677470
Cd31	Cd3	0.739790	0.690010	0.958870
Cd41	Cd4	0.913010	0.614680	0.804480
Cd51	Cd5	0.819490	0.819230	0.822530
Cd61	Cd6	0.388670	0.809990	0.541130
Cd71	Cd7	0.667830	0.114680	0.304480
Cd81	Cd8	0.538750	0.319230	0.322530
Cd91	Cd9	0.260210	0.309990	0.041130
Cd101	Cd10	0.086990	0.385320	0.195520
Cd111	Cd11	0.180510	0.180770	0.177470
Cd121	Cd12	0.611330	0.190010	0.458870
H11	H1	0.655900	0.688700	0.752100
H21	H2	0.423700	0.840300	0.816900
H31	H3	0.622500	0.826400	0.856600
H41	H4	0.359500	0.924600	0.985800
H51	H5	0.498400	0.059300	0.887900
H61	H6	0.285100	0.997800	0.061600
H71	H7	0.423200	0.131900	0.965900
H81	H8	0.445500	0.036000	0.450800
H91	H9	0.243800	0.092700	0.600300
H101	H10	0.368200	0.242600	0.492400
H111	H11	0.114500	0.276600	0.680800
H121	H12	0.238100	0.419700	0.574100
H131	H13	0.020300	0.367900	0.742100
H141	H14	0.144700	0.512500	0.632300
H151	H15	0.096700	0.811300	0.747900
H161	H16	0.080900	0.659700	0.683100
H171	H17	0.305500	0.673600	0.643400
H181	H18	0.269900	0.575400	0.514200
H191	H19	0.445600	0.440700	0.612100
H201	H20	0.344500	0.502200	0.438400
H211	H21	0.521000	0.368100	0.534100
H221	H22	0.932300	0.464000	0.049200
H231	H23	0.936800	0.407300	0.899700
H241	H24	0.103200	0.257400	0.007600
H251	H25	0.071900	0.223400	0.819200
H261	H26	0.231900	0.080300	0.925900
H271	H27	0.130300	0.132100	0.757900
H281	H28	0.289500	0.987500	0.867700
H291	H29	0.344100	0.311300	0.247900
H301	H30	0.576300	0.159700	0.183100
H311	H31	0.377500	0.173600	0.143400
H321	H32	0.640500	0.075400	0.014200
H331	H33	0.501600	0.940700	0.112100
H341	H34	0.714900	0.002200	0.938400
H351	H35	0.576800	0.868100	0.034100
H361	H36	0.554500	0.964000	0.549200
H371	H37	0.756200	0.907300	0.399700
H381	H38	0.631800	0.757400	0.507600
H391	H39	0.885500	0.723400	0.319200
H401	H40	0.761900	0.580300	0.425900
H411	H41	0.979700	0.632100	0.257900
H421	H42	0.855300	0.487500	0.367700
H431	H43	0.903300	0.188700	0.252100
H441	H44	0.919100	0.340300	0.316900
H451	H45	0.694500	0.326400	0.356600
H461	H46	0.730100	0.424600	0.485800
H471	H47	0.554400	0.559300	0.387900
H481	H48	0.655500	0.497800	0.561600
H491	H49	0.479000	0.631900	0.465900
H501	H50	0.067700	0.536000	0.950800
H511	H51	0.063200	0.592700	0.100300
H521	H52	0.896800	0.742600	0.992400
H531	H53	0.928100	0.776600	0.180800
H541	H54	0.768100	0.919700	0.074100
H551	H55	0.869700	0.867900	0.242100
H561	H56	0.710500	0.012500	0.132300
C11	C1	0.620200	0.727500	0.774700
C21	C2	0.500600	0.732600	0.748000
C31	C3	0.534690	0.760720	0.778900
C41	C4	0.653150	0.751900	0.804200
C51	C5	0.743770	0.711260	0.803600
C61	C6	0.481300	0.818500	0.813100
C71	C7	0.600700	0.809800	0.837200
C81	C8	0.514500	0.843300	0.841100
C91	C9	0.434900	0.986000	0.928800
C101	C10	0.372000	0.967300	0.980900
C111	C11	0.454900	0.047000	0.922600
C121	C12	0.327400	0.011000	0.026000
C131	C13	0.408900	0.090900	0.969500
C141	C14	0.346300	0.075500	0.018100
C151	C15	0.298200	0.119500	0.070300
C161	C16	0.408590	0.070920	0.476700
C171	C17	0.336400	0.974600	0.543200
C181	C18	0.343820	0.052060	0.528300
C191	C19	0.418840	0.141420	0.463300
C201	C20	0.493620	0.158160	0.411400
C211	C21	0.287500	0.104800	0.565800
C221	C22	0.362060	0.194980	0.501100
C231	C23	0.296620	0.176460	0.551500
C241	C24	0.179800	0.343300	0.617700
C251	C25	0.119600	0.325300	0.669500
C261	C26	0.191700	0.410300	0.606700
C271	C27	0.063600	0.380200	0.707000
C281	C28	0.137100	0.465300	0.642500
C291	C29	0.071500	0.449200	0.693200
C301	C30	0.012400	0.507700	0.734500
C311	C31	0.122400	0.772500	0.725300
C321	C32	0.981200	0.767400	0.752000
C331	C33	0.074310	0.739280	0.721100
C341	C34	0.209250	0.748100	0.695800
C351	C35	0.258630	0.788740	0.696400
C361	C36	0.112900	0.681500	0.686900
C371	C37	0.247700	0.690200	0.662800
C381	C38	0.198900	0.656700	0.658900
C391	C39	0.349700	0.514000	0.571200
C401	C40	0.320200	0.532700	0.519100
C411	C41	0.424500	0.453000	0.577400
C421	C42	0.364400	0.489000	0.474000
C431	C43	0.469300	0.409100	0.530500
C441	C44	0.439900	0.424500	0.481900
C451	C45	0.488000	0.380500	0.429700
C461	C46	0.956210	0.429080	0.023300
C471	C47	0.854200	0.525400	0.956800
C481	C48	0.924180	0.447940	0.971700
C491	C49	0.023560	0.358580	0.036700
C501	C50	0.063180	0.341840	0.088600
C511	C51	0.958100	0.395200	0.934200
C521	C52	0.058140	0.305020	0.998900
C531	C53	0.024580	0.323540	0.948500
C541	C54	0.140800	0.156700	0.882300
C551	C55	0.114400	0.174700	0.830500
C561	C56	0.208700	0.089700	0.893300
C571	C57	0.150800	0.119800	0.793000
C581	C58	0.244900	0.034700	0.857500
C591	C59	0.213900	0.050800	0.806800
C601	C60	0.254600	0.992300	0.765500
C611	C61	0.379800	0.272500	0.225300
C621	C62	0.499400	0.267400	0.252000
C631	C63	0.465310	0.239280	0.221100
C641	C64	0.346850	0.248100	0.195800
C651	C65	0.256230	0.288740	0.196400
C661	C66	0.518700	0.181500	0.186900
C671	C67	0.399300	0.190200	0.162800
C681	C68	0.485500	0.156700	0.158900
C691	C69	0.565100	0.014000	0.071200
C701	C70	0.628000	0.032700	0.019100
C711	C71	0.545100	0.953000	0.077400
C721	C72	0.672600	0.989000	0.974000
C731	C73	0.591100	0.909100	0.030500
C741	C74	0.653700	0.924500	0.981900
C751	C75	0.701800	0.880500	0.929700
C761	C76	0.591410	0.929080	0.523300
C771	C77	0.663600	0.025400	0.456800
C781	C78	0.656180	0.947940	0.471700
C791	C79	0.581160	0.858580	0.536700
C801	C80	0.506380	0.841840	0.588600
C811	C81	0.712500	0.895200	0.434200
C821	C82	0.637940	0.805020	0.498900
C831	C83	0.703380	0.823540	0.448500
C841	C84	0.820200	0.656700	0.382300
C851	C85	0.880400	0.674700	0.330500
C861	C86	0.808300	0.589700	0.393300
C871	C87	0.936400	0.619800	0.293000
C881	C88	0.862900	0.534700	0.357500
C891	C89	0.928500	0.550800	0.306800
C901	C90	0.987600	0.492300	0.265500
C911	C91	0.877600	0.227500	0.274700
C921	C92	0.018800	0.232600	0.248000
C931	C93	0.925690	0.260720	0.278900
C941	C94	0.790750	0.251900	0.304200
C951	C95	0.741370	0.211260	0.303600
C961	C96	0.887100	0.318500	0.313100
C971	C97	0.752300	0.309800	0.337200
C981	C98	0.801100	0.343300	0.341100
C991	C99	0.650300	0.486000	0.428800
C1001	C100	0.679800	0.467300	0.480900
C1011	C101	0.575500	0.547000	0.422600
C1021	C102	0.635600	0.511000	0.526000
C1031	C103	0.530700	0.590900	0.469500
C1041	C104	0.560100	0.575500	0.518100
C1051	C105	0.512000	0.619500	0.570300
C1061	C106	0.043790	0.570920	0.976700
C1071	C107	0.145800	0.474600	0.043200
C1081	C108	0.075820	0.552060	0.028300
C1091	C109	0.976440	0.641420	0.963300
C1101	C110	0.936820	0.658160	0.911400
C1111	C111	0.041900	0.604800	0.065800
C1121	C112	0.941860	0.694980	0.001100
C1131	C113	0.975420	0.676460	0.051500
C1141	C114	0.859200	0.843300	0.117700
C1151	C115	0.885600	0.825300	0.169500
C1161	C116	0.791300	0.910300	0.106700
C1171	C117	0.849200	0.880200	0.207000
C1181	C118	0.755100	0.965300	0.142500
C1191	C119	0.786100	0.949200	0.193200
C1201	C120	0.745400	0.007700	0.234500
N11	N1	0.456430	0.898440	0.879300
N21	N2	0.488210	0.938380	0.883600
N31	N3	0.234430	0.227040	0.592900
N41	N4	0.241200	0.291800	0.576600
N51	N5	0.234170	0.601560	0.620700
N61	N6	0.310190	0.561620	0.616400
N71	N7	0.054370	0.272960	0.907100
N81	N8	0.109600	0.208200	0.923400
N91	N9	0.543570	0.101560	0.120700
N101	N10	0.511790	0.061620	0.116400
N111	N11	0.765570	0.772960	0.407100
N121	N12	0.758800	0.708200	0.423400
N131	N13	0.765830	0.398440	0.379300
N141	N14	0.689810	0.438380	0.383600
N151	N15	0.945630	0.727040	0.092900
N161	N16	0.890400	0.791800	0.076600
O11	O1	0.423120	0.763560	0.750600
O21	O2	0.551170	0.679360	0.720100
O31	O3	0.768080	0.723040	0.842000
O41	O4	0.794010	0.667880	0.766900
O51	O5	0.317370	0.174560	0.064700
O61	O6	0.242600	0.098600	0.116400
O71	O7	0.290580	0.949140	0.597500
O81	O8	0.380680	0.935440	0.501200
O91	O9	0.538740	0.114320	0.373600
O101	O10	0.508070	0.214860	0.411200
O111	O11	0.024600	0.561300	0.729100
O121	O12	0.945600	0.494200	0.776200
O131	O13	0.937280	0.736440	0.749400
O141	O14	0.950630	0.820640	0.779900
O151	O15	0.333120	0.776960	0.658000
O161	O16	0.228790	0.832120	0.733100
O171	O17	0.556630	0.325440	0.435300
O181	O18	0.457600	0.401400	0.383600
O191	O19	0.837220	0.550860	0.902500
O201	O20	0.817320	0.564560	0.998800
O211	O21	0.026660	0.385680	0.126400
O221	O22	0.134130	0.285140	0.088800
O231	O23	0.315000	0.938700	0.770900
O241	O24	0.216000	0.005800	0.723800
O251	O25	0.576880	0.236440	0.249400
O261	O26	0.448830	0.320640	0.279900
O271	O27	0.231920	0.276960	0.158000
O281	O28	0.205990	0.332120	0.233100
O291	O29	0.682630	0.825440	0.935300
O301	O30	0.757400	0.901400	0.883600
O311	O31	0.709420	0.050860	0.402500
O321	O32	0.619320	0.064560	0.498800
O331	O33	0.461260	0.885680	0.626400
O341	O34	0.491930	0.785140	0.588800
O351	O35	0.975400	0.438700	0.270900
O361	O36	0.054400	0.505800	0.223800
O371	O37	0.062720	0.263560	0.250600
O381	O38	0.049370	0.179360	0.220100
O391	O39	0.666880	0.223040	0.342000
O401	O40	0.771210	0.167880	0.266900
O411	O41	0.443370	0.674560	0.564700
O421	O42	0.542400	0.598600	0.616400
O431	O43	0.162780	0.449140	0.097500
O441	O44	0.182680	0.435440	0.001200
O451	O45	0.973340	0.614320	0.873600
O461	O46	0.865870	0.714860	0.911200
O471	O47	0.685000	0.061300	0.229100
O481	O48	0.784000	0.994200	0.276200
