data_PENNON_clean_PM
_symmetry_space_group_name_H-M	'P1'
_cell_length_a	14.440100
_cell_length_b	19.697700
_cell_length_c	19.697700
_cell_angle_alpha	82.278700
_cell_angle_beta	68.497500
_cell_angle_gamma	68.497400
_symmetry_Int_Tables_number 1

loop_
_symmetry_equiv_pos_as_xyz
'x,y,z'

loop_
_atom_site_label
_atom_site_type_symbol
_atom_site_fract_x
_atom_site_fract_y
_atom_site_fract_z
Co11	Co1	0.169310	0.809500	0.177980
Co21	Co2	0.156790	0.190500	0.822030
Co31	Co3	0.652710	0.177970	0.190510
Co41	Co4	0.021180	0.822030	0.809500
Co51	Co5	0.093220	0.677970	0.309490
Co61	Co6	0.080680	0.322030	0.690500
Co71	Co7	0.228820	0.690500	0.677970
Co81	Co8	0.597290	0.309500	0.322020
H11	H1	0.767600	0.785200	0.333400
H21	H2	0.865800	0.950300	0.229500
H31	H3	0.552700	0.974800	0.298000
H41	H4	0.886200	0.214800	0.666600
H51	H5	0.045600	0.049700	0.770500
H61	H6	0.825500	0.025200	0.702000
H71	H7	0.899000	0.333400	0.214800
H81	H8	0.904700	0.229500	0.049700
H91	H9	0.149300	0.298000	0.025200
H101	H10	0.447200	0.666600	0.785200
H111	H11	0.183900	0.770500	0.950300
H121	H12	0.472500	0.702000	0.974800
H131	H13	0.363800	0.833400	0.285200
H141	H14	0.204400	0.729500	0.450300
H151	H15	0.424500	0.798000	0.474800
H161	H16	0.482400	0.166600	0.714800
H171	H17	0.384200	0.270500	0.549700
H181	H18	0.697300	0.202000	0.525200
H191	H19	0.802800	0.714800	0.833400
H201	H20	0.066100	0.549700	0.729500
H211	H21	0.777500	0.525200	0.798000
H221	H22	0.351000	0.285200	0.166600
H231	H23	0.345300	0.450300	0.270500
H241	H24	0.100700	0.474800	0.202000
C11	C1	0.942790	0.815300	0.274520
C21	C2	0.647040	0.876590	0.323930
C31	C3	0.751820	0.833850	0.315510
C41	C4	0.810330	0.931020	0.252920
C51	C5	0.685200	0.050000	0.228400
C61	C6	0.831620	0.861010	0.281950
C71	C7	0.623470	0.946050	0.294210
C81	C8	0.706300	0.972460	0.258740
C91	C9	0.563000	0.845850	0.360350
C101	C10	0.032610	0.184700	0.725480
C111	C11	0.847560	0.123410	0.676070
C121	C12	0.901180	0.166150	0.684490
C131	C13	0.994270	0.068980	0.747080
C141	C14	0.963600	0.950000	0.771600
C151	C15	0.974580	0.138990	0.718050
C161	C16	0.863730	0.053950	0.705790
C171	C17	0.937500	0.027540	0.741260
C181	C18	0.769200	0.154150	0.639650
C191	C19	0.782690	0.274520	0.184700
C201	C20	0.029030	0.323930	0.123410
C211	C21	0.932670	0.315510	0.166150
C221	C22	0.936750	0.252920	0.068980
C231	C23	0.086400	0.228400	0.950000
C241	C24	0.886430	0.281950	0.138990
C251	C25	0.082320	0.294210	0.053950
C261	C26	0.034960	0.258740	0.027540
C271	C27	0.076650	0.360350	0.154150
C281	C28	0.241910	0.725480	0.815300
C291	C29	0.476370	0.676070	0.876590
C301	C30	0.414330	0.684490	0.833850
C311	C31	0.258650	0.747080	0.931020
C321	C32	0.264800	0.771600	0.050000
C331	C33	0.307370	0.718050	0.861010
C341	C34	0.430480	0.705790	0.946050
C351	C35	0.321240	0.741260	0.972460
C361	C36	0.591150	0.639650	0.845850
C371	C37	0.217390	0.774520	0.315300
C381	C38	0.402440	0.823930	0.376590
C391	C39	0.348820	0.815510	0.333850
C401	C40	0.255730	0.752920	0.431020
C411	C41	0.286400	0.728400	0.550000
C421	C42	0.275420	0.781950	0.361010
C431	C43	0.386270	0.794210	0.446050
C441	C44	0.312500	0.758740	0.472460
C451	C45	0.480800	0.860350	0.345850
C461	C46	0.307210	0.225480	0.684700
C471	C47	0.602960	0.176070	0.623410
C481	C48	0.498180	0.184490	0.666150
C491	C49	0.439670	0.247080	0.568980
C501	C50	0.564800	0.271600	0.450000
C511	C51	0.418380	0.218050	0.638990
C521	C52	0.626530	0.205790	0.553950
C531	C53	0.543700	0.241260	0.527540
C541	C54	0.687000	0.139650	0.654150
C551	C55	0.008090	0.684700	0.774520
C561	C56	0.773630	0.623410	0.823930
C571	C57	0.835670	0.666150	0.815510
C581	C58	0.991350	0.568980	0.752920
C591	C59	0.985200	0.450000	0.728400
C601	C60	0.942630	0.638990	0.781950
C611	C61	0.819520	0.553950	0.794210
C621	C62	0.928760	0.527540	0.758740
C631	C63	0.658850	0.654150	0.860350
C641	C64	0.467310	0.315300	0.225480
C651	C65	0.220970	0.376590	0.176070
C661	C66	0.317330	0.333850	0.184490
C671	C67	0.313250	0.431020	0.247080
C681	C68	0.163600	0.550000	0.271600
C691	C69	0.363570	0.361010	0.218050
C701	C70	0.167680	0.446050	0.205790
C711	C71	0.215040	0.472460	0.241260
C721	C72	0.173350	0.345850	0.139650
O11	O1	0.013580	0.843450	0.239090
O21	O2	0.759440	0.074510	0.203150
O31	O3	0.958490	0.753660	0.303860
O41	O4	0.594920	0.086880	0.228160
O51	O5	0.601000	0.777700	0.400100
O61	O6	0.096120	0.156550	0.760910
O71	O7	0.037100	0.925490	0.796850
O81	O8	0.016010	0.246340	0.696140
O91	O9	0.909960	0.913120	0.771840
O101	O10	0.778800	0.222300	0.599900
O111	O11	0.747330	0.239090	0.156550
O121	O12	0.037410	0.203150	0.925490
O131	O13	0.737650	0.303860	0.246340
O141	O14	0.176920	0.228160	0.913120
O151	O15	0.998900	0.400100	0.222300
O161	O16	0.142970	0.760910	0.843450
O171	O17	0.166050	0.796850	0.074510
O181	O18	0.287850	0.696140	0.753660
O191	O19	0.318200	0.771840	0.086880
O201	O20	0.621300	0.599900	0.777700
O211	O21	0.153880	0.739090	0.343450
O221	O22	0.212900	0.703150	0.574510
O231	O23	0.233990	0.803860	0.253660
O241	O24	0.340040	0.728160	0.586880
O251	O25	0.471200	0.900100	0.277700
O261	O26	0.236420	0.260910	0.656550
O271	O27	0.490560	0.296850	0.425490
O281	O28	0.291510	0.196140	0.746340
O291	O29	0.655080	0.271840	0.413120
O301	O30	0.649000	0.099900	0.722300
O311	O31	0.107030	0.656550	0.739090
O321	O32	0.083950	0.425490	0.703150
O331	O33	0.962150	0.746340	0.803860
O341	O34	0.931800	0.413120	0.728160
O351	O35	0.628700	0.722300	0.900100
O361	O36	0.502670	0.343450	0.260910
O371	O37	0.212590	0.574510	0.296850
O381	O38	0.512350	0.253660	0.196140
O391	O39	0.073080	0.586880	0.271840
O401	O40	0.251100	0.277700	0.099900
