data_PENZIS_clean_PM
_symmetry_space_group_name_H-M	'P1'
_cell_length_a	10.103400
_cell_length_b	25.155000
_cell_length_c	9.104000
_cell_angle_alpha	90.000000
_cell_angle_beta	90.000000
_cell_angle_gamma	90.000000
_symmetry_Int_Tables_number 1

loop_
_symmetry_equiv_pos_as_xyz
'x,y,z'

loop_
_atom_site_label
_atom_site_type_symbol
_atom_site_fract_x
_atom_site_fract_y
_atom_site_fract_z
Zn11	Zn1	0.157620	0.553010	0.120940
P11	P1	0.109560	0.680700	0.097360
H11	H1	0.000500	0.687900	0.036500
P21	P2	0.431520	0.527630	0.284550
H21	H2	0.501500	0.571000	0.290300
O11	O1	0.109600	0.722940	0.216700
O21	O2	0.198200	0.690870	0.967700
O31	O3	0.121400	0.625900	0.159100
O41	O4	0.338700	0.532750	0.155500
O51	O5	0.528900	0.482520	0.250800
O61	O6	0.362100	0.520680	0.429700
Zn21	Zn2	0.342380	0.946990	0.120940
P31	P3	0.390440	0.819300	0.097360
H31	H3	0.499500	0.812100	0.036500
P41	P4	0.068480	0.972370	0.284550
H41	H4	0.998500	0.929000	0.290300
O71	O7	0.390400	0.777060	0.216700
O81	O8	0.301800	0.809130	0.967700
O91	O9	0.378600	0.874100	0.159100
O101	O10	0.161300	0.967250	0.155500
O111	O11	0.971100	0.017480	0.250800
O121	O12	0.137900	0.979320	0.429700
Zn31	Zn3	0.842380	0.053010	0.379060
P51	P5	0.890440	0.180700	0.402640
H51	H5	0.999500	0.187900	0.463500
P61	P6	0.568480	0.027630	0.215450
H61	H6	0.498500	0.071000	0.209700
O131	O13	0.890400	0.222940	0.283300
O141	O14	0.801800	0.190870	0.532300
O151	O15	0.878600	0.125900	0.340900
O161	O16	0.661300	0.032750	0.344500
O171	O17	0.471100	0.982520	0.249200
O181	O18	0.637900	0.020680	0.070300
Zn41	Zn4	0.657620	0.446990	0.379060
P71	P7	0.609560	0.319300	0.402640
H71	H7	0.500500	0.312100	0.463500
P81	P8	0.931520	0.472370	0.215450
H81	H8	0.001500	0.429000	0.209700
O191	O19	0.609600	0.277060	0.283300
O201	O20	0.698200	0.309130	0.532300
O211	O21	0.621400	0.374100	0.340900
O221	O22	0.838700	0.467250	0.344500
O231	O23	0.028900	0.517480	0.249200
O241	O24	0.862100	0.479320	0.070300
Zn51	Zn5	0.842380	0.446990	0.879060
P91	P9	0.890440	0.319300	0.902640
H91	H9	0.999500	0.312100	0.963500
P101	P10	0.568480	0.472370	0.715450
H101	H10	0.498500	0.429000	0.709700
O251	O25	0.890400	0.277060	0.783300
O261	O26	0.801800	0.309130	0.032300
O271	O27	0.878600	0.374100	0.840900
O281	O28	0.661300	0.467250	0.844500
O291	O29	0.471100	0.517480	0.749200
O301	O30	0.637900	0.479320	0.570300
Zn61	Zn6	0.657620	0.053010	0.879060
P111	P11	0.609560	0.180700	0.902640
H111	H11	0.500500	0.187900	0.963500
P121	P12	0.931520	0.027630	0.715450
H121	H12	0.001500	0.071000	0.709700
O311	O31	0.609600	0.222940	0.783300
O321	O32	0.698200	0.190870	0.032300
O331	O33	0.621400	0.125900	0.840900
O341	O34	0.838700	0.032750	0.844500
O351	O35	0.028900	0.982520	0.749200
O361	O36	0.862100	0.020680	0.570300
Zn71	Zn7	0.157620	0.946990	0.620940
P131	P13	0.109560	0.819300	0.597360
H131	H13	0.000500	0.812100	0.536500
P141	P14	0.431520	0.972370	0.784550
H141	H14	0.501500	0.929000	0.790300
O371	O37	0.109600	0.777060	0.716700
O381	O38	0.198200	0.809130	0.467700
O391	O39	0.121400	0.874100	0.659100
O401	O40	0.338700	0.967250	0.655500
O411	O41	0.528900	0.017480	0.750800
O421	O42	0.362100	0.979320	0.929700
Zn81	Zn8	0.342380	0.553010	0.620940
P151	P15	0.390440	0.680700	0.597360
H151	H15	0.499500	0.687900	0.536500
P161	P16	0.068480	0.527630	0.784550
H161	H16	0.998500	0.571000	0.790300
O431	O43	0.390400	0.722940	0.716700
O441	O44	0.301800	0.690870	0.467700
O451	O45	0.378600	0.625900	0.659100
O461	O46	0.161300	0.532750	0.655500
O471	O47	0.971100	0.482520	0.750800
O481	O48	0.137900	0.520680	0.929700
Zn91	Zn9	0.250000	0.750000	0.344370
Zn101	Zn10	0.750000	0.250000	0.155630
Zn111	Zn11	0.750000	0.250000	0.655630
Zn121	Zn12	0.250000	0.750000	0.844370
