data_PEPFAT_clean_PM
_symmetry_space_group_name_H-M	'P1'
_cell_length_a	19.727000
_cell_length_b	28.384200
_cell_length_c	28.384200
_cell_angle_alpha	61.485300
_cell_angle_beta	69.665500
_cell_angle_gamma	69.665500
_symmetry_Int_Tables_number 1

loop_
_symmetry_equiv_pos_as_xyz
'x,y,z'

loop_
_atom_site_label
_atom_site_type_symbol
_atom_site_fract_x
_atom_site_fract_y
_atom_site_fract_z
Zn11	Zn1	0.657420	0.520650	0.014430
Zn21	Zn2	0.873510	0.449900	0.319380
Zn31	Zn3	0.647090	0.697660	0.556420
Zn41	Zn4	0.342580	0.985570	0.479350
Zn51	Zn5	0.126490	0.680620	0.550100
Zn61	Zn6	0.352910	0.443580	0.302340
Zn71	Zn7	0.192500	0.979350	0.485570
Zn81	Zn8	0.642790	0.050100	0.180620
Zn91	Zn9	0.901170	0.802340	0.943580
Zn101	Zn10	0.807500	0.514430	0.020650
Zn111	Zn11	0.357210	0.819380	0.949900
Zn121	Zn12	0.098830	0.056420	0.197660
Zn131	Zn13	0.342580	0.479350	0.985570
Zn141	Zn14	0.126490	0.550100	0.680620
Zn151	Zn15	0.352910	0.302340	0.443580
Zn161	Zn16	0.657420	0.014430	0.520650
Zn171	Zn17	0.873510	0.319380	0.449900
Zn181	Zn18	0.647090	0.556420	0.697660
Zn191	Zn19	0.807500	0.020650	0.514430
Zn201	Zn20	0.357210	0.949900	0.819380
Zn211	Zn21	0.098830	0.197660	0.056420
Zn221	Zn22	0.192500	0.485570	0.979350
Zn231	Zn23	0.642790	0.180620	0.050100
Zn241	Zn24	0.901170	0.943580	0.802340
Zn251	Zn25	0.736450	0.424380	0.424380
Zn261	Zn26	0.263550	0.575620	0.575620
Zn271	Zn27	0.585210	0.075620	0.075620
Zn281	Zn28	0.414790	0.924380	0.924380
Zn291	Zn29	0.759080	0.604350	0.604350
Zn301	Zn30	0.608060	0.593200	0.593200
Zn311	Zn31	0.240920	0.395650	0.395650
Zn321	Zn32	0.391940	0.406800	0.406800
Zn331	Zn33	0.967780	0.895650	0.895650
Zn341	Zn34	0.794460	0.906800	0.906800
Zn351	Zn35	0.032220	0.104350	0.104350
Zn361	Zn36	0.205540	0.093200	0.093200
Zn371	Zn37	0.032930	0.717070	0.217070
Zn381	Zn38	0.967070	0.782930	0.282930
Zn391	Zn39	0.967070	0.282930	0.782930
Zn401	Zn40	0.032930	0.217070	0.717070
H11	H1	0.723400	0.561100	0.449500
H21	H2	0.808000	0.689700	0.403500
H31	H3	0.883000	0.603100	0.312700
H41	H4	0.566300	0.472500	0.189300
H51	H5	0.601700	0.441500	0.332500
H61	H6	0.762800	0.479100	0.194700
H71	H7	0.711800	0.558400	0.833600
H81	H8	0.908800	0.541700	0.856700
H91	H9	0.890500	0.575000	0.708200
H101	H10	0.276600	0.550500	0.438900
H111	H11	0.192000	0.596500	0.310300
H121	H12	0.117000	0.687300	0.396900
H131	H13	0.433700	0.810700	0.527500
H141	H14	0.398300	0.667500	0.558500
H151	H15	0.237200	0.805300	0.520900
H161	H16	0.288200	0.166400	0.441600
H171	H17	0.091200	0.143300	0.458300
H181	H18	0.109500	0.291800	0.425000
H191	H19	0.734000	0.938900	0.050500
H201	H20	0.901200	0.810300	0.096500
H211	H21	0.798800	0.896900	0.187300
H221	H22	0.228100	0.027500	0.310700
H231	H23	0.375700	0.058500	0.167500
H241	H24	0.436600	0.020900	0.305300
H251	H25	0.103800	0.941600	0.666400
H261	H26	0.307200	0.958300	0.643300
H271	H27	0.173700	0.925000	0.791800
H281	H28	0.266000	0.949500	0.061100
H291	H29	0.098800	0.903500	0.189700
H301	H30	0.201200	0.812700	0.103100
H311	H31	0.771900	0.689300	0.972500
H321	H32	0.624300	0.832500	0.941500
H331	H33	0.563400	0.694700	0.979100
H341	H34	0.896200	0.333600	0.058400
H351	H35	0.692800	0.356700	0.041700
H361	H36	0.826300	0.208200	0.075000
H371	H37	0.276600	0.438900	0.550500
H381	H38	0.192000	0.310300	0.596500
H391	H39	0.117000	0.396900	0.687300
H401	H40	0.433700	0.527500	0.810700
H411	H41	0.398300	0.558500	0.667500
H421	H42	0.237200	0.520900	0.805300
H431	H43	0.288200	0.441600	0.166400
H441	H44	0.091200	0.458300	0.143300
H451	H45	0.109500	0.425000	0.291800
H461	H46	0.723400	0.449500	0.561100
H471	H47	0.808000	0.403500	0.689700
H481	H48	0.883000	0.312700	0.603100
H491	H49	0.566300	0.189300	0.472500
H501	H50	0.601700	0.332500	0.441500
H511	H51	0.762800	0.194700	0.479100
H521	H52	0.711800	0.833600	0.558400
H531	H53	0.908800	0.856700	0.541700
H541	H54	0.890500	0.708200	0.575000
H551	H55	0.266000	0.061100	0.949500
H561	H56	0.098800	0.189700	0.903500
H571	H57	0.201200	0.103100	0.812700
H581	H58	0.771900	0.972500	0.689300
H591	H59	0.624300	0.941500	0.832500
H601	H60	0.563400	0.979100	0.694700
H611	H61	0.896200	0.058400	0.333600
H621	H62	0.692800	0.041700	0.356700
H631	H63	0.826300	0.075000	0.208200
H641	H64	0.734000	0.050500	0.938900
H651	H65	0.901200	0.096500	0.810300
H661	H66	0.798800	0.187300	0.896900
H671	H67	0.228100	0.310700	0.027500
H681	H68	0.375700	0.167500	0.058500
H691	H69	0.436600	0.305300	0.020900
H701	H70	0.103800	0.666400	0.941600
H711	H71	0.307200	0.643300	0.958300
H721	H72	0.173700	0.791800	0.925000
C11	C1	0.802530	0.575070	0.379470
C21	C2	0.756510	0.583590	0.425590
C31	C3	0.759520	0.625680	0.436280
C41	C4	0.807730	0.659970	0.398170
C51	C5	0.854930	0.650970	0.352970
C61	C6	0.851840	0.609060	0.343460
C71	C7	0.802420	0.526780	0.370980
C81	C8	0.714640	0.631260	0.486860
C91	C9	0.905890	0.688510	0.314310
C101	C10	0.668800	0.479100	0.182500
C111	C11	0.597390	0.469210	0.209410
C121	C12	0.572420	0.454580	0.265780
C131	C13	0.618180	0.450420	0.295020
C141	C14	0.690120	0.459780	0.268380
C151	C15	0.714960	0.473540	0.212140
C161	C16	0.694760	0.494440	0.121840
C171	C17	0.496710	0.443090	0.295090
C181	C18	0.739660	0.452940	0.303140
C191	C19	0.793500	0.567300	0.765500
C201	C20	0.761980	0.558620	0.820020
C211	C21	0.804050	0.550350	0.854350
C221	C22	0.879730	0.548670	0.833470
C231	C23	0.912030	0.556970	0.780170
C241	C24	0.869170	0.567630	0.745230
C251	C25	0.749950	0.574950	0.727350
C261	C26	0.771480	0.539220	0.913420
C271	C27	0.995200	0.552000	0.758600
C281	C28	0.197470	0.620530	0.424930
C291	C29	0.243490	0.574410	0.416410
C301	C30	0.240480	0.563720	0.374320
C311	C31	0.192270	0.601830	0.340030
C321	C32	0.145070	0.647030	0.349030
C331	C33	0.148160	0.656540	0.390940
C341	C34	0.197580	0.629020	0.473220
C351	C35	0.285360	0.513140	0.368740
C361	C36	0.094110	0.685690	0.311490
C371	C37	0.331200	0.817500	0.520900
C381	C38	0.402610	0.790590	0.530790
C391	C39	0.427580	0.734220	0.545420
C401	C40	0.381820	0.704980	0.549580
C411	C41	0.309880	0.731620	0.540220
C421	C42	0.285040	0.787860	0.526460
C431	C43	0.305240	0.878160	0.505560
C441	C44	0.503290	0.704910	0.556910
C451	C45	0.260340	0.696860	0.547060
C461	C46	0.206500	0.234500	0.432700
C471	C47	0.238020	0.179980	0.441380
C481	C48	0.195950	0.145650	0.449650
C491	C49	0.120270	0.166530	0.451330
C501	C50	0.087970	0.219830	0.443030
C511	C51	0.130830	0.254770	0.432370
C521	C52	0.250050	0.272650	0.425050
C531	C53	0.228520	0.086580	0.460780
C541	C54	0.004800	0.241400	0.448000
C551	C55	0.757070	0.924930	0.120530
C561	C56	0.765690	0.916410	0.074410
C571	C57	0.821480	0.874320	0.063720
C581	C58	0.865870	0.840030	0.101830
C591	C59	0.858870	0.849030	0.147030
C601	C60	0.804360	0.890940	0.156540
C611	C61	0.700180	0.973220	0.129020
C621	C62	0.832760	0.868740	0.013140
C631	C63	0.908710	0.811490	0.185690
C641	C64	0.330400	0.020900	0.317500
C651	C65	0.276010	0.030790	0.290590
C661	C66	0.292780	0.045420	0.234220
C671	C67	0.363620	0.049580	0.204980
C681	C68	0.418280	0.040220	0.231620
C691	C69	0.400640	0.026460	0.287860
C701	C70	0.311040	0.005560	0.378160
C711	C71	0.234890	0.056910	0.204910
C721	C72	0.495740	0.047060	0.196860
C731	C73	0.126300	0.932700	0.734500
C741	C74	0.140620	0.941380	0.679980
C751	C75	0.208750	0.949650	0.645650
C761	C76	0.261870	0.951330	0.666530
C771	C77	0.249170	0.943030	0.719830
C781	C78	0.182030	0.932370	0.754770
C791	C79	0.052250	0.925050	0.772650
C801	C80	0.224120	0.960780	0.586580
C811	C81	0.305800	0.948000	0.741400
C821	C82	0.242930	0.879470	0.075070
C831	C83	0.234310	0.925590	0.083590
C841	C84	0.178520	0.936280	0.125680
C851	C85	0.134130	0.898170	0.159970
C861	C86	0.141130	0.852970	0.150970
C871	C87	0.195640	0.843460	0.109060
C881	C88	0.299820	0.870980	0.026780
C891	C89	0.167240	0.986860	0.131260
C901	C90	0.091290	0.814310	0.188510
C911	C91	0.669600	0.682500	0.979100
C921	C92	0.723990	0.709410	0.969210
C931	C93	0.707220	0.765780	0.954580
C941	C94	0.636380	0.795020	0.950420
C951	C95	0.581720	0.768380	0.959780
C961	C96	0.599360	0.712140	0.973540
C971	C97	0.688960	0.621840	0.994440
C981	C98	0.765110	0.795090	0.943090
C991	C99	0.504260	0.803140	0.952940
C1001	C100	0.873700	0.265500	0.067300
C1011	C101	0.859380	0.320020	0.058620
C1021	C102	0.791250	0.354350	0.050350
C1031	C103	0.738130	0.333470	0.048670
C1041	C104	0.750830	0.280170	0.056970
C1051	C105	0.817970	0.245230	0.067630
C1061	C106	0.947750	0.227350	0.074950
C1071	C107	0.775880	0.413420	0.039220
C1081	C108	0.694200	0.258600	0.052000
C1091	C109	0.197470	0.424930	0.620530
C1101	C110	0.243490	0.416410	0.574410
C1111	C111	0.240480	0.374320	0.563720
C1121	C112	0.192270	0.340030	0.601830
C1131	C113	0.145070	0.349030	0.647030
C1141	C114	0.148160	0.390940	0.656540
C1151	C115	0.197580	0.473220	0.629020
C1161	C116	0.285360	0.368740	0.513140
C1171	C117	0.094110	0.311490	0.685690
C1181	C118	0.331200	0.520900	0.817500
C1191	C119	0.402610	0.530790	0.790590
C1201	C120	0.427580	0.545420	0.734220
C1211	C121	0.381820	0.549580	0.704980
C1221	C122	0.309880	0.540220	0.731620
C1231	C123	0.285040	0.526460	0.787860
C1241	C124	0.305240	0.505560	0.878160
C1251	C125	0.503290	0.556910	0.704910
C1261	C126	0.260340	0.547060	0.696860
C1271	C127	0.206500	0.432700	0.234500
C1281	C128	0.238020	0.441380	0.179980
C1291	C129	0.195950	0.449650	0.145650
C1301	C130	0.120270	0.451330	0.166530
C1311	C131	0.087970	0.443030	0.219830
C1321	C132	0.130830	0.432370	0.254770
C1331	C133	0.250050	0.425050	0.272650
C1341	C134	0.228520	0.460780	0.086580
C1351	C135	0.004800	0.448000	0.241400
C1361	C136	0.802530	0.379470	0.575070
C1371	C137	0.756510	0.425590	0.583590
C1381	C138	0.759520	0.436280	0.625680
C1391	C139	0.807730	0.398170	0.659970
C1401	C140	0.854930	0.352970	0.650970
C1411	C141	0.851840	0.343460	0.609060
C1421	C142	0.802420	0.370980	0.526780
C1431	C143	0.714640	0.486860	0.631260
C1441	C144	0.905890	0.314310	0.688510
C1451	C145	0.668800	0.182500	0.479100
C1461	C146	0.597390	0.209410	0.469210
C1471	C147	0.572420	0.265780	0.454580
C1481	C148	0.618180	0.295020	0.450420
C1491	C149	0.690120	0.268380	0.459780
C1501	C150	0.714960	0.212140	0.473540
C1511	C151	0.694760	0.121840	0.494440
C1521	C152	0.496710	0.295090	0.443090
C1531	C153	0.739660	0.303140	0.452940
C1541	C154	0.793500	0.765500	0.567300
C1551	C155	0.761980	0.820020	0.558620
C1561	C156	0.804050	0.854350	0.550350
C1571	C157	0.879730	0.833470	0.548670
C1581	C158	0.912030	0.780170	0.556970
C1591	C159	0.869170	0.745230	0.567630
C1601	C160	0.749950	0.727350	0.574950
C1611	C161	0.771480	0.913420	0.539220
C1621	C162	0.995200	0.758600	0.552000
C1631	C163	0.242930	0.075070	0.879470
C1641	C164	0.234310	0.083590	0.925590
C1651	C165	0.178520	0.125680	0.936280
C1661	C166	0.134130	0.159970	0.898170
C1671	C167	0.141130	0.150970	0.852970
C1681	C168	0.195640	0.109060	0.843460
C1691	C169	0.299820	0.026780	0.870980
C1701	C170	0.167240	0.131260	0.986860
C1711	C171	0.091290	0.188510	0.814310
C1721	C172	0.669600	0.979100	0.682500
C1731	C173	0.723990	0.969210	0.709410
C1741	C174	0.707220	0.954580	0.765780
C1751	C175	0.636380	0.950420	0.795020
C1761	C176	0.581720	0.959780	0.768380
C1771	C177	0.599360	0.973540	0.712140
C1781	C178	0.688960	0.994440	0.621840
C1791	C179	0.765110	0.943090	0.795090
C1801	C180	0.504260	0.952940	0.803140
C1811	C181	0.873700	0.067300	0.265500
C1821	C182	0.859380	0.058620	0.320020
C1831	C183	0.791250	0.050350	0.354350
C1841	C184	0.738130	0.048670	0.333470
C1851	C185	0.750830	0.056970	0.280170
C1861	C186	0.817970	0.067630	0.245230
C1871	C187	0.947750	0.074950	0.227350
C1881	C188	0.775880	0.039220	0.413420
C1891	C189	0.694200	0.052000	0.258600
C1901	C190	0.757070	0.120530	0.924930
C1911	C191	0.765690	0.074410	0.916410
C1921	C192	0.821480	0.063720	0.874320
C1931	C193	0.865870	0.101830	0.840030
C1941	C194	0.858870	0.147030	0.849030
C1951	C195	0.804360	0.156540	0.890940
C1961	C196	0.700180	0.129020	0.973220
C1971	C197	0.832760	0.013140	0.868740
C1981	C198	0.908710	0.185690	0.811490
C1991	C199	0.330400	0.317500	0.020900
C2001	C200	0.276010	0.290590	0.030790
C2011	C201	0.292780	0.234220	0.045420
C2021	C202	0.363620	0.204980	0.049580
C2031	C203	0.418280	0.231620	0.040220
C2041	C204	0.400640	0.287860	0.026460
C2051	C205	0.311040	0.378160	0.005560
C2061	C206	0.234890	0.204910	0.056910
C2071	C207	0.495740	0.196860	0.047060
C2081	C208	0.126300	0.734500	0.932700
C2091	C209	0.140620	0.679980	0.941380
C2101	C210	0.208750	0.645650	0.949650
C2111	C211	0.261870	0.666530	0.951330
C2121	C212	0.249170	0.719830	0.943030
C2131	C213	0.182030	0.754770	0.932370
C2141	C214	0.052250	0.772650	0.925050
C2151	C215	0.224120	0.586580	0.960780
C2161	C216	0.305800	0.741400	0.948000
O11	O1	0.852640	0.516970	0.331150
O21	O2	0.754760	0.500600	0.401680
O31	O3	0.665600	0.607540	0.513860
O41	O4	0.948850	0.678350	0.273950
O51	O5	0.904970	0.726230	0.325030
O61	O6	0.760770	0.498660	0.100000
O71	O7	0.648710	0.501310	0.096070
O81	O8	0.461140	0.439860	0.268860
O91	O9	0.475580	0.437170	0.342470
O101	O10	0.711510	0.447730	0.349850
O111	O11	0.806840	0.454540	0.279580
O121	O12	0.782160	0.580790	0.680890
O131	O13	0.684910	0.570590	0.746190
O141	O14	0.702920	0.540520	0.931440
O151	O15	0.816230	0.528880	0.942060
O161	O16	0.021510	0.564650	0.709730
O171	O17	0.036500	0.518700	0.793500
O181	O18	0.752700	0.642200	0.511400
O191	O19	0.147360	0.668850	0.483030
O201	O20	0.245240	0.598320	0.499400
O211	O21	0.334400	0.486140	0.392460
O221	O22	0.051150	0.726050	0.321650
O231	O23	0.095030	0.674970	0.273770
O241	O24	0.239230	0.900000	0.501340
O251	O25	0.351290	0.903930	0.498690
O261	O26	0.538860	0.731140	0.560140
O271	O27	0.524420	0.657530	0.562830
O281	O28	0.288490	0.650150	0.552270
O291	O29	0.193160	0.720420	0.545460
O301	O30	0.217840	0.319110	0.419210
O311	O31	0.315090	0.253810	0.429410
O321	O32	0.297080	0.068560	0.459480
O331	O33	0.183770	0.057940	0.471120
O341	O34	0.978490	0.290270	0.435350
O351	O35	0.963500	0.206500	0.481300
O361	O36	0.247300	0.488600	0.357800
O371	O37	0.700760	0.983030	0.168850
O381	O38	0.657040	0.999400	0.098320
O391	O39	0.787000	0.892460	0.986140
O401	O40	0.901150	0.821650	0.226050
O411	O41	0.956230	0.773770	0.174970
O421	O42	0.359430	0.001340	0.400000
O431	O43	0.246090	0.998690	0.403930
O441	O44	0.169860	0.060140	0.231140
O451	O45	0.255220	0.062830	0.157530
O461	O46	0.509090	0.052270	0.150150
O471	O47	0.540960	0.045460	0.220420
O481	O48	0.043840	0.919210	0.819110
O491	O49	0.001690	0.929410	0.753810
O501	O50	0.174880	0.959480	0.568560
O511	O51	0.287170	0.971120	0.557940
O521	O52	0.295890	0.935350	0.790270
O531	O53	0.348700	0.981300	0.706500
O541	O54	0.906300	0.857800	0.988600
O551	O55	0.299240	0.831150	0.016970
O561	O56	0.342960	0.901680	0.000600
O571	O57	0.213000	0.013860	0.107540
O581	O58	0.098850	0.773950	0.178350
O591	O59	0.043770	0.825030	0.226230
O601	O60	0.640570	0.600000	0.998660
O611	O61	0.753910	0.596070	0.001310
O621	O62	0.830140	0.768860	0.939860
O631	O63	0.744780	0.842470	0.937170
O641	O64	0.490910	0.849850	0.947730
O651	O65	0.459040	0.779580	0.954540
O661	O66	0.956160	0.180890	0.080790
O671	O67	0.998310	0.246190	0.070590
O681	O68	0.825120	0.431440	0.040520
O691	O69	0.712830	0.442060	0.028880
O701	O70	0.704110	0.209730	0.064650
O711	O71	0.651300	0.293500	0.018700
O721	O72	0.093700	0.011400	0.142200
O731	O73	0.147360	0.483030	0.668850
O741	O74	0.245240	0.499400	0.598320
O751	O75	0.334400	0.392460	0.486140
O761	O76	0.051150	0.321650	0.726050
O771	O77	0.095030	0.273770	0.674970
O781	O78	0.239230	0.501340	0.900000
O791	O79	0.351290	0.498690	0.903930
O801	O80	0.538860	0.560140	0.731140
O811	O81	0.524420	0.562830	0.657530
O821	O82	0.288490	0.552270	0.650150
O831	O83	0.193160	0.545460	0.720420
O841	O84	0.217840	0.419210	0.319110
O851	O85	0.315090	0.429410	0.253810
O861	O86	0.297080	0.459480	0.068560
O871	O87	0.183770	0.471120	0.057940
O881	O88	0.978490	0.435350	0.290270
O891	O89	0.963500	0.481300	0.206500
O901	O90	0.247300	0.357800	0.488600
O911	O91	0.852640	0.331150	0.516970
O921	O92	0.754760	0.401680	0.500600
O931	O93	0.665600	0.513860	0.607540
O941	O94	0.948850	0.273950	0.678350
O951	O95	0.904970	0.325030	0.726230
O961	O96	0.760770	0.100000	0.498660
O971	O97	0.648710	0.096070	0.501310
O981	O98	0.461140	0.268860	0.439860
O991	O99	0.475580	0.342470	0.437170
O1001	O100	0.711510	0.349850	0.447730
O1011	O101	0.806840	0.279580	0.454540
O1021	O102	0.782160	0.680890	0.580790
O1031	O103	0.684910	0.746190	0.570590
O1041	O104	0.702920	0.931440	0.540520
O1051	O105	0.816230	0.942060	0.528880
O1061	O106	0.021510	0.709730	0.564650
O1071	O107	0.036500	0.793500	0.518700
O1081	O108	0.752700	0.511400	0.642200
O1091	O109	0.299240	0.016970	0.831150
O1101	O110	0.342960	0.000600	0.901680
O1111	O111	0.213000	0.107540	0.013860
O1121	O112	0.098850	0.178350	0.773950
O1131	O113	0.043770	0.226230	0.825030
O1141	O114	0.640570	0.998660	0.600000
O1151	O115	0.753910	0.001310	0.596070
O1161	O116	0.830140	0.939860	0.768860
O1171	O117	0.744780	0.937170	0.842470
O1181	O118	0.490910	0.947730	0.849850
O1191	O119	0.459040	0.954540	0.779580
O1201	O120	0.956160	0.080790	0.180890
O1211	O121	0.998310	0.070590	0.246190
O1221	O122	0.825120	0.040520	0.431440
O1231	O123	0.712830	0.028880	0.442060
O1241	O124	0.704110	0.064650	0.209730
O1251	O125	0.651300	0.018700	0.293500
O1261	O126	0.093700	0.142200	0.011400
O1271	O127	0.700760	0.168850	0.983030
O1281	O128	0.657040	0.098320	0.999400
O1291	O129	0.787000	0.986140	0.892460
O1301	O130	0.901150	0.226050	0.821650
O1311	O131	0.956230	0.174970	0.773770
O1321	O132	0.359430	0.400000	0.001340
O1331	O133	0.246090	0.403930	0.998690
O1341	O134	0.169860	0.231140	0.060140
O1351	O135	0.255220	0.157530	0.062830
O1361	O136	0.509090	0.150150	0.052270
O1371	O137	0.540960	0.220420	0.045460
O1381	O138	0.043840	0.819110	0.919210
O1391	O139	0.001690	0.753810	0.929410
O1401	O140	0.174880	0.568560	0.959480
O1411	O141	0.287170	0.557940	0.971120
O1421	O142	0.295890	0.790270	0.935350
O1431	O143	0.348700	0.706500	0.981300
O1441	O144	0.906300	0.988600	0.857800
O1451	O145	0.852500	0.395500	0.395500
O1461	O146	0.147500	0.604500	0.604500
O1471	O147	0.643500	0.104500	0.104500
O1481	O148	0.356500	0.895500	0.895500
O1491	O149	0.655020	0.621780	0.621780
O1501	O150	0.344980	0.378220	0.378220
O1511	O151	0.898580	0.878220	0.878220
O1521	O152	0.101420	0.121780	0.121780
