data_PEPLIG_clean_PM
_symmetry_space_group_name_H-M	'P1'
_cell_length_a	6.785800
_cell_length_b	12.618000
_cell_length_c	17.086000
_cell_angle_alpha	90.000000
_cell_angle_beta	90.000000
_cell_angle_gamma	90.000000
_symmetry_Int_Tables_number 1

loop_
_symmetry_equiv_pos_as_xyz
'x,y,z'

loop_
_atom_site_label
_atom_site_type_symbol
_atom_site_fract_x
_atom_site_fract_y
_atom_site_fract_z
V11	V1	0.941140	0.265400	0.000740
V21	V2	0.558860	0.734600	0.500740
V31	V3	0.058860	0.765400	0.499260
V41	V4	0.441140	0.234600	0.999260
H11	H1	0.949500	0.463600	0.194400
H21	H2	0.545300	0.504500	0.323300
H31	H3	0.530200	0.403700	0.211100
H41	H4	0.968500	0.565500	0.307900
H51	H5	0.550500	0.536400	0.694400
H61	H6	0.954700	0.495500	0.823300
H71	H7	0.969800	0.596300	0.711100
H81	H8	0.531500	0.434500	0.807900
H91	H9	0.050500	0.963600	0.305600
H101	H10	0.454700	0.004500	0.176700
H111	H11	0.469800	0.903700	0.288900
H121	H12	0.031500	0.065500	0.192100
H131	H13	0.449500	0.036400	0.805600
H141	H14	0.045300	0.995500	0.676700
H151	H15	0.030200	0.096300	0.788900
H161	H16	0.468500	0.934500	0.692100
C11	C1	0.239300	0.425600	0.190700
C21	C2	0.069500	0.472500	0.219900
C31	C3	0.227400	0.362500	0.117400
C41	C4	0.425600	0.496700	0.297400
C51	C5	0.417300	0.436600	0.230100
C61	C6	0.260300	0.545000	0.326800
C71	C7	0.081000	0.533000	0.288100
C81	C8	0.270200	0.615400	0.396800
C91	C9	0.260700	0.574400	0.690700
C101	C10	0.430500	0.527500	0.719900
C111	C11	0.272600	0.637500	0.617400
C121	C12	0.074400	0.503300	0.797400
C131	C13	0.082700	0.563400	0.730100
C141	C14	0.239700	0.455000	0.826800
C151	C15	0.419000	0.467000	0.788100
C161	C16	0.229800	0.384600	0.896800
C171	C17	0.760700	0.925600	0.309300
C181	C18	0.930500	0.972500	0.280100
C191	C19	0.772600	0.862500	0.382600
C201	C20	0.574400	0.996700	0.202600
C211	C21	0.582700	0.936600	0.269900
C221	C22	0.739700	0.045000	0.173200
C231	C23	0.919000	0.033000	0.211900
C241	C24	0.729800	0.115400	0.103200
C251	C25	0.739300	0.074400	0.809300
C261	C26	0.569500	0.027500	0.780100
C271	C27	0.727400	0.137500	0.882600
C281	C28	0.925600	0.003300	0.702600
C291	C29	0.917300	0.063400	0.769900
C301	C30	0.760300	0.955000	0.673200
C311	C31	0.581000	0.967000	0.711900
C321	C32	0.770200	0.884600	0.603200
O11	O1	0.222400	0.185340	0.996040
O21	O2	0.062000	0.344900	0.088330
O31	O3	0.441000	0.635000	0.423870
O41	O4	0.109600	0.650500	0.423160
O51	O5	0.390200	0.329900	0.089300
O61	O6	0.277600	0.814660	0.496040
O71	O7	0.438000	0.655100	0.588330
O81	O8	0.059000	0.365000	0.923870
O91	O9	0.390400	0.349500	0.923160
O101	O10	0.109800	0.670100	0.589300
O111	O11	0.777600	0.685340	0.503960
O121	O12	0.938000	0.844900	0.411670
O131	O13	0.559000	0.135000	0.076130
O141	O14	0.890400	0.150500	0.076840
O151	O15	0.609800	0.829900	0.410700
O161	O16	0.722400	0.314660	0.003960
O171	O17	0.562000	0.155100	0.911670
O181	O18	0.941000	0.865000	0.576130
O191	O19	0.609600	0.849500	0.576840
O201	O20	0.890200	0.170100	0.910700
