data_PEQWAK_clean_PM
_symmetry_space_group_name_H-M	'P1'
_cell_length_a	7.535000
_cell_length_b	10.466000
_cell_length_c	21.513000
_cell_angle_alpha	90.000000
_cell_angle_beta	90.000000
_cell_angle_gamma	96.666000
_symmetry_Int_Tables_number 1

loop_
_symmetry_equiv_pos_as_xyz
'x,y,z'

loop_
_atom_site_label
_atom_site_type_symbol
_atom_site_fract_x
_atom_site_fract_y
_atom_site_fract_z
Mn11	Mn1	0.625600	0.667410	0.762390
Mn21	Mn2	0.874400	0.332590	0.262390
Mn31	Mn3	0.374400	0.332590	0.237610
Mn41	Mn4	0.125600	0.667410	0.737610
H11	H1	0.753100	0.928600	0.625400
H21	H2	0.836300	0.036000	0.535200
H31	H3	0.596300	0.428100	0.573100
H41	H4	0.066800	0.644400	0.599600
H51	H5	0.692500	0.357600	0.480200
H61	H6	0.242700	0.880900	0.568800
H71	H7	0.746900	0.071400	0.125400
H81	H8	0.663700	0.964000	0.035200
H91	H9	0.903700	0.571900	0.073100
H101	H10	0.433200	0.355600	0.099600
H111	H11	0.807500	0.642400	0.980200
H121	H12	0.257300	0.119100	0.068800
H131	H13	0.246900	0.071400	0.374600
H141	H14	0.163700	0.964000	0.464800
H151	H15	0.403700	0.571900	0.426900
H161	H16	0.933200	0.355600	0.400400
H171	H17	0.307500	0.642400	0.519800
H181	H18	0.757300	0.119100	0.431200
H191	H19	0.253100	0.928600	0.874600
H201	H20	0.336300	0.036000	0.964800
H211	H21	0.096300	0.428100	0.926900
H221	H22	0.566800	0.644400	0.900400
H231	H23	0.192500	0.357600	0.019800
H241	H24	0.742700	0.880900	0.931200
C11	C1	0.667500	0.941000	0.595490
C21	C2	0.825700	0.542400	0.596940
C31	C3	0.759100	0.583100	0.657910
C41	C4	0.717000	0.004800	0.541380
C51	C5	0.486000	0.893800	0.605890
C61	C6	0.590700	0.024000	0.495080
C71	C7	0.711400	0.456000	0.559470
C81	C8	0.993100	0.586300	0.575670
C91	C9	0.768800	0.414000	0.504090
C101	C10	0.055800	0.544600	0.517850
C111	C11	0.361800	0.911700	0.561620
C121	C12	0.434300	0.822900	0.665410
C131	C13	0.832500	0.059000	0.095490
C141	C14	0.674300	0.457600	0.096940
C151	C15	0.740900	0.416900	0.157910
C161	C16	0.783000	0.995200	0.041380
C171	C17	0.014000	0.106200	0.105890
C181	C18	0.909300	0.976000	0.995080
C191	C19	0.788600	0.544000	0.059470
C201	C20	0.506900	0.413700	0.075670
C211	C21	0.731200	0.586000	0.004090
C221	C22	0.444200	0.455400	0.017850
C231	C23	0.138200	0.088300	0.061620
C241	C24	0.065700	0.177100	0.165410
C251	C25	0.332500	0.059000	0.404510
C261	C26	0.174300	0.457600	0.403060
C271	C27	0.240900	0.416900	0.342090
C281	C28	0.283000	0.995200	0.458620
C291	C29	0.514000	0.106200	0.394110
C301	C30	0.409300	0.976000	0.504920
C311	C31	0.288600	0.544000	0.440530
C321	C32	0.006900	0.413700	0.424330
C331	C33	0.231200	0.586000	0.495910
C341	C34	0.944200	0.455400	0.482150
C351	C35	0.638200	0.088300	0.438380
C361	C36	0.565700	0.177100	0.334590
C371	C37	0.167500	0.941000	0.904510
C381	C38	0.325700	0.542400	0.903060
C391	C39	0.259100	0.583100	0.842090
C401	C40	0.217000	0.004800	0.958620
C411	C41	0.986000	0.893800	0.894110
C421	C42	0.090700	0.024000	0.004920
C431	C43	0.211400	0.456000	0.940530
C441	C44	0.493100	0.586300	0.924330
C451	C45	0.268800	0.414000	0.995910
C461	C46	0.555800	0.544600	0.982150
C471	C47	0.861800	0.911700	0.938380
C481	C48	0.934300	0.822900	0.834590
O11	O1	0.864800	0.647420	0.696320
O21	O2	0.598400	0.554480	0.671490
O31	O3	0.551600	0.819050	0.706070
O41	O4	0.273900	0.774180	0.669930
O51	O5	0.635200	0.352580	0.196320
O61	O6	0.901600	0.445520	0.171490
O71	O7	0.948400	0.180950	0.206070
O81	O8	0.226100	0.225820	0.169930
O91	O9	0.135200	0.352580	0.303680
O101	O10	0.401600	0.445520	0.328510
O111	O11	0.448400	0.180950	0.293930
O121	O12	0.726100	0.225820	0.330070
O131	O13	0.364800	0.647420	0.803680
O141	O14	0.098400	0.554480	0.828510
O151	O15	0.051600	0.819050	0.793930
O161	O16	0.773900	0.774180	0.830070
