data_PETVER_clean_PM
_symmetry_space_group_name_H-M	'P1'
_cell_length_a	10.198000
_cell_length_b	13.285000
_cell_length_c	22.367000
_cell_angle_alpha	90.000000
_cell_angle_beta	90.000000
_cell_angle_gamma	97.775000
_symmetry_Int_Tables_number 1

loop_
_symmetry_equiv_pos_as_xyz
'x,y,z'

loop_
_atom_site_label
_atom_site_type_symbol
_atom_site_fract_x
_atom_site_fract_y
_atom_site_fract_z
Cd11	Cd1	0.206800	0.316830	0.580150
Cd21	Cd2	0.211630	0.215350	0.743580
Cd31	Cd3	0.662310	0.008760	0.606920
Cd41	Cd4	0.793200	0.183170	0.080150
Cd51	Cd5	0.788370	0.284650	0.243580
Cd61	Cd6	0.337690	0.491240	0.106920
Cd71	Cd7	0.793200	0.683170	0.419850
Cd81	Cd8	0.788370	0.784650	0.256420
Cd91	Cd9	0.337690	0.991240	0.393080
Cd101	Cd10	0.206800	0.816830	0.919850
Cd111	Cd11	0.211630	0.715350	0.756420
Cd121	Cd12	0.662310	0.508760	0.893080
H11	H1	0.040400	0.491500	0.414800
H21	H2	0.054400	0.571200	0.321200
H31	H3	0.443900	0.649100	0.346700
H41	H4	0.429200	0.566300	0.439100
H51	H5	0.190300	0.460800	0.794700
H61	H6	0.243000	0.562500	0.633700
H71	H7	0.889700	0.084400	0.719400
H81	H8	0.896100	0.199000	0.561900
H91	H9	0.462100	0.084200	0.704200
H101	H10	0.469400	0.175300	0.540500
H111	H11	0.324800	0.728000	0.264700
H121	H12	0.175600	0.686600	0.253300
H131	H13	0.959600	0.008500	0.914800
H141	H14	0.945600	0.928800	0.821200
H151	H15	0.556100	0.850900	0.846700
H161	H16	0.570800	0.933700	0.939100
H171	H17	0.809700	0.039200	0.294700
H181	H18	0.757000	0.937500	0.133700
H191	H19	0.110300	0.415600	0.219400
H201	H20	0.103900	0.301000	0.061900
H211	H21	0.537900	0.415800	0.204200
H221	H22	0.530600	0.324700	0.040500
H231	H23	0.675200	0.772000	0.764700
H241	H24	0.824400	0.813400	0.753300
H251	H25	0.959600	0.508500	0.585200
H261	H26	0.945600	0.428800	0.678800
H271	H27	0.556100	0.350900	0.653300
H281	H28	0.570800	0.433700	0.560900
H291	H29	0.809700	0.539200	0.205300
H301	H30	0.757000	0.437500	0.366300
H311	H31	0.110300	0.915600	0.280600
H321	H32	0.103900	0.801000	0.438100
H331	H33	0.537900	0.915800	0.295800
H341	H34	0.530600	0.824700	0.459500
H351	H35	0.675200	0.272000	0.735300
H361	H36	0.824400	0.313400	0.746700
H371	H37	0.040400	0.991500	0.085200
H381	H38	0.054400	0.071200	0.178800
H391	H39	0.443900	0.149100	0.153300
H401	H40	0.429200	0.066300	0.060900
H411	H41	0.190300	0.960800	0.705300
H421	H42	0.243000	0.062500	0.866300
H431	H43	0.889700	0.584400	0.780600
H441	H44	0.896100	0.699000	0.938100
H451	H45	0.462100	0.584200	0.795800
H461	H46	0.469400	0.675300	0.959500
H471	H47	0.324800	0.228000	0.235300
H481	H48	0.175600	0.186600	0.246700
C11	C1	0.232500	0.518100	0.434500
C21	C2	0.122100	0.521700	0.400700
C31	C3	0.129800	0.570700	0.344500
C41	C4	0.252500	0.618400	0.324500
C51	C5	0.362500	0.616700	0.359800
C61	C6	0.354200	0.566700	0.415500
C71	C7	0.221500	0.456000	0.491200
C81	C8	0.301200	0.597800	0.214600
C91	C9	0.204100	0.464400	0.753600
C101	C10	0.232600	0.519300	0.666600
C111	C11	0.916600	0.121400	0.685200
C121	C12	0.919900	0.183000	0.600600
C131	C13	0.442000	0.116700	0.669200
C141	C14	0.446500	0.165800	0.580600
C151	C15	0.261000	0.666800	0.263400
C161	C16	0.767500	0.981900	0.934500
C171	C17	0.877900	0.978300	0.900700
C181	C18	0.870200	0.929300	0.844500
C191	C19	0.747500	0.881600	0.824500
C201	C20	0.637500	0.883300	0.859800
C211	C21	0.645800	0.933300	0.915500
C221	C22	0.778500	0.044000	0.991200
C231	C23	0.698800	0.902200	0.714600
C241	C24	0.795900	0.035600	0.253600
C251	C25	0.767400	0.980700	0.166600
C261	C26	0.083400	0.378600	0.185200
C271	C27	0.080100	0.317000	0.100600
C281	C28	0.558000	0.383300	0.169200
C291	C29	0.553500	0.334200	0.080600
C301	C30	0.739000	0.833200	0.763400
C311	C31	0.767500	0.481900	0.565500
C321	C32	0.877900	0.478300	0.599300
C331	C33	0.870200	0.429300	0.655500
C341	C34	0.747500	0.381600	0.675500
C351	C35	0.637500	0.383300	0.640200
C361	C36	0.645800	0.433300	0.584500
C371	C37	0.778500	0.544000	0.508800
C381	C38	0.698800	0.402200	0.785400
C391	C39	0.795900	0.535600	0.246400
C401	C40	0.767400	0.480700	0.333400
C411	C41	0.083400	0.878600	0.314800
C421	C42	0.080100	0.817000	0.399400
C431	C43	0.558000	0.883300	0.330800
C441	C44	0.553500	0.834200	0.419400
C451	C45	0.739000	0.333200	0.736600
C461	C46	0.232500	0.018100	0.065500
C471	C47	0.122100	0.021700	0.099300
C481	C48	0.129800	0.070700	0.155500
C491	C49	0.252500	0.118400	0.175500
C501	C50	0.362500	0.116700	0.140200
C511	C51	0.354200	0.066700	0.084500
C521	C52	0.221500	0.956000	0.008800
C531	C53	0.301200	0.097800	0.285400
C541	C54	0.204100	0.964400	0.746400
C551	C55	0.232600	0.019300	0.833400
C561	C56	0.916600	0.621400	0.814800
C571	C57	0.919900	0.683000	0.899400
C581	C58	0.442000	0.616700	0.830800
C591	C59	0.446500	0.665800	0.919400
C601	C60	0.261000	0.166800	0.236600
N11	N1	0.215700	0.383900	0.720400
N21	N2	0.234400	0.420800	0.662900
N31	N3	0.213900	0.551700	0.723000
N41	N4	0.030900	0.179700	0.681300
N51	N5	0.032200	0.220400	0.624700
N61	N6	0.842000	0.119900	0.635800
N71	N7	0.352200	0.180200	0.666200
N81	N8	0.355500	0.212600	0.607800
N91	N9	0.500600	0.104300	0.616700
N101	N10	0.784300	0.116100	0.220400
N111	N11	0.765600	0.079200	0.162900
N121	N12	0.786100	0.948300	0.223000
N131	N13	0.969100	0.320300	0.181300
N141	N14	0.967800	0.279600	0.124700
N151	N15	0.158000	0.380100	0.135800
N161	N16	0.647800	0.319800	0.166200
N171	N17	0.644500	0.287400	0.107800
N181	N18	0.499400	0.395700	0.116700
N191	N19	0.784300	0.616100	0.279600
N201	N20	0.765600	0.579200	0.337100
N211	N21	0.786100	0.448300	0.277000
N221	N22	0.969100	0.820300	0.318700
N231	N23	0.967800	0.779600	0.375300
N241	N24	0.158000	0.880100	0.364200
N251	N25	0.647800	0.819800	0.333800
N261	N26	0.644500	0.787400	0.392200
N271	N27	0.499400	0.895700	0.383300
N281	N28	0.215700	0.883900	0.779600
N291	N29	0.234400	0.920800	0.837100
N301	N30	0.213900	0.051700	0.777000
N311	N31	0.030900	0.679700	0.818700
N321	N32	0.032200	0.720400	0.875300
N331	N33	0.842000	0.619900	0.864200
N341	N34	0.352200	0.680200	0.833800
N351	N35	0.355500	0.712600	0.892200
N361	N36	0.500600	0.604300	0.883300
O11	O1	0.326100	0.436300	0.515100
O21	O2	0.110800	0.420200	0.510800
O31	O3	0.363500	0.525800	0.226400
O41	O4	0.270100	0.617200	0.162200
O51	O5	0.673900	0.063700	0.015100
O61	O6	0.889200	0.079800	0.010800
O71	O7	0.636500	0.974200	0.726400
O81	O8	0.729900	0.882800	0.662200
O91	O9	0.673900	0.563700	0.484900
O101	O10	0.889200	0.579800	0.489200
O111	O11	0.636500	0.474200	0.773600
O121	O12	0.729900	0.382800	0.837800
O131	O13	0.326100	0.936300	0.984900
O141	O14	0.110800	0.920200	0.989200
O151	O15	0.363500	0.025800	0.273600
O161	O16	0.270100	0.117200	0.337800
