data_PEVQIS_clean_h_PM
_symmetry_space_group_name_H-M	'P1'
_cell_length_a	25.654000
_cell_length_b	25.654000
_cell_length_c	25.654000
_cell_angle_alpha	90.000000
_cell_angle_beta	90.000000
_cell_angle_gamma	90.000000
_symmetry_Int_Tables_number 1

loop_
_symmetry_equiv_pos_as_xyz
'x,y,z'

loop_
_atom_site_label
_atom_site_type_symbol
_atom_site_fract_x
_atom_site_fract_y
_atom_site_fract_z
O11	O1	0.214600	0.133400	0.214600
C21	C2	0.218900	0.023000	0.218900
O31	O3	0.214600	0.633400	0.714600
C41	C4	0.218900	0.523000	0.718900
O51	O5	0.714600	0.133400	0.714600
C61	C6	0.718900	0.023000	0.718900
O71	O7	0.714600	0.633400	0.214600
C81	C8	0.718900	0.523000	0.218900
O91	O9	0.785400	0.866600	0.214600
C101	C10	0.781100	0.977000	0.218900
O111	O11	0.785400	0.366600	0.714600
C121	C12	0.781100	0.477000	0.718900
O131	O13	0.285400	0.866600	0.714600
C141	C14	0.281100	0.977000	0.718900
O151	O15	0.285400	0.366600	0.214600
C161	C16	0.281100	0.477000	0.218900
O171	O17	0.785400	0.133400	0.785400
C181	C18	0.781100	0.023000	0.781100
O191	O19	0.785400	0.633400	0.285400
C201	C20	0.781100	0.523000	0.281100
O211	O21	0.285400	0.133400	0.285400
C221	C22	0.281100	0.023000	0.281100
O231	O23	0.285400	0.633400	0.785400
C241	C24	0.281100	0.523000	0.781100
O251	O25	0.214600	0.866600	0.785400
C261	C26	0.218900	0.977000	0.781100
O271	O27	0.214600	0.366600	0.285400
C281	C28	0.218900	0.477000	0.281100
O291	O29	0.714600	0.866600	0.285400
C301	C30	0.718900	0.977000	0.281100
O311	O31	0.714600	0.366600	0.785400
C321	C32	0.718900	0.477000	0.781100
O331	O33	0.214600	0.214600	0.133400
C341	C34	0.218900	0.218900	0.023000
O351	O35	0.214600	0.714600	0.633400
C361	C36	0.218900	0.718900	0.523000
O371	O37	0.714600	0.214600	0.633400
C381	C38	0.718900	0.218900	0.523000
O391	O39	0.714600	0.714600	0.133400
C401	C40	0.718900	0.718900	0.023000
O411	O41	0.214600	0.785400	0.866600
C421	C42	0.218900	0.781100	0.977000
O431	O43	0.214600	0.285400	0.366600
C441	C44	0.218900	0.281100	0.477000
O451	O45	0.714600	0.785400	0.366600
C461	C46	0.718900	0.781100	0.477000
O471	O47	0.714600	0.285400	0.866600
C481	C48	0.718900	0.281100	0.977000
O491	O49	0.785400	0.785400	0.133400
C501	C50	0.781100	0.781100	0.023000
O511	O51	0.785400	0.285400	0.633400
C521	C52	0.781100	0.281100	0.523000
O531	O53	0.285400	0.785400	0.633400
C541	C54	0.281100	0.781100	0.523000
O551	O55	0.285400	0.285400	0.133400
C561	C56	0.281100	0.281100	0.023000
O571	O57	0.785400	0.214600	0.866600
C581	C58	0.781100	0.218900	0.977000
O591	O59	0.785400	0.714600	0.366600
C601	C60	0.781100	0.718900	0.477000
O611	O61	0.285400	0.214600	0.366600
C621	C62	0.281100	0.218900	0.477000
O631	O63	0.285400	0.714600	0.866600
C641	C64	0.281100	0.718900	0.977000
O651	O65	0.133400	0.214600	0.214600
C661	C66	0.023000	0.218900	0.218900
O671	O67	0.133400	0.714600	0.714600
C681	C68	0.023000	0.718900	0.718900
O691	O69	0.633400	0.214600	0.714600
C701	C70	0.523000	0.218900	0.718900
O711	O71	0.633400	0.714600	0.214600
C721	C72	0.523000	0.718900	0.218900
O731	O73	0.866600	0.214600	0.785400
C741	C74	0.977000	0.218900	0.781100
O751	O75	0.866600	0.714600	0.285400
C761	C76	0.977000	0.718900	0.281100
O771	O77	0.366600	0.214600	0.285400
C781	C78	0.477000	0.218900	0.281100
O791	O79	0.366600	0.714600	0.785400
C801	C80	0.477000	0.718900	0.781100
O811	O81	0.133400	0.785400	0.785400
C821	C82	0.023000	0.781100	0.781100
O831	O83	0.133400	0.285400	0.285400
C841	C84	0.023000	0.281100	0.281100
O851	O85	0.633400	0.785400	0.285400
C861	C86	0.523000	0.781100	0.281100
O871	O87	0.633400	0.285400	0.785400
C881	C88	0.523000	0.281100	0.781100
O891	O89	0.866600	0.785400	0.214600
C901	C90	0.977000	0.781100	0.218900
O911	O91	0.866600	0.285400	0.714600
C921	C92	0.977000	0.281100	0.718900
O931	O93	0.366600	0.785400	0.714600
C941	C94	0.477000	0.781100	0.718900
O951	O95	0.366600	0.285400	0.214600
C961	C96	0.477000	0.281100	0.218900
O971	O97	0.133400	0.214600	0.785400
C981	C98	0.023000	0.218900	0.781100
O991	O99	0.133400	0.714600	0.285400
C1001	C100	0.023000	0.718900	0.281100
O1011	O101	0.633400	0.214600	0.285400
C1021	C102	0.523000	0.218900	0.281100
O1031	O103	0.633400	0.714600	0.785400
C1041	C104	0.523000	0.718900	0.781100
O1051	O105	0.866600	0.785400	0.785400
C1061	C106	0.977000	0.781100	0.781100
O1071	O107	0.866600	0.285400	0.285400
C1081	C108	0.977000	0.281100	0.281100
O1091	O109	0.366600	0.785400	0.285400
C1101	C110	0.477000	0.781100	0.281100
O1111	O111	0.366600	0.285400	0.785400
C1121	C112	0.477000	0.281100	0.781100
O1131	O113	0.133400	0.785400	0.214600
C1141	C114	0.023000	0.781100	0.218900
O1151	O115	0.133400	0.285400	0.714600
C1161	C116	0.023000	0.281100	0.718900
O1171	O117	0.633400	0.785400	0.714600
C1181	C118	0.523000	0.781100	0.718900
O1191	O119	0.633400	0.285400	0.214600
C1201	C120	0.523000	0.281100	0.218900
O1211	O121	0.866600	0.214600	0.214600
C1221	C122	0.977000	0.218900	0.218900
O1231	O123	0.866600	0.714600	0.714600
C1241	C124	0.977000	0.718900	0.718900
O1251	O125	0.366600	0.214600	0.714600
C1261	C126	0.477000	0.218900	0.718900
O1271	O127	0.366600	0.714600	0.214600
C1281	C128	0.477000	0.718900	0.218900
O1291	O129	0.214600	0.214600	0.866600
C1301	C130	0.218900	0.218900	0.977000
O1311	O131	0.214600	0.714600	0.366600
C1321	C132	0.218900	0.718900	0.477000
O1331	O133	0.714600	0.214600	0.366600
C1341	C134	0.718900	0.218900	0.477000
O1351	O135	0.714600	0.714600	0.866600
C1361	C136	0.718900	0.718900	0.977000
O1371	O137	0.785400	0.214600	0.133400
C1381	C138	0.781100	0.218900	0.023000
O1391	O139	0.785400	0.714600	0.633400
C1401	C140	0.781100	0.718900	0.523000
O1411	O141	0.285400	0.214600	0.633400
C1421	C142	0.281100	0.218900	0.523000
O1431	O143	0.285400	0.714600	0.133400
C1441	C144	0.281100	0.718900	0.023000
O1451	O145	0.785400	0.785400	0.866600
C1461	C146	0.781100	0.781100	0.977000
O1471	O147	0.785400	0.285400	0.366600
C1481	C148	0.781100	0.281100	0.477000
O1491	O149	0.285400	0.785400	0.366600
C1501	C150	0.281100	0.781100	0.477000
O1511	O151	0.285400	0.285400	0.866600
C1521	C152	0.281100	0.281100	0.977000
O1531	O153	0.214600	0.785400	0.133400
C1541	C154	0.218900	0.781100	0.023000
O1551	O155	0.214600	0.285400	0.633400
C1561	C156	0.218900	0.281100	0.523000
O1571	O157	0.714600	0.785400	0.633400
C1581	C158	0.718900	0.781100	0.523000
O1591	O159	0.714600	0.285400	0.133400
C1601	C160	0.718900	0.281100	0.023000
O1611	O161	0.214600	0.133400	0.785400
C1621	C162	0.218900	0.023000	0.781100
O1631	O163	0.214600	0.633400	0.285400
C1641	C164	0.218900	0.523000	0.281100
O1651	O165	0.714600	0.133400	0.285400
C1661	C166	0.718900	0.023000	0.281100
O1671	O167	0.714600	0.633400	0.785400
C1681	C168	0.718900	0.523000	0.781100
O1691	O169	0.214600	0.866600	0.214600
C1701	C170	0.218900	0.977000	0.218900
O1711	O171	0.214600	0.366600	0.714600
C1721	C172	0.218900	0.477000	0.718900
O1731	O173	0.714600	0.866600	0.714600
C1741	C174	0.718900	0.977000	0.718900
O1751	O175	0.714600	0.366600	0.214600
C1761	C176	0.718900	0.477000	0.218900
O1771	O177	0.785400	0.133400	0.214600
C1781	C178	0.781100	0.023000	0.218900
O1791	O179	0.785400	0.633400	0.714600
C1801	C180	0.781100	0.523000	0.718900
O1811	O181	0.285400	0.133400	0.714600
C1821	C182	0.281100	0.023000	0.718900
O1831	O183	0.285400	0.633400	0.214600
C1841	C184	0.281100	0.523000	0.218900
O1851	O185	0.785400	0.866600	0.785400
C1861	C186	0.781100	0.977000	0.781100
O1871	O187	0.785400	0.366600	0.285400
C1881	C188	0.781100	0.477000	0.281100
O1891	O189	0.285400	0.866600	0.285400
C1901	C190	0.281100	0.977000	0.281100
O1911	O191	0.285400	0.366600	0.785400
C1921	C192	0.281100	0.477000	0.781100
O1931	O193	0.250000	0.250000	0.250000
O1941	O194	0.750000	0.750000	0.250000
O1951	O195	0.750000	0.250000	0.750000
O1961	O196	0.250000	0.750000	0.750000
O1971	O197	0.250000	0.250000	0.750000
O1981	O198	0.750000	0.750000	0.750000
O1991	O199	0.750000	0.250000	0.250000
O2001	O200	0.250000	0.750000	0.250000
C2011	C201	0.250000	0.115200	0.250000
C2021	C202	0.250000	0.056200	0.250000
C2031	C203	0.250000	0.615200	0.750000
C2041	C204	0.250000	0.556200	0.750000
C2051	C205	0.750000	0.884800	0.250000
C2061	C206	0.750000	0.943800	0.250000
C2071	C207	0.750000	0.384800	0.750000
C2081	C208	0.750000	0.443800	0.750000
C2091	C209	0.250000	0.384800	0.250000
C2101	C210	0.250000	0.443800	0.250000
C2111	C211	0.750000	0.115200	0.750000
C2121	C212	0.750000	0.056200	0.750000
C2131	C213	0.750000	0.615200	0.250000
C2141	C214	0.750000	0.556200	0.250000
C2151	C215	0.250000	0.884800	0.750000
C2161	C216	0.250000	0.943800	0.750000
C2171	C217	0.250000	0.250000	0.115200
C2181	C218	0.250000	0.250000	0.056200
C2191	C219	0.250000	0.750000	0.615200
C2201	C220	0.250000	0.750000	0.556200
C2211	C221	0.250000	0.750000	0.884800
C2221	C222	0.250000	0.750000	0.943800
C2231	C223	0.250000	0.250000	0.384800
C2241	C224	0.250000	0.250000	0.443800
C2251	C225	0.750000	0.750000	0.115200
C2261	C226	0.750000	0.750000	0.056200
C2271	C227	0.750000	0.250000	0.615200
C2281	C228	0.750000	0.250000	0.556200
C2291	C229	0.750000	0.250000	0.884800
C2301	C230	0.750000	0.250000	0.943800
C2311	C231	0.750000	0.750000	0.384800
C2321	C232	0.750000	0.750000	0.443800
C2331	C233	0.115200	0.250000	0.250000
C2341	C234	0.056200	0.250000	0.250000
C2351	C235	0.615200	0.250000	0.750000
C2361	C236	0.556200	0.250000	0.750000
C2371	C237	0.884800	0.250000	0.750000
C2381	C238	0.943800	0.250000	0.750000
C2391	C239	0.384800	0.250000	0.250000
C2401	C240	0.443800	0.250000	0.250000
C2411	C241	0.115200	0.750000	0.750000
C2421	C242	0.056200	0.750000	0.750000
C2431	C243	0.615200	0.750000	0.250000
C2441	C244	0.556200	0.750000	0.250000
C2451	C245	0.884800	0.750000	0.250000
C2461	C246	0.943800	0.750000	0.250000
C2471	C247	0.384800	0.750000	0.750000
C2481	C248	0.443800	0.750000	0.750000
C2491	C249	0.115200	0.250000	0.750000
C2501	C250	0.056200	0.250000	0.750000
C2511	C251	0.615200	0.250000	0.250000
C2521	C252	0.556200	0.250000	0.250000
C2531	C253	0.884800	0.750000	0.750000
C2541	C254	0.943800	0.750000	0.750000
C2551	C255	0.884800	0.250000	0.250000
C2561	C256	0.943800	0.250000	0.250000
C2571	C257	0.384800	0.750000	0.250000
C2581	C258	0.443800	0.750000	0.250000
C2591	C259	0.115200	0.750000	0.250000
C2601	C260	0.056200	0.750000	0.250000
C2611	C261	0.615200	0.750000	0.750000
C2621	C262	0.556200	0.750000	0.750000
C2631	C263	0.384800	0.250000	0.750000
C2641	C264	0.443800	0.250000	0.750000
C2651	C265	0.250000	0.250000	0.884800
C2661	C266	0.250000	0.250000	0.943800
C2671	C267	0.250000	0.750000	0.384800
C2681	C268	0.250000	0.750000	0.443800
C2691	C269	0.750000	0.250000	0.115200
C2701	C270	0.750000	0.250000	0.056200
C2711	C271	0.750000	0.750000	0.615200
C2721	C272	0.750000	0.750000	0.556200
C2731	C273	0.250000	0.250000	0.615200
C2741	C274	0.250000	0.250000	0.556200
C2751	C275	0.750000	0.750000	0.884800
C2761	C276	0.750000	0.750000	0.943800
C2771	C277	0.750000	0.250000	0.384800
C2781	C278	0.750000	0.250000	0.443800
C2791	C279	0.250000	0.750000	0.115200
C2801	C280	0.250000	0.750000	0.056200
C2811	C281	0.250000	0.115200	0.750000
C2821	C282	0.250000	0.056200	0.750000
C2831	C283	0.250000	0.615200	0.250000
C2841	C284	0.250000	0.556200	0.250000
C2851	C285	0.250000	0.884800	0.250000
C2861	C286	0.250000	0.943800	0.250000
C2871	C287	0.250000	0.384800	0.750000
C2881	C288	0.250000	0.443800	0.750000
C2891	C289	0.750000	0.115200	0.250000
C2901	C290	0.750000	0.056200	0.250000
C2911	C291	0.750000	0.615200	0.750000
C2921	C292	0.750000	0.556200	0.750000
C2931	C293	0.750000	0.884800	0.750000
C2941	C294	0.750000	0.943800	0.750000
C2951	C295	0.750000	0.384800	0.250000
C2961	C296	0.750000	0.443800	0.250000
Zn2971	Zn297	0.206390	0.206390	0.206390
Zn2981	Zn298	0.206390	0.706390	0.706390
Zn2991	Zn299	0.706390	0.206390	0.706390
Zn3001	Zn300	0.706390	0.706390	0.206390
Zn3011	Zn301	0.793610	0.793610	0.206390
Zn3021	Zn302	0.793610	0.293610	0.706390
Zn3031	Zn303	0.293610	0.793610	0.706390
Zn3041	Zn304	0.293610	0.293610	0.206390
Zn3051	Zn305	0.793610	0.206390	0.793610
Zn3061	Zn306	0.793610	0.706390	0.293610
Zn3071	Zn307	0.293610	0.206390	0.293610
Zn3081	Zn308	0.293610	0.706390	0.793610
Zn3091	Zn309	0.206390	0.793610	0.793610
Zn3101	Zn310	0.206390	0.293610	0.293610
Zn3111	Zn311	0.706390	0.793610	0.293610
Zn3121	Zn312	0.706390	0.293610	0.793610
Zn3131	Zn313	0.206390	0.206390	0.793610
Zn3141	Zn314	0.206390	0.706390	0.293610
Zn3151	Zn315	0.706390	0.206390	0.293610
Zn3161	Zn316	0.706390	0.706390	0.793610
Zn3171	Zn317	0.793610	0.793610	0.793610
Zn3181	Zn318	0.793610	0.293610	0.293610
Zn3191	Zn319	0.293610	0.793610	0.293610
Zn3201	Zn320	0.293610	0.293610	0.793610
Zn3211	Zn321	0.206390	0.793610	0.206390
Zn3221	Zn322	0.206390	0.293610	0.706390
Zn3231	Zn323	0.706390	0.793610	0.706390
Zn3241	Zn324	0.706390	0.293610	0.206390
Zn3251	Zn325	0.793610	0.206390	0.206390
Zn3261	Zn326	0.793610	0.706390	0.706390
Zn3271	Zn327	0.293610	0.206390	0.706390
Zn3281	Zn328	0.293610	0.706390	0.206390
H3291	H329	0.189970	0.040330	0.189970
H3301	H330	0.189970	0.540330	0.689970
H3311	H331	0.689970	0.040330	0.689970
H3321	H332	0.689970	0.540330	0.189970
H3331	H333	0.810030	0.959670	0.189970
H3341	H334	0.810030	0.459670	0.689970
H3351	H335	0.310030	0.959670	0.689970
H3361	H336	0.310030	0.459670	0.189970
H3371	H337	0.810030	0.040330	0.810030
H3381	H338	0.810030	0.540330	0.310030
H3391	H339	0.310030	0.040330	0.310030
H3401	H340	0.310030	0.540330	0.810030
H3411	H341	0.189970	0.959670	0.810030
H3421	H342	0.189970	0.459670	0.310030
H3431	H343	0.689970	0.959670	0.310030
H3441	H344	0.689970	0.459670	0.810030
H3451	H345	0.189970	0.189970	0.040330
H3461	H346	0.189970	0.689970	0.540330
H3471	H347	0.689970	0.189970	0.540330
H3481	H348	0.689970	0.689970	0.040330
H3491	H349	0.189970	0.810030	0.959670
H3501	H350	0.189970	0.310030	0.459670
H3511	H351	0.689970	0.810030	0.459670
H3521	H352	0.689970	0.310030	0.959670
H3531	H353	0.810030	0.810030	0.040330
H3541	H354	0.810030	0.310030	0.540330
H3551	H355	0.310030	0.810030	0.540330
H3561	H356	0.310030	0.310030	0.040330
H3571	H357	0.810030	0.189970	0.959670
H3581	H358	0.810030	0.689970	0.459670
H3591	H359	0.310030	0.189970	0.459670
H3601	H360	0.310030	0.689970	0.959670
H3611	H361	0.040330	0.189970	0.189970
H3621	H362	0.040330	0.689970	0.689970
H3631	H363	0.540330	0.189970	0.689970
H3641	H364	0.540330	0.689970	0.189970
H3651	H365	0.959670	0.189970	0.810030
H3661	H366	0.959670	0.689970	0.310030
H3671	H367	0.459670	0.189970	0.310030
H3681	H368	0.459670	0.689970	0.810030
H3691	H369	0.040330	0.810030	0.810030
H3701	H370	0.040330	0.310030	0.310030
H3711	H371	0.540330	0.810030	0.310030
H3721	H372	0.540330	0.310030	0.810030
H3731	H373	0.959670	0.810030	0.189970
H3741	H374	0.959670	0.310030	0.689970
H3751	H375	0.459670	0.810030	0.689970
H3761	H376	0.459670	0.310030	0.189970
H3771	H377	0.040330	0.189970	0.810030
H3781	H378	0.040330	0.689970	0.310030
H3791	H379	0.540330	0.189970	0.310030
H3801	H380	0.540330	0.689970	0.810030
H3811	H381	0.959670	0.810030	0.810030
H3821	H382	0.959670	0.310030	0.310030
H3831	H383	0.459670	0.810030	0.310030
H3841	H384	0.459670	0.310030	0.810030
H3851	H385	0.040330	0.810030	0.189970
H3861	H386	0.040330	0.310030	0.689970
H3871	H387	0.540330	0.810030	0.689970
H3881	H388	0.540330	0.310030	0.189970
H3891	H389	0.959670	0.189970	0.189970
H3901	H390	0.959670	0.689970	0.689970
H3911	H391	0.459670	0.189970	0.689970
H3921	H392	0.459670	0.689970	0.189970
H3931	H393	0.189970	0.189970	0.959670
H3941	H394	0.189970	0.689970	0.459670
H3951	H395	0.689970	0.189970	0.459670
H3961	H396	0.689970	0.689970	0.959670
H3971	H397	0.810030	0.189970	0.040330
H3981	H398	0.810030	0.689970	0.540330
H3991	H399	0.310030	0.189970	0.540330
H4001	H400	0.310030	0.689970	0.040330
H4011	H401	0.810030	0.810030	0.959670
H4021	H402	0.810030	0.310030	0.459670
H4031	H403	0.310030	0.810030	0.459670
H4041	H404	0.310030	0.310030	0.959670
H4051	H405	0.189970	0.810030	0.040330
H4061	H406	0.189970	0.310030	0.540330
H4071	H407	0.689970	0.810030	0.540330
H4081	H408	0.689970	0.310030	0.040330
H4091	H409	0.189970	0.040330	0.810030
H4101	H410	0.189970	0.540330	0.310030
H4111	H411	0.689970	0.040330	0.310030
H4121	H412	0.689970	0.540330	0.810030
H4131	H413	0.189970	0.959670	0.189970
H4141	H414	0.189970	0.459670	0.689970
H4151	H415	0.689970	0.959670	0.689970
H4161	H416	0.689970	0.459670	0.189970
H4171	H417	0.810030	0.040330	0.189970
H4181	H418	0.810030	0.540330	0.689970
H4191	H419	0.310030	0.040330	0.689970
H4201	H420	0.310030	0.540330	0.189970
H4211	H421	0.810030	0.959670	0.810030
H4221	H422	0.810030	0.459670	0.310030
H4231	H423	0.310030	0.959670	0.310030
H4241	H424	0.310030	0.459670	0.810030
