data_PEVXAQ_clean_PM
_symmetry_space_group_name_H-M	'P1'
_cell_length_a	14.997600
_cell_length_b	16.318100
_cell_length_c	19.691700
_cell_angle_alpha	98.360000
_cell_angle_beta	90.000000
_cell_angle_gamma	90.000000
_symmetry_Int_Tables_number 1

loop_
_symmetry_equiv_pos_as_xyz
'x,y,z'

loop_
_atom_site_label
_atom_site_type_symbol
_atom_site_fract_x
_atom_site_fract_y
_atom_site_fract_z
Ni11	Ni1	0.743390	0.879050	0.756860
Ni21	Ni2	0.744320	0.375150	0.239250
Ni31	Ni3	0.243390	0.120950	0.743140
Ni41	Ni4	0.244320	0.624850	0.260750
Ni51	Ni5	0.256610	0.120950	0.243140
Ni61	Ni6	0.255680	0.624850	0.760750
Ni71	Ni7	0.756610	0.879050	0.256860
Ni81	Ni8	0.755680	0.375150	0.739250
H11	H1	0.757700	0.006900	0.657600
H21	H2	0.765900	0.009000	0.540700
H31	H3	0.768500	0.883300	0.465700
H41	H4	0.767700	0.762700	0.629600
H51	H5	0.779900	0.727200	0.448500
H61	H6	0.784400	0.530200	0.545300
H71	H7	0.777500	0.248800	0.336900
H81	H8	0.782100	0.247900	0.453600
H91	H9	0.783400	0.373100	0.528000
H101	H10	0.787400	0.493200	0.363100
H111	H11	0.918600	0.822200	0.686300
H121	H12	0.070200	0.821900	0.709600
H131	H13	0.123300	0.874900	0.817900
H141	H14	0.869200	0.935600	0.872700
H151	H15	0.090900	0.938800	0.939100
H161	H16	0.566600	0.332800	0.180100
H171	H17	0.414300	0.336000	0.205000
H181	H18	0.366500	0.382000	0.315600
H191	H19	0.624400	0.436100	0.367600
H201	H20	0.406100	0.444800	0.439300
H211	H21	0.575600	0.926600	0.839200
H221	H22	0.423400	0.928800	0.827600
H231	H23	0.356100	0.878500	0.723400
H241	H24	0.602800	0.820400	0.648200
H251	H25	0.378300	0.818500	0.595100
H261	H26	0.563200	0.699200	0.473600
H271	H27	0.431300	0.582100	0.209700
H281	H28	0.578300	0.591200	0.244900
H291	H29	0.611300	0.642200	0.357600
H301	H30	0.348100	0.681200	0.392000
H311	H31	0.257700	0.993100	0.842400
H321	H32	0.265900	0.991000	0.959300
H331	H33	0.268500	0.116700	0.034300
H341	H34	0.267700	0.237300	0.870400
H351	H35	0.279900	0.272800	0.051500
H361	H36	0.284400	0.469800	0.954700
H371	H37	0.277500	0.751200	0.163100
H381	H38	0.282100	0.752100	0.046400
H391	H39	0.283400	0.626900	0.972000
H401	H40	0.287400	0.506800	0.136900
H411	H41	0.418600	0.177800	0.813700
H421	H42	0.570200	0.178100	0.790400
H431	H43	0.623300	0.125100	0.682100
H441	H44	0.369200	0.064400	0.627300
H451	H45	0.590900	0.061200	0.560900
H461	H46	0.066600	0.667200	0.319900
H471	H47	0.914300	0.664000	0.295000
H481	H48	0.866500	0.618000	0.184400
H491	H49	0.124400	0.563900	0.132400
H501	H50	0.906100	0.555200	0.060700
H511	H51	0.075600	0.073400	0.660800
H521	H52	0.923400	0.071200	0.672400
H531	H53	0.856100	0.121500	0.776600
H541	H54	0.102800	0.179600	0.851800
H551	H55	0.878300	0.181500	0.904900
H561	H56	0.063200	0.300800	0.026400
H571	H57	0.931300	0.417900	0.290300
H581	H58	0.078300	0.408800	0.255100
H591	H59	0.111300	0.357800	0.142400
H601	H60	0.848100	0.318800	0.108000
H611	H61	0.242300	0.993100	0.342400
H621	H62	0.234100	0.991000	0.459300
H631	H63	0.231500	0.116700	0.534300
H641	H64	0.232300	0.237300	0.370400
H651	H65	0.220100	0.272800	0.551500
H661	H66	0.215600	0.469800	0.454700
H671	H67	0.222500	0.751200	0.663100
H681	H68	0.217900	0.752100	0.546400
H691	H69	0.216600	0.626900	0.472000
H701	H70	0.212600	0.506800	0.636900
H711	H71	0.081400	0.177800	0.313700
H721	H72	0.929800	0.178100	0.290400
H731	H73	0.876700	0.125100	0.182100
H741	H74	0.130800	0.064400	0.127300
H751	H75	0.909100	0.061200	0.060900
H761	H76	0.433400	0.667200	0.819900
H771	H77	0.585700	0.664000	0.795000
H781	H78	0.633500	0.618000	0.684400
H791	H79	0.375600	0.563900	0.632400
H801	H80	0.593900	0.555200	0.560700
H811	H81	0.424400	0.073400	0.160800
H821	H82	0.576600	0.071200	0.172400
H831	H83	0.643900	0.121500	0.276600
H841	H84	0.397200	0.179600	0.351800
H851	H85	0.621700	0.181500	0.404900
H861	H86	0.436800	0.300800	0.526400
H871	H87	0.568700	0.417900	0.790300
H881	H88	0.421700	0.408800	0.755100
H891	H89	0.388700	0.357800	0.642400
H901	H90	0.651900	0.318800	0.608000
H911	H91	0.742300	0.006900	0.157600
H921	H92	0.734100	0.009000	0.040700
H931	H93	0.731500	0.883300	0.965700
H941	H94	0.732300	0.762700	0.129600
H951	H95	0.720100	0.727200	0.948500
H961	H96	0.715600	0.530200	0.045300
H971	H97	0.722500	0.248800	0.836900
H981	H98	0.717900	0.247900	0.953600
H991	H99	0.716600	0.373100	0.028000
H1001	H100	0.712600	0.493200	0.863100
H1011	H101	0.581400	0.822200	0.186300
H1021	H102	0.429800	0.821900	0.209600
H1031	H103	0.376700	0.874900	0.317900
H1041	H104	0.630800	0.935600	0.372700
H1051	H105	0.409100	0.938800	0.439100
H1061	H106	0.933400	0.332800	0.680100
H1071	H107	0.085700	0.336000	0.705000
H1081	H108	0.133500	0.382000	0.815600
H1091	H109	0.875600	0.436100	0.867600
H1101	H110	0.093900	0.444800	0.939300
H1111	H111	0.924400	0.926600	0.339200
H1121	H112	0.076600	0.928800	0.327600
H1131	H113	0.143900	0.878500	0.223400
H1141	H114	0.897200	0.820400	0.148200
H1151	H115	0.121700	0.818500	0.095100
H1161	H116	0.936800	0.699200	0.973600
H1171	H117	0.068700	0.582100	0.709700
H1181	H118	0.921700	0.591200	0.744900
H1191	H119	0.888700	0.642200	0.857600
H1201	H120	0.151900	0.681200	0.892000
C11	C1	0.760900	0.955900	0.627400
C21	C2	0.764700	0.957700	0.558100
C31	C3	0.766900	0.883600	0.513900
C41	C4	0.766700	0.810000	0.540900
C51	C5	0.765500	0.813200	0.610900
C61	C6	0.769300	0.729400	0.496300
C71	C7	0.776800	0.527300	0.497100
C81	C8	0.779300	0.300100	0.366700
C91	C9	0.781400	0.299000	0.436000
C101	C10	0.782300	0.372600	0.479700
C111	C11	0.781700	0.446500	0.452100
C121	C12	0.783500	0.443000	0.382000
C131	C13	0.939500	0.846300	0.730300
C141	C14	0.029800	0.845000	0.744400
C151	C15	0.061500	0.876600	0.807700
C161	C16	0.001000	0.911400	0.856700
C171	C17	0.910800	0.911900	0.839100
C181	C18	0.030900	0.946600	0.926000
C191	C19	0.547400	0.354500	0.225100
C201	C20	0.456200	0.355200	0.239900
C211	C21	0.428000	0.383500	0.304400
C221	C22	0.490600	0.415000	0.354400
C231	C23	0.581100	0.414000	0.334800
C241	C24	0.466200	0.450100	0.425300
C251	C25	0.549900	0.904900	0.796200
C261	C26	0.459000	0.906500	0.789500
C271	C27	0.419000	0.876600	0.728700
C281	C28	0.473600	0.843200	0.674700
C291	C29	0.565500	0.843300	0.685200
C301	C30	0.438600	0.809100	0.606600
C311	C31	0.503600	0.703600	0.458100
C321	C32	0.444300	0.605000	0.255800
C331	C33	0.532000	0.609300	0.276400
C341	C34	0.551200	0.639800	0.342200
C351	C35	0.482700	0.667700	0.387600
C361	C36	0.395700	0.662100	0.362000
C371	C37	0.260900	0.044100	0.872600
C381	C38	0.264700	0.042300	0.941900
C391	C39	0.266900	0.116400	0.986100
C401	C40	0.266700	0.190000	0.959100
C411	C41	0.265500	0.186800	0.889100
C421	C42	0.269300	0.270600	0.003700
C431	C43	0.276800	0.472700	0.002900
C441	C44	0.279300	0.699900	0.133300
C451	C45	0.281400	0.701000	0.064000
C461	C46	0.282300	0.627400	0.020300
C471	C47	0.281700	0.553500	0.047900
C481	C48	0.283500	0.557000	0.118000
C491	C49	0.439500	0.153700	0.769700
C501	C50	0.529800	0.155000	0.755600
C511	C51	0.561500	0.123400	0.692300
C521	C52	0.501000	0.088600	0.643300
C531	C53	0.410800	0.088100	0.660900
C541	C54	0.530900	0.053400	0.574000
C551	C55	0.047400	0.645500	0.274900
C561	C56	0.956200	0.644800	0.260100
C571	C57	0.928000	0.616500	0.195600
C581	C58	0.990600	0.585000	0.145600
C591	C59	0.081100	0.586000	0.165200
C601	C60	0.966200	0.549900	0.074700
C611	C61	0.049900	0.095100	0.703800
C621	C62	0.959000	0.093500	0.710500
C631	C63	0.919000	0.123400	0.771300
C641	C64	0.973600	0.156800	0.825300
C651	C65	0.065500	0.156700	0.814800
C661	C66	0.938600	0.190900	0.893400
C671	C67	0.003600	0.296400	0.041900
C681	C68	0.944300	0.395000	0.244200
C691	C69	0.032000	0.390700	0.223600
C701	C70	0.051200	0.360200	0.157800
C711	C71	0.982700	0.332300	0.112400
C721	C72	0.895700	0.337900	0.138000
C731	C73	0.239100	0.044100	0.372600
C741	C74	0.235300	0.042300	0.441900
C751	C75	0.233100	0.116400	0.486100
C761	C76	0.233300	0.190000	0.459100
C771	C77	0.234500	0.186800	0.389100
C781	C78	0.230700	0.270600	0.503700
C791	C79	0.223200	0.472700	0.502900
C801	C80	0.220700	0.699900	0.633300
C811	C81	0.218600	0.701000	0.564000
C821	C82	0.217700	0.627400	0.520300
C831	C83	0.218300	0.553500	0.547900
C841	C84	0.216500	0.557000	0.618000
C851	C85	0.060500	0.153700	0.269700
C861	C86	0.970200	0.155000	0.255600
C871	C87	0.938500	0.123400	0.192300
C881	C88	0.999000	0.088600	0.143300
C891	C89	0.089200	0.088100	0.160900
C901	C90	0.969100	0.053400	0.074000
C911	C91	0.452600	0.645500	0.774900
C921	C92	0.543800	0.644800	0.760100
C931	C93	0.572000	0.616500	0.695600
C941	C94	0.509400	0.585000	0.645600
C951	C95	0.418900	0.586000	0.665200
C961	C96	0.533800	0.549900	0.574700
C971	C97	0.450100	0.095100	0.203800
C981	C98	0.541000	0.093500	0.210500
C991	C99	0.581000	0.123400	0.271300
C1001	C100	0.526400	0.156800	0.325300
C1011	C101	0.434500	0.156700	0.314800
C1021	C102	0.561400	0.190900	0.393400
C1031	C103	0.496400	0.296400	0.541900
C1041	C104	0.555700	0.395000	0.744200
C1051	C105	0.468000	0.390700	0.723600
C1061	C106	0.448800	0.360200	0.657800
C1071	C107	0.517300	0.332300	0.612400
C1081	C108	0.604300	0.337900	0.638000
C1091	C109	0.739100	0.955900	0.127400
C1101	C110	0.735300	0.957700	0.058100
C1111	C111	0.733100	0.883600	0.013900
C1121	C112	0.733300	0.810000	0.040900
C1131	C113	0.734500	0.813200	0.110900
C1141	C114	0.730700	0.729400	0.996300
C1151	C115	0.723200	0.527300	0.997100
C1161	C116	0.720700	0.300100	0.866700
C1171	C117	0.718600	0.299000	0.936000
C1181	C118	0.717700	0.372600	0.979700
C1191	C119	0.718300	0.446500	0.952100
C1201	C120	0.716500	0.443000	0.882000
C1211	C121	0.560500	0.846300	0.230300
C1221	C122	0.470200	0.845000	0.244400
C1231	C123	0.438500	0.876600	0.307700
C1241	C124	0.499000	0.911400	0.356700
C1251	C125	0.589200	0.911900	0.339100
C1261	C126	0.469100	0.946600	0.426000
C1271	C127	0.952600	0.354500	0.725100
C1281	C128	0.043800	0.355200	0.739900
C1291	C129	0.072000	0.383500	0.804400
C1301	C130	0.009400	0.415000	0.854400
C1311	C131	0.918900	0.414000	0.834800
C1321	C132	0.033800	0.450100	0.925300
C1331	C133	0.950100	0.904900	0.296200
C1341	C134	0.041000	0.906500	0.289500
C1351	C135	0.081000	0.876600	0.228700
C1361	C136	0.026400	0.843200	0.174700
C1371	C137	0.934500	0.843300	0.185200
C1381	C138	0.061400	0.809100	0.106600
C1391	C139	0.996400	0.703600	0.958100
C1401	C140	0.055700	0.605000	0.755800
C1411	C141	0.968000	0.609300	0.776400
C1421	C142	0.948800	0.639800	0.842200
C1431	C143	0.017300	0.667700	0.887600
C1441	C144	0.104300	0.662100	0.862000
N11	N1	0.761300	0.885000	0.654200
N21	N2	0.757400	0.662600	0.521400
N31	N3	0.762200	0.592600	0.471100
N41	N4	0.779800	0.370700	0.339100
N51	N5	0.880900	0.880800	0.777300
N61	N6	0.978800	0.986600	0.967900
N71	N7	0.607900	0.382900	0.271300
N81	N8	0.520000	0.486600	0.468200
N91	N9	0.603700	0.874000	0.744800
N101	N10	0.489000	0.767400	0.563800
N111	N11	0.448200	0.739800	0.499600
N121	N12	0.376500	0.631300	0.297500
N131	N13	0.737600	0.747200	0.807900
N141	N14	0.720500	0.504500	0.187100
N151	N15	0.261300	0.115000	0.845800
N161	N16	0.257400	0.337400	0.978600
N171	N17	0.262200	0.407400	0.028900
N181	N18	0.279800	0.629300	0.160900
N191	N19	0.380900	0.119200	0.722700
N201	N20	0.478800	0.013400	0.532100
N211	N21	0.107900	0.617100	0.228700
N221	N22	0.020000	0.513400	0.031800
N231	N23	0.103700	0.126000	0.755200
N241	N24	0.989000	0.232600	0.936200
N251	N25	0.948200	0.260200	0.000400
N261	N26	0.876500	0.368700	0.202500
N271	N27	0.237600	0.252800	0.692100
N281	N28	0.220500	0.495500	0.312900
N291	N29	0.238700	0.115000	0.345800
N301	N30	0.242600	0.337400	0.478600
N311	N31	0.237800	0.407400	0.528900
N321	N32	0.220200	0.629300	0.660900
N331	N33	0.119100	0.119200	0.222700
N341	N34	0.021200	0.013400	0.032100
N351	N35	0.392100	0.617100	0.728700
N361	N36	0.480000	0.513400	0.531800
N371	N37	0.396300	0.126000	0.255200
N381	N38	0.511000	0.232600	0.436200
N391	N39	0.551800	0.260200	0.500400
N401	N40	0.623500	0.368700	0.702500
N411	N41	0.262400	0.252800	0.192100
N421	N42	0.279500	0.495500	0.812900
N431	N43	0.738700	0.885000	0.154200
N441	N44	0.742600	0.662600	0.021400
N451	N45	0.737800	0.592600	0.971100
N461	N46	0.720200	0.370700	0.839100
N471	N47	0.619100	0.880800	0.277300
N481	N48	0.521200	0.986600	0.467900
N491	N49	0.892100	0.382900	0.771300
N501	N50	0.980000	0.486600	0.968200
N511	N51	0.896300	0.874000	0.244800
N521	N52	0.011000	0.767400	0.063800
N531	N53	0.051800	0.739800	0.999600
N541	N54	0.123500	0.631300	0.797500
N551	N55	0.762400	0.747200	0.307900
N561	N56	0.779500	0.504500	0.687100
O11	O1	0.727400	0.817900	0.845240
O21	O2	0.749200	0.749800	0.744120
O31	O3	0.737000	0.682400	0.831500
O41	O4	0.748400	0.504600	0.248000
O51	O5	0.706800	0.433700	0.152740
O61	O6	0.707500	0.569000	0.163200
O71	O7	0.227400	0.182100	0.654760
O81	O8	0.249200	0.250200	0.755880
O91	O9	0.237000	0.317600	0.668500
O101	O10	0.248400	0.495400	0.252000
O111	O11	0.206800	0.566300	0.347260
O121	O12	0.207500	0.431000	0.336800
O131	O13	0.272600	0.182100	0.154760
O141	O14	0.250800	0.250200	0.255880
O151	O15	0.263000	0.317600	0.168500
O161	O16	0.251600	0.495400	0.752000
O171	O17	0.293200	0.566300	0.847260
O181	O18	0.292500	0.431000	0.836800
O191	O19	0.772600	0.817900	0.345240
O201	O20	0.750800	0.749800	0.244120
O211	O21	0.763000	0.682400	0.331500
O221	O22	0.751600	0.504600	0.748000
O231	O23	0.793200	0.433700	0.652740
O241	O24	0.792500	0.569000	0.663200
