data_PEWKOT_clean_PM
_symmetry_space_group_name_H-M	'P1'
_cell_length_a	16.559800
_cell_length_b	17.621100
_cell_length_c	17.621100
_cell_angle_alpha	77.244400
_cell_angle_beta	61.973200
_cell_angle_gamma	61.973100
_symmetry_Int_Tables_number 1

loop_
_symmetry_equiv_pos_as_xyz
'x,y,z'

loop_
_atom_site_label
_atom_site_type_symbol
_atom_site_fract_x
_atom_site_fract_y
_atom_site_fract_z
Cd11	Cd1	0.032230	0.908180	0.431300
Cd21	Cd2	0.871710	0.591820	0.068700
Cd31	Cd3	0.463520	0.568710	0.408180
Cd41	Cd4	0.940420	0.931290	0.091820
Cd51	Cd5	0.967770	0.091820	0.568700
Cd61	Cd6	0.128290	0.408180	0.931300
Cd71	Cd7	0.536480	0.431290	0.591820
Cd81	Cd8	0.059580	0.068710	0.908180
H11	H1	0.254300	0.567400	0.415800
H21	H2	0.231200	0.499700	0.332900
H31	H3	0.193400	0.704800	0.179000
H41	H4	0.212600	0.773800	0.262800
H51	H5	0.043700	0.721500	0.511900
H61	H6	0.989200	0.659700	0.643100
H71	H7	0.760800	0.888500	0.733100
H81	H8	0.823000	0.944600	0.598400
H91	H9	0.737500	0.932600	0.084200
H101	H10	0.563800	0.000300	0.167100
H111	H11	0.577200	0.795200	0.321000
H121	H12	0.749200	0.726200	0.237200
H131	H13	0.777100	0.778500	0.988100
H141	H14	0.792000	0.840300	0.856900
H151	H15	0.882400	0.611500	0.766900
H161	H16	0.866000	0.555400	0.901600
H171	H17	0.670100	0.584200	0.067400
H181	H18	0.564100	0.667100	0.999700
H191	H19	0.372400	0.821000	0.204800
H201	H20	0.475400	0.737200	0.273800
H211	H21	0.555600	0.488100	0.221500
H221	H22	0.632300	0.356900	0.159700
H231	H23	0.493900	0.266900	0.388500
H241	H24	0.421400	0.401600	0.444600
H251	H25	0.821700	0.915800	0.432600
H261	H26	0.730900	0.832900	0.500300
H271	H27	0.898200	0.679000	0.295200
H281	H28	0.986400	0.762800	0.226200
H291	H29	0.765200	0.011900	0.278500
H301	H30	0.648900	0.143100	0.340300
H311	H31	0.649300	0.233100	0.111500
H321	H32	0.767600	0.098400	0.055400
H331	H33	0.745700	0.432600	0.584200
H341	H34	0.768800	0.500300	0.667100
H351	H35	0.806600	0.295200	0.821000
H361	H36	0.787400	0.226200	0.737200
H371	H37	0.956300	0.278500	0.488100
H381	H38	0.010800	0.340300	0.356900
H391	H39	0.239200	0.111500	0.266900
H401	H40	0.177000	0.055400	0.401600
H411	H41	0.262500	0.067400	0.915800
H421	H42	0.436200	0.999700	0.832900
H431	H43	0.422800	0.204800	0.679000
H441	H44	0.250800	0.273800	0.762800
H451	H45	0.222900	0.221500	0.011900
H461	H46	0.208000	0.159700	0.143100
H471	H47	0.117600	0.388500	0.233100
H481	H48	0.134000	0.444600	0.098400
H491	H49	0.329900	0.415800	0.932600
H501	H50	0.435900	0.332900	0.000300
H511	H51	0.627600	0.179000	0.795200
H521	H52	0.524600	0.262800	0.726200
H531	H53	0.444400	0.511900	0.778500
H541	H54	0.367700	0.643100	0.840300
H551	H55	0.506100	0.733100	0.611500
H561	H56	0.578600	0.598400	0.555400
H571	H57	0.178300	0.084200	0.567400
H581	H58	0.269100	0.167100	0.499700
H591	H59	0.101800	0.321000	0.704800
H601	H60	0.013600	0.237200	0.773800
H611	H61	0.234800	0.988100	0.721500
H621	H62	0.351100	0.856900	0.659700
H631	H63	0.350700	0.766900	0.888500
H641	H64	0.232400	0.901600	0.944600
C11	C1	0.169310	0.909620	0.510560
C21	C2	0.222590	0.825870	0.468350
C31	C3	0.312870	0.756800	0.461260
C41	C4	0.390920	0.746460	0.485700
C51	C5	0.247760	0.723260	0.399820
C61	C6	0.235250	0.677340	0.347760
C71	C7	0.241300	0.595500	0.368700
C81	C8	0.227800	0.554900	0.319100
C91	C9	0.209500	0.597000	0.250000
C101	C10	0.204600	0.677800	0.227000
C111	C11	0.216800	0.718400	0.276800
C121	C12	0.987300	0.756100	0.557500
C131	C13	0.955100	0.718480	0.636320
C141	C14	0.871490	0.768260	0.706160
C151	C15	0.820280	0.853470	0.689770
C161	C16	0.858080	0.886760	0.607880
C171	C17	0.089490	0.590380	0.989440
C181	C18	0.016810	0.674130	0.031650
C191	C19	0.030930	0.743200	0.038740
C201	C20	0.123080	0.753540	0.014300
C211	C21	0.870840	0.776740	0.100180
C221	C22	0.760350	0.822660	0.152240
C231	C23	0.705500	0.904500	0.131300
C241	C24	0.601800	0.945100	0.180900
C251	C25	0.556500	0.903000	0.250000
C261	C26	0.609400	0.822200	0.273000
C271	C27	0.712000	0.781600	0.223200
C281	C28	0.800900	0.743900	0.942500
C291	C29	0.809900	0.781520	0.863680
C301	C30	0.845910	0.731740	0.793840
C311	C31	0.863520	0.646530	0.810230
C321	C32	0.852720	0.613240	0.892120
C331	C33	0.679870	0.489440	0.409620
C341	C34	0.690940	0.531650	0.325870
C351	C35	0.774130	0.538740	0.256800
C361	C36	0.876620	0.514300	0.246460
C371	C37	0.647580	0.600180	0.223260
C381	C38	0.583010	0.652240	0.177340
C391	C39	0.610000	0.631300	0.095500
C401	C40	0.546900	0.680900	0.054900
C411	C41	0.459500	0.750000	0.097000
C421	C42	0.431600	0.773000	0.177800
C431	C43	0.493600	0.723200	0.218400
C441	C44	0.544800	0.442500	0.256100
C451	C45	0.591420	0.363680	0.218480
C461	C46	0.577650	0.293840	0.268260
C471	C47	0.510050	0.310230	0.353470
C481	C48	0.465960	0.392120	0.386760
C491	C49	0.078930	0.010560	0.090380
C501	C50	0.048460	0.968350	0.174130
C511	C51	0.069670	0.961260	0.243200
C521	C52	0.137380	0.985700	0.253540
C531	C53	0.971020	0.899820	0.276740
C541	C54	0.912590	0.847760	0.322660
C551	C55	0.836800	0.868700	0.404500
C561	C56	0.782700	0.819100	0.445100
C571	C57	0.806500	0.750000	0.403000
C581	C58	0.882400	0.727000	0.322200
C591	C59	0.935200	0.776800	0.281600
C601	C60	0.743400	0.057500	0.243900
C611	C61	0.673580	0.136320	0.281520
C621	C62	0.639750	0.206160	0.231740
C631	C63	0.673750	0.189770	0.146530
C641	C64	0.744840	0.107880	0.113240
C651	C65	0.830690	0.090380	0.489440
C661	C66	0.777410	0.174130	0.531650
C671	C67	0.687130	0.243200	0.538740
C681	C68	0.609080	0.253540	0.514300
C691	C69	0.752240	0.276740	0.600180
C701	C70	0.764750	0.322660	0.652240
C711	C71	0.758700	0.404500	0.631300
C721	C72	0.772200	0.445100	0.680900
C731	C73	0.790500	0.403000	0.750000
C741	C74	0.795400	0.322200	0.773000
C751	C75	0.783200	0.281600	0.723200
C761	C76	0.012700	0.243900	0.442500
C771	C77	0.044900	0.281520	0.363680
C781	C78	0.128510	0.231740	0.293840
C791	C79	0.179720	0.146530	0.310230
C801	C80	0.141920	0.113240	0.392120
C811	C81	0.910510	0.409620	0.010560
C821	C82	0.983190	0.325870	0.968350
C831	C83	0.969070	0.256800	0.961260
C841	C84	0.876920	0.246460	0.985700
C851	C85	0.129160	0.223260	0.899820
C861	C86	0.239650	0.177340	0.847760
C871	C87	0.294500	0.095500	0.868700
C881	C88	0.398200	0.054900	0.819100
C891	C89	0.443500	0.097000	0.750000
C901	C90	0.390600	0.177800	0.727000
C911	C91	0.288000	0.218400	0.776800
C921	C92	0.199100	0.256100	0.057500
C931	C93	0.190100	0.218480	0.136320
C941	C94	0.154090	0.268260	0.206160
C951	C95	0.136480	0.353470	0.189770
C961	C96	0.147280	0.386760	0.107880
C971	C97	0.320130	0.510560	0.590380
C981	C98	0.309060	0.468350	0.674130
C991	C99	0.225870	0.461260	0.743200
C1001	C100	0.123380	0.485700	0.753540
C1011	C101	0.352420	0.399820	0.776740
C1021	C102	0.416990	0.347760	0.822660
C1031	C103	0.390000	0.368700	0.904500
C1041	C104	0.453100	0.319100	0.945100
C1051	C105	0.540500	0.250000	0.903000
C1061	C106	0.568400	0.227000	0.822200
C1071	C107	0.506400	0.276800	0.781600
C1081	C108	0.455200	0.557500	0.743900
C1091	C109	0.408580	0.636320	0.781520
C1101	C110	0.422350	0.706160	0.731740
C1111	C111	0.489950	0.689770	0.646530
C1121	C112	0.534040	0.607880	0.613240
C1131	C113	0.921070	0.989440	0.909620
C1141	C114	0.951540	0.031650	0.825870
C1151	C115	0.930330	0.038740	0.756800
C1161	C116	0.862620	0.014300	0.746460
C1171	C117	0.028980	0.100180	0.723260
C1181	C118	0.087410	0.152240	0.677340
C1191	C119	0.163200	0.131300	0.595500
C1201	C120	0.217300	0.180900	0.554900
C1211	C121	0.193500	0.250000	0.597000
C1221	C122	0.117600	0.273000	0.677800
C1231	C123	0.064800	0.223200	0.718400
C1241	C124	0.256600	0.942500	0.756100
C1251	C125	0.326420	0.863680	0.718480
C1261	C126	0.360250	0.793840	0.768260
C1271	C127	0.326250	0.810230	0.853470
C1281	C128	0.255160	0.892120	0.886760
Br11	Br1	0.188140	0.543030	0.183210
Br21	Br2	0.414380	0.956970	0.316790
Br31	Br3	0.371350	0.816790	0.043030
Br41	Br4	0.731170	0.683210	0.456970
Br51	Br5	0.811860	0.456970	0.816790
Br61	Br6	0.585620	0.043030	0.683210
Br71	Br7	0.628650	0.183210	0.956970
Br81	Br8	0.268830	0.316790	0.543030
N11	N1	0.181970	0.803950	0.428710
N21	N2	0.327870	0.691550	0.418250
N31	N3	0.941300	0.840390	0.543010
N41	N4	0.914630	0.696050	0.071290
N51	N5	0.937670	0.808450	0.081750
N61	N6	0.824700	0.659610	0.956990
N71	N7	0.610680	0.571290	0.303950
N81	N8	0.746120	0.581750	0.191550
N91	N9	0.484310	0.456990	0.340390
N101	N10	0.985920	0.928710	0.196050
N111	N11	0.019420	0.918250	0.308450
N121	N12	0.781690	0.043010	0.159610
N131	N13	0.818030	0.196050	0.571290
N141	N14	0.672130	0.308450	0.581750
N151	N15	0.058700	0.159610	0.456990
N161	N16	0.085370	0.303950	0.928710
N171	N17	0.062330	0.191550	0.918250
N181	N18	0.175300	0.340390	0.043010
N191	N19	0.389320	0.428710	0.696050
N201	N20	0.253880	0.418250	0.808450
N211	N21	0.515690	0.543010	0.659610
N221	N22	0.014080	0.071290	0.803950
N231	N23	0.980580	0.081750	0.691550
N241	N24	0.218310	0.956990	0.840390
O11	O1	0.467610	0.677650	0.470730
O21	O2	0.378020	0.811300	0.520740
O31	O3	0.211990	0.931930	0.538770
O41	O4	0.080980	0.956450	0.515490
O51	O5	0.115990	0.822350	0.029270
O61	O6	0.210060	0.688700	0.979260
O71	O7	0.182690	0.568070	0.961230
O81	O8	0.052920	0.543550	0.984510
O91	O9	0.938340	0.529270	0.177650
O101	O10	0.898760	0.479260	0.311300
O111	O11	0.750760	0.461230	0.431930
O121	O12	0.596470	0.484510	0.456450
O131	O13	0.145260	0.970730	0.322350
O141	O14	0.189320	0.020740	0.188700
O151	O15	0.143920	0.038770	0.068070
O161	O16	0.037430	0.015490	0.043550
O171	O17	0.532390	0.322350	0.529270
O181	O18	0.621980	0.188700	0.479260
O191	O19	0.788010	0.068070	0.461230
O201	O20	0.919020	0.043550	0.484510
O211	O21	0.884010	0.177650	0.970730
O221	O22	0.789940	0.311300	0.020740
O231	O23	0.817310	0.431930	0.038770
O241	O24	0.947080	0.456450	0.015490
O251	O25	0.061660	0.470730	0.822350
O261	O26	0.101240	0.520740	0.688700
O271	O27	0.249240	0.538770	0.568070
O281	O28	0.403530	0.515490	0.543550
O291	O29	0.854740	0.029270	0.677650
O301	O30	0.810680	0.979260	0.811300
O311	O31	0.856080	0.961230	0.931930
O321	O32	0.962570	0.984510	0.956450
