data_PEWLUA_clean_PM
_symmetry_space_group_name_H-M	'P1'
_cell_length_a	30.926000
_cell_length_b	30.926000
_cell_length_c	31.413000
_cell_angle_alpha	60.511500
_cell_angle_beta	60.511500
_cell_angle_gamma	89.999900
_symmetry_Int_Tables_number 1

loop_
_symmetry_equiv_pos_as_xyz
'x,y,z'

loop_
_atom_site_label
_atom_site_type_symbol
_atom_site_fract_x
_atom_site_fract_y
_atom_site_fract_z
Cu11	Cu1	0.530010	0.193240	0.337840
Cu21	Cu2	0.519680	0.270000	0.256080
Cu31	Cu3	0.132150	0.468910	0.337850
Cu41	Cu4	0.224250	0.473920	0.256070
Cu51	Cu5	0.193240	0.132160	0.337840
Cu61	Cu6	0.270010	0.224250	0.256070
Cu71	Cu7	0.468910	0.530000	0.337850
Cu81	Cu8	0.473910	0.519680	0.256080
Cu91	Cu9	0.469990	0.806760	0.662160
Cu101	Cu10	0.480320	0.730000	0.743920
Cu111	Cu11	0.867850	0.531090	0.662150
Cu121	Cu12	0.775750	0.526080	0.743930
Cu131	Cu13	0.806760	0.867840	0.662160
Cu141	Cu14	0.729990	0.775750	0.743930
Cu151	Cu15	0.531090	0.470000	0.662150
Cu161	Cu16	0.526080	0.480320	0.743930
Cu171	Cu17	0.456940	0.749420	0.000000
Cu181	Cu18	0.442460	0.834590	0.000000
Cu191	Cu19	0.543060	0.250580	0.000000
Cu201	Cu20	0.557540	0.165410	0.000000
Cu211	Cu21	0.749420	0.543060	0.000000
Cu221	Cu22	0.834590	0.557540	0.000000
Cu231	Cu23	0.250580	0.456940	0.000000
Cu241	Cu24	0.165410	0.442460	0.000000
H11	H1	0.480100	0.242200	0.459200
H21	H2	0.456400	0.372600	0.456600
H31	H3	0.483300	0.364000	0.322000
H41	H4	0.407800	0.124000	0.662600
H51	H5	0.425900	0.073700	0.798800
H61	H6	0.447900	0.228100	0.689800
H71	H7	0.478800	0.244000	0.738000
H81	H8	0.440900	0.198900	0.565000
H91	H9	0.433400	0.996400	0.800800
H101	H10	0.502200	0.302900	0.752800
H111	H11	0.533500	0.329600	0.850800
H121	H12	0.508300	0.184000	0.884400
H131	H13	0.442000	0.781000	0.859000
H141	H14	0.427900	0.899200	0.733200
H151	H15	0.415800	0.907600	0.864200
H161	H16	0.060700	0.298600	0.459200
H171	H17	0.087000	0.170800	0.456600
H181	H18	0.194700	0.314000	0.322000
H191	H19	0.929600	0.213400	0.662600
H201	H20	0.775300	0.127500	0.798800
H211	H21	0.862300	0.082100	0.689800
H221	H22	0.783200	0.018000	0.738000
H231	H23	0.994100	0.236100	0.565000
H241	H24	0.765800	0.202800	0.800800
H251	H25	0.745000	0.944300	0.752800
H261	H26	0.615700	0.819600	0.850800
H271	H27	0.607300	0.931600	0.884400
H281	H28	0.699000	0.360000	0.859000
H291	H29	0.838900	0.367600	0.733200
H301	H30	0.720000	0.228200	0.864200
H311	H31	0.242200	0.060700	0.459200
H321	H32	0.372600	0.087000	0.456600
H331	H33	0.364000	0.194700	0.322000
H341	H34	0.124000	0.929600	0.662600
H351	H35	0.073700	0.775300	0.798800
H361	H36	0.228100	0.862300	0.689800
H371	H37	0.244000	0.783200	0.738000
H381	H38	0.198900	0.994100	0.565000
H391	H39	0.996400	0.765800	0.800800
H401	H40	0.302900	0.745000	0.752800
H411	H41	0.329600	0.615700	0.850800
H421	H42	0.184000	0.607300	0.884400
H431	H43	0.781000	0.699000	0.859000
H441	H44	0.899200	0.838900	0.733200
H451	H45	0.907600	0.720000	0.864200
H461	H46	0.298600	0.480100	0.459200
H471	H47	0.170800	0.456400	0.456600
H481	H48	0.314000	0.483300	0.322000
H491	H49	0.213400	0.407800	0.662600
H501	H50	0.127500	0.425900	0.798800
H511	H51	0.082100	0.447900	0.689800
H521	H52	0.018000	0.478800	0.738000
H531	H53	0.236100	0.440900	0.565000
H541	H54	0.202800	0.433400	0.800800
H551	H55	0.944300	0.502200	0.752800
H561	H56	0.819600	0.533500	0.850800
H571	H57	0.931600	0.508300	0.884400
H581	H58	0.360000	0.442000	0.859000
H591	H59	0.367600	0.427900	0.733200
H601	H60	0.228200	0.415800	0.864200
H611	H61	0.519900	0.757800	0.540800
H621	H62	0.543600	0.627400	0.543400
H631	H63	0.516700	0.636000	0.678000
H641	H64	0.592200	0.876000	0.337400
H651	H65	0.574100	0.926300	0.201200
H661	H66	0.552100	0.771900	0.310200
H671	H67	0.521200	0.756000	0.262000
H681	H68	0.559100	0.801100	0.435000
H691	H69	0.566600	0.003600	0.199200
H701	H70	0.497800	0.697100	0.247200
H711	H71	0.466500	0.670400	0.149200
H721	H72	0.491700	0.816000	0.115600
H731	H73	0.558000	0.219000	0.141000
H741	H74	0.572100	0.100800	0.266800
H751	H75	0.584200	0.092400	0.135800
H761	H76	0.939300	0.701400	0.540800
H771	H77	0.913000	0.829200	0.543400
H781	H78	0.805300	0.686000	0.678000
H791	H79	0.070400	0.786600	0.337400
H801	H80	0.224700	0.872500	0.201200
H811	H81	0.137700	0.917900	0.310200
H821	H82	0.216800	0.982000	0.262000
H831	H83	0.005900	0.763900	0.435000
H841	H84	0.234200	0.797200	0.199200
H851	H85	0.255000	0.055700	0.247200
H861	H86	0.384300	0.180400	0.149200
H871	H87	0.392700	0.068400	0.115600
H881	H88	0.301000	0.640000	0.141000
H891	H89	0.161100	0.632400	0.266800
H901	H90	0.280000	0.771800	0.135800
H911	H91	0.757800	0.939300	0.540800
H921	H92	0.627400	0.913000	0.543400
H931	H93	0.636000	0.805300	0.678000
H941	H94	0.876000	0.070400	0.337400
H951	H95	0.926300	0.224700	0.201200
H961	H96	0.771900	0.137700	0.310200
H971	H97	0.756000	0.216800	0.262000
H981	H98	0.801100	0.005900	0.435000
H991	H99	0.003600	0.234200	0.199200
H1001	H100	0.697100	0.255000	0.247200
H1011	H101	0.670400	0.384300	0.149200
H1021	H102	0.816000	0.392700	0.115600
H1031	H103	0.219000	0.301000	0.141000
H1041	H104	0.100800	0.161100	0.266800
H1051	H105	0.092400	0.280000	0.135800
H1061	H106	0.701400	0.519900	0.540800
H1071	H107	0.829200	0.543600	0.543400
H1081	H108	0.686000	0.516700	0.678000
H1091	H109	0.786600	0.592200	0.337400
H1101	H110	0.872500	0.574100	0.201200
H1111	H111	0.917900	0.552100	0.310200
H1121	H112	0.982000	0.521200	0.262000
H1131	H113	0.763900	0.559100	0.435000
H1141	H114	0.797200	0.566600	0.199200
H1151	H115	0.055700	0.497800	0.247200
H1161	H116	0.180400	0.466500	0.149200
H1171	H117	0.068400	0.491700	0.115600
H1181	H118	0.640000	0.558000	0.141000
H1191	H119	0.632400	0.572100	0.266800
H1201	H120	0.771800	0.584200	0.135800
C11	C1	0.497950	0.271880	0.354600
C21	C2	0.484040	0.299570	0.385700
C31	C3	0.477450	0.276310	0.440180
C41	C4	0.467080	0.303740	0.466060
C51	C5	0.463540	0.354140	0.438360
C61	C6	0.470550	0.376670	0.384180
C71	C7	0.479840	0.348900	0.358620
C81	C8	0.428290	0.182390	0.669420
C91	C9	0.415610	0.131010	0.684780
C101	C10	0.414580	0.090080	0.733240
C111	C11	0.426450	0.101250	0.766100
C121	C12	0.438850	0.152350	0.750300
C131	C13	0.439560	0.193060	0.700880
C141	C14	0.447500	0.164400	0.785000
C151	C15	0.468800	0.210400	0.772200
C161	C16	0.439350	0.226750	0.570100
C171	C17	0.432250	0.224750	0.617100
C181	C18	0.417680	0.996180	0.781440
C191	C19	0.404770	0.036770	0.748860
C201	C20	0.503400	0.238420	0.817800
C211	C21	0.507660	0.290830	0.783520
C221	C22	0.520100	0.325160	0.795420
C231	C23	0.526750	0.306630	0.841420
C241	C24	0.523570	0.254000	0.873840
C251	C25	0.511250	0.219960	0.861920
C261	C26	0.524320	0.381030	0.760220
C271	C27	0.436850	0.814160	0.842540
C281	C28	0.436400	0.835820	0.791920
C291	C29	0.427990	0.884340	0.767740
C301	C30	0.419740	0.910210	0.795580
C311	C31	0.420940	0.889250	0.846000
C321	C32	0.429730	0.841360	0.868860
C331	C33	0.448160	0.809160	0.760600
C341	C34	0.434590	0.820900	0.919820
C351	C35	0.533410	0.235540	0.922040
C361	C36	0.469560	0.431890	0.352020
C371	C37	0.147450	0.373520	0.354600
C381	C38	0.130260	0.314730	0.385700
C391	C39	0.082370	0.283510	0.440180
C401	C40	0.066860	0.230200	0.466060
C411	C41	0.098100	0.207500	0.438360
C421	C42	0.145270	0.239150	0.384180
C431	C43	0.161540	0.292480	0.358620
C441	C44	0.902290	0.148190	0.669420
C451	C45	0.899610	0.184210	0.684780
C461	C46	0.852180	0.176680	0.733240
C471	C47	0.807450	0.132650	0.766100
C481	C48	0.810850	0.097350	0.750300
C491	C49	0.859560	0.106060	0.700880
C501	C50	0.767500	0.050600	0.785000
C511	C51	0.759000	0.017400	0.772200
C521	C52	0.990550	0.203150	0.570100
C531	C53	0.950650	0.158150	0.617100
C541	C54	0.800880	0.222380	0.781440
C551	C55	0.846370	0.214370	0.748860
C561	C56	0.678800	0.943780	0.817800
C571	C57	0.708820	0.925650	0.783520
C581	C58	0.684480	0.879420	0.795420
C591	C59	0.631830	0.851950	0.841420
C601	C60	0.602590	0.872160	0.873840
C611	C61	0.626830	0.918120	0.861920
C621	C62	0.715460	0.858750	0.760220
C631	C63	0.720610	0.343300	0.842540
C641	C64	0.771680	0.372260	0.791920
C651	C65	0.804270	0.347920	0.767740
C661	C66	0.784680	0.294210	0.795580
C671	C67	0.733060	0.264750	0.846000
C681	C68	0.701410	0.289780	0.868860
C691	C69	0.791240	0.430240	0.760600
C701	C70	0.645590	0.259280	0.919820
C711	C71	0.544550	0.842420	0.922040
C721	C72	0.178420	0.216090	0.352020
C731	C73	0.271880	0.147450	0.354600
C741	C74	0.299570	0.130260	0.385700
C751	C75	0.276310	0.082370	0.440180
C761	C76	0.303740	0.066860	0.466060
C771	C77	0.354140	0.098100	0.438360
C781	C78	0.376670	0.145270	0.384180
C791	C79	0.348900	0.161540	0.358620
C801	C80	0.182390	0.902290	0.669420
C811	C81	0.131010	0.899610	0.684780
C821	C82	0.090080	0.852180	0.733240
C831	C83	0.101250	0.807450	0.766100
C841	C84	0.152350	0.810850	0.750300
C851	C85	0.193060	0.859560	0.700880
C861	C86	0.164400	0.767500	0.785000
C871	C87	0.210400	0.759000	0.772200
C881	C88	0.226750	0.990550	0.570100
C891	C89	0.224750	0.950650	0.617100
C901	C90	0.996180	0.800880	0.781440
C911	C91	0.036770	0.846370	0.748860
C921	C92	0.238420	0.678800	0.817800
C931	C93	0.290830	0.708820	0.783520
C941	C94	0.325160	0.684480	0.795420
C951	C95	0.306630	0.631830	0.841420
C961	C96	0.254000	0.602590	0.873840
C971	C97	0.219960	0.626830	0.861920
C981	C98	0.381030	0.715460	0.760220
C991	C99	0.814160	0.720610	0.842540
C1001	C100	0.835820	0.771680	0.791920
C1011	C101	0.884340	0.804270	0.767740
C1021	C102	0.910210	0.784680	0.795580
C1031	C103	0.889250	0.733060	0.846000
C1041	C104	0.841360	0.701410	0.868860
C1051	C105	0.809160	0.791240	0.760600
C1061	C106	0.820900	0.645590	0.919820
C1071	C107	0.235540	0.544550	0.922040
C1081	C108	0.431890	0.178420	0.352020
C1091	C109	0.373520	0.497950	0.354600
C1101	C110	0.314730	0.484040	0.385700
C1111	C111	0.283510	0.477450	0.440180
C1121	C112	0.230200	0.467080	0.466060
C1131	C113	0.207500	0.463540	0.438360
C1141	C114	0.239150	0.470550	0.384180
C1151	C115	0.292480	0.479840	0.358620
C1161	C116	0.148190	0.428290	0.669420
C1171	C117	0.184210	0.415610	0.684780
C1181	C118	0.176680	0.414580	0.733240
C1191	C119	0.132650	0.426450	0.766100
C1201	C120	0.097350	0.438850	0.750300
C1211	C121	0.106060	0.439560	0.700880
C1221	C122	0.050600	0.447500	0.785000
C1231	C123	0.017400	0.468800	0.772200
C1241	C124	0.203150	0.439350	0.570100
C1251	C125	0.158150	0.432250	0.617100
C1261	C126	0.222380	0.417680	0.781440
C1271	C127	0.214370	0.404770	0.748860
C1281	C128	0.943780	0.503400	0.817800
C1291	C129	0.925650	0.507660	0.783520
C1301	C130	0.879420	0.520100	0.795420
C1311	C131	0.851950	0.526750	0.841420
C1321	C132	0.872160	0.523570	0.873840
C1331	C133	0.918120	0.511250	0.861920
C1341	C134	0.858750	0.524320	0.760220
C1351	C135	0.343300	0.436850	0.842540
C1361	C136	0.372260	0.436400	0.791920
C1371	C137	0.347920	0.427990	0.767740
C1381	C138	0.294210	0.419740	0.795580
C1391	C139	0.264750	0.420940	0.846000
C1401	C140	0.289780	0.429730	0.868860
C1411	C141	0.430240	0.448160	0.760600
C1421	C142	0.259280	0.434590	0.919820
C1431	C143	0.842420	0.533410	0.922040
C1441	C144	0.216090	0.469560	0.352020
C1451	C145	0.502050	0.728120	0.645400
C1461	C146	0.515960	0.700430	0.614300
C1471	C147	0.522550	0.723690	0.559820
C1481	C148	0.532920	0.696260	0.533940
C1491	C149	0.536460	0.645860	0.561640
C1501	C150	0.529450	0.623330	0.615820
C1511	C151	0.520160	0.651100	0.641380
C1521	C152	0.571710	0.817610	0.330580
C1531	C153	0.584390	0.868990	0.315220
C1541	C154	0.585420	0.909920	0.266760
C1551	C155	0.573550	0.898750	0.233900
C1561	C156	0.561150	0.847650	0.249700
C1571	C157	0.560440	0.806940	0.299120
C1581	C158	0.552500	0.835600	0.215000
C1591	C159	0.531200	0.789600	0.227800
C1601	C160	0.560650	0.773250	0.429900
C1611	C161	0.567750	0.775250	0.382900
C1621	C162	0.582320	0.003820	0.218560
C1631	C163	0.595230	0.963230	0.251140
C1641	C164	0.496600	0.761580	0.182200
C1651	C165	0.492340	0.709170	0.216480
C1661	C166	0.479900	0.674840	0.204580
C1671	C167	0.473250	0.693370	0.158580
C1681	C168	0.476430	0.746000	0.126160
C1691	C169	0.488750	0.780040	0.138080
C1701	C170	0.475680	0.618970	0.239780
C1711	C171	0.563150	0.185840	0.157460
C1721	C172	0.563600	0.164180	0.208080
C1731	C173	0.572010	0.115660	0.232260
C1741	C174	0.580260	0.089790	0.204420
C1751	C175	0.579060	0.110750	0.154000
C1761	C176	0.570270	0.158640	0.131140
C1771	C177	0.551840	0.190840	0.239400
C1781	C178	0.565410	0.179100	0.080180
C1791	C179	0.466590	0.764460	0.077960
C1801	C180	0.530440	0.568110	0.647980
C1811	C181	0.852550	0.626480	0.645400
C1821	C182	0.869740	0.685270	0.614300
C1831	C183	0.917630	0.716490	0.559820
C1841	C184	0.933140	0.769800	0.533940
C1851	C185	0.901900	0.792500	0.561640
C1861	C186	0.854730	0.760850	0.615820
C1871	C187	0.838460	0.707520	0.641380
C1881	C188	0.097710	0.851810	0.330580
C1891	C189	0.100390	0.815790	0.315220
C1901	C190	0.147820	0.823320	0.266760
C1911	C191	0.192550	0.867350	0.233900
C1921	C192	0.189150	0.902650	0.249700
C1931	C193	0.140440	0.893940	0.299120
C1941	C194	0.232500	0.949400	0.215000
C1951	C195	0.241000	0.982600	0.227800
C1961	C196	0.009450	0.796850	0.429900
C1971	C197	0.049350	0.841850	0.382900
C1981	C198	0.199120	0.777620	0.218560
C1991	C199	0.153630	0.785630	0.251140
C2001	C200	0.321200	0.056220	0.182200
C2011	C201	0.291180	0.074350	0.216480
C2021	C202	0.315520	0.120580	0.204580
C2031	C203	0.368170	0.148050	0.158580
C2041	C204	0.397410	0.127840	0.126160
C2051	C205	0.373170	0.081880	0.138080
C2061	C206	0.284540	0.141250	0.239780
C2071	C207	0.279390	0.656700	0.157460
C2081	C208	0.228320	0.627740	0.208080
C2091	C209	0.195730	0.652080	0.232260
C2101	C210	0.215320	0.705790	0.204420
C2111	C211	0.266940	0.735250	0.154000
C2121	C212	0.298590	0.710220	0.131140
C2131	C213	0.208760	0.569760	0.239400
C2141	C214	0.354410	0.740720	0.080180
C2151	C215	0.455450	0.157580	0.077960
C2161	C216	0.821580	0.783910	0.647980
C2171	C217	0.728120	0.852550	0.645400
C2181	C218	0.700430	0.869740	0.614300
C2191	C219	0.723690	0.917630	0.559820
C2201	C220	0.696260	0.933140	0.533940
C2211	C221	0.645860	0.901900	0.561640
C2221	C222	0.623330	0.854730	0.615820
C2231	C223	0.651100	0.838460	0.641380
C2241	C224	0.817610	0.097710	0.330580
C2251	C225	0.868990	0.100390	0.315220
C2261	C226	0.909920	0.147820	0.266760
C2271	C227	0.898750	0.192550	0.233900
C2281	C228	0.847650	0.189150	0.249700
C2291	C229	0.806940	0.140440	0.299120
C2301	C230	0.835600	0.232500	0.215000
C2311	C231	0.789600	0.241000	0.227800
C2321	C232	0.773250	0.009450	0.429900
C2331	C233	0.775250	0.049350	0.382900
C2341	C234	0.003820	0.199120	0.218560
C2351	C235	0.963230	0.153630	0.251140
C2361	C236	0.761580	0.321200	0.182200
C2371	C237	0.709170	0.291180	0.216480
C2381	C238	0.674840	0.315520	0.204580
C2391	C239	0.693370	0.368170	0.158580
C2401	C240	0.746000	0.397410	0.126160
C2411	C241	0.780040	0.373170	0.138080
C2421	C242	0.618970	0.284540	0.239780
C2431	C243	0.185840	0.279390	0.157460
C2441	C244	0.164180	0.228320	0.208080
C2451	C245	0.115660	0.195730	0.232260
C2461	C246	0.089790	0.215320	0.204420
C2471	C247	0.110750	0.266940	0.154000
C2481	C248	0.158640	0.298590	0.131140
C2491	C249	0.190840	0.208760	0.239400
C2501	C250	0.179100	0.354410	0.080180
C2511	C251	0.764460	0.455450	0.077960
C2521	C252	0.568110	0.821580	0.647980
C2531	C253	0.626480	0.502050	0.645400
C2541	C254	0.685270	0.515960	0.614300
C2551	C255	0.716490	0.522550	0.559820
C2561	C256	0.769800	0.532920	0.533940
C2571	C257	0.792500	0.536460	0.561640
C2581	C258	0.760850	0.529450	0.615820
C2591	C259	0.707520	0.520160	0.641380
C2601	C260	0.851810	0.571710	0.330580
C2611	C261	0.815790	0.584390	0.315220
C2621	C262	0.823320	0.585420	0.266760
C2631	C263	0.867350	0.573550	0.233900
C2641	C264	0.902650	0.561150	0.249700
C2651	C265	0.893940	0.560440	0.299120
C2661	C266	0.949400	0.552500	0.215000
C2671	C267	0.982600	0.531200	0.227800
C2681	C268	0.796850	0.560650	0.429900
C2691	C269	0.841850	0.567750	0.382900
C2701	C270	0.777620	0.582320	0.218560
C2711	C271	0.785630	0.595230	0.251140
C2721	C272	0.056220	0.496600	0.182200
C2731	C273	0.074350	0.492340	0.216480
C2741	C274	0.120580	0.479900	0.204580
C2751	C275	0.148050	0.473250	0.158580
C2761	C276	0.127840	0.476430	0.126160
C2771	C277	0.081880	0.488750	0.138080
C2781	C278	0.141250	0.475680	0.239780
C2791	C279	0.656700	0.563150	0.157460
C2801	C280	0.627740	0.563600	0.208080
C2811	C281	0.652080	0.572010	0.232260
C2821	C282	0.705790	0.580260	0.204420
C2831	C283	0.735250	0.579060	0.154000
C2841	C284	0.710220	0.570270	0.131140
C2851	C285	0.569760	0.551840	0.239400
C2861	C286	0.740720	0.565410	0.080180
C2871	C287	0.157580	0.466590	0.077960
C2881	C288	0.783910	0.530440	0.647980
N11	N1	0.439100	0.126600	0.838000
N21	N2	0.454600	0.148700	0.857800
N31	N3	0.473700	0.200800	0.816400
N41	N4	0.432300	0.272600	0.606800
N51	N5	0.439160	0.304960	0.553680
N61	N6	0.443650	0.276050	0.531700
N71	N7	0.403000	0.956400	0.779400
N81	N8	0.382200	0.971300	0.747400
N91	N9	0.383330	0.019530	0.729340
N101	N10	0.722900	0.035400	0.838000
N111	N11	0.687600	0.993500	0.857800
N121	N12	0.709900	0.982800	0.816400
N131	N13	0.960900	0.120600	0.606800
N141	N14	0.007160	0.141360	0.553680
N151	N15	0.024650	0.192250	0.531700
N161	N16	0.817600	0.264200	0.779400
N171	N17	0.870400	0.281300	0.747400
N181	N18	0.887330	0.251130	0.729340
N191	N19	0.126600	0.722900	0.838000
N201	N20	0.148700	0.687600	0.857800
N211	N21	0.200800	0.709900	0.816400
N221	N22	0.272600	0.960900	0.606800
N231	N23	0.304960	0.007160	0.553680
N241	N24	0.276050	0.024650	0.531700
N251	N25	0.956400	0.817600	0.779400
N261	N26	0.971300	0.870400	0.747400
N271	N27	0.019530	0.887330	0.729340
N281	N28	0.035400	0.439100	0.838000
N291	N29	0.993500	0.454600	0.857800
N301	N30	0.982800	0.473700	0.816400
N311	N31	0.120600	0.432300	0.606800
N321	N32	0.141360	0.439160	0.553680
N331	N33	0.192250	0.443650	0.531700
N341	N34	0.264200	0.403000	0.779400
N351	N35	0.281300	0.382200	0.747400
N361	N36	0.251130	0.383330	0.729340
N371	N37	0.560900	0.873400	0.162000
N381	N38	0.545400	0.851300	0.142200
N391	N39	0.526300	0.799200	0.183600
N401	N40	0.567700	0.727400	0.393200
N411	N41	0.560840	0.695040	0.446320
N421	N42	0.556350	0.723950	0.468300
N431	N43	0.597000	0.043600	0.220600
N441	N44	0.617800	0.028700	0.252600
N451	N45	0.616670	0.980470	0.270660
N461	N46	0.277100	0.964600	0.162000
N471	N47	0.312400	0.006500	0.142200
N481	N48	0.290100	0.017200	0.183600
N491	N49	0.039100	0.879400	0.393200
N501	N50	0.992840	0.858640	0.446320
N511	N51	0.975350	0.807750	0.468300
N521	N52	0.182400	0.735800	0.220600
N531	N53	0.129600	0.718700	0.252600
N541	N54	0.112670	0.748870	0.270660
N551	N55	0.873400	0.277100	0.162000
N561	N56	0.851300	0.312400	0.142200
N571	N57	0.799200	0.290100	0.183600
N581	N58	0.727400	0.039100	0.393200
N591	N59	0.695040	0.992840	0.446320
N601	N60	0.723950	0.975350	0.468300
N611	N61	0.043600	0.182400	0.220600
N621	N62	0.028700	0.129600	0.252600
N631	N63	0.980470	0.112670	0.270660
N641	N64	0.964600	0.560900	0.162000
N651	N65	0.006500	0.545400	0.142200
N661	N66	0.017200	0.526300	0.183600
N671	N67	0.879400	0.567700	0.393200
N681	N68	0.858640	0.560840	0.446320
N691	N69	0.807750	0.556350	0.468300
N701	N70	0.735800	0.597000	0.220600
N711	N71	0.718700	0.617800	0.252600
N721	N72	0.748870	0.616670	0.270660
O11	O1	0.510680	0.232070	0.374980
O21	O2	0.495270	0.291650	0.310740
O31	O3	0.475150	0.449450	0.303960
O41	O4	0.463200	0.455800	0.376960
O51	O5	0.452600	0.833250	0.712380
O61	O6	0.454010	0.765030	0.784920
O71	O7	0.431620	0.849580	0.938440
O81	O8	0.442550	0.777340	0.939220
O91	O9	0.542130	0.192670	0.939520
O101	O10	0.531950	0.264910	0.938680
O111	O11	0.523880	0.397000	0.714940
O121	O12	0.527630	0.407940	0.778760
O131	O13	0.114340	0.392950	0.374980
O141	O14	0.193990	0.397610	0.310740
O151	O15	0.220890	0.246590	0.303960
O161	O16	0.159840	0.167240	0.376960
O171	O17	0.835020	0.454370	0.712380
O181	O18	0.761070	0.450050	0.784920
O191	O19	0.629940	0.211980	0.938440
O201	O20	0.618230	0.283440	0.939220
O211	O21	0.518350	0.867810	0.939520
O221	O22	0.529370	0.796410	0.938680
O231	O23	0.761180	0.888060	0.714940
O241	O24	0.693610	0.813300	0.778760
O251	O25	0.232070	0.114340	0.374980
O261	O26	0.291650	0.193990	0.310740
O271	O27	0.449450	0.220890	0.303960
O281	O28	0.455800	0.159840	0.376960
O291	O29	0.833250	0.835020	0.712380
O301	O30	0.765030	0.761070	0.784920
O311	O31	0.849580	0.629940	0.938440
O321	O32	0.777340	0.618230	0.939220
O331	O33	0.192670	0.518350	0.939520
O341	O34	0.264910	0.529370	0.938680
O351	O35	0.397000	0.761180	0.714940
O361	O36	0.407940	0.693610	0.778760
O371	O37	0.392950	0.510680	0.374980
O381	O38	0.397610	0.495270	0.310740
O391	O39	0.246590	0.475150	0.303960
O401	O40	0.167240	0.463200	0.376960
O411	O41	0.454370	0.452600	0.712380
O421	O42	0.450050	0.454010	0.784920
O431	O43	0.211980	0.431620	0.938440
O441	O44	0.283440	0.442550	0.939220
O451	O45	0.867810	0.542130	0.939520
O461	O46	0.796410	0.531950	0.938680
O471	O47	0.888060	0.523880	0.714940
O481	O48	0.813300	0.527630	0.778760
O491	O49	0.489320	0.767930	0.625020
O501	O50	0.504730	0.708350	0.689260
O511	O51	0.524850	0.550550	0.696040
O521	O52	0.536800	0.544200	0.623040
O531	O53	0.547400	0.166750	0.287620
O541	O54	0.545990	0.234970	0.215080
O551	O55	0.568380	0.150420	0.061560
O561	O56	0.557450	0.222660	0.060780
O571	O57	0.457870	0.807330	0.060480
O581	O58	0.468050	0.735090	0.061320
O591	O59	0.476120	0.603000	0.285060
O601	O60	0.472370	0.592060	0.221240
O611	O61	0.885660	0.607050	0.625020
O621	O62	0.806010	0.602390	0.689260
O631	O63	0.779110	0.753410	0.696040
O641	O64	0.840160	0.832760	0.623040
O651	O65	0.164980	0.545630	0.287620
O661	O66	0.238930	0.549950	0.215080
O671	O67	0.370060	0.788020	0.061560
O681	O68	0.381770	0.716560	0.060780
O691	O69	0.481650	0.132190	0.060480
O701	O70	0.470630	0.203590	0.061320
O711	O71	0.238820	0.111940	0.285060
O721	O72	0.306390	0.186700	0.221240
O731	O73	0.767930	0.885660	0.625020
O741	O74	0.708350	0.806010	0.689260
O751	O75	0.550550	0.779110	0.696040
O761	O76	0.544200	0.840160	0.623040
O771	O77	0.166750	0.164980	0.287620
O781	O78	0.234970	0.238930	0.215080
O791	O79	0.150420	0.370060	0.061560
O801	O80	0.222660	0.381770	0.060780
O811	O81	0.807330	0.481650	0.060480
O821	O82	0.735090	0.470630	0.061320
O831	O83	0.603000	0.238820	0.285060
O841	O84	0.592060	0.306390	0.221240
O851	O85	0.607050	0.489320	0.625020
O861	O86	0.602390	0.504730	0.689260
O871	O87	0.753410	0.524850	0.696040
O881	O88	0.832760	0.536800	0.623040
O891	O89	0.545630	0.547400	0.287620
O901	O90	0.549950	0.545990	0.215080
O911	O91	0.788020	0.568380	0.061560
O921	O92	0.716560	0.557450	0.060780
O931	O93	0.132190	0.457870	0.060480
O941	O94	0.203590	0.468050	0.061320
O951	O95	0.111940	0.476120	0.285060
O961	O96	0.186700	0.472370	0.221240
