data_PEXBIF_clean_PM
_symmetry_space_group_name_H-M	'P1'
_cell_length_a	12.262400
_cell_length_b	12.262400
_cell_length_c	16.375000
_cell_angle_alpha	77.626700
_cell_angle_beta	70.527100
_cell_angle_gamma	105.586000
_symmetry_Int_Tables_number 1

loop_
_symmetry_equiv_pos_as_xyz
'x,y,z'

loop_
_atom_site_label
_atom_site_type_symbol
_atom_site_fract_x
_atom_site_fract_y
_atom_site_fract_z
Cd11	Cd1	0.830950	0.456910	0.368560
Cd21	Cd2	0.325470	0.199510	0.131440
Cd31	Cd3	0.169050	0.543090	0.631440
Cd41	Cd4	0.674530	0.800490	0.868560
H11	H1	0.145300	0.688100	0.416400
H21	H2	0.297100	0.845800	0.426100
H31	H3	0.361800	0.040300	0.320500
H41	H4	0.552900	0.286600	0.509900
H51	H5	0.755500	0.585500	0.517200
H61	H6	0.558300	0.515700	0.641400
H71	H7	0.358700	0.235500	0.627200
H81	H8	0.333600	0.334200	0.669800
H91	H9	0.411600	0.271800	0.781000
H101	H10	0.301500	0.162600	0.790900
H111	H11	0.052700	0.944000	0.446300
H121	H12	0.123400	0.055600	0.464800
H131	H13	0.126900	0.121600	0.317500
H141	H14	0.982600	0.060400	0.355800
H151	H15	0.867200	0.196100	0.375900
H161	H16	0.111600	0.474600	0.374800
H171	H17	0.200300	0.320400	0.370500
H181	H18	0.604500	0.561700	0.083600
H191	H19	0.771900	0.723200	0.073900
H201	H20	0.860800	0.682300	0.179500
H211	H21	0.296500	0.062800	0.990100
H221	H22	0.602700	0.272700	0.982800
H231	H23	0.657100	0.199700	0.858600
H241	H24	0.362700	0.985900	0.872800
H251	H25	0.504000	0.003400	0.830200
H261	H26	0.552800	0.192600	0.719000
H271	H27	0.453500	0.092400	0.709100
H281	H28	0.890300	0.499000	0.053700
H291	H29	0.020400	0.588200	0.035200
H301	H30	0.939100	0.444400	0.182500
H311	H31	0.916200	0.338400	0.144200
H321	H32	0.072000	0.243100	0.124100
H331	H33	0.349400	0.486400	0.125200
H341	H34	0.190900	0.570800	0.129500
H351	H35	0.854700	0.311900	0.583600
H361	H36	0.702900	0.154200	0.573900
H371	H37	0.638200	0.959700	0.679500
H381	H38	0.447100	0.713400	0.490100
H391	H39	0.244500	0.414500	0.482800
H401	H40	0.441700	0.484300	0.358600
H411	H41	0.641300	0.764500	0.372800
H421	H42	0.666400	0.665800	0.330200
H431	H43	0.588400	0.728200	0.219000
H441	H44	0.698500	0.837400	0.209100
H451	H45	0.947300	0.056000	0.553700
H461	H46	0.876600	0.944400	0.535200
H471	H47	0.873100	0.878400	0.682500
H481	H48	0.017400	0.939600	0.644200
H491	H49	0.132800	0.803900	0.624100
H501	H50	0.888400	0.525400	0.625200
H511	H51	0.799700	0.679600	0.629500
H521	H52	0.395500	0.438300	0.916400
H531	H53	0.228100	0.276800	0.926100
H541	H54	0.139200	0.317700	0.820500
H551	H55	0.703500	0.937200	0.009900
H561	H56	0.397300	0.727300	0.017200
H571	H57	0.342900	0.800300	0.141400
H581	H58	0.637300	0.014100	0.127200
H591	H59	0.496000	0.996600	0.169800
H601	H60	0.447200	0.807400	0.281000
H611	H61	0.546500	0.907600	0.290900
H621	H62	0.109700	0.501000	0.946300
H631	H63	0.979600	0.411800	0.964800
H641	H64	0.060900	0.555600	0.817500
H651	H65	0.083800	0.661600	0.855800
H661	H66	0.928000	0.756900	0.875900
H671	H67	0.650600	0.513600	0.874800
H681	H68	0.809100	0.429200	0.870500
C11	C1	0.026800	0.689600	0.306800
C21	C2	0.122600	0.797200	0.310600
C31	C3	0.172800	0.766900	0.378100
C41	C4	0.263100	0.859400	0.383700
C51	C5	0.300200	0.978200	0.319000
C61	C6	0.159100	0.921800	0.247900
C71	C7	0.103800	0.966800	0.182400
C81	C8	0.577300	0.352200	0.528500
C91	C9	0.688800	0.515500	0.532300
C101	C10	0.583200	0.478700	0.598300
C111	C11	0.388900	0.290600	0.656300
C121	C12	0.387100	0.215000	0.751300
C131	C13	0.047600	0.016800	0.458800
C141	C14	0.049300	0.104500	0.369000
C151	C15	0.939200	0.247000	0.375200
C161	C16	0.072300	0.398300	0.374800
C171	C17	0.122400	0.314300	0.372100
C181	C18	0.496400	0.333600	0.193200
C191	C19	0.607800	0.433200	0.189400
C201	C20	0.645000	0.550900	0.121900
C211	C21	0.743100	0.646800	0.116300
C221	C22	0.797200	0.619200	0.181000
C231	C23	0.669700	0.407000	0.252100
C241	C24	0.649200	0.286200	0.317600
C251	C25	0.380700	0.105800	0.971500
C261	C26	0.547800	0.221100	0.967700
C271	C27	0.577000	0.181500	0.901700
C281	C28	0.446900	0.045200	0.843700
C291	C29	0.466300	0.138400	0.748700
C301	C30	0.975600	0.506400	0.041200
C311	C31	0.973500	0.418300	0.131000
C321	C32	0.122200	0.314400	0.124800
C331	C33	0.273100	0.447100	0.125200
C341	C34	0.186400	0.494500	0.127900
C351	C35	0.973200	0.310400	0.693200
C361	C36	0.877400	0.202800	0.689400
C371	C37	0.827200	0.233100	0.621900
C381	C38	0.736900	0.140600	0.616300
C391	C39	0.699800	0.021800	0.681000
C401	C40	0.840900	0.078200	0.752100
C411	C41	0.896200	0.033200	0.817600
C421	C42	0.422700	0.647800	0.471500
C431	C43	0.311200	0.484500	0.467700
C441	C44	0.416800	0.521300	0.401700
C451	C45	0.611100	0.709400	0.343700
C461	C46	0.612900	0.785000	0.248700
C471	C47	0.952400	0.983200	0.541200
C481	C48	0.950700	0.895500	0.631000
C491	C49	0.060800	0.753000	0.624800
C501	C50	0.927700	0.601700	0.625200
C511	C51	0.877600	0.685700	0.627900
C521	C52	0.503600	0.666400	0.806800
C531	C53	0.392200	0.566800	0.810600
C541	C54	0.355000	0.449100	0.878100
C551	C55	0.256900	0.353200	0.883700
C561	C56	0.202800	0.380800	0.819000
C571	C57	0.330300	0.593000	0.747900
C581	C58	0.350800	0.713800	0.682400
C591	C59	0.619300	0.894200	0.028500
C601	C60	0.452200	0.778900	0.032300
C611	C61	0.423000	0.818500	0.098300
C621	C62	0.553100	0.954800	0.156300
C631	C63	0.533700	0.861600	0.251300
C641	C64	0.024400	0.493600	0.958800
C651	C65	0.026500	0.581700	0.869000
C661	C66	0.877800	0.685600	0.875200
C671	C67	0.726900	0.552900	0.874800
C681	C68	0.813600	0.505500	0.872100
N11	N1	0.687700	0.439000	0.489500
N21	N2	0.511800	0.373700	0.594500
N31	N3	0.037100	0.219400	0.372100
N41	N4	0.958400	0.357700	0.377500
N51	N5	0.251100	0.008700	0.253200
N61	N6	0.428500	0.177200	0.010500
N71	N7	0.468200	0.106300	0.905500
N81	N8	0.091500	0.409200	0.127900
N91	N9	0.235200	0.335900	0.122500
N101	N10	0.761900	0.504300	0.246800
N111	N11	0.312300	0.561000	0.510500
N121	N12	0.488200	0.626300	0.405500
N131	N13	0.962900	0.780600	0.627900
N141	N14	0.041600	0.642300	0.622500
N151	N15	0.748900	0.991300	0.746800
N161	N16	0.571500	0.822800	0.989500
N171	N17	0.531800	0.893700	0.094500
N181	N18	0.908500	0.590800	0.872100
N191	N19	0.764800	0.664100	0.877500
N201	N20	0.238100	0.495700	0.753200
O11	O1	0.932900	0.637700	0.369400
O21	O2	0.053100	0.660300	0.241600
O31	O3	0.153500	0.073300	0.118400
O41	O4	0.003000	0.895300	0.190100
O51	O5	0.507100	0.302300	0.130600
O61	O6	0.401900	0.294700	0.258400
O71	O7	0.691700	0.271900	0.381600
O81	O8	0.585400	0.193100	0.309900
O91	O9	0.067100	0.362300	0.630600
O101	O10	0.946900	0.339700	0.758400
O111	O11	0.846500	0.926700	0.881600
O121	O12	0.997000	0.104700	0.809900
O131	O13	0.492900	0.697700	0.869400
O141	O14	0.598100	0.705300	0.741600
O151	O15	0.308300	0.728100	0.618400
O161	O16	0.414600	0.806900	0.690100
