data_PEYVEV_clean_PM
_symmetry_space_group_name_H-M	'P1'
_cell_length_a	15.321300
_cell_length_b	15.321300
_cell_length_c	32.571000
_cell_angle_alpha	90.000000
_cell_angle_beta	90.000000
_cell_angle_gamma	120.000000
_symmetry_Int_Tables_number 1

loop_
_symmetry_equiv_pos_as_xyz
'x,y,z'

loop_
_atom_site_label
_atom_site_type_symbol
_atom_site_fract_x
_atom_site_fract_y
_atom_site_fract_z
In11	In1	0.420350	0.840700	0.407890
In21	In2	0.420350	0.579650	0.407890
In31	In3	0.159300	0.579650	0.407890
In41	In4	0.579650	0.159300	0.907890
In51	In5	0.579650	0.420350	0.907890
In61	In6	0.840700	0.420350	0.907890
In71	In7	0.579650	0.159300	0.592110
In81	In8	0.840700	0.420350	0.592110
In91	In9	0.579650	0.420350	0.592110
In101	In10	0.420350	0.840700	0.092110
In111	In11	0.159300	0.579650	0.092110
In121	In12	0.420350	0.579650	0.092110
In131	In13	0.500000	0.000000	0.500000
In141	In14	0.500000	0.500000	0.500000
In151	In15	0.000000	0.500000	0.500000
In161	In16	0.500000	0.000000	0.000000
In171	In17	0.500000	0.500000	0.000000
In181	In18	0.000000	0.500000	0.000000
In191	In19	0.077260	0.154520	0.250000
In201	In20	0.077260	0.922740	0.250000
In211	In21	0.845480	0.922740	0.250000
In221	In22	0.922740	0.845480	0.750000
In231	In23	0.922740	0.077260	0.750000
In241	In24	0.154520	0.077260	0.750000
H11	H1	0.282800	0.010200	0.355200
H21	H2	0.727400	0.717200	0.355200
H31	H3	0.989800	0.272600	0.355200
H41	H4	0.717200	0.989800	0.855200
H51	H5	0.272600	0.282800	0.855200
H61	H6	0.010200	0.727400	0.855200
H71	H7	0.272600	0.989800	0.644800
H81	H8	0.010200	0.282800	0.644800
H91	H9	0.717200	0.727400	0.644800
H101	H10	0.727400	0.010200	0.144800
H111	H11	0.989800	0.717200	0.144800
H121	H12	0.282800	0.272600	0.144800
H131	H13	0.717200	0.989800	0.644800
H141	H14	0.272600	0.282800	0.644800
H151	H15	0.010200	0.727400	0.644800
H161	H16	0.282800	0.010200	0.144800
H171	H17	0.727400	0.717200	0.144800
H181	H18	0.989800	0.272600	0.144800
H191	H19	0.727400	0.010200	0.355200
H201	H20	0.989800	0.717200	0.355200
H211	H21	0.282800	0.272600	0.355200
H221	H22	0.272600	0.989800	0.855200
H231	H23	0.010200	0.282800	0.855200
H241	H24	0.717200	0.727400	0.855200
H251	H25	0.424600	0.212300	0.445600
H261	H26	0.787700	0.575400	0.445600
H271	H27	0.787700	0.212300	0.445600
H281	H28	0.575400	0.787700	0.945600
H291	H29	0.212300	0.424600	0.945600
H301	H30	0.212300	0.787700	0.945600
H311	H31	0.212300	0.787700	0.554400
H321	H32	0.212300	0.424600	0.554400
H331	H33	0.575400	0.787700	0.554400
H341	H34	0.787700	0.212300	0.054400
H351	H35	0.787700	0.575400	0.054400
H361	H36	0.424600	0.212300	0.054400
C11	C1	0.391100	0.031800	0.422700
C21	C2	0.358800	0.099400	0.403100
C31	C3	0.302000	0.072100	0.367300
C41	C4	0.640700	0.608900	0.422700
C51	C5	0.740600	0.641200	0.403100
C61	C6	0.770100	0.698000	0.367300
C71	C7	0.968200	0.359300	0.422700
C81	C8	0.900600	0.259400	0.403100
C91	C9	0.927900	0.229900	0.367300
C101	C10	0.608900	0.968200	0.922700
C111	C11	0.641200	0.900600	0.903100
C121	C12	0.698000	0.927900	0.867300
C131	C13	0.359300	0.391100	0.922700
C141	C14	0.259400	0.358800	0.903100
C151	C15	0.229900	0.302000	0.867300
C161	C16	0.031800	0.640700	0.922700
C171	C17	0.099400	0.740600	0.903100
C181	C18	0.072100	0.770100	0.867300
C191	C19	0.359300	0.968200	0.577300
C201	C20	0.259400	0.900600	0.596900
C211	C21	0.229900	0.927900	0.632700
C221	C22	0.031800	0.391100	0.577300
C231	C23	0.099400	0.358800	0.596900
C241	C24	0.072100	0.302000	0.632700
C251	C25	0.608900	0.640700	0.577300
C261	C26	0.641200	0.740600	0.596900
C271	C27	0.698000	0.770100	0.632700
C281	C28	0.640700	0.031800	0.077300
C291	C29	0.740600	0.099400	0.096900
C301	C30	0.770100	0.072100	0.132700
C311	C31	0.968200	0.608900	0.077300
C321	C32	0.900600	0.641200	0.096900
C331	C33	0.927900	0.698000	0.132700
C341	C34	0.391100	0.359300	0.077300
C351	C35	0.358800	0.259400	0.096900
C361	C36	0.302000	0.229900	0.132700
C371	C37	0.608900	0.968200	0.577300
C381	C38	0.641200	0.900600	0.596900
C391	C39	0.698000	0.927900	0.632700
C401	C40	0.359300	0.391100	0.577300
C411	C41	0.259400	0.358800	0.596900
C421	C42	0.229900	0.302000	0.632700
C431	C43	0.031800	0.640700	0.577300
C441	C44	0.099400	0.740600	0.596900
C451	C45	0.072100	0.770100	0.632700
C461	C46	0.391100	0.031800	0.077300
C471	C47	0.358800	0.099400	0.096900
C481	C48	0.302000	0.072100	0.132700
C491	C49	0.640700	0.608900	0.077300
C501	C50	0.740600	0.641200	0.096900
C511	C51	0.770100	0.698000	0.132700
C521	C52	0.968200	0.359300	0.077300
C531	C53	0.900600	0.259400	0.096900
C541	C54	0.927900	0.229900	0.132700
C551	C55	0.640700	0.031800	0.422700
C561	C56	0.740600	0.099400	0.403100
C571	C57	0.770100	0.072100	0.367300
C581	C58	0.968200	0.608900	0.422700
C591	C59	0.900600	0.641200	0.403100
C601	C60	0.927900	0.698000	0.367300
C611	C61	0.391100	0.359300	0.422700
C621	C62	0.358800	0.259400	0.403100
C631	C63	0.302000	0.229900	0.367300
C641	C64	0.359300	0.968200	0.922700
C651	C65	0.259400	0.900600	0.903100
C661	C66	0.229900	0.927900	0.867300
C671	C67	0.031800	0.391100	0.922700
C681	C68	0.099400	0.358800	0.903100
C691	C69	0.072100	0.302000	0.867300
C701	C70	0.608900	0.640700	0.922700
C711	C71	0.641200	0.740600	0.903100
C721	C72	0.698000	0.770100	0.867300
C731	C73	0.206400	0.103200	0.311200
C741	C74	0.273600	0.136800	0.349400
C751	C75	0.387200	0.193600	0.421500
C761	C76	0.896800	0.793600	0.311200
C771	C77	0.863200	0.726400	0.349400
C781	C78	0.806400	0.612800	0.421500
C791	C79	0.896800	0.103200	0.311200
C801	C80	0.863200	0.136800	0.349400
C811	C81	0.806400	0.193600	0.421500
C821	C82	0.793600	0.896800	0.811200
C831	C83	0.726400	0.863200	0.849400
C841	C84	0.612800	0.806400	0.921500
C851	C85	0.103200	0.206400	0.811200
C861	C86	0.136800	0.273600	0.849400
C871	C87	0.193600	0.387200	0.921500
C881	C88	0.103200	0.896800	0.811200
C891	C89	0.136800	0.863200	0.849400
C901	C90	0.193600	0.806400	0.921500
C911	C91	0.103200	0.896800	0.688800
C921	C92	0.136800	0.863200	0.650600
C931	C93	0.193600	0.806400	0.578500
C941	C94	0.103200	0.206400	0.688800
C951	C95	0.136800	0.273600	0.650600
C961	C96	0.193600	0.387200	0.578500
C971	C97	0.793600	0.896800	0.688800
C981	C98	0.726400	0.863200	0.650600
C991	C99	0.612800	0.806400	0.578500
C1001	C100	0.896800	0.103200	0.188800
C1011	C101	0.863200	0.136800	0.150600
C1021	C102	0.806400	0.193600	0.078500
C1031	C103	0.896800	0.793600	0.188800
C1041	C104	0.863200	0.726400	0.150600
C1051	C105	0.806400	0.612800	0.078500
C1061	C106	0.206400	0.103200	0.188800
C1071	C107	0.273600	0.136800	0.150600
C1081	C108	0.387200	0.193600	0.078500
O11	O1	0.183100	0.165000	0.297150
O21	O2	0.379900	0.958300	0.401490
O31	O3	0.427700	0.054100	0.458220
O41	O4	0.981900	0.816900	0.297150
O51	O5	0.578400	0.620100	0.401490
O61	O6	0.626400	0.572300	0.458220
O71	O7	0.835000	0.018100	0.297150
O81	O8	0.041700	0.421600	0.401490
O91	O9	0.945900	0.373600	0.458220
O101	O10	0.816900	0.835000	0.797150
O111	O11	0.620100	0.041700	0.901490
O121	O12	0.572300	0.945900	0.958220
O131	O13	0.018100	0.183100	0.797150
O141	O14	0.421600	0.379900	0.901490
O151	O15	0.373600	0.427700	0.958220
O161	O16	0.165000	0.981900	0.797150
O171	O17	0.958300	0.578400	0.901490
O181	O18	0.054100	0.626400	0.958220
O191	O19	0.018100	0.835000	0.702850
O201	O20	0.421600	0.041700	0.598510
O211	O21	0.373600	0.945900	0.541780
O221	O22	0.165000	0.183100	0.702850
O231	O23	0.958300	0.379900	0.598510
O241	O24	0.054100	0.427700	0.541780
O251	O25	0.816900	0.981900	0.702850
O261	O26	0.620100	0.578400	0.598510
O271	O27	0.572300	0.626400	0.541780
O281	O28	0.981900	0.165000	0.202850
O291	O29	0.578400	0.958300	0.098510
O301	O30	0.626400	0.054100	0.041780
O311	O31	0.835000	0.816900	0.202850
O321	O32	0.041700	0.620100	0.098510
O331	O33	0.945900	0.572300	0.041780
O341	O34	0.183100	0.018100	0.202850
O351	O35	0.379900	0.421600	0.098510
O361	O36	0.427700	0.373600	0.041780
O371	O37	0.816900	0.835000	0.702850
O381	O38	0.620100	0.041700	0.598510
O391	O39	0.572300	0.945900	0.541780
O401	O40	0.018100	0.183100	0.702850
O411	O41	0.421600	0.379900	0.598510
O421	O42	0.373600	0.427700	0.541780
O431	O43	0.165000	0.981900	0.702850
O441	O44	0.958300	0.578400	0.598510
O451	O45	0.054100	0.626400	0.541780
O461	O46	0.183100	0.165000	0.202850
O471	O47	0.379900	0.958300	0.098510
O481	O48	0.427700	0.054100	0.041780
O491	O49	0.981900	0.816900	0.202850
O501	O50	0.578400	0.620100	0.098510
O511	O51	0.626400	0.572300	0.041780
O521	O52	0.835000	0.018100	0.202850
O531	O53	0.041700	0.421600	0.098510
O541	O54	0.945900	0.373600	0.041780
O551	O55	0.981900	0.165000	0.297150
O561	O56	0.578400	0.958300	0.401490
O571	O57	0.626400	0.054100	0.458220
O581	O58	0.835000	0.816900	0.297150
O591	O59	0.041700	0.620100	0.401490
O601	O60	0.945900	0.572300	0.458220
O611	O61	0.183100	0.018100	0.297150
O621	O62	0.379900	0.421600	0.401490
O631	O63	0.427700	0.373600	0.458220
O641	O64	0.018100	0.835000	0.797150
O651	O65	0.421600	0.041700	0.901490
O661	O66	0.373600	0.945900	0.958220
O671	O67	0.165000	0.183100	0.797150
O681	O68	0.958300	0.379900	0.901490
O691	O69	0.054100	0.427700	0.958220
O701	O70	0.816900	0.981900	0.797150
O711	O71	0.620100	0.578400	0.901490
O721	O72	0.572300	0.626400	0.958220
O731	O73	0.428700	0.857400	0.472700
O741	O74	0.428700	0.571300	0.472700
O751	O75	0.142600	0.571300	0.472700
O761	O76	0.571300	0.142600	0.972700
O771	O77	0.571300	0.428700	0.972700
O781	O78	0.857400	0.428700	0.972700
O791	O79	0.571300	0.142600	0.527300
O801	O80	0.857400	0.428700	0.527300
O811	O81	0.571300	0.428700	0.527300
O821	O82	0.428700	0.857400	0.027300
O831	O83	0.142600	0.571300	0.027300
O841	O84	0.428700	0.571300	0.027300
O851	O85	0.000000	0.000000	0.250000
O861	O86	0.000000	0.000000	0.750000
O871	O87	0.471100	0.735550	0.406200
O881	O88	0.264450	0.528900	0.406200
O891	O89	0.264450	0.735550	0.406200
O901	O90	0.528900	0.264450	0.906200
O911	O91	0.735550	0.471100	0.906200
O921	O92	0.735550	0.264450	0.906200
O931	O93	0.735550	0.264450	0.593800
O941	O94	0.735550	0.471100	0.593800
O951	O95	0.528900	0.264450	0.593800
O961	O96	0.264450	0.735550	0.093800
O971	O97	0.264450	0.528900	0.093800
O981	O98	0.471100	0.735550	0.093800
