data_PEZCII_clean_PM
_symmetry_space_group_name_H-M	'P1'
_cell_length_a	28.764000
_cell_length_b	28.764000
_cell_length_c	12.563000
_cell_angle_alpha	90.000000
_cell_angle_beta	90.000000
_cell_angle_gamma	120.000000
_symmetry_Int_Tables_number 1

loop_
_symmetry_equiv_pos_as_xyz
'x,y,z'

loop_
_atom_site_label
_atom_site_type_symbol
_atom_site_fract_x
_atom_site_fract_y
_atom_site_fract_z
C11	C1	0.421500	0.022100	0.880200
C21	C2	0.472700	0.021700	0.865800
C31	C3	0.518300	0.060000	0.918100
H11	H1	0.517400	0.086900	0.959100
C41	C4	0.565200	0.057700	0.908700
H21	H2	0.596600	0.084200	0.941900
C51	C5	0.566800	0.017100	0.850900
C61	C6	0.521700	0.979300	0.797900
H31	H3	0.523000	0.953300	0.754900
C71	C7	0.473500	0.980500	0.809200
H41	H4	0.441800	0.953200	0.778400
C81	C8	0.618300	0.015800	0.840600
C91	C9	0.618600	0.968300	0.841400
H51	H5	0.585800	0.935800	0.847500
C101	C10	0.702700	0.908600	0.769900
H61	H6	0.727700	0.937300	0.727700
C111	C11	0.702200	0.860700	0.768000
H71	H7	0.725600	0.855900	0.723200
O11	O1	0.420930	0.055210	0.946300
O21	O2	0.378710	0.986780	0.833000
O31	O3	0.683000	0.753960	0.750200
C121	C12	0.088170	0.355430	0.213530
C131	C13	0.139370	0.355030	0.199130
C141	C14	0.184970	0.393330	0.251430
H81	H8	0.184070	0.420230	0.292430
C151	C15	0.231870	0.391030	0.242030
H91	H9	0.263270	0.417530	0.275230
C161	C16	0.233470	0.350430	0.184230
C171	C17	0.188370	0.312630	0.131230
H101	H10	0.189670	0.286630	0.088230
C181	C18	0.140170	0.313830	0.142530
H111	H11	0.108470	0.286530	0.111730
C191	C19	0.284970	0.349130	0.173930
C201	C20	0.285270	0.301630	0.174730
H121	H12	0.252470	0.269130	0.180830
C211	C21	0.369370	0.241930	0.103230
H131	H13	0.394370	0.270630	0.061030
C221	C22	0.368870	0.194030	0.101330
H141	H14	0.392270	0.189230	0.056530
O41	O4	0.087600	0.388540	0.279630
O51	O5	0.045380	0.320110	0.166330
O61	O6	0.349670	0.087290	0.083530
C231	C23	0.754830	0.688770	0.546870
C241	C24	0.806030	0.688370	0.532470
C251	C25	0.851630	0.726670	0.584770
H151	H15	0.850730	0.753570	0.625770
C261	C26	0.898530	0.724370	0.575370
H161	H16	0.929930	0.750870	0.608570
C271	C27	0.900130	0.683770	0.517570
C281	C28	0.855030	0.645970	0.464570
H171	H17	0.856330	0.619970	0.421570
C291	C29	0.806830	0.647170	0.475870
H181	H18	0.775130	0.619870	0.445070
C301	C30	0.951630	0.682470	0.507270
C311	C31	0.951930	0.634970	0.508070
H191	H19	0.919130	0.602470	0.514170
C321	C32	0.036030	0.575270	0.436570
H201	H20	0.061030	0.603970	0.394370
C331	C33	0.035530	0.527370	0.434670
H211	H21	0.058930	0.522570	0.389870
O71	O7	0.754260	0.721880	0.612970
O81	O8	0.712040	0.653450	0.499670
O91	O9	0.016330	0.420630	0.416870
C341	C34	0.977900	0.399400	0.880200
C351	C35	0.978300	0.451000	0.865800
C361	C36	0.940000	0.458300	0.918100
H221	H22	0.913100	0.430500	0.959100
C371	C37	0.942300	0.507500	0.908700
H231	H23	0.915800	0.512400	0.941900
C381	C38	0.982900	0.549700	0.850900
C391	C39	0.020700	0.542400	0.797900
H241	H24	0.046700	0.569700	0.754900
C401	C40	0.019500	0.493000	0.809200
H251	H25	0.046800	0.488600	0.778400
C411	C41	0.984200	0.602500	0.840600
C421	C42	0.031700	0.650300	0.841400
H261	H26	0.064200	0.650000	0.847500
C431	C43	0.091400	0.794100	0.769900
H271	H27	0.062700	0.790400	0.727700
C441	C44	0.139300	0.841500	0.768000
H281	H28	0.144100	0.869700	0.723200
O101	O10	0.944790	0.365720	0.946300
O111	O11	0.013220	0.391930	0.833000
O121	O12	0.246040	0.929040	0.750200
C451	C45	0.644570	0.732730	0.213530
C461	C46	0.644970	0.784330	0.199130
C471	C47	0.606670	0.791630	0.251430
H291	H29	0.579770	0.763830	0.292430
C481	C48	0.608970	0.840830	0.242030
H301	H30	0.582470	0.845730	0.275230
C491	C49	0.649570	0.883030	0.184230
C501	C50	0.687370	0.875730	0.131230
H311	H31	0.713370	0.903030	0.088230
C511	C51	0.686170	0.826330	0.142530
H321	H32	0.713470	0.821930	0.111730
C521	C52	0.650870	0.935830	0.173930
C531	C53	0.698370	0.983630	0.174730
H331	H33	0.730870	0.983330	0.180830
C541	C54	0.758070	0.127430	0.103230
H341	H34	0.729370	0.123730	0.061030
C551	C55	0.805970	0.174830	0.101330
H351	H35	0.810770	0.203030	0.056530
O131	O13	0.611460	0.699050	0.279630
O141	O14	0.679890	0.725260	0.166330
O151	O15	0.912710	0.262370	0.083530
C561	C56	0.311230	0.066070	0.546870
C571	C57	0.311630	0.117670	0.532470
C581	C58	0.273330	0.124970	0.584770
H361	H36	0.246430	0.097170	0.625770
C591	C59	0.275630	0.174170	0.575370
H371	H37	0.249130	0.179070	0.608570
C601	C60	0.316230	0.216370	0.517570
C611	C61	0.354030	0.209070	0.464570
H381	H38	0.380030	0.236370	0.421570
C621	C62	0.352830	0.159670	0.475870
H391	H39	0.380130	0.155270	0.445070
C631	C63	0.317530	0.269170	0.507270
C641	C64	0.365030	0.316970	0.508070
H401	H40	0.397530	0.316670	0.514170
C651	C65	0.424730	0.460770	0.436570
H411	H41	0.396030	0.457070	0.394370
C661	C66	0.472630	0.508170	0.434670
H421	H42	0.477430	0.536370	0.389870
O161	O16	0.278120	0.032390	0.612970
O171	O17	0.346550	0.058600	0.499670
O181	O18	0.579370	0.595710	0.416870
C671	C67	0.600600	0.578500	0.880200
C681	C68	0.549000	0.527300	0.865800
C691	C69	0.541700	0.481700	0.918100
H431	H43	0.569500	0.482600	0.959100
C701	C70	0.492500	0.434800	0.908700
H441	H44	0.487600	0.403400	0.941900
C711	C71	0.450300	0.433200	0.850900
C721	C72	0.457600	0.478300	0.797900
H451	H45	0.430300	0.477000	0.754900
C731	C73	0.507000	0.526500	0.809200
H461	H46	0.511400	0.558200	0.778400
C741	C74	0.397500	0.381700	0.840600
C751	C75	0.349700	0.381400	0.841400
H471	H47	0.350000	0.414200	0.847500
C761	C76	0.205900	0.297300	0.769900
H481	H48	0.209600	0.272300	0.727700
C771	C77	0.158500	0.297800	0.768000
H491	H49	0.130300	0.274400	0.723200
O191	O19	0.634280	0.579070	0.946300
O201	O20	0.608070	0.621290	0.833000
O211	O21	0.070960	0.317000	0.750200
C781	C78	0.267270	0.911830	0.213530
C791	C79	0.215670	0.860630	0.199130
C801	C80	0.208370	0.815030	0.251430
H501	H50	0.236170	0.815930	0.292430
C811	C81	0.159170	0.768130	0.242030
H511	H51	0.154270	0.736730	0.275230
C821	C82	0.116970	0.766530	0.184230
C831	C83	0.124270	0.811630	0.131230
H521	H52	0.096970	0.810330	0.088230
C841	C84	0.173670	0.859830	0.142530
H531	H53	0.178070	0.891530	0.111730
C851	C85	0.064170	0.715030	0.173930
C861	C86	0.016370	0.714730	0.174730
H541	H54	0.016670	0.747530	0.180830
C871	C87	0.872570	0.630630	0.103230
H551	H55	0.876270	0.605630	0.061030
C881	C88	0.825170	0.631130	0.101330
H561	H56	0.796970	0.607730	0.056530
O221	O22	0.300950	0.912400	0.279630
O231	O23	0.274740	0.954620	0.166330
O241	O24	0.737630	0.650330	0.083530
C891	C89	0.933930	0.245170	0.546870
C901	C90	0.882330	0.193970	0.532470
C911	C91	0.875030	0.148370	0.584770
H571	H57	0.902830	0.149270	0.625770
C921	C92	0.825830	0.101470	0.575370
H581	H58	0.820930	0.070070	0.608570
C931	C93	0.783630	0.099870	0.517570
C941	C94	0.790930	0.144970	0.464570
H591	H59	0.763630	0.143670	0.421570
C951	C95	0.840330	0.193170	0.475870
H601	H60	0.844730	0.224870	0.445070
C961	C96	0.730830	0.048370	0.507270
C971	C97	0.683030	0.048070	0.508070
H611	H61	0.683330	0.080870	0.514170
C981	C98	0.539230	0.963970	0.436570
H621	H62	0.542930	0.938970	0.394370
C991	C99	0.491830	0.964470	0.434670
H631	H63	0.463630	0.941070	0.389870
O251	O25	0.967610	0.245740	0.612970
O261	O26	0.941400	0.287960	0.499670
O271	O27	0.404290	0.983670	0.416870
C1001	C100	0.022100	0.421500	0.119800
C1011	C101	0.021700	0.472700	0.134200
C1021	C102	0.060000	0.518300	0.081900
H641	H64	0.086900	0.517400	0.040900
C1031	C103	0.057700	0.565200	0.091300
H651	H65	0.084200	0.596600	0.058100
C1041	C104	0.017100	0.566800	0.149100
C1051	C105	0.979300	0.521700	0.202100
H661	H66	0.953300	0.523000	0.245100
C1061	C106	0.980500	0.473500	0.190800
H671	H67	0.953200	0.441800	0.221600
C1071	C107	0.015800	0.618300	0.159400
C1081	C108	0.968300	0.618600	0.158600
H681	H68	0.935800	0.585800	0.152500
C1091	C109	0.908600	0.702700	0.230100
H691	H69	0.937300	0.727700	0.272300
C1101	C110	0.860700	0.702200	0.232000
H701	H70	0.855900	0.725600	0.276800
O281	O28	0.055210	0.420930	0.053700
O291	O29	0.986780	0.378710	0.167000
O301	O30	0.753960	0.683000	0.249800
C1111	C111	0.688770	0.754830	0.453130
C1121	C112	0.688370	0.806030	0.467530
C1131	C113	0.726670	0.851630	0.415230
H711	H71	0.753570	0.850730	0.374230
C1141	C114	0.724370	0.898530	0.424630
H721	H72	0.750870	0.929930	0.391430
C1151	C115	0.683770	0.900130	0.482430
C1161	C116	0.645970	0.855030	0.535430
H731	H73	0.619970	0.856330	0.578430
C1171	C117	0.647170	0.806830	0.524130
H741	H74	0.619870	0.775130	0.554930
C1181	C118	0.682470	0.951630	0.492730
C1191	C119	0.634970	0.951930	0.491930
H751	H75	0.602470	0.919130	0.485830
C1201	C120	0.575270	0.036030	0.563430
H761	H76	0.603970	0.061030	0.605630
C1211	C121	0.527370	0.035530	0.565330
H771	H77	0.522570	0.058930	0.610130
O311	O31	0.721880	0.754260	0.387030
O321	O32	0.653450	0.712040	0.500330
O331	O33	0.420630	0.016330	0.583130
C1221	C122	0.355430	0.088170	0.786470
C1231	C123	0.355030	0.139370	0.800870
C1241	C124	0.393330	0.184970	0.748570
H781	H78	0.420230	0.184070	0.707570
C1251	C125	0.391030	0.231870	0.757970
H791	H79	0.417530	0.263270	0.724770
C1261	C126	0.350430	0.233470	0.815770
C1271	C127	0.312630	0.188370	0.868770
H801	H80	0.286630	0.189670	0.911770
C1281	C128	0.313830	0.140170	0.857470
H811	H81	0.286530	0.108470	0.888270
C1291	C129	0.349130	0.284970	0.826070
C1301	C130	0.301630	0.285270	0.825270
H821	H82	0.269130	0.252470	0.819170
C1311	C131	0.241930	0.369370	0.896770
H831	H83	0.270630	0.394370	0.938970
C1321	C132	0.194030	0.368870	0.898670
H841	H84	0.189230	0.392270	0.943470
O341	O34	0.388540	0.087600	0.720370
O351	O35	0.320110	0.045380	0.833670
O361	O36	0.087290	0.349670	0.916470
C1331	C133	0.399400	0.977900	0.119800
C1341	C134	0.451000	0.978300	0.134200
C1351	C135	0.458300	0.940000	0.081900
H851	H85	0.430500	0.913100	0.040900
C1361	C136	0.507500	0.942300	0.091300
H861	H86	0.512400	0.915800	0.058100
C1371	C137	0.549700	0.982900	0.149100
C1381	C138	0.542400	0.020700	0.202100
H871	H87	0.569700	0.046700	0.245100
C1391	C139	0.493000	0.019500	0.190800
H881	H88	0.488600	0.046800	0.221600
C1401	C140	0.602500	0.984200	0.159400
C1411	C141	0.650300	0.031700	0.158600
H891	H89	0.650000	0.064200	0.152500
C1421	C142	0.794100	0.091400	0.230100
H901	H90	0.790400	0.062700	0.272300
C1431	C143	0.841500	0.139300	0.232000
H911	H91	0.869700	0.144100	0.276800
O371	O37	0.365720	0.944790	0.053700
O381	O38	0.391930	0.013220	0.167000
O391	O39	0.929040	0.246040	0.249800
C1441	C144	0.066070	0.311230	0.453130
C1451	C145	0.117670	0.311630	0.467530
C1461	C146	0.124970	0.273330	0.415230
H921	H92	0.097170	0.246430	0.374230
C1471	C147	0.174170	0.275630	0.424630
H931	H93	0.179070	0.249130	0.391430
C1481	C148	0.216370	0.316230	0.482430
C1491	C149	0.209070	0.354030	0.535430
H941	H94	0.236370	0.380030	0.578430
C1501	C150	0.159670	0.352830	0.524130
H951	H95	0.155270	0.380130	0.554930
C1511	C151	0.269170	0.317530	0.492730
C1521	C152	0.316970	0.365030	0.491930
H961	H96	0.316670	0.397530	0.485830
C1531	C153	0.460770	0.424730	0.563430
H971	H97	0.457070	0.396030	0.605630
C1541	C154	0.508170	0.472630	0.565330
H981	H98	0.536370	0.477430	0.610130
O401	O40	0.032390	0.278120	0.387030
O411	O41	0.058600	0.346550	0.500330
O421	O42	0.595710	0.579370	0.583130
C1551	C155	0.732730	0.644570	0.786470
C1561	C156	0.784330	0.644970	0.800870
C1571	C157	0.791630	0.606670	0.748570
H991	H99	0.763830	0.579770	0.707570
C1581	C158	0.840830	0.608970	0.757970
H1001	H100	0.845730	0.582470	0.724770
C1591	C159	0.883030	0.649570	0.815770
C1601	C160	0.875730	0.687370	0.868770
H1011	H101	0.903030	0.713370	0.911770
C1611	C161	0.826330	0.686170	0.857470
H1021	H102	0.821930	0.713470	0.888270
C1621	C162	0.935830	0.650870	0.826070
C1631	C163	0.983630	0.698370	0.825270
H1031	H103	0.983330	0.730870	0.819170
C1641	C164	0.127430	0.758070	0.896770
H1041	H104	0.123730	0.729370	0.938970
C1651	C165	0.174830	0.805970	0.898670
H1051	H105	0.203030	0.810770	0.943470
O431	O43	0.699050	0.611460	0.720370
O441	O44	0.725260	0.679890	0.833670
O451	O45	0.262370	0.912710	0.916470
C1661	C166	0.578500	0.600600	0.119800
C1671	C167	0.527300	0.549000	0.134200
C1681	C168	0.481700	0.541700	0.081900
H1061	H106	0.482600	0.569500	0.040900
C1691	C169	0.434800	0.492500	0.091300
H1071	H107	0.403400	0.487600	0.058100
C1701	C170	0.433200	0.450300	0.149100
C1711	C171	0.478300	0.457600	0.202100
H1081	H108	0.477000	0.430300	0.245100
C1721	C172	0.526500	0.507000	0.190800
H1091	H109	0.558200	0.511400	0.221600
C1731	C173	0.381700	0.397500	0.159400
C1741	C174	0.381400	0.349700	0.158600
H1101	H110	0.414200	0.350000	0.152500
C1751	C175	0.297300	0.205900	0.230100
H1111	H111	0.272300	0.209600	0.272300
C1761	C176	0.297800	0.158500	0.232000
H1121	H112	0.274400	0.130300	0.276800
O461	O46	0.579070	0.634280	0.053700
O471	O47	0.621290	0.608070	0.167000
O481	O48	0.317000	0.070960	0.249800
C1771	C177	0.245170	0.933930	0.453130
C1781	C178	0.193970	0.882330	0.467530
C1791	C179	0.148370	0.875030	0.415230
H1131	H113	0.149270	0.902830	0.374230
C1801	C180	0.101470	0.825830	0.424630
H1141	H114	0.070070	0.820930	0.391430
C1811	C181	0.099870	0.783630	0.482430
C1821	C182	0.144970	0.790930	0.535430
H1151	H115	0.143670	0.763630	0.578430
C1831	C183	0.193170	0.840330	0.524130
H1161	H116	0.224870	0.844730	0.554930
C1841	C184	0.048370	0.730830	0.492730
C1851	C185	0.048070	0.683030	0.491930
H1171	H117	0.080870	0.683330	0.485830
C1861	C186	0.963970	0.539230	0.563430
H1181	H118	0.938970	0.542930	0.605630
C1871	C187	0.964470	0.491830	0.565330
H1191	H119	0.941070	0.463630	0.610130
O491	O49	0.245740	0.967610	0.387030
O501	O50	0.287960	0.941400	0.500330
O511	O51	0.983670	0.404290	0.583130
C1881	C188	0.911830	0.267270	0.786470
C1891	C189	0.860630	0.215670	0.800870
C1901	C190	0.815030	0.208370	0.748570
H1201	H120	0.815930	0.236170	0.707570
C1911	C191	0.768130	0.159170	0.757970
H1211	H121	0.736730	0.154270	0.724770
C1921	C192	0.766530	0.116970	0.815770
C1931	C193	0.811630	0.124270	0.868770
H1221	H122	0.810330	0.096970	0.911770
C1941	C194	0.859830	0.173670	0.857470
H1231	H123	0.891530	0.178070	0.888270
C1951	C195	0.715030	0.064170	0.826070
C1961	C196	0.714730	0.016370	0.825270
H1241	H124	0.747530	0.016670	0.819170
C1971	C197	0.630630	0.872570	0.896770
H1251	H125	0.605630	0.876270	0.938970
C1981	C198	0.631130	0.825170	0.898670
H1261	H126	0.607730	0.796970	0.943470
O521	O52	0.912400	0.300950	0.720370
O531	O53	0.954620	0.274740	0.833670
O541	O54	0.650330	0.737630	0.916470
C1991	C199	0.666670	0.063480	0.833330
H1271	H127	0.666670	0.096180	0.833330
C2001	C200	0.666670	0.966880	0.833330
C2011	C201	0.666670	0.915780	0.833330
C2021	C202	0.666670	0.819780	0.833330
C2031	C203	0.666670	0.766280	0.833330
C2041	C204	0.936520	0.603180	0.833330
H1281	H128	0.903820	0.570480	0.833330
C2051	C205	0.033120	0.699780	0.833330
C2061	C206	0.084220	0.750880	0.833330
C2071	C207	0.180220	0.846880	0.833330
C2081	C208	0.233720	0.900380	0.833330
C2091	C209	0.396820	0.333330	0.833330
H1291	H129	0.429520	0.333330	0.833330
C2101	C210	0.300220	0.333330	0.833330
C2111	C211	0.249120	0.333330	0.833330
C2121	C212	0.153120	0.333330	0.833330
C2131	C213	0.099620	0.333330	0.833330
C2141	C214	0.063480	0.666670	0.166670
H1301	H130	0.096180	0.666670	0.166670
C2151	C215	0.966880	0.666670	0.166670
C2161	C216	0.915780	0.666670	0.166670
C2171	C217	0.819780	0.666670	0.166670
C2181	C218	0.766280	0.666670	0.166670
C2191	C219	0.730150	0.000000	0.500000
H1311	H131	0.762850	0.000000	0.500000
C2201	C220	0.633550	0.000000	0.500000
C2211	C221	0.582450	0.000000	0.500000
C2221	C222	0.486450	0.000000	0.500000
C2231	C223	0.432950	0.000000	0.500000
C2241	C224	0.603180	0.936520	0.166670
H1321	H132	0.570480	0.903820	0.166670
C2251	C225	0.699780	0.033120	0.166670
C2261	C226	0.750880	0.084220	0.166670
C2271	C227	0.846880	0.180220	0.166670
C2281	C228	0.900380	0.233720	0.166670
C2291	C229	0.269850	0.269850	0.500000
H1331	H133	0.237150	0.237150	0.500000
C2301	C230	0.366450	0.366450	0.500000
C2311	C231	0.417550	0.417550	0.500000
C2321	C232	0.513550	0.513550	0.500000
C2331	C233	0.567050	0.567050	0.500000
C2341	C234	0.333330	0.396820	0.166670
H1341	H134	0.333330	0.429520	0.166670
C2351	C235	0.333330	0.300220	0.166670
C2361	C236	0.333330	0.249120	0.166670
C2371	C237	0.333330	0.153120	0.166670
C2381	C238	0.333330	0.099620	0.166670
C2391	C239	0.000000	0.730150	0.500000
H1351	H135	0.000000	0.762850	0.500000
C2401	C240	0.000000	0.633550	0.500000
C2411	C241	0.000000	0.582450	0.500000
C2421	C242	0.000000	0.486450	0.500000
C2431	C243	0.000000	0.432950	0.500000
La11	La1	0.322220	0.000000	0.000000
La21	La2	0.988880	0.333330	0.333330
La31	La3	0.655550	0.666670	0.666670
La41	La4	0.000000	0.322220	0.000000
La51	La5	0.666670	0.655550	0.333330
La61	La6	0.333330	0.988880	0.666670
La71	La7	0.677780	0.677780	0.000000
La81	La8	0.344450	0.011120	0.333330
La91	La9	0.011120	0.344450	0.666670
