data_PIBNUK01_clean_PM
_symmetry_space_group_name_H-M	'P1'
_cell_length_a	25.634900
_cell_length_b	25.634900
_cell_length_c	25.634900
_cell_angle_alpha	90.000000
_cell_angle_beta	90.000000
_cell_angle_gamma	90.000000
_symmetry_Int_Tables_number 1

loop_
_symmetry_equiv_pos_as_xyz
'x,y,z'

loop_
_atom_site_label
_atom_site_type_symbol
_atom_site_fract_x
_atom_site_fract_y
_atom_site_fract_z
Zn11	Zn1	0.125000	0.625000	0.875000
Zn21	Zn2	0.375000	0.375000	0.375000
Zn31	Zn3	0.875000	0.125000	0.625000
Zn41	Zn4	0.625000	0.875000	0.125000
Zn51	Zn5	0.044770	0.544770	0.955230
Zn61	Zn6	0.455230	0.455230	0.455230
Zn71	Zn7	0.955230	0.044770	0.544770
Zn81	Zn8	0.544770	0.955230	0.044770
Zn91	Zn9	0.294770	0.294770	0.294770
Zn101	Zn10	0.205230	0.705230	0.794770
Zn111	Zn11	0.794770	0.205230	0.705230
Zn121	Zn12	0.705230	0.794770	0.205230
H11	H1	0.188300	0.682800	0.999300
H21	H2	0.255300	0.706100	0.055100
H31	H3	0.233200	0.571500	0.133800
H41	H4	0.166900	0.549300	0.076400
H51	H5	0.311700	0.317200	0.499300
H61	H6	0.244700	0.293900	0.555100
H71	H7	0.266800	0.428500	0.633800
H81	H8	0.333100	0.450700	0.576400
H91	H9	0.811700	0.182800	0.500700
H101	H10	0.744700	0.206100	0.444900
H111	H11	0.766800	0.071500	0.366200
H121	H12	0.833100	0.049300	0.423600
H131	H13	0.688300	0.817200	0.000700
H141	H14	0.755300	0.793900	0.944900
H151	H15	0.733200	0.928500	0.866200
H161	H16	0.666900	0.950700	0.923600
H171	H17	0.999300	0.188300	0.682800
H181	H18	0.055100	0.255300	0.706100
H191	H19	0.133800	0.233200	0.571500
H201	H20	0.076400	0.166900	0.549300
H211	H21	0.499300	0.311700	0.317200
H221	H22	0.555100	0.244700	0.293900
H231	H23	0.633800	0.266800	0.428500
H241	H24	0.576400	0.333100	0.450700
H251	H25	0.500700	0.811700	0.182800
H261	H26	0.444900	0.744700	0.206100
H271	H27	0.366200	0.766800	0.071500
H281	H28	0.423600	0.833100	0.049300
H291	H29	0.000700	0.688300	0.817200
H301	H30	0.944900	0.755300	0.793900
H311	H31	0.866200	0.733200	0.928500
H321	H32	0.923600	0.666900	0.950700
H331	H33	0.682800	0.999300	0.188300
H341	H34	0.706100	0.055100	0.255300
H351	H35	0.571500	0.133800	0.233200
H361	H36	0.549300	0.076400	0.166900
H371	H37	0.317200	0.499300	0.311700
H381	H38	0.293900	0.555100	0.244700
H391	H39	0.428500	0.633800	0.266800
H401	H40	0.450700	0.576400	0.333100
H411	H41	0.182800	0.500700	0.811700
H421	H42	0.206100	0.444900	0.744700
H431	H43	0.071500	0.366200	0.766800
H441	H44	0.049300	0.423600	0.833100
H451	H45	0.817200	0.000700	0.688300
H461	H46	0.793900	0.944900	0.755300
H471	H47	0.928500	0.866200	0.733200
H481	H48	0.950700	0.923600	0.666900
H491	H49	0.432800	0.438300	0.250700
H501	H50	0.456100	0.505300	0.194900
H511	H51	0.321500	0.483200	0.116200
H521	H52	0.299300	0.416900	0.173600
H531	H53	0.067200	0.561700	0.750700
H541	H54	0.043900	0.494700	0.694900
H551	H55	0.178500	0.516800	0.616200
H561	H56	0.200700	0.583100	0.673600
H571	H57	0.932800	0.061700	0.749300
H581	H58	0.956100	0.994700	0.805100
H591	H59	0.821500	0.016800	0.883800
H601	H60	0.799300	0.083100	0.826400
H611	H61	0.567200	0.938300	0.249300
H621	H62	0.543900	0.005300	0.305100
H631	H63	0.678500	0.983200	0.383800
H641	H64	0.700700	0.916900	0.326400
H651	H65	0.938300	0.249300	0.567200
H661	H66	0.005300	0.305100	0.543900
H671	H67	0.983200	0.383800	0.678500
H681	H68	0.916900	0.326400	0.700700
H691	H69	0.061700	0.749300	0.932800
H701	H70	0.994700	0.805100	0.956100
H711	H71	0.016800	0.883800	0.821500
H721	H72	0.083100	0.826400	0.799300
H731	H73	0.561700	0.750700	0.067200
H741	H74	0.494700	0.694900	0.043900
H751	H75	0.516800	0.616200	0.178500
H761	H76	0.583100	0.673600	0.200700
H771	H77	0.438300	0.250700	0.432800
H781	H78	0.505300	0.194900	0.456100
H791	H79	0.483200	0.116200	0.321500
H801	H80	0.416900	0.173600	0.299300
H811	H81	0.749300	0.932800	0.061700
H821	H82	0.805100	0.956100	0.994700
H831	H83	0.883800	0.821500	0.016800
H841	H84	0.826400	0.799300	0.083100
H851	H85	0.249300	0.567200	0.938300
H861	H86	0.305100	0.543900	0.005300
H871	H87	0.383800	0.678500	0.983200
H881	H88	0.326400	0.700700	0.916900
H891	H89	0.250700	0.432800	0.438300
H901	H90	0.194900	0.456100	0.505300
H911	H91	0.116200	0.321500	0.483200
H921	H92	0.173600	0.299300	0.416900
H931	H93	0.750700	0.067200	0.561700
H941	H94	0.694900	0.043900	0.494700
H951	H95	0.616200	0.178500	0.516800
H961	H96	0.673600	0.200700	0.583100
C11	C1	0.296610	0.651920	0.133520
C21	C2	0.128180	0.600600	0.993770
C31	C3	0.171110	0.614680	0.032240
C41	C4	0.197590	0.660380	0.026310
C51	C5	0.238020	0.674460	0.059290
C61	C6	0.252030	0.640070	0.098720
C71	C7	0.224640	0.593580	0.106300
C81	C8	0.184690	0.580700	0.072390
C91	C9	0.203390	0.348080	0.633520
C101	C10	0.371820	0.399400	0.493770
C111	C11	0.328890	0.385320	0.532240
C121	C12	0.302410	0.339620	0.526310
C131	C13	0.261980	0.325540	0.559290
C141	C14	0.247970	0.359930	0.598720
C151	C15	0.275360	0.406420	0.606300
C161	C16	0.315310	0.419300	0.572390
C171	C17	0.703390	0.151920	0.366480
C181	C18	0.871820	0.100600	0.506230
C191	C19	0.828890	0.114680	0.467760
C201	C20	0.802410	0.160380	0.473690
C211	C21	0.761980	0.174460	0.440710
C221	C22	0.747970	0.140070	0.401280
C231	C23	0.775360	0.093580	0.393700
C241	C24	0.815310	0.080700	0.427610
C251	C25	0.796610	0.848080	0.866480
C261	C26	0.628180	0.899400	0.006230
C271	C27	0.671110	0.885320	0.967760
C281	C28	0.697590	0.839620	0.973690
C291	C29	0.738020	0.825540	0.940710
C301	C30	0.752030	0.859930	0.901280
C311	C31	0.724640	0.906420	0.893700
C321	C32	0.684690	0.919300	0.927610
C331	C33	0.133520	0.296610	0.651920
C341	C34	0.993770	0.128180	0.600600
C351	C35	0.032240	0.171110	0.614680
C361	C36	0.026310	0.197590	0.660380
C371	C37	0.059290	0.238020	0.674460
C381	C38	0.098720	0.252030	0.640070
C391	C39	0.106300	0.224640	0.593580
C401	C40	0.072390	0.184690	0.580700
C411	C41	0.633520	0.203390	0.348080
C421	C42	0.493770	0.371820	0.399400
C431	C43	0.532240	0.328890	0.385320
C441	C44	0.526310	0.302410	0.339620
C451	C45	0.559290	0.261980	0.325540
C461	C46	0.598720	0.247970	0.359930
C471	C47	0.606300	0.275360	0.406420
C481	C48	0.572390	0.315310	0.419300
C491	C49	0.366480	0.703390	0.151920
C501	C50	0.506230	0.871820	0.100600
C511	C51	0.467760	0.828890	0.114680
C521	C52	0.473690	0.802410	0.160380
C531	C53	0.440710	0.761980	0.174460
C541	C54	0.401280	0.747970	0.140070
C551	C55	0.393700	0.775360	0.093580
C561	C56	0.427610	0.815310	0.080700
C571	C57	0.866480	0.796610	0.848080
C581	C58	0.006230	0.628180	0.899400
C591	C59	0.967760	0.671110	0.885320
C601	C60	0.973690	0.697590	0.839620
C611	C61	0.940710	0.738020	0.825540
C621	C62	0.901280	0.752030	0.859930
C631	C63	0.893700	0.724640	0.906420
C641	C64	0.927610	0.684690	0.919300
C651	C65	0.651920	0.133520	0.296610
C661	C66	0.600600	0.993770	0.128180
C671	C67	0.614680	0.032240	0.171110
C681	C68	0.660380	0.026310	0.197590
C691	C69	0.674460	0.059290	0.238020
C701	C70	0.640070	0.098720	0.252030
C711	C71	0.593580	0.106300	0.224640
C721	C72	0.580700	0.072390	0.184690
C731	C73	0.348080	0.633520	0.203390
C741	C74	0.399400	0.493770	0.371820
C751	C75	0.385320	0.532240	0.328890
C761	C76	0.339620	0.526310	0.302410
C771	C77	0.325540	0.559290	0.261980
C781	C78	0.359930	0.598720	0.247970
C791	C79	0.406420	0.606300	0.275360
C801	C80	0.419300	0.572390	0.315310
C811	C81	0.151920	0.366480	0.703390
C821	C82	0.100600	0.506230	0.871820
C831	C83	0.114680	0.467760	0.828890
C841	C84	0.160380	0.473690	0.802410
C851	C85	0.174460	0.440710	0.761980
C861	C86	0.140070	0.401280	0.747970
C871	C87	0.093580	0.393700	0.775360
C881	C88	0.080700	0.427610	0.815310
C891	C89	0.848080	0.866480	0.796610
C901	C90	0.899400	0.006230	0.628180
C911	C91	0.885320	0.967760	0.671110
C921	C92	0.839620	0.973690	0.697590
C931	C93	0.825540	0.940710	0.738020
C941	C94	0.859930	0.901280	0.752030
C951	C95	0.906420	0.893700	0.724640
C961	C96	0.919300	0.927610	0.684690
C971	C97	0.401920	0.546610	0.116480
C981	C98	0.350600	0.378180	0.256230
C991	C99	0.364680	0.421110	0.217760
C1001	C100	0.410380	0.447590	0.223690
C1011	C101	0.424460	0.488020	0.190710
C1021	C102	0.390070	0.502030	0.151280
C1031	C103	0.343580	0.474640	0.143700
C1041	C104	0.330700	0.434690	0.177610
C1051	C105	0.098080	0.453390	0.616480
C1061	C106	0.149400	0.621820	0.756230
C1071	C107	0.135320	0.578890	0.717760
C1081	C108	0.089620	0.552410	0.723690
C1091	C109	0.075540	0.511980	0.690710
C1101	C110	0.109930	0.497970	0.651280
C1111	C111	0.156420	0.525360	0.643700
C1121	C112	0.169300	0.565310	0.677610
C1131	C113	0.901920	0.953390	0.883520
C1141	C114	0.850600	0.121820	0.743770
C1151	C115	0.864680	0.078890	0.782240
C1161	C116	0.910380	0.052410	0.776310
C1171	C117	0.924460	0.011980	0.809290
C1181	C118	0.890070	0.997970	0.848720
C1191	C119	0.843580	0.025360	0.856300
C1201	C120	0.830700	0.065310	0.822390
C1211	C121	0.598080	0.046610	0.383520
C1221	C122	0.649400	0.878180	0.243770
C1231	C123	0.635320	0.921110	0.282240
C1241	C124	0.589620	0.947590	0.276310
C1251	C125	0.575540	0.988020	0.309290
C1261	C126	0.609930	0.002030	0.348720
C1271	C127	0.656420	0.974640	0.356300
C1281	C128	0.669300	0.934690	0.322390
C1291	C129	0.046610	0.383520	0.598080
C1301	C130	0.878180	0.243770	0.649400
C1311	C131	0.921110	0.282240	0.635320
C1321	C132	0.947590	0.276310	0.589620
C1331	C133	0.988020	0.309290	0.575540
C1341	C134	0.002030	0.348720	0.609930
C1351	C135	0.974640	0.356300	0.656420
C1361	C136	0.934690	0.322390	0.669300
C1371	C137	0.953390	0.883520	0.901920
C1381	C138	0.121820	0.743770	0.850600
C1391	C139	0.078890	0.782240	0.864680
C1401	C140	0.052410	0.776310	0.910380
C1411	C141	0.011980	0.809290	0.924460
C1421	C142	0.997970	0.848720	0.890070
C1431	C143	0.025360	0.856300	0.843580
C1441	C144	0.065310	0.822390	0.830700
C1451	C145	0.453390	0.616480	0.098080
C1461	C146	0.621820	0.756230	0.149400
C1471	C147	0.578890	0.717760	0.135320
C1481	C148	0.552410	0.723690	0.089620
C1491	C149	0.511980	0.690710	0.075540
C1501	C150	0.497970	0.651280	0.109930
C1511	C151	0.525360	0.643700	0.156420
C1521	C152	0.565310	0.677610	0.169300
C1531	C153	0.546610	0.116480	0.401920
C1541	C154	0.378180	0.256230	0.350600
C1551	C155	0.421110	0.217760	0.364680
C1561	C156	0.447590	0.223690	0.410380
C1571	C157	0.488020	0.190710	0.424460
C1581	C158	0.502030	0.151280	0.390070
C1591	C159	0.474640	0.143700	0.343580
C1601	C160	0.434690	0.177610	0.330700
C1611	C161	0.883520	0.901920	0.953390
C1621	C162	0.743770	0.850600	0.121820
C1631	C163	0.782240	0.864680	0.078890
C1641	C164	0.776310	0.910380	0.052410
C1651	C165	0.809290	0.924460	0.011980
C1661	C166	0.848720	0.890070	0.997970
C1671	C167	0.856300	0.843580	0.025360
C1681	C168	0.822390	0.830700	0.065310
C1691	C169	0.383520	0.598080	0.046610
C1701	C170	0.243770	0.649400	0.878180
C1711	C171	0.282240	0.635320	0.921110
C1721	C172	0.276310	0.589620	0.947590
C1731	C173	0.309290	0.575540	0.988020
C1741	C174	0.348720	0.609930	0.002030
C1751	C175	0.356300	0.656420	0.974640
C1761	C176	0.322390	0.669300	0.934690
C1771	C177	0.116480	0.401920	0.546610
C1781	C178	0.256230	0.350600	0.378180
C1791	C179	0.217760	0.364680	0.421110
C1801	C180	0.223690	0.410380	0.447590
C1811	C181	0.190710	0.424460	0.488020
C1821	C182	0.151280	0.390070	0.502030
C1831	C183	0.143700	0.343580	0.474640
C1841	C184	0.177610	0.330700	0.434690
C1851	C185	0.616480	0.098080	0.453390
C1861	C186	0.756230	0.149400	0.621820
C1871	C187	0.717760	0.135320	0.578890
C1881	C188	0.723690	0.089620	0.552410
C1891	C189	0.690710	0.075540	0.511980
C1901	C190	0.651280	0.109930	0.497970
C1911	C191	0.643700	0.156420	0.525360
C1921	C192	0.677610	0.169300	0.565310
N11	N1	0.325390	0.694460	0.121660
N21	N2	0.174610	0.305540	0.621660
N31	N3	0.674610	0.194460	0.378340
N41	N4	0.825390	0.805540	0.878340
N51	N5	0.121660	0.325390	0.694460
N61	N6	0.621660	0.174610	0.305540
N71	N7	0.378340	0.674610	0.194460
N81	N8	0.878340	0.825390	0.805540
N91	N9	0.694460	0.121660	0.325390
N101	N10	0.305540	0.621660	0.174610
N111	N11	0.194460	0.378340	0.674610
N121	N12	0.805540	0.878340	0.825390
N131	N13	0.444460	0.575390	0.128340
N141	N14	0.055540	0.424610	0.628340
N151	N15	0.944460	0.924610	0.871660
N161	N16	0.555540	0.075390	0.371660
N171	N17	0.075390	0.371660	0.555540
N181	N18	0.924610	0.871660	0.944460
N191	N19	0.424610	0.628340	0.055540
N201	N20	0.575390	0.128340	0.444460
N211	N21	0.871660	0.944460	0.924610
N221	N22	0.371660	0.555540	0.075390
N231	N23	0.128340	0.444460	0.575390
N241	N24	0.628340	0.055540	0.424610
O11	O1	0.122630	0.629170	0.955710
O21	O2	0.101130	0.560960	0.003370
O31	O3	0.377370	0.370830	0.455710
O41	O4	0.398870	0.439040	0.503370
O51	O5	0.877370	0.129170	0.544290
O61	O6	0.898870	0.060960	0.496630
O71	O7	0.622630	0.870830	0.044290
O81	O8	0.601130	0.939040	0.996630
O91	O9	0.955710	0.122630	0.629170
O101	O10	0.003370	0.101130	0.560960
O111	O11	0.455710	0.377370	0.370830
O121	O12	0.503370	0.398870	0.439040
O131	O13	0.544290	0.877370	0.129170
O141	O14	0.496630	0.898870	0.060960
O151	O15	0.044290	0.622630	0.870830
O161	O16	0.996630	0.601130	0.939040
O171	O17	0.629170	0.955710	0.122630
O181	O18	0.560960	0.003370	0.101130
O191	O19	0.370830	0.455710	0.377370
O201	O20	0.439040	0.503370	0.398870
O211	O21	0.129170	0.544290	0.877370
O221	O22	0.060960	0.496630	0.898870
O231	O23	0.870830	0.044290	0.622630
O241	O24	0.939040	0.996630	0.601130
O251	O25	0.379170	0.372630	0.294290
O261	O26	0.310960	0.351130	0.246630
O271	O27	0.120830	0.627370	0.794290
O281	O28	0.189040	0.648870	0.746630
O291	O29	0.879170	0.127370	0.705710
O301	O30	0.810960	0.148870	0.753370
O311	O31	0.620830	0.872630	0.205710
O321	O32	0.689040	0.851130	0.253370
O331	O33	0.872630	0.205710	0.620830
O341	O34	0.851130	0.253370	0.689040
O351	O35	0.127370	0.705710	0.879170
O361	O36	0.148870	0.753370	0.810960
O371	O37	0.627370	0.794290	0.120830
O381	O38	0.648870	0.746630	0.189040
O391	O39	0.372630	0.294290	0.379170
O401	O40	0.351130	0.246630	0.310960
O411	O41	0.705710	0.879170	0.127370
O421	O42	0.753370	0.810960	0.148870
O431	O43	0.205710	0.620830	0.872630
O441	O44	0.253370	0.689040	0.851130
O451	O45	0.294290	0.379170	0.372630
O461	O46	0.246630	0.310960	0.351130
O471	O47	0.794290	0.120830	0.627370
O481	O48	0.746630	0.189040	0.648870
