data_PIBNUK_clean_PM
_symmetry_space_group_name_H-M	'P1'
_cell_length_a	25.641500
_cell_length_b	25.641500
_cell_length_c	25.641500
_cell_angle_alpha	90.000000
_cell_angle_beta	90.000000
_cell_angle_gamma	90.000000
_symmetry_Int_Tables_number 1

loop_
_symmetry_equiv_pos_as_xyz
'x,y,z'

loop_
_atom_site_label
_atom_site_type_symbol
_atom_site_fract_x
_atom_site_fract_y
_atom_site_fract_z
Zn11	Zn1	0.625000	0.375000	0.875000
Zn21	Zn2	0.875000	0.625000	0.375000
Zn31	Zn3	0.375000	0.875000	0.625000
Zn41	Zn4	0.125000	0.125000	0.125000
Zn51	Zn5	0.544980	0.455020	0.955020
Zn61	Zn6	0.955020	0.544980	0.455020
Zn71	Zn7	0.455020	0.955020	0.544980
Zn81	Zn8	0.044980	0.044980	0.044980
Zn91	Zn9	0.705020	0.294980	0.794980
Zn101	Zn10	0.794980	0.705020	0.294980
Zn111	Zn11	0.205020	0.205020	0.205020
Zn121	Zn12	0.294980	0.794980	0.705020
H11	H1	0.733500	0.427700	0.134000
H21	H2	0.667000	0.450700	0.076400
H31	H3	0.687700	0.316500	0.000500
H41	H4	0.755200	0.294100	0.056100
H51	H5	0.766500	0.572300	0.634000
H61	H6	0.833000	0.549300	0.576400
H71	H7	0.812300	0.683500	0.500500
H81	H8	0.744800	0.705900	0.556100
H91	H9	0.266500	0.927700	0.366000
H101	H10	0.333000	0.950700	0.423600
H111	H11	0.312300	0.816500	0.499500
H121	H12	0.244800	0.794100	0.443900
H131	H13	0.233500	0.072300	0.866000
H141	H14	0.167000	0.049300	0.923600
H151	H15	0.187700	0.183500	0.999500
H161	H16	0.255200	0.205900	0.943900
H171	H17	0.134000	0.733500	0.427700
H181	H18	0.076400	0.667000	0.450700
H191	H19	0.000500	0.687700	0.316500
H201	H20	0.056100	0.755200	0.294100
H211	H21	0.634000	0.766500	0.572300
H221	H22	0.576400	0.833000	0.549300
H231	H23	0.500500	0.812300	0.683500
H241	H24	0.556100	0.744800	0.705900
H251	H25	0.366000	0.266500	0.927700
H261	H26	0.423600	0.333000	0.950700
H271	H27	0.499500	0.312300	0.816500
H281	H28	0.443900	0.244800	0.794100
H291	H29	0.866000	0.233500	0.072300
H301	H30	0.923600	0.167000	0.049300
H311	H31	0.999500	0.187700	0.183500
H321	H32	0.943900	0.255200	0.205900
H331	H33	0.427700	0.134000	0.733500
H341	H34	0.450700	0.076400	0.667000
H351	H35	0.316500	0.000500	0.687700
H361	H36	0.294100	0.056100	0.755200
H371	H37	0.572300	0.634000	0.766500
H381	H38	0.549300	0.576400	0.833000
H391	H39	0.683500	0.500500	0.812300
H401	H40	0.705900	0.556100	0.744800
H411	H41	0.927700	0.366000	0.266500
H421	H42	0.950700	0.423600	0.333000
H431	H43	0.816500	0.499500	0.312300
H441	H44	0.794100	0.443900	0.244800
H451	H45	0.072300	0.866000	0.233500
H461	H46	0.049300	0.923600	0.167000
H471	H47	0.183500	0.999500	0.187700
H481	H48	0.205900	0.943900	0.255200
H491	H49	0.677700	0.483500	0.616000
H501	H50	0.700700	0.417000	0.673600
H511	H51	0.566500	0.437700	0.749500
H521	H52	0.544100	0.505200	0.693900
H531	H53	0.822300	0.516500	0.116000
H541	H54	0.799300	0.583000	0.173600
H551	H55	0.933500	0.562300	0.249500
H561	H56	0.955900	0.494800	0.193900
H571	H57	0.177700	0.016500	0.384000
H581	H58	0.200700	0.083000	0.326400
H591	H59	0.066500	0.062300	0.250500
H601	H60	0.044100	0.994800	0.306100
H611	H61	0.322300	0.983500	0.884000
H621	H62	0.299300	0.917000	0.826400
H631	H63	0.433500	0.937700	0.750500
H641	H64	0.455900	0.005200	0.806100
H651	H65	0.983500	0.884000	0.322300
H661	H66	0.917000	0.826400	0.299300
H671	H67	0.937700	0.750500	0.433500
H681	H68	0.005200	0.806100	0.455900
H691	H69	0.016500	0.384000	0.177700
H701	H70	0.083000	0.326400	0.200700
H711	H71	0.062300	0.250500	0.066500
H721	H72	0.994800	0.306100	0.044100
H731	H73	0.516500	0.116000	0.822300
H741	H74	0.583000	0.173600	0.799300
H751	H75	0.562300	0.249500	0.933500
H761	H76	0.494800	0.193900	0.955900
H771	H77	0.483500	0.616000	0.677700
H781	H78	0.417000	0.673600	0.700700
H791	H79	0.437700	0.749500	0.566500
H801	H80	0.505200	0.693900	0.544100
H811	H81	0.384000	0.177700	0.016500
H821	H82	0.326400	0.200700	0.083000
H831	H83	0.250500	0.066500	0.062300
H841	H84	0.306100	0.044100	0.994800
H851	H85	0.884000	0.322300	0.983500
H861	H86	0.826400	0.299300	0.917000
H871	H87	0.750500	0.433500	0.937700
H881	H88	0.806100	0.455900	0.005200
H891	H89	0.616000	0.677700	0.483500
H901	H90	0.673600	0.700700	0.417000
H911	H91	0.749500	0.566500	0.437700
H921	H92	0.693900	0.544100	0.505200
H931	H93	0.116000	0.822300	0.516500
H941	H94	0.173600	0.799300	0.583000
H951	H95	0.249500	0.933500	0.562300
H961	H96	0.193900	0.955900	0.494800
C11	C1	0.752960	0.360050	0.099030
C21	C2	0.725160	0.405530	0.106010
C31	C3	0.684960	0.419000	0.072220
C41	C4	0.671870	0.385290	0.032420
C51	C5	0.697560	0.339680	0.027200
C61	C6	0.737990	0.326210	0.060170
C71	C7	0.796230	0.347540	0.133870
C81	C8	0.629060	0.399790	0.994580
C91	C9	0.747040	0.639950	0.599030
C101	C10	0.774840	0.594470	0.606010
C111	C11	0.815040	0.581000	0.572220
C121	C12	0.828130	0.614710	0.532420
C131	C13	0.802440	0.660320	0.527200
C141	C14	0.762010	0.673790	0.560170
C151	C15	0.703770	0.652460	0.633870
C161	C16	0.870940	0.600210	0.494580
C171	C17	0.247040	0.860050	0.400970
C181	C18	0.274840	0.905530	0.393990
C191	C19	0.315040	0.919000	0.427780
C201	C20	0.328130	0.885290	0.467580
C211	C21	0.302440	0.839680	0.472800
C221	C22	0.262010	0.826210	0.439830
C231	C23	0.203770	0.847540	0.366130
C241	C24	0.370940	0.899790	0.505420
C251	C25	0.252960	0.139950	0.900970
C261	C26	0.225160	0.094470	0.893990
C271	C27	0.184960	0.081000	0.927780
C281	C28	0.171870	0.114710	0.967580
C291	C29	0.197560	0.160320	0.972800
C301	C30	0.237990	0.173790	0.939830
C311	C31	0.296230	0.152460	0.866130
C321	C32	0.129060	0.100210	0.005420
C331	C33	0.099030	0.752960	0.360050
C341	C34	0.106010	0.725160	0.405530
C351	C35	0.072220	0.684960	0.419000
C361	C36	0.032420	0.671870	0.385290
C371	C37	0.027200	0.697560	0.339680
C381	C38	0.060170	0.737990	0.326210
C391	C39	0.133870	0.796230	0.347540
C401	C40	0.994580	0.629060	0.399790
C411	C41	0.599030	0.747040	0.639950
C421	C42	0.606010	0.774840	0.594470
C431	C43	0.572220	0.815040	0.581000
C441	C44	0.532420	0.828130	0.614710
C451	C45	0.527200	0.802440	0.660320
C461	C46	0.560170	0.762010	0.673790
C471	C47	0.633870	0.703770	0.652460
C481	C48	0.494580	0.870940	0.600210
C491	C49	0.400970	0.247040	0.860050
C501	C50	0.393990	0.274840	0.905530
C511	C51	0.427780	0.315040	0.919000
C521	C52	0.467580	0.328130	0.885290
C531	C53	0.472800	0.302440	0.839680
C541	C54	0.439830	0.262010	0.826210
C551	C55	0.366130	0.203770	0.847540
C561	C56	0.505420	0.370940	0.899790
C571	C57	0.900970	0.252960	0.139950
C581	C58	0.893990	0.225160	0.094470
C591	C59	0.927780	0.184960	0.081000
C601	C60	0.967580	0.171870	0.114710
C611	C61	0.972800	0.197560	0.160320
C621	C62	0.939830	0.237990	0.173790
C631	C63	0.866130	0.296230	0.152460
C641	C64	0.005420	0.129060	0.100210
C651	C65	0.360050	0.099030	0.752960
C661	C66	0.405530	0.106010	0.725160
C671	C67	0.419000	0.072220	0.684960
C681	C68	0.385290	0.032420	0.671870
C691	C69	0.339680	0.027200	0.697560
C701	C70	0.326210	0.060170	0.737990
C711	C71	0.347540	0.133870	0.796230
C721	C72	0.399790	0.994580	0.629060
C731	C73	0.639950	0.599030	0.747040
C741	C74	0.594470	0.606010	0.774840
C751	C75	0.581000	0.572220	0.815040
C761	C76	0.614710	0.532420	0.828130
C771	C77	0.660320	0.527200	0.802440
C781	C78	0.673790	0.560170	0.762010
C791	C79	0.652460	0.633870	0.703770
C801	C80	0.600210	0.494580	0.870940
C811	C81	0.860050	0.400970	0.247040
C821	C82	0.905530	0.393990	0.274840
C831	C83	0.919000	0.427780	0.315040
C841	C84	0.885290	0.467580	0.328130
C851	C85	0.839680	0.472800	0.302440
C861	C86	0.826210	0.439830	0.262010
C871	C87	0.847540	0.366130	0.203770
C881	C88	0.899790	0.505420	0.370940
C891	C89	0.139950	0.900970	0.252960
C901	C90	0.094470	0.893990	0.225160
C911	C91	0.081000	0.927780	0.184960
C921	C92	0.114710	0.967580	0.171870
C931	C93	0.160320	0.972800	0.197560
C941	C94	0.173790	0.939830	0.237990
C951	C95	0.152460	0.866130	0.296230
C961	C96	0.100210	0.005420	0.129060
C971	C97	0.610050	0.502960	0.650970
C981	C98	0.655530	0.475160	0.643990
C991	C99	0.669000	0.434960	0.677780
C1001	C100	0.635290	0.421870	0.717580
C1011	C101	0.589680	0.447560	0.722800
C1021	C102	0.576210	0.487990	0.689830
C1031	C103	0.597540	0.546230	0.616130
C1041	C104	0.649790	0.379060	0.755420
C1051	C105	0.889950	0.497040	0.150970
C1061	C106	0.844470	0.524840	0.143990
C1071	C107	0.831000	0.565040	0.177780
C1081	C108	0.864710	0.578130	0.217580
C1091	C109	0.910320	0.552440	0.222800
C1101	C110	0.923790	0.512010	0.189830
C1111	C111	0.902460	0.453770	0.116130
C1121	C112	0.850210	0.620940	0.255420
C1131	C113	0.110050	0.997040	0.349030
C1141	C114	0.155530	0.024840	0.356010
C1151	C115	0.169000	0.065040	0.322220
C1161	C116	0.135290	0.078130	0.282420
C1171	C117	0.089680	0.052440	0.277200
C1181	C118	0.076210	0.012010	0.310170
C1191	C119	0.097540	0.953770	0.383870
C1201	C120	0.149790	0.120940	0.244580
C1211	C121	0.389950	0.002960	0.849030
C1221	C122	0.344470	0.975160	0.856010
C1231	C123	0.331000	0.934960	0.822220
C1241	C124	0.364710	0.921870	0.782420
C1251	C125	0.410320	0.947560	0.777200
C1261	C126	0.423790	0.987990	0.810170
C1271	C127	0.402460	0.046230	0.883870
C1281	C128	0.350210	0.879060	0.744580
C1291	C129	0.002960	0.849030	0.389950
C1301	C130	0.975160	0.856010	0.344470
C1311	C131	0.934960	0.822220	0.331000
C1321	C132	0.921870	0.782420	0.364710
C1331	C133	0.947560	0.777200	0.410320
C1341	C134	0.987990	0.810170	0.423790
C1351	C135	0.046230	0.883870	0.402460
C1361	C136	0.879060	0.744580	0.350210
C1371	C137	0.997040	0.349030	0.110050
C1381	C138	0.024840	0.356010	0.155530
C1391	C139	0.065040	0.322220	0.169000
C1401	C140	0.078130	0.282420	0.135290
C1411	C141	0.052440	0.277200	0.089680
C1421	C142	0.012010	0.310170	0.076210
C1431	C143	0.953770	0.383870	0.097540
C1441	C144	0.120940	0.244580	0.149790
C1451	C145	0.497040	0.150970	0.889950
C1461	C146	0.524840	0.143990	0.844470
C1471	C147	0.565040	0.177780	0.831000
C1481	C148	0.578130	0.217580	0.864710
C1491	C149	0.552440	0.222800	0.910320
C1501	C150	0.512010	0.189830	0.923790
C1511	C151	0.453770	0.116130	0.902460
C1521	C152	0.620940	0.255420	0.850210
C1531	C153	0.502960	0.650970	0.610050
C1541	C154	0.475160	0.643990	0.655530
C1551	C155	0.434960	0.677780	0.669000
C1561	C156	0.421870	0.717580	0.635290
C1571	C157	0.447560	0.722800	0.589680
C1581	C158	0.487990	0.689830	0.576210
C1591	C159	0.546230	0.616130	0.597540
C1601	C160	0.379060	0.755420	0.649790
C1611	C161	0.349030	0.110050	0.997040
C1621	C162	0.356010	0.155530	0.024840
C1631	C163	0.322220	0.169000	0.065040
C1641	C164	0.282420	0.135290	0.078130
C1651	C165	0.277200	0.089680	0.052440
C1661	C166	0.310170	0.076210	0.012010
C1671	C167	0.383870	0.097540	0.953770
C1681	C168	0.244580	0.149790	0.120940
C1691	C169	0.849030	0.389950	0.002960
C1701	C170	0.856010	0.344470	0.975160
C1711	C171	0.822220	0.331000	0.934960
C1721	C172	0.782420	0.364710	0.921870
C1731	C173	0.777200	0.410320	0.947560
C1741	C174	0.810170	0.423790	0.987990
C1751	C175	0.883870	0.402460	0.046230
C1761	C176	0.744580	0.350210	0.879060
C1771	C177	0.650970	0.610050	0.502960
C1781	C178	0.643990	0.655530	0.475160
C1791	C179	0.677780	0.669000	0.434960
C1801	C180	0.717580	0.635290	0.421870
C1811	C181	0.722800	0.589680	0.447560
C1821	C182	0.689830	0.576210	0.487990
C1831	C183	0.616130	0.597540	0.546230
C1841	C184	0.755420	0.649790	0.379060
C1851	C185	0.150970	0.889950	0.497040
C1861	C186	0.143990	0.844470	0.524840
C1871	C187	0.177780	0.831000	0.565040
C1881	C188	0.217580	0.864710	0.578130
C1891	C189	0.222800	0.910320	0.552440
C1901	C190	0.189830	0.923790	0.512010
C1911	C191	0.116130	0.902460	0.453770
C1921	C192	0.255420	0.850210	0.620940
N11	N1	0.825250	0.305320	0.121660
N21	N2	0.674750	0.694680	0.621660
N31	N3	0.174750	0.805320	0.378340
N41	N4	0.325250	0.194680	0.878340
N51	N5	0.121660	0.825250	0.305320
N61	N6	0.621660	0.674750	0.694680
N71	N7	0.378340	0.174750	0.805320
N81	N8	0.878340	0.325250	0.194680
N91	N9	0.305320	0.121660	0.825250
N101	N10	0.694680	0.621660	0.674750
N111	N11	0.805320	0.378340	0.174750
N121	N12	0.194680	0.878340	0.325250
N131	N13	0.555320	0.575250	0.628340
N141	N14	0.944680	0.424750	0.128340
N151	N15	0.055320	0.924750	0.371660
N161	N16	0.444680	0.075250	0.871660
N171	N17	0.075250	0.871660	0.444680
N181	N18	0.924750	0.371660	0.055320
N191	N19	0.424750	0.128340	0.944680
N201	N20	0.575250	0.628340	0.555320
N211	N21	0.371660	0.055320	0.924750
N221	N22	0.871660	0.444680	0.075250
N231	N23	0.628340	0.555320	0.575250
N241	N24	0.128340	0.944680	0.424750
O11	O1	0.622570	0.370800	0.956040
O21	O2	0.601500	0.438870	0.003280
O31	O3	0.877430	0.629200	0.456040
O41	O4	0.898500	0.561130	0.503280
O51	O5	0.377430	0.870800	0.543960
O61	O6	0.398500	0.938870	0.496720
O71	O7	0.122570	0.129200	0.043960
O81	O8	0.101500	0.061130	0.996720
O91	O9	0.956040	0.622570	0.370800
O101	O10	0.003280	0.601500	0.438870
O111	O11	0.456040	0.877430	0.629200
O121	O12	0.503280	0.898500	0.561130
O131	O13	0.543960	0.377430	0.870800
O141	O14	0.496720	0.398500	0.938870
O151	O15	0.043960	0.122570	0.129200
O161	O16	0.996720	0.101500	0.061130
O171	O17	0.370800	0.956040	0.622570
O181	O18	0.438870	0.003280	0.601500
O191	O19	0.629200	0.456040	0.877430
O201	O20	0.561130	0.503280	0.898500
O211	O21	0.870800	0.543960	0.377430
O221	O22	0.938870	0.496720	0.398500
O231	O23	0.129200	0.043960	0.122570
O241	O24	0.061130	0.996720	0.101500
O251	O25	0.620800	0.372570	0.793960
O261	O26	0.688870	0.351500	0.746720
O271	O27	0.879200	0.627430	0.293960
O281	O28	0.811130	0.648500	0.246720
O291	O29	0.120800	0.127430	0.206040
O301	O30	0.188870	0.148500	0.253280
O311	O31	0.379200	0.872570	0.706040
O321	O32	0.311130	0.851500	0.753280
O331	O33	0.872570	0.706040	0.379200
O341	O34	0.851500	0.753280	0.311130
O351	O35	0.127430	0.206040	0.120800
O361	O36	0.148500	0.253280	0.188870
O371	O37	0.627430	0.293960	0.879200
O381	O38	0.648500	0.246720	0.811130
O391	O39	0.372570	0.793960	0.620800
O401	O40	0.351500	0.746720	0.688870
O411	O41	0.206040	0.120800	0.127430
O421	O42	0.253280	0.188870	0.148500
O431	O43	0.706040	0.379200	0.872570
O441	O44	0.753280	0.311130	0.851500
O451	O45	0.793960	0.620800	0.372570
O461	O46	0.746720	0.688870	0.351500
O471	O47	0.293960	0.879200	0.627430
O481	O48	0.246720	0.811130	0.648500
