data_PIBPIA_clean_PM
_symmetry_space_group_name_H-M	'P1'
_cell_length_a	26.001000
_cell_length_b	26.001000
_cell_length_c	26.001000
_cell_angle_alpha	90.000000
_cell_angle_beta	90.000000
_cell_angle_gamma	90.000000
_symmetry_Int_Tables_number 1

loop_
_symmetry_equiv_pos_as_xyz
'x,y,z'

loop_
_atom_site_label
_atom_site_type_symbol
_atom_site_fract_x
_atom_site_fract_y
_atom_site_fract_z
Cd11	Cd1	0.875000	0.875000	0.875000
Cd21	Cd2	0.625000	0.125000	0.375000
Cd31	Cd3	0.125000	0.375000	0.625000
Cd41	Cd4	0.375000	0.625000	0.125000
Cd51	Cd5	0.793750	0.793750	0.793750
Cd61	Cd6	0.706250	0.206250	0.293750
Cd71	Cd7	0.206250	0.293750	0.706250
Cd81	Cd8	0.293750	0.706250	0.206250
Cd91	Cd9	0.543750	0.043750	0.456250
Cd101	Cd10	0.956250	0.956250	0.956250
Cd111	Cd11	0.043750	0.456250	0.543750
Cd121	Cd12	0.456250	0.543750	0.043750
H11	H1	0.939300	0.748800	0.939700
H21	H2	0.983300	0.614700	0.822800
H31	H3	0.005900	0.694800	0.954000
H41	H4	0.919500	0.675700	0.802400
H51	H5	0.560700	0.251200	0.439700
H61	H6	0.516700	0.385300	0.322800
H71	H7	0.494100	0.305200	0.454000
H81	H8	0.580500	0.324300	0.302400
H91	H9	0.060700	0.248800	0.560300
H101	H10	0.016700	0.114700	0.677200
H111	H11	0.994100	0.194800	0.546000
H121	H12	0.080500	0.175700	0.697600
H131	H13	0.439300	0.751200	0.060300
H141	H14	0.483300	0.885300	0.177200
H151	H15	0.505900	0.805200	0.046000
H161	H16	0.419500	0.824300	0.197600
H171	H17	0.939700	0.939300	0.748800
H181	H18	0.822800	0.983300	0.614700
H191	H19	0.954000	0.005900	0.694800
H201	H20	0.802400	0.919500	0.675700
H211	H21	0.439700	0.560700	0.251200
H221	H22	0.322800	0.516700	0.385300
H231	H23	0.454000	0.494100	0.305200
H241	H24	0.302400	0.580500	0.324300
H251	H25	0.560300	0.060700	0.248800
H261	H26	0.677200	0.016700	0.114700
H271	H27	0.546000	0.994100	0.194800
H281	H28	0.697600	0.080500	0.175700
H291	H29	0.060300	0.439300	0.751200
H301	H30	0.177200	0.483300	0.885300
H311	H31	0.046000	0.505900	0.805200
H321	H32	0.197600	0.419500	0.824300
H331	H33	0.748800	0.939700	0.939300
H341	H34	0.614700	0.822800	0.983300
H351	H35	0.694800	0.954000	0.005900
H361	H36	0.675700	0.802400	0.919500
H371	H37	0.251200	0.439700	0.560700
H381	H38	0.385300	0.322800	0.516700
H391	H39	0.305200	0.454000	0.494100
H401	H40	0.324300	0.302400	0.580500
H411	H41	0.248800	0.560300	0.060700
H421	H42	0.114700	0.677200	0.016700
H431	H43	0.194800	0.546000	0.994100
H441	H44	0.175700	0.697600	0.080500
H451	H45	0.751200	0.060300	0.439300
H461	H46	0.885300	0.177200	0.483300
H471	H47	0.805200	0.046000	0.505900
H481	H48	0.824300	0.197600	0.419500
H491	H49	0.498800	0.189300	0.310300
H501	H50	0.364700	0.233300	0.427200
H511	H51	0.444800	0.255900	0.296000
H521	H52	0.425700	0.169500	0.447600
H531	H53	0.001200	0.810700	0.810300
H541	H54	0.135300	0.766700	0.927200
H551	H55	0.055200	0.744100	0.796000
H561	H56	0.074300	0.830500	0.947600
H571	H57	0.998800	0.310700	0.689700
H581	H58	0.864700	0.266700	0.572800
H591	H59	0.944800	0.244100	0.704000
H601	H60	0.925700	0.330500	0.552400
H611	H61	0.501200	0.689300	0.189700
H621	H62	0.635300	0.733300	0.072800
H631	H63	0.555200	0.755900	0.204000
H641	H64	0.574300	0.669500	0.052400
H651	H65	0.689300	0.189700	0.501200
H661	H66	0.733300	0.072800	0.635300
H671	H67	0.755900	0.204000	0.555200
H681	H68	0.669500	0.052400	0.574300
H691	H69	0.310700	0.689700	0.998800
H701	H70	0.266700	0.572800	0.864700
H711	H71	0.244100	0.704000	0.944800
H721	H72	0.330500	0.552400	0.925700
H731	H73	0.810700	0.810300	0.001200
H741	H74	0.766700	0.927200	0.135300
H751	H75	0.744100	0.796000	0.055200
H761	H76	0.830500	0.947600	0.074300
H771	H77	0.189300	0.310300	0.498800
H781	H78	0.233300	0.427200	0.364700
H791	H79	0.255900	0.296000	0.444800
H801	H80	0.169500	0.447600	0.425700
H811	H81	0.689700	0.998800	0.310700
H821	H82	0.572800	0.864700	0.266700
H831	H83	0.704000	0.944800	0.244100
H841	H84	0.552400	0.925700	0.330500
H851	H85	0.189700	0.501200	0.689300
H861	H86	0.072800	0.635300	0.733300
H871	H87	0.204000	0.555200	0.755900
H881	H88	0.052400	0.574300	0.669500
H891	H89	0.310300	0.498800	0.189300
H901	H90	0.427200	0.364700	0.233300
H911	H91	0.296000	0.444800	0.255900
H921	H92	0.447600	0.425700	0.169500
H931	H93	0.810300	0.001200	0.810700
H941	H94	0.927200	0.135300	0.766700
H951	H95	0.796000	0.055200	0.744100
H961	H96	0.947600	0.074300	0.830500
C11	C1	0.046000	0.615300	0.902000
C21	C2	0.949200	0.723900	0.916000
C31	C3	0.976300	0.641900	0.844900
C41	C4	0.987400	0.690600	0.923700
C51	C5	0.003800	0.648500	0.890500
C61	C6	0.925600	0.717100	0.867900
C71	C7	0.879500	0.749400	0.845400
C81	C8	0.937300	0.678000	0.833300
C91	C9	0.454000	0.384700	0.402000
C101	C10	0.550800	0.276100	0.416000
C111	C11	0.523700	0.358100	0.344900
C121	C12	0.512600	0.309400	0.423700
C131	C13	0.496200	0.351500	0.390500
C141	C14	0.574400	0.282900	0.367900
C151	C15	0.620500	0.250600	0.345400
C161	C16	0.562700	0.322000	0.333300
C171	C17	0.954000	0.115300	0.598000
C181	C18	0.050800	0.223900	0.584000
C191	C19	0.023700	0.141900	0.655100
C201	C20	0.012600	0.190600	0.576300
C211	C21	0.996200	0.148500	0.609500
C221	C22	0.074400	0.217100	0.632100
C231	C23	0.120500	0.249400	0.654600
C241	C24	0.062700	0.178000	0.666700
C251	C25	0.546000	0.884700	0.098000
C261	C26	0.449200	0.776100	0.084000
C271	C27	0.476300	0.858100	0.155100
C281	C28	0.487400	0.809400	0.076300
C291	C29	0.503800	0.851500	0.109500
C301	C30	0.425600	0.782900	0.132100
C311	C31	0.379500	0.750600	0.154600
C321	C32	0.437300	0.822000	0.166700
C331	C33	0.902000	0.046000	0.615300
C341	C34	0.916000	0.949200	0.723900
C351	C35	0.844900	0.976300	0.641900
C361	C36	0.923700	0.987400	0.690600
C371	C37	0.890500	0.003800	0.648500
C381	C38	0.867900	0.925600	0.717100
C391	C39	0.845400	0.879500	0.749400
C401	C40	0.833300	0.937300	0.678000
C411	C41	0.402000	0.454000	0.384700
C421	C42	0.416000	0.550800	0.276100
C431	C43	0.344900	0.523700	0.358100
C441	C44	0.423700	0.512600	0.309400
C451	C45	0.390500	0.496200	0.351500
C461	C46	0.367900	0.574400	0.282900
C471	C47	0.345400	0.620500	0.250600
C481	C48	0.333300	0.562700	0.322000
C491	C49	0.598000	0.954000	0.115300
C501	C50	0.584000	0.050800	0.223900
C511	C51	0.655100	0.023700	0.141900
C521	C52	0.576300	0.012600	0.190600
C531	C53	0.609500	0.996200	0.148500
C541	C54	0.632100	0.074400	0.217100
C551	C55	0.654600	0.120500	0.249400
C561	C56	0.666700	0.062700	0.178000
C571	C57	0.098000	0.546000	0.884700
C581	C58	0.084000	0.449200	0.776100
C591	C59	0.155100	0.476300	0.858100
C601	C60	0.076300	0.487400	0.809400
C611	C61	0.109500	0.503800	0.851500
C621	C62	0.132100	0.425600	0.782900
C631	C63	0.154600	0.379500	0.750600
C641	C64	0.166700	0.437300	0.822000
C651	C65	0.615300	0.902000	0.046000
C661	C66	0.723900	0.916000	0.949200
C671	C67	0.641900	0.844900	0.976300
C681	C68	0.690600	0.923700	0.987400
C691	C69	0.648500	0.890500	0.003800
C701	C70	0.717100	0.867900	0.925600
C711	C71	0.749400	0.845400	0.879500
C721	C72	0.678000	0.833300	0.937300
C731	C73	0.384700	0.402000	0.454000
C741	C74	0.276100	0.416000	0.550800
C751	C75	0.358100	0.344900	0.523700
C761	C76	0.309400	0.423700	0.512600
C771	C77	0.351500	0.390500	0.496200
C781	C78	0.282900	0.367900	0.574400
C791	C79	0.250600	0.345400	0.620500
C801	C80	0.322000	0.333300	0.562700
C811	C81	0.115300	0.598000	0.954000
C821	C82	0.223900	0.584000	0.050800
C831	C83	0.141900	0.655100	0.023700
C841	C84	0.190600	0.576300	0.012600
C851	C85	0.148500	0.609500	0.996200
C861	C86	0.217100	0.632100	0.074400
C871	C87	0.249400	0.654600	0.120500
C881	C88	0.178000	0.666700	0.062700
C891	C89	0.884700	0.098000	0.546000
C901	C90	0.776100	0.084000	0.449200
C911	C91	0.858100	0.155100	0.476300
C921	C92	0.809400	0.076300	0.487400
C931	C93	0.851500	0.109500	0.503800
C941	C94	0.782900	0.132100	0.425600
C951	C95	0.750600	0.154600	0.379500
C961	C96	0.822000	0.166700	0.437300
C971	C97	0.365300	0.296000	0.348000
C981	C98	0.473900	0.199200	0.334000
C991	C99	0.391900	0.226300	0.405100
C1001	C100	0.440600	0.237400	0.326300
C1011	C101	0.398500	0.253800	0.359500
C1021	C102	0.467100	0.175600	0.382100
C1031	C103	0.499400	0.129500	0.404600
C1041	C104	0.428000	0.187300	0.416700
C1051	C105	0.134700	0.704000	0.848000
C1061	C106	0.026100	0.800800	0.834000
C1071	C107	0.108100	0.773700	0.905100
C1081	C108	0.059400	0.762600	0.826300
C1091	C109	0.101500	0.746200	0.859500
C1101	C110	0.032900	0.824400	0.882100
C1111	C111	0.000600	0.870500	0.904600
C1121	C112	0.072000	0.812700	0.916700
C1131	C113	0.865300	0.204000	0.652000
C1141	C114	0.973900	0.300800	0.666000
C1151	C115	0.891900	0.273700	0.594900
C1161	C116	0.940600	0.262600	0.673700
C1171	C117	0.898500	0.246200	0.640500
C1181	C118	0.967100	0.324400	0.617900
C1191	C119	0.999400	0.370500	0.595400
C1201	C120	0.928000	0.312700	0.583300
C1211	C121	0.634700	0.796000	0.152000
C1221	C122	0.526100	0.699200	0.166000
C1231	C123	0.608100	0.726300	0.094900
C1241	C124	0.559400	0.737400	0.173700
C1251	C125	0.601500	0.753800	0.140500
C1261	C126	0.532900	0.675600	0.117900
C1271	C127	0.500600	0.629500	0.095400
C1281	C128	0.572000	0.687300	0.083300
C1291	C129	0.796000	0.152000	0.634700
C1301	C130	0.699200	0.166000	0.526100
C1311	C131	0.726300	0.094900	0.608100
C1321	C132	0.737400	0.173700	0.559400
C1331	C133	0.753800	0.140500	0.601500
C1341	C134	0.675600	0.117900	0.532900
C1351	C135	0.629500	0.095400	0.500600
C1361	C136	0.687300	0.083300	0.572000
C1371	C137	0.204000	0.652000	0.865300
C1381	C138	0.300800	0.666000	0.973900
C1391	C139	0.273700	0.594900	0.891900
C1401	C140	0.262600	0.673700	0.940600
C1411	C141	0.246200	0.640500	0.898500
C1421	C142	0.324400	0.617900	0.967100
C1431	C143	0.370500	0.595400	0.999400
C1441	C144	0.312700	0.583300	0.928000
C1451	C145	0.704000	0.848000	0.134700
C1461	C146	0.800800	0.834000	0.026100
C1471	C147	0.773700	0.905100	0.108100
C1481	C148	0.762600	0.826300	0.059400
C1491	C149	0.746200	0.859500	0.101500
C1501	C150	0.824400	0.882100	0.032900
C1511	C151	0.870500	0.904600	0.000600
C1521	C152	0.812700	0.916700	0.072000
C1531	C153	0.296000	0.348000	0.365300
C1541	C154	0.199200	0.334000	0.473900
C1551	C155	0.226300	0.405100	0.391900
C1561	C156	0.237400	0.326300	0.440600
C1571	C157	0.253800	0.359500	0.398500
C1581	C158	0.175600	0.382100	0.467100
C1591	C159	0.129500	0.404600	0.499400
C1601	C160	0.187300	0.416700	0.428000
C1611	C161	0.652000	0.865300	0.204000
C1621	C162	0.666000	0.973900	0.300800
C1631	C163	0.594900	0.891900	0.273700
C1641	C164	0.673700	0.940600	0.262600
C1651	C165	0.640500	0.898500	0.246200
C1661	C166	0.617900	0.967100	0.324400
C1671	C167	0.595400	0.999400	0.370500
C1681	C168	0.583300	0.928000	0.312700
C1691	C169	0.152000	0.634700	0.796000
C1701	C170	0.166000	0.526100	0.699200
C1711	C171	0.094900	0.608100	0.726300
C1721	C172	0.173700	0.559400	0.737400
C1731	C173	0.140500	0.601500	0.753800
C1741	C174	0.117900	0.532900	0.675600
C1751	C175	0.095400	0.500600	0.629500
C1761	C176	0.083300	0.572000	0.687300
C1771	C177	0.348000	0.365300	0.296000
C1781	C178	0.334000	0.473900	0.199200
C1791	C179	0.405100	0.391900	0.226300
C1801	C180	0.326300	0.440600	0.237400
C1811	C181	0.359500	0.398500	0.253800
C1821	C182	0.382100	0.467100	0.175600
C1831	C183	0.404600	0.499400	0.129500
C1841	C184	0.416700	0.428000	0.187300
C1851	C185	0.848000	0.134700	0.704000
C1861	C186	0.834000	0.026100	0.800800
C1871	C187	0.905100	0.108100	0.773700
C1881	C188	0.826300	0.059400	0.762600
C1891	C189	0.859500	0.101500	0.746200
C1901	C190	0.882100	0.032900	0.824400
C1911	C191	0.904600	0.000600	0.870500
C1921	C192	0.916700	0.072000	0.812700
N11	N1	0.057000	0.574200	0.873300
N21	N2	0.443000	0.425800	0.373300
N31	N3	0.943000	0.074200	0.626700
N41	N4	0.557000	0.925800	0.126700
N51	N5	0.873300	0.057000	0.574200
N61	N6	0.373300	0.443000	0.425800
N71	N7	0.626700	0.943000	0.074200
N81	N8	0.126700	0.557000	0.925800
N91	N9	0.574200	0.873300	0.057000
N101	N10	0.425800	0.373300	0.443000
N111	N11	0.074200	0.626700	0.943000
N121	N12	0.925800	0.126700	0.557000
N131	N13	0.324200	0.307000	0.376700
N141	N14	0.175800	0.693000	0.876700
N151	N15	0.824200	0.193000	0.623300
N161	N16	0.675800	0.807000	0.123300
N171	N17	0.807000	0.123300	0.675800
N181	N18	0.193000	0.623300	0.824200
N191	N19	0.693000	0.876700	0.175800
N201	N20	0.307000	0.376700	0.324200
N211	N21	0.623300	0.824200	0.193000
N221	N22	0.123300	0.675800	0.807000
N231	N23	0.376700	0.324200	0.307000
N241	N24	0.876700	0.175800	0.693000
O11	O1	0.852800	0.740000	0.810600
O21	O2	0.872300	0.785800	0.875600
O31	O3	0.647200	0.260000	0.310600
O41	O4	0.627700	0.214200	0.375600
O51	O5	0.147200	0.240000	0.689400
O61	O6	0.127700	0.285800	0.624400
O71	O7	0.352800	0.760000	0.189400
O81	O8	0.372300	0.714200	0.124400
O91	O9	0.810600	0.852800	0.740000
O101	O10	0.875600	0.872300	0.785800
O111	O11	0.310600	0.647200	0.260000
O121	O12	0.375600	0.627700	0.214200
O131	O13	0.689400	0.147200	0.240000
O141	O14	0.624400	0.127700	0.285800
O151	O15	0.189400	0.352800	0.760000
O161	O16	0.124400	0.372300	0.714200
O171	O17	0.740000	0.810600	0.852800
O181	O18	0.785800	0.875600	0.872300
O191	O19	0.260000	0.310600	0.647200
O201	O20	0.214200	0.375600	0.627700
O211	O21	0.240000	0.689400	0.147200
O221	O22	0.285800	0.624400	0.127700
O231	O23	0.760000	0.189400	0.352800
O241	O24	0.714200	0.124400	0.372300
O251	O25	0.490000	0.102800	0.439400
O261	O26	0.535800	0.122300	0.374400
O271	O27	0.010000	0.897200	0.939400
O281	O28	0.964200	0.877700	0.874400
O291	O29	0.990000	0.397200	0.560600
O301	O30	0.035800	0.377700	0.625600
O311	O31	0.510000	0.602800	0.060600
O321	O32	0.464200	0.622300	0.125600
O331	O33	0.602800	0.060600	0.510000
O341	O34	0.622300	0.125600	0.464200
O351	O35	0.397200	0.560600	0.990000
O361	O36	0.377700	0.625600	0.035800
O371	O37	0.897200	0.939400	0.010000
O381	O38	0.877700	0.874400	0.964200
O391	O39	0.102800	0.439400	0.490000
O401	O40	0.122300	0.374400	0.535800
O411	O41	0.560600	0.990000	0.397200
O421	O42	0.625600	0.035800	0.377700
O431	O43	0.060600	0.510000	0.602800
O441	O44	0.125600	0.464200	0.622300
O451	O45	0.439400	0.490000	0.102800
O461	O46	0.374400	0.535800	0.122300
O471	O47	0.939400	0.010000	0.897200
O481	O48	0.874400	0.964200	0.877700
