data_PIGHIX01_clean_PM
_symmetry_space_group_name_H-M	'P1'
_cell_length_a	13.333000
_cell_length_b	22.710400
_cell_length_c	18.468100
_cell_angle_alpha	90.000000
_cell_angle_beta	109.127000
_cell_angle_gamma	90.000000
_symmetry_Int_Tables_number 1

loop_
_symmetry_equiv_pos_as_xyz
'x,y,z'

loop_
_atom_site_label
_atom_site_type_symbol
_atom_site_fract_x
_atom_site_fract_y
_atom_site_fract_z
Cu11	Cu1	0.442280	0.262600	0.506710
N11	N1	0.491800	0.262590	0.414900
C11	C1	0.524400	0.306890	0.382200
H11	H1	0.520300	0.345400	0.399800
C21	C2	0.565000	0.298100	0.322100
H21	H2	0.587000	0.330500	0.299500
C31	C3	0.572500	0.243100	0.296400
H31	H3	0.601200	0.237300	0.256700
C41	C4	0.537800	0.194700	0.328700
C51	C5	0.496900	0.206980	0.388220
C61	C6	0.457600	0.160770	0.423000
C71	C7	0.460100	0.102450	0.398700
C81	C8	0.418700	0.059520	0.435300
H41	H4	0.416800	0.019900	0.420300
C91	C9	0.381100	0.075260	0.493000
H51	H5	0.353600	0.046500	0.518100
C101	C10	0.383700	0.134410	0.514700
H61	H6	0.359000	0.144700	0.555200
N21	N2	0.419700	0.176290	0.480160
C111	C11	0.538600	0.134600	0.304600
H71	H7	0.565800	0.125700	0.264900
C121	C12	0.501100	0.091000	0.337900
H81	H8	0.502100	0.052200	0.320600
Cu21	Cu2	0.250660	0.369170	0.507280
N31	N3	0.229600	0.433220	0.429180
C131	C13	0.212000	0.429380	0.354500
H91	H9	0.205200	0.391900	0.331800
C141	C14	0.203300	0.478750	0.308500
H101	H10	0.191000	0.474100	0.255700
C151	C15	0.212400	0.533470	0.339000
H111	H11	0.207000	0.566700	0.307600
C161	C16	0.230000	0.540180	0.418000
C171	C17	0.239500	0.488050	0.460740
C181	C18	0.260400	0.490890	0.541840
C191	C19	0.270000	0.545040	0.578800
C201	C20	0.286900	0.543960	0.658100
H121	H12	0.292200	0.579300	0.685700
C211	C21	0.295300	0.491290	0.694200
H131	H13	0.307000	0.490200	0.747200
C221	C22	0.286700	0.439030	0.653560
H141	H14	0.292700	0.403100	0.679900
N41	N4	0.270200	0.438200	0.578590
C231	C23	0.241300	0.595160	0.457800
H151	H15	0.235800	0.630400	0.430100
C241	C24	0.259400	0.597580	0.533700
H161	H16	0.265300	0.634500	0.557800
Cu31	Cu3	0.062780	0.237270	0.014930
N51	N5	0.075900	0.322810	0.046510
C251	C25	0.105600	0.368270	0.013700
H171	H17	0.133900	0.361600	0.974000
C261	C26	0.096100	0.425880	0.036500
H181	H18	0.118300	0.457400	0.012500
C271	C27	0.054900	0.436620	0.093200
H191	H19	0.048300	0.475600	0.108300
C281	C28	0.021900	0.389620	0.129400
C291	C29	0.034900	0.333010	0.103300
C301	C30	0.001200	0.282690	0.135500
C311	C31	0.957300	0.289100	0.194300
C321	C32	0.928100	0.237700	0.223800
H201	H20	0.897900	0.240000	0.263100
C331	C33	0.943500	0.184800	0.195800
H211	H21	0.925500	0.150000	0.216300
C341	C34	0.986300	0.181920	0.136300
H221	H22	0.996100	0.144800	0.117100
N61	N6	0.013500	0.229160	0.105870
C351	C35	0.978100	0.394800	0.190300
H231	H23	0.971200	0.432300	0.209500
C361	C36	0.946800	0.347500	0.220600
H241	H24	0.917200	0.352800	0.260000
O11	O1	0.389000	0.248100	0.591100
O21	O2	0.264570	0.314670	0.590350
C371	C37	0.322200	0.270600	0.617110
C381	C38	0.308800	0.242010	0.685120
H251	H25	0.337400	0.204200	0.698600
C391	C39	0.258300	0.267290	0.728230
H261	H26	0.228600	0.304800	0.714000
O31	O3	0.450100	0.347800	0.518460
O41	O4	0.580600	0.350640	0.631780
C401	C40	0.516800	0.374930	0.575300
C411	C41	0.518500	0.439800	0.569500
H271	H27	0.538000	0.461900	0.615100
C421	C42	0.493800	0.468670	0.503300
H281	H28	0.466500	0.446800	0.457800
O51	O5	0.239750	0.190430	0.930120
O61	O6	0.117000	0.257450	0.933080
C431	C43	0.183600	0.235390	0.905870
C441	C44	0.195200	0.264840	0.838220
H291	H29	0.165100	0.302400	0.824800
C451	C45	0.246600	0.240400	0.795380
H301	H30	0.277300	0.203100	0.809900
O71	O7	0.055090	0.153000	0.994650
O81	O8	0.915100	0.156510	0.887270
C461	C46	0.983100	0.129320	0.938200
C471	C47	0.980700	0.064470	0.936500
H311	H31	0.959900	0.045500	0.888600
C481	C48	0.006700	0.031390	0.999600
H321	H32	0.035800	0.050500	0.047000
Cu41	Cu4	0.557720	0.762600	0.993290
N71	N7	0.508200	0.762590	0.085100
C491	C49	0.475600	0.806890	0.117800
H331	H33	0.479700	0.845400	0.100200
C501	C50	0.435000	0.798100	0.177900
H341	H34	0.413000	0.830500	0.200500
C511	C51	0.427500	0.743100	0.203600
H351	H35	0.398800	0.737300	0.243300
C521	C52	0.462200	0.694700	0.171300
C531	C53	0.503100	0.706980	0.111780
C541	C54	0.542400	0.660770	0.077000
C551	C55	0.539900	0.602450	0.101300
C561	C56	0.581300	0.559520	0.064700
H361	H36	0.583200	0.519900	0.079700
C571	C57	0.618900	0.575260	0.007000
H371	H37	0.646400	0.546500	0.981900
C581	C58	0.616300	0.634410	0.985300
H381	H38	0.641000	0.644700	0.944800
N81	N8	0.580300	0.676290	0.019840
C591	C59	0.461400	0.634600	0.195400
H391	H39	0.434200	0.625700	0.235100
C601	C60	0.498900	0.591000	0.162100
H401	H40	0.497900	0.552200	0.179400
Cu51	Cu5	0.749340	0.869170	0.992720
N91	N9	0.770400	0.933220	0.070820
C611	C61	0.788000	0.929380	0.145500
H411	H41	0.794800	0.891900	0.168200
C621	C62	0.796700	0.978750	0.191500
H421	H42	0.809000	0.974100	0.244300
C631	C63	0.787600	0.033470	0.161000
H431	H43	0.793000	0.066700	0.192400
C641	C64	0.770000	0.040180	0.082000
C651	C65	0.760500	0.988050	0.039260
C661	C66	0.739600	0.990890	0.958160
C671	C67	0.730000	0.045040	0.921200
C681	C68	0.713100	0.043960	0.841900
H441	H44	0.707800	0.079300	0.814300
C691	C69	0.704700	0.991290	0.805800
H451	H45	0.693000	0.990200	0.752800
C701	C70	0.713300	0.939030	0.846440
H461	H46	0.707300	0.903100	0.820100
N101	N10	0.729800	0.938200	0.921410
C711	C71	0.758700	0.095160	0.042200
H471	H47	0.764200	0.130400	0.069900
C721	C72	0.740600	0.097580	0.966300
H481	H48	0.734700	0.134500	0.942200
Cu61	Cu6	0.937220	0.737270	0.485070
N111	N11	0.924100	0.822810	0.453490
C731	C73	0.894400	0.868270	0.486300
H491	H49	0.866100	0.861600	0.526000
C741	C74	0.903900	0.925880	0.463500
H501	H50	0.881700	0.957400	0.487500
C751	C75	0.945100	0.936620	0.406800
H511	H51	0.951700	0.975600	0.391700
C761	C76	0.978100	0.889620	0.370600
C771	C77	0.965100	0.833010	0.396700
C781	C78	0.998800	0.782690	0.364500
C791	C79	0.042700	0.789100	0.305700
C801	C80	0.071900	0.737700	0.276200
H521	H52	0.102100	0.740000	0.236900
C811	C81	0.056500	0.684800	0.304200
H531	H53	0.074500	0.650000	0.283700
C821	C82	0.013700	0.681920	0.363700
H541	H54	0.003900	0.644800	0.382900
N121	N12	0.986500	0.729160	0.394130
C831	C83	0.021900	0.894800	0.309700
H551	H55	0.028800	0.932300	0.290500
C841	C84	0.053200	0.847500	0.279400
H561	H56	0.082800	0.852800	0.240000
O91	O9	0.611000	0.748100	0.908900
O101	O10	0.735430	0.814670	0.909650
C851	C85	0.677800	0.770600	0.882890
C861	C86	0.691200	0.742010	0.814880
H571	H57	0.662600	0.704200	0.801400
C871	C87	0.741700	0.767290	0.771770
H581	H58	0.771400	0.804800	0.786000
O111	O11	0.549900	0.847800	0.981540
O121	O12	0.419400	0.850640	0.868220
C881	C88	0.483200	0.874930	0.924700
C891	C89	0.481500	0.939800	0.930500
H591	H59	0.462000	0.961900	0.884900
C901	C90	0.506200	0.968670	0.996700
H601	H60	0.533500	0.946800	0.042200
O131	O13	0.760250	0.690430	0.569880
O141	O14	0.883000	0.757450	0.566920
C911	C91	0.816400	0.735390	0.594130
C921	C92	0.804800	0.764840	0.661780
H611	H61	0.834900	0.802400	0.675200
C931	C93	0.753400	0.740400	0.704620
H621	H62	0.722700	0.703100	0.690100
O151	O15	0.944910	0.653000	0.505350
O161	O16	0.084900	0.656510	0.612730
C941	C94	0.016900	0.629320	0.561800
C951	C95	0.019300	0.564470	0.563500
H631	H63	0.040100	0.545500	0.611400
C961	C96	0.993300	0.531390	0.500400
H641	H64	0.964200	0.550500	0.453000
Cu71	Cu7	0.557720	0.737400	0.493290
N131	N13	0.508200	0.737410	0.585100
C971	C97	0.475600	0.693110	0.617800
H651	H65	0.479700	0.654600	0.600200
C981	C98	0.435000	0.701900	0.677900
H661	H66	0.413000	0.669500	0.700500
C991	C99	0.427500	0.756900	0.703600
H671	H67	0.398800	0.762700	0.743300
C1001	C100	0.462200	0.805300	0.671300
C1011	C101	0.503100	0.793020	0.611780
C1021	C102	0.542400	0.839230	0.577000
C1031	C103	0.539900	0.897550	0.601300
C1041	C104	0.581300	0.940480	0.564700
H681	H68	0.583200	0.980100	0.579700
C1051	C105	0.618900	0.924740	0.507000
H691	H69	0.646400	0.953500	0.481900
C1061	C106	0.616300	0.865590	0.485300
H701	H70	0.641000	0.855300	0.444800
N141	N14	0.580300	0.823710	0.519840
C1071	C107	0.461400	0.865400	0.695400
H711	H71	0.434200	0.874300	0.735100
C1081	C108	0.498900	0.909000	0.662100
H721	H72	0.497900	0.947800	0.679400
Cu81	Cu8	0.749340	0.630830	0.492720
N151	N15	0.770400	0.566780	0.570820
C1091	C109	0.788000	0.570620	0.645500
H731	H73	0.794800	0.608100	0.668200
C1101	C110	0.796700	0.521250	0.691500
H741	H74	0.809000	0.525900	0.744300
C1111	C111	0.787600	0.466530	0.661000
H751	H75	0.793000	0.433300	0.692400
C1121	C112	0.770000	0.459820	0.582000
C1131	C113	0.760500	0.511950	0.539260
C1141	C114	0.739600	0.509110	0.458160
C1151	C115	0.730000	0.454960	0.421200
C1161	C116	0.713100	0.456040	0.341900
H761	H76	0.707800	0.420700	0.314300
C1171	C117	0.704700	0.508710	0.305800
H771	H77	0.693000	0.509800	0.252800
C1181	C118	0.713300	0.560970	0.346440
H781	H78	0.707300	0.596900	0.320100
N161	N16	0.729800	0.561800	0.421410
C1191	C119	0.758700	0.404840	0.542200
H791	H79	0.764200	0.369600	0.569900
C1201	C120	0.740600	0.402420	0.466300
H801	H80	0.734700	0.365500	0.442200
Cu91	Cu9	0.937220	0.762730	0.985070
N171	N17	0.924100	0.677190	0.953490
C1211	C121	0.894400	0.631730	0.986300
H811	H81	0.866100	0.638400	0.026000
C1221	C122	0.903900	0.574120	0.963500
H821	H82	0.881700	0.542600	0.987500
C1231	C123	0.945100	0.563380	0.906800
H831	H83	0.951700	0.524400	0.891700
C1241	C124	0.978100	0.610380	0.870600
C1251	C125	0.965100	0.666990	0.896700
C1261	C126	0.998800	0.717310	0.864500
C1271	C127	0.042700	0.710900	0.805700
C1281	C128	0.071900	0.762300	0.776200
H841	H84	0.102100	0.760000	0.736900
C1291	C129	0.056500	0.815200	0.804200
H851	H85	0.074500	0.850000	0.783700
C1301	C130	0.013700	0.818080	0.863700
H861	H86	0.003900	0.855200	0.882900
N181	N18	0.986500	0.770840	0.894130
C1311	C131	0.021900	0.605200	0.809700
H871	H87	0.028800	0.567700	0.790500
C1321	C132	0.053200	0.652500	0.779400
H881	H88	0.082800	0.647200	0.740000
O171	O17	0.611000	0.751900	0.408900
O181	O18	0.735430	0.685330	0.409650
C1331	C133	0.677800	0.729400	0.382890
C1341	C134	0.691200	0.757990	0.314880
H891	H89	0.662600	0.795800	0.301400
C1351	C135	0.741700	0.732710	0.271770
H901	H90	0.771400	0.695200	0.286000
O191	O19	0.549900	0.652200	0.481540
O201	O20	0.419400	0.649360	0.368220
C1361	C136	0.483200	0.625070	0.424700
C1371	C137	0.481500	0.560200	0.430500
H911	H91	0.462000	0.538100	0.384900
C1381	C138	0.506200	0.531330	0.496700
H921	H92	0.533500	0.553200	0.542200
O211	O21	0.760250	0.809570	0.069880
O221	O22	0.883000	0.742550	0.066920
C1391	C139	0.816400	0.764610	0.094130
C1401	C140	0.804800	0.735160	0.161780
H931	H93	0.834900	0.697600	0.175200
C1411	C141	0.753400	0.759600	0.204620
H941	H94	0.722700	0.796900	0.190100
O231	O23	0.944910	0.847000	0.005350
O241	O24	0.084900	0.843490	0.112730
C1421	C142	0.016900	0.870680	0.061800
C1431	C143	0.019300	0.935530	0.063500
H951	H95	0.040100	0.954500	0.111400
C1441	C144	0.993300	0.968610	0.000400
H961	H96	0.964200	0.949500	0.953000
Cu101	Cu10	0.442280	0.237400	0.006710
N191	N19	0.491800	0.237410	0.914900
C1451	C145	0.524400	0.193110	0.882200
H971	H97	0.520300	0.154600	0.899800
C1461	C146	0.565000	0.201900	0.822100
H981	H98	0.587000	0.169500	0.799500
C1471	C147	0.572500	0.256900	0.796400
H991	H99	0.601200	0.262700	0.756700
C1481	C148	0.537800	0.305300	0.828700
C1491	C149	0.496900	0.293020	0.888220
C1501	C150	0.457600	0.339230	0.923000
C1511	C151	0.460100	0.397550	0.898700
C1521	C152	0.418700	0.440480	0.935300
H1001	H100	0.416800	0.480100	0.920300
C1531	C153	0.381100	0.424740	0.993000
H1011	H101	0.353600	0.453500	0.018100
C1541	C154	0.383700	0.365590	0.014700
H1021	H102	0.359000	0.355300	0.055200
N201	N20	0.419700	0.323710	0.980160
C1551	C155	0.538600	0.365400	0.804600
H1031	H103	0.565800	0.374300	0.764900
C1561	C156	0.501100	0.409000	0.837900
H1041	H104	0.502100	0.447800	0.820600
Cu111	Cu11	0.250660	0.130830	0.007280
N211	N21	0.229600	0.066780	0.929180
C1571	C157	0.212000	0.070620	0.854500
H1051	H105	0.205200	0.108100	0.831800
C1581	C158	0.203300	0.021250	0.808500
H1061	H106	0.191000	0.025900	0.755700
C1591	C159	0.212400	0.966530	0.839000
H1071	H107	0.207000	0.933300	0.807600
C1601	C160	0.230000	0.959820	0.918000
C1611	C161	0.239500	0.011950	0.960740
C1621	C162	0.260400	0.009110	0.041840
C1631	C163	0.270000	0.954960	0.078800
C1641	C164	0.286900	0.956040	0.158100
H1081	H108	0.292200	0.920700	0.185700
C1651	C165	0.295300	0.008710	0.194200
H1091	H109	0.307000	0.009800	0.247200
C1661	C166	0.286700	0.060970	0.153560
H1101	H110	0.292700	0.096900	0.179900
N221	N22	0.270200	0.061800	0.078590
C1671	C167	0.241300	0.904840	0.957800
H1111	H111	0.235800	0.869600	0.930100
C1681	C168	0.259400	0.902420	0.033700
H1121	H112	0.265300	0.865500	0.057800
Cu121	Cu12	0.062780	0.262730	0.514930
N231	N23	0.075900	0.177190	0.546510
C1691	C169	0.105600	0.131730	0.513700
H1131	H113	0.133900	0.138400	0.474000
C1701	C170	0.096100	0.074120	0.536500
H1141	H114	0.118300	0.042600	0.512500
C1711	C171	0.054900	0.063380	0.593200
H1151	H115	0.048300	0.024400	0.608300
C1721	C172	0.021900	0.110380	0.629400
C1731	C173	0.034900	0.166990	0.603300
C1741	C174	0.001200	0.217310	0.635500
C1751	C175	0.957300	0.210900	0.694300
C1761	C176	0.928100	0.262300	0.723800
H1161	H116	0.897900	0.260000	0.763100
C1771	C177	0.943500	0.315200	0.695800
H1171	H117	0.925500	0.350000	0.716300
C1781	C178	0.986300	0.318080	0.636300
H1181	H118	0.996100	0.355200	0.617100
N241	N24	0.013500	0.270840	0.605870
C1791	C179	0.978100	0.105200	0.690300
H1191	H119	0.971200	0.067700	0.709500
C1801	C180	0.946800	0.152500	0.720600
H1201	H120	0.917200	0.147200	0.760000
O251	O25	0.389000	0.251900	0.091100
O261	O26	0.264570	0.185330	0.090350
C1811	C181	0.322200	0.229400	0.117110
C1821	C182	0.308800	0.257990	0.185120
H1211	H121	0.337400	0.295800	0.198600
C1831	C183	0.258300	0.232710	0.228230
H1221	H122	0.228600	0.195200	0.214000
O271	O27	0.450100	0.152200	0.018460
O281	O28	0.580600	0.149360	0.131780
C1841	C184	0.516800	0.125070	0.075300
C1851	C185	0.518500	0.060200	0.069500
H1231	H123	0.538000	0.038100	0.115100
C1861	C186	0.493800	0.031330	0.003300
H1241	H124	0.466500	0.053200	0.957800
O291	O29	0.239750	0.309570	0.430120
O301	O30	0.117000	0.242550	0.433080
C1871	C187	0.183600	0.264610	0.405870
C1881	C188	0.195200	0.235160	0.338220
H1251	H125	0.165100	0.197600	0.324800
C1891	C189	0.246600	0.259600	0.295380
H1261	H126	0.277300	0.296900	0.309900
O311	O31	0.055090	0.347000	0.494650
O321	O32	0.915100	0.343490	0.387270
C1901	C190	0.983100	0.370680	0.438200
C1911	C191	0.980700	0.435530	0.436500
H1271	H127	0.959900	0.454500	0.388600
C1921	C192	0.006700	0.468610	0.499600
H1281	H128	0.035800	0.449500	0.547000
