data_PIGXUZ_clean_PM
_symmetry_space_group_name_H-M	'P1'
_cell_length_a	13.840000
_cell_length_b	15.652700
_cell_length_c	20.328200
_cell_angle_alpha	73.336800
_cell_angle_beta	70.097900
_cell_angle_gamma	63.762400
_symmetry_Int_Tables_number 1

loop_
_symmetry_equiv_pos_as_xyz
'x,y,z'

loop_
_atom_site_label
_atom_site_type_symbol
_atom_site_fract_x
_atom_site_fract_y
_atom_site_fract_z
Co11	Co1	0.025020	0.085190	0.505050
Co21	Co2	0.769540	0.145440	0.556640
Co31	Co3	0.615260	0.414810	0.994950
Co41	Co4	0.471620	0.354560	0.943360
Co51	Co5	0.974980	0.914810	0.494950
Co61	Co6	0.230460	0.854560	0.443360
Co71	Co7	0.384740	0.585190	0.005050
Co81	Co8	0.528380	0.645440	0.056640
H11	H1	0.659200	0.187100	0.440300
H21	H2	0.507000	0.179800	0.425200
H31	H3	0.394700	0.134900	0.636700
H41	H4	0.552900	0.138600	0.646200
H51	H5	0.233500	0.173100	0.618300
H61	H6	0.092200	0.143500	0.607700
H71	H7	0.259100	0.070700	0.421100
H81	H8	0.406100	0.098100	0.425900
H91	H9	0.180000	0.215600	0.307800
H101	H10	0.236300	0.324400	0.216800
H111	H11	0.107600	0.449600	0.160200
H121	H12	0.926900	0.463200	0.191600
H131	H13	0.447800	0.385300	0.388700
H141	H14	0.280500	0.368400	0.416400
H151	H15	0.180300	0.421700	0.330700
H161	H16	0.244400	0.499100	0.221300
H171	H17	0.006000	0.361300	0.465500
H181	H18	0.007800	0.513800	0.415800
H191	H19	0.844000	0.642200	0.405200
H201	H20	0.680800	0.620200	0.437200
H211	H21	0.812000	0.322400	0.331400
H221	H22	0.571800	0.488400	0.229400
H231	H23	0.648100	0.403800	0.513000
H241	H24	0.286600	0.312900	0.059700
H251	H25	0.112000	0.320200	0.074800
H261	H26	0.166300	0.365100	0.863300
H271	H27	0.337700	0.361400	0.853800
H281	H28	0.024900	0.326900	0.881700
H291	H29	0.843400	0.356500	0.892300
H301	H30	0.750900	0.429300	0.078900
H311	H31	0.930100	0.401900	0.074100
H321	H32	0.703400	0.284400	0.192200
H331	H33	0.777500	0.175600	0.283200
H341	H34	0.717400	0.050400	0.339800
H351	H35	0.581700	0.036800	0.308400
H361	H36	0.221800	0.114700	0.111300
H371	H37	0.065300	0.131600	0.083600
H381	H38	0.932700	0.078300	0.169300
H391	H39	0.964800	0.000900	0.278700
H401	H40	0.832800	0.138700	0.034500
H411	H41	0.937400	0.986200	0.084200
H421	H42	0.891400	0.857800	0.094800
H431	H43	0.738200	0.879800	0.062800
H441	H44	0.465800	0.177600	0.168600
H451	H45	0.289600	0.011600	0.270600
H461	H46	0.564900	0.096200	0.987000
H471	H47	0.340800	0.812900	0.559700
H481	H48	0.493000	0.820200	0.574800
H491	H49	0.605300	0.865100	0.363300
H501	H50	0.447100	0.861400	0.353800
H511	H51	0.766500	0.826900	0.381700
H521	H52	0.907800	0.856500	0.392300
H531	H53	0.740900	0.929300	0.578900
H541	H54	0.593900	0.901900	0.574100
H551	H55	0.820000	0.784400	0.692200
H561	H56	0.763700	0.675600	0.783200
H571	H57	0.892400	0.550400	0.839800
H581	H58	0.073100	0.536800	0.808400
H591	H59	0.552200	0.614700	0.611300
H601	H60	0.719500	0.631600	0.583600
H611	H61	0.819700	0.578300	0.669300
H621	H62	0.755600	0.500900	0.778700
H631	H63	0.994000	0.638700	0.534500
H641	H64	0.992200	0.486200	0.584200
H651	H65	0.156000	0.357800	0.594800
H661	H66	0.319200	0.379800	0.562800
H671	H67	0.188000	0.677600	0.668600
H681	H68	0.428200	0.511600	0.770600
H691	H69	0.351900	0.596200	0.487000
H701	H70	0.713400	0.687100	0.940300
H711	H71	0.888000	0.679800	0.925200
H721	H72	0.833700	0.634900	0.136700
H731	H73	0.662300	0.638600	0.146200
H741	H74	0.975100	0.673100	0.118300
H751	H75	0.156600	0.643500	0.107700
H761	H76	0.249100	0.570700	0.921100
H771	H77	0.069900	0.598100	0.925900
H781	H78	0.296600	0.715600	0.807800
H791	H79	0.222500	0.824400	0.716800
H801	H80	0.282600	0.949600	0.660200
H811	H81	0.418300	0.963200	0.691600
H821	H82	0.778200	0.885300	0.888700
H831	H83	0.934700	0.868400	0.916400
H841	H84	0.067300	0.921700	0.830700
H851	H85	0.035200	0.999100	0.721300
H861	H86	0.167200	0.861300	0.965500
H871	H87	0.062600	0.013800	0.915800
H881	H88	0.108600	0.142200	0.905200
H891	H89	0.261800	0.120200	0.937200
H901	H90	0.534200	0.822400	0.831400
H911	H91	0.710400	0.988400	0.729400
H921	H92	0.435100	0.903800	0.013000
C11	C1	0.606440	0.174120	0.480200
C21	C2	0.515050	0.170200	0.470700
C31	C3	0.434220	0.151740	0.529620
C41	C4	0.448940	0.142940	0.595980
C51	C5	0.543820	0.146260	0.601300
C61	C6	0.338740	0.137830	0.523090
C71	C7	0.241060	0.151780	0.577900
C81	C8	0.156520	0.133760	0.571000
C91	C9	0.254640	0.090920	0.461200
C101	C10	0.343460	0.107380	0.463700
C111	C11	0.989700	0.195190	0.363210
C121	C12	0.019670	0.270620	0.304440
C131	C13	0.128520	0.264860	0.284300
C141	C14	0.162500	0.330400	0.230200
C151	C15	0.085700	0.404800	0.196200
C161	C16	0.977500	0.412900	0.215100
C171	C17	0.941930	0.346740	0.269200
C181	C18	0.747230	0.413140	0.260000
C191	C19	0.636920	0.403560	0.303400
C201	C20	0.450400	0.448100	0.286900
C211	C21	0.408100	0.406800	0.354400
C221	C22	0.307600	0.397100	0.371100
C231	C23	0.246700	0.430200	0.320200
C241	C24	0.286300	0.475200	0.254600
C251	C25	0.386730	0.486410	0.236130
C261	C26	0.418090	0.540550	0.163870
C271	C27	0.849010	0.296080	0.510300
C281	C28	0.840850	0.397400	0.481300
C291	C29	0.940000	0.413100	0.459900
C301	C30	0.941300	0.504400	0.430600
C311	C31	0.843600	0.580600	0.423600
C321	C32	0.745800	0.567800	0.443200
C331	C33	0.742360	0.476680	0.472200
C341	C34	0.541810	0.524480	0.485500
C351	C35	0.260760	0.325880	0.019800
C361	C36	0.155950	0.329800	0.029300
C371	C37	0.115580	0.348260	0.970380
C381	C38	0.187860	0.357060	0.904020
C391	C39	0.291380	0.353740	0.898700
C401	C40	0.999660	0.362170	0.976910
C411	C41	0.970740	0.348220	0.922100
C421	C42	0.861280	0.366240	0.929000
C431	C43	0.806760	0.409080	0.038800
C441	C44	0.914540	0.392620	0.036300
C451	C45	0.548100	0.304810	0.136790
C461	C46	0.594730	0.229380	0.195560
C471	C47	0.677680	0.235140	0.215700
C481	C48	0.723100	0.169600	0.269800
C491	C49	0.686700	0.095200	0.303800
C501	C50	0.605500	0.087100	0.284900
C511	C51	0.557870	0.153260	0.230800
C521	C52	0.420370	0.086860	0.240000
C531	C53	0.343880	0.096440	0.196600
C541	C54	0.185400	0.051900	0.213100
C551	C55	0.169300	0.093200	0.145600
C561	C56	0.075800	0.102900	0.128900
C571	C57	0.997100	0.069800	0.179800
C581	C58	0.016100	0.024800	0.245400
C591	C59	0.109270	0.013590	0.263870
C601	C60	0.122510	0.959450	0.336130
C611	C61	0.655390	0.203920	0.989700
C621	C62	0.719550	0.102600	0.018700
C631	C63	0.813000	0.086900	0.040100
C641	C64	0.876300	0.995600	0.069400
C651	C65	0.847800	0.919400	0.076400
C661	C66	0.756800	0.932200	0.056800
C671	C67	0.691240	0.023320	0.027800
C681	C68	0.551790	0.975520	0.014500
C691	C69	0.393560	0.825880	0.519800
C701	C70	0.484950	0.829800	0.529300
C711	C71	0.565780	0.848260	0.470380
C721	C72	0.551060	0.857060	0.404020
C731	C73	0.456180	0.853740	0.398700
C741	C74	0.661260	0.862170	0.476910
C751	C75	0.758940	0.848220	0.422100
C761	C76	0.843480	0.866240	0.429000
C771	C77	0.745360	0.909080	0.538800
C781	C78	0.656540	0.892620	0.536300
C791	C79	0.010300	0.804810	0.636790
C801	C80	0.980330	0.729380	0.695560
C811	C81	0.871480	0.735140	0.715700
C821	C82	0.837500	0.669600	0.769800
C831	C83	0.914300	0.595200	0.803800
C841	C84	0.022500	0.587100	0.784900
C851	C85	0.058070	0.653260	0.730800
C861	C86	0.252770	0.586860	0.740000
C871	C87	0.363080	0.596440	0.696600
C881	C88	0.549600	0.551900	0.713100
C891	C89	0.591900	0.593200	0.645600
C901	C90	0.692400	0.602900	0.628900
C911	C91	0.753300	0.569800	0.679800
C921	C92	0.713700	0.524800	0.745400
C931	C93	0.613270	0.513590	0.763870
C941	C94	0.581910	0.459450	0.836130
C951	C95	0.150990	0.703920	0.489700
C961	C96	0.159150	0.602600	0.518700
C971	C97	0.060000	0.586900	0.540100
C981	C98	0.058700	0.495600	0.569400
C991	C99	0.156400	0.419400	0.576400
C1001	C100	0.254200	0.432200	0.556800
C1011	C101	0.257640	0.523320	0.527800
C1021	C102	0.458190	0.475520	0.514500
C1031	C103	0.739240	0.674120	0.980200
C1041	C104	0.844050	0.670200	0.970700
C1051	C105	0.884420	0.651740	0.029620
C1061	C106	0.812140	0.642940	0.095980
C1071	C107	0.708620	0.646260	0.101300
C1081	C108	0.000340	0.637830	0.023090
C1091	C109	0.029260	0.651780	0.077900
C1101	C110	0.138720	0.633760	0.071000
C1111	C111	0.193240	0.590920	0.961200
C1121	C112	0.085460	0.607380	0.963700
C1131	C113	0.451900	0.695190	0.863210
C1141	C114	0.405270	0.770620	0.804440
C1151	C115	0.322320	0.764860	0.784300
C1161	C116	0.276900	0.830400	0.730200
C1171	C117	0.313300	0.904800	0.696200
C1181	C118	0.394500	0.912900	0.715100
C1191	C119	0.442130	0.846740	0.769200
C1201	C120	0.579630	0.913140	0.760000
C1211	C121	0.656120	0.903560	0.803400
C1221	C122	0.814600	0.948100	0.786900
C1231	C123	0.830700	0.906800	0.854400
C1241	C124	0.924200	0.897100	0.871100
C1251	C125	0.002900	0.930200	0.820200
C1261	C126	0.983900	0.975200	0.754600
C1271	C127	0.890730	0.986410	0.736130
C1281	C128	0.877490	0.040550	0.663870
C1291	C129	0.344610	0.796080	0.010300
C1301	C130	0.280450	0.897400	0.981300
C1311	C131	0.187000	0.913100	0.959900
C1321	C132	0.123700	0.004400	0.930600
C1331	C133	0.152200	0.080600	0.923600
C1341	C134	0.243200	0.067800	0.943200
C1351	C135	0.308760	0.976680	0.972200
C1361	C136	0.448210	0.024480	0.985500
N11	N1	0.623310	0.160010	0.544530
N21	N2	0.161890	0.103000	0.514540
N31	N3	0.829830	0.357100	0.291640
N41	N4	0.556370	0.451200	0.268260
N51	N5	0.643400	0.461300	0.492900
N61	N6	0.327850	0.339990	0.955470
N71	N7	0.779430	0.397000	0.985460
N81	N8	0.478570	0.142900	0.208360
N91	N9	0.275830	0.048800	0.231740
N101	N10	0.597600	0.038700	0.007100
N111	N11	0.376690	0.839990	0.455470
N121	N12	0.838110	0.897000	0.485460
N131	N13	0.170170	0.642900	0.708360
N141	N14	0.443630	0.548800	0.731740
N151	N15	0.356600	0.538700	0.507100
N161	N16	0.672150	0.660010	0.044530
N171	N17	0.220570	0.603000	0.014540
N181	N18	0.521430	0.857100	0.791640
N191	N19	0.724170	0.951200	0.768260
N201	N20	0.402400	0.961300	0.992900
O11	O1	0.107120	0.937590	0.506870
O21	O2	0.064970	0.135630	0.394730
O31	O3	0.894130	0.195050	0.378210
O41	O4	0.494950	0.571720	0.151560
O51	O5	0.366050	0.555500	0.119120
O61	O6	0.628830	0.356920	0.363020
O71	O7	0.754120	0.464340	0.202020
O81	O8	0.759910	0.279390	0.530710
O91	O9	0.942160	0.232480	0.513520
O101	O10	0.514570	0.609760	0.460300
O111	O11	0.551580	0.562410	0.993130
O121	O12	0.595330	0.364370	0.105270
O131	O13	0.467390	0.304950	0.121790
O141	O14	0.218230	0.928280	0.348440
O151	O15	0.040670	0.944500	0.380880
O161	O16	0.348770	0.143080	0.136980
O171	O17	0.420480	0.035660	0.297980
O181	O18	0.570010	0.220610	0.969290
O191	O19	0.688160	0.267520	0.986480
O201	O20	0.584630	0.890240	0.039700
O211	O21	0.892880	0.062410	0.493130
O221	O22	0.935030	0.864370	0.605270
O231	O23	0.105870	0.804950	0.621790
O241	O24	0.505050	0.428280	0.848440
O251	O25	0.633950	0.444500	0.880880
O261	O26	0.371170	0.643080	0.636980
O271	O27	0.245880	0.535660	0.797980
O281	O28	0.240090	0.720610	0.469290
O291	O29	0.057840	0.767520	0.486480
O301	O30	0.485430	0.390240	0.539700
O311	O31	0.448420	0.437590	0.006870
O321	O32	0.404670	0.635630	0.894730
O331	O33	0.532610	0.695050	0.878210
O341	O34	0.781770	0.071720	0.651560
O351	O35	0.959330	0.055500	0.619120
O361	O36	0.651230	0.856920	0.863020
O371	O37	0.579520	0.964340	0.702020
O381	O38	0.429990	0.779390	0.030710
O391	O39	0.311840	0.732480	0.013520
O401	O40	0.415370	0.109760	0.960300
