data_PIKBUH_clean_PM
_symmetry_space_group_name_H-M	'P1'
_cell_length_a	7.056000
_cell_length_b	15.011700
_cell_length_c	23.077600
_cell_angle_alpha	90.000000
_cell_angle_beta	90.000000
_cell_angle_gamma	93.415000
_symmetry_Int_Tables_number 1

loop_
_symmetry_equiv_pos_as_xyz
'x,y,z'

loop_
_atom_site_label
_atom_site_type_symbol
_atom_site_fract_x
_atom_site_fract_y
_atom_site_fract_z
Rb11	Rb1	0.712870	0.993190	0.433480
Rb21	Rb2	0.611410	0.783350	0.040850
Rb31	Rb3	0.998560	0.392920	0.127900
Rb41	Rb4	0.787130	0.006810	0.933480
Rb51	Rb5	0.888590	0.216650	0.540850
Rb61	Rb6	0.501440	0.607080	0.627900
Rb71	Rb7	0.287130	0.006810	0.566520
Rb81	Rb8	0.388590	0.216650	0.959150
Rb91	Rb9	0.001440	0.607080	0.872100
Rb101	Rb10	0.212870	0.993190	0.066520
Rb111	Rb11	0.111410	0.783350	0.459150
Rb121	Rb12	0.498560	0.392920	0.372100
H11	H1	0.810000	0.150000	0.355000
H21	H2	0.641000	0.617000	0.142000
H31	H3	0.492400	0.851200	0.282800
H41	H4	0.738400	0.215600	0.154400
H51	H5	0.661400	0.608100	0.333400
H61	H6	0.997000	0.795000	0.957000
H71	H7	0.971000	0.726000	0.996000
H81	H8	0.608000	0.400000	0.124000
H91	H9	0.474000	0.329000	0.126000
H101	H10	0.751000	0.424000	0.257000
H111	H11	0.767700	0.960600	0.270300
H121	H12	0.516000	0.809500	0.186500
H131	H13	0.743000	0.947100	0.169300
H141	H14	0.690000	0.850000	0.855000
H151	H15	0.859000	0.383000	0.642000
H161	H16	0.007600	0.148800	0.782800
H171	H17	0.761600	0.784400	0.654400
H181	H18	0.838600	0.391900	0.833400
H191	H19	0.503000	0.205000	0.457000
H201	H20	0.529000	0.274000	0.496000
H211	H21	0.892000	0.600000	0.624000
H221	H22	0.026000	0.671000	0.626000
H231	H23	0.749000	0.576000	0.757000
H241	H24	0.732300	0.039400	0.770300
H251	H25	0.984000	0.190500	0.686500
H261	H26	0.757000	0.052900	0.669300
H271	H27	0.190000	0.850000	0.645000
H281	H28	0.359000	0.383000	0.858000
H291	H29	0.507600	0.148800	0.717200
H301	H30	0.261600	0.784400	0.845600
H311	H31	0.338600	0.391900	0.666600
H321	H32	0.003000	0.205000	0.043000
H331	H33	0.029000	0.274000	0.004000
H341	H34	0.392000	0.600000	0.876000
H351	H35	0.526000	0.671000	0.874000
H361	H36	0.249000	0.576000	0.743000
H371	H37	0.232300	0.039400	0.729700
H381	H38	0.484000	0.190500	0.813500
H391	H39	0.257000	0.052900	0.830700
H401	H40	0.310000	0.150000	0.145000
H411	H41	0.141000	0.617000	0.358000
H421	H42	0.992400	0.851200	0.217200
H431	H43	0.238400	0.215600	0.345600
H441	H44	0.161400	0.608100	0.166600
H451	H45	0.497000	0.795000	0.543000
H461	H46	0.471000	0.726000	0.504000
H471	H47	0.108000	0.400000	0.376000
H481	H48	0.974000	0.329000	0.374000
H491	H49	0.251000	0.424000	0.243000
H501	H50	0.267700	0.960600	0.229700
H511	H51	0.016000	0.809500	0.313500
H521	H52	0.243000	0.947100	0.330700
C11	C1	0.762600	0.174000	0.238400
C21	C2	0.643100	0.623000	0.245100
C31	C3	0.763600	0.096400	0.271900
C41	C4	0.601300	0.684400	0.202300
C51	C5	0.759800	0.012200	0.246800
C61	C6	0.545500	0.768900	0.216400
C71	C7	0.744300	0.004400	0.186800
C81	C8	0.533100	0.793800	0.273200
C91	C9	0.730700	0.079100	0.152400
C101	C10	0.580900	0.734200	0.318100
C111	C11	0.743200	0.164100	0.178100
C121	C12	0.632800	0.649000	0.303600
C131	C13	0.774100	0.264000	0.265000
C141	C14	0.700100	0.533200	0.230400
C151	C15	0.737400	0.826000	0.738400
C161	C16	0.856900	0.377000	0.745100
C171	C17	0.736400	0.903600	0.771900
C181	C18	0.898700	0.315600	0.702300
C191	C19	0.740200	0.987800	0.746800
C201	C20	0.954500	0.231100	0.716400
C211	C21	0.755700	0.995600	0.686800
C221	C22	0.966900	0.206200	0.773200
C231	C23	0.769300	0.920900	0.652400
C241	C24	0.919100	0.265800	0.818100
C251	C25	0.756800	0.835900	0.678100
C261	C26	0.867200	0.351000	0.803600
C271	C27	0.725900	0.736000	0.765000
C281	C28	0.799900	0.466800	0.730400
C291	C29	0.237400	0.826000	0.761600
C301	C30	0.356900	0.377000	0.754900
C311	C31	0.236400	0.903600	0.728100
C321	C32	0.398700	0.315600	0.797700
C331	C33	0.240200	0.987800	0.753200
C341	C34	0.454500	0.231100	0.783600
C351	C35	0.255700	0.995600	0.813200
C361	C36	0.466900	0.206200	0.726800
C371	C37	0.269300	0.920900	0.847600
C381	C38	0.419100	0.265800	0.681900
C391	C39	0.256800	0.835900	0.821900
C401	C40	0.367200	0.351000	0.696400
C411	C41	0.225900	0.736000	0.735000
C421	C42	0.299900	0.466800	0.769600
C431	C43	0.262600	0.174000	0.261600
C441	C44	0.143100	0.623000	0.254900
C451	C45	0.263600	0.096400	0.228100
C461	C46	0.101300	0.684400	0.297700
C471	C47	0.259800	0.012200	0.253200
C481	C48	0.045500	0.768900	0.283600
C491	C49	0.244300	0.004400	0.313200
C501	C50	0.033100	0.793800	0.226800
C511	C51	0.230700	0.079100	0.347600
C521	C52	0.080900	0.734200	0.181900
C531	C53	0.243200	0.164100	0.321900
C541	C54	0.132800	0.649000	0.196400
C551	C55	0.274100	0.264000	0.235000
C561	C56	0.200100	0.533200	0.269600
S11	S1	0.695400	0.070600	0.077470
S21	S2	0.585400	0.773160	0.389250
S31	S3	0.804600	0.929400	0.577470
S41	S4	0.914600	0.226840	0.889250
S51	S5	0.304600	0.929400	0.922530
S61	S6	0.414600	0.226840	0.610750
S71	S7	0.195400	0.070600	0.422530
S81	S8	0.085400	0.773160	0.110750
O11	O1	0.938800	0.739600	0.959700
O21	O2	0.770800	0.101000	0.331100
O31	O3	0.611300	0.664400	0.144900
O41	O4	0.563400	0.353800	0.101600
O51	O5	0.625900	0.979300	0.066300
O61	O6	0.444000	0.838900	0.393800
O71	O7	0.559500	0.135500	0.062000
O81	O8	0.776400	0.812800	0.399300
O91	O9	0.881200	0.090400	0.050300
O101	O10	0.540700	0.695000	0.425600
O111	O11	0.787500	0.330600	0.231400
O121	O12	0.728600	0.478500	0.271900
O131	O13	0.768400	0.270000	0.319400
O141	O14	0.717700	0.511900	0.177600
O151	O15	0.561200	0.260400	0.459700
O161	O16	0.729200	0.899000	0.831100
O171	O17	0.888700	0.335600	0.644900
O181	O18	0.936600	0.646200	0.601600
O191	O19	0.874100	0.020700	0.566300
O201	O20	0.056000	0.161100	0.893800
O211	O21	0.940500	0.864500	0.562000
O221	O22	0.723600	0.187200	0.899300
O231	O23	0.618800	0.909600	0.550300
O241	O24	0.959300	0.305000	0.925600
O251	O25	0.712500	0.669400	0.731400
O261	O26	0.771400	0.521500	0.771900
O271	O27	0.731600	0.730000	0.819400
O281	O28	0.782300	0.488100	0.677600
O291	O29	0.061200	0.260400	0.040300
O301	O30	0.229200	0.899000	0.668900
O311	O31	0.388700	0.335600	0.855100
O321	O32	0.436600	0.646200	0.898400
O331	O33	0.374100	0.020700	0.933700
O341	O34	0.556000	0.161100	0.606200
O351	O35	0.440500	0.864500	0.938000
O361	O36	0.223600	0.187200	0.600700
O371	O37	0.118800	0.909600	0.949700
O381	O38	0.459300	0.305000	0.574400
O391	O39	0.212500	0.669400	0.768600
O401	O40	0.271400	0.521500	0.728100
O411	O41	0.231600	0.730000	0.680600
O421	O42	0.282300	0.488100	0.822400
O431	O43	0.438800	0.739600	0.540300
O441	O44	0.270800	0.101000	0.168900
O451	O45	0.111300	0.664400	0.355100
O461	O46	0.063400	0.353800	0.398400
O471	O47	0.125900	0.979300	0.433700
O481	O48	0.944000	0.838900	0.106200
O491	O49	0.059500	0.135500	0.438000
O501	O50	0.276400	0.812800	0.100700
O511	O51	0.381200	0.090400	0.449700
O521	O52	0.040700	0.695000	0.074400
O531	O53	0.287500	0.330600	0.268600
O541	O54	0.228600	0.478500	0.228100
O551	O55	0.268400	0.270000	0.180600
O561	O56	0.217700	0.511900	0.322400
