data_PIQMUZ_clean_PM
_symmetry_space_group_name_H-M	'P1'
_cell_length_a	35.750700
_cell_length_b	16.325700
_cell_length_c	13.155900
_cell_angle_alpha	90.000000
_cell_angle_beta	90.000000
_cell_angle_gamma	90.000000
_symmetry_Int_Tables_number 1

loop_
_symmetry_equiv_pos_as_xyz
'x,y,z'

loop_
_atom_site_label
_atom_site_type_symbol
_atom_site_fract_x
_atom_site_fract_y
_atom_site_fract_z
C11	C1	0.749500	0.325400	0.879700
C21	C2	0.789920	0.229600	0.795300
H11	H1	0.796000	0.199500	0.737500
C31	C3	0.651390	0.432100	0.135100
C41	C4	0.812850	0.224000	0.882700
O11	O1	0.611690	0.736000	0.279400
H21	H2	0.602800	0.748900	0.224200
C51	C5	0.801920	0.266100	0.968700
H31	H3	0.815700	0.260300	0.028200
O21	O2	0.535340	0.552200	0.487200
C61	C6	0.848100	0.175000	0.878400
C71	C7	0.667140	0.457900	0.653200
H41	H4	0.643600	0.452500	0.623700
C81	C8	0.658450	0.654500	0.354500
C91	C9	0.854930	0.118500	0.801400
H51	H5	0.836800	0.109600	0.751800
C101	C10	0.580930	0.476400	0.391200
C111	C11	0.914970	0.085700	0.869700
C121	C12	0.710890	0.420400	0.783100
C131	C13	0.682450	0.558800	0.518900
O31	O3	0.662710	0.707700	0.186200
C141	C14	0.758620	0.279100	0.794500
H61	H6	0.743600	0.281500	0.736900
C151	C15	0.685950	0.334400	0.029800
H71	H7	0.693900	0.280900	0.018500
C161	C16	0.693970	0.620900	0.354200
H81	H8	0.709900	0.629400	0.299300
C171	C17	0.696580	0.395900	0.962900
C181	C18	0.609790	0.419200	0.396400
H91	H9	0.613600	0.389800	0.456100
C191	C19	0.770730	0.316900	0.968200
H101	H10	0.764000	0.345200	0.026800
C201	C20	0.729640	0.509000	0.645600
H111	H11	0.748200	0.538500	0.612400
C211	C21	0.888220	0.075400	0.797400
H121	H12	0.892400	0.038800	0.744400
C221	C22	0.646890	0.596100	0.518800
H131	H13	0.630900	0.589000	0.573800
C231	C23	0.645230	0.701000	0.265300
C241	C24	0.705730	0.574500	0.436500
H141	H14	0.729900	0.553200	0.436600
C251	C25	0.663520	0.351900	0.113600
H151	H15	0.656400	0.309400	0.156500
N11	N1	0.718640	0.379200	0.877300
C261	C26	0.675060	0.415700	0.741900
H161	H16	0.656700	0.384600	0.773600
C271	C27	0.635720	0.643400	0.436900
H171	H17	0.612300	0.668200	0.437900
C281	C28	0.738400	0.466100	0.733600
H181	H18	0.762600	0.467900	0.759600
C291	C29	0.627290	0.448500	0.223900
C301	C30	0.684650	0.476600	0.981700
H191	H19	0.691900	0.518600	0.938200
C311	C31	0.875350	0.184700	0.953700
H201	H20	0.871500	0.221300	0.006900
C321	C32	0.632770	0.406000	0.313300
H211	H21	0.652100	0.368000	0.317800
O41	O4	0.956780	0.994900	0.783300
C331	C33	0.908290	0.139200	0.948600
H221	H22	0.926100	0.145100	0.999500
C341	C34	0.693770	0.508400	0.606700
C351	C35	0.575620	0.520400	0.302700
H231	H23	0.556700	0.559400	0.299100
O51	O5	0.971770	0.043200	0.939800
C361	C36	0.598700	0.506300	0.217600
H241	H24	0.594900	0.535400	0.157700
C371	C37	0.949950	0.038200	0.861600
C381	C38	0.661800	0.493900	0.065900
H251	H25	0.653500	0.547200	0.076300
O61	O6	0.556530	0.440200	0.555600
C391	C39	0.556000	0.490900	0.481400
C401	C40	0.250500	0.674600	0.879700
C411	C41	0.210080	0.770400	0.795300
H261	H26	0.204000	0.800500	0.737500
C421	C42	0.348610	0.567900	0.135100
C431	C43	0.187150	0.776000	0.882700
O71	O7	0.388310	0.264000	0.279400
H271	H27	0.397200	0.251100	0.224200
C441	C44	0.198080	0.733900	0.968700
H281	H28	0.184300	0.739700	0.028200
O81	O8	0.464660	0.447800	0.487200
C451	C45	0.151900	0.825000	0.878400
C461	C46	0.332860	0.542100	0.653200
H291	H29	0.356400	0.547500	0.623700
C471	C47	0.341550	0.345500	0.354500
C481	C48	0.145070	0.881500	0.801400
H301	H30	0.163200	0.890400	0.751800
C491	C49	0.419070	0.523600	0.391200
C501	C50	0.085030	0.914300	0.869700
C511	C51	0.289110	0.579600	0.783100
C521	C52	0.317550	0.441200	0.518900
O91	O9	0.337290	0.292300	0.186200
C531	C53	0.241380	0.720900	0.794500
H311	H31	0.256400	0.718500	0.736900
C541	C54	0.314050	0.665600	0.029800
H321	H32	0.306100	0.719100	0.018500
C551	C55	0.306030	0.379100	0.354200
H331	H33	0.290100	0.370600	0.299300
C561	C56	0.303420	0.604100	0.962900
C571	C57	0.390210	0.580800	0.396400
H341	H34	0.386400	0.610200	0.456100
C581	C58	0.229270	0.683100	0.968200
H351	H35	0.236000	0.654800	0.026800
C591	C59	0.270360	0.491000	0.645600
H361	H36	0.251800	0.461500	0.612400
C601	C60	0.111780	0.924600	0.797400
H371	H37	0.107600	0.961200	0.744400
C611	C61	0.353110	0.403900	0.518800
H381	H38	0.369100	0.411000	0.573800
C621	C62	0.354770	0.299000	0.265300
C631	C63	0.294270	0.425500	0.436500
H391	H39	0.270100	0.446800	0.436600
C641	C64	0.336480	0.648100	0.113600
H401	H40	0.343600	0.690600	0.156500
N21	N2	0.281360	0.620800	0.877300
C651	C65	0.324940	0.584300	0.741900
H411	H41	0.343300	0.615400	0.773600
C661	C66	0.364280	0.356600	0.436900
H421	H42	0.387700	0.331800	0.437900
C671	C67	0.261600	0.533900	0.733600
H431	H43	0.237400	0.532100	0.759600
C681	C68	0.372710	0.551500	0.223900
C691	C69	0.315350	0.523400	0.981700
H441	H44	0.308100	0.481400	0.938200
C701	C70	0.124650	0.815300	0.953700
H451	H45	0.128500	0.778700	0.006900
C711	C71	0.367230	0.594000	0.313300
H461	H46	0.347900	0.632000	0.317800
O101	O10	0.043220	0.005100	0.783300
C721	C72	0.091710	0.860800	0.948600
H471	H47	0.073900	0.854900	0.999500
C731	C73	0.306230	0.491600	0.606700
C741	C74	0.424380	0.479600	0.302700
H481	H48	0.443300	0.440600	0.299100
O111	O11	0.028230	0.956800	0.939800
C751	C75	0.401300	0.493700	0.217600
H491	H49	0.405100	0.464600	0.157700
C761	C76	0.050050	0.961800	0.861600
C771	C77	0.338200	0.506100	0.065900
H501	H50	0.346500	0.452800	0.076300
O121	O12	0.443470	0.559800	0.555600
C781	C78	0.444000	0.509100	0.481400
C791	C79	0.249500	0.174600	0.879700
C801	C80	0.289920	0.270400	0.795300
H511	H51	0.296000	0.300500	0.737500
C811	C81	0.151390	0.067900	0.135100
C821	C82	0.312850	0.276000	0.882700
O131	O13	0.111690	0.764000	0.279400
H521	H52	0.102800	0.751100	0.224200
C831	C83	0.301920	0.233900	0.968700
H531	H53	0.315700	0.239700	0.028200
O141	O14	0.035340	0.947800	0.487200
C841	C84	0.348100	0.325000	0.878400
C851	C85	0.167140	0.042100	0.653200
H541	H54	0.143600	0.047500	0.623700
C861	C86	0.158450	0.845500	0.354500
C871	C87	0.354930	0.381500	0.801400
H551	H55	0.336800	0.390400	0.751800
C881	C88	0.080930	0.023600	0.391200
C891	C89	0.414970	0.414300	0.869700
C901	C90	0.210890	0.079600	0.783100
C911	C91	0.182450	0.941200	0.518900
O151	O15	0.162710	0.792300	0.186200
C921	C92	0.258620	0.220900	0.794500
H561	H56	0.243600	0.218500	0.736900
C931	C93	0.185950	0.165600	0.029800
H571	H57	0.193900	0.219100	0.018500
C941	C94	0.193970	0.879100	0.354200
H581	H58	0.209900	0.870600	0.299300
C951	C95	0.196580	0.104100	0.962900
C961	C96	0.109790	0.080800	0.396400
H591	H59	0.113600	0.110200	0.456100
C971	C97	0.270730	0.183100	0.968200
H601	H60	0.264000	0.154800	0.026800
C981	C98	0.229640	0.991000	0.645600
H611	H61	0.248200	0.961500	0.612400
C991	C99	0.388220	0.424600	0.797400
H621	H62	0.392400	0.461200	0.744400
C1001	C100	0.146890	0.903900	0.518800
H631	H63	0.130900	0.911000	0.573800
C1011	C101	0.145230	0.799000	0.265300
C1021	C102	0.205730	0.925500	0.436500
H641	H64	0.229900	0.946800	0.436600
C1031	C103	0.163520	0.148100	0.113600
H651	H65	0.156400	0.190600	0.156500
N31	N3	0.218640	0.120800	0.877300
C1041	C104	0.175060	0.084300	0.741900
H661	H66	0.156700	0.115400	0.773600
C1051	C105	0.135720	0.856600	0.436900
H671	H67	0.112300	0.831800	0.437900
C1061	C106	0.238400	0.033900	0.733600
H681	H68	0.262600	0.032100	0.759600
C1071	C107	0.127290	0.051500	0.223900
C1081	C108	0.184650	0.023400	0.981700
H691	H69	0.191900	0.981400	0.938200
C1091	C109	0.375350	0.315300	0.953700
H701	H70	0.371500	0.278700	0.006900
C1101	C110	0.132770	0.094000	0.313300
H711	H71	0.152100	0.132000	0.317800
O161	O16	0.456780	0.505100	0.783300
C1111	C111	0.408290	0.360800	0.948600
H721	H72	0.426100	0.354900	0.999500
C1121	C112	0.193770	0.991600	0.606700
C1131	C113	0.075620	0.979600	0.302700
H731	H73	0.056700	0.940600	0.299100
O171	O17	0.471770	0.456800	0.939800
C1141	C114	0.098700	0.993700	0.217600
H741	H74	0.094900	0.964600	0.157700
C1151	C115	0.449950	0.461800	0.861600
C1161	C116	0.161800	0.006100	0.065900
H751	H75	0.153500	0.952800	0.076300
O181	O18	0.056530	0.059800	0.555600
C1171	C117	0.056000	0.009100	0.481400
C1181	C118	0.750500	0.825400	0.879700
C1191	C119	0.710080	0.729600	0.795300
H761	H76	0.704000	0.699500	0.737500
C1201	C120	0.848610	0.932100	0.135100
C1211	C121	0.687150	0.724000	0.882700
O191	O19	0.888310	0.236000	0.279400
H771	H77	0.897200	0.248900	0.224200
C1221	C122	0.698080	0.766100	0.968700
H781	H78	0.684300	0.760300	0.028200
O201	O20	0.964660	0.052200	0.487200
C1231	C123	0.651900	0.675000	0.878400
C1241	C124	0.832860	0.957900	0.653200
H791	H79	0.856400	0.952500	0.623700
C1251	C125	0.841550	0.154500	0.354500
C1261	C126	0.645070	0.618500	0.801400
H801	H80	0.663200	0.609600	0.751800
C1271	C127	0.919070	0.976400	0.391200
C1281	C128	0.585030	0.585700	0.869700
C1291	C129	0.789110	0.920400	0.783100
C1301	C130	0.817550	0.058800	0.518900
O211	O21	0.837290	0.207700	0.186200
C1311	C131	0.741380	0.779100	0.794500
H811	H81	0.756400	0.781500	0.736900
C1321	C132	0.814050	0.834400	0.029800
H821	H82	0.806100	0.780900	0.018500
C1331	C133	0.806030	0.120900	0.354200
H831	H83	0.790100	0.129400	0.299300
C1341	C134	0.803420	0.895900	0.962900
C1351	C135	0.890210	0.919200	0.396400
H841	H84	0.886400	0.889800	0.456100
C1361	C136	0.729270	0.816900	0.968200
H851	H85	0.736000	0.845200	0.026800
C1371	C137	0.770360	0.009000	0.645600
H861	H86	0.751800	0.038500	0.612400
C1381	C138	0.611780	0.575400	0.797400
H871	H87	0.607600	0.538800	0.744400
C1391	C139	0.853110	0.096100	0.518800
H881	H88	0.869100	0.089000	0.573800
C1401	C140	0.854770	0.201000	0.265300
C1411	C141	0.794270	0.074500	0.436500
H891	H89	0.770100	0.053200	0.436600
C1421	C142	0.836480	0.851900	0.113600
H901	H90	0.843600	0.809400	0.156500
N41	N4	0.781360	0.879200	0.877300
C1431	C143	0.824940	0.915700	0.741900
H911	H91	0.843300	0.884600	0.773600
C1441	C144	0.864280	0.143400	0.436900
H921	H92	0.887700	0.168200	0.437900
C1451	C145	0.761600	0.966100	0.733600
H931	H93	0.737400	0.967900	0.759600
C1461	C146	0.872710	0.948500	0.223900
C1471	C147	0.815350	0.976600	0.981700
H941	H94	0.808100	0.018600	0.938200
C1481	C148	0.624650	0.684700	0.953700
H951	H95	0.628500	0.721300	0.006900
C1491	C149	0.867230	0.906000	0.313300
H961	H96	0.847900	0.868000	0.317800
O221	O22	0.543220	0.494900	0.783300
C1501	C150	0.591710	0.639200	0.948600
H971	H97	0.573900	0.645100	0.999500
C1511	C151	0.806230	0.008400	0.606700
C1521	C152	0.924380	0.020400	0.302700
H981	H98	0.943300	0.059400	0.299100
O231	O23	0.528230	0.543200	0.939800
C1531	C153	0.901300	0.006300	0.217600
H991	H99	0.905100	0.035400	0.157700
C1541	C154	0.550050	0.538200	0.861600
C1551	C155	0.838200	0.993900	0.065900
H1001	H100	0.846500	0.047200	0.076300
O241	O24	0.943470	0.940200	0.555600
C1561	C156	0.944000	0.990900	0.481400
Ce11	Ce1	0.000000	0.000000	0.640790
Ce21	Ce2	0.500000	0.500000	0.640790
C1571	C157	0.749500	0.825400	0.379700
C1581	C158	0.789920	0.729600	0.295300
H1011	H101	0.796000	0.699500	0.237500
C1591	C159	0.651390	0.932100	0.635100
C1601	C160	0.812850	0.724000	0.382700
O251	O25	0.611690	0.236000	0.779400
H1021	H102	0.602800	0.248900	0.724200
C1611	C161	0.801920	0.766100	0.468700
H1031	H103	0.815700	0.760300	0.528200
O261	O26	0.535340	0.052200	0.987200
C1621	C162	0.848100	0.675000	0.378400
C1631	C163	0.667140	0.957900	0.153200
H1041	H104	0.643600	0.952500	0.123700
C1641	C164	0.658450	0.154500	0.854500
C1651	C165	0.854930	0.618500	0.301400
H1051	H105	0.836800	0.609600	0.251800
C1661	C166	0.580930	0.976400	0.891200
C1671	C167	0.914970	0.585700	0.369700
C1681	C168	0.710890	0.920400	0.283100
C1691	C169	0.682450	0.058800	0.018900
O271	O27	0.662710	0.207700	0.686200
C1701	C170	0.758620	0.779100	0.294500
H1061	H106	0.743600	0.781500	0.236900
C1711	C171	0.685950	0.834400	0.529800
H1071	H107	0.693900	0.780900	0.518500
C1721	C172	0.693970	0.120900	0.854200
H1081	H108	0.709900	0.129400	0.799300
C1731	C173	0.696580	0.895900	0.462900
C1741	C174	0.609790	0.919200	0.896400
H1091	H109	0.613600	0.889800	0.956100
C1751	C175	0.770730	0.816900	0.468200
H1101	H110	0.764000	0.845200	0.526800
C1761	C176	0.729640	0.009000	0.145600
H1111	H111	0.748200	0.038500	0.112400
C1771	C177	0.888220	0.575400	0.297400
H1121	H112	0.892400	0.538800	0.244400
C1781	C178	0.646890	0.096100	0.018800
H1131	H113	0.630900	0.089000	0.073800
C1791	C179	0.645230	0.201000	0.765300
C1801	C180	0.705730	0.074500	0.936500
H1141	H114	0.729900	0.053200	0.936600
C1811	C181	0.663520	0.851900	0.613600
H1151	H115	0.656400	0.809400	0.656500
N51	N5	0.718640	0.879200	0.377300
C1821	C182	0.675060	0.915700	0.241900
H1161	H116	0.656700	0.884600	0.273600
C1831	C183	0.635720	0.143400	0.936900
H1171	H117	0.612300	0.168200	0.937900
C1841	C184	0.738400	0.966100	0.233600
H1181	H118	0.762600	0.967900	0.259600
C1851	C185	0.627290	0.948500	0.723900
C1861	C186	0.684650	0.976600	0.481700
H1191	H119	0.691900	0.018600	0.438200
C1871	C187	0.875350	0.684700	0.453700
H1201	H120	0.871500	0.721300	0.506900
C1881	C188	0.632770	0.906000	0.813300
H1211	H121	0.652100	0.868000	0.817800
O281	O28	0.956780	0.494900	0.283300
C1891	C189	0.908290	0.639200	0.448600
H1221	H122	0.926100	0.645100	0.499500
C1901	C190	0.693770	0.008400	0.106700
C1911	C191	0.575620	0.020400	0.802700
H1231	H123	0.556700	0.059400	0.799100
O291	O29	0.971770	0.543200	0.439800
C1921	C192	0.598700	0.006300	0.717600
H1241	H124	0.594900	0.035400	0.657700
C1931	C193	0.949950	0.538200	0.361600
C1941	C194	0.661800	0.993900	0.565900
H1251	H125	0.653500	0.047200	0.576300
O301	O30	0.556530	0.940200	0.055600
C1951	C195	0.556000	0.990900	0.981400
C1961	C196	0.250500	0.174600	0.379700
C1971	C197	0.210080	0.270400	0.295300
H1261	H126	0.204000	0.300500	0.237500
C1981	C198	0.348610	0.067900	0.635100
C1991	C199	0.187150	0.276000	0.382700
O311	O31	0.388310	0.764000	0.779400
H1271	H127	0.397200	0.751100	0.724200
C2001	C200	0.198080	0.233900	0.468700
H1281	H128	0.184300	0.239700	0.528200
O321	O32	0.464660	0.947800	0.987200
C2011	C201	0.151900	0.325000	0.378400
C2021	C202	0.332860	0.042100	0.153200
H1291	H129	0.356400	0.047500	0.123700
C2031	C203	0.341550	0.845500	0.854500
C2041	C204	0.145070	0.381500	0.301400
H1301	H130	0.163200	0.390400	0.251800
C2051	C205	0.419070	0.023600	0.891200
C2061	C206	0.085030	0.414300	0.369700
C2071	C207	0.289110	0.079600	0.283100
C2081	C208	0.317550	0.941200	0.018900
O331	O33	0.337290	0.792300	0.686200
C2091	C209	0.241380	0.220900	0.294500
H1311	H131	0.256400	0.218500	0.236900
C2101	C210	0.314050	0.165600	0.529800
H1321	H132	0.306100	0.219100	0.518500
C2111	C211	0.306030	0.879100	0.854200
H1331	H133	0.290100	0.870600	0.799300
C2121	C212	0.303420	0.104100	0.462900
C2131	C213	0.390210	0.080800	0.896400
H1341	H134	0.386400	0.110200	0.956100
C2141	C214	0.229270	0.183100	0.468200
H1351	H135	0.236000	0.154800	0.526800
C2151	C215	0.270360	0.991000	0.145600
H1361	H136	0.251800	0.961500	0.112400
C2161	C216	0.111780	0.424600	0.297400
H1371	H137	0.107600	0.461200	0.244400
C2171	C217	0.353110	0.903900	0.018800
H1381	H138	0.369100	0.911000	0.073800
C2181	C218	0.354770	0.799000	0.765300
C2191	C219	0.294270	0.925500	0.936500
H1391	H139	0.270100	0.946800	0.936600
C2201	C220	0.336480	0.148100	0.613600
H1401	H140	0.343600	0.190600	0.656500
N61	N6	0.281360	0.120800	0.377300
C2211	C221	0.324940	0.084300	0.241900
H1411	H141	0.343300	0.115400	0.273600
C2221	C222	0.364280	0.856600	0.936900
H1421	H142	0.387700	0.831800	0.937900
C2231	C223	0.261600	0.033900	0.233600
H1431	H143	0.237400	0.032100	0.259600
C2241	C224	0.372710	0.051500	0.723900
C2251	C225	0.315350	0.023400	0.481700
H1441	H144	0.308100	0.981400	0.438200
C2261	C226	0.124650	0.315300	0.453700
H1451	H145	0.128500	0.278700	0.506900
C2271	C227	0.367230	0.094000	0.813300
H1461	H146	0.347900	0.132000	0.817800
O341	O34	0.043220	0.505100	0.283300
C2281	C228	0.091710	0.360800	0.448600
H1471	H147	0.073900	0.354900	0.499500
C2291	C229	0.306230	0.991600	0.106700
C2301	C230	0.424380	0.979600	0.802700
H1481	H148	0.443300	0.940600	0.799100
O351	O35	0.028230	0.456800	0.439800
C2311	C231	0.401300	0.993700	0.717600
H1491	H149	0.405100	0.964600	0.657700
C2321	C232	0.050050	0.461800	0.361600
C2331	C233	0.338200	0.006100	0.565900
H1501	H150	0.346500	0.952800	0.576300
O361	O36	0.443470	0.059800	0.055600
C2341	C234	0.444000	0.009100	0.981400
C2351	C235	0.249500	0.674600	0.379700
C2361	C236	0.289920	0.770400	0.295300
H1511	H151	0.296000	0.800500	0.237500
C2371	C237	0.151390	0.567900	0.635100
C2381	C238	0.312850	0.776000	0.382700
O371	O37	0.111690	0.264000	0.779400
H1521	H152	0.102800	0.251100	0.724200
C2391	C239	0.301920	0.733900	0.468700
H1531	H153	0.315700	0.739700	0.528200
O381	O38	0.035340	0.447800	0.987200
C2401	C240	0.348100	0.825000	0.378400
C2411	C241	0.167140	0.542100	0.153200
H1541	H154	0.143600	0.547500	0.123700
C2421	C242	0.158450	0.345500	0.854500
C2431	C243	0.354930	0.881500	0.301400
H1551	H155	0.336800	0.890400	0.251800
C2441	C244	0.080930	0.523600	0.891200
C2451	C245	0.414970	0.914300	0.369700
C2461	C246	0.210890	0.579600	0.283100
C2471	C247	0.182450	0.441200	0.018900
O391	O39	0.162710	0.292300	0.686200
C2481	C248	0.258620	0.720900	0.294500
H1561	H156	0.243600	0.718500	0.236900
C2491	C249	0.185950	0.665600	0.529800
H1571	H157	0.193900	0.719100	0.518500
C2501	C250	0.193970	0.379100	0.854200
H1581	H158	0.209900	0.370600	0.799300
C2511	C251	0.196580	0.604100	0.462900
C2521	C252	0.109790	0.580800	0.896400
H1591	H159	0.113600	0.610200	0.956100
C2531	C253	0.270730	0.683100	0.468200
H1601	H160	0.264000	0.654800	0.526800
C2541	C254	0.229640	0.491000	0.145600
H1611	H161	0.248200	0.461500	0.112400
C2551	C255	0.388220	0.924600	0.297400
H1621	H162	0.392400	0.961200	0.244400
C2561	C256	0.146890	0.403900	0.018800
H1631	H163	0.130900	0.411000	0.073800
C2571	C257	0.145230	0.299000	0.765300
C2581	C258	0.205730	0.425500	0.936500
H1641	H164	0.229900	0.446800	0.936600
C2591	C259	0.163520	0.648100	0.613600
H1651	H165	0.156400	0.690600	0.656500
N71	N7	0.218640	0.620800	0.377300
C2601	C260	0.175060	0.584300	0.241900
H1661	H166	0.156700	0.615400	0.273600
C2611	C261	0.135720	0.356600	0.936900
H1671	H167	0.112300	0.331800	0.937900
C2621	C262	0.238400	0.533900	0.233600
H1681	H168	0.262600	0.532100	0.259600
C2631	C263	0.127290	0.551500	0.723900
C2641	C264	0.184650	0.523400	0.481700
H1691	H169	0.191900	0.481400	0.438200
C2651	C265	0.375350	0.815300	0.453700
H1701	H170	0.371500	0.778700	0.506900
C2661	C266	0.132770	0.594000	0.813300
H1711	H171	0.152100	0.632000	0.817800
O401	O40	0.456780	0.005100	0.283300
C2671	C267	0.408290	0.860800	0.448600
H1721	H172	0.426100	0.854900	0.499500
C2681	C268	0.193770	0.491600	0.106700
C2691	C269	0.075620	0.479600	0.802700
H1731	H173	0.056700	0.440600	0.799100
O411	O41	0.471770	0.956800	0.439800
C2701	C270	0.098700	0.493700	0.717600
H1741	H174	0.094900	0.464600	0.657700
C2711	C271	0.449950	0.961800	0.361600
C2721	C272	0.161800	0.506100	0.565900
H1751	H175	0.153500	0.452800	0.576300
O421	O42	0.056530	0.559800	0.055600
C2731	C273	0.056000	0.509100	0.981400
C2741	C274	0.750500	0.325400	0.379700
C2751	C275	0.710080	0.229600	0.295300
H1761	H176	0.704000	0.199500	0.237500
C2761	C276	0.848610	0.432100	0.635100
C2771	C277	0.687150	0.224000	0.382700
O431	O43	0.888310	0.736000	0.779400
H1771	H177	0.897200	0.748900	0.724200
C2781	C278	0.698080	0.266100	0.468700
H1781	H178	0.684300	0.260300	0.528200
O441	O44	0.964660	0.552200	0.987200
C2791	C279	0.651900	0.175000	0.378400
C2801	C280	0.832860	0.457900	0.153200
H1791	H179	0.856400	0.452500	0.123700
C2811	C281	0.841550	0.654500	0.854500
C2821	C282	0.645070	0.118500	0.301400
H1801	H180	0.663200	0.109600	0.251800
C2831	C283	0.919070	0.476400	0.891200
C2841	C284	0.585030	0.085700	0.369700
C2851	C285	0.789110	0.420400	0.283100
C2861	C286	0.817550	0.558800	0.018900
O451	O45	0.837290	0.707700	0.686200
C2871	C287	0.741380	0.279100	0.294500
H1811	H181	0.756400	0.281500	0.236900
C2881	C288	0.814050	0.334400	0.529800
H1821	H182	0.806100	0.280900	0.518500
C2891	C289	0.806030	0.620900	0.854200
H1831	H183	0.790100	0.629400	0.799300
C2901	C290	0.803420	0.395900	0.462900
C2911	C291	0.890210	0.419200	0.896400
H1841	H184	0.886400	0.389800	0.956100
C2921	C292	0.729270	0.316900	0.468200
H1851	H185	0.736000	0.345200	0.526800
C2931	C293	0.770360	0.509000	0.145600
H1861	H186	0.751800	0.538500	0.112400
C2941	C294	0.611780	0.075400	0.297400
H1871	H187	0.607600	0.038800	0.244400
C2951	C295	0.853110	0.596100	0.018800
H1881	H188	0.869100	0.589000	0.073800
C2961	C296	0.854770	0.701000	0.765300
C2971	C297	0.794270	0.574500	0.936500
H1891	H189	0.770100	0.553200	0.936600
C2981	C298	0.836480	0.351900	0.613600
H1901	H190	0.843600	0.309400	0.656500
N81	N8	0.781360	0.379200	0.377300
C2991	C299	0.824940	0.415700	0.241900
H1911	H191	0.843300	0.384600	0.273600
C3001	C300	0.864280	0.643400	0.936900
H1921	H192	0.887700	0.668200	0.937900
C3011	C301	0.761600	0.466100	0.233600
H1931	H193	0.737400	0.467900	0.259600
C3021	C302	0.872710	0.448500	0.723900
C3031	C303	0.815350	0.476600	0.481700
H1941	H194	0.808100	0.518600	0.438200
C3041	C304	0.624650	0.184700	0.453700
H1951	H195	0.628500	0.221300	0.506900
C3051	C305	0.867230	0.406000	0.813300
H1961	H196	0.847900	0.368000	0.817800
O461	O46	0.543220	0.994900	0.283300
C3061	C306	0.591710	0.139200	0.448600
H1971	H197	0.573900	0.145100	0.499500
C3071	C307	0.806230	0.508400	0.106700
C3081	C308	0.924380	0.520400	0.802700
H1981	H198	0.943300	0.559400	0.799100
O471	O47	0.528230	0.043200	0.439800
C3091	C309	0.901300	0.506300	0.717600
H1991	H199	0.905100	0.535400	0.657700
C3101	C310	0.550050	0.038200	0.361600
C3111	C311	0.838200	0.493900	0.565900
H2001	H200	0.846500	0.547200	0.576300
O481	O48	0.943470	0.440200	0.055600
C3121	C312	0.944000	0.490900	0.981400
Ce31	Ce3	0.000000	0.500000	0.140790
Ce41	Ce4	0.500000	0.000000	0.140790
