data_PIRYOF_clean_PM
_symmetry_space_group_name_H-M	'P1'
_cell_length_a	11.842900
_cell_length_b	13.482900
_cell_length_c	11.692100
_cell_angle_alpha	90.000000
_cell_angle_beta	90.000000
_cell_angle_gamma	90.000000
_symmetry_Int_Tables_number 1

loop_
_symmetry_equiv_pos_as_xyz
'x,y,z'

loop_
_atom_site_label
_atom_site_type_symbol
_atom_site_fract_x
_atom_site_fract_y
_atom_site_fract_z
S11	S1	0.961530	0.740190	0.279100
O11	O1	0.035800	0.827500	0.284700
O21	O2	0.915900	0.714200	0.389000
O31	O3	0.878200	0.749600	0.191400
C11	C1	0.049300	0.640700	0.240800
C21	C2	0.108400	0.577600	0.314900
H11	H1	0.107600	0.580500	0.394300
C31	C3	0.169600	0.509000	0.248000
H21	H2	0.216200	0.459100	0.275900
C41	C4	0.147600	0.529300	0.130500
H31	H3	0.175900	0.493500	0.068800
C51	C5	0.075000	0.613400	0.123200
H41	H4	0.049500	0.644400	0.057000
S21	S2	0.038470	0.259810	0.279100
O41	O4	0.964200	0.172500	0.284700
O51	O5	0.084100	0.285800	0.389000
O61	O6	0.121800	0.250400	0.191400
C61	C6	0.950700	0.359300	0.240800
C71	C7	0.891600	0.422400	0.314900
H51	H5	0.892400	0.419500	0.394300
C81	C8	0.830400	0.491000	0.248000
H61	H6	0.783800	0.540900	0.275900
C91	C9	0.852400	0.470700	0.130500
H71	H7	0.824100	0.506500	0.068800
C101	C10	0.925000	0.386600	0.123200
H81	H8	0.950500	0.355600	0.057000
Fe11	Fe1	0.000000	0.500000	0.213390
S31	S3	0.538470	0.240190	0.720900
O71	O7	0.464200	0.327500	0.715300
O81	O8	0.584100	0.214200	0.611000
O91	O9	0.621800	0.249600	0.808600
C111	C11	0.450700	0.140700	0.759200
C121	C12	0.391600	0.077600	0.685100
H91	H9	0.392400	0.080500	0.605700
C131	C13	0.330400	0.009000	0.752000
H101	H10	0.283800	0.959100	0.724100
C141	C14	0.352400	0.029300	0.869500
H111	H11	0.324100	0.993500	0.931200
C151	C15	0.425000	0.113400	0.876800
H121	H12	0.450500	0.144400	0.943000
S41	S4	0.461530	0.759810	0.720900
O101	O10	0.535800	0.672500	0.715300
O111	O11	0.415900	0.785800	0.611000
O121	O12	0.378200	0.750400	0.808600
C161	C16	0.549300	0.859300	0.759200
C171	C17	0.608400	0.922400	0.685100
H131	H13	0.607600	0.919500	0.605700
C181	C18	0.669600	0.991000	0.752000
H141	H14	0.716200	0.040900	0.724100
C191	C19	0.647600	0.970700	0.869500
H151	H15	0.675900	0.006500	0.931200
C201	C20	0.575000	0.886600	0.876800
H161	H16	0.549500	0.855600	0.943000
Fe21	Fe2	0.500000	0.000000	0.786610
C211	C21	0.046100	0.923500	0.025700
H171	H17	0.078600	0.871100	0.065500
C221	C22	0.045700	0.922100	0.907000
H181	H18	0.076400	0.868300	0.868200
C231	C23	0.949700	0.924400	0.658600
H191	H19	0.915100	0.872100	0.696800
C241	C24	0.950700	0.926400	0.540000
H201	H20	0.916100	0.875100	0.500000
C251	C25	0.953900	0.076500	0.025700
H211	H21	0.921400	0.128900	0.065500
C261	C26	0.954300	0.077900	0.907000
H221	H22	0.923600	0.131700	0.868200
C271	C27	0.050300	0.075600	0.658600
H231	H23	0.084900	0.127900	0.696800
C281	C28	0.049300	0.073600	0.540000
H241	H24	0.083900	0.124900	0.500000
Cu11	Cu1	0.000000	0.000000	0.282700
N11	N1	0.000000	0.000000	0.084500
N21	N2	0.000000	0.000000	0.481300
C291	C29	0.000000	0.000000	0.846100
C301	C30	0.000000	0.000000	0.720500
C311	C31	0.453900	0.423500	0.974300
H251	H25	0.421400	0.371100	0.934500
C321	C32	0.454300	0.422100	0.093000
H261	H26	0.423600	0.368300	0.131800
C331	C33	0.550300	0.424400	0.341400
H271	H27	0.584900	0.372100	0.303200
C341	C34	0.549300	0.426400	0.460000
H281	H28	0.583900	0.375100	0.500000
C351	C35	0.546100	0.576500	0.974300
H291	H29	0.578600	0.628900	0.934500
C361	C36	0.545700	0.577900	0.093000
H301	H30	0.576400	0.631700	0.131800
C371	C37	0.449700	0.575600	0.341400
H311	H31	0.415100	0.627900	0.303200
C381	C38	0.450700	0.573600	0.460000
H321	H32	0.416100	0.624900	0.500000
Cu21	Cu2	0.500000	0.500000	0.717300
N31	N3	0.500000	0.500000	0.915500
N41	N4	0.500000	0.500000	0.518700
C391	C39	0.500000	0.500000	0.153900
C401	C40	0.500000	0.500000	0.279500
N51	N5	0.798100	0.995300	0.285300
C411	C41	0.738200	0.955400	0.202800
H331	H33	0.776100	0.923600	0.143600
C421	C42	0.621200	0.958200	0.199500
H341	H34	0.582500	0.931400	0.137500
C431	C43	0.563300	0.000400	0.287600
C441	C44	0.624400	0.042100	0.374700
H351	H35	0.587500	0.071100	0.436400
C451	C45	0.742500	0.040900	0.370400
H361	H36	0.783400	0.072500	0.427700
N61	N6	0.201900	0.004700	0.285300
C461	C46	0.261800	0.044600	0.202800
H371	H37	0.223900	0.076400	0.143600
C471	C47	0.378800	0.041800	0.199500
H381	H38	0.417500	0.068600	0.137500
C481	C48	0.436700	0.999600	0.287600
C491	C49	0.375600	0.957900	0.374700
H391	H39	0.412500	0.928900	0.436400
C501	C50	0.257500	0.959100	0.370400
H401	H40	0.216600	0.927500	0.427700
N71	N7	0.701900	0.495300	0.714700
C511	C51	0.761800	0.455400	0.797200
H411	H41	0.723900	0.423600	0.856400
C521	C52	0.878800	0.458200	0.800500
H421	H42	0.917500	0.431400	0.862500
C531	C53	0.936700	0.500400	0.712400
C541	C54	0.875600	0.542100	0.625300
H431	H43	0.912500	0.571100	0.563600
C551	C55	0.757500	0.540900	0.629600
H441	H44	0.716600	0.572500	0.572300
N81	N8	0.298100	0.504700	0.714700
C561	C56	0.238200	0.544600	0.797200
H451	H45	0.276100	0.576400	0.856400
C571	C57	0.121200	0.541800	0.800500
H461	H46	0.082500	0.568600	0.862500
C581	C58	0.063300	0.499600	0.712400
C591	C59	0.124400	0.457900	0.625300
H471	H47	0.087500	0.428900	0.563600
C601	C60	0.242500	0.459100	0.629600
H481	H48	0.283400	0.427500	0.572300
