data_PIWSEV_clean_PM
_symmetry_space_group_name_H-M	'P1'
_cell_length_a	16.304000
_cell_length_b	27.649000
_cell_length_c	16.407800
_cell_angle_alpha	90.000000
_cell_angle_beta	117.320000
_cell_angle_gamma	90.000000
_symmetry_Int_Tables_number 1

loop_
_symmetry_equiv_pos_as_xyz
'x,y,z'

loop_
_atom_site_label
_atom_site_type_symbol
_atom_site_fract_x
_atom_site_fract_y
_atom_site_fract_z
Zn11	Zn1	0.055110	0.528220	0.811190
O11	O1	0.932300	0.615700	0.755700
O21	O2	0.927500	0.536100	0.735100
O31	O3	0.108400	0.547200	0.937300
O41	O4	0.098900	0.627100	0.938100
O51	O5	0.134600	0.530100	0.753700
O61	O6	0.126800	0.607600	0.755200
N11	N1	0.061300	0.454900	0.831300
C11	C1	0.230400	0.533600	0.650800
H11	H1	0.216200	0.502600	0.665800
C21	C2	0.297600	0.582000	0.573800
C31	C3	0.444300	0.582800	0.562200
C41	C4	0.299900	0.587500	0.422100
C51	C5	0.443800	0.581300	0.413700
C61	C6	0.497700	0.579800	0.666200
H21	H2	0.511300	0.612500	0.692000
H31	H3	0.555700	0.562300	0.683600
H41	H4	0.460600	0.562600	0.690000
C71	C7	0.348100	0.584000	0.518100
C81	C8	0.270300	0.545300	0.219500
H51	H5	0.290500	0.515500	0.251300
C91	C9	0.072200	0.302100	0.862900
C101	C10	0.492600	0.582400	0.509300
C111	C11	0.643200	0.540400	0.565400
H61	H6	0.610900	0.511700	0.536300
C121	C12	0.495400	0.577300	0.356300
H71	H7	0.558600	0.589200	0.392000
H81	H8	0.463700	0.596800	0.300500
H91	H9	0.497000	0.543400	0.339600
C131	C13	0.739700	0.621800	0.653600
H101	H10	0.772000	0.650400	0.683400
C141	C14	0.594100	0.581300	0.557100
C151	C15	0.195600	0.592700	0.375600
H111	H11	0.171600	0.581800	0.417400
H121	H12	0.168800	0.572900	0.319800
H131	H13	0.179000	0.626700	0.359500
C161	C16	0.787300	0.579600	0.662200
C171	C17	0.294200	0.587700	0.268700
C181	C18	0.348200	0.584800	0.370300
C191	C19	0.204200	0.574600	0.680000
C201	C20	0.890100	0.577000	0.723500
C211	C21	0.277800	0.537800	0.599300
H141	H14	0.297200	0.509200	0.581000
C221	C22	0.187200	0.589100	0.078500
C231	C23	0.069000	0.353300	0.854100
C241	C24	0.643200	0.622700	0.600900
H151	H15	0.610900	0.652200	0.594900
C251	C25	0.269900	0.621500	0.601400
H161	H16	0.283300	0.652500	0.585600
C261	C26	0.216600	0.544700	0.123000
H171	H17	0.201200	0.515200	0.089700
C271	C27	0.265600	0.630200	0.221100
H181	H18	0.283200	0.659900	0.253600
C281	C28	0.112600	0.426800	0.804600
H191	H19	0.147300	0.442000	0.778500
C291	C29	0.996600	0.275100	0.857400
H201	H20	0.943900	0.291800	0.853500
C301	C30	0.212000	0.631200	0.127300
H211	H21	0.192300	0.661300	0.096500
C311	C31	0.151700	0.570600	0.733900
C321	C32	0.740300	0.538700	0.615500
H221	H22	0.772900	0.509900	0.617200
C331	C33	0.015400	0.431100	0.871200
H231	H23	0.979200	0.449700	0.891500
C341	C34	0.221600	0.617900	0.653100
H241	H24	0.200600	0.646600	0.669600
C351	C35	0.127700	0.588100	0.976100
C361	C36	0.018700	0.382200	0.883500
H251	H25	0.986000	0.367900	0.912600
C371	C37	0.148500	0.275300	0.872500
H261	H26	0.202200	0.292000	0.879200
C381	C38	0.116900	0.377300	0.813500
H271	H27	0.152700	0.359200	0.792000
Zn21	Zn2	0.978270	0.674730	0.846290
O71	O7	0.029500	0.727400	0.935800
O81	O8	0.062600	0.690600	0.787700
O91	O9	0.876300	0.723200	0.757100
Zn31	Zn3	0.054800	0.649640	0.803430
Zn41	Zn4	0.055110	0.971780	0.811190
O101	O10	0.932300	0.884300	0.755700
O111	O11	0.927500	0.963900	0.735100
O121	O12	0.108400	0.952800	0.937300
O131	O13	0.098900	0.872900	0.938100
O141	O14	0.134600	0.969900	0.753700
O151	O15	0.126800	0.892400	0.755200
N21	N2	0.061300	0.045100	0.831300
C391	C39	0.230400	0.966400	0.650800
H281	H28	0.216200	0.997400	0.665800
C401	C40	0.297600	0.918000	0.573800
C411	C41	0.444300	0.917200	0.562200
C421	C42	0.299900	0.912500	0.422100
C431	C43	0.443800	0.918700	0.413700
C441	C44	0.497700	0.920200	0.666200
H291	H29	0.511300	0.887500	0.692000
H301	H30	0.555700	0.937700	0.683600
H311	H31	0.460600	0.937400	0.690000
C451	C45	0.348100	0.916000	0.518100
C461	C46	0.270300	0.954700	0.219500
H321	H32	0.290500	0.984500	0.251300
C471	C47	0.072200	0.197900	0.862900
C481	C48	0.492600	0.917600	0.509300
C491	C49	0.643200	0.959600	0.565400
H331	H33	0.610900	0.988300	0.536300
C501	C50	0.495400	0.922700	0.356300
H341	H34	0.558600	0.910800	0.392000
H351	H35	0.463700	0.903200	0.300500
H361	H36	0.497000	0.956600	0.339600
C511	C51	0.739700	0.878200	0.653600
H371	H37	0.772000	0.849600	0.683400
C521	C52	0.594100	0.918700	0.557100
C531	C53	0.195600	0.907300	0.375600
H381	H38	0.171600	0.918200	0.417400
H391	H39	0.168800	0.927100	0.319800
H401	H40	0.179000	0.873300	0.359500
C541	C54	0.787300	0.920400	0.662200
C551	C55	0.294200	0.912300	0.268700
C561	C56	0.348200	0.915200	0.370300
C571	C57	0.204200	0.925400	0.680000
C581	C58	0.890100	0.923000	0.723500
C591	C59	0.277800	0.962200	0.599300
H411	H41	0.297200	0.990800	0.581000
C601	C60	0.187200	0.910900	0.078500
C611	C61	0.069000	0.146700	0.854100
C621	C62	0.643200	0.877300	0.600900
H421	H42	0.610900	0.847800	0.594900
C631	C63	0.269900	0.878500	0.601400
H431	H43	0.283300	0.847500	0.585600
C641	C64	0.216600	0.955300	0.123000
H441	H44	0.201200	0.984800	0.089700
C651	C65	0.265600	0.869800	0.221100
H451	H45	0.283200	0.840100	0.253600
C661	C66	0.112600	0.073200	0.804600
H461	H46	0.147300	0.058000	0.778500
C671	C67	0.996600	0.224900	0.857400
H471	H47	0.943900	0.208200	0.853500
C681	C68	0.212000	0.868800	0.127300
H481	H48	0.192300	0.838700	0.096500
C691	C69	0.151700	0.929400	0.733900
C701	C70	0.740300	0.961300	0.615500
H491	H49	0.772900	0.990100	0.617200
C711	C71	0.015400	0.068900	0.871200
H501	H50	0.979200	0.050300	0.891500
C721	C72	0.221600	0.882100	0.653100
H511	H51	0.200600	0.853400	0.669600
C731	C73	0.127700	0.911900	0.976100
C741	C74	0.018700	0.117800	0.883500
H521	H52	0.986000	0.132100	0.912600
C751	C75	0.148500	0.224700	0.872500
H531	H53	0.202200	0.208000	0.879200
C761	C76	0.116900	0.122700	0.813500
H541	H54	0.152700	0.140800	0.792000
Zn51	Zn5	0.978270	0.825270	0.846290
O161	O16	0.029500	0.772600	0.935800
O171	O17	0.062600	0.809400	0.787700
O181	O18	0.876300	0.776800	0.757100
Zn61	Zn6	0.054800	0.850360	0.803430
Zn71	Zn7	0.944890	0.028220	0.188810
O191	O19	0.067700	0.115700	0.244300
O201	O20	0.072500	0.036100	0.264900
O211	O21	0.891600	0.047200	0.062700
O221	O22	0.901100	0.127100	0.061900
O231	O23	0.865400	0.030100	0.246300
O241	O24	0.873200	0.107600	0.244800
N31	N3	0.938700	0.954900	0.168700
C771	C77	0.769600	0.033600	0.349200
H551	H55	0.783800	0.002600	0.334200
C781	C78	0.702400	0.082000	0.426200
C791	C79	0.555700	0.082800	0.437800
C801	C80	0.700100	0.087500	0.577900
C811	C81	0.556200	0.081300	0.586300
C821	C82	0.502300	0.079800	0.333800
H561	H56	0.488700	0.112500	0.308000
H571	H57	0.444300	0.062300	0.316400
H581	H58	0.539400	0.062600	0.310000
C831	C83	0.651900	0.084000	0.481900
C841	C84	0.729700	0.045300	0.780500
H591	H59	0.709500	0.015500	0.748700
C851	C85	0.927800	0.802100	0.137100
C861	C86	0.507400	0.082400	0.490700
C871	C87	0.356800	0.040400	0.434600
H601	H60	0.389100	0.011700	0.463700
C881	C88	0.504600	0.077300	0.643700
H611	H61	0.441400	0.089200	0.608000
H621	H62	0.536300	0.096800	0.699500
H631	H63	0.503000	0.043400	0.660400
C891	C89	0.260300	0.121800	0.346400
H641	H64	0.228000	0.150400	0.316600
C901	C90	0.405900	0.081300	0.442900
C911	C91	0.804400	0.092700	0.624400
H651	H65	0.828400	0.081800	0.582600
H661	H66	0.831200	0.072900	0.680200
H671	H67	0.821000	0.126700	0.640500
C921	C92	0.212700	0.079600	0.337800
C931	C93	0.705800	0.087700	0.731300
C941	C94	0.651800	0.084800	0.629700
C951	C95	0.795800	0.074600	0.320000
C961	C96	0.109900	0.077000	0.276500
C971	C97	0.722200	0.037800	0.400700
H681	H68	0.702800	0.009200	0.419000
C981	C98	0.812800	0.089100	0.921500
C991	C99	0.931000	0.853300	0.145900
C1001	C100	0.356800	0.122700	0.399100
H691	H69	0.389100	0.152200	0.405100
C1011	C101	0.730100	0.121500	0.398600
H701	H70	0.716700	0.152500	0.414400
C1021	C102	0.783400	0.044700	0.877000
H711	H71	0.798800	0.015200	0.910300
C1031	C103	0.734400	0.130200	0.778900
H721	H72	0.716800	0.159900	0.746400
C1041	C104	0.887400	0.926800	0.195400
H731	H73	0.852700	0.942000	0.221500
C1051	C105	0.003400	0.775100	0.142600
H741	H74	0.056100	0.791800	0.146500
C1061	C106	0.788000	0.131200	0.872700
H751	H75	0.807700	0.161300	0.903500
C1071	C107	0.848300	0.070600	0.266100
C1081	C108	0.259700	0.038700	0.384500
H761	H76	0.227100	0.009900	0.382800
C1091	C109	0.984600	0.931100	0.128800
H771	H77	0.020800	0.949700	0.108500
C1101	C110	0.778400	0.117900	0.346900
H781	H78	0.799400	0.146600	0.330400
C1111	C111	0.872300	0.088100	0.023900
C1121	C112	0.981300	0.882200	0.116500
H791	H79	0.014000	0.867900	0.087400
C1131	C113	0.851500	0.775300	0.127500
H801	H80	0.797800	0.792000	0.120800
C1141	C114	0.883100	0.877300	0.186500
H811	H81	0.847300	0.859200	0.208000
Zn81	Zn8	0.021730	0.174730	0.153710
O251	O25	0.970500	0.227400	0.064200
O261	O26	0.937400	0.190600	0.212300
O271	O27	0.123700	0.223200	0.242900
Zn91	Zn9	0.945200	0.149640	0.196570
Zn101	Zn10	0.944890	0.471780	0.188810
O281	O28	0.067700	0.384300	0.244300
O291	O29	0.072500	0.463900	0.264900
O301	O30	0.891600	0.452800	0.062700
O311	O31	0.901100	0.372900	0.061900
O321	O32	0.865400	0.469900	0.246300
O331	O33	0.873200	0.392400	0.244800
N41	N4	0.938700	0.545100	0.168700
C1151	C115	0.769600	0.466400	0.349200
H821	H82	0.783800	0.497400	0.334200
C1161	C116	0.702400	0.418000	0.426200
C1171	C117	0.555700	0.417200	0.437800
C1181	C118	0.700100	0.412500	0.577900
C1191	C119	0.556200	0.418700	0.586300
C1201	C120	0.502300	0.420200	0.333800
H831	H83	0.488700	0.387500	0.308000
H841	H84	0.444300	0.437700	0.316400
H851	H85	0.539400	0.437400	0.310000
C1211	C121	0.651900	0.416000	0.481900
C1221	C122	0.729700	0.454700	0.780500
H861	H86	0.709500	0.484500	0.748700
C1231	C123	0.927800	0.697900	0.137100
C1241	C124	0.507400	0.417600	0.490700
C1251	C125	0.356800	0.459600	0.434600
H871	H87	0.389100	0.488300	0.463700
C1261	C126	0.504600	0.422700	0.643700
H881	H88	0.441400	0.410800	0.608000
H891	H89	0.536300	0.403200	0.699500
H901	H90	0.503000	0.456600	0.660400
C1271	C127	0.260300	0.378200	0.346400
H911	H91	0.228000	0.349600	0.316600
C1281	C128	0.405900	0.418700	0.442900
C1291	C129	0.804400	0.407300	0.624400
H921	H92	0.828400	0.418200	0.582600
H931	H93	0.831200	0.427100	0.680200
H941	H94	0.821000	0.373300	0.640500
C1301	C130	0.212700	0.420400	0.337800
C1311	C131	0.705800	0.412300	0.731300
C1321	C132	0.651800	0.415200	0.629700
C1331	C133	0.795800	0.425400	0.320000
C1341	C134	0.109900	0.423000	0.276500
C1351	C135	0.722200	0.462200	0.400700
H951	H95	0.702800	0.490800	0.419000
C1361	C136	0.812800	0.410900	0.921500
C1371	C137	0.931000	0.646700	0.145900
C1381	C138	0.356800	0.377300	0.399100
H961	H96	0.389100	0.347800	0.405100
C1391	C139	0.730100	0.378500	0.398600
H971	H97	0.716700	0.347500	0.414400
C1401	C140	0.783400	0.455300	0.877000
H981	H98	0.798800	0.484800	0.910300
C1411	C141	0.734400	0.369800	0.778900
H991	H99	0.716800	0.340100	0.746400
C1421	C142	0.887400	0.573200	0.195400
H1001	H100	0.852700	0.558000	0.221500
C1431	C143	0.003400	0.724900	0.142600
H1011	H101	0.056100	0.708200	0.146500
C1441	C144	0.788000	0.368800	0.872700
H1021	H102	0.807700	0.338700	0.903500
C1451	C145	0.848300	0.429400	0.266100
C1461	C146	0.259700	0.461300	0.384500
H1031	H103	0.227100	0.490100	0.382800
C1471	C147	0.984600	0.568900	0.128800
H1041	H104	0.020800	0.550300	0.108500
C1481	C148	0.778400	0.382100	0.346900
H1051	H105	0.799400	0.353400	0.330400
C1491	C149	0.872300	0.411900	0.023900
C1501	C150	0.981300	0.617800	0.116500
H1061	H106	0.014000	0.632100	0.087400
C1511	C151	0.851500	0.724700	0.127500
H1071	H107	0.797800	0.708000	0.120800
C1521	C152	0.883100	0.622700	0.186500
H1081	H108	0.847300	0.640800	0.208000
Zn111	Zn11	0.021730	0.325270	0.153710
O341	O34	0.970500	0.272600	0.064200
O351	O35	0.937400	0.309400	0.212300
O361	O36	0.123700	0.276800	0.242900
Zn121	Zn12	0.945200	0.350360	0.196570
