data_PIYZED03_clean_PM
_symmetry_space_group_name_H-M	'P1'
_cell_length_a	12.630800
_cell_length_b	12.630800
_cell_length_c	12.630800
_cell_angle_alpha	90.000000
_cell_angle_beta	90.000000
_cell_angle_gamma	90.000000
_symmetry_Int_Tables_number 1

loop_
_symmetry_equiv_pos_as_xyz
'x,y,z'

loop_
_atom_site_label
_atom_site_type_symbol
_atom_site_fract_x
_atom_site_fract_y
_atom_site_fract_z
Cd11	Cd1	0.625000	0.125000	0.125000
Cd21	Cd2	0.125000	0.625000	0.125000
Cd31	Cd3	0.125000	0.125000	0.625000
Cd41	Cd4	0.625000	0.625000	0.625000
Cd51	Cd5	0.875000	0.875000	0.375000
Cd61	Cd6	0.875000	0.375000	0.875000
Cd71	Cd7	0.375000	0.875000	0.875000
Cd81	Cd8	0.375000	0.375000	0.375000
C11	C1	0.723600	0.223600	0.026400
C21	C2	0.026400	0.026400	0.526400
C31	C3	0.526400	0.526400	0.526400
C41	C4	0.526400	0.723600	0.723600
C51	C5	0.223600	0.526400	0.223600
C61	C6	0.026400	0.723600	0.223600
C71	C7	0.526400	0.026400	0.026400
C81	C8	0.723600	0.526400	0.723600
C91	C9	0.223600	0.223600	0.526400
C101	C10	0.223600	0.026400	0.723600
C111	C11	0.026400	0.526400	0.026400
C121	C12	0.723600	0.723600	0.526400
C131	C13	0.526400	0.223600	0.223600
C141	C14	0.973600	0.973600	0.473600
C151	C15	0.776400	0.276400	0.973600
C161	C16	0.473600	0.776400	0.776400
C171	C17	0.276400	0.473600	0.276400
C181	C18	0.473600	0.276400	0.276400
C191	C19	0.776400	0.776400	0.473600
C201	C20	0.276400	0.973600	0.776400
C211	C21	0.973600	0.473600	0.973600
C221	C22	0.776400	0.473600	0.776400
C231	C23	0.276400	0.276400	0.473600
C241	C24	0.473600	0.973600	0.973600
C251	C25	0.473600	0.473600	0.473600
C261	C26	0.973600	0.776400	0.276400
C271	C27	0.276400	0.776400	0.973600
C281	C28	0.973600	0.276400	0.776400
C291	C29	0.776400	0.973600	0.276400
C301	C30	0.223600	0.723600	0.026400
C311	C31	0.723600	0.026400	0.223600
C321	C32	0.026400	0.223600	0.723600
