data_PIZPET_clean_h_PM
_symmetry_space_group_name_H-M	'P1'
_cell_length_a	8.486000
_cell_length_b	9.737000
_cell_length_c	17.271000
_cell_angle_alpha	90.000000
_cell_angle_beta	90.000000
_cell_angle_gamma	112.250000
_symmetry_Int_Tables_number 1

loop_
_symmetry_equiv_pos_as_xyz
'x,y,z'

loop_
_atom_site_label
_atom_site_type_symbol
_atom_site_fract_x
_atom_site_fract_y
_atom_site_fract_z
Y11	Y1	0.844000	0.024500	0.257500
Y21	Y2	0.156000	0.475500	0.757500
Y31	Y3	0.156000	0.975500	0.742500
Y41	Y4	0.844000	0.524500	0.242500
C11	C1	0.903700	0.025000	0.097800
C21	C2	0.946500	0.028700	0.014600
C31	C3	0.560800	0.698200	0.210600
C41	C4	0.379400	0.606100	0.199000
C51	C5	0.313200	0.960200	0.282500
C61	C6	0.127300	0.866700	0.286600
C71	C7	0.096300	0.475000	0.597800
C81	C8	0.053500	0.471300	0.514600
C91	C9	0.439200	0.801800	0.710600
C101	C10	0.620600	0.893900	0.699000
C111	C11	0.686800	0.539800	0.782500
C121	C12	0.872700	0.633300	0.786600
C131	C13	0.096300	0.975000	0.902200
C141	C14	0.053500	0.971300	0.985400
C151	C15	0.439200	0.301800	0.789400
C161	C16	0.620600	0.393900	0.801000
C171	C17	0.686800	0.039800	0.717500
C181	C18	0.872700	0.133300	0.713400
C191	C19	0.903700	0.525000	0.402200
C201	C20	0.946500	0.528700	0.485400
C211	C21	0.560800	0.198200	0.289400
C221	C22	0.379400	0.106100	0.301000
C231	C23	0.313200	0.460200	0.217500
C241	C24	0.127300	0.366700	0.213400
O11	O1	0.964000	0.953900	0.144600
O21	O2	0.813600	0.090700	0.121500
O31	O3	0.663700	0.639800	0.229000
O41	O4	0.603100	0.837800	0.203200
O51	O5	0.024600	0.924700	0.304800
O61	O6	0.088700	0.733000	0.268800
O71	O7	0.036000	0.546100	0.644600
O81	O8	0.186400	0.409300	0.621500
O91	O9	0.336300	0.860200	0.729000
O101	O10	0.396900	0.662200	0.703200
O111	O11	0.975400	0.575300	0.804800
O121	O12	0.911300	0.767000	0.768800
O131	O13	0.036000	0.046100	0.855400
O141	O14	0.186400	0.909300	0.878500
O151	O15	0.336300	0.360200	0.771000
O161	O16	0.396900	0.162200	0.796800
O171	O17	0.975400	0.075300	0.695200
O181	O18	0.911300	0.267000	0.731200
O191	O19	0.964000	0.453900	0.355400
O201	O20	0.813600	0.590700	0.378500
O211	O21	0.663700	0.139800	0.271000
O221	O22	0.603100	0.337800	0.296800
O231	O23	0.024600	0.424700	0.195200
O241	O24	0.088700	0.233000	0.231200
H11	H1	0.886680	0.083010	0.971310
H21	H2	0.290150	0.657380	0.173740
H31	H3	0.407270	0.909080	0.262980
H41	H4	0.113320	0.416990	0.471310
H51	H5	0.709850	0.842620	0.673740
H61	H6	0.592730	0.590920	0.762980
H71	H7	0.113320	0.916990	0.028690
H81	H8	0.705940	0.338760	0.826390
H91	H9	0.599450	0.097530	0.737450
H101	H10	0.881900	0.584790	0.525270
H111	H11	0.294060	0.161240	0.326390
H121	H12	0.400550	0.402470	0.237450
