data_PIZPOD_clean_h_PM
_symmetry_space_group_name_H-M	'P1'
_cell_length_a	8.426000
_cell_length_b	9.629000
_cell_length_c	17.159000
_cell_angle_alpha	90.000000
_cell_angle_beta	90.000000
_cell_angle_gamma	112.140000
_symmetry_Int_Tables_number 1

loop_
_symmetry_equiv_pos_as_xyz
'x,y,z'

loop_
_atom_site_label
_atom_site_type_symbol
_atom_site_fract_x
_atom_site_fract_y
_atom_site_fract_z
Lu11	Lu1	0.844200	0.025600	0.257100
Lu21	Lu2	0.155800	0.474400	0.757100
Lu31	Lu3	0.155800	0.974400	0.742900
Lu41	Lu4	0.844200	0.525600	0.242900
C11	C1	0.906700	0.025800	0.098400
C21	C2	0.946600	0.034200	0.014400
C31	C3	0.563400	0.196400	0.288900
C41	C4	0.377900	0.103100	0.300600
C51	C5	0.312000	0.957900	0.282700
C61	C6	0.127800	0.364300	0.214200
C71	C7	0.093300	0.474200	0.598400
C81	C8	0.053400	0.465800	0.514400
C91	C9	0.436600	0.303600	0.788900
C101	C10	0.622100	0.396900	0.800600
C111	C11	0.688000	0.542100	0.782700
C121	C12	0.872200	0.135700	0.714200
C131	C13	0.093300	0.974200	0.901600
C141	C14	0.053400	0.965800	0.985600
C151	C15	0.436600	0.803600	0.711100
C161	C16	0.622100	0.896900	0.699400
C171	C17	0.688000	0.042100	0.717300
C181	C18	0.872200	0.635700	0.785800
C191	C19	0.906700	0.525800	0.401600
C201	C20	0.946600	0.534200	0.485600
C211	C21	0.563400	0.696400	0.211100
C221	C22	0.377900	0.603100	0.199400
C231	C23	0.312000	0.457900	0.217300
C241	C24	0.127800	0.864300	0.285800
O11	O1	0.965700	0.954200	0.145300
O21	O2	0.813500	0.092800	0.123300
O31	O3	0.662500	0.134900	0.269600
O41	O4	0.606900	0.335500	0.296300
O51	O5	0.022400	0.423900	0.194700
O61	O6	0.085400	0.230100	0.231200
O71	O7	0.034300	0.545800	0.645300
O81	O8	0.186500	0.407200	0.623300
O91	O9	0.337500	0.365100	0.769600
O101	O10	0.393100	0.164500	0.796300
O111	O11	0.977600	0.076100	0.694700
O121	O12	0.914600	0.269900	0.731200
O131	O13	0.034300	0.045800	0.854700
O141	O14	0.186500	0.907200	0.876700
O151	O15	0.337500	0.865100	0.730400
O161	O16	0.393100	0.664500	0.703700
O171	O17	0.977600	0.576100	0.805300
O181	O18	0.914600	0.769900	0.768800
O191	O19	0.965700	0.454200	0.354700
O201	O20	0.813500	0.592800	0.376700
O211	O21	0.662500	0.634900	0.230400
O221	O22	0.606900	0.835500	0.203700
O231	O23	0.022400	0.923900	0.305300
O241	O24	0.085400	0.730100	0.268800
H11	H1	0.889960	0.096570	0.973390
H21	H2	0.288420	0.155960	0.325510
H31	H3	0.399790	0.898600	0.263540
H41	H4	0.110040	0.403430	0.473390
H51	H5	0.711580	0.344040	0.825510
H61	H6	0.600210	0.601400	0.763540
H71	H7	0.110040	0.903430	0.026610
H81	H8	0.711580	0.844040	0.674490
H91	H9	0.592170	0.093440	0.735940
H101	H10	0.890290	0.596430	0.526860
H111	H11	0.288420	0.655960	0.174490
H121	H12	0.399790	0.398600	0.236460
