data_PODXEN_clean_PM
_symmetry_space_group_name_H-M	'P1'
_cell_length_a	8.480400
_cell_length_b	14.101700
_cell_length_c	20.761700
_cell_angle_alpha	83.472000
_cell_angle_beta	81.241000
_cell_angle_gamma	82.823000
_symmetry_Int_Tables_number 1

loop_
_symmetry_equiv_pos_as_xyz
'x,y,z'

loop_
_atom_site_label
_atom_site_type_symbol
_atom_site_fract_x
_atom_site_fract_y
_atom_site_fract_z
Zn11	Zn1	0.959770	0.360780	0.276340
Zn21	Zn2	0.802400	0.385280	0.084530
Zn31	Zn3	0.040230	0.639220	0.723660
Zn41	Zn4	0.197600	0.614720	0.915470
H11	H1	0.740500	0.171800	0.505700
H21	H2	0.965700	0.959700	0.139000
H31	H3	0.513600	0.411100	0.208300
H41	H4	0.397700	0.354000	0.649700
H51	H5	0.405800	0.276300	0.275600
H61	H6	0.954300	0.933600	0.003100
H71	H7	0.896100	0.735300	0.303000
H81	H8	0.611900	0.924100	0.836900
H91	H9	0.038200	0.849500	0.320400
H101	H10	0.583300	0.695300	0.090900
H111	H11	0.709600	0.179900	0.127900
H121	H12	0.635700	0.919500	0.335700
H131	H13	0.012600	0.336600	0.911800
H141	H14	0.534800	0.141400	0.029700
H151	H15	0.058200	0.999900	0.346300
H161	H16	0.267100	0.956200	0.981500
H171	H17	0.658100	0.080500	0.304800
H181	H18	0.305400	0.882900	0.384900
H191	H19	0.146700	0.412400	0.721100
H201	H20	0.790500	0.564100	0.969300
H211	H21	0.364300	0.080500	0.664300
H221	H22	0.290400	0.820100	0.872100
H231	H23	0.034300	0.040300	0.861000
H241	H24	0.987400	0.663400	0.088200
H251	H25	0.564000	0.574800	0.574600
H261	H26	0.486400	0.588900	0.791700
H271	H27	0.436000	0.425200	0.425400
H281	H28	0.632000	0.787000	0.169700
H291	H29	0.991800	0.111300	0.165900
H301	H30	0.041200	0.809200	0.113200
H311	H31	0.368000	0.213000	0.830300
H321	H32	0.309900	0.248500	0.050700
H331	H33	0.008200	0.888700	0.834100
H341	H34	0.259500	0.828200	0.494300
H351	H35	0.408700	0.544000	0.683300
H361	H36	0.705800	0.332900	0.702400
H371	H37	0.341900	0.919500	0.695200
H381	H38	0.862200	0.275300	0.419000
H391	H39	0.137800	0.724700	0.581000
H401	H40	0.961800	0.150500	0.679600
H411	H41	0.103900	0.264700	0.697000
H421	H42	0.620100	0.316400	0.981200
H431	H43	0.694600	0.117100	0.615100
H441	H44	0.379900	0.683600	0.018800
H451	H45	0.361100	0.915200	0.195600
H461	H46	0.416700	0.304700	0.909100
H471	H47	0.045700	0.066400	0.996900
H481	H48	0.550100	0.588800	0.458400
H491	H49	0.853300	0.587600	0.278900
H501	H50	0.732900	0.043800	0.018500
H511	H51	0.941800	0.000100	0.653700
H521	H52	0.713200	0.548300	0.863400
H531	H53	0.244800	0.575400	0.218200
H541	H54	0.449900	0.411200	0.541600
H551	H55	0.209500	0.435900	0.030700
H561	H56	0.465200	0.858600	0.970300
H571	H57	0.594200	0.723700	0.724400
H581	H58	0.388100	0.075900	0.163100
H591	H59	0.602300	0.646000	0.350300
H601	H60	0.958800	0.190800	0.886800
H611	H61	0.294200	0.667100	0.297600
H621	H62	0.638900	0.084800	0.804400
H631	H63	0.755200	0.424600	0.781800
H641	H64	0.286800	0.451700	0.136600
H651	H65	0.690100	0.751500	0.949300
H661	H66	0.591300	0.456000	0.316700
C11	C1	0.084900	0.278900	0.740300
C21	C2	0.601400	0.298500	0.513200
C31	C3	0.022500	0.072100	0.260400
C41	C4	0.499300	0.351700	0.556300
C51	C5	0.405800	0.630000	0.146500
C61	C6	0.887600	0.633000	0.245200
C71	C7	0.961500	0.007800	0.695500
C81	C8	0.984000	0.967300	0.181000
C91	C9	0.699900	0.810300	0.963800
C101	C10	0.414700	0.049200	0.698800
C111	C11	0.519800	0.726700	0.762200
C121	C12	0.028500	0.209100	0.789400
C131	C13	0.679400	0.381000	0.791700
C141	C14	0.112400	0.367000	0.754800
C151	C15	0.001600	0.941100	0.802700
C161	C16	0.460200	0.601100	0.588900
C171	C17	0.277600	0.015300	0.995200
C181	C18	0.973600	0.098400	0.710900
C191	C19	0.539800	0.398900	0.411100
C201	C20	0.702600	0.503900	0.900100
C211	C21	0.000000	0.234400	0.853300
C221	C22	0.543800	0.230300	0.644200
C231	C23	0.998300	0.765900	0.958900
C241	C24	0.496300	0.900700	0.268600
C251	C25	0.016000	0.032700	0.819000
C261	C26	0.563000	0.955600	0.802100
C271	C27	0.540400	0.346900	0.200800
C281	C28	0.552000	0.746000	0.179200
C291	C29	0.526400	0.092900	0.231500
C301	C30	0.435500	0.124200	0.024400
C311	C31	0.915100	0.721100	0.259700
C321	C32	0.746100	0.512000	0.958500
C331	C33	0.297400	0.496100	0.099900
C341	C34	0.400800	0.953000	0.717400
C351	C35	0.968900	0.677600	0.131600
C361	C36	0.971500	0.790900	0.210600
C371	C37	0.038500	0.992200	0.304500
C381	C38	0.300100	0.189700	0.036200
C391	C39	0.026400	0.901600	0.289100
C401	C40	0.448000	0.254000	0.820800
C411	C41	0.578100	0.051800	0.782700
C421	C42	0.224600	0.683100	0.593300
C431	C43	0.326500	0.790700	0.465100
C441	C44	0.469100	0.317800	0.621000
C451	C45	0.320600	0.619000	0.208300
C461	C46	0.564500	0.875800	0.975600
C471	C47	0.031100	0.322400	0.868400
C481	C48	0.594200	0.370000	0.853500
C491	C49	0.996500	0.886700	0.226700
C501	C50	0.421900	0.948200	0.217300
C511	C51	0.456200	0.769700	0.355800
C521	C52	0.848200	0.831700	0.973200
C531	C53	0.571700	0.964200	0.994800
C541	C54	0.975400	0.829100	0.720600
C551	C55	0.000000	0.765600	0.146700
C561	C56	0.652000	0.376500	0.965400
C571	C57	0.648300	0.220900	0.156500
C581	C58	0.253900	0.488000	0.041500
C591	C59	0.437000	0.044400	0.197900
C601	C60	0.001700	0.234100	0.041100
C611	C61	0.428300	0.035800	0.005200
C621	C62	0.003500	0.113300	0.773300
C631	C63	0.351700	0.779100	0.843500
C641	C64	0.473600	0.907100	0.768500
C651	C65	0.856100	0.918500	0.994800
C661	C66	0.350200	0.674400	0.255500
C671	C67	0.460700	0.739800	0.241100
C681	C68	0.722400	0.984700	0.004800
C691	C69	0.775400	0.316900	0.406700
C701	C70	0.503700	0.099300	0.731400
C711	C71	0.372500	0.584600	0.648800
C721	C72	0.599200	0.047000	0.282600
C731	C73	0.872200	0.516100	0.164100
C741	C74	0.348000	0.623500	0.034600
C751	C75	0.398600	0.701500	0.486800
C761	C76	0.539300	0.260200	0.758900
C771	C77	0.476900	0.309000	0.867700
C781	C78	0.127800	0.483900	0.835900
C791	C79	0.459600	0.653100	0.799200
C801	C80	0.024600	0.170900	0.279400
C811	C81	0.151800	0.168300	0.026800
C821	C82	0.530900	0.682200	0.379000
C831	C83	0.523100	0.691000	0.132300
C841	C84	0.143900	0.081500	0.005200
C851	C85	0.500700	0.648300	0.443700
C861	C86	0.673500	0.209300	0.534900
C871	C87	0.998400	0.058900	0.197300
C881	C88	0.910400	0.610100	0.180300
C891	C89	0.355100	0.823500	0.399600
C901	C90	0.649800	0.325600	0.744500
C911	C91	0.089600	0.389900	0.819700
C921	C92	0.644900	0.176500	0.600400
C931	C93	0.977500	0.927900	0.739600
C941	C94	0.480200	0.273300	0.237800
C951	C95	0.585300	0.950800	0.301200
C961	C96	0.627500	0.415400	0.351200
N11	N1	0.483400	0.801500	0.287900
N21	N2	0.360900	0.582800	0.095450
N31	N3	0.285700	0.569600	0.999820
N41	N4	0.714300	0.430400	0.000180
N51	N5	0.225200	0.635500	0.651600
N61	N6	0.639100	0.417200	0.904550
N71	N7	0.351400	0.686100	0.850150
N81	N8	0.548800	0.191600	0.209500
N91	N9	0.648600	0.313900	0.149850
N101	N10	0.516600	0.198500	0.712100
N111	N11	0.361000	0.665500	0.554140
N121	N12	0.774800	0.364500	0.348400
N131	N13	0.451200	0.808400	0.790500
N141	N14	0.639000	0.334500	0.445860
O11	O1	0.860000	0.447000	0.207330
O21	O2	0.845200	0.511100	0.107040
O31	O3	0.127600	0.790500	0.968690
O41	O4	0.949400	0.817600	0.665900
O51	O5	0.154800	0.488900	0.892960
O61	O6	0.140000	0.553000	0.792670
O71	O7	0.985900	0.686300	0.937060
O81	O8	0.014100	0.313700	0.062940
O91	O9	0.050600	0.182400	0.334100
O101	O10	0.872400	0.209500	0.031310
O111	O11	0.993700	0.240600	0.236800
O121	O12	0.006300	0.759400	0.763200
