data_POHMAC_clean_PM
_symmetry_space_group_name_H-M	'P1'
_cell_length_a	8.783000
_cell_length_b	9.285000
_cell_length_c	18.952000
_cell_angle_alpha	90.000000
_cell_angle_beta	90.000000
_cell_angle_gamma	109.398000
_symmetry_Int_Tables_number 1

loop_
_symmetry_equiv_pos_as_xyz
'x,y,z'

loop_
_atom_site_label
_atom_site_type_symbol
_atom_site_fract_x
_atom_site_fract_y
_atom_site_fract_z
Gd11	Gd1	0.210260	0.484890	0.553120
Gd21	Gd2	0.789740	0.015110	0.053120
Gd31	Gd3	0.210260	0.984890	0.946880
Gd41	Gd4	0.789740	0.515110	0.446880
H11	H1	0.201400	0.440900	0.058900
H21	H2	0.201400	0.940900	0.441100
H31	H3	0.589700	0.574100	0.709500
H41	H4	0.589700	0.074100	0.790500
H51	H5	0.745100	0.169000	0.691800
H61	H6	0.798600	0.559100	0.941100
H71	H7	0.410300	0.425900	0.290500
H81	H8	0.254900	0.331000	0.191800
H91	H9	0.938500	0.016300	0.312900
H101	H10	0.061500	0.983700	0.687100
H111	H11	0.745100	0.669000	0.808200
H121	H12	0.938500	0.516300	0.187100
H131	H13	0.254900	0.831000	0.308200
H141	H14	0.410300	0.925900	0.209500
H151	H15	0.061500	0.483700	0.812900
H161	H16	0.798600	0.059100	0.558900
C11	C1	0.272200	0.275200	0.361000
C21	C2	0.017800	0.900600	0.821800
C31	C3	0.223500	0.285900	0.235700
C41	C4	0.383600	0.840000	0.077400
C51	C5	0.683500	0.157900	0.794900
C61	C6	0.017800	0.400600	0.678200
C71	C7	0.727800	0.724800	0.639000
C81	C8	0.943900	0.613000	0.025900
C91	C9	0.120300	0.465300	0.035400
C101	C10	0.223500	0.785900	0.264300
C111	C11	0.683500	0.657900	0.705100
C121	C12	0.272200	0.775200	0.139000
C131	C13	0.067300	0.078500	0.437400
C141	C14	0.917300	0.338600	0.742400
C151	C15	0.917300	0.838600	0.757600
C161	C16	0.896300	0.744900	0.048600
C171	C17	0.965800	0.902200	0.691500
C181	C18	0.316500	0.342100	0.294900
C191	C19	0.127800	0.655100	0.131600
C201	C20	0.872200	0.844900	0.631600
C211	C21	0.879700	0.034700	0.535400
C221	C22	0.056100	0.387000	0.974100
C231	C23	0.082700	0.161400	0.242400
C241	C24	0.965800	0.402200	0.808500
C251	C25	0.943900	0.113000	0.474100
C261	C26	0.776500	0.714100	0.764300
C271	C27	0.872200	0.344900	0.868400
C281	C28	0.067300	0.578500	0.062600
C291	C29	0.879700	0.534700	0.964600
C301	C30	0.616400	0.160000	0.922600
C311	C31	0.982200	0.099400	0.178200
C321	C32	0.082700	0.661400	0.257600
C331	C33	0.982200	0.599400	0.321800
C341	C34	0.120300	0.965300	0.464600
C351	C35	0.932700	0.421500	0.937400
C361	C36	0.776500	0.214100	0.735700
C371	C37	0.127800	0.155100	0.368400
C381	C38	0.727800	0.224800	0.861000
C391	C39	0.034200	0.097800	0.308500
C401	C40	0.103700	0.255100	0.951400
C411	C41	0.056100	0.887000	0.525900
C421	C42	0.616400	0.660000	0.577400
C431	C43	0.896300	0.244900	0.451400
C441	C44	0.316500	0.842100	0.205100
C451	C45	0.034200	0.597800	0.191500
C461	C46	0.932700	0.921500	0.562600
C471	C47	0.383600	0.340000	0.422600
C481	C48	0.103700	0.755100	0.548600
O11	O1	0.239100	0.271200	0.925000
O21	O2	0.674500	0.660000	0.516700
O31	O3	0.239100	0.771200	0.575000
O41	O4	0.468000	0.611700	0.592000
O51	O5	0.325500	0.840000	0.016700
O61	O6	0.005200	0.621600	0.535400
O71	O7	0.151800	0.502700	0.682600
O81	O8	0.005200	0.121600	0.964600
O91	O9	0.760900	0.228800	0.425000
O101	O10	0.532000	0.888300	0.092000
O111	O11	0.848200	0.997300	0.182600
O121	O12	0.848200	0.497300	0.317400
O131	O13	0.532000	0.388300	0.408000
O141	O14	0.994800	0.878400	0.035400
O151	O15	0.036900	0.155100	0.118200
O161	O16	0.468000	0.111700	0.908000
O171	O17	0.325500	0.340000	0.483300
O181	O18	0.963100	0.844900	0.881800
O191	O19	0.994800	0.378400	0.464600
O201	O20	0.674500	0.160000	0.983300
O211	O21	0.151800	0.002700	0.817400
O221	O22	0.760900	0.728800	0.075000
O231	O23	0.036900	0.655100	0.381800
O241	O24	0.963100	0.344900	0.618200
