data_POJTUE_clean_PM
_symmetry_space_group_name_H-M	'P1'
_cell_length_a	6.835100
_cell_length_b	15.036200
_cell_length_c	19.319700
_cell_angle_alpha	90.000000
_cell_angle_beta	96.305000
_cell_angle_gamma	90.000000
_symmetry_Int_Tables_number 1

loop_
_symmetry_equiv_pos_as_xyz
'x,y,z'

loop_
_atom_site_label
_atom_site_type_symbol
_atom_site_fract_x
_atom_site_fract_y
_atom_site_fract_z
Fe11	Fe1	0.525100	0.744200	0.505600
Fe21	Fe2	0.974900	0.244200	0.494400
Fe31	Fe3	0.474900	0.255800	0.494400
Fe41	Fe4	0.025100	0.755800	0.505600
Fe51	Fe5	0.500000	0.000000	0.000000
Fe61	Fe6	0.000000	0.500000	0.000000
Fe71	Fe7	0.500000	0.500000	0.000000
Fe81	Fe8	0.000000	0.000000	0.000000
H11	H1	0.483900	0.630900	0.172000
H21	H2	0.458300	0.665100	0.289400
H31	H3	0.038100	0.605600	0.337800
H41	H4	0.063700	0.571400	0.220500
H51	H5	0.473800	0.614900	0.669600
H61	H6	0.442600	0.588800	0.787800
H71	H7	0.026500	0.639700	0.836100
H81	H8	0.057700	0.665800	0.717900
H91	H9	0.016100	0.130900	0.828000
H101	H10	0.041700	0.165100	0.710600
H111	H11	0.461900	0.105600	0.662200
H121	H12	0.436300	0.071400	0.779500
H131	H13	0.026200	0.114900	0.330400
H141	H14	0.057400	0.088800	0.212200
H151	H15	0.473500	0.139700	0.163900
H161	H16	0.442300	0.165800	0.282100
H171	H17	0.516100	0.369100	0.828000
H181	H18	0.541700	0.334900	0.710600
H191	H19	0.961900	0.394400	0.662200
H201	H20	0.936300	0.428600	0.779500
H211	H21	0.526200	0.385100	0.330400
H221	H22	0.557400	0.411200	0.212200
H231	H23	0.973500	0.360300	0.163900
H241	H24	0.942300	0.334200	0.282100
H251	H25	0.983900	0.869100	0.172000
H261	H26	0.958300	0.834900	0.289400
H271	H27	0.538100	0.894400	0.337800
H281	H28	0.563700	0.928600	0.220500
H291	H29	0.973800	0.885100	0.669600
H301	H30	0.942600	0.911200	0.787800
H311	H31	0.526500	0.860300	0.836100
H321	H32	0.557700	0.834200	0.717900
C11	C1	0.775900	0.598300	0.186500
C21	C2	0.599400	0.625600	0.206600
C31	C3	0.584500	0.645600	0.275000
C41	C4	0.746100	0.638200	0.323400
C51	C5	0.922600	0.610900	0.303300
C61	C6	0.937500	0.590900	0.234900
C71	C7	0.792400	0.576200	0.111000
C81	C8	0.729600	0.660200	0.398900
C91	C9	0.768400	0.642600	0.683900
C101	C10	0.589100	0.620100	0.704300
C111	C11	0.570900	0.604800	0.773200
C121	C12	0.732000	0.612000	0.821800
C131	C13	0.911300	0.634500	0.801400
C141	C14	0.929500	0.649800	0.732500
C151	C15	0.788000	0.659000	0.609500
C161	C16	0.212300	0.904400	0.896200
C171	C17	0.724100	0.098300	0.813500
C181	C18	0.900600	0.125600	0.793400
C191	C19	0.915500	0.145600	0.725000
C201	C20	0.753900	0.138200	0.676600
C211	C21	0.577400	0.110900	0.696700
C221	C22	0.562500	0.090900	0.765100
C231	C23	0.707600	0.076200	0.889000
C241	C24	0.770400	0.160200	0.601100
C251	C25	0.731600	0.142600	0.316100
C261	C26	0.910900	0.120100	0.295700
C271	C27	0.929100	0.104800	0.226800
C281	C28	0.768000	0.112000	0.178200
C291	C29	0.588700	0.134500	0.198600
C301	C30	0.570500	0.149800	0.267500
C311	C31	0.712000	0.159000	0.390500
C321	C32	0.287700	0.404400	0.103800
C331	C33	0.224100	0.401700	0.813500
C341	C34	0.400600	0.374400	0.793400
C351	C35	0.415500	0.354400	0.725000
C361	C36	0.253900	0.361800	0.676600
C371	C37	0.077400	0.389100	0.696700
C381	C38	0.062500	0.409100	0.765100
C391	C39	0.207600	0.423800	0.889000
C401	C40	0.270400	0.339800	0.601100
C411	C41	0.231600	0.357400	0.316100
C421	C42	0.410900	0.379900	0.295700
C431	C43	0.429100	0.395200	0.226800
C441	C44	0.268000	0.388000	0.178200
C451	C45	0.088700	0.365500	0.198600
C461	C46	0.070500	0.350200	0.267500
C471	C47	0.212000	0.341000	0.390500
C481	C48	0.787700	0.095600	0.103800
C491	C49	0.275900	0.901700	0.186500
C501	C50	0.099400	0.874400	0.206600
C511	C51	0.084500	0.854400	0.275000
C521	C52	0.246100	0.861800	0.323400
C531	C53	0.422600	0.889100	0.303300
C541	C54	0.437500	0.909100	0.234900
C551	C55	0.292400	0.923800	0.111000
C561	C56	0.229600	0.839800	0.398900
C571	C57	0.268400	0.857400	0.683900
C581	C58	0.089100	0.879900	0.704300
C591	C59	0.070900	0.895200	0.773200
C601	C60	0.232000	0.888000	0.821800
C611	C61	0.411300	0.865500	0.801400
C621	C62	0.429500	0.850200	0.732500
C631	C63	0.288000	0.841000	0.609500
C641	C64	0.712300	0.595600	0.896200
O11	O1	0.278600	0.688400	0.505400
O21	O2	0.744400	0.933400	0.999600
O31	O3	0.640000	0.577400	0.067000
O41	O4	0.958500	0.556600	0.091500
O51	O5	0.567800	0.688300	0.417100
O61	O6	0.377700	0.849400	0.444100
O71	O7	0.639500	0.650700	0.564300
O81	O8	0.453400	0.818500	0.590800
O91	O9	0.044900	0.922300	0.915400
O101	O10	0.362900	0.900700	0.940900
O111	O11	0.221400	0.188400	0.494600
O121	O12	0.755600	0.433400	0.000400
O131	O13	0.860000	0.077400	0.933000
O141	O14	0.541500	0.056600	0.908500
O151	O15	0.932200	0.188300	0.582900
O161	O16	0.122300	0.349400	0.555900
O171	O17	0.860500	0.150700	0.435700
O181	O18	0.046600	0.318500	0.409200
O191	O19	0.455100	0.422300	0.084600
O201	O20	0.137100	0.400700	0.059100
O211	O21	0.721400	0.311600	0.494600
O221	O22	0.255600	0.066600	0.000400
O231	O23	0.360000	0.422600	0.933000
O241	O24	0.041500	0.443400	0.908500
O251	O25	0.432200	0.311700	0.582900
O261	O26	0.622300	0.150600	0.555900
O271	O27	0.360500	0.349300	0.435700
O281	O28	0.546600	0.181500	0.409200
O291	O29	0.955100	0.077700	0.084600
O301	O30	0.637100	0.099300	0.059100
O311	O31	0.778600	0.811600	0.505400
O321	O32	0.244400	0.566600	0.999600
O331	O33	0.140000	0.922600	0.067000
O341	O34	0.458500	0.943400	0.091500
O351	O35	0.067800	0.811700	0.417100
O361	O36	0.877700	0.650600	0.444100
O371	O37	0.139500	0.849300	0.564300
O381	O38	0.953400	0.681500	0.590800
O391	O39	0.544900	0.577700	0.915400
O401	O40	0.862900	0.599300	0.940900
