data_POKSEP_clean_PM
_symmetry_space_group_name_H-M	'P1'
_cell_length_a	6.085300
_cell_length_b	12.404000
_cell_length_c	23.497000
_cell_angle_alpha	90.000000
_cell_angle_beta	90.000000
_cell_angle_gamma	94.515200
_symmetry_Int_Tables_number 1

loop_
_symmetry_equiv_pos_as_xyz
'x,y,z'

loop_
_atom_site_label
_atom_site_type_symbol
_atom_site_fract_x
_atom_site_fract_y
_atom_site_fract_z
Y11	Y1	0.008760	0.609250	0.668790
Y21	Y2	0.491240	0.890750	0.168790
Y31	Y3	0.991240	0.390750	0.331210
Y41	Y4	0.508760	0.109250	0.831210
Cu11	Cu1	0.500000	0.000000	0.500000
Cu21	Cu2	0.000000	0.500000	0.000000
H11	H1	0.443400	0.626900	0.829100
H21	H2	0.527800	0.776400	0.663000
H31	H3	0.825400	0.356200	0.103400
H41	H4	0.472200	0.223600	0.337000
H51	H5	0.556600	0.373100	0.170900
H61	H6	0.943400	0.126900	0.670900
H71	H7	0.391000	0.922700	0.706500
H81	H8	0.891000	0.422700	0.793500
H91	H9	0.674600	0.143800	0.603400
H101	H10	0.609000	0.077300	0.293500
H111	H11	0.325400	0.856200	0.396600
H121	H12	0.027800	0.276400	0.837000
H131	H13	0.174600	0.643800	0.896600
H141	H14	0.972200	0.723600	0.163000
H151	H15	0.056600	0.873100	0.329100
H161	H16	0.109000	0.577300	0.206500
C11	C1	0.072700	0.923600	0.358400
C21	C2	0.032500	0.924800	0.596900
C31	C3	0.365700	0.434200	0.943400
C41	C4	0.263700	0.586400	0.898800
C51	C5	0.307100	0.661000	0.094400
C61	C6	0.158400	0.072600	0.229800
C71	C7	0.532500	0.424800	0.903100
C81	C8	0.692900	0.339000	0.905600
C91	C9	0.394600	0.189700	0.307000
C101	C10	0.905500	0.827500	0.751900
C111	C11	0.634300	0.565800	0.056600
C121	C12	0.315900	0.357600	0.992400
C131	C13	0.971900	0.598300	0.217600
C141	C14	0.763700	0.086400	0.601200
C151	C15	0.894600	0.689700	0.193000
C161	C16	0.236300	0.913600	0.398800
C171	C17	0.427300	0.576400	0.858400
C181	C18	0.192900	0.839000	0.594400
C191	C19	0.594500	0.672500	0.251900
C201	C20	0.909500	0.231800	0.221300
C211	C21	0.134300	0.065800	0.443400
C221	C22	0.471900	0.098300	0.282400
C231	C23	0.409500	0.731800	0.278700
C241	C24	0.518100	0.489700	0.304000
C251	C25	0.481900	0.510300	0.696000
C261	C26	0.841600	0.927400	0.770200
C271	C27	0.184100	0.142400	0.492400
C281	C28	0.590500	0.268200	0.721300
C291	C29	0.528100	0.901700	0.717600
C301	C30	0.467500	0.575200	0.096900
C311	C31	0.028100	0.401700	0.782400
C321	C32	0.605400	0.810300	0.693000
C331	C33	0.927300	0.076400	0.641600
C341	C34	0.341600	0.427400	0.729800
C351	C35	0.094500	0.172500	0.248100
C361	C36	0.865700	0.934200	0.556600
C371	C37	0.090500	0.768200	0.778700
C381	C38	0.658400	0.572600	0.270200
C391	C39	0.981900	0.010300	0.804000
C401	C40	0.807100	0.161000	0.405600
C411	C41	0.684100	0.642400	0.007600
C421	C42	0.736300	0.413600	0.101200
C431	C43	0.967500	0.075200	0.403100
C441	C44	0.572700	0.423600	0.141600
C451	C45	0.018100	0.989700	0.196000
C461	C46	0.105400	0.310300	0.807000
C471	C47	0.405500	0.327500	0.748100
C481	C48	0.815900	0.857600	0.507600
N11	N1	0.210300	0.229600	0.288300
N21	N2	0.289700	0.270400	0.788300
N31	N3	0.266500	0.984200	0.440200
N41	N4	0.710300	0.729600	0.211700
N51	N5	0.937200	0.003800	0.360100
N61	N6	0.358000	0.040100	0.244100
N71	N7	0.858000	0.540100	0.255900
N81	N8	0.233500	0.515800	0.940200
N91	N9	0.766500	0.484200	0.059800
N101	N10	0.642000	0.959900	0.755900
N111	N11	0.562800	0.496200	0.860100
N121	N12	0.142000	0.459900	0.744100
N131	N13	0.733500	0.015800	0.559800
N141	N14	0.437200	0.503800	0.139900
N151	N15	0.062800	0.996200	0.639900
N161	N16	0.789700	0.770400	0.711700
O11	O1	0.655100	0.191300	0.750400
O21	O2	0.653100	0.294800	0.673070
O31	O3	0.844300	0.240100	0.372500
O41	O4	0.855200	0.354300	0.937200
O51	O5	0.090900	0.227100	0.495160
O61	O6	0.155100	0.691300	0.749600
O71	O7	0.153100	0.794800	0.826930
O81	O8	0.909100	0.772900	0.504840
O91	O9	0.590900	0.727100	0.004840
O101	O10	0.675800	0.886100	0.471860
O111	O11	0.344900	0.808700	0.249600
O121	O12	0.683900	0.521600	0.705880
O131	O13	0.816100	0.978400	0.205880
O141	O14	0.324200	0.113900	0.528140
O151	O15	0.346900	0.705200	0.326930
O161	O16	0.846900	0.205200	0.173070
O171	O17	0.844900	0.308700	0.250400
O181	O18	0.655700	0.259900	0.872500
O191	O19	0.409100	0.272900	0.995160
O201	O20	0.183900	0.021600	0.794120
O211	O21	0.379400	0.567800	0.662490
O221	O22	0.644800	0.145700	0.437200
O231	O23	0.316100	0.478400	0.294120
O241	O24	0.879400	0.067800	0.837510
O251	O25	0.144800	0.645700	0.062800
O261	O26	0.355200	0.854300	0.562800
O271	O27	0.175800	0.386100	0.028140
O281	O28	0.824200	0.613900	0.971860
O291	O29	0.344300	0.740100	0.127500
O301	O30	0.155700	0.759900	0.627500
O311	O31	0.120600	0.932200	0.162490
O321	O32	0.620600	0.432200	0.337510
