data_POKTEQ_clean_PM
_symmetry_space_group_name_H-M	'P1'
_cell_length_a	6.128000
_cell_length_b	12.193000
_cell_length_c	22.675000
_cell_angle_alpha	90.000000
_cell_angle_beta	90.000000
_cell_angle_gamma	89.683000
_symmetry_Int_Tables_number 1

loop_
_symmetry_equiv_pos_as_xyz
'x,y,z'

loop_
_atom_site_label
_atom_site_type_symbol
_atom_site_fract_x
_atom_site_fract_y
_atom_site_fract_z
Nd11	Nd1	0.043960	0.443350	0.351300
Nd21	Nd2	0.956040	0.556650	0.648700
Nd31	Nd3	0.456040	0.056650	0.851300
Nd41	Nd4	0.543960	0.943350	0.148700
Cu11	Cu1	0.500000	0.000000	0.500000
Cu21	Cu2	0.000000	0.500000	0.000000
H11	H1	0.329200	0.108900	0.617000
H21	H2	0.070400	0.395700	0.789300
H31	H3	0.429600	0.104300	0.289300
H41	H4	0.058400	0.756900	0.161700
H51	H5	0.454700	0.425900	0.178600
H61	H6	0.545300	0.574100	0.821400
H71	H7	0.170800	0.391100	0.117000
H81	H8	0.670800	0.891100	0.383000
H91	H9	0.941600	0.243100	0.838300
H101	H10	0.829200	0.608900	0.883000
H111	H11	0.558400	0.256900	0.338300
H121	H12	0.954700	0.925900	0.321400
H131	H13	0.570400	0.895700	0.710700
H141	H14	0.441600	0.743100	0.661700
H151	H15	0.045300	0.074100	0.678600
H161	H16	0.929600	0.604300	0.210700
C11	C1	0.064300	0.030700	0.645300
C21	C2	0.840400	0.723600	0.763300
C31	C3	0.782400	0.802800	0.576200
C41	C4	0.067200	0.631200	0.219900
C51	C5	0.522400	0.545700	0.312700
C61	C6	0.217600	0.197200	0.423800
C71	C7	0.883400	0.120100	0.226300
C81	C8	0.477600	0.454300	0.687300
C91	C9	0.046500	0.110300	0.412700
C101	C10	0.116600	0.879900	0.773700
C111	C11	0.717600	0.697200	0.076200
C121	C12	0.282400	0.302800	0.923800
C131	C13	0.022400	0.045700	0.187300
C141	C14	0.435700	0.469300	0.145300
C151	C15	0.765900	0.948100	0.391600
C161	C16	0.546500	0.610300	0.087300
C171	C17	0.383400	0.620100	0.273700
C181	C18	0.567200	0.131200	0.280100
C191	C19	0.453500	0.389700	0.912700
C201	C20	0.340400	0.223600	0.736700
C211	C21	0.159600	0.276400	0.236700
C221	C22	0.953500	0.889700	0.587300
C231	C23	0.234100	0.051900	0.608400
C241	C24	0.960700	0.213900	0.255800
C251	C25	0.977600	0.954300	0.812700
C261	C26	0.539300	0.286100	0.755800
C271	C27	0.932800	0.368800	0.780100
C281	C28	0.460700	0.713900	0.244200
C291	C29	0.432800	0.868800	0.719900
C301	C30	0.144800	0.723700	0.190400
C311	C31	0.935700	0.969300	0.354700
C321	C32	0.734100	0.551900	0.891600
C331	C33	0.823700	0.151300	0.508000
C341	C34	0.855200	0.276300	0.809600
C351	C35	0.323700	0.651300	0.992000
C361	C36	0.126800	0.910000	0.548800
C371	C37	0.564300	0.530700	0.854700
C381	C38	0.265900	0.448100	0.108400
C391	C39	0.355200	0.776300	0.690400
C401	C40	0.373200	0.590000	0.048800
C411	C41	0.039300	0.786100	0.744200
C421	C42	0.873200	0.090000	0.451200
C431	C43	0.176300	0.848700	0.492000
C441	C44	0.644800	0.223700	0.309600
C451	C45	0.676300	0.348700	0.008000
C461	C46	0.659600	0.776400	0.263300
C471	C47	0.626800	0.410000	0.951200
C481	C48	0.616600	0.379900	0.726300
N11	N1	0.814500	0.418500	0.739400
N21	N2	0.314500	0.918500	0.760600
N31	N3	0.734600	0.008200	0.439700
N41	N4	0.660500	0.235000	0.797500
N51	N5	0.765400	0.491800	0.939700
N61	N6	0.265400	0.991800	0.560300
N71	N7	0.921600	0.949100	0.635000
N81	N8	0.578400	0.550900	0.135000
N91	N9	0.078400	0.050900	0.365000
N101	N10	0.234600	0.508200	0.060300
N111	N11	0.339500	0.765000	0.202500
N121	N12	0.685500	0.081500	0.239400
N131	N13	0.839500	0.265000	0.297500
N141	N14	0.421600	0.449100	0.865000
N151	N15	0.160500	0.735000	0.702500
N161	N16	0.185500	0.581500	0.260600
O11	O1	0.715200	0.521600	0.298600
O21	O2	0.698900	0.785000	0.104400
O31	O3	0.721900	0.852600	0.230000
O41	O4	0.317900	0.891600	0.459200
O51	O5	0.682100	0.108400	0.540800
O61	O6	0.817900	0.391600	0.040800
O71	O7	0.198900	0.285000	0.395600
O81	O8	0.739200	0.752700	0.311700
O91	O9	0.778100	0.647400	0.730000
O101	O10	0.077900	0.995100	0.855000
O111	O11	0.375300	0.170400	0.455400
O121	O12	0.922100	0.004900	0.145000
O131	O13	0.124700	0.329600	0.955400
O141	O14	0.239200	0.252700	0.188300
O151	O15	0.577900	0.495100	0.645000
O161	O16	0.215200	0.021600	0.201400
O171	O17	0.182100	0.608400	0.959200
O181	O18	0.422100	0.504900	0.355000
O191	O19	0.429400	0.735400	0.981500
O201	O20	0.301100	0.215000	0.895600
O211	O21	0.070600	0.764600	0.481500
O221	O22	0.624700	0.829600	0.544600
O231	O23	0.284800	0.478400	0.701400
O241	O24	0.221900	0.352600	0.270000
O251	O25	0.801100	0.715000	0.604400
O261	O26	0.784800	0.978400	0.798600
O271	O27	0.278100	0.147400	0.770000
O281	O28	0.875300	0.670400	0.044600
O291	O29	0.260800	0.247300	0.688300
O301	O30	0.570600	0.264600	0.018500
O311	O31	0.760800	0.747300	0.811700
O321	O32	0.929400	0.235400	0.518500
