data_POKTAM_clean_PM
_symmetry_space_group_name_H-M	'P1'
_cell_length_a	6.138900
_cell_length_b	12.219200
_cell_length_c	22.728000
_cell_angle_alpha	90.000000
_cell_angle_beta	90.000000
_cell_angle_gamma	89.581000
_symmetry_Int_Tables_number 1

loop_
_symmetry_equiv_pos_as_xyz
'x,y,z'

loop_
_atom_site_label
_atom_site_type_symbol
_atom_site_fract_x
_atom_site_fract_y
_atom_site_fract_z
Pr11	Pr1	0.543000	0.443590	0.851510
Pr21	Pr2	0.043000	0.943590	0.648490
Pr31	Pr3	0.457000	0.556410	0.148490
Pr41	Pr4	0.957000	0.056410	0.351510
Cu11	Cu1	0.500000	0.500000	0.500000
Cu21	Cu2	0.000000	0.000000	0.000000
H11	H1	0.936200	0.749300	0.158600
H21	H2	0.045800	0.574400	0.321500
H31	H3	0.072700	0.893400	0.212700
H41	H4	0.436200	0.249300	0.341400
H51	H5	0.563800	0.750700	0.658600
H61	H6	0.063800	0.250700	0.841400
H71	H7	0.427300	0.606600	0.712700
H81	H8	0.830100	0.107600	0.116800
H91	H9	0.454200	0.925600	0.821500
H101	H10	0.330100	0.607600	0.383200
H111	H11	0.572700	0.393400	0.287300
H121	H12	0.927300	0.106600	0.787300
H131	H13	0.954200	0.425600	0.678500
H141	H14	0.169900	0.892400	0.883200
H151	H15	0.545800	0.074400	0.178500
H161	H16	0.669900	0.392400	0.616800
C11	C1	0.781500	0.304400	0.423500
C21	C2	0.112400	0.380600	0.228700
C31	C3	0.625400	0.910300	0.048200
C41	C4	0.218500	0.695600	0.576500
C51	C5	0.456400	0.216000	0.755900
C61	C6	0.281500	0.804400	0.076500
C71	C7	0.977900	0.453900	0.188500
C81	C8	0.234500	0.551200	0.391900
C91	C9	0.477900	0.953900	0.311500
C101	C10	0.956400	0.716000	0.744100
C111	C11	0.354200	0.278400	0.310700
C121	C12	0.158400	0.777900	0.763400
C131	C13	0.765500	0.448800	0.608100
C141	C14	0.545100	0.110100	0.913300
C151	C15	0.874600	0.589700	0.548200
C161	C16	0.341600	0.722100	0.263400
C171	C17	0.734500	0.051200	0.108100
C181	C18	0.374600	0.089700	0.951800
C191	C19	0.066200	0.132400	0.779000
C201	C20	0.672500	0.847900	0.992000
C211	C21	0.612400	0.880600	0.271300
C221	C22	0.433800	0.367600	0.279000
C231	C23	0.435800	0.969300	0.854600
C241	C24	0.043600	0.284000	0.255900
C251	C25	0.658400	0.277900	0.736600
C261	C26	0.172500	0.347900	0.508000
C271	C27	0.145800	0.221600	0.810700
C281	C28	0.841600	0.222100	0.236600
C291	C29	0.522100	0.046100	0.688500
C301	C30	0.265500	0.948800	0.891900
C311	C31	0.933800	0.867600	0.221000
C321	C32	0.954900	0.389900	0.413300
C331	C33	0.022100	0.546100	0.811500
C341	C34	0.327500	0.152100	0.008000
C351	C35	0.854200	0.778400	0.189300
C361	C36	0.125400	0.410300	0.451800
C371	C37	0.064200	0.530700	0.354600
C381	C38	0.718500	0.195600	0.923500
C391	C39	0.045100	0.610100	0.586700
C401	C40	0.645800	0.721600	0.689300
C411	C41	0.454900	0.889900	0.086700
C421	C42	0.887600	0.619400	0.771300
C431	C43	0.543600	0.784000	0.244100
C441	C44	0.827500	0.652100	0.492000
C451	C45	0.566200	0.632400	0.721000
C461	C46	0.935800	0.469300	0.645400
C471	C47	0.387600	0.119400	0.728700
C481	C48	0.564200	0.030700	0.145400
N11	N1	0.315300	0.416800	0.237150
N21	N2	0.922900	0.449400	0.364700
N31	N3	0.838100	0.765600	0.702690
N41	N4	0.234100	0.007900	0.940240
N51	N5	0.077100	0.550600	0.635300
N61	N6	0.184700	0.083200	0.737150
N71	N7	0.577100	0.050600	0.864700
N81	N8	0.422900	0.949400	0.135300
N91	N9	0.265900	0.492100	0.440240
N101	N10	0.661900	0.734400	0.202690
N111	N11	0.765900	0.992100	0.059760
N121	N12	0.338100	0.265600	0.797310
N131	N13	0.734100	0.507900	0.559760
N141	N14	0.815300	0.916800	0.262850
N151	N15	0.161900	0.234400	0.297310
N161	N16	0.684700	0.583200	0.762850
O11	O1	0.125600	0.829800	0.044310
O21	O2	0.578100	0.991600	0.355090
O31	O3	0.921900	0.508400	0.855090
O41	O4	0.181200	0.109200	0.040610
O51	O5	0.286800	0.977500	0.298080
O61	O6	0.237200	0.754000	0.811960
O71	O7	0.779000	0.148000	0.270110
O81	O8	0.221000	0.852000	0.729890
O91	O9	0.318800	0.390800	0.540610
O101	O10	0.570300	0.764000	0.981840
O111	O11	0.874400	0.170200	0.955690
O121	O12	0.421900	0.008400	0.644910
O131	O13	0.801900	0.215000	0.396110
O141	O14	0.762800	0.246000	0.188040
O151	O15	0.625600	0.329800	0.455690
O161	O16	0.198100	0.785000	0.603890
O171	O17	0.279000	0.648000	0.229890
O181	O18	0.721000	0.352000	0.770110
O191	O19	0.786800	0.477500	0.201920
O201	O20	0.301900	0.715000	0.103890
O211	O21	0.070300	0.264000	0.518160
O221	O22	0.737200	0.254000	0.688040
O231	O23	0.681200	0.609200	0.459390
O241	O24	0.698100	0.285000	0.896110
O251	O25	0.262800	0.746000	0.311960
O261	O26	0.818800	0.890800	0.959390
O271	O27	0.374400	0.670200	0.544310
O281	O28	0.929700	0.736000	0.481840
O291	O29	0.078100	0.491600	0.144910
O301	O30	0.213200	0.522500	0.798080
O311	O31	0.429700	0.236000	0.018160
O321	O32	0.713200	0.022500	0.701920
