data_POKTOA_clean_PM
_symmetry_space_group_name_H-M	'P1'
_cell_length_a	6.163500
_cell_length_b	12.287200
_cell_length_c	22.826000
_cell_angle_alpha	90.000000
_cell_angle_beta	90.000000
_cell_angle_gamma	89.645800
_symmetry_Int_Tables_number 1

loop_
_symmetry_equiv_pos_as_xyz
'x,y,z'

loop_
_atom_site_label
_atom_site_type_symbol
_atom_site_fract_x
_atom_site_fract_y
_atom_site_fract_z
La11	La1	0.041300	0.443700	0.647950
La21	La2	0.541300	0.943700	0.852050
La31	La3	0.958700	0.556300	0.352050
La41	La4	0.458700	0.056300	0.147950
Cu11	Cu1	0.000000	0.500000	0.000000
Cu21	Cu2	0.500000	0.000000	0.500000
H11	H1	0.952900	0.926500	0.677800
H21	H2	0.936700	0.250400	0.159100
H31	H3	0.047100	0.073500	0.322200
H41	H4	0.070600	0.393700	0.212100
H51	H5	0.666900	0.892300	0.616300
H61	H6	0.570600	0.893700	0.287900
H71	H7	0.333100	0.107700	0.383700
H81	H8	0.929400	0.606300	0.787900
H91	H9	0.429400	0.106300	0.712100
H101	H10	0.547100	0.573500	0.177800
H111	H11	0.063300	0.749600	0.840900
H121	H12	0.563300	0.249600	0.659100
H131	H13	0.833100	0.607700	0.116300
H141	H14	0.436700	0.750400	0.340900
H151	H15	0.166900	0.392300	0.883700
H161	H16	0.452900	0.426500	0.822200
C11	C1	0.065900	0.030300	0.355290
C21	C2	0.656300	0.776700	0.736140
C31	C3	0.843700	0.723300	0.236140
C41	C4	0.237600	0.051600	0.392310
C51	C5	0.284100	0.305500	0.075470
C61	C6	0.565900	0.530300	0.144710
C71	C7	0.545500	0.609500	0.914050
C81	C8	0.886500	0.119900	0.771170
C91	C9	0.956500	0.216000	0.744340
C101	C10	0.156300	0.276700	0.763860
C111	C11	0.522200	0.547200	0.688600
C121	C12	0.567300	0.132300	0.720560
C131	C13	0.626000	0.410800	0.047970
C141	C14	0.126000	0.910800	0.452030
C151	C15	0.715900	0.694500	0.924530
C161	C16	0.434100	0.469700	0.855290
C171	C17	0.954500	0.890500	0.414050
C181	C18	0.374000	0.589200	0.952030
C191	C19	0.386500	0.619900	0.728830
C201	C20	0.022200	0.047200	0.811400
C211	C21	0.477800	0.452800	0.311400
C221	C22	0.454500	0.390500	0.085950
C231	C23	0.874000	0.089200	0.547970
C241	C24	0.784100	0.805500	0.424530
C251	C25	0.934100	0.969700	0.644710
C261	C26	0.215900	0.194500	0.575470
C271	C27	0.932700	0.367700	0.220560
C281	C28	0.456500	0.716000	0.755660
C291	C29	0.826100	0.149700	0.491760
C301	C30	0.045500	0.109500	0.585950
C311	C31	0.067300	0.632300	0.779440
C321	C32	0.613500	0.380100	0.271170
C331	C33	0.326100	0.649700	0.008240
C341	C34	0.977800	0.952800	0.188600
C351	C35	0.543500	0.284000	0.244340
C361	C36	0.737600	0.551600	0.107690
C371	C37	0.432700	0.867700	0.279440
C381	C38	0.043500	0.784000	0.255660
C391	C39	0.645200	0.220600	0.689640
C401	C40	0.354800	0.779400	0.310360
C411	C41	0.854800	0.279400	0.189640
C421	C42	0.762400	0.948400	0.607690
C431	C43	0.262400	0.448400	0.892310
C441	C44	0.673900	0.350300	0.991760
C451	C45	0.173900	0.850300	0.508240
C461	C46	0.113500	0.880100	0.228830
C471	C47	0.145200	0.720600	0.810360
C481	C48	0.343700	0.223300	0.263860
N11	N1	0.074600	0.050500	0.634770
N21	N2	0.315900	0.916400	0.237890
N31	N3	0.733900	0.008600	0.559380
N41	N4	0.266100	0.991400	0.440620
N51	N5	0.766100	0.491400	0.059380
N61	N6	0.574600	0.550500	0.865230
N71	N7	0.425400	0.449500	0.134770
N81	N8	0.663300	0.234900	0.202990
N91	N9	0.233900	0.508600	0.940620
N101	N10	0.815900	0.416400	0.262110
N111	N11	0.925400	0.949500	0.365230
N121	N12	0.336700	0.765100	0.797010
N131	N13	0.184100	0.583600	0.737890
N141	N14	0.836700	0.265100	0.702990
N151	N15	0.163300	0.734900	0.297010
N161	N16	0.684100	0.083600	0.762110
O11	O1	0.223000	0.350500	0.730170
O21	O2	0.723000	0.850500	0.769830
O31	O3	0.922700	0.010800	0.855330
O41	O4	0.768400	0.745900	0.187500
O51	O5	0.372300	0.168500	0.544010
O61	O6	0.077300	0.989200	0.144670
O71	O7	0.127700	0.331500	0.044010
O81	O8	0.195400	0.282600	0.602830
O91	O9	0.731600	0.754100	0.687500
O101	O10	0.231600	0.254100	0.812500
O111	O11	0.068500	0.766700	0.518300
O121	O12	0.817900	0.391400	0.959820
O131	O13	0.577300	0.489200	0.355330
O141	O14	0.422700	0.510800	0.644670
O151	O15	0.288800	0.476600	0.297290
O161	O16	0.277000	0.149500	0.230170
O171	O17	0.872300	0.668500	0.955990
O181	O18	0.627700	0.831500	0.455990
O191	O19	0.182100	0.608600	0.040180
O201	O20	0.711200	0.523400	0.702710
O211	O21	0.682100	0.108600	0.459820
O221	O22	0.568500	0.266700	0.981700
O231	O23	0.804600	0.717400	0.397170
O241	O24	0.304600	0.217400	0.102830
O251	O25	0.695400	0.782600	0.897170
O261	O26	0.317900	0.891400	0.540180
O271	O27	0.931500	0.233300	0.481700
O281	O28	0.788800	0.976600	0.202710
O291	O29	0.431500	0.733300	0.018300
O301	O30	0.268400	0.245900	0.312500
O311	O31	0.777000	0.649500	0.269830
O321	O32	0.211200	0.023400	0.797290
