data_POKVUI_clean_PM
_symmetry_space_group_name_H-M	'P1'
_cell_length_a	6.159000
_cell_length_b	12.261400
_cell_length_c	22.796000
_cell_angle_alpha	90.000000
_cell_angle_beta	90.000000
_cell_angle_gamma	89.777600
_symmetry_Int_Tables_number 1

loop_
_symmetry_equiv_pos_as_xyz
'x,y,z'

loop_
_atom_site_label
_atom_site_type_symbol
_atom_site_fract_x
_atom_site_fract_y
_atom_site_fract_z
Ce11	Ce1	0.042560	0.943540	0.351740
Ce21	Ce2	0.957440	0.056460	0.648260
Ce31	Ce3	0.542560	0.443540	0.148260
Ce41	Ce4	0.457440	0.556460	0.851740
Cu11	Cu1	0.000000	0.000000	0.000000
Cu21	Cu2	0.500000	0.500000	0.500000
H11	H1	0.933400	0.746800	0.841300
H21	H2	0.433400	0.246800	0.658700
H31	H3	0.066600	0.253200	0.158700
H41	H4	0.430400	0.606200	0.286200
H51	H5	0.046000	0.579200	0.676300
H61	H6	0.546000	0.079200	0.823700
H71	H7	0.566600	0.753200	0.341300
H81	H8	0.454000	0.920800	0.176300
H91	H9	0.930400	0.106200	0.213800
H101	H10	0.166900	0.895400	0.118100
H111	H11	0.833100	0.104600	0.881900
H121	H12	0.069600	0.893800	0.786200
H131	H13	0.666900	0.395400	0.381900
H141	H14	0.333100	0.604600	0.618100
H151	H15	0.569600	0.393800	0.713800
H161	H16	0.954000	0.420800	0.323700
C11	C1	0.433000	0.967000	0.144300
C21	C2	0.851700	0.776300	0.810800
C31	C3	0.171800	0.350200	0.493100
C41	C4	0.478000	0.953000	0.688300
C51	C5	0.218900	0.695100	0.422900
C61	C6	0.843500	0.220500	0.764200
C71	C7	0.875100	0.589900	0.452100
C81	C8	0.828200	0.649800	0.506900
C91	C9	0.022000	0.547000	0.188300
C101	C10	0.954300	0.390700	0.585900
C111	C11	0.545700	0.109300	0.085900
C121	C12	0.766300	0.449700	0.391400
C131	C13	0.385800	0.118200	0.271900
C141	C14	0.931200	0.867800	0.778200
C151	C15	0.114200	0.381800	0.771900
C161	C16	0.281100	0.804900	0.922900
C171	C17	0.233700	0.550300	0.608600
C181	C18	0.953700	0.716300	0.256100
C191	C19	0.266300	0.949700	0.108600
C201	C20	0.568800	0.632200	0.278200
C211	C21	0.343500	0.720500	0.735800
C221	C22	0.624900	0.910100	0.952100
C231	C23	0.046300	0.283700	0.743900
C241	C24	0.522000	0.047000	0.311700
C251	C25	0.068800	0.132200	0.221800
C261	C26	0.671800	0.850200	0.006900
C271	C27	0.454300	0.890700	0.914100
C281	C28	0.648300	0.723700	0.310800
C291	C29	0.351700	0.276300	0.689200
C301	C30	0.375100	0.089900	0.047900
C311	C31	0.546300	0.783700	0.756100
C321	C32	0.328200	0.149800	0.993100
C331	C33	0.978000	0.453000	0.811700
C341	C34	0.781100	0.304900	0.577100
C351	C35	0.045700	0.609300	0.414100
C361	C36	0.733700	0.050300	0.891400
C371	C37	0.453700	0.216300	0.243900
C381	C38	0.718900	0.195100	0.077100
C391	C39	0.156500	0.779500	0.235800
C401	C40	0.567000	0.033000	0.855700
C411	C41	0.067000	0.533000	0.644300
C421	C42	0.148300	0.223700	0.189200
C431	C43	0.614200	0.881800	0.728100
C441	C44	0.885800	0.618200	0.228100
C451	C45	0.431200	0.367800	0.721800
C461	C46	0.656500	0.279500	0.264200
C471	C47	0.124900	0.410100	0.547900
C481	C48	0.933000	0.467000	0.355700
N11	N1	0.816000	0.916000	0.737700
N21	N2	0.316000	0.416000	0.762300
N31	N3	0.338400	0.265600	0.202900
N41	N4	0.078300	0.551700	0.365000
N51	N5	0.734700	0.507300	0.440300
N61	N6	0.161600	0.234400	0.702900
N71	N7	0.661600	0.734400	0.797100
N81	N8	0.184000	0.084000	0.262300
N91	N9	0.838400	0.765600	0.297100
N101	N10	0.265300	0.492700	0.559700
N111	N11	0.578300	0.051700	0.135000
N121	N12	0.234700	0.007300	0.059700
N131	N13	0.765300	0.992700	0.940300
N141	N14	0.684000	0.584000	0.237700
N151	N15	0.421700	0.948300	0.865000
N161	N16	0.921700	0.448300	0.635000
O11	O1	0.802700	0.215300	0.603500
O21	O2	0.930600	0.735400	0.518600
O31	O3	0.126300	0.830700	0.956200
O41	O4	0.719900	0.351100	0.230600
O51	O5	0.373700	0.669300	0.456200
O61	O6	0.569400	0.764600	0.018600
O71	O7	0.738600	0.253400	0.312000
O81	O8	0.321100	0.390900	0.459500
O91	O9	0.197300	0.784700	0.396500
O101	O10	0.219900	0.851100	0.269400
O111	O11	0.626300	0.330700	0.543800
O121	O12	0.069400	0.264600	0.481400
O131	O13	0.821100	0.890900	0.040500
O141	O14	0.697300	0.284700	0.103500
O151	O15	0.430600	0.235400	0.981400
O161	O16	0.074300	0.490700	0.855200
O171	O17	0.788500	0.477500	0.797700
O181	O18	0.302700	0.715300	0.896500
O191	O19	0.873700	0.169300	0.043800
O201	O20	0.574300	0.990700	0.644800
O211	O21	0.280100	0.648900	0.769400
O221	O22	0.261400	0.746600	0.688000
O231	O23	0.178900	0.109100	0.959500
O241	O24	0.238600	0.753400	0.188000
O251	O25	0.925700	0.509300	0.144800
O261	O26	0.761400	0.246600	0.812000
O271	O27	0.678900	0.609100	0.540500
O281	O28	0.780100	0.148900	0.730600
O291	O29	0.425700	0.009300	0.355200
O301	O30	0.211500	0.522500	0.202300
O311	O31	0.711500	0.022500	0.297700
O321	O32	0.288500	0.977500	0.702300
