data_POLBOH_clean_PM
_symmetry_space_group_name_H-M	'P1'
_cell_length_a	8.293900
_cell_length_b	9.226000
_cell_length_c	12.502100
_cell_angle_alpha	90.000000
_cell_angle_beta	90.000000
_cell_angle_gamma	90.000000
_symmetry_Int_Tables_number 1

loop_
_symmetry_equiv_pos_as_xyz
'x,y,z'

loop_
_atom_site_label
_atom_site_type_symbol
_atom_site_fract_x
_atom_site_fract_y
_atom_site_fract_z
V11	V1	0.746000	0.064000	0.394900
V21	V2	0.976500	0.709300	0.502800
P11	P1	0.758600	0.932900	0.635900
O11	O1	0.765500	0.055300	0.553500
O21	O2	0.900100	0.827400	0.620000
O31	O3	0.766100	0.002900	0.746400
O41	O4	0.597400	0.850100	0.627100
O51	O5	0.612700	0.876500	0.421100
F11	F1	0.946500	0.879900	0.416600
V31	V3	0.754000	0.936000	0.894900
V41	V4	0.523500	0.290700	0.002800
P21	P2	0.741400	0.067100	0.135900
O61	O6	0.734500	0.944700	0.053500
O71	O7	0.599900	0.172600	0.120000
O81	O8	0.733900	0.997100	0.246400
O91	O9	0.902600	0.149900	0.127100
O101	O10	0.887300	0.123500	0.921100
F21	F2	0.553500	0.120100	0.916600
V51	V5	0.254000	0.564000	0.105100
V61	V6	0.023500	0.209300	0.997200
P31	P3	0.241400	0.432900	0.864100
O111	O11	0.234500	0.555300	0.946500
O121	O12	0.099900	0.327400	0.880000
O131	O13	0.233900	0.502900	0.753600
O141	O14	0.402600	0.350100	0.872900
O151	O15	0.387300	0.376500	0.078900
F31	F3	0.053500	0.379900	0.083400
V71	V7	0.246000	0.436000	0.605100
V81	V8	0.476500	0.790700	0.497200
P41	P4	0.258600	0.567100	0.364100
O161	O16	0.265500	0.444700	0.446500
O171	O17	0.400100	0.672600	0.380000
O181	O18	0.266100	0.497100	0.253600
O191	O19	0.097400	0.649900	0.372900
O201	O20	0.112700	0.623500	0.578900
F41	F4	0.446500	0.620100	0.583400
