data_POLDOK_clean_PM
_symmetry_space_group_name_H-M	'P1'
_cell_length_a	24.142800
_cell_length_b	24.142800
_cell_length_c	4.987800
_cell_angle_alpha	90.000000
_cell_angle_beta	90.000000
_cell_angle_gamma	90.000000
_symmetry_Int_Tables_number 1

loop_
_symmetry_equiv_pos_as_xyz
'x,y,z'

loop_
_atom_site_label
_atom_site_type_symbol
_atom_site_fract_x
_atom_site_fract_y
_atom_site_fract_z
O11	O1	0.477100	0.068100	0.177300
N11	N1	0.360870	0.161420	0.198400
C11	C1	0.431820	0.089740	0.098500
N21	N2	0.293230	0.203810	0.000600
N31	N3	0.314860	0.146270	0.336300
C21	C2	0.414540	0.139070	0.270400
H11	H1	0.413700	0.127700	0.456900
H21	H2	0.442200	0.168000	0.253000
O21	O2	0.404270	0.074480	0.907600
C31	C3	0.275440	0.172660	0.210300
H31	H3	0.238400	0.170300	0.259900
C41	C4	0.347440	0.195300	0.001000
H41	H4	0.372300	0.210900	0.880300
O31	O3	0.977100	0.568100	0.677300
N41	N4	0.860870	0.661420	0.698400
C51	C5	0.931820	0.589740	0.598500
N51	N5	0.793230	0.703810	0.500600
N61	N6	0.814860	0.646270	0.836300
C61	C6	0.914540	0.639070	0.770400
H51	H5	0.913700	0.627700	0.956900
H61	H6	0.942200	0.668000	0.753000
O41	O4	0.904270	0.574480	0.407600
C71	C7	0.775440	0.672660	0.710300
H71	H7	0.738400	0.670300	0.759900
C81	C8	0.847440	0.695300	0.501000
H81	H8	0.872300	0.710900	0.380300
O51	O5	0.022900	0.931900	0.677300
N71	N7	0.139130	0.838580	0.698400
C91	C9	0.068180	0.910260	0.598500
N81	N8	0.206770	0.796190	0.500600
N91	N9	0.185140	0.853730	0.836300
C101	C10	0.085460	0.860930	0.770400
H91	H9	0.086300	0.872300	0.956900
H101	H10	0.057800	0.832000	0.753000
O61	O6	0.095730	0.925520	0.407600
C111	C11	0.224560	0.827340	0.710300
H111	H11	0.261600	0.829700	0.759900
C121	C12	0.152560	0.804700	0.501000
H121	H12	0.127700	0.789100	0.380300
O71	O7	0.522900	0.431900	0.177300
N101	N10	0.639130	0.338580	0.198400
C131	C13	0.568180	0.410260	0.098500
N111	N11	0.706770	0.296190	0.000600
N121	N12	0.685140	0.353730	0.336300
C141	C14	0.585460	0.360930	0.270400
H131	H13	0.586300	0.372300	0.456900
H141	H14	0.557800	0.332000	0.253000
O81	O8	0.595730	0.425520	0.907600
C151	C15	0.724560	0.327340	0.210300
H151	H15	0.761600	0.329700	0.259900
C161	C16	0.652560	0.304700	0.001000
H161	H16	0.627700	0.289100	0.880300
O91	O9	0.681900	0.727100	0.427300
N131	N13	0.588580	0.610870	0.448400
C171	C17	0.660260	0.681820	0.348500
N141	N14	0.546190	0.543230	0.250600
N151	N15	0.603730	0.564860	0.586300
C181	C18	0.610930	0.664540	0.520400
H171	H17	0.622300	0.663700	0.706900
H181	H18	0.582000	0.692200	0.503000
O101	O10	0.675520	0.654270	0.157600
C191	C19	0.577340	0.525440	0.460300
H191	H19	0.579700	0.488400	0.509900
C201	C20	0.554700	0.597440	0.251000
H201	H20	0.539100	0.622300	0.130300
O111	O11	0.181900	0.227100	0.927300
N161	N16	0.088580	0.110870	0.948400
C211	C21	0.160260	0.181820	0.848500
N171	N17	0.046190	0.043230	0.750600
N181	N18	0.103730	0.064860	0.086300
C221	C22	0.110930	0.164540	0.020400
H211	H21	0.122300	0.163700	0.206900
H221	H22	0.082000	0.192200	0.003000
O121	O12	0.175520	0.154270	0.657600
C231	C23	0.077340	0.025440	0.960300
H231	H23	0.079700	0.988400	0.009900
C241	C24	0.054700	0.097440	0.751000
H241	H24	0.039100	0.122300	0.630300
O131	O13	0.818100	0.272900	0.927300
N191	N19	0.911420	0.389130	0.948400
C251	C25	0.839740	0.318180	0.848500
N201	N20	0.953810	0.456770	0.750600
N211	N21	0.896270	0.435140	0.086300
C261	C26	0.889070	0.335460	0.020400
H251	H25	0.877700	0.336300	0.206900
H261	H26	0.918000	0.307800	0.003000
O141	O14	0.824480	0.345730	0.657600
C271	C27	0.922660	0.474560	0.960300
H271	H27	0.920300	0.511600	0.009900
C281	C28	0.945300	0.402560	0.751000
H281	H28	0.960900	0.377700	0.630300
O151	O15	0.318100	0.772900	0.427300
N221	N22	0.411420	0.889130	0.448400
C291	C29	0.339740	0.818180	0.348500
N231	N23	0.453810	0.956770	0.250600
N241	N24	0.396270	0.935140	0.586300
C301	C30	0.389070	0.835460	0.520400
H291	H29	0.377700	0.836300	0.706900
H301	H30	0.418000	0.807800	0.503000
O161	O16	0.324480	0.845730	0.157600
C311	C31	0.422660	0.974560	0.460300
H311	H31	0.420300	0.011600	0.509900
C321	C32	0.445300	0.902560	0.251000
H321	H32	0.460900	0.877700	0.130300
O171	O17	0.522900	0.931900	0.822700
N251	N25	0.639130	0.838580	0.801600
C331	C33	0.568180	0.910260	0.901500
N261	N26	0.706770	0.796190	0.999400
N271	N27	0.685140	0.853730	0.663700
C341	C34	0.585460	0.860930	0.729600
H331	H33	0.586300	0.872300	0.543100
H341	H34	0.557800	0.832000	0.747000
O181	O18	0.595730	0.925520	0.092400
C351	C35	0.724560	0.827340	0.789700
H351	H35	0.761600	0.829700	0.740100
C361	C36	0.652560	0.804700	0.999000
H361	H36	0.627700	0.789100	0.119700
O191	O19	0.022900	0.431900	0.322700
N281	N28	0.139130	0.338580	0.301600
C371	C37	0.068180	0.410260	0.401500
N291	N29	0.206770	0.296190	0.499400
N301	N30	0.185140	0.353730	0.163700
C381	C38	0.085460	0.360930	0.229600
H371	H37	0.086300	0.372300	0.043100
H381	H38	0.057800	0.332000	0.247000
O201	O20	0.095730	0.425520	0.592400
C391	C39	0.224560	0.327340	0.289700
H391	H39	0.261600	0.329700	0.240100
C401	C40	0.152560	0.304700	0.499000
H401	H40	0.127700	0.289100	0.619700
O211	O21	0.977100	0.068100	0.322700
N311	N31	0.860870	0.161420	0.301600
C411	C41	0.931820	0.089740	0.401500
N321	N32	0.793230	0.203810	0.499400
N331	N33	0.814860	0.146270	0.163700
C421	C42	0.914540	0.139070	0.229600
H411	H41	0.913700	0.127700	0.043100
H421	H42	0.942200	0.168000	0.247000
O221	O22	0.904270	0.074480	0.592400
C431	C43	0.775440	0.172660	0.289700
H431	H43	0.738400	0.170300	0.240100
C441	C44	0.847440	0.195300	0.499000
H441	H44	0.872300	0.210900	0.619700
O231	O23	0.477100	0.568100	0.822700
N341	N34	0.360870	0.661420	0.801600
C451	C45	0.431820	0.589740	0.901500
N351	N35	0.293230	0.703810	0.999400
N361	N36	0.314860	0.646270	0.663700
C461	C46	0.414540	0.639070	0.729600
H451	H45	0.413700	0.627700	0.543100
H461	H46	0.442200	0.668000	0.747000
O241	O24	0.404270	0.574480	0.092400
C471	C47	0.275440	0.672660	0.789700
H471	H47	0.238400	0.670300	0.740100
C481	C48	0.347440	0.695300	0.999000
H481	H48	0.372300	0.710900	0.119700
O251	O25	0.318100	0.272900	0.572700
N371	N37	0.411420	0.389130	0.551600
C491	C49	0.339740	0.318180	0.651500
N381	N38	0.453810	0.456770	0.749400
N391	N39	0.396270	0.435140	0.413700
C501	C50	0.389070	0.335460	0.479600
H491	H49	0.377700	0.336300	0.293100
H501	H50	0.418000	0.307800	0.497000
O261	O26	0.324480	0.345730	0.842400
C511	C51	0.422660	0.474560	0.539700
H511	H51	0.420300	0.511600	0.490100
C521	C52	0.445300	0.402560	0.749000
H521	H52	0.460900	0.377700	0.869700
O271	O27	0.818100	0.772900	0.072700
N401	N40	0.911420	0.889130	0.051600
C531	C53	0.839740	0.818180	0.151500
N411	N41	0.953810	0.956770	0.249400
N421	N42	0.896270	0.935140	0.913700
C541	C54	0.889070	0.835460	0.979600
H531	H53	0.877700	0.836300	0.793100
H541	H54	0.918000	0.807800	0.997000
O281	O28	0.824480	0.845730	0.342400
C551	C55	0.922660	0.974560	0.039700
H551	H55	0.920300	0.011600	0.990100
C561	C56	0.945300	0.902560	0.249000
H561	H56	0.960900	0.877700	0.369700
O291	O29	0.181900	0.727100	0.072700
N431	N43	0.088580	0.610870	0.051600
C571	C57	0.160260	0.681820	0.151500
N441	N44	0.046190	0.543230	0.249400
N451	N45	0.103730	0.564860	0.913700
C581	C58	0.110930	0.664540	0.979600
H571	H57	0.122300	0.663700	0.793100
H581	H58	0.082000	0.692200	0.997000
O301	O30	0.175520	0.654270	0.342400
C591	C59	0.077340	0.525440	0.039700
H591	H59	0.079700	0.488400	0.990100
C601	C60	0.054700	0.597440	0.249000
H601	H60	0.039100	0.622300	0.369700
O311	O31	0.681900	0.227100	0.572700
N461	N46	0.588580	0.110870	0.551600
C611	C61	0.660260	0.181820	0.651500
N471	N47	0.546190	0.043230	0.749400
N481	N48	0.603730	0.064860	0.413700
C621	C62	0.610930	0.164540	0.479600
H611	H61	0.622300	0.163700	0.293100
H621	H62	0.582000	0.192200	0.497000
O321	O32	0.675520	0.154270	0.842400
C631	C63	0.577340	0.025440	0.539700
H631	H63	0.579700	0.988400	0.490100
C641	C64	0.554700	0.097440	0.749000
H641	H64	0.539100	0.122300	0.869700
Cu11	Cu1	0.500000	0.000000	0.000000
Cu21	Cu2	0.000000	0.500000	0.500000
Cu31	Cu3	0.000000	0.000000	0.500000
Cu41	Cu4	0.500000	0.500000	0.000000
Cu51	Cu5	0.750000	0.750000	0.250000
Cu61	Cu6	0.750000	0.250000	0.750000
Cu71	Cu7	0.250000	0.250000	0.750000
Cu81	Cu8	0.250000	0.750000	0.250000
