data_POMSOB_clean_PM
_symmetry_space_group_name_H-M	'P1'
_cell_length_a	10.112000
_cell_length_b	13.752800
_cell_length_c	15.043400
_cell_angle_alpha	77.558000
_cell_angle_beta	70.360800
_cell_angle_gamma	68.430100
_symmetry_Int_Tables_number 1

loop_
_symmetry_equiv_pos_as_xyz
'x,y,z'

loop_
_atom_site_label
_atom_site_type_symbol
_atom_site_fract_x
_atom_site_fract_y
_atom_site_fract_z
Ca11	Ca1	0.490770	0.527170	0.119770
Ca21	Ca2	0.509230	0.472830	0.880230
Ca31	Ca3	0.137710	0.972830	0.380230
Ca41	Ca4	0.215170	0.750000	0.250000
Ca51	Ca5	0.862290	0.027170	0.619770
Ca61	Ca6	0.784830	0.250000	0.750000
H11	H1	0.584300	0.354100	0.419300
H21	H2	0.503900	0.834200	0.076000
H31	H3	0.827500	0.171700	0.248700
H41	H4	0.415700	0.645900	0.580700
H51	H5	0.247900	0.328300	0.251300
H61	H6	0.838700	0.803900	0.655100
H71	H7	0.227800	0.904900	0.018100
H81	H8	0.150800	0.595100	0.481900
H91	H9	0.172500	0.828300	0.751300
H101	H10	0.642300	0.854100	0.919300
H111	H11	0.357700	0.145900	0.080700
H121	H12	0.752100	0.671700	0.748700
H131	H13	0.114000	0.038300	0.918900
H141	H14	0.928800	0.538300	0.418900
H151	H15	0.772200	0.095100	0.981900
H161	H16	0.886000	0.961700	0.081100
H171	H17	0.585900	0.334200	0.576000
H181	H18	0.702300	0.303900	0.155100
H191	H19	0.496100	0.165800	0.924000
H201	H20	0.297700	0.696100	0.844900
H211	H21	0.071200	0.461700	0.581100
H221	H22	0.849200	0.404900	0.518100
H231	H23	0.414100	0.665800	0.424000
H241	H24	0.161300	0.196100	0.344900
C11	C1	0.071610	0.610690	0.536290
C21	C2	0.098380	0.447040	0.325400
C31	C3	0.870820	0.052960	0.174600
C41	C4	0.653550	0.300820	0.994480
C51	C5	0.815100	0.155840	0.195560
C61	C6	0.977660	0.469070	0.404810
C71	C7	0.928390	0.389310	0.463710
C81	C8	0.022340	0.530930	0.595190
C91	C9	0.449750	0.586920	0.548380
C101	C10	0.325290	0.976550	0.194670
C111	C11	0.045050	0.032250	0.764250
C121	C12	0.851540	0.030930	0.095190
C131	C13	0.503490	0.476550	0.694670
C141	C14	0.833500	0.655840	0.695560
C151	C15	0.051150	0.800820	0.494480
C161	C16	0.585050	0.913080	0.951620
C171	C17	0.496510	0.523450	0.305330
C181	C18	0.948850	0.199180	0.505520
C191	C19	0.166500	0.344160	0.304440
C201	C20	0.184900	0.844160	0.804440
C211	C21	0.996660	0.286720	0.441760
C221	C22	0.841550	0.467750	0.735750
C231	C23	0.158450	0.532250	0.264250
C241	C24	0.346450	0.699180	0.005520
C251	C25	0.115630	0.264790	0.360950
C261	C26	0.129180	0.947040	0.825400
C271	C27	0.954950	0.967750	0.235750
C281	C28	0.674710	0.023450	0.805330
C291	C29	0.501960	0.901110	0.045770
C301	C30	0.414950	0.086920	0.048380
C311	C31	0.218590	0.889310	0.963710
C321	C32	0.258630	0.764790	0.860950
C331	C33	0.498040	0.098890	0.954230
C341	C34	0.003340	0.713280	0.558240
C351	C35	0.551160	0.401110	0.545770
C361	C36	0.448840	0.598890	0.454230
C371	C37	0.583000	0.012210	0.905990
C381	C38	0.884370	0.735210	0.639050
C391	C39	0.725140	0.213280	0.058240
C401	C40	0.417000	0.987790	0.094010
C411	C41	0.901620	0.552960	0.674600
C421	C42	0.741370	0.235210	0.139050
C431	C43	0.498800	0.512210	0.405990
C441	C44	0.148460	0.969070	0.904810
C451	C45	0.781410	0.110690	0.036290
C461	C46	0.501200	0.487790	0.594010
C471	C47	0.274860	0.786720	0.941760
C481	C48	0.550250	0.413080	0.451620
O11	O1	0.438830	0.556390	0.739750
O21	O2	0.429760	0.612880	0.267820
O31	O3	0.734970	0.943610	0.760250
O41	O4	0.561170	0.443610	0.260250
O51	O5	0.265030	0.056390	0.239750
O61	O6	0.583490	0.390250	0.024370
O71	O7	0.899050	0.377680	0.709620
O81	O8	0.962500	0.993820	0.308380
O91	O9	0.735300	0.493820	0.808380
O101	O10	0.416510	0.609750	0.975630
O111	O11	0.861010	0.214270	0.587490
O121	O12	0.337230	0.714270	0.087490
O131	O13	0.001890	0.890250	0.524370
O141	O14	0.037500	0.006180	0.691620
O151	O15	0.264700	0.506180	0.191620
O161	O16	0.100950	0.622320	0.290380
O171	O17	0.310460	0.887120	0.232180
O181	O18	0.138990	0.785730	0.412510
O191	O19	0.998110	0.109750	0.475630
O201	O20	0.662770	0.285730	0.912510
O211	O21	0.689540	0.112880	0.767820
O221	O22	0.986350	0.122320	0.790380
O231	O23	0.570240	0.387120	0.732180
O241	O24	0.013650	0.877680	0.209620
