data_POMSER_clean_PM
_symmetry_space_group_name_H-M	'P1'
_cell_length_a	9.989200
_cell_length_b	10.925100
_cell_length_c	22.612300
_cell_angle_alpha	94.870000
_cell_angle_beta	90.000000
_cell_angle_gamma	90.000000
_symmetry_Int_Tables_number 1

loop_
_symmetry_equiv_pos_as_xyz
'x,y,z'

loop_
_atom_site_label
_atom_site_type_symbol
_atom_site_fract_x
_atom_site_fract_y
_atom_site_fract_z
Ca11	Ca1	0.981210	0.448220	0.838720
Ca21	Ca2	0.018790	0.551780	0.161280
Ca31	Ca3	0.806280	0.750000	0.250000
Ca41	Ca4	0.193720	0.250000	0.750000
Ca51	Ca5	0.981210	0.051780	0.661280
Ca61	Ca6	0.000000	0.500000	0.000000
Ca71	Ca7	0.000000	0.000000	0.500000
Ca81	Ca8	0.018790	0.948220	0.338720
H11	H1	0.681300	0.162800	0.495100
H21	H2	0.144000	0.129600	0.012000
H31	H3	0.522100	0.692300	0.950300
H41	H4	0.170400	0.581200	0.494900
H51	H5	0.856000	0.870400	0.988000
H61	H6	0.719300	0.662800	0.000800
H71	H7	0.990800	0.878100	0.821100
H81	H8	0.829600	0.418800	0.505100
H91	H9	0.492200	0.407700	0.854600
H101	H10	0.856000	0.629600	0.512000
H111	H11	0.477900	0.192300	0.450300
H121	H12	0.318700	0.837200	0.504900
H131	H13	0.009200	0.121900	0.178900
H141	H14	0.009200	0.378100	0.321100
H151	H15	0.829600	0.081200	0.994900
H161	H16	0.895000	0.191500	0.916800
H171	H17	0.507800	0.907700	0.354600
H181	H18	0.144000	0.370400	0.488000
H191	H19	0.105000	0.691500	0.416800
H201	H20	0.318700	0.662800	0.995100
H211	H21	0.895000	0.308500	0.583200
H221	H22	0.492200	0.092300	0.645400
H231	H23	0.477900	0.307700	0.049700
H241	H24	0.280700	0.337200	0.999200
H251	H25	0.170400	0.918800	0.005100
H261	H26	0.681300	0.337200	0.004900
H271	H27	0.507800	0.592300	0.145400
H281	H28	0.719300	0.837200	0.499200
H291	H29	0.280700	0.162800	0.500800
H301	H30	0.522100	0.807700	0.549700
H311	H31	0.105000	0.808500	0.083200
H321	H32	0.990800	0.621900	0.678900
C11	C1	0.489300	0.390200	0.894100
C21	C2	0.929800	0.647100	0.595500
C31	C3	0.040800	0.283000	0.096500
C41	C4	0.366500	0.376100	0.921790
C51	C5	0.259800	0.595500	0.102900
C61	C6	0.005000	0.618800	0.311770
C71	C7	0.120400	0.085600	0.043800
C81	C8	0.761500	0.901900	0.390660
C91	C9	0.051000	0.546000	0.361290
C101	C10	0.879600	0.585600	0.543800
C111	C11	0.038600	0.419000	0.356400
C121	C12	0.480600	0.170000	0.489100
C131	C13	0.038600	0.081000	0.143600
C141	C14	0.238500	0.098100	0.609340
C151	C15	0.740200	0.404500	0.897100
C161	C16	0.961400	0.919000	0.856400
C171	C17	0.051000	0.954000	0.138710
C181	C18	0.519400	0.670000	0.989100
C191	C19	0.519400	0.830000	0.510900
C201	C20	0.761500	0.598100	0.109340
C211	C21	0.864600	0.459400	0.539500
C221	C22	0.005000	0.881200	0.188230
C231	C23	0.901800	0.106300	0.913400
C241	C24	0.070200	0.352900	0.404500
C251	C25	0.397600	0.846900	0.483900
C261	C26	0.098200	0.606300	0.413400
C271	C27	0.995000	0.118800	0.811770
C281	C28	0.135400	0.959400	0.039500
C291	C29	0.961400	0.581000	0.643600
C301	C30	0.879600	0.914400	0.956200
C311	C31	0.120400	0.414400	0.456200
C321	C32	0.949000	0.454000	0.638710
C331	C33	0.959200	0.783000	0.596500
C341	C34	0.135400	0.540600	0.460500
C351	C35	0.040800	0.217000	0.403500
C361	C36	0.949000	0.046000	0.861290
C371	C37	0.391600	0.878200	0.425580
C381	C38	0.637400	0.653800	0.019500
C391	C39	0.098200	0.893700	0.086600
C401	C40	0.391600	0.621800	0.074420
C411	C41	0.362600	0.346200	0.980500
C421	C42	0.489300	0.109800	0.605900
C431	C43	0.480600	0.330000	0.010900
C441	C44	0.864600	0.040600	0.960500
C451	C45	0.259800	0.904500	0.397100
C461	C46	0.366500	0.123900	0.578210
C471	C47	0.510700	0.890200	0.394100
C481	C48	0.995000	0.381200	0.688230
C491	C49	0.510700	0.609800	0.105900
C501	C50	0.362600	0.153800	0.519500
C511	C51	0.397600	0.653100	0.016100
C521	C52	0.602400	0.346900	0.983900
C531	C53	0.637400	0.846200	0.480500
C541	C54	0.740200	0.095500	0.602900
C551	C55	0.608400	0.378200	0.925580
C561	C56	0.901800	0.393700	0.586600
C571	C57	0.929800	0.852900	0.904500
C581	C58	0.238500	0.401900	0.890660
C591	C59	0.959200	0.717000	0.903500
C601	C60	0.633500	0.876100	0.421790
C611	C61	0.070200	0.147100	0.095500
C621	C62	0.633500	0.623900	0.078210
C631	C63	0.608400	0.121800	0.574420
C641	C64	0.602400	0.153100	0.516100
O11	O1	0.965700	0.672800	0.952300
O21	O2	0.992400	0.767100	0.178140
O31	O3	0.022000	0.437300	0.737500
O41	O4	0.992400	0.732900	0.321860
O51	O5	0.020500	0.341400	0.146400
O61	O6	0.978000	0.937300	0.237500
O71	O7	0.034300	0.327200	0.047700
O81	O8	0.862900	0.569900	0.078620
O91	O9	0.137100	0.430100	0.921380
O101	O10	0.842200	0.418300	0.930030
O111	O11	0.157800	0.581700	0.069970
O121	O12	0.842200	0.081700	0.569970
O131	O13	0.234400	0.396200	0.834700
O141	O14	0.746200	0.089200	0.657330
O151	O15	0.234400	0.103800	0.665300
O161	O16	0.978000	0.562700	0.262500
O171	O17	0.862900	0.930100	0.421380
O181	O18	0.020500	0.158600	0.353600
O191	O19	0.007600	0.232900	0.821860
O201	O20	0.007600	0.267100	0.678140
O211	O21	0.965700	0.827200	0.547700
O221	O22	0.765600	0.603800	0.165300
O231	O23	0.022000	0.062700	0.762500
O241	O24	0.034300	0.172800	0.452300
O251	O25	0.746200	0.410800	0.842670
O261	O26	0.979500	0.658600	0.853600
O271	O27	0.157800	0.918300	0.430030
O281	O28	0.137100	0.069900	0.578620
O291	O29	0.979500	0.841400	0.646400
O301	O30	0.765600	0.896200	0.334700
O311	O31	0.253800	0.910800	0.342670
O321	O32	0.253800	0.589200	0.157330
