data_PONSOC_clean_PM
_symmetry_space_group_name_H-M	'P1'
_cell_length_a	26.639600
_cell_length_b	12.985300
_cell_length_c	23.232600
_cell_angle_alpha	90.000000
_cell_angle_beta	108.696000
_cell_angle_gamma	90.000000
_symmetry_Int_Tables_number 1

loop_
_symmetry_equiv_pos_as_xyz
'x,y,z'

loop_
_atom_site_label
_atom_site_type_symbol
_atom_site_fract_x
_atom_site_fract_y
_atom_site_fract_z
C11	C1	0.602440	0.358600	0.609410
C21	C2	0.572440	0.286000	0.560160
C31	C3	0.594840	0.192800	0.552090
H11	H1	0.629800	0.176100	0.576900
C41	C4	0.566470	0.123700	0.508000
H21	H2	0.582300	0.060400	0.502700
C51	C5	0.515250	0.146600	0.471650
C61	C6	0.493410	0.241100	0.479970
H31	H3	0.458400	0.258000	0.455300
C71	C7	0.521480	0.309600	0.522960
H41	H4	0.506000	0.373800	0.527400
C81	C8	0.485720	0.073300	0.423920
C91	C9	0.431250	0.077300	0.397120
H51	H5	0.411200	0.127800	0.409600
C101	C10	0.405950	0.007000	0.351770
C111	C11	0.437320	0.932700	0.336990
H61	H6	0.421600	0.882400	0.306900
C121	C12	0.491430	0.932100	0.366180
C131	C13	0.526080	0.856500	0.349940
C141	C14	0.574890	0.887100	0.345880
H71	H7	0.587600	0.954700	0.357800
C151	C15	0.604910	0.819900	0.324680
H81	H8	0.638000	0.842000	0.321600
C161	C16	0.587580	0.721100	0.307850
C171	C17	0.540460	0.688800	0.314730
H91	H9	0.529100	0.619700	0.305200
C181	C18	0.509870	0.755300	0.335120
H101	H10	0.477300	0.732100	0.339200
C191	C19	0.616600	0.653500	0.277260
C201	C20	0.348250	0.011700	0.320270
C211	C21	0.319610	0.924700	0.291980
H111	H11	0.336800	0.860000	0.294300
C221	C22	0.266300	0.934300	0.260790
H121	H12	0.247500	0.874800	0.241800
C231	C23	0.266920	0.105600	0.282960
H131	H13	0.248600	0.169100	0.279900
C241	C24	0.320120	0.103300	0.314980
H141	H14	0.337700	0.164300	0.333500
N11	N1	0.515810	0.001500	0.408590
N21	N2	0.239620	0.022600	0.255780
O11	O1	0.581210	0.444250	0.614440
O21	O2	0.645910	0.333000	0.644000
O31	O3	0.594900	0.572500	0.251900
O41	O4	0.659380	0.682000	0.273360
Mn11	Mn1	0.152720	0.031810	0.205810
C251	C25	0.102440	0.858600	0.609410
C261	C26	0.072440	0.786000	0.560160
C271	C27	0.094840	0.692800	0.552090
H151	H15	0.129800	0.676100	0.576900
C281	C28	0.066470	0.623700	0.508000
H161	H16	0.082300	0.560400	0.502700
C291	C29	0.015250	0.646600	0.471650
C301	C30	0.993410	0.741100	0.479970
H171	H17	0.958400	0.758000	0.455300
C311	C31	0.021480	0.809600	0.522960
H181	H18	0.006000	0.873800	0.527400
C321	C32	0.985720	0.573300	0.423920
C331	C33	0.931250	0.577300	0.397120
H191	H19	0.911200	0.627800	0.409600
C341	C34	0.905950	0.507000	0.351770
C351	C35	0.937320	0.432700	0.336990
H201	H20	0.921600	0.382400	0.306900
C361	C36	0.991430	0.432100	0.366180
C371	C37	0.026080	0.356500	0.349940
C381	C38	0.074890	0.387100	0.345880
H211	H21	0.087600	0.454700	0.357800
C391	C39	0.104910	0.319900	0.324680
H221	H22	0.138000	0.342000	0.321600
C401	C40	0.087580	0.221100	0.307850
C411	C41	0.040460	0.188800	0.314730
H231	H23	0.029100	0.119700	0.305200
C421	C42	0.009870	0.255300	0.335120
H241	H24	0.977300	0.232100	0.339200
C431	C43	0.116600	0.153500	0.277260
C441	C44	0.848250	0.511700	0.320270
C451	C45	0.819610	0.424700	0.291980
H251	H25	0.836800	0.360000	0.294300
C461	C46	0.766300	0.434300	0.260790
H261	H26	0.747500	0.374800	0.241800
C471	C47	0.766920	0.605600	0.282960
H271	H27	0.748600	0.669100	0.279900
C481	C48	0.820120	0.603300	0.314980
H281	H28	0.837700	0.664300	0.333500
N31	N3	0.015810	0.501500	0.408590
N41	N4	0.739620	0.522600	0.255780
O51	O5	0.081210	0.944250	0.614440
O61	O6	0.145910	0.833000	0.644000
O71	O7	0.094900	0.072500	0.251900
O81	O8	0.159380	0.182000	0.273360
Mn21	Mn2	0.652720	0.531810	0.205810
C491	C49	0.602440	0.641400	0.109410
C501	C50	0.572440	0.714000	0.060160
C511	C51	0.594840	0.807200	0.052090
H291	H29	0.629800	0.823900	0.076900
C521	C52	0.566470	0.876300	0.008000
H301	H30	0.582300	0.939600	0.002700
C531	C53	0.515250	0.853400	0.971650
C541	C54	0.493410	0.758900	0.979970
H311	H31	0.458400	0.742000	0.955300
C551	C55	0.521480	0.690400	0.022960
H321	H32	0.506000	0.626200	0.027400
C561	C56	0.485720	0.926700	0.923920
C571	C57	0.431250	0.922700	0.897120
H331	H33	0.411200	0.872200	0.909600
C581	C58	0.405950	0.993000	0.851770
C591	C59	0.437320	0.067300	0.836990
H341	H34	0.421600	0.117600	0.806900
C601	C60	0.491430	0.067900	0.866180
C611	C61	0.526080	0.143500	0.849940
C621	C62	0.574890	0.112900	0.845880
H351	H35	0.587600	0.045300	0.857800
C631	C63	0.604910	0.180100	0.824680
H361	H36	0.638000	0.158000	0.821600
C641	C64	0.587580	0.278900	0.807850
C651	C65	0.540460	0.311200	0.814730
H371	H37	0.529100	0.380300	0.805200
C661	C66	0.509870	0.244700	0.835120
H381	H38	0.477300	0.267900	0.839200
C671	C67	0.616600	0.346500	0.777260
C681	C68	0.348250	0.988300	0.820270
C691	C69	0.319610	0.075300	0.791980
H391	H39	0.336800	0.140000	0.794300
C701	C70	0.266300	0.065700	0.760790
H401	H40	0.247500	0.125200	0.741800
C711	C71	0.266920	0.894400	0.782960
H411	H41	0.248600	0.830900	0.779900
C721	C72	0.320120	0.896700	0.814980
H421	H42	0.337700	0.835700	0.833500
N51	N5	0.515810	0.998500	0.908590
N61	N6	0.239620	0.977400	0.755780
O91	O9	0.581210	0.555750	0.114440
O101	O10	0.645910	0.667000	0.144000
O111	O11	0.594900	0.427500	0.751900
O121	O12	0.659380	0.318000	0.773360
Mn31	Mn3	0.152720	0.968190	0.705810
C731	C73	0.102440	0.141400	0.109410
C741	C74	0.072440	0.214000	0.060160
C751	C75	0.094840	0.307200	0.052090
H431	H43	0.129800	0.323900	0.076900
C761	C76	0.066470	0.376300	0.008000
H441	H44	0.082300	0.439600	0.002700
C771	C77	0.015250	0.353400	0.971650
C781	C78	0.993410	0.258900	0.979970
H451	H45	0.958400	0.242000	0.955300
C791	C79	0.021480	0.190400	0.022960
H461	H46	0.006000	0.126200	0.027400
C801	C80	0.985720	0.426700	0.923920
C811	C81	0.931250	0.422700	0.897120
H471	H47	0.911200	0.372200	0.909600
C821	C82	0.905950	0.493000	0.851770
C831	C83	0.937320	0.567300	0.836990
H481	H48	0.921600	0.617600	0.806900
C841	C84	0.991430	0.567900	0.866180
C851	C85	0.026080	0.643500	0.849940
C861	C86	0.074890	0.612900	0.845880
H491	H49	0.087600	0.545300	0.857800
C871	C87	0.104910	0.680100	0.824680
H501	H50	0.138000	0.658000	0.821600
C881	C88	0.087580	0.778900	0.807850
C891	C89	0.040460	0.811200	0.814730
H511	H51	0.029100	0.880300	0.805200
C901	C90	0.009870	0.744700	0.835120
H521	H52	0.977300	0.767900	0.839200
C911	C91	0.116600	0.846500	0.777260
C921	C92	0.848250	0.488300	0.820270
C931	C93	0.819610	0.575300	0.791980
H531	H53	0.836800	0.640000	0.794300
C941	C94	0.766300	0.565700	0.760790
H541	H54	0.747500	0.625200	0.741800
C951	C95	0.766920	0.394400	0.782960
H551	H55	0.748600	0.330900	0.779900
C961	C96	0.820120	0.396700	0.814980
H561	H56	0.837700	0.335700	0.833500
N71	N7	0.015810	0.498500	0.908590
N81	N8	0.739620	0.477400	0.755780
O131	O13	0.081210	0.055750	0.114440
O141	O14	0.145910	0.167000	0.144000
O151	O15	0.094900	0.927500	0.751900
O161	O16	0.159380	0.818000	0.773360
Mn41	Mn4	0.652720	0.468190	0.705810
C971	C97	0.397560	0.358600	0.890590
C981	C98	0.427560	0.286000	0.939840
C991	C99	0.405160	0.192800	0.947910
H571	H57	0.370200	0.176100	0.923100
C1001	C100	0.433530	0.123700	0.992000
H581	H58	0.417700	0.060400	0.997300
C1011	C101	0.484750	0.146600	0.028350
C1021	C102	0.506590	0.241100	0.020030
H591	H59	0.541600	0.258000	0.044700
C1031	C103	0.478520	0.309600	0.977040
H601	H60	0.494000	0.373800	0.972600
C1041	C104	0.514280	0.073300	0.076080
C1051	C105	0.568750	0.077300	0.102880
H611	H61	0.588800	0.127800	0.090400
C1061	C106	0.594050	0.007000	0.148230
C1071	C107	0.562680	0.932700	0.163010
H621	H62	0.578400	0.882400	0.193100
C1081	C108	0.508570	0.932100	0.133820
C1091	C109	0.473920	0.856500	0.150060
C1101	C110	0.425110	0.887100	0.154120
H631	H63	0.412400	0.954700	0.142200
C1111	C111	0.395090	0.819900	0.175320
H641	H64	0.362000	0.842000	0.178400
C1121	C112	0.412420	0.721100	0.192150
C1131	C113	0.459540	0.688800	0.185270
H651	H65	0.470900	0.619700	0.194800
C1141	C114	0.490130	0.755300	0.164880
H661	H66	0.522700	0.732100	0.160800
C1151	C115	0.383400	0.653500	0.222740
C1161	C116	0.651750	0.011700	0.179730
C1171	C117	0.680390	0.924700	0.208020
H671	H67	0.663200	0.860000	0.205700
C1181	C118	0.733700	0.934300	0.239210
H681	H68	0.752500	0.874800	0.258200
C1191	C119	0.733080	0.105600	0.217040
H691	H69	0.751400	0.169100	0.220100
C1201	C120	0.679880	0.103300	0.185020
H701	H70	0.662300	0.164300	0.166500
N91	N9	0.484190	0.001500	0.091410
N101	N10	0.760380	0.022600	0.244220
O171	O17	0.418790	0.444250	0.885560
O181	O18	0.354090	0.333000	0.856000
O191	O19	0.405100	0.572500	0.248100
O201	O20	0.340620	0.682000	0.226640
Mn51	Mn5	0.847280	0.031810	0.294190
C1211	C121	0.897560	0.858600	0.890590
C1221	C122	0.927560	0.786000	0.939840
C1231	C123	0.905160	0.692800	0.947910
H711	H71	0.870200	0.676100	0.923100
C1241	C124	0.933530	0.623700	0.992000
H721	H72	0.917700	0.560400	0.997300
C1251	C125	0.984750	0.646600	0.028350
C1261	C126	0.006590	0.741100	0.020030
H731	H73	0.041600	0.758000	0.044700
C1271	C127	0.978520	0.809600	0.977040
H741	H74	0.994000	0.873800	0.972600
C1281	C128	0.014280	0.573300	0.076080
C1291	C129	0.068750	0.577300	0.102880
H751	H75	0.088800	0.627800	0.090400
C1301	C130	0.094050	0.507000	0.148230
C1311	C131	0.062680	0.432700	0.163010
H761	H76	0.078400	0.382400	0.193100
C1321	C132	0.008570	0.432100	0.133820
C1331	C133	0.973920	0.356500	0.150060
C1341	C134	0.925110	0.387100	0.154120
H771	H77	0.912400	0.454700	0.142200
C1351	C135	0.895090	0.319900	0.175320
H781	H78	0.862000	0.342000	0.178400
C1361	C136	0.912420	0.221100	0.192150
C1371	C137	0.959540	0.188800	0.185270
H791	H79	0.970900	0.119700	0.194800
C1381	C138	0.990130	0.255300	0.164880
H801	H80	0.022700	0.232100	0.160800
C1391	C139	0.883400	0.153500	0.222740
C1401	C140	0.151750	0.511700	0.179730
C1411	C141	0.180390	0.424700	0.208020
H811	H81	0.163200	0.360000	0.205700
C1421	C142	0.233700	0.434300	0.239210
H821	H82	0.252500	0.374800	0.258200
C1431	C143	0.233080	0.605600	0.217040
H831	H83	0.251400	0.669100	0.220100
C1441	C144	0.179880	0.603300	0.185020
H841	H84	0.162300	0.664300	0.166500
N111	N11	0.984190	0.501500	0.091410
N121	N12	0.260380	0.522600	0.244220
O211	O21	0.918790	0.944250	0.885560
O221	O22	0.854090	0.833000	0.856000
O231	O23	0.905100	0.072500	0.248100
O241	O24	0.840620	0.182000	0.226640
Mn61	Mn6	0.347280	0.531810	0.294190
C1451	C145	0.397560	0.641400	0.390590
C1461	C146	0.427560	0.714000	0.439840
C1471	C147	0.405160	0.807200	0.447910
H851	H85	0.370200	0.823900	0.423100
C1481	C148	0.433530	0.876300	0.492000
H861	H86	0.417700	0.939600	0.497300
C1491	C149	0.484750	0.853400	0.528350
C1501	C150	0.506590	0.758900	0.520030
H871	H87	0.541600	0.742000	0.544700
C1511	C151	0.478520	0.690400	0.477040
H881	H88	0.494000	0.626200	0.472600
C1521	C152	0.514280	0.926700	0.576080
C1531	C153	0.568750	0.922700	0.602880
H891	H89	0.588800	0.872200	0.590400
C1541	C154	0.594050	0.993000	0.648230
C1551	C155	0.562680	0.067300	0.663010
H901	H90	0.578400	0.117600	0.693100
C1561	C156	0.508570	0.067900	0.633820
C1571	C157	0.473920	0.143500	0.650060
C1581	C158	0.425110	0.112900	0.654120
H911	H91	0.412400	0.045300	0.642200
C1591	C159	0.395090	0.180100	0.675320
H921	H92	0.362000	0.158000	0.678400
C1601	C160	0.412420	0.278900	0.692150
C1611	C161	0.459540	0.311200	0.685270
H931	H93	0.470900	0.380300	0.694800
C1621	C162	0.490130	0.244700	0.664880
H941	H94	0.522700	0.267900	0.660800
C1631	C163	0.383400	0.346500	0.722740
C1641	C164	0.651750	0.988300	0.679730
C1651	C165	0.680390	0.075300	0.708020
H951	H95	0.663200	0.140000	0.705700
C1661	C166	0.733700	0.065700	0.739210
H961	H96	0.752500	0.125200	0.758200
C1671	C167	0.733080	0.894400	0.717040
H971	H97	0.751400	0.830900	0.720100
C1681	C168	0.679880	0.896700	0.685020
H981	H98	0.662300	0.835700	0.666500
N131	N13	0.484190	0.998500	0.591410
N141	N14	0.760380	0.977400	0.744220
O251	O25	0.418790	0.555750	0.385560
O261	O26	0.354090	0.667000	0.356000
O271	O27	0.405100	0.427500	0.748100
O281	O28	0.340620	0.318000	0.726640
Mn71	Mn7	0.847280	0.968190	0.794190
C1691	C169	0.897560	0.141400	0.390590
C1701	C170	0.927560	0.214000	0.439840
C1711	C171	0.905160	0.307200	0.447910
H991	H99	0.870200	0.323900	0.423100
C1721	C172	0.933530	0.376300	0.492000
H1001	H100	0.917700	0.439600	0.497300
C1731	C173	0.984750	0.353400	0.528350
C1741	C174	0.006590	0.258900	0.520030
H1011	H101	0.041600	0.242000	0.544700
C1751	C175	0.978520	0.190400	0.477040
H1021	H102	0.994000	0.126200	0.472600
C1761	C176	0.014280	0.426700	0.576080
C1771	C177	0.068750	0.422700	0.602880
H1031	H103	0.088800	0.372200	0.590400
C1781	C178	0.094050	0.493000	0.648230
C1791	C179	0.062680	0.567300	0.663010
H1041	H104	0.078400	0.617600	0.693100
C1801	C180	0.008570	0.567900	0.633820
C1811	C181	0.973920	0.643500	0.650060
C1821	C182	0.925110	0.612900	0.654120
H1051	H105	0.912400	0.545300	0.642200
C1831	C183	0.895090	0.680100	0.675320
H1061	H106	0.862000	0.658000	0.678400
C1841	C184	0.912420	0.778900	0.692150
C1851	C185	0.959540	0.811200	0.685270
H1071	H107	0.970900	0.880300	0.694800
C1861	C186	0.990130	0.744700	0.664880
H1081	H108	0.022700	0.767900	0.660800
C1871	C187	0.883400	0.846500	0.722740
C1881	C188	0.151750	0.488300	0.679730
C1891	C189	0.180390	0.575300	0.708020
H1091	H109	0.163200	0.640000	0.705700
C1901	C190	0.233700	0.565700	0.739210
H1101	H110	0.252500	0.625200	0.758200
C1911	C191	0.233080	0.394400	0.717040
H1111	H111	0.251400	0.330900	0.720100
C1921	C192	0.179880	0.396700	0.685020
H1121	H112	0.162300	0.335700	0.666500
N151	N15	0.984190	0.498500	0.591410
N161	N16	0.260380	0.477400	0.744220
O291	O29	0.918790	0.055750	0.385560
O301	O30	0.854090	0.167000	0.356000
O311	O31	0.905100	0.927500	0.748100
O321	O32	0.840620	0.818000	0.726640
Mn81	Mn8	0.347280	0.468190	0.794190
