data_PORLAL_clean_PM
_symmetry_space_group_name_H-M	'P1'
_cell_length_a	8.209600
_cell_length_b	14.998000
_cell_length_c	36.872700
_cell_angle_alpha	90.000000
_cell_angle_beta	90.882400
_cell_angle_gamma	90.000000
_symmetry_Int_Tables_number 1

loop_
_symmetry_equiv_pos_as_xyz
'x,y,z'

loop_
_atom_site_label
_atom_site_type_symbol
_atom_site_fract_x
_atom_site_fract_y
_atom_site_fract_z
Gd11	Gd1	0.165450	0.098080	0.486780
Gd21	Gd2	0.834550	0.901920	0.513220
Gd31	Gd3	0.665450	0.901920	0.986780
Gd41	Gd4	0.334550	0.098080	0.013220
H11	H1	0.534700	0.953500	0.260600
H21	H2	0.590500	0.372700	0.073700
H31	H3	0.066100	0.311700	0.772200
H41	H4	0.415000	0.335900	0.564700
H51	H5	0.736700	0.090400	0.657800
H61	H6	0.932200	0.396200	0.888000
H71	H7	0.407100	0.287700	0.887100
H81	H8	0.915000	0.664100	0.064700
H91	H9	0.090500	0.627300	0.573700
H101	H10	0.660100	0.669300	0.490800
H111	H11	0.933900	0.688300	0.227800
H121	H12	0.391000	0.371300	0.974900
H131	H13	0.907100	0.712300	0.387100
H141	H14	0.860900	0.425000	0.545500
H151	H15	0.045300	0.914300	0.093600
H161	H16	0.585000	0.664100	0.435300
H171	H17	0.432200	0.603800	0.388000
H181	H18	0.839900	0.669300	0.009200
H191	H19	0.142800	0.752500	0.002300
H201	H20	0.084200	0.670700	0.280700
H211	H21	0.034700	0.046500	0.760600
H221	H22	0.625300	0.021600	0.132800
H231	H23	0.988000	0.187000	0.570300
H241	H24	0.415800	0.670700	0.219300
H251	H25	0.202300	0.524700	0.915200
H261	H26	0.357200	0.752500	0.497700
H271	H27	0.263300	0.909600	0.342200
H281	H28	0.545300	0.085700	0.593600
H291	H29	0.125300	0.978400	0.632800
H301	H30	0.623200	0.065600	0.791600
H311	H31	0.214900	0.285600	0.821700
H321	H32	0.160100	0.330700	0.990800
H331	H33	0.376800	0.934400	0.208400
H341	H34	0.067800	0.603800	0.112000
H351	H35	0.360900	0.575000	0.045500
H361	H36	0.012000	0.813000	0.429700
H371	H37	0.454700	0.914300	0.406400
H381	H38	0.909500	0.372700	0.426300
H391	H39	0.702300	0.475300	0.415200
H401	H40	0.374700	0.978400	0.867200
H411	H41	0.584200	0.329300	0.780700
H421	H42	0.915800	0.329300	0.719300
H431	H43	0.566100	0.688300	0.272200
H441	H44	0.109000	0.371300	0.525100
H451	H45	0.297700	0.524700	0.584800
H461	H46	0.797700	0.475300	0.084800
H471	H47	0.567800	0.396200	0.612000
H481	H48	0.876800	0.065600	0.708400
H491	H49	0.488000	0.813000	0.070300
H501	H50	0.123200	0.934400	0.291600
H511	H51	0.512000	0.187000	0.929700
H521	H52	0.857200	0.247500	0.997700
H531	H53	0.609000	0.628700	0.025100
H541	H54	0.465300	0.046500	0.739400
H551	H55	0.714900	0.714400	0.321700
H561	H56	0.085000	0.335900	0.935300
H571	H57	0.763300	0.090400	0.842200
H581	H58	0.092900	0.287700	0.612900
H591	H59	0.433900	0.311700	0.727800
H601	H60	0.236700	0.909600	0.157800
H611	H61	0.954700	0.085700	0.906400
H621	H62	0.874700	0.021600	0.367200
H631	H63	0.891000	0.628700	0.474900
H641	H64	0.642800	0.247500	0.502300
H651	H65	0.285100	0.285600	0.678300
H661	H66	0.409500	0.627300	0.926300
H671	H67	0.592900	0.712300	0.112900
H681	H68	0.639100	0.425000	0.954500
H691	H69	0.339900	0.330700	0.509200
H701	H70	0.965300	0.953500	0.239400
H711	H71	0.785100	0.714400	0.178300
H721	H72	0.139100	0.575000	0.454500
C11	C1	0.121120	0.800500	0.291520
C21	C2	0.994620	0.010300	0.568720
C31	C3	0.686230	0.808900	0.146030
C41	C4	0.433100	0.176800	0.728300
C51	C5	0.220050	0.787400	0.324850
C61	C6	0.154920	0.708100	0.984920
C71	C7	0.296360	0.700600	0.964960
C81	C8	0.375250	0.039400	0.871850
C91	C9	0.624750	0.960600	0.128150
C101	C10	0.952300	0.146900	0.902500
C111	C11	0.452300	0.853100	0.402500
C121	C12	0.279950	0.787400	0.175150
C131	C13	0.415710	0.545200	0.027210
C141	C14	0.029740	0.262000	0.759340
C151	C15	0.535490	0.793900	0.425390
C161	C16	0.349690	0.469300	0.011690
C171	C17	0.938400	0.334900	0.891300
C181	C18	0.849690	0.530700	0.511690
C191	C19	0.395770	0.226500	0.883870
C201	C20	0.196930	0.099300	0.652230
C211	C21	0.875250	0.960600	0.371850
C221	C22	0.964510	0.793900	0.074610
C231	C23	0.434670	0.423200	0.984770
C241	C24	0.928590	0.233600	0.471890
C251	C25	0.188670	0.435100	0.023370
C261	C26	0.642500	0.276100	0.632200
C271	C27	0.690240	0.430400	0.432340
C281	C28	0.552220	0.926600	0.097120
C291	C29	0.345080	0.708100	0.515080
C301	C30	0.134380	0.815900	0.126480
C311	C31	0.971970	0.701800	0.080370
C321	C32	0.584700	0.115200	0.779000
C331	C33	0.428590	0.766400	0.971890
C341	C34	0.459960	0.166000	0.908760
C351	C35	0.033030	0.646800	0.977930
C361	C36	0.562000	0.272100	0.772300
C371	C37	0.561600	0.334900	0.608700
C381	C38	0.447780	0.073400	0.902880
C391	C39	0.779950	0.212600	0.675150
C401	C40	0.311330	0.435100	0.476630
C411	C41	0.566900	0.823200	0.271700
C421	C42	0.124750	0.039400	0.628150
C431	C43	0.466970	0.646800	0.522070
C441	C44	0.540040	0.834000	0.091240
C451	C45	0.168130	0.162000	0.804530
C461	C46	0.028030	0.298200	0.919630
C471	C47	0.186880	0.631500	0.560880
C481	C48	0.453160	0.577900	0.547460
C491	C49	0.688670	0.564900	0.523370
C501	C50	0.490100	0.103700	0.747500
C511	C51	0.313770	0.191100	0.853970
C521	C52	0.135300	0.168300	0.955900
C531	C53	0.062000	0.727900	0.272300
C541	C54	0.040040	0.166000	0.591240
C551	C55	0.668130	0.838000	0.304530
C561	C56	0.047700	0.853100	0.097500
C571	C57	0.934670	0.576800	0.484770
C581	C58	0.809760	0.430400	0.067660
C591	C59	0.635300	0.831700	0.455900
C601	C60	0.933100	0.823200	0.228300
C611	C61	0.470260	0.262000	0.740660
C621	C62	0.331870	0.162000	0.695470
C631	C63	0.303070	0.099300	0.847770
C641	C64	0.634380	0.184100	0.626480
C651	C65	0.813770	0.808900	0.353970
C661	C66	0.471970	0.298200	0.580370
C671	C67	0.509900	0.896300	0.252500
C681	C68	0.309760	0.569600	0.567660
C691	C69	0.009900	0.103700	0.752500
C701	C70	0.621120	0.199500	0.791520
C711	C71	0.046840	0.577900	0.952540
C721	C72	0.966970	0.353200	0.022070
C731	C73	0.990100	0.896300	0.247500
C741	C74	0.186230	0.191100	0.646030
C751	C75	0.365620	0.815900	0.373520
C761	C76	0.813120	0.368500	0.439120
C771	C77	0.364700	0.168300	0.544100
C781	C78	0.696930	0.900700	0.152230
C791	C79	0.953160	0.422100	0.047460
C801	C80	0.703640	0.299400	0.035040
C811	C81	0.654920	0.291900	0.484920
C821	C82	0.415300	0.884800	0.221000
C831	C83	0.066900	0.176800	0.771700
C841	C84	0.065330	0.423200	0.515230
C851	C85	0.959960	0.834000	0.408760
C861	C86	0.357500	0.723900	0.367800
C871	C87	0.190240	0.569600	0.932340
C881	C88	0.529740	0.738000	0.259340
C891	C89	0.528030	0.701800	0.419630
C901	C90	0.857500	0.276100	0.867800
C911	C91	0.686880	0.368500	0.060880
C921	C92	0.061600	0.665100	0.108700
C931	C93	0.915300	0.115200	0.721000
C941	C94	0.796360	0.299400	0.464960
C951	C95	0.505380	0.010300	0.931280
C961	C96	0.203640	0.700600	0.535040
C971	C97	0.464510	0.206100	0.574610
C981	C98	0.565330	0.576800	0.015230
C991	C99	0.142500	0.723900	0.132200
C1001	C100	0.035490	0.206100	0.925390
C1011	C101	0.313120	0.631500	0.939120
C1021	C102	0.546840	0.422100	0.452540
C1031	C103	0.831870	0.838000	0.195470
C1041	C104	0.571410	0.233600	0.028110
C1051	C105	0.720050	0.212600	0.824850
C1061	C106	0.438000	0.727900	0.227700
C1071	C107	0.084290	0.545200	0.472790
C1081	C108	0.865620	0.184100	0.873520
C1091	C109	0.811330	0.564900	0.976630
C1101	C110	0.947780	0.926600	0.402880
C1111	C111	0.438400	0.665100	0.391300
C1121	C112	0.895770	0.773500	0.383870
C1131	C113	0.938000	0.272100	0.727700
C1141	C114	0.052220	0.073400	0.597120
C1151	C115	0.584290	0.454800	0.972790
C1161	C116	0.378880	0.800500	0.208480
C1171	C117	0.494620	0.989700	0.068720
C1181	C118	0.970260	0.738000	0.240660
C1191	C119	0.845080	0.291900	0.015080
C1201	C120	0.547700	0.146900	0.597500
C1211	C121	0.878880	0.199500	0.708480
C1221	C122	0.533030	0.353200	0.477930
C1231	C123	0.104230	0.226500	0.616130
C1241	C124	0.864700	0.831700	0.044100
C1251	C125	0.604230	0.773500	0.116130
C1261	C126	0.071410	0.766400	0.528110
C1271	C127	0.005380	0.989700	0.431280
C1281	C128	0.084700	0.884800	0.279000
C1291	C129	0.150310	0.469300	0.488310
C1301	C130	0.650310	0.530700	0.988310
C1311	C131	0.915710	0.454800	0.527210
C1321	C132	0.803070	0.900700	0.347770
N11	N1	0.618010	0.636400	0.507310
N21	N2	0.721820	0.146600	0.654320
N31	N3	0.221820	0.853400	0.154320
N41	N4	0.778180	0.146600	0.845680
N51	N5	0.881990	0.636400	0.992690
N61	N6	0.734540	0.292000	0.662740
N71	N7	0.265460	0.708000	0.337260
N81	N8	0.788190	0.916600	0.182990
N91	N9	0.595000	0.526800	0.547400
N101	N10	0.211810	0.083400	0.817010
N111	N11	0.381990	0.363600	0.492690
N121	N12	0.118010	0.363600	0.007310
N131	N13	0.772030	0.770500	0.174530
N141	N14	0.227970	0.229500	0.825470
N151	N15	0.727970	0.770500	0.325470
N161	N16	0.234540	0.708000	0.162740
N171	N17	0.405000	0.473200	0.452600
N181	N18	0.905000	0.526800	0.952600
N191	N19	0.278180	0.853400	0.345680
N201	N20	0.288190	0.083400	0.682990
N211	N21	0.272030	0.229500	0.674530
N221	N22	0.095000	0.473200	0.047400
N231	N23	0.711810	0.916600	0.317010
N241	N24	0.765460	0.292000	0.837260
O11	O1	0.117920	0.087900	0.965520
O21	O2	0.586300	0.941900	0.922800
O31	O3	0.382080	0.087900	0.534480
O41	O4	0.970690	0.976600	0.464890
O51	O5	0.905390	0.170800	0.494190
O61	O6	0.935770	0.760900	0.544270
O71	O7	0.882080	0.912100	0.034480
O81	O8	0.094610	0.829200	0.505810
O91	O9	0.086300	0.058100	0.422800
O101	O10	0.241480	0.217900	0.972080
O111	O11	0.064230	0.239100	0.455730
O121	O12	0.594610	0.170800	0.005810
O131	O13	0.617920	0.912100	0.465520
O141	O14	0.258520	0.217900	0.527920
O151	O15	0.564230	0.760900	0.955730
O161	O16	0.029310	0.023400	0.535110
O171	O17	0.741480	0.782100	0.472080
O181	O18	0.405390	0.829200	0.994190
O191	O19	0.913700	0.941900	0.577200
O201	O20	0.758520	0.782100	0.027920
O211	O21	0.529310	0.976600	0.035110
O221	O22	0.435770	0.239100	0.044270
O231	O23	0.470690	0.023400	0.964890
O241	O24	0.413700	0.058100	0.077200
