data_POSGEL_clean_PM
_symmetry_space_group_name_H-M	'P1'
_cell_length_a	13.202000
_cell_length_b	27.475000
_cell_length_c	7.641000
_cell_angle_alpha	90.000000
_cell_angle_beta	123.254000
_cell_angle_gamma	90.000000
_symmetry_Int_Tables_number 1

loop_
_symmetry_equiv_pos_as_xyz
'x,y,z'

loop_
_atom_site_label
_atom_site_type_symbol
_atom_site_fract_x
_atom_site_fract_y
_atom_site_fract_z
C11	C1	0.925000	0.283600	0.497400
H11	H1	0.947100	0.312100	0.460900
C21	C2	0.869000	0.246400	0.354300
H21	H2	0.848300	0.250600	0.217700
C31	C3	0.843300	0.202600	0.413200
C41	C4	0.870000	0.197500	0.615100
H31	H3	0.850000	0.168800	0.653900
C51	C5	0.927300	0.235500	0.761300
H41	H4	0.950300	0.231300	0.899200
C61	C6	0.948200	0.278000	0.698100
C71	C7	0.999500	0.321500	0.845300
C81	C8	0.044500	0.325700	0.049100
H51	H5	0.054000	0.299900	0.135700
C91	C9	0.045800	0.396200	0.952300
H61	H6	0.055800	0.429700	0.950700
C101	C10	0.778800	0.160500	0.265200
C111	C11	0.608700	0.563100	0.675200
H71	H7	0.551600	0.587400	0.640200
C121	C12	0.728500	0.575000	0.753800
H81	H8	0.753000	0.607300	0.784000
C131	C13	0.815400	0.538100	0.789300
C141	C14	0.778900	0.490900	0.756300
H91	H9	0.835100	0.466300	0.789900
C151	C15	0.661300	0.479500	0.674800
H101	H10	0.637200	0.447400	0.633800
C161	C16	0.574300	0.512600	0.648700
C171	C17	0.451200	0.498600	0.562600
C181	C18	0.403700	0.453400	0.566700
H111	H11	0.447600	0.424600	0.618700
C191	C19	0.254900	0.506300	0.429800
H121	H12	0.177600	0.519500	0.366600
C201	C20	0.944900	0.552300	0.861100
Cd11	Cd1	0.151110	0.402070	0.439160
N11	N1	0.074600	0.372700	0.114100
N21	N2	0.999600	0.368300	0.783800
H131	H13	0.974400	0.377800	0.659000
N31	N3	0.283400	0.458400	0.482400
N41	N4	0.355600	0.531400	0.483600
H141	H14	0.360100	0.562300	0.471300
O11	O1	0.732000	0.172200	0.067600
O21	O2	0.773600	0.121900	0.308500
O31	O3	0.010900	0.523700	0.850000
O41	O4	0.973300	0.596200	0.922100
C211	C21	0.425000	0.783600	0.497400
H151	H15	0.447100	0.812100	0.460900
C221	C22	0.369000	0.746400	0.354300
H161	H16	0.348300	0.750600	0.217700
C231	C23	0.343300	0.702600	0.413200
C241	C24	0.370000	0.697500	0.615100
H171	H17	0.350000	0.668800	0.653900
C251	C25	0.427300	0.735500	0.761300
H181	H18	0.450300	0.731300	0.899200
C261	C26	0.448200	0.778000	0.698100
C271	C27	0.499500	0.821500	0.845300
C281	C28	0.544500	0.825700	0.049100
H191	H19	0.554000	0.799900	0.135700
C291	C29	0.545800	0.896200	0.952300
H201	H20	0.555800	0.929700	0.950700
C301	C30	0.278800	0.660500	0.265200
C311	C31	0.108700	0.063100	0.675200
H211	H21	0.051600	0.087400	0.640200
C321	C32	0.228500	0.075000	0.753800
H221	H22	0.253000	0.107300	0.784000
C331	C33	0.315400	0.038100	0.789300
C341	C34	0.278900	0.990900	0.756300
H231	H23	0.335100	0.966300	0.789900
C351	C35	0.161300	0.979500	0.674800
H241	H24	0.137200	0.947400	0.633800
C361	C36	0.074300	0.012600	0.648700
C371	C37	0.951200	0.998600	0.562600
C381	C38	0.903700	0.953400	0.566700
H251	H25	0.947600	0.924600	0.618700
C391	C39	0.754900	0.006300	0.429800
H261	H26	0.677600	0.019500	0.366600
C401	C40	0.444900	0.052300	0.861100
Cd21	Cd2	0.651110	0.902070	0.439160
N51	N5	0.574600	0.872700	0.114100
N61	N6	0.499600	0.868300	0.783800
H271	H27	0.474400	0.877800	0.659000
N71	N7	0.783400	0.958400	0.482400
N81	N8	0.855600	0.031400	0.483600
H281	H28	0.860100	0.062300	0.471300
O51	O5	0.232000	0.672200	0.067600
O61	O6	0.273600	0.621900	0.308500
O71	O7	0.510900	0.023700	0.850000
O81	O8	0.473300	0.096200	0.922100
C411	C41	0.925000	0.716400	0.997400
H291	H29	0.947100	0.687900	0.960900
C421	C42	0.869000	0.753600	0.854300
H301	H30	0.848300	0.749400	0.717700
C431	C43	0.843300	0.797400	0.913200
C441	C44	0.870000	0.802500	0.115100
H311	H31	0.850000	0.831200	0.153900
C451	C45	0.927300	0.764500	0.261300
H321	H32	0.950300	0.768700	0.399200
C461	C46	0.948200	0.722000	0.198100
C471	C47	0.999500	0.678500	0.345300
C481	C48	0.044500	0.674300	0.549100
H331	H33	0.054000	0.700100	0.635700
C491	C49	0.045800	0.603800	0.452300
H341	H34	0.055800	0.570300	0.450700
C501	C50	0.778800	0.839500	0.765200
C511	C51	0.608700	0.436900	0.175200
H351	H35	0.551600	0.412600	0.140200
C521	C52	0.728500	0.425000	0.253800
H361	H36	0.753000	0.392700	0.284000
C531	C53	0.815400	0.461900	0.289300
C541	C54	0.778900	0.509100	0.256300
H371	H37	0.835100	0.533700	0.289900
C551	C55	0.661300	0.520500	0.174800
H381	H38	0.637200	0.552600	0.133800
C561	C56	0.574300	0.487400	0.148700
C571	C57	0.451200	0.501400	0.062600
C581	C58	0.403700	0.546600	0.066700
H391	H39	0.447600	0.575400	0.118700
C591	C59	0.254900	0.493700	0.929800
H401	H40	0.177600	0.480500	0.866600
C601	C60	0.944900	0.447700	0.361100
Cd31	Cd3	0.151110	0.597930	0.939160
N91	N9	0.074600	0.627300	0.614100
N101	N10	0.999600	0.631700	0.283800
H411	H41	0.974400	0.622200	0.159000
N111	N11	0.283400	0.541600	0.982400
N121	N12	0.355600	0.468600	0.983600
H421	H42	0.360100	0.437700	0.971300
O91	O9	0.732000	0.827800	0.567600
O101	O10	0.773600	0.878100	0.808500
O111	O11	0.010900	0.476300	0.350000
O121	O12	0.973300	0.403800	0.422100
C611	C61	0.425000	0.216400	0.997400
H431	H43	0.447100	0.187900	0.960900
C621	C62	0.369000	0.253600	0.854300
H441	H44	0.348300	0.249400	0.717700
C631	C63	0.343300	0.297400	0.913200
C641	C64	0.370000	0.302500	0.115100
H451	H45	0.350000	0.331200	0.153900
C651	C65	0.427300	0.264500	0.261300
H461	H46	0.450300	0.268700	0.399200
C661	C66	0.448200	0.222000	0.198100
C671	C67	0.499500	0.178500	0.345300
C681	C68	0.544500	0.174300	0.549100
H471	H47	0.554000	0.200100	0.635700
C691	C69	0.545800	0.103800	0.452300
H481	H48	0.555800	0.070300	0.450700
C701	C70	0.278800	0.339500	0.765200
C711	C71	0.108700	0.936900	0.175200
H491	H49	0.051600	0.912600	0.140200
C721	C72	0.228500	0.925000	0.253800
H501	H50	0.253000	0.892700	0.284000
C731	C73	0.315400	0.961900	0.289300
C741	C74	0.278900	0.009100	0.256300
H511	H51	0.335100	0.033700	0.289900
C751	C75	0.161300	0.020500	0.174800
H521	H52	0.137200	0.052600	0.133800
C761	C76	0.074300	0.987400	0.148700
C771	C77	0.951200	0.001400	0.062600
C781	C78	0.903700	0.046600	0.066700
H531	H53	0.947600	0.075400	0.118700
C791	C79	0.754900	0.993700	0.929800
H541	H54	0.677600	0.980500	0.866600
C801	C80	0.444900	0.947700	0.361100
Cd41	Cd4	0.651110	0.097930	0.939160
N131	N13	0.574600	0.127300	0.614100
N141	N14	0.499600	0.131700	0.283800
H551	H55	0.474400	0.122200	0.159000
N151	N15	0.783400	0.041600	0.982400
N161	N16	0.855600	0.968600	0.983600
H561	H56	0.860100	0.937700	0.971300
O131	O13	0.232000	0.327800	0.567600
O141	O14	0.273600	0.378100	0.808500
O151	O15	0.510900	0.976300	0.350000
O161	O16	0.473300	0.903800	0.422100
