data_POSGAH_clean_PM
_symmetry_space_group_name_H-M	'P1'
_cell_length_a	16.132200
_cell_length_b	15.798100
_cell_length_c	11.604200
_cell_angle_alpha	90.000000
_cell_angle_beta	90.000000
_cell_angle_gamma	90.000000
_symmetry_Int_Tables_number 1

loop_
_symmetry_equiv_pos_as_xyz
'x,y,z'

loop_
_atom_site_label
_atom_site_type_symbol
_atom_site_fract_x
_atom_site_fract_y
_atom_site_fract_z
C11	C1	0.643340	0.401300	0.948500
C21	C2	0.572980	0.351500	0.000600
C31	C3	0.587300	0.275400	0.057000
H11	H1	0.641400	0.256700	0.067600
C41	C4	0.521620	0.226700	0.097700
H21	H2	0.532100	0.176100	0.136100
C51	C5	0.439670	0.253680	0.081200
C61	C6	0.425400	0.330500	0.026300
H31	H3	0.371300	0.349400	0.015900
C71	C7	0.491240	0.379700	0.986400
H41	H4	0.480900	0.431300	0.950500
C81	C8	0.370270	0.202140	0.121800
C91	C9	0.371340	0.126140	0.180900
H51	H5	0.418500	0.096200	0.202500
C101	C10	0.243000	0.165600	0.162300
H61	H6	0.185700	0.168000	0.169800
N11	N1	0.290160	0.102220	0.202500
N21	N2	0.288240	0.224150	0.110800
H71	H7	0.269600	0.268400	0.076400
O11	O1	0.717100	0.376800	0.963470
O21	O2	0.625620	0.466250	0.891410
C111	C11	0.856660	0.598700	0.948500
C121	C12	0.927020	0.648500	0.000600
C131	C13	0.912700	0.724600	0.057000
H81	H8	0.858600	0.743300	0.067600
C141	C14	0.978380	0.773300	0.097700
H91	H9	0.967900	0.823900	0.136100
C151	C15	0.060330	0.746320	0.081200
C161	C16	0.074600	0.669500	0.026300
H101	H10	0.128700	0.650600	0.015900
C171	C17	0.008760	0.620300	0.986400
H111	H11	0.019100	0.568700	0.950500
C181	C18	0.129730	0.797860	0.121800
C191	C19	0.128660	0.873860	0.180900
H121	H12	0.081500	0.903800	0.202500
C201	C20	0.257000	0.834400	0.162300
H131	H13	0.314300	0.832000	0.169800
N31	N3	0.209840	0.897780	0.202500
N41	N4	0.211760	0.775850	0.110800
H141	H14	0.230400	0.731600	0.076400
O31	O3	0.782900	0.623200	0.963470
O41	O4	0.874380	0.533750	0.891410
C211	C21	0.143340	0.098700	0.448500
C221	C22	0.072980	0.148500	0.500600
C231	C23	0.087300	0.224600	0.557000
H151	H15	0.141400	0.243300	0.567600
C241	C24	0.021620	0.273300	0.597700
H161	H16	0.032100	0.323900	0.636100
C251	C25	0.939670	0.246320	0.581200
C261	C26	0.925400	0.169500	0.526300
H171	H17	0.871300	0.150600	0.515900
C271	C27	0.991240	0.120300	0.486400
H181	H18	0.980900	0.068700	0.450500
C281	C28	0.870270	0.297860	0.621800
C291	C29	0.871340	0.373860	0.680900
H191	H19	0.918500	0.403800	0.702500
C301	C30	0.743000	0.334400	0.662300
H201	H20	0.685700	0.332000	0.669800
N51	N5	0.790160	0.397780	0.702500
N61	N6	0.788240	0.275850	0.610800
H211	H21	0.769600	0.231600	0.576400
O51	O5	0.217100	0.123200	0.463470
O61	O6	0.125620	0.033750	0.391410
C311	C31	0.356660	0.901300	0.448500
C321	C32	0.427020	0.851500	0.500600
C331	C33	0.412700	0.775400	0.557000
H221	H22	0.358600	0.756700	0.567600
C341	C34	0.478380	0.726700	0.597700
H231	H23	0.467900	0.676100	0.636100
C351	C35	0.560330	0.753680	0.581200
C361	C36	0.574600	0.830500	0.526300
H241	H24	0.628700	0.849400	0.515900
C371	C37	0.508760	0.879700	0.486400
H251	H25	0.519100	0.931300	0.450500
C381	C38	0.629730	0.702140	0.621800
C391	C39	0.628660	0.626140	0.680900
H261	H26	0.581500	0.596200	0.702500
C401	C40	0.757000	0.665600	0.662300
H271	H27	0.814300	0.668000	0.669800
N71	N7	0.709840	0.602220	0.702500
N81	N8	0.711760	0.724150	0.610800
H281	H28	0.730400	0.768400	0.576400
O71	O7	0.282900	0.876800	0.463470
O81	O8	0.374380	0.966250	0.391410
Cd11	Cd1	0.750000	0.500000	0.825280
Cd21	Cd2	0.250000	0.000000	0.325280
C411	C41	0.856660	0.901300	0.551500
C421	C42	0.927020	0.851500	0.499400
C431	C43	0.912700	0.775400	0.443000
H291	H29	0.858600	0.756700	0.432400
C441	C44	0.978380	0.726700	0.402300
H301	H30	0.967900	0.676100	0.363900
C451	C45	0.060330	0.753680	0.418800
C461	C46	0.074600	0.830500	0.473700
H311	H31	0.128700	0.849400	0.484100
C471	C47	0.008760	0.879700	0.513600
H321	H32	0.019100	0.931300	0.549500
C481	C48	0.129730	0.702140	0.378200
C491	C49	0.128660	0.626140	0.319100
H331	H33	0.081500	0.596200	0.297500
C501	C50	0.257000	0.665600	0.337700
H341	H34	0.314300	0.668000	0.330200
N91	N9	0.209840	0.602220	0.297500
N101	N10	0.211760	0.724150	0.389200
H351	H35	0.230400	0.768400	0.423600
O91	O9	0.782900	0.876800	0.536530
O101	O10	0.874380	0.966250	0.608590
C511	C51	0.643340	0.098700	0.551500
C521	C52	0.572980	0.148500	0.499400
C531	C53	0.587300	0.224600	0.443000
H361	H36	0.641400	0.243300	0.432400
C541	C54	0.521620	0.273300	0.402300
H371	H37	0.532100	0.323900	0.363900
C551	C55	0.439670	0.246320	0.418800
C561	C56	0.425400	0.169500	0.473700
H381	H38	0.371300	0.150600	0.484100
C571	C57	0.491240	0.120300	0.513600
H391	H39	0.480900	0.068700	0.549500
C581	C58	0.370270	0.297860	0.378200
C591	C59	0.371340	0.373860	0.319100
H401	H40	0.418500	0.403800	0.297500
C601	C60	0.243000	0.334400	0.337700
H411	H41	0.185700	0.332000	0.330200
N111	N11	0.290160	0.397780	0.297500
N121	N12	0.288240	0.275850	0.389200
H421	H42	0.269600	0.231600	0.423600
O111	O11	0.717100	0.123200	0.536530
O121	O12	0.625620	0.033750	0.608590
C611	C61	0.356660	0.598700	0.051500
C621	C62	0.427020	0.648500	0.999400
C631	C63	0.412700	0.724600	0.943000
H431	H43	0.358600	0.743300	0.932400
C641	C64	0.478380	0.773300	0.902300
H441	H44	0.467900	0.823900	0.863900
C651	C65	0.560330	0.746320	0.918800
C661	C66	0.574600	0.669500	0.973700
H451	H45	0.628700	0.650600	0.984100
C671	C67	0.508760	0.620300	0.013600
H461	H46	0.519100	0.568700	0.049500
C681	C68	0.629730	0.797860	0.878200
C691	C69	0.628660	0.873860	0.819100
H471	H47	0.581500	0.903800	0.797500
C701	C70	0.757000	0.834400	0.837700
H481	H48	0.814300	0.832000	0.830200
N131	N13	0.709840	0.897780	0.797500
N141	N14	0.711760	0.775850	0.889200
H491	H49	0.730400	0.731600	0.923600
O131	O13	0.282900	0.623200	0.036530
O141	O14	0.374380	0.533750	0.108590
C711	C71	0.143340	0.401300	0.051500
C721	C72	0.072980	0.351500	0.999400
C731	C73	0.087300	0.275400	0.943000
H501	H50	0.141400	0.256700	0.932400
C741	C74	0.021620	0.226700	0.902300
H511	H51	0.032100	0.176100	0.863900
C751	C75	0.939670	0.253680	0.918800
C761	C76	0.925400	0.330500	0.973700
H521	H52	0.871300	0.349400	0.984100
C771	C77	0.991240	0.379700	0.013600
H531	H53	0.980900	0.431300	0.049500
C781	C78	0.870270	0.202140	0.878200
C791	C79	0.871340	0.126140	0.819100
H541	H54	0.918500	0.096200	0.797500
C801	C80	0.743000	0.165600	0.837700
H551	H55	0.685700	0.168000	0.830200
N151	N15	0.790160	0.102220	0.797500
N161	N16	0.788240	0.224150	0.889200
H561	H56	0.769600	0.268400	0.923600
O151	O15	0.217100	0.376800	0.036530
O161	O16	0.125620	0.466250	0.108590
Cd31	Cd3	0.750000	0.000000	0.674720
Cd41	Cd4	0.250000	0.500000	0.174720
