data_POTREX_clean_PM
_symmetry_space_group_name_H-M	'P1'
_cell_length_a	21.110000
_cell_length_b	21.110000
_cell_length_c	29.855000
_cell_angle_alpha	69.295900
_cell_angle_beta	69.295900
_cell_angle_gamma	90.000000
_symmetry_Int_Tables_number 1

loop_
_symmetry_equiv_pos_as_xyz
'x,y,z'

loop_
_atom_site_label
_atom_site_type_symbol
_atom_site_fract_x
_atom_site_fract_y
_atom_site_fract_z
Co11	Co1	0.060420	0.421680	0.232720
Co21	Co2	0.939580	0.578320	0.767280
Co31	Co3	0.793140	0.654400	0.767280
Co41	Co4	0.654400	0.939580	0.267280
Co51	Co5	0.578320	0.793140	0.267280
Co61	Co6	0.206860	0.345600	0.232720
Co71	Co7	0.345590	0.060420	0.732730
Co81	Co8	0.421680	0.206860	0.732720
H11	H1	0.501100	0.314200	0.749600
H21	H2	0.747700	0.336900	0.991600
H31	H3	0.128500	0.436700	0.790800
H41	H4	0.074600	0.409400	0.956000
H51	H5	0.226900	0.294900	0.947200
H61	H6	0.996000	0.546100	0.079000
H71	H7	0.705100	0.674100	0.552800
H81	H8	0.365400	0.925400	0.544000
H91	H9	0.674200	0.817800	0.412800
H101	H10	0.242100	0.773100	0.552800
H111	H11	0.207100	0.281600	0.345000
H121	H12	0.295000	0.452100	0.238200
H131	H13	0.253300	0.301400	0.397800
H141	H14	0.661600	0.519700	0.710000
H151	H15	0.355300	0.343600	0.619800
H161	H16	0.409400	0.469400	0.456000
H171	H17	0.396800	0.955400	0.458200
H181	H18	0.469400	0.634600	0.956000
H191	H19	0.128400	0.770300	0.710000
H201	H20	0.580700	0.772500	0.790800
H211	H21	0.229700	0.338400	0.790000
H221	H22	0.942700	0.515800	0.876000
H231	H23	0.750700	0.063800	0.250400
H241	H24	0.413000	0.769400	0.412800
H251	H25	0.328500	0.252300	0.508400
H261	H26	0.498900	0.685800	0.250400
H271	H27	0.343600	0.524900	0.119800
H281	H28	0.645000	0.586400	0.458200
H291	H29	0.699200	0.746700	0.102200
H301	H30	0.772500	0.128500	0.290800
H311	H31	0.586400	0.396800	0.958200
H321	H32	0.792900	0.718400	0.655000
H331	H33	0.626600	0.792900	0.155000
H341	H34	0.063800	0.498900	0.750400
H351	H35	0.757900	0.226900	0.447200
H361	H36	0.413600	0.603200	0.041800
H371	H37	0.057300	0.484200	0.124000
H381	H38	0.671500	0.747700	0.491600
H391	H39	0.425000	0.374900	0.079000
H401	H40	0.338400	0.480300	0.290000
H411	H41	0.036600	0.355300	0.119800
H421	H42	0.336900	0.760700	0.491600
H431	H43	0.524900	0.036600	0.619800
H441	H44	0.955400	0.645000	0.958200
H451	H45	0.674100	0.242100	0.052800
H461	H46	0.575000	0.625100	0.921000
H471	H47	0.656400	0.475100	0.880200
H481	H48	0.151100	0.699200	0.602200
H491	H49	0.033200	0.690300	0.761800
H501	H50	0.374900	0.996000	0.579000
H511	H51	0.318700	0.391800	0.124000
H521	H52	0.663100	0.239300	0.508400
H531	H53	0.325800	0.182200	0.587200
H541	H54	0.519700	0.128400	0.210000
H551	H55	0.773100	0.705100	0.052800
H561	H56	0.705000	0.547900	0.761800
H571	H57	0.530600	0.365400	0.044000
H581	H58	0.603200	0.044600	0.541800
H591	H59	0.004000	0.453900	0.921000
H601	H60	0.769400	0.674200	0.912800
H611	H61	0.436700	0.580700	0.290800
H621	H62	0.230600	0.325800	0.087200
H631	H63	0.848900	0.300800	0.397800
H641	H64	0.373400	0.207100	0.845000
H651	H65	0.634600	0.074600	0.456000
H661	H66	0.690300	0.705000	0.261800
H671	H67	0.546100	0.425000	0.579000
H681	H68	0.227500	0.871500	0.709200
H691	H69	0.625100	0.004000	0.421000
H701	H70	0.314200	0.249300	0.249600
H711	H71	0.963400	0.644700	0.880200
H721	H72	0.681300	0.608200	0.876000
H731	H73	0.355000	0.413600	0.541800
H741	H74	0.547900	0.033200	0.261800
H751	H75	0.052100	0.626600	0.655000
H761	H76	0.644700	0.656400	0.380200
H771	H77	0.301400	0.848900	0.897800
H781	H78	0.239300	0.328500	0.008400
H791	H79	0.746700	0.698600	0.602200
H801	H80	0.281600	0.947900	0.845000
H811	H81	0.770300	0.661600	0.210000
H821	H82	0.309700	0.295000	0.738200
H831	H83	0.453900	0.575000	0.421000
H841	H84	0.452100	0.966800	0.738200
H851	H85	0.044600	0.355000	0.041800
H861	H86	0.966800	0.309700	0.238200
H871	H87	0.590600	0.530600	0.544000
H881	H88	0.698600	0.151100	0.102200
H891	H89	0.475100	0.963400	0.380200
H901	H90	0.325900	0.757900	0.947200
H911	H91	0.182200	0.587000	0.087200
H921	H92	0.936200	0.501100	0.249600
H931	H93	0.419300	0.227500	0.209200
H941	H94	0.925400	0.590600	0.044000
H951	H95	0.563300	0.419300	0.709200
H961	H96	0.587000	0.230600	0.587200
H971	H97	0.480300	0.871600	0.790000
H981	H98	0.249300	0.936200	0.749600
H991	H99	0.484200	0.318700	0.624000
H1001	H100	0.817800	0.413000	0.912800
H1011	H101	0.871500	0.563300	0.209200
H1021	H102	0.718400	0.052100	0.155000
H1031	H103	0.300800	0.253300	0.897800
H1041	H104	0.685800	0.750700	0.750400
H1051	H105	0.515800	0.681300	0.376000
H1061	H106	0.252300	0.663100	0.008400
H1071	H107	0.608200	0.942700	0.376000
H1081	H108	0.760700	0.671500	0.991600
H1091	H109	0.947900	0.373400	0.345000
H1101	H110	0.294900	0.325900	0.447200
H1111	H111	0.391800	0.057300	0.624000
H1121	H112	0.871600	0.229700	0.290000
C11	C1	0.728450	0.365050	0.969500
C21	C2	0.561720	0.114320	0.197160
C31	C3	0.344580	0.341480	0.514640
C41	C4	0.870170	0.653670	0.838060
C51	C5	0.412920	0.787720	0.884960
C61	C6	0.865960	0.657760	0.888480
C71	C7	0.856120	0.655420	0.985360
C81	C8	0.802330	0.679630	0.066740
C91	C9	0.366610	0.599210	0.050180
C101	C10	0.508270	0.870170	0.338060
C111	C11	0.892280	0.611480	0.061640
C121	C12	0.311480	0.438280	0.302840
C131	C13	0.787720	0.202120	0.384960
C141	C14	0.596720	0.652220	0.885960
C151	C15	0.333190	0.229290	0.577820
C161	C16	0.738760	0.090560	0.309480
C171	C17	0.688520	0.561720	0.697160
C181	C18	0.347780	0.982680	0.614040
C191	C19	0.324650	0.552450	0.097300
C201	C20	0.202120	0.327320	0.884960
C211	C21	0.342240	0.254440	0.611520
C221	C22	0.664870	0.127170	0.134460
C231	C23	0.701560	0.605560	0.648480
C241	C24	0.369070	0.746370	0.933260
C251	C25	0.271550	0.634950	0.030500
C261	C26	0.605560	0.149960	0.148480
C271	C27	0.327320	0.412920	0.384960
C281	C28	0.261630	0.335130	0.365540
C291	C29	0.665450	0.728450	0.469500
C301	C30	0.770710	0.411010	0.922180
C311	C31	0.107720	0.388520	0.938360
C321	C32	0.341480	0.640780	0.014640
C331	C33	0.320370	0.369070	0.433260
C341	C34	0.212280	0.797880	0.615040
C351	C35	0.283620	0.884620	0.610760
C361	C36	0.982680	0.538180	0.114040
C371	C37	0.660790	0.641890	0.858420
C381	C38	0.802050	0.665450	0.969500
C391	C39	0.435530	0.564430	0.362140
C401	C40	0.548240	0.400040	0.690520
C411	C41	0.850040	0.254040	0.351520
C421	C42	0.724730	0.051230	0.285540
C431	C43	0.741120	0.688520	0.197160
C441	C44	0.017320	0.461820	0.885960
C451	C45	0.716380	0.115380	0.389240
C461	C46	0.451760	0.599960	0.309480
C471	C47	0.504620	0.283620	0.110760
C481	C48	0.335130	0.872830	0.865540
C491	C49	0.387830	0.687330	0.961940
C501	C50	0.275270	0.948770	0.714460
C511	C51	0.655420	0.658520	0.485360
C521	C52	0.649270	0.612170	0.538060
C531	C53	0.564430	0.702330	0.862140
C541	C54	0.715280	0.579380	0.728240
C551	C55	0.538180	0.403280	0.614040
C561	C56	0.229290	0.588990	0.077820
C571	C57	0.980790	0.499690	0.858420
C581	C58	0.653670	0.791770	0.338060
C591	C59	0.612170	0.312670	0.038060
C601	C60	0.339210	0.358110	0.141580
C611	C61	0.849770	0.649270	0.038060
C621	C62	0.658520	0.359220	0.985360
C631	C63	0.350730	0.387830	0.461940
C641	C64	0.127170	0.700670	0.634460
C651	C65	0.500310	0.339210	0.641580
C661	C66	0.235320	0.322920	0.332360
C671	C67	0.495380	0.716380	0.889240
C681	C68	0.114320	0.741120	0.697160
C691	C69	0.675350	0.447550	0.902700
C701	C70	0.197950	0.334550	0.030500
C711	C71	0.738370	0.664870	0.634460
C721	C72	0.649750	0.675350	0.402700
C731	C73	0.916790	0.649390	0.949820
C741	C74	0.254040	0.298440	0.851520
C751	C75	0.400040	0.261240	0.190520
C761	C76	0.359220	0.856120	0.485360
C771	C77	0.746370	0.197670	0.433260
C781	C78	0.672680	0.587080	0.615040
C791	C79	0.655280	0.764680	0.167640
C801	C80	0.489730	0.663230	0.285540
C811	C81	0.926570	0.564470	0.137860
C821	C82	0.394440	0.850040	0.851520
C831	C83	0.307620	0.284720	0.771760
C841	C84	0.322920	0.932320	0.832360
C851	C85	0.254440	0.546240	0.111520
C861	C86	0.599960	0.738760	0.809480
C871	C87	0.564470	0.435570	0.637860
C881	C88	0.312670	0.849770	0.538060
C891	C89	0.673120	0.107720	0.438360
C901	C90	0.552450	0.078050	0.597300
C911	C91	0.932320	0.344720	0.332360
C921	C92	0.948770	0.510270	0.214460
C931	C93	0.499690	0.660790	0.358420
C941	C94	0.051230	0.489730	0.785540
C951	C95	0.365050	0.802050	0.469500
C961	C96	0.253630	0.802330	0.566740
C971	C97	0.791770	0.508270	0.838060
C981	C98	0.679630	0.630930	0.566740
C991	C99	0.394380	0.495380	0.389240
C1001	C100	0.403280	0.347780	0.114040
C1011	C101	0.633390	0.400790	0.949820
C1021	C102	0.326880	0.892280	0.561640
C1031	C103	0.115380	0.394380	0.889240
C1041	C104	0.491730	0.129830	0.661940
C1051	C105	0.909440	0.548240	0.190520
C1061	C106	0.149960	0.745960	0.648480
C1071	C107	0.299330	0.261630	0.865540
C1081	C108	0.298440	0.394440	0.351520
C1091	C109	0.605620	0.504620	0.610760
C1101	C110	0.666810	0.770710	0.422180
C1111	C111	0.192890	0.333190	0.077820
C1121	C112	0.921950	0.649750	0.902700
C1131	C113	0.334550	0.271550	0.530500
C1141	C114	0.943520	0.307620	0.271760
C1151	C115	0.447550	0.921950	0.402700
C1161	C116	0.056480	0.692380	0.728240
C1171	C117	0.073430	0.435530	0.862140
C1181	C118	0.692380	0.715280	0.228240
C1191	C119	0.634950	0.197950	0.530500
C1201	C120	0.358110	0.019210	0.641580
C1211	C121	0.258880	0.311480	0.802840
C1221	C122	0.297670	0.926570	0.637860
C1231	C123	0.208230	0.491730	0.161940
C1241	C124	0.143880	0.344580	0.014640
C1251	C125	0.649390	0.633390	0.449820
C1261	C126	0.411010	0.807110	0.422180
C1271	C127	0.884620	0.605620	0.110760
C1281	C128	0.745960	0.701560	0.148480
C1291	C129	0.510270	0.336770	0.714460
C1301	C130	0.350250	0.324650	0.597300
C1311	C131	0.078050	0.350250	0.097300
C1321	C132	0.700670	0.738370	0.134460
C1331	C133	0.420620	0.943520	0.771760
C1341	C134	0.641890	0.980790	0.358420
C1351	C135	0.453920	0.673120	0.938360
C1361	C136	0.350610	0.366610	0.550180
C1371	C137	0.579380	0.056480	0.228240
C1381	C138	0.284720	0.420620	0.271760
C1391	C139	0.344720	0.235320	0.832360
C1401	C140	0.702330	0.073430	0.362140
C1411	C141	0.588990	0.192890	0.577820
C1421	C142	0.745560	0.453760	0.888480
C1431	C143	0.546240	0.134040	0.611520
C1441	C144	0.587080	0.212280	0.115040
C1451	C145	0.019210	0.500310	0.141580
C1461	C146	0.090560	0.451760	0.809480
C1471	C147	0.640780	0.143880	0.514640
C1481	C148	0.438280	0.885680	0.802840
C1491	C149	0.657760	0.745560	0.388480
C1501	C150	0.083210	0.350610	0.050180
C1511	C151	0.872830	0.299330	0.365540
C1521	C152	0.150230	0.350730	0.961940
C1531	C153	0.067680	0.655280	0.667640
C1541	C154	0.129830	0.346330	0.161940
C1551	C155	0.687330	0.150230	0.461940
C1561	C156	0.611480	0.546080	0.561640
C1571	C157	0.435570	0.297670	0.137860
C1581	C158	0.400790	0.916790	0.449820
C1591	C159	0.630930	0.253630	0.066740
C1601	C160	0.797880	0.672680	0.115040
C1611	C161	0.885680	0.258880	0.302840
C1621	C162	0.663230	0.724730	0.785540
C1631	C163	0.336770	0.275270	0.214460
C1641	C164	0.197670	0.320370	0.933260
C1651	C165	0.807110	0.666810	0.922180
C1661	C166	0.599210	0.083210	0.550180
C1671	C167	0.388520	0.453920	0.438360
C1681	C168	0.134040	0.342240	0.111520
C1691	C169	0.677080	0.067680	0.167640
C1701	C170	0.652220	0.017320	0.385960
C1711	C171	0.764680	0.677080	0.667640
C1721	C172	0.546080	0.326880	0.061640
C1731	C173	0.461820	0.596720	0.385960
C1741	C174	0.346330	0.208230	0.661940
C1751	C175	0.453760	0.865960	0.388480
C1761	C176	0.261240	0.909440	0.690520
N11	N1	0.677210	0.996740	0.307980
N21	N2	0.476020	0.772690	0.861820
N31	N3	0.322790	0.003260	0.692020
N41	N4	0.365490	0.476020	0.361820
N51	N5	0.753630	0.636600	0.713800
N61	N6	0.649600	0.753630	0.213800
N71	N7	0.246370	0.363400	0.286200
N81	N8	0.695280	0.677210	0.807980
N91	N9	0.363400	0.967430	0.786200
N101	N10	0.350400	0.246370	0.786200
N111	N11	0.304720	0.322790	0.192020
N121	N12	0.162160	0.365490	0.861820
N131	N13	0.514810	0.695280	0.307980
N141	N14	0.003260	0.485190	0.192020
N151	N15	0.227310	0.837840	0.638180
N161	N16	0.634510	0.523980	0.638180
N171	N17	0.032570	0.649600	0.713800
N181	N18	0.996740	0.514810	0.807980
N191	N19	0.485190	0.304720	0.692020
N201	N20	0.837840	0.634510	0.138180
N211	N21	0.636600	0.032570	0.213800
N221	N22	0.523980	0.227310	0.138180
N231	N23	0.772690	0.162160	0.361820
N241	N24	0.967430	0.350400	0.286200
O11	O1	0.076910	0.367350	0.185520
O21	O2	0.506850	0.822010	0.323900
O31	O3	0.636750	0.886750	0.226500
O41	O4	0.145910	0.493150	0.176100
O51	O5	0.762430	0.552870	0.814480
O61	O6	0.923090	0.632650	0.814480
O71	O7	0.113250	0.363250	0.273500
O81	O8	0.854090	0.506850	0.823900
O91	O9	0.363250	0.113250	0.773500
O101	O10	0.177990	0.330750	0.176100
O111	O11	0.886750	0.636750	0.726500
O121	O12	0.330750	0.145910	0.676100
O131	O13	0.447130	0.076910	0.685520
O141	O14	0.367350	0.237570	0.685520
O151	O15	0.493150	0.177990	0.676100
O161	O16	0.822010	0.669250	0.823900
O171	O17	0.552870	0.923090	0.314480
O181	O18	0.669250	0.854090	0.323900
O191	O19	0.237570	0.447130	0.185520
O201	O20	0.632650	0.762430	0.314480
