data_POWBEK_clean_PM
_symmetry_space_group_name_H-M	'P1'
_cell_length_a	11.335000
_cell_length_b	12.152000
_cell_length_c	23.319000
_cell_angle_alpha	83.543000
_cell_angle_beta	81.741000
_cell_angle_gamma	71.112000
_symmetry_Int_Tables_number 1

loop_
_symmetry_equiv_pos_as_xyz
'x,y,z'

loop_
_atom_site_label
_atom_site_type_symbol
_atom_site_fract_x
_atom_site_fract_y
_atom_site_fract_z
W11	W1	0.086150	0.010980	0.235580
W21	W2	0.986870	0.157290	0.368910
W31	W3	0.980080	0.514580	0.254690
W41	W4	0.762390	0.420680	0.369720
W51	W5	0.680970	0.184450	0.355600
W61	W6	0.786090	0.032830	0.219180
W71	W7	0.967370	0.129520	0.111260
W81	W8	0.739090	0.424280	0.108300
W91	W9	0.646210	0.567190	0.231550
W101	W10	0.068950	0.383380	0.133010
W111	W11	0.558730	0.331430	0.217970
Cu11	Cu1	0.107800	0.744000	0.254840
Cu21	Cu2	0.692500	0.629800	0.971740
Y11	Y1	0.255500	0.236530	0.258900
Si11	Si1	0.868800	0.286800	0.237700
O11	O1	0.193900	0.869200	0.242600
O21	O2	0.984600	0.654700	0.267800
O31	O3	0.137400	0.431000	0.065700
O41	O4	0.408200	0.324100	0.219700
O51	O5	0.744500	0.366300	0.208800
O61	O6	0.653300	0.329600	0.391700
O71	O7	0.893500	0.297800	0.405100
O81	O8	0.822600	0.113000	0.391300
O91	O9	0.660500	0.503500	0.311500
O101	O10	0.742900	0.071200	0.298000
O111	O11	0.016200	0.043200	0.312600
O121	O12	0.101200	0.217800	0.331100
O131	O13	0.803700	0.577500	0.229700
O141	O14	0.133700	0.425600	0.268800
O151	O15	0.183200	0.099600	0.231500
O161	O16	0.206100	0.314600	0.166000
O171	O17	0.031800	0.520600	0.170500
O181	O18	0.890800	0.444600	0.111100
O191	O19	0.655600	0.563400	0.150100
O201	O20	0.822000	0.265500	0.098800
O211	O21	0.089400	0.012500	0.151600
O221	O22	0.937900	0.941700	0.237300
O231	O23	0.516600	0.491000	0.235500
O241	O24	0.852200	0.042800	0.138000
O251	O25	0.653200	0.179800	0.200400
O261	O26	0.050700	0.241100	0.115500
O271	O27	0.581900	0.285500	0.296600
O281	O28	0.894200	0.473800	0.324700
O291	O29	0.588400	0.378200	0.136800
O301	O30	0.836100	0.268100	0.307900
O311	O31	0.915400	0.158800	0.211700
O321	O32	0.977300	0.347500	0.220900
C11	C1	0.998600	0.772400	0.373800
H11	H1	0.927200	0.769000	0.359900
C21	C2	0.991900	0.791300	0.430000
C31	C3	0.091000	0.808000	0.454800
H21	H2	0.083600	0.830900	0.492200
C41	C4	0.203800	0.786000	0.416400
C51	C5	0.203000	0.765300	0.359900
H31	H3	0.277400	0.755300	0.335300
C61	C6	0.763000	0.886000	0.453900
H41	H4	0.752100	0.927100	0.418000
C71	C7	0.719000	0.814600	0.534500
H51	H5	0.675300	0.798400	0.569600
C81	C8	0.848000	0.761000	0.518100
H61	H6	0.905200	0.699900	0.537100
C91	C9	0.431000	0.721000	0.428300
H71	H7	0.454100	0.649100	0.412700
C101	C10	0.507000	0.768000	0.449300
H81	H8	0.592100	0.730800	0.452500
C111	C11	0.322000	0.893000	0.455500
H91	H9	0.254000	0.960400	0.462300
C121	C12	0.002000	0.752400	0.147400
H101	H10	0.929700	0.754500	0.172300
C131	C13	0.998300	0.755400	0.089300
C141	C14	0.102800	0.751700	0.050100
H111	H11	0.101500	0.752800	0.010300
C151	C15	0.211700	0.746300	0.074500
C161	C16	0.211400	0.741700	0.134400
H121	H12	0.285200	0.735000	0.149500
C171	C17	0.439700	0.676200	0.038600
H131	H13	0.462400	0.614400	0.066400
C181	C18	0.318000	0.837000	0.992200
H141	H14	0.253200	0.903500	0.982300
C191	C19	0.443000	0.797600	0.966300
H151	H15	0.472200	0.832100	0.931900
C201	C20	0.872600	0.687700	0.030900
H161	H16	0.939000	0.629300	0.013500
C211	C21	0.768000	0.835700	0.085400
H171	H17	0.750000	0.894800	0.110400
C221	C22	0.685000	0.807000	0.057700
H181	H18	0.598000	0.841600	0.061000
N11	N1	0.103900	0.758300	0.337100
N21	N2	0.867700	0.824500	0.466200
N31	N3	0.668900	0.890000	0.493000
N41	N4	0.311800	0.800100	0.434300
N51	N5	0.437700	0.881700	0.465900
N61	N6	0.108100	0.746600	0.170500
N71	N7	0.318300	0.752000	0.035800
N81	N8	0.518700	0.703600	0.996200
N91	N9	0.885400	0.757100	0.067700
N101	N10	0.756700	0.710500	0.022000
W121	W12	0.913850	0.989020	0.764420
W131	W13	0.013130	0.842710	0.631090
W141	W14	0.019920	0.485420	0.745310
W151	W15	0.237610	0.579320	0.630280
W161	W16	0.319030	0.815550	0.644400
W171	W17	0.213910	0.967170	0.780820
W181	W18	0.032630	0.870480	0.888740
W191	W19	0.260910	0.575720	0.891700
W201	W20	0.353790	0.432810	0.768450
W211	W21	0.931050	0.616620	0.866990
W221	W22	0.441270	0.668570	0.782030
Cu31	Cu3	0.892200	0.256000	0.745160
Cu41	Cu4	0.307500	0.370200	0.028260
Y21	Y2	0.744500	0.763470	0.741100
Si21	Si2	0.131200	0.713200	0.762300
O331	O33	0.806100	0.130800	0.757400
O341	O34	0.015400	0.345300	0.732200
O351	O35	0.862600	0.569000	0.934300
O361	O36	0.591800	0.675900	0.780300
O371	O37	0.255500	0.633700	0.791200
O381	O38	0.346700	0.670400	0.608300
O391	O39	0.106500	0.702200	0.594900
O401	O40	0.177400	0.887000	0.608700
O411	O41	0.339500	0.496500	0.688500
O421	O42	0.257100	0.928800	0.702000
O431	O43	0.983800	0.956800	0.687400
O441	O44	0.898800	0.782200	0.668900
O451	O45	0.196300	0.422500	0.770300
O461	O46	0.866300	0.574400	0.731200
O471	O47	0.816800	0.900400	0.768500
O481	O48	0.793900	0.685400	0.834000
O491	O49	0.968200	0.479400	0.829500
O501	O50	0.109200	0.555400	0.888900
O511	O51	0.344400	0.436600	0.849900
O521	O52	0.178000	0.734500	0.901200
O531	O53	0.910600	0.987500	0.848400
O541	O54	0.062100	0.058300	0.762700
O551	O55	0.483400	0.509000	0.764500
O561	O56	0.147800	0.957200	0.862000
O571	O57	0.346800	0.820200	0.799600
O581	O58	0.949300	0.758900	0.884500
O591	O59	0.418100	0.714500	0.703400
O601	O60	0.105800	0.526200	0.675300
O611	O61	0.411600	0.621800	0.863200
O621	O62	0.163900	0.731900	0.692100
O631	O63	0.084600	0.841200	0.788300
O641	O64	0.022700	0.652500	0.779100
C231	C23	0.001400	0.227600	0.626200
H191	H19	0.072800	0.231000	0.640100
C241	C24	0.008100	0.208700	0.570000
C251	C25	0.909000	0.192000	0.545200
H201	H20	0.916400	0.169100	0.507800
C261	C26	0.796200	0.214000	0.583600
C271	C27	0.797000	0.234700	0.640100
H211	H21	0.722600	0.244700	0.664700
C281	C28	0.237000	0.114000	0.546100
H221	H22	0.247900	0.072900	0.582000
C291	C29	0.281000	0.185400	0.465500
H231	H23	0.324700	0.201600	0.430400
C301	C30	0.152000	0.239000	0.481900
H241	H24	0.094800	0.300100	0.462900
C311	C31	0.569000	0.279000	0.571700
H251	H25	0.545900	0.350900	0.587300
C321	C32	0.493000	0.232000	0.550700
H261	H26	0.407900	0.269200	0.547500
C331	C33	0.678000	0.107000	0.544500
H271	H27	0.746000	0.039600	0.537700
C341	C34	0.998000	0.247600	0.852600
H281	H28	0.070300	0.245500	0.827700
C351	C35	0.001700	0.244600	0.910700
C361	C36	0.897200	0.248300	0.949900
H291	H29	0.898500	0.247200	0.989700
C371	C37	0.788300	0.253700	0.925500
C381	C38	0.788600	0.258300	0.865600
H301	H30	0.714800	0.265000	0.850500
C391	C39	0.560300	0.323800	0.961400
H311	H31	0.537600	0.385600	0.933600
C401	C40	0.682000	0.163000	0.007800
H321	H32	0.746800	0.096500	0.017700
C411	C41	0.557000	0.202400	0.033700
H331	H33	0.527800	0.167900	0.068100
C421	C42	0.127400	0.312300	0.969100
H341	H34	0.061000	0.370700	0.986500
C431	C43	0.232000	0.164300	0.914600
H351	H35	0.250000	0.105200	0.889600
C441	C44	0.315000	0.193000	0.942300
H361	H36	0.402000	0.158400	0.939000
N111	N11	0.896100	0.241700	0.662900
N121	N12	0.132300	0.175500	0.533800
N131	N13	0.331100	0.110000	0.507000
N141	N14	0.688200	0.199900	0.565700
N151	N15	0.562300	0.118300	0.534100
N161	N16	0.891900	0.253400	0.829500
N171	N17	0.681700	0.248000	0.964200
N181	N18	0.481300	0.296400	0.003800
N191	N19	0.114600	0.242900	0.932300
N201	N20	0.243300	0.289500	0.978000
Cu51	Cu5	0.500000	0.000000	0.500000
