data_PUFRIR_clean_PM
_symmetry_space_group_name_H-M	'P1'
_cell_length_a	17.897000
_cell_length_b	14.731000
_cell_length_c	17.381000
_cell_angle_alpha	90.000000
_cell_angle_beta	116.610000
_cell_angle_gamma	90.000000
_symmetry_Int_Tables_number 1

loop_
_symmetry_equiv_pos_as_xyz
'x,y,z'

loop_
_atom_site_label
_atom_site_type_symbol
_atom_site_fract_x
_atom_site_fract_y
_atom_site_fract_z
O11	O1	0.243200	0.061000	0.101400
O21	O2	0.362300	0.027400	0.216200
C11	C1	0.319100	0.073100	0.154000
C21	C2	0.353300	0.157700	0.128700
N11	N1	0.438300	0.190800	0.192400
C31	C3	0.440300	0.213900	0.276700
C41	C4	0.527400	0.245800	0.339300
C51	C5	0.455900	0.276100	0.156100
C61	C6	0.535700	0.320600	0.219000
C71	C7	0.506300	0.124700	0.206600
C81	C8	0.591400	0.167200	0.260700
N21	N2	0.581200	0.258700	0.293900
C91	C9	0.662900	0.300100	0.357300
C101	C10	0.726500	0.323400	0.323800
O31	O3	0.786500	0.367200	0.377700
O41	O4	0.716100	0.298200	0.251500
O51	O5	0.072400	0.137200	0.053200
O61	O6	0.961900	0.132200	0.923700
C111	C11	0.022500	0.170600	0.982900
C121	C12	0.038800	0.270100	0.973100
N31	N3	0.995500	0.308500	0.882900
C131	C13	0.031200	0.402200	0.886300
C141	C14	0.978400	0.451300	0.801800
C151	C15	0.903100	0.316200	0.850100
C161	C16	0.863400	0.343500	0.755100
C171	C17	0.012500	0.252800	0.819400
C181	C18	0.988800	0.306600	0.737400
N41	N4	0.929800	0.382700	0.733400
C191	C19	0.887800	0.424000	0.644700
C201	C20	0.946000	0.460200	0.609600
O71	O7	0.908800	0.475700	0.529900
O81	O8	0.020700	0.472900	0.657800
Gd11	Gd1	0.129370	0.993880	0.115750
H11	H1	0.357700	0.141600	0.077300
H21	H2	0.314200	0.206600	0.116400
H31	H3	0.403700	0.264300	0.269500
H41	H4	0.422000	0.162300	0.297400
H51	H5	0.526000	0.299400	0.370000
H61	H6	0.551800	0.196800	0.379300
H71	H7	0.465600	0.256800	0.108600
H81	H8	0.409200	0.317000	0.135900
H91	H9	0.519800	0.374200	0.239300
H101	H10	0.571800	0.337000	0.193700
H111	H11	0.500300	0.073700	0.237800
H121	H12	0.502300	0.104400	0.152400
H131	H13	0.618800	0.175300	0.224600
H141	H14	0.624900	0.128900	0.308400
H151	H15	0.649700	0.354800	0.378700
H161	H16	0.689500	0.257900	0.403800
H171	H17	0.097800	0.277700	0.993200
H181	H18	0.020900	0.304700	0.008600
H191	H19	0.088100	0.398100	0.895500
H201	H20	0.028900	0.436000	0.932500
H211	H21	0.014700	0.484100	0.784400
H221	H22	0.940800	0.493000	0.809100
H231	H23	0.880600	0.258800	0.855600
H241	H24	0.891100	0.361100	0.883100
H251	H25	0.821300	0.388500	0.745100
H261	H26	0.838600	0.291600	0.719400
H271	H27	0.070700	0.237200	0.844500
H281	H28	0.979600	0.198400	0.805900
H291	H29	0.038500	0.332000	0.738100
H301	H30	0.962200	0.267400	0.688500
H311	H31	0.853000	0.378100	0.606100
H321	H32	0.853700	0.473400	0.646500
O91	O9	0.756800	0.561000	0.398600
O101	O10	0.637700	0.527400	0.283800
C211	C21	0.680900	0.573100	0.346000
C221	C22	0.646700	0.657700	0.371300
N51	N5	0.561700	0.690800	0.307600
C231	C23	0.559700	0.713900	0.223300
C241	C24	0.472600	0.745800	0.160700
C251	C25	0.544100	0.776100	0.343900
C261	C26	0.464300	0.820600	0.281000
C271	C27	0.493700	0.624700	0.293400
C281	C28	0.408600	0.667200	0.239300
N61	N6	0.418800	0.758700	0.206100
C291	C29	0.337100	0.800100	0.142700
C301	C30	0.273500	0.823400	0.176200
O111	O11	0.213500	0.867200	0.122300
O121	O12	0.283900	0.798200	0.248500
O131	O13	0.927600	0.637200	0.446800
O141	O14	0.038100	0.632200	0.576300
C311	C31	0.977500	0.670600	0.517100
C321	C32	0.961200	0.770100	0.526900
N71	N7	0.004500	0.808500	0.617100
C331	C33	0.968800	0.902200	0.613700
C341	C34	0.021600	0.951300	0.698200
C351	C35	0.096900	0.816200	0.649900
C361	C36	0.136600	0.843500	0.744900
C371	C37	0.987500	0.752800	0.680600
C381	C38	0.011200	0.806600	0.762600
N81	N8	0.070200	0.882700	0.766600
C391	C39	0.112200	0.924000	0.855300
C401	C40	0.054000	0.960200	0.890400
O151	O15	0.091200	0.975700	0.970100
O161	O16	0.979300	0.972900	0.842200
Gd21	Gd2	0.870630	0.493880	0.384250
H331	H33	0.642300	0.641600	0.422700
H341	H34	0.685800	0.706600	0.383600
H351	H35	0.596300	0.764300	0.230500
H361	H36	0.578000	0.662300	0.202600
H371	H37	0.474000	0.799400	0.130000
H381	H38	0.448200	0.696800	0.120700
H391	H39	0.534400	0.756800	0.391400
H401	H40	0.590800	0.817000	0.364100
H411	H41	0.480200	0.874200	0.260700
H421	H42	0.428200	0.837000	0.306300
H431	H43	0.499700	0.573700	0.262200
H441	H44	0.497700	0.604400	0.347600
H451	H45	0.381200	0.675300	0.275400
H461	H46	0.375100	0.628900	0.191600
H471	H47	0.350300	0.854800	0.121300
H481	H48	0.310500	0.757900	0.096200
H491	H49	0.902200	0.777700	0.506800
H501	H50	0.979100	0.804700	0.491400
H511	H51	0.911900	0.898100	0.604500
H521	H52	0.971100	0.936000	0.567500
H531	H53	0.985300	0.984100	0.715600
H541	H54	0.059200	0.993000	0.690900
H551	H55	0.119400	0.758800	0.644400
H561	H56	0.108900	0.861100	0.616900
H571	H57	0.178700	0.888500	0.754900
H581	H58	0.161400	0.791600	0.780600
H591	H59	0.929300	0.737200	0.655500
H601	H60	0.020400	0.698400	0.694100
H611	H61	0.961500	0.832000	0.761900
H621	H62	0.037800	0.767400	0.811500
H631	H63	0.147000	0.878100	0.893900
H641	H64	0.146300	0.973400	0.853500
O171	O17	0.756800	0.939000	0.898600
O181	O18	0.637700	0.972600	0.783800
C411	C41	0.680900	0.926900	0.846000
C421	C42	0.646700	0.842300	0.871300
N91	N9	0.561700	0.809200	0.807600
C431	C43	0.559700	0.786100	0.723300
C441	C44	0.472600	0.754200	0.660700
C451	C45	0.544100	0.723900	0.843900
C461	C46	0.464300	0.679400	0.781000
C471	C47	0.493700	0.875300	0.793400
C481	C48	0.408600	0.832800	0.739300
N101	N10	0.418800	0.741300	0.706100
C491	C49	0.337100	0.699900	0.642700
C501	C50	0.273500	0.676600	0.676200
O191	O19	0.213500	0.632800	0.622300
O201	O20	0.283900	0.701800	0.748500
O211	O21	0.927600	0.862800	0.946800
O221	O22	0.038100	0.867800	0.076300
C511	C51	0.977500	0.829400	0.017100
C521	C52	0.961200	0.729900	0.026900
N111	N11	0.004500	0.691500	0.117100
C531	C53	0.968800	0.597800	0.113700
C541	C54	0.021600	0.548700	0.198200
C551	C55	0.096900	0.683800	0.149900
C561	C56	0.136600	0.656500	0.244900
C571	C57	0.987500	0.747200	0.180600
C581	C58	0.011200	0.693400	0.262600
N121	N12	0.070200	0.617300	0.266600
C591	C59	0.112200	0.576000	0.355300
C601	C60	0.054000	0.539800	0.390400
O231	O23	0.091200	0.524300	0.470100
O241	O24	0.979300	0.527100	0.342200
Gd31	Gd3	0.870630	0.006120	0.884250
H651	H65	0.642300	0.858400	0.922700
H661	H66	0.685800	0.793400	0.883600
H671	H67	0.596300	0.735700	0.730500
H681	H68	0.578000	0.837700	0.702600
H691	H69	0.474000	0.700600	0.630000
H701	H70	0.448200	0.803200	0.620700
H711	H71	0.534400	0.743200	0.891400
H721	H72	0.590800	0.683000	0.864100
H731	H73	0.480200	0.625800	0.760700
H741	H74	0.428200	0.663000	0.806300
H751	H75	0.499700	0.926300	0.762200
H761	H76	0.497700	0.895600	0.847600
H771	H77	0.381200	0.824700	0.775400
H781	H78	0.375100	0.871100	0.691600
H791	H79	0.350300	0.645200	0.621300
H801	H80	0.310500	0.742100	0.596200
H811	H81	0.902200	0.722300	0.006800
H821	H82	0.979100	0.695300	0.991400
H831	H83	0.911900	0.601900	0.104500
H841	H84	0.971100	0.564000	0.067500
H851	H85	0.985300	0.515900	0.215600
H861	H86	0.059200	0.507000	0.190900
H871	H87	0.119400	0.741200	0.144400
H881	H88	0.108900	0.638900	0.116900
H891	H89	0.178700	0.611500	0.254900
H901	H90	0.161400	0.708400	0.280600
H911	H91	0.929300	0.762800	0.155500
H921	H92	0.020400	0.801600	0.194100
H931	H93	0.961500	0.668000	0.261900
H941	H94	0.037800	0.732600	0.311500
H951	H95	0.147000	0.621900	0.393900
H961	H96	0.146300	0.526600	0.353500
O251	O25	0.243200	0.439000	0.601400
O261	O26	0.362300	0.472600	0.716200
C611	C61	0.319100	0.426900	0.654000
C621	C62	0.353300	0.342300	0.628700
N131	N13	0.438300	0.309200	0.692400
C631	C63	0.440300	0.286100	0.776700
C641	C64	0.527400	0.254200	0.839300
C651	C65	0.455900	0.223900	0.656100
C661	C66	0.535700	0.179400	0.719000
C671	C67	0.506300	0.375300	0.706600
C681	C68	0.591400	0.332800	0.760700
N141	N14	0.581200	0.241300	0.793900
C691	C69	0.662900	0.199900	0.857300
C701	C70	0.726500	0.176600	0.823800
O271	O27	0.786500	0.132800	0.877700
O281	O28	0.716100	0.201800	0.751500
O291	O29	0.072400	0.362800	0.553200
O301	O30	0.961900	0.367800	0.423700
C711	C71	0.022500	0.329400	0.482900
C721	C72	0.038800	0.229900	0.473100
N151	N15	0.995500	0.191500	0.382900
C731	C73	0.031200	0.097800	0.386300
C741	C74	0.978400	0.048700	0.301800
C751	C75	0.903100	0.183800	0.350100
C761	C76	0.863400	0.156500	0.255100
C771	C77	0.012500	0.247200	0.319400
C781	C78	0.988800	0.193400	0.237400
N161	N16	0.929800	0.117300	0.233400
C791	C79	0.887800	0.076000	0.144700
C801	C80	0.946000	0.039800	0.109600
O311	O31	0.908800	0.024300	0.029900
O321	O32	0.020700	0.027100	0.157800
Gd41	Gd4	0.129370	0.506120	0.615750
H971	H97	0.357700	0.358400	0.577300
H981	H98	0.314200	0.293400	0.616400
H991	H99	0.403700	0.235700	0.769500
H1001	H100	0.422000	0.337700	0.797400
H1011	H101	0.526000	0.200600	0.870000
H1021	H102	0.551800	0.303200	0.879300
H1031	H103	0.465600	0.243200	0.608600
H1041	H104	0.409200	0.183000	0.635900
H1051	H105	0.519800	0.125800	0.739300
H1061	H106	0.571800	0.163000	0.693700
H1071	H107	0.500300	0.426300	0.737800
H1081	H108	0.502300	0.395600	0.652400
H1091	H109	0.618800	0.324700	0.724600
H1101	H110	0.624900	0.371100	0.808400
H1111	H111	0.649700	0.145200	0.878700
H1121	H112	0.689500	0.242100	0.903800
H1131	H113	0.097800	0.222300	0.493200
H1141	H114	0.020900	0.195300	0.508600
H1151	H115	0.088100	0.101900	0.395500
H1161	H116	0.028900	0.064000	0.432500
H1171	H117	0.014700	0.015900	0.284400
H1181	H118	0.940800	0.007000	0.309100
H1191	H119	0.880600	0.241200	0.355600
H1201	H120	0.891100	0.138900	0.383100
H1211	H121	0.821300	0.111500	0.245100
H1221	H122	0.838600	0.208400	0.219400
H1231	H123	0.070700	0.262800	0.344500
H1241	H124	0.979600	0.301600	0.305900
H1251	H125	0.038500	0.168000	0.238100
H1261	H126	0.962200	0.232600	0.188500
H1271	H127	0.853000	0.121900	0.106100
H1281	H128	0.853700	0.026600	0.146500
