data_PUFXUL_clean_PM
_symmetry_space_group_name_H-M	'P1'
_cell_length_a	8.054200
_cell_length_b	18.780000
_cell_length_c	19.289000
_cell_angle_alpha	90.000000
_cell_angle_beta	95.641000
_cell_angle_gamma	90.000000
_symmetry_Int_Tables_number 1

loop_
_symmetry_equiv_pos_as_xyz
'x,y,z'

loop_
_atom_site_label
_atom_site_type_symbol
_atom_site_fract_x
_atom_site_fract_y
_atom_site_fract_z
C11	C1	0.707000	0.377300	0.592500
C21	C2	0.845600	0.378100	0.649100
C31	C3	0.999600	0.354100	0.637500
H11	H1	0.016600	0.335300	0.593600
C41	C4	0.132800	0.356500	0.689300
H21	H2	0.238700	0.339700	0.680600
C51	C5	0.107300	0.383400	0.752200
C61	C6	0.952300	0.407700	0.766400
H31	H3	0.936200	0.425900	0.810600
C71	C7	0.822300	0.404800	0.714900
H41	H4	0.716200	0.421000	0.724000
C81	C8	0.152200	0.290600	0.882500
H51	H5	0.186800	0.246900	0.861200
H61	H6	0.038600	0.301900	0.864500
H71	H7	0.157900	0.284400	0.932600
C91	C9	0.263900	0.349200	0.866000
C101	C10	0.377700	0.433200	0.810400
C111	C11	0.401200	0.485700	0.752900
H81	H8	0.493300	0.517300	0.767500
H91	H9	0.300000	0.513400	0.742900
H101	H10	0.425200	0.460100	0.711400
C121	C12	0.750500	0.764500	0.508800
C131	C13	0.887500	0.715600	0.494400
C141	C14	0.854100	0.653000	0.457300
H111	H11	0.743900	0.641700	0.440200
C151	C15	0.978800	0.608700	0.445600
H121	H12	0.954700	0.566500	0.420400
C161	C16	0.138800	0.623400	0.469500
C171	C17	0.178600	0.684100	0.505700
H131	H13	0.289800	0.694300	0.522000
C181	C18	0.051000	0.730600	0.517900
H141	H14	0.076300	0.772900	0.542600
C191	C19	0.191900	0.478700	0.538900
H151	H15	0.089700	0.458400	0.516400
H161	H16	0.164900	0.516600	0.570100
H171	H17	0.255100	0.442000	0.565300
C201	C20	0.292700	0.507900	0.485400
C211	C21	0.390600	0.580700	0.409600
C221	C22	0.407500	0.644300	0.367300
H181	H18	0.484700	0.634700	0.332800
H191	H19	0.449800	0.683200	0.397000
H201	H20	0.299500	0.657100	0.343900
C231	C23	0.265900	0.320800	0.110800
C241	C24	0.132900	0.314700	0.160600
C251	C25	0.176600	0.299600	0.229400
H211	H21	0.289300	0.292500	0.245500
C261	C26	0.053800	0.294700	0.275700
H221	H22	0.082800	0.283800	0.322900
C271	C27	0.889400	0.306100	0.250800
C281	C28	0.846800	0.322000	0.180500
H231	H23	0.734800	0.329800	0.163700
C291	C29	0.968300	0.325900	0.136600
H241	H24	0.939800	0.336500	0.089300
C301	C30	0.832500	0.409700	0.367300
H251	H25	0.781100	0.436700	0.402300
H261	H26	0.840600	0.439100	0.326500
H271	H27	0.943300	0.394700	0.386000
C311	C31	0.730900	0.347000	0.348000
C321	C32	0.638500	0.249900	0.295600
C331	C33	0.624500	0.189600	0.246200
H281	H28	0.517200	0.166400	0.247900
H291	H29	0.713100	0.155600	0.258900
H301	H30	0.633900	0.207000	0.199400
C341	C34	0.649200	0.209700	0.989600
C351	C35	0.784900	0.156600	0.976200
C361	C36	0.746200	0.088800	0.953500
H311	H31	0.634100	0.074300	0.947200
C371	C37	0.870500	0.042100	0.940000
H321	H32	0.843600	0.996200	0.922900
C381	C38	0.033000	0.063000	0.951500
C391	C39	0.076200	0.130400	0.977700
H331	H33	0.188400	0.143900	0.987400
C401	C40	0.950200	0.176000	0.988800
H341	H34	0.976600	0.222000	0.005400
C411	C41	0.143600	0.930300	0.036600
H351	H35	0.190600	0.884100	0.049700
H361	H36	0.024500	0.925600	0.024100
H371	H37	0.163300	0.963000	0.075500
C421	C42	0.224700	0.958700	0.975500
C431	C43	0.280200	0.023700	0.888800
C441	C44	0.264100	0.082600	0.836600
H381	H38	0.305600	0.126500	0.858400
H391	H39	0.147700	0.088500	0.819200
H401	H40	0.328500	0.071100	0.798100
N11	N1	0.396900	0.371000	0.903900
N21	N2	0.469200	0.425000	0.867400
N31	N3	0.245700	0.387800	0.806600
N41	N4	0.415800	0.476900	0.458500
N51	N5	0.478400	0.522900	0.410500
N61	N6	0.270800	0.573700	0.455900
N71	N7	0.598200	0.324600	0.376400
N81	N8	0.539300	0.263200	0.343500
N91	N9	0.758700	0.300600	0.297100
N101	N10	0.357500	0.933600	0.951100
N111	N11	0.392600	0.974600	0.895600
N121	N12	0.167300	0.015400	0.937200
O11	O1	0.744600	0.364600	0.532200
O21	O2	0.560800	0.390300	0.604600
O31	O3	0.787800	0.824400	0.537200
O41	O4	0.604200	0.747400	0.491700
O51	O5	0.699400	0.272500	0.000200
O61	O6	0.501600	0.191500	0.987700
O71	O7	0.221600	0.336600	0.048500
O81	O8	0.416400	0.311500	0.131500
Cd11	Cd1	0.490370	0.361270	0.474490
Cd21	Cd2	0.483260	0.338530	0.015280
C451	C45	0.293000	0.877300	0.407500
C461	C46	0.154400	0.878100	0.350900
C471	C47	0.000400	0.854100	0.362500
H411	H41	0.983400	0.835300	0.406400
C481	C48	0.867200	0.856500	0.310700
H421	H42	0.761300	0.839700	0.319400
C491	C49	0.892700	0.883400	0.247800
C501	C50	0.047700	0.907700	0.233600
H431	H43	0.063800	0.925900	0.189400
C511	C51	0.177700	0.904800	0.285100
H441	H44	0.283800	0.921000	0.276000
C521	C52	0.847800	0.790600	0.117500
H451	H45	0.813200	0.746900	0.138800
H461	H46	0.961400	0.801900	0.135500
H471	H47	0.842100	0.784400	0.067400
C531	C53	0.736100	0.849200	0.134000
C541	C54	0.622300	0.933200	0.189600
C551	C55	0.598800	0.985700	0.247100
H481	H48	0.506700	0.017300	0.232500
H491	H49	0.700000	0.013400	0.257100
H501	H50	0.574800	0.960100	0.288600
C561	C56	0.249500	0.264500	0.491200
C571	C57	0.112500	0.215600	0.505600
C581	C58	0.145900	0.153000	0.542700
H511	H51	0.256100	0.141700	0.559800
C591	C59	0.021200	0.108700	0.554400
H521	H52	0.045300	0.066500	0.579600
C601	C60	0.861200	0.123400	0.530500
C611	C61	0.821400	0.184100	0.494300
H531	H53	0.710200	0.194300	0.478000
C621	C62	0.949000	0.230600	0.482100
H541	H54	0.923700	0.272900	0.457400
C631	C63	0.808100	0.978700	0.461100
H551	H55	0.910300	0.958400	0.483600
H561	H56	0.835100	0.016600	0.429900
H571	H57	0.744900	0.942000	0.434700
C641	C64	0.707300	0.007900	0.514600
C651	C65	0.609400	0.080700	0.590400
C661	C66	0.592500	0.144300	0.632700
H581	H58	0.515300	0.134700	0.667200
H591	H59	0.550200	0.183200	0.603000
H601	H60	0.700500	0.157100	0.656100
C671	C67	0.734100	0.820800	0.889200
C681	C68	0.867100	0.814700	0.839400
C691	C69	0.823400	0.799600	0.770600
H611	H61	0.710700	0.792500	0.754500
C701	C70	0.946200	0.794700	0.724300
H621	H62	0.917200	0.783800	0.677100
C711	C71	0.110600	0.806100	0.749200
C721	C72	0.153200	0.822000	0.819500
H631	H63	0.265200	0.829800	0.836300
C731	C73	0.031700	0.825900	0.863400
H641	H64	0.060200	0.836500	0.910700
C741	C74	0.167500	0.909700	0.632700
H651	H65	0.218900	0.936700	0.597700
H661	H66	0.159400	0.939100	0.673500
H671	H67	0.056700	0.894700	0.614000
C751	C75	0.269100	0.847000	0.652000
C761	C76	0.361500	0.749900	0.704400
C771	C77	0.375500	0.689600	0.753800
H681	H68	0.482800	0.666400	0.752100
H691	H69	0.286900	0.655600	0.741100
H701	H70	0.366100	0.707000	0.800600
C781	C78	0.350800	0.709700	0.010400
C791	C79	0.215100	0.656600	0.023800
C801	C80	0.253800	0.588800	0.046500
H711	H71	0.365900	0.574300	0.052800
C811	C81	0.129500	0.542100	0.060000
H721	H72	0.156400	0.496200	0.077100
C821	C82	0.967000	0.563000	0.048500
C831	C83	0.923800	0.630400	0.022300
H731	H73	0.811600	0.643900	0.012600
C841	C84	0.049800	0.676000	0.011200
H741	H74	0.023400	0.722000	0.994600
C851	C85	0.856400	0.430300	0.963400
H751	H75	0.809400	0.384100	0.950300
H761	H76	0.975500	0.425600	0.975900
H771	H77	0.836700	0.463000	0.924500
C861	C86	0.775300	0.458700	0.024500
C871	C87	0.719800	0.523700	0.111200
C881	C88	0.735900	0.582600	0.163400
H781	H78	0.694400	0.626500	0.141600
H791	H79	0.852300	0.588500	0.180800
H801	H80	0.671500	0.571100	0.201900
N131	N13	0.603100	0.871000	0.096100
N141	N14	0.530800	0.925000	0.132600
N151	N15	0.754300	0.887800	0.193400
N161	N16	0.584200	0.976900	0.541500
N171	N17	0.521600	0.022900	0.589500
N181	N18	0.729200	0.073700	0.544100
N191	N19	0.401800	0.824600	0.623600
N201	N20	0.460700	0.763200	0.656500
N211	N21	0.241300	0.800600	0.702900
N221	N22	0.642500	0.433600	0.048900
N231	N23	0.607400	0.474600	0.104400
N241	N24	0.832700	0.515400	0.062800
O91	O9	0.255400	0.864600	0.467800
O101	O10	0.439200	0.890300	0.395400
O111	O11	0.212200	0.324400	0.462800
O121	O12	0.395800	0.247400	0.508300
O131	O13	0.300600	0.772500	0.999800
O141	O14	0.498400	0.691500	0.012300
O151	O15	0.778400	0.836600	0.951500
O161	O16	0.583600	0.811500	0.868500
Cd31	Cd3	0.509630	0.861270	0.525510
Cd41	Cd4	0.516740	0.838530	0.984720
