data_PUGGOP_clean_PM
_symmetry_space_group_name_H-M	'P1'
_cell_length_a	11.638400
_cell_length_b	21.052000
_cell_length_c	24.247000
_cell_angle_alpha	114.959000
_cell_angle_beta	102.950000
_cell_angle_gamma	92.406000
_symmetry_Int_Tables_number 1

loop_
_symmetry_equiv_pos_as_xyz
'x,y,z'

loop_
_atom_site_label
_atom_site_type_symbol
_atom_site_fract_x
_atom_site_fract_y
_atom_site_fract_z
Mn11	Mn1	0.420360	0.170380	0.340790
Mn21	Mn2	0.664440	0.235690	0.292970
Mn31	Mn3	0.128520	0.057230	0.292990
Mn41	Mn4	0.872640	0.122700	0.245410
S11	S1	0.843100	0.467660	0.702450
S21	S2	0.345190	0.789460	0.080940
S31	S3	0.640700	0.765060	0.297480
S41	S4	0.235790	0.291470	0.081000
O11	O1	0.582200	0.211200	0.412900
O21	O2	0.669100	0.798500	0.586900
O31	O3	0.428000	0.066200	0.335730
O41	O4	0.592000	0.730500	0.664020
O51	O5	0.244000	0.122510	0.263550
O61	O6	0.518700	0.140770	0.263790
O71	O7	0.713100	0.271100	0.390040
O81	O8	0.460100	0.695300	0.703730
O91	O9	0.342200	0.783900	0.801140
O101	O10	0.693800	0.109200	0.255920
O111	O11	0.822900	0.881700	0.610140
O121	O12	0.256000	0.990800	0.296120
O131	O13	0.958200	0.017600	0.801300
O141	O14	0.062300	0.146800	0.255850
O151	O15	0.190000	0.840400	0.822490
O161	O16	0.132000	0.981400	0.822380
O171	O17	0.969600	0.495800	0.716100
O181	O18	0.805000	0.438700	0.740000
O191	O19	0.430500	0.742800	0.085150
O201	O20	0.230400	0.779100	0.091800
O211	O21	0.752400	0.778700	0.283700
O221	O22	0.565800	0.698100	0.259200
O231	O23	0.360900	0.312400	0.091770
O241	O24	0.154500	0.342300	0.085120
C11	C1	0.667400	0.260500	0.427500
C21	C2	0.718000	0.307100	0.496700
C31	C3	0.810600	0.362500	0.516900
H11	H1	0.845600	0.368100	0.488000
C41	C4	0.850200	0.409400	0.580500
H21	H2	0.912100	0.446300	0.593700
C51	C5	0.801200	0.402900	0.623900
C61	C6	0.710400	0.347000	0.604000
H31	H3	0.676800	0.341300	0.633300
C71	C7	0.669500	0.299700	0.540800
H41	H4	0.608500	0.262400	0.527900
C81	C8	0.756400	0.533600	0.700900
C91	C9	0.804800	0.585900	0.684200
H51	H5	0.880500	0.586300	0.677600
C101	C10	0.735400	0.633600	0.678600
H61	H6	0.763300	0.666300	0.666400
C111	C11	0.626000	0.635900	0.690200
C121	C12	0.585100	0.587800	0.706600
H71	H7	0.511200	0.589500	0.715500
C131	C13	0.651700	0.534900	0.710900
H81	H8	0.620500	0.501000	0.720900
C141	C14	0.553900	0.690900	0.684700
C151	C15	0.582300	0.092500	0.243000
C161	C16	0.522300	0.016800	0.205400
C171	C17	0.401700	0.000500	0.187500
H91	H9	0.355400	0.036400	0.199200
C181	C18	0.347100	0.930500	0.151900
H101	H10	0.264500	0.919400	0.141400
C191	C19	0.414800	0.877400	0.131900
C201	C20	0.539900	0.894500	0.149400
H111	H11	0.586500	0.858800	0.136700
C211	C21	0.592100	0.962800	0.184700
H121	H12	0.674600	0.974200	0.195400
C221	C22	0.321500	0.787900	0.005400
C231	C23	0.226900	0.821000	0.987400
H131	H13	0.175600	0.839300	0.012800
C241	C24	0.212800	0.825400	0.932400
H141	H14	0.149700	0.846100	0.919600
C251	C25	0.289800	0.800000	0.894100
C261	C26	0.380700	0.766500	0.912200
H151	H15	0.431000	0.747300	0.886500
C271	C27	0.396200	0.761600	0.968300
H161	H16	0.458400	0.740200	0.980900
C281	C28	0.272800	0.807500	0.833600
C291	C29	0.368300	0.006300	0.315000
C301	C30	0.435400	0.945600	0.309200
C311	C31	0.378500	0.882000	0.294700
H171	H17	0.296200	0.875400	0.288200
C321	C32	0.440600	0.824500	0.288900
H181	H18	0.398900	0.780300	0.277600
C331	C33	0.555700	0.833000	0.299300
C341	C34	0.620000	0.901000	0.315200
H191	H19	0.702300	0.907900	0.321400
C351	C35	0.556700	0.954000	0.320700
H201	H20	0.597400	0.998800	0.332900
C361	C36	0.676800	0.779400	0.377100
C371	C37	0.606700	0.742700	0.396400
H211	H21	0.544600	0.707300	0.366800
C381	C38	0.627800	0.758100	0.458300
H221	H22	0.579400	0.733500	0.470800
C391	C39	0.721200	0.810200	0.503100
C401	C40	0.793700	0.845700	0.482700
H231	H23	0.857200	0.880500	0.511700
C411	C41	0.770800	0.829000	0.420300
H241	H24	0.820300	0.851900	0.406800
C421	C42	0.740400	0.833500	0.572900
C431	C43	0.161400	0.151500	0.243700
C441	C44	0.183600	0.188300	0.204700
C451	C45	0.092700	0.221700	0.184400
H251	H25	0.020700	0.220700	0.194900
C461	C46	0.110700	0.255300	0.149500
H261	H26	0.052000	0.278700	0.136900
C471	C47	0.216900	0.254800	0.132400
C481	C48	0.303500	0.221300	0.152100
H271	H27	0.375400	0.221600	0.141400
C491	C49	0.285700	0.187400	0.187400
H281	H28	0.344400	0.163700	0.199500
C501	C50	0.184300	0.217400	0.005600
C511	C51	0.070900	0.206500	0.968500
H291	H29	0.020800	0.240100	0.980900
C521	C52	0.031300	0.145300	0.912300
H301	H30	0.955100	0.138300	0.886400
C531	C53	0.105000	0.094400	0.894700
C541	C54	0.219900	0.106600	0.932000
H311	H31	0.270100	0.073200	0.919200
C551	C55	0.260500	0.166000	0.986300
H321	H32	0.337900	0.173300	0.011200
C561	C56	0.061400	0.025600	0.833800
Mn51	Mn5	0.579640	0.829620	0.659210
Mn61	Mn6	0.335560	0.764310	0.707030
Mn71	Mn7	0.871480	0.942770	0.707010
Mn81	Mn8	0.127360	0.877300	0.754590
S51	S5	0.156900	0.532340	0.297550
S61	S6	0.654810	0.210540	0.919060
S71	S7	0.359300	0.234940	0.702520
S81	S8	0.764210	0.708530	0.919000
O251	O25	0.417800	0.788800	0.587100
O261	O26	0.330900	0.201500	0.413100
O271	O27	0.572000	0.933800	0.664270
O281	O28	0.408000	0.269500	0.335980
O291	O29	0.756000	0.877490	0.736450
O301	O30	0.481300	0.859230	0.736210
O311	O31	0.286900	0.728900	0.609960
O321	O32	0.539900	0.304700	0.296270
O331	O33	0.657800	0.216100	0.198860
O341	O34	0.306200	0.890800	0.744080
O351	O35	0.177100	0.118300	0.389860
O361	O36	0.744000	0.009200	0.703880
O371	O37	0.041800	0.982400	0.198700
O381	O38	0.937700	0.853200	0.744150
O391	O39	0.810000	0.159600	0.177510
O401	O40	0.868000	0.018600	0.177620
O411	O41	0.030400	0.504200	0.283900
O421	O42	0.195000	0.561300	0.260000
O431	O43	0.569500	0.257200	0.914850
O441	O44	0.769600	0.220900	0.908200
O451	O45	0.247600	0.221300	0.716300
O461	O46	0.434200	0.301900	0.740800
O471	O47	0.639100	0.687600	0.908230
O481	O48	0.845500	0.657700	0.914880
C571	C57	0.332600	0.739500	0.572500
C581	C58	0.282000	0.692900	0.503300
C591	C59	0.189400	0.637500	0.483100
H331	H33	0.154400	0.631900	0.512000
C601	C60	0.149800	0.590600	0.419500
H341	H34	0.087900	0.553700	0.406300
C611	C61	0.198800	0.597100	0.376100
C621	C62	0.289600	0.653000	0.396000
H351	H35	0.323200	0.658700	0.366700
C631	C63	0.330500	0.700300	0.459200
H361	H36	0.391500	0.737600	0.472100
C641	C64	0.243600	0.466400	0.299100
C651	C65	0.195200	0.414100	0.315800
H371	H37	0.119500	0.413700	0.322400
C661	C66	0.264600	0.366400	0.321400
H381	H38	0.236700	0.333700	0.333600
C671	C67	0.374000	0.364100	0.309800
C681	C68	0.414900	0.412200	0.293400
H391	H39	0.488800	0.410500	0.284500
C691	C69	0.348300	0.465100	0.289100
H401	H40	0.379500	0.499000	0.279100
C701	C70	0.446100	0.309100	0.315300
C711	C71	0.417700	0.907500	0.757000
C721	C72	0.477700	0.983200	0.794600
C731	C73	0.598300	0.999500	0.812500
H411	H41	0.644600	0.963600	0.800800
C741	C74	0.652900	0.069500	0.848100
H421	H42	0.735500	0.080600	0.858600
C751	C75	0.585200	0.122600	0.868100
C761	C76	0.460100	0.105500	0.850600
H431	H43	0.413500	0.141200	0.863300
C771	C77	0.407900	0.037200	0.815300
H441	H44	0.325400	0.025800	0.804600
C781	C78	0.678500	0.212100	0.994600
C791	C79	0.773100	0.179000	0.012600
H451	H45	0.824400	0.160700	0.987200
C801	C80	0.787200	0.174600	0.067600
H461	H46	0.850300	0.153900	0.080400
C811	C81	0.710200	0.200000	0.105900
C821	C82	0.619300	0.233500	0.087800
H471	H47	0.569000	0.252700	0.113500
C831	C83	0.603800	0.238400	0.031700
H481	H48	0.541600	0.259800	0.019100
C841	C84	0.727200	0.192500	0.166400
C851	C85	0.631700	0.993700	0.685000
C861	C86	0.564600	0.054400	0.690800
C871	C87	0.621500	0.118000	0.705300
H491	H49	0.703800	0.124600	0.711800
C881	C88	0.559400	0.175500	0.711100
H501	H50	0.601100	0.219700	0.722400
C891	C89	0.444300	0.167000	0.700700
C901	C90	0.380000	0.099000	0.684800
H511	H51	0.297700	0.092100	0.678600
C911	C91	0.443300	0.046000	0.679300
H521	H52	0.402600	0.001200	0.667100
C921	C92	0.323200	0.220600	0.622900
C931	C93	0.393300	0.257300	0.603600
H531	H53	0.455400	0.292700	0.633200
C941	C94	0.372200	0.241900	0.541700
H541	H54	0.420600	0.266500	0.529200
C951	C95	0.278800	0.189800	0.496900
C961	C96	0.206300	0.154300	0.517300
H551	H55	0.142800	0.119500	0.488300
C971	C97	0.229200	0.171000	0.579700
H561	H56	0.179700	0.148100	0.593200
C981	C98	0.259600	0.166500	0.427100
C991	C99	0.838600	0.848500	0.756300
C1001	C100	0.816400	0.811700	0.795300
C1011	C101	0.907300	0.778300	0.815600
H571	H57	0.979300	0.779300	0.805100
C1021	C102	0.889300	0.744700	0.850500
H581	H58	0.948000	0.721300	0.863100
C1031	C103	0.783100	0.745200	0.867600
C1041	C104	0.696500	0.778700	0.847900
H591	H59	0.624600	0.778400	0.858600
C1051	C105	0.714300	0.812600	0.812600
H601	H60	0.655600	0.836300	0.800500
C1061	C106	0.815700	0.782600	0.994400
C1071	C107	0.929100	0.793500	0.031500
H611	H61	0.979200	0.759900	0.019100
C1081	C108	0.968700	0.854700	0.087700
H621	H62	0.044900	0.861700	0.113600
C1091	C109	0.895000	0.905600	0.105300
C1101	C110	0.780100	0.893400	0.068000
H631	H63	0.729900	0.926800	0.080800
C1111	C111	0.739500	0.834000	0.013700
H641	H64	0.662100	0.826700	0.988800
C1121	C112	0.938600	0.974400	0.166200
