data_PUGJEI_clean_PM
_symmetry_space_group_name_H-M	'P1'
_cell_length_a	16.709400
_cell_length_b	20.285700
_cell_length_c	17.193600
_cell_angle_alpha	90.000000
_cell_angle_beta	99.178000
_cell_angle_gamma	90.000000
_symmetry_Int_Tables_number 1

loop_
_symmetry_equiv_pos_as_xyz
'x,y,z'

loop_
_atom_site_label
_atom_site_type_symbol
_atom_site_fract_x
_atom_site_fract_y
_atom_site_fract_z
Mn11	Mn1	0.034790	0.164860	0.248940
Mn21	Mn2	0.140820	0.121220	0.445210
Mn31	Mn3	0.913670	0.143590	0.050640
S11	S1	0.895710	0.484050	0.542910
S21	S2	0.550850	0.272000	0.273720
S31	S3	0.948060	0.568150	0.153310
O11	O1	0.995100	0.242630	0.168600
O21	O2	0.430200	0.580190	0.179000
O31	O3	0.588400	0.632600	0.252900
O41	O4	0.017700	0.231130	0.343100
O51	O5	0.161400	0.190970	0.254400
O61	O6	0.538800	0.393840	0.637600
O71	O7	0.204900	0.184200	0.384700
O81	O8	0.057000	0.193990	0.466800
O91	O9	0.444200	0.540930	0.062500
O101	O10	0.656800	0.610310	0.371900
O111	O11	0.916700	0.245880	0.053100
O121	O12	0.511200	0.399900	0.507800
O131	O13	0.892900	0.532250	0.480800
O141	O14	0.940100	0.497760	0.619900
O151	O15	0.599000	0.274210	0.350700
O161	O16	0.576100	0.232170	0.212900
O171	O17	0.937500	0.598500	0.077000
O181	O18	0.017000	0.584500	0.212200
C11	C1	0.023900	0.234600	0.416300
C21	C2	0.990200	0.295900	0.449100
C31	C3	0.949300	0.341700	0.398300
H11	H1	0.941300	0.334000	0.344300
C41	C4	0.920300	0.398700	0.427000
H21	H2	0.893500	0.429800	0.392400
C51	C5	0.931000	0.409800	0.507500
C61	C6	0.970600	0.365000	0.559900
H31	H3	0.976900	0.372600	0.613900
C71	C7	0.000900	0.307700	0.530500
H41	H4	0.028500	0.277100	0.565100
C81	C8	0.795900	0.465700	0.554200
C91	C9	0.735900	0.473400	0.489000
H51	H5	0.747800	0.490600	0.442000
C101	C10	0.658800	0.454700	0.496300
H61	H6	0.617300	0.458800	0.453600
C111	C11	0.642000	0.429600	0.567900
C121	C12	0.701700	0.425200	0.632400
H71	H7	0.689600	0.410600	0.680500
C131	C13	0.780000	0.442800	0.625200
H81	H8	0.821500	0.439100	0.667900
C141	C14	0.559500	0.406600	0.571800
C151	C15	0.214500	0.194800	0.313500
C161	C16	0.297600	0.214300	0.302200
C171	C17	0.355800	0.225400	0.368800
H91	H9	0.342000	0.220900	0.418800
C181	C18	0.432200	0.242700	0.360300
H101	H10	0.470800	0.250800	0.404500
C191	C19	0.452900	0.248200	0.285100
C201	C20	0.395700	0.237100	0.218100
H111	H11	0.409700	0.241200	0.168100
C211	C21	0.318400	0.220100	0.227300
H121	H12	0.279500	0.212400	0.183200
C221	C22	0.537100	0.353000	0.235500
C231	C23	0.522000	0.403600	0.287600
H131	H13	0.526400	0.396200	0.341500
C241	C24	0.500300	0.464900	0.255200
H141	H14	0.489900	0.499400	0.287600
C251	C25	0.494100	0.475000	0.173900
C261	C26	0.513500	0.425900	0.125400
H151	H15	0.512000	0.434000	0.071900
C271	C27	0.535500	0.363900	0.156300
H161	H16	0.548900	0.330400	0.123900
C281	C28	0.456100	0.536800	0.136900
C291	C29	0.954200	0.272800	0.114200
C301	C30	0.950200	0.346100	0.122400
C311	C31	0.916600	0.386400	0.059600
H171	H17	0.894200	0.367600	0.011700
C321	C32	0.916600	0.454300	0.068500
H181	H18	0.895400	0.481300	0.026500
C331	C33	0.948200	0.481400	0.140200
C341	C34	0.981600	0.442100	0.203900
H191	H19	0.002700	0.461000	0.252100
C351	C35	0.982600	0.374700	0.193700
H201	H20	0.005300	0.348000	0.235400
C361	C36	0.861600	0.582800	0.195400
C371	C37	0.792100	0.602600	0.149300
H211	H21	0.791100	0.609100	0.095600
C381	C38	0.724300	0.612900	0.181700
H221	H22	0.676700	0.625800	0.149700
C391	C39	0.724900	0.604300	0.262400
C401	C40	0.795400	0.585400	0.309300
H231	H23	0.796900	0.580200	0.363200
C411	C41	0.863500	0.574200	0.276400
H241	H24	0.911100	0.560800	0.307900
C421	C42	0.650000	0.616700	0.297700
Mn41	Mn4	0.465210	0.664860	0.251060
Mn51	Mn5	0.359180	0.621220	0.054790
Mn61	Mn6	0.586330	0.643590	0.449360
S41	S4	0.604290	0.984050	0.957090
S51	S5	0.949150	0.772000	0.226280
S61	S6	0.551940	0.068150	0.346690
O191	O19	0.504900	0.742630	0.331400
O201	O20	0.069800	0.080190	0.321000
O211	O21	0.911600	0.132600	0.247100
O221	O22	0.482300	0.731130	0.156900
O231	O23	0.338600	0.690970	0.245600
O241	O24	0.961200	0.893840	0.862400
O251	O25	0.295100	0.684200	0.115300
O261	O26	0.443000	0.693990	0.033200
O271	O27	0.055800	0.040930	0.437500
O281	O28	0.843200	0.110310	0.128100
O291	O29	0.583300	0.745880	0.446900
O301	O30	0.988800	0.899900	0.992200
O311	O31	0.607100	0.032250	0.019200
O321	O32	0.559900	0.997760	0.880100
O331	O33	0.901000	0.774210	0.149300
O341	O34	0.923900	0.732170	0.287100
O351	O35	0.562500	0.098500	0.423000
O361	O36	0.483000	0.084500	0.287800
C431	C43	0.476100	0.734600	0.083700
C441	C44	0.509800	0.795900	0.050900
C451	C45	0.550700	0.841700	0.101700
H251	H25	0.558700	0.834000	0.155700
C461	C46	0.579700	0.898700	0.073000
H261	H26	0.606500	0.929800	0.107600
C471	C47	0.569000	0.909800	0.992500
C481	C48	0.529400	0.865000	0.940100
H271	H27	0.523100	0.872600	0.886100
C491	C49	0.499100	0.807700	0.969500
H281	H28	0.471500	0.777100	0.934900
C501	C50	0.704100	0.965700	0.945800
C511	C51	0.764100	0.973400	0.011000
H291	H29	0.752200	0.990600	0.058000
C521	C52	0.841200	0.954700	0.003700
H301	H30	0.882700	0.958800	0.046400
C531	C53	0.858000	0.929600	0.932100
C541	C54	0.798300	0.925200	0.867600
H311	H31	0.810400	0.910600	0.819500
C551	C55	0.720000	0.942800	0.874800
H321	H32	0.678500	0.939100	0.832100
C561	C56	0.940500	0.906600	0.928200
C571	C57	0.285500	0.694800	0.186500
C581	C58	0.202400	0.714300	0.197800
C591	C59	0.144200	0.725400	0.131200
H331	H33	0.158000	0.720900	0.081200
C601	C60	0.067800	0.742700	0.139700
H341	H34	0.029200	0.750800	0.095500
C611	C61	0.047100	0.748200	0.214900
C621	C62	0.104300	0.737100	0.281900
H351	H35	0.090300	0.741200	0.331900
C631	C63	0.181600	0.720100	0.272700
H361	H36	0.220500	0.712400	0.316800
C641	C64	0.962900	0.853000	0.264500
C651	C65	0.978000	0.903600	0.212400
H371	H37	0.973600	0.896200	0.158500
C661	C66	0.999700	0.964900	0.244800
H381	H38	0.010100	0.999400	0.212400
C671	C67	0.005900	0.975000	0.326100
C681	C68	0.986500	0.925900	0.374600
H391	H39	0.988000	0.934000	0.428100
C691	C69	0.964500	0.863900	0.343700
H401	H40	0.951100	0.830400	0.376100
C701	C70	0.043900	0.036800	0.363100
C711	C71	0.545800	0.772800	0.385800
C721	C72	0.549800	0.846100	0.377600
C731	C73	0.583400	0.886400	0.440400
H411	H41	0.605800	0.867600	0.488300
C741	C74	0.583400	0.954300	0.431500
H421	H42	0.604600	0.981300	0.473500
C751	C75	0.551800	0.981400	0.359800
C761	C76	0.518400	0.942100	0.296100
H431	H43	0.497300	0.961000	0.247900
C771	C77	0.517400	0.874700	0.306300
H441	H44	0.494700	0.848000	0.264600
C781	C78	0.638400	0.082800	0.304600
C791	C79	0.707900	0.102600	0.350700
H451	H45	0.708900	0.109100	0.404400
C801	C80	0.775700	0.112900	0.318300
H461	H46	0.823300	0.125800	0.350300
C811	C81	0.775100	0.104300	0.237600
C821	C82	0.704600	0.085400	0.190700
H471	H47	0.703100	0.080200	0.136800
C831	C83	0.636500	0.074200	0.223600
H481	H48	0.588900	0.060800	0.192100
C841	C84	0.850000	0.116700	0.202300
Mn71	Mn7	0.965210	0.835140	0.751060
Mn81	Mn8	0.859180	0.878780	0.554790
Mn91	Mn9	0.086330	0.856410	0.949360
S71	S7	0.104290	0.515950	0.457090
S81	S8	0.449150	0.728000	0.726280
S91	S9	0.051940	0.431850	0.846690
O371	O37	0.004900	0.757370	0.831400
O381	O38	0.569800	0.419810	0.821000
O391	O39	0.411600	0.367400	0.747100
O401	O40	0.982300	0.768870	0.656900
O411	O41	0.838600	0.809030	0.745600
O421	O42	0.461200	0.606160	0.362400
O431	O43	0.795100	0.815800	0.615300
O441	O44	0.943000	0.806010	0.533200
O451	O45	0.555800	0.459070	0.937500
O461	O46	0.343200	0.389690	0.628100
O471	O47	0.083300	0.754120	0.946900
O481	O48	0.488800	0.600100	0.492200
O491	O49	0.107100	0.467750	0.519200
O501	O50	0.059900	0.502240	0.380100
O511	O51	0.401000	0.725790	0.649300
O521	O52	0.423900	0.767830	0.787100
O531	O53	0.062500	0.401500	0.923000
O541	O54	0.983000	0.415500	0.787800
C851	C85	0.976100	0.765400	0.583700
C861	C86	0.009800	0.704100	0.550900
C871	C87	0.050700	0.658300	0.601700
H491	H49	0.058700	0.666000	0.655700
C881	C88	0.079700	0.601300	0.573000
H501	H50	0.106500	0.570200	0.607600
C891	C89	0.069000	0.590200	0.492500
C901	C90	0.029400	0.635000	0.440100
H511	H51	0.023100	0.627400	0.386100
C911	C91	0.999100	0.692300	0.469500
H521	H52	0.971500	0.722900	0.434900
C921	C92	0.204100	0.534300	0.445800
C931	C93	0.264100	0.526600	0.511000
H531	H53	0.252200	0.509400	0.558000
C941	C94	0.341200	0.545300	0.503700
H541	H54	0.382700	0.541200	0.546400
C951	C95	0.358000	0.570400	0.432100
C961	C96	0.298300	0.574800	0.367600
H551	H55	0.310400	0.589400	0.319500
C971	C97	0.220000	0.557200	0.374800
H561	H56	0.178500	0.560900	0.332100
C981	C98	0.440500	0.593400	0.428200
C991	C99	0.785500	0.805200	0.686500
C1001	C100	0.702400	0.785700	0.697800
C1011	C101	0.644200	0.774600	0.631200
H571	H57	0.658000	0.779100	0.581200
C1021	C102	0.567800	0.757300	0.639700
H581	H58	0.529200	0.749200	0.595500
C1031	C103	0.547100	0.751800	0.714900
C1041	C104	0.604300	0.762900	0.781900
H591	H59	0.590300	0.758800	0.831900
C1051	C105	0.681600	0.779900	0.772700
H601	H60	0.720500	0.787600	0.816800
C1061	C106	0.462900	0.647000	0.764500
C1071	C107	0.478000	0.596400	0.712400
H611	H61	0.473600	0.603800	0.658500
C1081	C108	0.499700	0.535100	0.744800
H621	H62	0.510100	0.500600	0.712400
C1091	C109	0.505900	0.525000	0.826100
C1101	C110	0.486500	0.574100	0.874600
H631	H63	0.488000	0.566000	0.928100
C1111	C111	0.464500	0.636100	0.843700
H641	H64	0.451100	0.669600	0.876100
C1121	C112	0.543900	0.463200	0.863100
C1131	C113	0.045800	0.727200	0.885800
C1141	C114	0.049800	0.653900	0.877600
C1151	C115	0.083400	0.613600	0.940400
H651	H65	0.105800	0.632400	0.988300
C1161	C116	0.083400	0.545700	0.931500
H661	H66	0.104600	0.518700	0.973500
C1171	C117	0.051800	0.518600	0.859800
C1181	C118	0.018400	0.557900	0.796100
H671	H67	0.997300	0.539000	0.747900
C1191	C119	0.017400	0.625300	0.806300
H681	H68	0.994700	0.652000	0.764600
C1201	C120	0.138400	0.417200	0.804600
C1211	C121	0.207900	0.397400	0.850700
H691	H69	0.208900	0.390900	0.904400
C1221	C122	0.275700	0.387100	0.818300
H701	H70	0.323300	0.374200	0.850300
C1231	C123	0.275100	0.395700	0.737600
C1241	C124	0.204600	0.414600	0.690700
H711	H71	0.203100	0.419800	0.636800
C1251	C125	0.136500	0.425800	0.723600
H721	H72	0.088900	0.439200	0.692100
C1261	C126	0.350000	0.383300	0.702300
Mn101	Mn10	0.534790	0.335140	0.748940
Mn111	Mn11	0.640820	0.378780	0.945210
Mn121	Mn12	0.413670	0.356410	0.550640
S101	S10	0.395710	0.015950	0.042910
S111	S11	0.050850	0.228000	0.773720
S121	S12	0.448060	0.931850	0.653310
O551	O55	0.495100	0.257370	0.668600
O561	O56	0.930200	0.919810	0.679000
O571	O57	0.088400	0.867400	0.752900
O581	O58	0.517700	0.268870	0.843100
O591	O59	0.661400	0.309030	0.754400
O601	O60	0.038800	0.106160	0.137600
O611	O61	0.704900	0.315800	0.884700
O621	O62	0.557000	0.306010	0.966800
O631	O63	0.944200	0.959070	0.562500
O641	O64	0.156800	0.889690	0.871900
O651	O65	0.416700	0.254120	0.553100
O661	O66	0.011200	0.100100	0.007800
O671	O67	0.392900	0.967750	0.980800
O681	O68	0.440100	0.002240	0.119900
O691	O69	0.099000	0.225790	0.850700
O701	O70	0.076100	0.267830	0.712900
O711	O71	0.437500	0.901500	0.577000
O721	O72	0.517000	0.915500	0.712200
C1271	C127	0.523900	0.265400	0.916300
C1281	C128	0.490200	0.204100	0.949100
C1291	C129	0.449300	0.158300	0.898300
H731	H73	0.441300	0.166000	0.844300
C1301	C130	0.420300	0.101300	0.927000
H741	H74	0.393500	0.070200	0.892400
C1311	C131	0.431000	0.090200	0.007500
C1321	C132	0.470600	0.135000	0.059900
H751	H75	0.476900	0.127400	0.113900
C1331	C133	0.500900	0.192300	0.030500
H761	H76	0.528500	0.222900	0.065100
C1341	C134	0.295900	0.034300	0.054200
C1351	C135	0.235900	0.026600	0.989000
H771	H77	0.247800	0.009400	0.942000
C1361	C136	0.158800	0.045300	0.996300
H781	H78	0.117300	0.041200	0.953600
C1371	C137	0.142000	0.070400	0.067900
C1381	C138	0.201700	0.074800	0.132400
H791	H79	0.189600	0.089400	0.180500
C1391	C139	0.280000	0.057200	0.125200
H801	H80	0.321500	0.060900	0.167900
C1401	C140	0.059500	0.093400	0.071800
C1411	C141	0.714500	0.305200	0.813500
C1421	C142	0.797600	0.285700	0.802200
C1431	C143	0.855800	0.274600	0.868800
H811	H81	0.842000	0.279100	0.918800
C1441	C144	0.932200	0.257300	0.860300
H821	H82	0.970800	0.249200	0.904500
C1451	C145	0.952900	0.251800	0.785100
C1461	C146	0.895700	0.262900	0.718100
H831	H83	0.909700	0.258800	0.668100
C1471	C147	0.818400	0.279900	0.727300
H841	H84	0.779500	0.287600	0.683200
C1481	C148	0.037100	0.147000	0.735500
C1491	C149	0.022000	0.096400	0.787600
H851	H85	0.026400	0.103800	0.841500
C1501	C150	0.000300	0.035100	0.755200
H861	H86	0.989900	0.000600	0.787600
C1511	C151	0.994100	0.025000	0.673900
C1521	C152	0.013500	0.074100	0.625400
H871	H87	0.012000	0.066000	0.571900
C1531	C153	0.035500	0.136100	0.656300
H881	H88	0.048900	0.169600	0.623900
C1541	C154	0.956100	0.963200	0.636900
C1551	C155	0.454200	0.227200	0.614200
C1561	C156	0.450200	0.153900	0.622400
C1571	C157	0.416600	0.113600	0.559600
H891	H89	0.394200	0.132400	0.511700
C1581	C158	0.416600	0.045700	0.568500
H901	H90	0.395400	0.018700	0.526500
C1591	C159	0.448200	0.018600	0.640200
C1601	C160	0.481600	0.057900	0.703900
H911	H91	0.502700	0.039000	0.752100
C1611	C161	0.482600	0.125300	0.693700
H921	H92	0.505300	0.152000	0.735400
C1621	C162	0.361600	0.917200	0.695400
C1631	C163	0.292100	0.897400	0.649300
H931	H93	0.291100	0.890900	0.595600
C1641	C164	0.224300	0.887100	0.681700
H941	H94	0.176700	0.874200	0.649700
C1651	C165	0.224900	0.895700	0.762400
C1661	C166	0.295400	0.914600	0.809300
H951	H95	0.296900	0.919800	0.863200
C1671	C167	0.363500	0.925800	0.776400
H961	H96	0.411100	0.939200	0.807900
C1681	C168	0.150000	0.883300	0.797700
