data_PUKSUL_clean_PM
_symmetry_space_group_name_H-M	'P1'
_cell_length_a	20.342000
_cell_length_b	13.566000
_cell_length_c	9.877000
_cell_angle_alpha	90.000000
_cell_angle_beta	90.000000
_cell_angle_gamma	90.000000
_symmetry_Int_Tables_number 1

loop_
_symmetry_equiv_pos_as_xyz
'x,y,z'

loop_
_atom_site_label
_atom_site_type_symbol
_atom_site_fract_x
_atom_site_fract_y
_atom_site_fract_z
Cu11	Cu1	0.103500	0.090240	0.560600
Cu21	Cu2	0.222240	0.386580	0.825430
S11	S1	0.113270	0.113800	0.794600
N11	N1	0.183000	0.014800	0.479900
C11	C1	0.220500	0.973700	0.418300
N21	N2	0.977100	0.978900	0.486800
C21	C2	0.022900	0.021100	0.513200
Cu31	Cu3	0.396500	0.909760	0.060600
Cu41	Cu4	0.277760	0.613420	0.325430
S21	S2	0.386730	0.886200	0.294600
N31	N3	0.317000	0.985200	0.979900
C31	C3	0.279500	0.026300	0.918300
N41	N4	0.522900	0.021100	0.986800
C41	C4	0.477100	0.978900	0.013200
Cu51	Cu5	0.896500	0.590240	0.439400
Cu61	Cu6	0.777760	0.886580	0.174570
S31	S3	0.886730	0.613800	0.205400
N51	N5	0.817000	0.514800	0.520100
C51	C5	0.779500	0.473700	0.581700
N61	N6	0.022900	0.478900	0.513200
C61	C6	0.977100	0.521100	0.486800
Cu71	Cu7	0.603500	0.409760	0.939400
Cu81	Cu8	0.722240	0.113420	0.674570
S41	S4	0.613270	0.386200	0.705400
N71	N7	0.683000	0.485200	0.020100
C71	C7	0.720500	0.526300	0.081700
N81	N8	0.477100	0.521100	0.013200
C81	C8	0.522900	0.478900	0.986800
Cu91	Cu9	0.896500	0.909760	0.439400
Cu101	Cu10	0.777760	0.613420	0.174570
S51	S5	0.886730	0.886200	0.205400
N91	N9	0.817000	0.985200	0.520100
C91	C9	0.779500	0.026300	0.581700
Cu111	Cu11	0.603500	0.090240	0.939400
Cu121	Cu12	0.722240	0.386580	0.674570
S61	S6	0.613270	0.113800	0.705400
N101	N10	0.683000	0.014800	0.020100
C101	C10	0.720500	0.973700	0.081700
Cu131	Cu13	0.103500	0.409760	0.560600
Cu141	Cu14	0.222240	0.113420	0.825430
S71	S7	0.113270	0.386200	0.794600
N111	N11	0.183000	0.485200	0.479900
C111	C11	0.220500	0.526300	0.418300
Cu151	Cu15	0.396500	0.590240	0.060600
Cu161	Cu16	0.277760	0.886580	0.325430
S81	S8	0.386730	0.613800	0.294600
N121	N12	0.317000	0.514800	0.979900
C121	C12	0.279500	0.473700	0.918300
W11	W1	0.152760	0.250000	0.696100
S91	S9	0.261860	0.250000	0.722800
S101	S10	0.124800	0.250000	0.480900
W21	W2	0.347240	0.750000	0.196100
S111	S11	0.238140	0.750000	0.222800
S121	S12	0.375200	0.750000	0.980900
W31	W3	0.847240	0.750000	0.303900
S131	S13	0.738140	0.750000	0.277200
S141	S14	0.875200	0.750000	0.519100
W41	W4	0.652760	0.250000	0.803900
S151	S15	0.761860	0.250000	0.777200
S161	S16	0.624800	0.250000	0.019100
