data_PULMIU_clean_PM
_symmetry_space_group_name_H-M	'P1'
_cell_length_a	17.614000
_cell_length_b	21.916000
_cell_length_c	18.046000
_cell_angle_alpha	90.000000
_cell_angle_beta	105.640000
_cell_angle_gamma	90.000000
_symmetry_Int_Tables_number 1

loop_
_symmetry_equiv_pos_as_xyz
'x,y,z'

loop_
_atom_site_label
_atom_site_type_symbol
_atom_site_fract_x
_atom_site_fract_y
_atom_site_fract_z
Zn11	Zn1	0.494050	0.179770	0.492150
Zn21	Zn2	0.308020	0.237570	0.489340
Zn31	Zn3	0.675480	0.257150	0.989310
S11	S1	0.069940	0.988760	0.355360
S21	S2	0.636650	0.123330	0.877130
S31	S3	0.340360	0.364990	0.606050
O11	O1	0.349800	0.199900	0.595400
O21	O2	0.667700	0.162080	0.945600
O31	O3	0.318500	0.332080	0.533200
C11	C1	0.296200	0.050500	0.422300
O41	O4	0.404400	0.243230	0.951500
O51	O5	0.409500	0.111980	0.459400
O61	O6	0.687900	0.288670	0.618200
O71	O7	0.296200	0.217320	0.863000
O81	O8	0.511600	0.319450	0.888000
O91	O9	0.580400	0.260200	0.529100
O101	O10	0.418200	0.884340	0.467700
O111	O11	0.632600	0.292960	0.884100
O121	O12	0.476500	0.184630	0.596600
O131	O13	0.293000	0.350200	0.658000
O141	O14	0.623200	0.060550	0.898900
O151	O15	0.304000	0.835100	0.446300
O161	O16	0.290900	0.158990	0.427300
O171	O17	0.343200	0.430570	0.593300
O181	O18	0.684400	0.126900	0.824300
C21	C2	0.393000	0.197200	0.757700
H11	H1	0.342000	0.210200	0.734100
C31	C3	0.300200	0.940900	0.426900
C41	C4	0.539800	0.320000	0.768400
C51	C5	0.592500	0.304600	0.723900
H21	H2	0.644500	0.294100	0.747800
C61	C6	0.565200	0.305600	0.643900
C71	C7	0.369900	0.220100	0.885700
C81	C8	0.218600	0.938500	0.402400
H31	H3	0.193100	0.901000	0.394900
C91	C9	0.517900	0.155900	0.749500
H41	H4	0.551400	0.143100	0.720600
C101	C10	0.419900	0.196100	0.836900
C111	C11	0.439100	0.342500	0.652800
C121	C12	0.488400	0.325800	0.607100
H51	H5	0.470900	0.328000	0.553700
C131	C13	0.337400	0.995900	0.435900
H61	H6	0.392200	0.996900	0.451700
N11	N1	0.791300	0.252300	0.990800
C141	C14	0.212800	0.049100	0.397300
H71	H7	0.183400	0.084900	0.386400
C151	C15	0.616800	0.283800	0.595300
C161	C16	0.541700	0.152800	0.830300
N21	N2	0.190800	0.258400	0.984300
C171	C17	0.442300	0.178900	0.713300
C181	C18	0.888900	0.243900	0.921900
H81	H8	0.900700	0.236700	0.875400
C191	C19	0.492700	0.173700	0.873400
H91	H9	0.509400	0.172500	0.926900
C201	C20	0.928500	0.273900	0.053200
H101	H10	0.966700	0.287200	0.096500
C211	C21	0.336400	0.111300	0.436300
C221	C22	0.420400	0.188000	0.627500
C231	C23	0.463200	0.339200	0.732700
H111	H11	0.428900	0.349700	0.761800
C241	C24	0.034300	0.259300	0.986100
C251	C25	0.564400	0.310700	0.852900
C261	C26	0.176000	0.991100	0.389400
C271	C27	0.345200	0.882500	0.449400
C281	C28	0.813300	0.239700	0.927000
H121	H12	0.774700	0.227300	0.883500
C291	C29	0.948500	0.259200	0.987800
C301	C30	0.170500	0.247600	0.049500
H131	H13	0.209900	0.240200	0.094500
C311	C31	0.055000	0.271700	0.918800
H141	H14	0.016200	0.280500	0.873700
C321	C32	0.849200	0.268600	0.054500
H151	H15	0.836000	0.276400	0.100200
C331	C33	0.090300	0.247200	0.051600
H161	H16	0.077000	0.238800	0.097000
C341	C34	0.134000	0.271000	0.919000
H171	H17	0.147900	0.279200	0.873800
O191	O19	0.042100	0.046500	0.379600
O201	O20	0.050500	0.975500	0.278700
O211	O21	0.044500	0.939200	0.400500
H181	H18	0.056800	0.948400	0.446200
Zn41	Zn4	0.505950	0.679770	0.007850
Zn51	Zn5	0.691980	0.737570	0.010660
Zn61	Zn6	0.324520	0.757150	0.510690
S41	S4	0.930060	0.488760	0.144640
S51	S5	0.363350	0.623330	0.622870
S61	S6	0.659640	0.864990	0.893950
O221	O22	0.650200	0.699900	0.904600
O231	O23	0.332300	0.662080	0.554400
O241	O24	0.681500	0.832080	0.966800
C351	C35	0.703800	0.550500	0.077700
O251	O25	0.595600	0.743230	0.548500
O261	O26	0.590500	0.611980	0.040600
O271	O27	0.312100	0.788670	0.881800
O281	O28	0.703800	0.717320	0.637000
O291	O29	0.488400	0.819450	0.612000
O301	O30	0.419600	0.760200	0.970900
O311	O31	0.581800	0.384340	0.032300
O321	O32	0.367400	0.792960	0.615900
O331	O33	0.523500	0.684630	0.903400
O341	O34	0.707000	0.850200	0.842000
O351	O35	0.376800	0.560550	0.601100
O361	O36	0.696000	0.335100	0.053700
O371	O37	0.709100	0.658990	0.072700
O381	O38	0.656800	0.930570	0.906700
O391	O39	0.315600	0.626900	0.675700
C361	C36	0.607000	0.697200	0.742300
H191	H19	0.658000	0.710200	0.765900
C371	C37	0.699800	0.440900	0.073100
C381	C38	0.460200	0.820000	0.731600
C391	C39	0.407500	0.804600	0.776100
H201	H20	0.355500	0.794100	0.752200
C401	C40	0.434800	0.805600	0.856100
C411	C41	0.630100	0.720100	0.614300
C421	C42	0.781400	0.438500	0.097600
H211	H21	0.806900	0.401000	0.105100
C431	C43	0.482100	0.655900	0.750500
H221	H22	0.448600	0.643100	0.779400
C441	C44	0.580100	0.696100	0.663100
C451	C45	0.560900	0.842500	0.847200
C461	C46	0.511600	0.825800	0.892900
H231	H23	0.529100	0.828000	0.946300
C471	C47	0.662600	0.495900	0.064100
H241	H24	0.607800	0.496900	0.048300
N31	N3	0.208700	0.752300	0.509200
C481	C48	0.787200	0.549100	0.102700
H251	H25	0.816600	0.584900	0.113600
C491	C49	0.383200	0.783800	0.904700
C501	C50	0.458300	0.652800	0.669700
N41	N4	0.809200	0.758400	0.515700
C511	C51	0.557700	0.678900	0.786700
C521	C52	0.111100	0.743900	0.578100
H261	H26	0.099300	0.736700	0.624600
C531	C53	0.507300	0.673700	0.626600
H271	H27	0.490600	0.672500	0.573100
C541	C54	0.071500	0.773900	0.446800
H281	H28	0.033300	0.787200	0.403500
C551	C55	0.663600	0.611300	0.063700
C561	C56	0.579600	0.688000	0.872500
C571	C57	0.536800	0.839200	0.767300
H291	H29	0.571100	0.849700	0.738200
C581	C58	0.965700	0.759300	0.513900
C591	C59	0.435600	0.810700	0.647100
C601	C60	0.824000	0.491100	0.110600
C611	C61	0.654800	0.382500	0.050600
C621	C62	0.186700	0.739700	0.573000
H301	H30	0.225300	0.727300	0.616500
C631	C63	0.051500	0.759200	0.512200
C641	C64	0.829500	0.747600	0.450500
H311	H31	0.790100	0.740200	0.405500
C651	C65	0.945000	0.771700	0.581200
H321	H32	0.983800	0.780500	0.626300
C661	C66	0.150800	0.768600	0.445500
H331	H33	0.164000	0.776400	0.399800
C671	C67	0.909700	0.747200	0.448400
H341	H34	0.923000	0.738800	0.403000
C681	C68	0.866000	0.771000	0.581000
H351	H35	0.852100	0.779200	0.626200
O401	O40	0.957900	0.546500	0.120400
O411	O41	0.949500	0.475500	0.221300
O421	O42	0.955500	0.439200	0.099500
H361	H36	0.943200	0.448400	0.053800
Zn71	Zn7	0.505950	0.820230	0.507850
Zn81	Zn8	0.691980	0.762430	0.510660
Zn91	Zn9	0.324520	0.742850	0.010690
S71	S7	0.930060	0.011240	0.644640
S81	S8	0.363350	0.876670	0.122870
S91	S9	0.659640	0.635010	0.393950
O431	O43	0.650200	0.800100	0.404600
O441	O44	0.332300	0.837920	0.054400
O451	O45	0.681500	0.667920	0.466800
C691	C69	0.703800	0.949500	0.577700
O461	O46	0.595600	0.756770	0.048500
O471	O47	0.590500	0.888020	0.540600
O481	O48	0.312100	0.711330	0.381800
O491	O49	0.703800	0.782680	0.137000
O501	O50	0.488400	0.680550	0.112000
O511	O51	0.419600	0.739800	0.470900
O521	O52	0.581800	0.115660	0.532300
O531	O53	0.367400	0.707040	0.115900
O541	O54	0.523500	0.815370	0.403400
O551	O55	0.707000	0.649800	0.342000
O561	O56	0.376800	0.939450	0.101100
O571	O57	0.696000	0.164900	0.553700
O581	O58	0.709100	0.841010	0.572700
O591	O59	0.656800	0.569430	0.406700
O601	O60	0.315600	0.873100	0.175700
C701	C70	0.607000	0.802800	0.242300
H371	H37	0.658000	0.789800	0.265900
C711	C71	0.699800	0.059100	0.573100
C721	C72	0.460200	0.680000	0.231600
C731	C73	0.407500	0.695400	0.276100
H381	H38	0.355500	0.705900	0.252200
C741	C74	0.434800	0.694400	0.356100
C751	C75	0.630100	0.779900	0.114300
C761	C76	0.781400	0.061500	0.597600
H391	H39	0.806900	0.099000	0.605100
C771	C77	0.482100	0.844100	0.250500
H401	H40	0.448600	0.856900	0.279400
C781	C78	0.580100	0.803900	0.163100
C791	C79	0.560900	0.657500	0.347200
C801	C80	0.511600	0.674200	0.392900
H411	H41	0.529100	0.672000	0.446300
C811	C81	0.662600	0.004100	0.564100
H421	H42	0.607800	0.003100	0.548300
N51	N5	0.208700	0.747700	0.009200
C821	C82	0.787200	0.950900	0.602700
H431	H43	0.816600	0.915100	0.613600
C831	C83	0.383200	0.716200	0.404700
C841	C84	0.458300	0.847200	0.169700
N61	N6	0.809200	0.741600	0.015700
C851	C85	0.557700	0.821100	0.286700
C861	C86	0.111100	0.756100	0.078100
H441	H44	0.099300	0.763300	0.124600
C871	C87	0.507300	0.826300	0.126600
H451	H45	0.490600	0.827500	0.073100
C881	C88	0.071500	0.726100	0.946800
H461	H46	0.033300	0.712800	0.903500
C891	C89	0.663600	0.888700	0.563700
C901	C90	0.579600	0.812000	0.372500
C911	C91	0.536800	0.660800	0.267300
H471	H47	0.571100	0.650300	0.238200
C921	C92	0.965700	0.740700	0.013900
C931	C93	0.435600	0.689300	0.147100
C941	C94	0.824000	0.008900	0.610600
C951	C95	0.654800	0.117500	0.550600
C961	C96	0.186700	0.760300	0.073000
H481	H48	0.225300	0.772700	0.116500
C971	C97	0.051500	0.740800	0.012200
C981	C98	0.829500	0.752400	0.950500
H491	H49	0.790100	0.759800	0.905500
C991	C99	0.945000	0.728300	0.081200
H501	H50	0.983800	0.719500	0.126300
C1001	C100	0.150800	0.731400	0.945500
H511	H51	0.164000	0.723600	0.899800
C1011	C101	0.909700	0.752800	0.948400
H521	H52	0.923000	0.761200	0.903000
C1021	C102	0.866000	0.729000	0.081000
H531	H53	0.852100	0.720800	0.126200
O611	O61	0.957900	0.953500	0.620400
O621	O62	0.949500	0.024500	0.721300
O631	O63	0.955500	0.060800	0.599500
H541	H54	0.943200	0.051600	0.553800
Zn101	Zn10	0.494050	0.320230	0.992150
Zn111	Zn11	0.308020	0.262430	0.989340
Zn121	Zn12	0.675480	0.242850	0.489310
S101	S10	0.069940	0.511240	0.855360
S111	S11	0.636650	0.376670	0.377130
S121	S12	0.340360	0.135010	0.106050
O641	O64	0.349800	0.300100	0.095400
O651	O65	0.667700	0.337920	0.445600
O661	O66	0.318500	0.167920	0.033200
C1031	C103	0.296200	0.449500	0.922300
O671	O67	0.404400	0.256770	0.451500
O681	O68	0.409500	0.388020	0.959400
O691	O69	0.687900	0.211330	0.118200
O701	O70	0.296200	0.282680	0.363000
O711	O71	0.511600	0.180550	0.388000
O721	O72	0.580400	0.239800	0.029100
O731	O73	0.418200	0.615660	0.967700
O741	O74	0.632600	0.207040	0.384100
O751	O75	0.476500	0.315370	0.096600
O761	O76	0.293000	0.149800	0.158000
O771	O77	0.623200	0.439450	0.398900
O781	O78	0.304000	0.664900	0.946300
O791	O79	0.290900	0.341010	0.927300
O801	O80	0.343200	0.069430	0.093300
O811	O81	0.684400	0.373100	0.324300
C1041	C104	0.393000	0.302800	0.257700
H551	H55	0.342000	0.289800	0.234100
C1051	C105	0.300200	0.559100	0.926900
C1061	C106	0.539800	0.180000	0.268400
C1071	C107	0.592500	0.195400	0.223900
H561	H56	0.644500	0.205900	0.247800
C1081	C108	0.565200	0.194400	0.143900
C1091	C109	0.369900	0.279900	0.385700
C1101	C110	0.218600	0.561500	0.902400
H571	H57	0.193100	0.599000	0.894900
C1111	C111	0.517900	0.344100	0.249500
H581	H58	0.551400	0.356900	0.220600
C1121	C112	0.419900	0.303900	0.336900
C1131	C113	0.439100	0.157500	0.152800
C1141	C114	0.488400	0.174200	0.107100
H591	H59	0.470900	0.172000	0.053700
C1151	C115	0.337400	0.504100	0.935900
H601	H60	0.392200	0.503100	0.951700
N71	N7	0.791300	0.247700	0.490800
C1161	C116	0.212800	0.450900	0.897300
H611	H61	0.183400	0.415100	0.886400
C1171	C117	0.616800	0.216200	0.095300
C1181	C118	0.541700	0.347200	0.330300
N81	N8	0.190800	0.241600	0.484300
C1191	C119	0.442300	0.321100	0.213300
C1201	C120	0.888900	0.256100	0.421900
H621	H62	0.900700	0.263300	0.375400
C1211	C121	0.492700	0.326300	0.373400
H631	H63	0.509400	0.327500	0.426900
C1221	C122	0.928500	0.226100	0.553200
H641	H64	0.966700	0.212800	0.596500
C1231	C123	0.336400	0.388700	0.936300
C1241	C124	0.420400	0.312000	0.127500
C1251	C125	0.463200	0.160800	0.232700
H651	H65	0.428900	0.150300	0.261800
C1261	C126	0.034300	0.240700	0.486100
C1271	C127	0.564400	0.189300	0.352900
C1281	C128	0.176000	0.508900	0.889400
C1291	C129	0.345200	0.617500	0.949400
C1301	C130	0.813300	0.260300	0.427000
H661	H66	0.774700	0.272700	0.383500
C1311	C131	0.948500	0.240800	0.487800
C1321	C132	0.170500	0.252400	0.549500
H671	H67	0.209900	0.259800	0.594500
C1331	C133	0.055000	0.228300	0.418800
H681	H68	0.016200	0.219500	0.373700
C1341	C134	0.849200	0.231400	0.554500
H691	H69	0.836000	0.223600	0.600200
C1351	C135	0.090300	0.252800	0.551600
H701	H70	0.077000	0.261200	0.597000
C1361	C136	0.134000	0.229000	0.419000
H711	H71	0.147900	0.220800	0.373800
O821	O82	0.042100	0.453500	0.879600
O831	O83	0.050500	0.524500	0.778700
O841	O84	0.044500	0.560800	0.900500
H721	H72	0.056800	0.551600	0.946200
