data_PUMDIM_clean_PM
_symmetry_space_group_name_H-M	'P1'
_cell_length_a	16.271200
_cell_length_b	16.271200
_cell_length_c	17.277200
_cell_angle_alpha	90.000000
_cell_angle_beta	90.000000
_cell_angle_gamma	120.000000
_symmetry_Int_Tables_number 1

loop_
_symmetry_equiv_pos_as_xyz
'x,y,z'

loop_
_atom_site_label
_atom_site_type_symbol
_atom_site_fract_x
_atom_site_fract_y
_atom_site_fract_z
Co11	Co1	0.944080	0.598010	0.793440
Co21	Co2	0.965060	0.724310	0.950640
O11	O1	0.828900	0.612300	0.776800
O21	O2	0.876300	0.726900	0.863700
O31	O3	0.720400	0.918700	0.883100
O41	O4	0.672300	0.946300	0.770300
O51	O5	0.745000	0.802400	0.548400
O61	O6	0.639300	0.847500	0.514500
O71	O7	0.401900	0.539200	0.360500
O81	O8	0.369000	0.405400	0.413200
O91	O9	0.463600	0.401600	0.691000
O101	O10	0.460100	0.515300	0.755700
C11	C1	0.753500	0.705200	0.778300
C21	C2	0.753300	0.782300	0.811400
H11	H1	0.791700	0.812900	0.853800
C31	C3	0.693900	0.814100	0.779600
C41	C4	0.637200	0.768700	0.716700
H21	H2	0.600200	0.791400	0.694800
C51	C5	0.635400	0.688000	0.685800
C61	C6	0.693500	0.657900	0.717000
H31	H3	0.692500	0.604600	0.696400
C71	C7	0.824200	0.679200	0.809300
C81	C8	0.696500	0.900500	0.813800
C91	C9	0.571600	0.638700	0.617800
C101	C10	0.581900	0.687900	0.549900
C111	C11	0.523700	0.642300	0.484800
H41	H4	0.529800	0.676800	0.440200
C121	C12	0.457800	0.546000	0.487700
C131	C13	0.447800	0.495900	0.556500
H51	H5	0.405300	0.431000	0.558400
C141	C14	0.500800	0.542200	0.621900
C151	C15	0.660700	0.786500	0.537900
C161	C16	0.405400	0.495000	0.417600
C171	C17	0.475400	0.485500	0.695600
Co31	Co3	0.401990	0.346070	0.793440
Co41	Co4	0.275690	0.240750	0.950640
O111	O11	0.387700	0.216600	0.776800
O121	O12	0.273100	0.149400	0.863700
O131	O13	0.081300	0.801700	0.883100
O141	O14	0.053700	0.726000	0.770300
O151	O15	0.197600	0.942600	0.548400
O161	O16	0.152500	0.791800	0.514500
O171	O17	0.460800	0.862700	0.360500
O181	O18	0.594600	0.963600	0.413200
O191	O19	0.598400	0.062000	0.691000
O201	O20	0.484700	0.944800	0.755700
C181	C18	0.294800	0.048300	0.778300
C191	C19	0.217700	0.971000	0.811400
H61	H6	0.187100	0.978800	0.853800
C201	C20	0.185900	0.879800	0.779600
C211	C21	0.231300	0.868500	0.716700
H71	H7	0.208600	0.808800	0.694800
C221	C22	0.312000	0.947400	0.685800
C231	C23	0.342100	0.035600	0.717000
H81	H8	0.395400	0.087900	0.696400
C241	C24	0.320800	0.145000	0.809300
C251	C25	0.099500	0.796000	0.813800
C261	C26	0.361300	0.932900	0.617800
C271	C27	0.312100	0.894000	0.549900
C281	C28	0.357700	0.881400	0.484800
H91	H9	0.323200	0.853000	0.440200
C291	C29	0.454000	0.911800	0.487700
C301	C30	0.504100	0.951900	0.556500
H101	H10	0.569000	0.974300	0.558400
C311	C31	0.457800	0.958600	0.621900
C321	C32	0.213500	0.874200	0.537900
C331	C33	0.505000	0.910400	0.417600
C341	C34	0.514500	0.989900	0.695600
Co51	Co5	0.653930	0.055920	0.793440
Co61	Co6	0.759250	0.034940	0.950640
O211	O21	0.783400	0.171100	0.776800
O221	O22	0.850600	0.123700	0.863700
O231	O23	0.198300	0.279600	0.883100
O241	O24	0.274000	0.327700	0.770300
O251	O25	0.057400	0.255000	0.548400
O261	O26	0.208200	0.360700	0.514500
O271	O27	0.137300	0.598100	0.360500
O281	O28	0.036400	0.631000	0.413200
O291	O29	0.938000	0.536400	0.691000
O301	O30	0.055200	0.539900	0.755700
C351	C35	0.951700	0.246500	0.778300
C361	C36	0.029000	0.246700	0.811400
H111	H11	0.021200	0.208300	0.853800
C371	C37	0.120200	0.306100	0.779600
C381	C38	0.131500	0.362800	0.716700
H121	H12	0.191200	0.399800	0.694800
C391	C39	0.052600	0.364600	0.685800
C401	C40	0.964400	0.306500	0.717000
H131	H13	0.912100	0.307500	0.696400
C411	C41	0.855000	0.175800	0.809300
C421	C42	0.204000	0.303500	0.813800
C431	C43	0.067100	0.428400	0.617800
C441	C44	0.106000	0.418100	0.549900
C451	C45	0.118600	0.476300	0.484800
H141	H14	0.147000	0.470200	0.440200
C461	C46	0.088200	0.542200	0.487700
C471	C47	0.048100	0.552200	0.556500
H151	H15	0.025700	0.594700	0.558400
C481	C48	0.041400	0.499200	0.621900
C491	C49	0.125800	0.339300	0.537900
C501	C50	0.089600	0.594600	0.417600
C511	C51	0.010100	0.524600	0.695600
Co71	Co7	0.598010	0.944080	0.293440
Co81	Co8	0.724310	0.965060	0.450640
O311	O31	0.612300	0.828900	0.276800
O321	O32	0.726900	0.876300	0.363700
O331	O33	0.918700	0.720400	0.383100
O341	O34	0.946300	0.672300	0.270300
O351	O35	0.802400	0.745000	0.048400
O361	O36	0.847500	0.639300	0.014500
O371	O37	0.539200	0.401900	0.860500
O381	O38	0.405400	0.369000	0.913200
O391	O39	0.401600	0.463600	0.191000
O401	O40	0.515300	0.460100	0.255700
C521	C52	0.705200	0.753500	0.278300
C531	C53	0.782300	0.753300	0.311400
H161	H16	0.812900	0.791700	0.353800
C541	C54	0.814100	0.693900	0.279600
C551	C55	0.768700	0.637200	0.216700
H171	H17	0.791400	0.600200	0.194800
C561	C56	0.688000	0.635400	0.185800
C571	C57	0.657900	0.693500	0.217000
H181	H18	0.604600	0.692500	0.196400
C581	C58	0.679200	0.824200	0.309300
C591	C59	0.900500	0.696500	0.313800
C601	C60	0.638700	0.571600	0.117800
C611	C61	0.687900	0.581900	0.049900
C621	C62	0.642300	0.523700	0.984800
H191	H19	0.676800	0.529800	0.940200
C631	C63	0.546000	0.457800	0.987700
C641	C64	0.495900	0.447800	0.056500
H201	H20	0.431000	0.405300	0.058400
C651	C65	0.542200	0.500800	0.121900
C661	C66	0.786500	0.660700	0.037900
C671	C67	0.495000	0.405400	0.917600
C681	C68	0.485500	0.475400	0.195600
Co91	Co9	0.346070	0.401990	0.293440
Co101	Co10	0.240750	0.275690	0.450640
O411	O41	0.216600	0.387700	0.276800
O421	O42	0.149400	0.273100	0.363700
O431	O43	0.801700	0.081300	0.383100
O441	O44	0.726000	0.053700	0.270300
O451	O45	0.942600	0.197600	0.048400
O461	O46	0.791800	0.152500	0.014500
O471	O47	0.862700	0.460800	0.860500
O481	O48	0.963600	0.594600	0.913200
O491	O49	0.062000	0.598400	0.191000
O501	O50	0.944800	0.484700	0.255700
C691	C69	0.048300	0.294800	0.278300
C701	C70	0.971000	0.217700	0.311400
H211	H21	0.978800	0.187100	0.353800
C711	C71	0.879800	0.185900	0.279600
C721	C72	0.868500	0.231300	0.216700
H221	H22	0.808800	0.208600	0.194800
C731	C73	0.947400	0.312000	0.185800
C741	C74	0.035600	0.342100	0.217000
H231	H23	0.087900	0.395400	0.196400
C751	C75	0.145000	0.320800	0.309300
C761	C76	0.796000	0.099500	0.313800
C771	C77	0.932900	0.361300	0.117800
C781	C78	0.894000	0.312100	0.049900
C791	C79	0.881400	0.357700	0.984800
H241	H24	0.853000	0.323200	0.940200
C801	C80	0.911800	0.454000	0.987700
C811	C81	0.951900	0.504100	0.056500
H251	H25	0.974300	0.569000	0.058400
C821	C82	0.958600	0.457800	0.121900
C831	C83	0.874200	0.213500	0.037900
C841	C84	0.910400	0.505000	0.917600
C851	C85	0.989900	0.514500	0.195600
Co111	Co11	0.055920	0.653930	0.293440
Co121	Co12	0.034940	0.759250	0.450640
O511	O51	0.171100	0.783400	0.276800
O521	O52	0.123700	0.850600	0.363700
O531	O53	0.279600	0.198300	0.383100
O541	O54	0.327700	0.274000	0.270300
O551	O55	0.255000	0.057400	0.048400
O561	O56	0.360700	0.208200	0.014500
O571	O57	0.598100	0.137300	0.860500
O581	O58	0.631000	0.036400	0.913200
O591	O59	0.536400	0.938000	0.191000
O601	O60	0.539900	0.055200	0.255700
C861	C86	0.246500	0.951700	0.278300
C871	C87	0.246700	0.029000	0.311400
H261	H26	0.208300	0.021200	0.353800
C881	C88	0.306100	0.120200	0.279600
C891	C89	0.362800	0.131500	0.216700
H271	H27	0.399800	0.191200	0.194800
C901	C90	0.364600	0.052600	0.185800
C911	C91	0.306500	0.964400	0.217000
H281	H28	0.307500	0.912100	0.196400
C921	C92	0.175800	0.855000	0.309300
C931	C93	0.303500	0.204000	0.313800
C941	C94	0.428400	0.067100	0.117800
C951	C95	0.418100	0.106000	0.049900
C961	C96	0.476300	0.118600	0.984800
H291	H29	0.470200	0.147000	0.940200
C971	C97	0.542200	0.088200	0.987700
C981	C98	0.552200	0.048100	0.056500
H301	H30	0.594700	0.025700	0.058400
C991	C99	0.499200	0.041400	0.121900
C1001	C100	0.339300	0.125800	0.037900
C1011	C101	0.594600	0.089600	0.917600
C1021	C102	0.524600	0.010100	0.195600
