data_PUMNOB_clean_PM
_symmetry_space_group_name_H-M	'P1'
_cell_length_a	9.245800
_cell_length_b	14.111000
_cell_length_c	16.493700
_cell_angle_alpha	90.000000
_cell_angle_beta	92.912000
_cell_angle_gamma	90.000000
_symmetry_Int_Tables_number 1

loop_
_symmetry_equiv_pos_as_xyz
'x,y,z'

loop_
_atom_site_label
_atom_site_type_symbol
_atom_site_fract_x
_atom_site_fract_y
_atom_site_fract_z
Mn11	Mn1	0.020630	0.651750	0.253950
Mn21	Mn2	0.479370	0.151750	0.246050
Mn31	Mn3	0.979370	0.348250	0.746050
Mn41	Mn4	0.520630	0.848250	0.753950
Hg11	Hg1	0.516220	0.795390	0.081310
Hg21	Hg2	0.983780	0.295390	0.418690
Hg31	Hg3	0.483780	0.204610	0.918690
Hg41	Hg4	0.016220	0.704610	0.581310
C11	C1	0.856300	0.785900	0.110100
C21	C2	0.946500	0.790900	0.411000
C31	C3	0.132200	0.495600	0.395500
C41	C4	0.352400	0.742800	0.240000
C51	C5	0.643700	0.285900	0.389900
C61	C6	0.553500	0.290900	0.089000
C71	C7	0.367800	0.995600	0.104500
C81	C8	0.147600	0.242800	0.260000
C91	C9	0.143700	0.214100	0.889900
C101	C10	0.053500	0.209100	0.589000
C111	C11	0.867800	0.504400	0.604500
C121	C12	0.647600	0.257200	0.760000
C131	C13	0.356300	0.714100	0.610100
C141	C14	0.446500	0.709100	0.911000
C151	C15	0.632200	0.004400	0.895500
C161	C16	0.852400	0.757200	0.740000
S11	S1	0.763570	0.844730	0.038420
S21	S2	0.938340	0.851060	0.496590
S31	S3	0.181610	0.411710	0.460900
S41	S4	0.524270	0.773220	0.232270
S51	S5	0.736430	0.344730	0.461580
S61	S6	0.561660	0.351060	0.003410
S71	S7	0.318390	0.911710	0.039100
S81	S8	0.975730	0.273220	0.267730
S91	S9	0.236430	0.155270	0.961580
S101	S10	0.061660	0.148940	0.503410
S111	S11	0.818390	0.588290	0.539100
S121	S12	0.475730	0.226780	0.767730
S131	S13	0.263570	0.655270	0.538420
S141	S14	0.438340	0.648940	0.996590
S151	S15	0.681610	0.088290	0.960900
S161	S16	0.024270	0.726780	0.732270
N11	N1	0.923000	0.745100	0.159000
N21	N2	0.953200	0.749900	0.351600
N31	N3	0.100800	0.554100	0.351100
N41	N4	0.236200	0.720200	0.247800
N51	N5	0.577000	0.245100	0.341000
N61	N6	0.546800	0.249900	0.148400
N71	N7	0.399200	0.054100	0.148900
N81	N8	0.263800	0.220200	0.252200
N91	N9	0.077000	0.254900	0.841000
N101	N10	0.046800	0.250100	0.648400
N111	N11	0.899200	0.445900	0.648900
N121	N12	0.763800	0.279800	0.752200
N131	N13	0.423000	0.754900	0.659000
N141	N14	0.453200	0.750100	0.851600
N151	N15	0.600800	0.945900	0.851100
N161	N16	0.736200	0.779800	0.747800
