data_PUMZAZ_clean_PM
_symmetry_space_group_name_H-M	'P1'
_cell_length_a	10.587000
_cell_length_b	26.048800
_cell_length_c	11.763100
_cell_angle_alpha	90.000000
_cell_angle_beta	98.326000
_cell_angle_gamma	90.000000
_symmetry_Int_Tables_number 1

loop_
_symmetry_equiv_pos_as_xyz
'x,y,z'

loop_
_atom_site_label
_atom_site_type_symbol
_atom_site_fract_x
_atom_site_fract_y
_atom_site_fract_z
Gd11	Gd1	0.852790	0.911320	0.862640
Gd21	Gd2	0.360220	0.786710	0.945400
Gd31	Gd3	0.774830	0.034330	0.460970
P11	P1	0.910610	0.912790	0.560030
N11	N1	0.868200	0.836930	0.384000
H11	H1	0.819200	0.861200	0.343200
O11	O1	0.860300	0.914440	0.673100
O21	O2	0.842600	0.949450	0.471100
O31	O3	0.053600	0.918230	0.571000
O41	O4	0.532800	0.844470	0.019400
O51	O5	0.713800	0.883750	0.995500
O61	O6	0.524900	0.799830	0.814500
O71	O7	0.693000	0.847120	0.782700
O81	O8	0.133000	0.786340	0.942000
O91	O9	0.953200	0.832040	0.908100
O101	O10	0.270600	0.872560	0.932200
O111	O11	0.089700	0.915410	0.872700
O121	O12	0.335800	0.715000	0.820000
O131	O13	0.352700	0.690410	0.641900
O141	O14	0.263900	0.808430	0.741600
O151	O15	0.293000	0.785010	0.563900
O161	O16	0.938300	0.943680	0.050400
O171	O17	0.078300	0.999900	0.140600
O181	O18	0.635700	0.009790	0.600800
O191	O19	0.434400	0.995060	0.626500
C11	C1	0.869200	0.847310	0.509900
H21	H2	0.929100	0.823800	0.552900
H31	H3	0.785200	0.839300	0.528800
C21	C2	0.810700	0.785120	0.352700
H41	H4	0.724900	0.783700	0.372500
H51	H5	0.861200	0.758700	0.395900
C31	C3	0.806300	0.775500	0.224600
H61	H6	0.771700	0.741500	0.206200
H71	H7	0.749500	0.800300	0.182100
C41	C4	0.935700	0.779400	0.187100
H81	H8	0.927600	0.775800	0.104200
H91	H9	0.990000	0.752000	0.221800
C51	C5	0.995500	0.831200	0.223100
H101	H10	0.081500	0.832500	0.203900
H111	H11	0.946200	0.858400	0.181500
C61	C6	0.999600	0.839400	0.351400
H121	H12	0.052900	0.813300	0.393100
H131	H13	0.037000	0.872700	0.372600
C71	C7	0.619400	0.855210	0.963000
C81	C8	0.612200	0.831880	0.842200
C91	C9	0.072100	0.827100	0.920300
C101	C10	0.151200	0.876130	0.907100
C111	C11	0.329800	0.722530	0.714700
C121	C12	0.291300	0.777140	0.668000
C131	C13	0.004600	0.983360	0.055700
C141	C14	0.519700	0.001350	0.565600
Gd41	Gd4	0.147210	0.411320	0.637360
Gd51	Gd5	0.639780	0.286710	0.554600
Gd61	Gd6	0.225170	0.534330	0.039030
P21	P2	0.089390	0.412790	0.939970
N21	N2	0.131800	0.336930	0.116000
H141	H14	0.180800	0.361200	0.156800
O201	O20	0.139700	0.414440	0.826900
O211	O21	0.157400	0.449450	0.028900
O221	O22	0.946400	0.418230	0.929000
O231	O23	0.467200	0.344470	0.480600
O241	O24	0.286200	0.383750	0.504500
O251	O25	0.475100	0.299830	0.685500
O261	O26	0.307000	0.347120	0.717300
O271	O27	0.867000	0.286340	0.558000
O281	O28	0.046800	0.332040	0.591900
O291	O29	0.729400	0.372560	0.567800
O301	O30	0.910300	0.415410	0.627300
O311	O31	0.664200	0.215000	0.680000
O321	O32	0.647300	0.190410	0.858100
O331	O33	0.736100	0.308430	0.758400
O341	O34	0.707000	0.285010	0.936100
O351	O35	0.061700	0.443680	0.449600
O361	O36	0.921700	0.499900	0.359400
O371	O37	0.364300	0.509790	0.899200
O381	O38	0.565600	0.495060	0.873500
C151	C15	0.130800	0.347310	0.990100
H151	H15	0.070900	0.323800	0.947100
H161	H16	0.214800	0.339300	0.971200
C161	C16	0.189300	0.285120	0.147300
H171	H17	0.275100	0.283700	0.127500
H181	H18	0.138800	0.258700	0.104100
C171	C17	0.193700	0.275500	0.275400
H191	H19	0.228300	0.241500	0.293800
H201	H20	0.250500	0.300300	0.317900
C181	C18	0.064300	0.279400	0.312900
H211	H21	0.072400	0.275800	0.395800
H221	H22	0.010000	0.252000	0.278200
C191	C19	0.004500	0.331200	0.276900
H231	H23	0.918500	0.332500	0.296100
H241	H24	0.053800	0.358400	0.318500
C201	C20	0.000400	0.339400	0.148600
H251	H25	0.947100	0.313300	0.106900
H261	H26	0.963000	0.372700	0.127400
C211	C21	0.380600	0.355210	0.537000
C221	C22	0.387800	0.331880	0.657800
C231	C23	0.927900	0.327100	0.579700
C241	C24	0.848800	0.376130	0.592900
C251	C25	0.670200	0.222530	0.785300
C261	C26	0.708700	0.277140	0.832000
C271	C27	0.995400	0.483360	0.444300
C281	C28	0.480300	0.501350	0.934400
Gd71	Gd7	0.147210	0.088680	0.137360
Gd81	Gd8	0.639780	0.213290	0.054600
Gd91	Gd9	0.225170	0.965670	0.539030
P31	P3	0.089390	0.087210	0.439970
N31	N3	0.131800	0.163070	0.616000
H271	H27	0.180800	0.138800	0.656800
O391	O39	0.139700	0.085560	0.326900
O401	O40	0.157400	0.050550	0.528900
O411	O41	0.946400	0.081770	0.429000
O421	O42	0.467200	0.155530	0.980600
O431	O43	0.286200	0.116250	0.004500
O441	O44	0.475100	0.200170	0.185500
O451	O45	0.307000	0.152880	0.217300
O461	O46	0.867000	0.213660	0.058000
O471	O47	0.046800	0.167960	0.091900
O481	O48	0.729400	0.127440	0.067800
O491	O49	0.910300	0.084590	0.127300
O501	O50	0.664200	0.285000	0.180000
O511	O51	0.647300	0.309590	0.358100
O521	O52	0.736100	0.191570	0.258400
O531	O53	0.707000	0.214990	0.436100
O541	O54	0.061700	0.056320	0.949600
O551	O55	0.921700	0.000100	0.859400
O561	O56	0.364300	0.990210	0.399200
O571	O57	0.565600	0.004940	0.373500
C291	C29	0.130800	0.152690	0.490100
H281	H28	0.070900	0.176200	0.447100
H291	H29	0.214800	0.160700	0.471200
C301	C30	0.189300	0.214880	0.647300
H301	H30	0.275100	0.216300	0.627500
H311	H31	0.138800	0.241300	0.604100
C311	C31	0.193700	0.224500	0.775400
H321	H32	0.228300	0.258500	0.793800
H331	H33	0.250500	0.199700	0.817900
C321	C32	0.064300	0.220600	0.812900
H341	H34	0.072400	0.224200	0.895800
H351	H35	0.010000	0.248000	0.778200
C331	C33	0.004500	0.168800	0.776900
H361	H36	0.918500	0.167500	0.796100
H371	H37	0.053800	0.141600	0.818500
C341	C34	0.000400	0.160600	0.648600
H381	H38	0.947100	0.186700	0.606900
H391	H39	0.963000	0.127300	0.627400
C351	C35	0.380600	0.144790	0.037000
C361	C36	0.387800	0.168120	0.157800
C371	C37	0.927900	0.172900	0.079700
C381	C38	0.848800	0.123870	0.092900
C391	C39	0.670200	0.277470	0.285300
C401	C40	0.708700	0.222860	0.332000
C411	C41	0.995400	0.016640	0.944300
C421	C42	0.480300	0.998650	0.434400
Gd101	Gd10	0.852790	0.588680	0.362640
Gd111	Gd11	0.360220	0.713290	0.445400
Gd121	Gd12	0.774830	0.465670	0.960970
P41	P4	0.910610	0.587210	0.060030
N41	N4	0.868200	0.663070	0.884000
H401	H40	0.819200	0.638800	0.843200
O581	O58	0.860300	0.585560	0.173100
O591	O59	0.842600	0.550550	0.971100
O601	O60	0.053600	0.581770	0.071000
O611	O61	0.532800	0.655530	0.519400
O621	O62	0.713800	0.616250	0.495500
O631	O63	0.524900	0.700170	0.314500
O641	O64	0.693000	0.652880	0.282700
O651	O65	0.133000	0.713660	0.442000
O661	O66	0.953200	0.667960	0.408100
O671	O67	0.270600	0.627440	0.432200
O681	O68	0.089700	0.584590	0.372700
O691	O69	0.335800	0.785000	0.320000
O701	O70	0.352700	0.809590	0.141900
O711	O71	0.263900	0.691570	0.241600
O721	O72	0.293000	0.714990	0.063900
O731	O73	0.938300	0.556320	0.550400
O741	O74	0.078300	0.500100	0.640600
O751	O75	0.635700	0.490210	0.100800
O761	O76	0.434400	0.504940	0.126500
C431	C43	0.869200	0.652690	0.009900
H411	H41	0.929100	0.676200	0.052900
H421	H42	0.785200	0.660700	0.028800
C441	C44	0.810700	0.714880	0.852700
H431	H43	0.724900	0.716300	0.872500
H441	H44	0.861200	0.741300	0.895900
C451	C45	0.806300	0.724500	0.724600
H451	H45	0.771700	0.758500	0.706200
H461	H46	0.749500	0.699700	0.682100
C461	C46	0.935700	0.720600	0.687100
H471	H47	0.927600	0.724200	0.604200
H481	H48	0.990000	0.748000	0.721800
C471	C47	0.995500	0.668800	0.723100
H491	H49	0.081500	0.667500	0.703900
H501	H50	0.946200	0.641600	0.681500
C481	C48	0.999600	0.660600	0.851400
H511	H51	0.052900	0.686700	0.893100
H521	H52	0.037000	0.627300	0.872600
C491	C49	0.619400	0.644790	0.463000
C501	C50	0.612200	0.668120	0.342200
C511	C51	0.072100	0.672900	0.420300
C521	C52	0.151200	0.623870	0.407100
C531	C53	0.329800	0.777470	0.214700
C541	C54	0.291300	0.722860	0.168000
C551	C55	0.004600	0.516640	0.555700
C561	C56	0.519700	0.498650	0.065600
