data_PUNCIL_clean_PM
_symmetry_space_group_name_H-M	'P1'
_cell_length_a	12.508000
_cell_length_b	12.754000
_cell_length_c	15.265000
_cell_angle_alpha	90.000000
_cell_angle_beta	104.782000
_cell_angle_gamma	90.000000
_symmetry_Int_Tables_number 1

loop_
_symmetry_equiv_pos_as_xyz
'x,y,z'

loop_
_atom_site_label
_atom_site_type_symbol
_atom_site_fract_x
_atom_site_fract_y
_atom_site_fract_z
Cd11	Cd1	0.226580	0.225600	0.082020
C11	C1	0.491600	0.248400	0.170090
H11	H1	0.479200	0.314300	0.191700
C21	C2	0.466500	0.095500	0.112500
H21	H2	0.432200	0.034500	0.085800
C31	C3	0.577200	0.111800	0.137600
H31	H3	0.631900	0.065200	0.131300
C41	C4	0.696100	0.265400	0.213210
H41	H4	0.684800	0.311100	0.260900
H51	H5	0.751800	0.214300	0.241200
C51	C5	0.768900	0.258300	0.073360
H61	H6	0.706600	0.259100	0.020300
H71	H7	0.775900	0.187300	0.097100
C61	C6	0.967400	0.235500	0.076530
H81	H8	0.979900	0.182100	0.119400
C71	C7	0.885000	0.357500	0.983000
H91	H9	0.832300	0.403200	0.949500
C81	C8	0.992000	0.350000	0.981100
H101	H10	0.025700	0.391000	0.945300
C91	C9	0.855600	0.472000	0.424900
H111	H11	0.867200	0.465300	0.487300
C101	C10	0.870800	0.395500	0.369100
H121	H12	0.894800	0.327600	0.385500
C111	C11	0.815900	0.536500	0.292400
H131	H13	0.795200	0.583000	0.244100
C121	C12	0.851400	0.382300	0.200210
H141	H14	0.875900	0.432200	0.161500
H151	H15	0.907100	0.327800	0.216000
C131	C13	0.742000	0.332300	0.145970
C141	C14	0.652400	0.413900	0.104400
H161	H16	0.645200	0.461500	0.152100
H171	H17	0.582400	0.377400	0.083600
C151	C15	0.724200	0.567600	0.032100
H181	H18	0.760200	0.600900	0.085800
C161	C16	0.660000	0.532400	0.891900
H191	H19	0.643900	0.537100	0.829000
C171	C17	0.627900	0.453700	0.938200
H201	H20	0.585500	0.395700	0.914100
N11	N1	0.412400	0.182700	0.132610
N21	N2	0.592550	0.209800	0.173680
N31	N3	0.043790	0.273400	0.039250
N41	N4	0.869460	0.283900	0.044810
N51	N5	0.820700	0.561300	0.376650
N61	N6	0.844360	0.436300	0.283700
N71	N7	0.720400	0.605100	0.951380
N81	N8	0.670570	0.476500	0.028890
Cd21	Cd2	0.773420	0.725600	0.417980
C181	C18	0.508400	0.748400	0.329910
H211	H21	0.520800	0.814300	0.308300
C191	C19	0.533500	0.595500	0.387500
H221	H22	0.567800	0.534500	0.414200
C201	C20	0.422800	0.611800	0.362400
H231	H23	0.368100	0.565200	0.368700
C211	C21	0.303900	0.765400	0.286790
H241	H24	0.315200	0.811100	0.239100
H251	H25	0.248200	0.714300	0.258800
C221	C22	0.231100	0.758300	0.426640
H261	H26	0.293400	0.759100	0.479700
H271	H27	0.224100	0.687300	0.402900
C231	C23	0.032600	0.735500	0.423470
H281	H28	0.020100	0.682100	0.380600
C241	C24	0.115000	0.857500	0.517000
H291	H29	0.167700	0.903200	0.550500
C251	C25	0.008000	0.850000	0.518900
H301	H30	0.974300	0.891000	0.554700
C261	C26	0.144400	0.972000	0.075100
H311	H31	0.132800	0.965300	0.012700
C271	C27	0.129200	0.895500	0.130900
H321	H32	0.105200	0.827600	0.114500
C281	C28	0.184100	0.036500	0.207600
H331	H33	0.204800	0.083000	0.255900
C291	C29	0.148600	0.882300	0.299790
H341	H34	0.124100	0.932200	0.338500
H351	H35	0.092900	0.827800	0.284000
C301	C30	0.258000	0.832300	0.354030
C311	C31	0.347600	0.913900	0.395600
H361	H36	0.354800	0.961500	0.347900
H371	H37	0.417600	0.877400	0.416400
C321	C32	0.275800	0.067600	0.467900
H381	H38	0.239800	0.100900	0.414200
C331	C33	0.340000	0.032400	0.608100
H391	H39	0.356100	0.037100	0.671000
C341	C34	0.372100	0.953700	0.561800
H401	H40	0.414500	0.895700	0.585900
N91	N9	0.587600	0.682700	0.367390
N101	N10	0.407450	0.709800	0.326320
N111	N11	0.956210	0.773400	0.460750
N121	N12	0.130540	0.783900	0.455190
N131	N13	0.179300	0.061300	0.123350
N141	N14	0.155640	0.936300	0.216300
N151	N15	0.279600	0.105100	0.548620
N161	N16	0.329430	0.976500	0.471110
Cd31	Cd3	0.773420	0.774410	0.917980
C351	C35	0.508400	0.751600	0.829910
H411	H41	0.520800	0.685700	0.808300
C361	C36	0.533500	0.904500	0.887500
H421	H42	0.567800	0.965500	0.914200
C371	C37	0.422800	0.888200	0.862400
H431	H43	0.368100	0.934800	0.868700
C381	C38	0.303900	0.734600	0.786790
H441	H44	0.315200	0.688900	0.739100
H451	H45	0.248200	0.785700	0.758800
C391	C39	0.231100	0.741700	0.926640
H461	H46	0.293400	0.740900	0.979700
H471	H47	0.224100	0.812700	0.902900
C401	C40	0.032600	0.764500	0.923470
H481	H48	0.020100	0.817900	0.880600
C411	C41	0.115000	0.642500	0.017000
H491	H49	0.167700	0.596800	0.050500
C421	C42	0.008000	0.650000	0.018900
H501	H50	0.974300	0.609000	0.054700
C431	C43	0.144400	0.528000	0.575100
H511	H51	0.132800	0.534700	0.512700
C441	C44	0.129200	0.604500	0.630900
H521	H52	0.105200	0.672400	0.614500
C451	C45	0.184100	0.463500	0.707600
H531	H53	0.204800	0.417000	0.755900
C461	C46	0.148600	0.617700	0.799790
H541	H54	0.124100	0.567800	0.838500
H551	H55	0.092900	0.672200	0.784000
C471	C47	0.258000	0.667700	0.854030
C481	C48	0.347600	0.586100	0.895600
H561	H56	0.354800	0.538500	0.847900
H571	H57	0.417600	0.622600	0.916400
C491	C49	0.275800	0.432400	0.967900
H581	H58	0.239800	0.399100	0.914200
C501	C50	0.340000	0.467600	0.108100
H591	H59	0.356100	0.462900	0.171000
C511	C51	0.372100	0.546300	0.061800
H601	H60	0.414500	0.604300	0.085900
N171	N17	0.587600	0.817300	0.867390
N181	N18	0.407450	0.790200	0.826320
N191	N19	0.956210	0.726600	0.960750
N201	N20	0.130540	0.716100	0.955190
N211	N21	0.179300	0.438700	0.623350
N221	N22	0.155640	0.563700	0.716300
N231	N23	0.279600	0.394900	0.048620
N241	N24	0.329430	0.523500	0.971110
Cd41	Cd4	0.226580	0.274410	0.582020
C521	C52	0.491600	0.251600	0.670090
H611	H61	0.479200	0.185700	0.691700
C531	C53	0.466500	0.404500	0.612500
H621	H62	0.432200	0.465500	0.585800
C541	C54	0.577200	0.388200	0.637600
H631	H63	0.631900	0.434800	0.631300
C551	C55	0.696100	0.234600	0.713210
H641	H64	0.684800	0.188900	0.760900
H651	H65	0.751800	0.285700	0.741200
C561	C56	0.768900	0.241700	0.573360
H661	H66	0.706600	0.240900	0.520300
H671	H67	0.775900	0.312700	0.597100
C571	C57	0.967400	0.264500	0.576530
H681	H68	0.979900	0.317900	0.619400
C581	C58	0.885000	0.142500	0.483000
H691	H69	0.832300	0.096800	0.449500
C591	C59	0.992000	0.150000	0.481100
H701	H70	0.025700	0.109000	0.445300
C601	C60	0.855600	0.028000	0.924900
H711	H71	0.867200	0.034700	0.987300
C611	C61	0.870800	0.104500	0.869100
H721	H72	0.894800	0.172400	0.885500
C621	C62	0.815900	0.963500	0.792400
H731	H73	0.795200	0.917000	0.744100
C631	C63	0.851400	0.117700	0.700210
H741	H74	0.875900	0.067800	0.661500
H751	H75	0.907100	0.172200	0.716000
C641	C64	0.742000	0.167700	0.645970
C651	C65	0.652400	0.086100	0.604400
H761	H76	0.645200	0.038500	0.652100
H771	H77	0.582400	0.122600	0.583600
C661	C66	0.724200	0.932400	0.532100
H781	H78	0.760200	0.899100	0.585800
C671	C67	0.660000	0.967600	0.391900
H791	H79	0.643900	0.962900	0.329000
C681	C68	0.627900	0.046300	0.438200
H801	H80	0.585500	0.104300	0.414100
N251	N25	0.412400	0.317300	0.632610
N261	N26	0.592550	0.290200	0.673680
N271	N27	0.043790	0.226600	0.539250
N281	N28	0.869460	0.216100	0.544810
N291	N29	0.820700	0.938700	0.876650
N301	N30	0.844360	0.063700	0.783700
N311	N31	0.720400	0.894900	0.451380
N321	N32	0.670570	0.023500	0.528890
