data_PUPXII01_clean_PM
_symmetry_space_group_name_H-M	'P1'
_cell_length_a	7.840100
_cell_length_b	10.317600
_cell_length_c	15.880900
_cell_angle_alpha	90.000000
_cell_angle_beta	90.000000
_cell_angle_gamma	90.000000
_symmetry_Int_Tables_number 1

loop_
_symmetry_equiv_pos_as_xyz
'x,y,z'

loop_
_atom_site_label
_atom_site_type_symbol
_atom_site_fract_x
_atom_site_fract_y
_atom_site_fract_z
Mn11	Mn1	0.355740	0.027040	0.469660
O11	O1	0.849900	0.859300	0.922610
O21	O2	0.966100	0.663800	0.915190
O31	O3	0.931900	0.422670	0.016170
O41	O4	0.665700	0.364700	0.042150
N11	N1	0.384200	0.924100	0.343530
N21	N2	0.683400	0.799100	0.069080
N31	N3	0.630200	0.607600	0.125220
H11	H1	0.587900	0.550000	0.158300
C11	C1	0.450400	0.991000	0.279400
H21	H2	0.449100	0.081000	0.282400
C21	C2	0.520400	0.933900	0.209030
H31	H3	0.567200	0.984600	0.166400
C31	C3	0.520300	0.799800	0.202500
C41	C4	0.446100	0.730100	0.267440
H41	H4	0.440000	0.640200	0.264700
C51	C5	0.381500	0.795000	0.336100
H51	H5	0.333500	0.746700	0.379500
C61	C6	0.606900	0.737400	0.131490
C71	C7	0.765900	0.704600	0.022780
C81	C8	0.732200	0.584300	0.057650
C91	C9	0.781600	0.446900	0.035490
C101	C10	0.867600	0.744300	0.948210
Mn21	Mn2	0.644260	0.972960	0.969660
O51	O5	0.150100	0.140700	0.422610
O61	O6	0.033900	0.336200	0.415190
O71	O7	0.068100	0.577330	0.516170
O81	O8	0.334300	0.635300	0.542150
N41	N4	0.615800	0.075900	0.843530
N51	N5	0.316600	0.200900	0.569080
N61	N6	0.369800	0.392400	0.625220
H61	H6	0.412100	0.450000	0.658300
C111	C11	0.549600	0.009000	0.779400
H71	H7	0.550900	0.919000	0.782400
C121	C12	0.479600	0.066100	0.709030
H81	H8	0.432800	0.015400	0.666400
C131	C13	0.479700	0.200200	0.702500
C141	C14	0.553900	0.269900	0.767440
H91	H9	0.560000	0.359800	0.764700
C151	C15	0.618500	0.205000	0.836100
H101	H10	0.666500	0.253300	0.879500
C161	C16	0.393100	0.262600	0.631490
C171	C17	0.234100	0.295400	0.522780
C181	C18	0.267800	0.415700	0.557650
C191	C19	0.218400	0.553100	0.535490
C201	C20	0.132400	0.255700	0.448210
Mn31	Mn3	0.855740	0.472960	0.469660
O91	O9	0.349900	0.640700	0.922610
O101	O10	0.466100	0.836200	0.915190
O111	O11	0.431900	0.077330	0.016170
O121	O12	0.165700	0.135300	0.042150
N71	N7	0.884200	0.575900	0.343530
N81	N8	0.183400	0.700900	0.069080
N91	N9	0.130200	0.892400	0.125220
H111	H11	0.087900	0.950000	0.158300
C211	C21	0.950400	0.509000	0.279400
H121	H12	0.949100	0.419000	0.282400
C221	C22	0.020400	0.566100	0.209030
H131	H13	0.067200	0.515400	0.166400
C231	C23	0.020300	0.700200	0.202500
C241	C24	0.946100	0.769900	0.267440
H141	H14	0.940000	0.859800	0.264700
C251	C25	0.881500	0.705000	0.336100
H151	H15	0.833500	0.753300	0.379500
C261	C26	0.106900	0.762600	0.131490
C271	C27	0.265900	0.795400	0.022780
C281	C28	0.232200	0.915700	0.057650
C291	C29	0.281600	0.053100	0.035490
C301	C30	0.367600	0.755700	0.948210
Mn41	Mn4	0.144260	0.527040	0.969660
O131	O13	0.650100	0.359300	0.422610
O141	O14	0.533900	0.163800	0.415190
O151	O15	0.568100	0.922670	0.516170
O161	O16	0.834300	0.864700	0.542150
N101	N10	0.115800	0.424100	0.843530
N111	N11	0.816600	0.299100	0.569080
N121	N12	0.869800	0.107600	0.625220
H161	H16	0.912100	0.050000	0.658300
C311	C31	0.049600	0.491000	0.779400
H171	H17	0.050900	0.581000	0.782400
C321	C32	0.979600	0.433900	0.709030
H181	H18	0.932800	0.484600	0.666400
C331	C33	0.979700	0.299800	0.702500
C341	C34	0.053900	0.230100	0.767440
H191	H19	0.060000	0.140200	0.764700
C351	C35	0.118500	0.295000	0.836100
H201	H20	0.166500	0.246700	0.879500
C361	C36	0.893100	0.237400	0.631490
C371	C37	0.734100	0.204600	0.522780
C381	C38	0.767800	0.084300	0.557650
C391	C39	0.718400	0.946900	0.535490
C401	C40	0.632400	0.244300	0.448210
