data_PUQDOW_clean_PM
_symmetry_space_group_name_H-M	'P1'
_cell_length_a	22.841100
_cell_length_b	12.582500
_cell_length_c	22.974500
_cell_angle_alpha	90.000000
_cell_angle_beta	90.000000
_cell_angle_gamma	90.000000
_symmetry_Int_Tables_number 1

loop_
_symmetry_equiv_pos_as_xyz
'x,y,z'

loop_
_atom_site_label
_atom_site_type_symbol
_atom_site_fract_x
_atom_site_fract_y
_atom_site_fract_z
Ag11	Ag1	0.753430	0.874350	0.531060
S11	S1	0.748240	0.254310	0.678370
S21	S2	0.831920	0.508610	0.775570
S31	S3	0.738860	0.752800	0.873080
S41	S4	0.598180	0.498700	0.520390
S51	S5	0.503030	0.265600	0.416990
S61	S6	0.402250	0.004370	0.488300
N11	N1	0.769100	0.001700	0.599600
N21	N2	0.757300	0.006300	0.955600
N31	N3	0.678600	0.756900	0.516500
N41	N4	0.322100	0.754200	0.457800
C11	C1	0.784100	0.072300	0.625600
C21	C2	0.800600	0.162900	0.658700
C31	C3	0.799700	0.327300	0.715300
C41	C4	0.854100	0.282200	0.711200
H11	H1	0.887900	0.311400	0.728100
C51	C5	0.853800	0.188400	0.679200
H21	H2	0.887500	0.147100	0.672600
C61	C6	0.780800	0.421800	0.746600
C71	C7	0.725700	0.454400	0.759600
H31	H3	0.692000	0.417100	0.747900
C81	C8	0.723600	0.548400	0.791900
H41	H4	0.688400	0.581000	0.803500
C91	C9	0.777900	0.588300	0.805000
C101	C10	0.792500	0.682500	0.836400
C111	C11	0.789300	0.845700	0.895900
C121	C12	0.843700	0.823600	0.877000
H51	H5	0.876400	0.866200	0.885400
C131	C13	0.846700	0.730100	0.843400
H61	H6	0.881500	0.703100	0.827500
C141	C14	0.771100	0.934400	0.928800
C151	C15	0.652300	0.687300	0.498500
C161	C16	0.619400	0.599900	0.475700
C171	C17	0.600900	0.585200	0.419700
H71	H7	0.608600	0.633100	0.389200
C181	C18	0.570000	0.492800	0.413000
H81	H8	0.554800	0.470300	0.377100
C191	C19	0.563400	0.436200	0.463300
C201	C20	0.531500	0.337800	0.474100
C211	C21	0.474400	0.170900	0.464200
C221	C22	0.487100	0.196900	0.520200
H91	H9	0.475100	0.155800	0.552200
C231	C23	0.520000	0.291600	0.525800
H101	H10	0.532500	0.319400	0.561700
C241	C24	0.443500	0.080200	0.442000
C251	C25	0.442600	0.040400	0.387600
H111	H11	0.462700	0.071700	0.356400
C261	C26	0.408400	0.947000	0.381900
H121	H12	0.403200	0.909700	0.346800
C271	C27	0.384300	0.918500	0.433300
C281	C28	0.349200	0.825800	0.446200
Ag21	Ag2	0.746570	0.125650	0.031060
S71	S7	0.751760	0.745690	0.178370
S81	S8	0.668080	0.491390	0.275570
S91	S9	0.761140	0.247200	0.373080
S101	S10	0.901820	0.501300	0.020390
S111	S11	0.996970	0.734400	0.916990
S121	S12	0.097750	0.995630	0.988300
N51	N5	0.730900	0.998300	0.099600
N61	N6	0.742700	0.993700	0.455600
N71	N7	0.821400	0.243100	0.016500
N81	N8	0.177900	0.245800	0.957800
C291	C29	0.715900	0.927700	0.125600
C301	C30	0.699400	0.837100	0.158700
C311	C31	0.700300	0.672700	0.215300
C321	C32	0.645900	0.717800	0.211200
H131	H13	0.612100	0.688600	0.228100
C331	C33	0.646200	0.811600	0.179200
H141	H14	0.612500	0.852900	0.172600
C341	C34	0.719200	0.578200	0.246600
C351	C35	0.774300	0.545600	0.259600
H151	H15	0.808000	0.582900	0.247900
C361	C36	0.776400	0.451600	0.291900
H161	H16	0.811600	0.419000	0.303500
C371	C37	0.722100	0.411700	0.305000
C381	C38	0.707500	0.317500	0.336400
C391	C39	0.710700	0.154300	0.395900
C401	C40	0.656300	0.176400	0.377000
H171	H17	0.623600	0.133800	0.385400
C411	C41	0.653300	0.269900	0.343400
H181	H18	0.618500	0.296900	0.327500
C421	C42	0.728900	0.065600	0.428800
C431	C43	0.847700	0.312700	0.998500
C441	C44	0.880600	0.400100	0.975700
C451	C45	0.899100	0.414800	0.919700
H191	H19	0.891400	0.366900	0.889200
C461	C46	0.930000	0.507200	0.913000
H201	H20	0.945200	0.529700	0.877100
C471	C47	0.936600	0.563800	0.963300
C481	C48	0.968500	0.662200	0.974100
C491	C49	0.025600	0.829100	0.964200
C501	C50	0.012900	0.803100	0.020200
H211	H21	0.024900	0.844200	0.052200
C511	C51	0.980000	0.708400	0.025800
H221	H22	0.967500	0.680600	0.061700
C521	C52	0.056500	0.919800	0.942000
C531	C53	0.057400	0.959600	0.887600
H231	H23	0.037300	0.928300	0.856400
C541	C54	0.091600	0.053000	0.881900
H241	H24	0.096800	0.090300	0.846800
C551	C55	0.115700	0.081500	0.933300
C561	C56	0.150800	0.174200	0.946200
Ag31	Ag3	0.246570	0.374350	0.968940
S131	S13	0.251760	0.754310	0.821630
S141	S14	0.168080	0.008610	0.724430
S151	S15	0.261140	0.252800	0.626920
S161	S16	0.401820	0.998700	0.979610
S171	S17	0.496970	0.765600	0.083010
S181	S18	0.597750	0.504370	0.011700
N91	N9	0.230900	0.501700	0.900400
N101	N10	0.242700	0.506300	0.544400
N111	N11	0.321400	0.256900	0.983500
N121	N12	0.677900	0.254200	0.042200
C571	C57	0.215900	0.572300	0.874400
C581	C58	0.199400	0.662900	0.841300
C591	C59	0.200300	0.827300	0.784700
C601	C60	0.145900	0.782200	0.788800
H251	H25	0.112100	0.811400	0.771900
C611	C61	0.146200	0.688400	0.820800
H261	H26	0.112500	0.647100	0.827400
C621	C62	0.219200	0.921800	0.753400
C631	C63	0.274300	0.954400	0.740400
H271	H27	0.308000	0.917100	0.752100
C641	C64	0.276400	0.048400	0.708100
H281	H28	0.311600	0.081000	0.696500
C651	C65	0.222100	0.088300	0.695000
C661	C66	0.207500	0.182500	0.663600
C671	C67	0.210700	0.345700	0.604100
C681	C68	0.156300	0.323600	0.623000
H291	H29	0.123600	0.366200	0.614600
C691	C69	0.153300	0.230100	0.656600
H301	H30	0.118500	0.203100	0.672500
C701	C70	0.228900	0.434400	0.571200
C711	C71	0.347700	0.187300	0.001500
C721	C72	0.380600	0.099900	0.024300
C731	C73	0.399100	0.085200	0.080300
H311	H31	0.391400	0.133100	0.110800
C741	C74	0.430000	0.992800	0.087000
H321	H32	0.445200	0.970300	0.122900
C751	C75	0.436600	0.936200	0.036700
C761	C76	0.468500	0.837800	0.025900
C771	C77	0.525600	0.670900	0.035800
C781	C78	0.512900	0.696900	0.979800
H331	H33	0.524900	0.655800	0.947800
C791	C79	0.480000	0.791600	0.974200
H341	H34	0.467500	0.819400	0.938300
C801	C80	0.556500	0.580200	0.058000
C811	C81	0.557400	0.540400	0.112400
H351	H35	0.537300	0.571700	0.143600
C821	C82	0.591600	0.447000	0.118100
H361	H36	0.596800	0.409700	0.153200
C831	C83	0.615700	0.418500	0.066700
C841	C84	0.650800	0.325800	0.053800
Ag41	Ag4	0.253430	0.625650	0.468940
S191	S19	0.248240	0.245690	0.321630
S201	S20	0.331920	0.991390	0.224430
S211	S21	0.238860	0.747200	0.126920
S221	S22	0.098180	0.001300	0.479610
S231	S23	0.003030	0.234400	0.583010
S241	S24	0.902250	0.495630	0.511700
N131	N13	0.269100	0.498300	0.400400
N141	N14	0.257300	0.493700	0.044400
N151	N15	0.178600	0.743100	0.483500
N161	N16	0.822100	0.745800	0.542200
C851	C85	0.284100	0.427700	0.374400
C861	C86	0.300600	0.337100	0.341300
C871	C87	0.299700	0.172700	0.284700
C881	C88	0.354100	0.217800	0.288800
H371	H37	0.387900	0.188600	0.271900
C891	C89	0.353800	0.311600	0.320800
H381	H38	0.387500	0.352900	0.327400
C901	C90	0.280800	0.078200	0.253400
C911	C91	0.225700	0.045600	0.240400
H391	H39	0.192000	0.082900	0.252100
C921	C92	0.223600	0.951600	0.208100
H401	H40	0.188400	0.919000	0.196500
C931	C93	0.277900	0.911700	0.195000
C941	C94	0.292500	0.817500	0.163600
C951	C95	0.289300	0.654300	0.104100
C961	C96	0.343700	0.676400	0.123000
H411	H41	0.376400	0.633800	0.114600
C971	C97	0.346700	0.769900	0.156600
H421	H42	0.381500	0.796900	0.172500
C981	C98	0.271100	0.565600	0.071200
C991	C99	0.152300	0.812700	0.501500
C1001	C100	0.119400	0.900100	0.524300
C1011	C101	0.100900	0.914800	0.580300
H431	H43	0.108600	0.866900	0.610800
C1021	C102	0.070000	0.007200	0.587000
H441	H44	0.054800	0.029700	0.622900
C1031	C103	0.063400	0.063800	0.536700
C1041	C104	0.031500	0.162200	0.525900
C1051	C105	0.974400	0.329100	0.535800
C1061	C106	0.987100	0.303100	0.479800
H451	H45	0.975100	0.344200	0.447800
C1071	C107	0.020000	0.208400	0.474200
H461	H46	0.032500	0.180600	0.438300
C1081	C108	0.943500	0.419800	0.558000
C1091	C109	0.942600	0.459600	0.612400
H471	H47	0.962700	0.428300	0.643600
C1101	C110	0.908400	0.553000	0.618100
H481	H48	0.903200	0.590300	0.653200
C1111	C111	0.884300	0.581500	0.566700
C1121	C112	0.849200	0.674200	0.553800
Ag51	Ag5	0.246570	0.125650	0.468940
S251	S25	0.251760	0.745690	0.321630
S261	S26	0.168080	0.491390	0.224430
S271	S27	0.261140	0.247200	0.126920
S281	S28	0.401820	0.501300	0.479610
S291	S29	0.496970	0.734400	0.583010
S301	S30	0.597750	0.995630	0.511700
N171	N17	0.230900	0.998300	0.400400
N181	N18	0.242700	0.993700	0.044400
N191	N19	0.321400	0.243100	0.483500
N201	N20	0.677900	0.245800	0.542200
C1131	C113	0.215900	0.927700	0.374400
C1141	C114	0.199400	0.837100	0.341300
C1151	C115	0.200300	0.672700	0.284700
C1161	C116	0.145900	0.717800	0.288800
H491	H49	0.112100	0.688600	0.271900
C1171	C117	0.146200	0.811600	0.320800
H501	H50	0.112500	0.852900	0.327400
C1181	C118	0.219200	0.578200	0.253400
C1191	C119	0.274300	0.545600	0.240400
H511	H51	0.308000	0.582900	0.252100
C1201	C120	0.276400	0.451600	0.208100
H521	H52	0.311600	0.419000	0.196500
C1211	C121	0.222100	0.411700	0.195000
C1221	C122	0.207500	0.317500	0.163600
C1231	C123	0.210700	0.154300	0.104100
C1241	C124	0.156300	0.176400	0.123000
H531	H53	0.123600	0.133800	0.114600
C1251	C125	0.153300	0.269900	0.156600
H541	H54	0.118500	0.296900	0.172500
C1261	C126	0.228900	0.065600	0.071200
C1271	C127	0.347700	0.312700	0.501500
C1281	C128	0.380600	0.400100	0.524300
C1291	C129	0.399100	0.414800	0.580300
H551	H55	0.391400	0.366900	0.610800
C1301	C130	0.430000	0.507200	0.587000
H561	H56	0.445200	0.529700	0.622900
C1311	C131	0.436600	0.563800	0.536700
C1321	C132	0.468500	0.662200	0.525900
C1331	C133	0.525600	0.829100	0.535800
C1341	C134	0.512900	0.803100	0.479800
H571	H57	0.524900	0.844200	0.447800
C1351	C135	0.480000	0.708400	0.474200
H581	H58	0.467500	0.680600	0.438300
C1361	C136	0.556500	0.919800	0.558000
C1371	C137	0.557400	0.959600	0.612400
H591	H59	0.537300	0.928300	0.643600
C1381	C138	0.591600	0.053000	0.618100
H601	H60	0.596800	0.090300	0.653200
C1391	C139	0.615700	0.081500	0.566700
C1401	C140	0.650800	0.174200	0.553800
Ag61	Ag6	0.253430	0.874350	0.968940
S311	S31	0.248240	0.254310	0.821630
S321	S32	0.331920	0.508610	0.724430
S331	S33	0.238860	0.752800	0.626920
S341	S34	0.098180	0.498700	0.979610
S351	S35	0.003030	0.265600	0.083010
S361	S36	0.902250	0.004370	0.011700
N211	N21	0.269100	0.001700	0.900400
N221	N22	0.257300	0.006300	0.544400
N231	N23	0.178600	0.756900	0.983500
N241	N24	0.822100	0.754200	0.042200
C1411	C141	0.284100	0.072300	0.874400
C1421	C142	0.300600	0.162900	0.841300
C1431	C143	0.299700	0.327300	0.784700
C1441	C144	0.354100	0.282200	0.788800
H611	H61	0.387900	0.311400	0.771900
C1451	C145	0.353800	0.188400	0.820800
H621	H62	0.387500	0.147100	0.827400
C1461	C146	0.280800	0.421800	0.753400
C1471	C147	0.225700	0.454400	0.740400
H631	H63	0.192000	0.417100	0.752100
C1481	C148	0.223600	0.548400	0.708100
H641	H64	0.188400	0.581000	0.696500
C1491	C149	0.277900	0.588300	0.695000
C1501	C150	0.292500	0.682500	0.663600
C1511	C151	0.289300	0.845700	0.604100
C1521	C152	0.343700	0.823600	0.623000
H651	H65	0.376400	0.866200	0.614600
C1531	C153	0.346700	0.730100	0.656600
H661	H66	0.381500	0.703100	0.672500
C1541	C154	0.271100	0.934400	0.571200
C1551	C155	0.152300	0.687300	0.001500
C1561	C156	0.119400	0.599900	0.024300
C1571	C157	0.100900	0.585200	0.080300
H671	H67	0.108600	0.633100	0.110800
C1581	C158	0.070000	0.492800	0.087000
H681	H68	0.054800	0.470300	0.122900
C1591	C159	0.063400	0.436200	0.036700
C1601	C160	0.031500	0.337800	0.025900
C1611	C161	0.974400	0.170900	0.035800
C1621	C162	0.987100	0.196900	0.979800
H691	H69	0.975100	0.155800	0.947800
C1631	C163	0.020000	0.291600	0.974200
H701	H70	0.032500	0.319400	0.938300
C1641	C164	0.943500	0.080200	0.058000
C1651	C165	0.942600	0.040400	0.112400
H711	H71	0.962700	0.071700	0.143600
C1661	C166	0.908400	0.947000	0.118100
H721	H72	0.903200	0.909700	0.153200
C1671	C167	0.884300	0.918500	0.066700
C1681	C168	0.849200	0.825800	0.053800
Ag71	Ag7	0.753430	0.625650	0.031060
S371	S37	0.748240	0.245690	0.178370
S381	S38	0.831920	0.991390	0.275570
S391	S39	0.738860	0.747200	0.373080
S401	S40	0.598180	0.001300	0.020390
S411	S41	0.503030	0.234400	0.916990
S421	S42	0.402250	0.495630	0.988300
N251	N25	0.769100	0.498300	0.099600
N261	N26	0.757300	0.493700	0.455600
N271	N27	0.678600	0.743100	0.016500
N281	N28	0.322100	0.745800	0.957800
C1691	C169	0.784100	0.427700	0.125600
C1701	C170	0.800600	0.337100	0.158700
C1711	C171	0.799700	0.172700	0.215300
C1721	C172	0.854100	0.217800	0.211200
H731	H73	0.887900	0.188600	0.228100
C1731	C173	0.853800	0.311600	0.179200
H741	H74	0.887500	0.352900	0.172600
C1741	C174	0.780800	0.078200	0.246600
C1751	C175	0.725700	0.045600	0.259600
H751	H75	0.692000	0.082900	0.247900
C1761	C176	0.723600	0.951600	0.291900
H761	H76	0.688400	0.919000	0.303500
C1771	C177	0.777900	0.911700	0.305000
C1781	C178	0.792500	0.817500	0.336400
C1791	C179	0.789300	0.654300	0.395900
C1801	C180	0.843700	0.676400	0.377000
H771	H77	0.876400	0.633800	0.385400
C1811	C181	0.846700	0.769900	0.343400
H781	H78	0.881500	0.796900	0.327500
C1821	C182	0.771100	0.565600	0.428800
C1831	C183	0.652300	0.812700	0.998500
C1841	C184	0.619400	0.900100	0.975700
C1851	C185	0.600900	0.914800	0.919700
H791	H79	0.608600	0.866900	0.889200
C1861	C186	0.570000	0.007200	0.913000
H801	H80	0.554800	0.029700	0.877100
C1871	C187	0.563400	0.063800	0.963300
C1881	C188	0.531500	0.162200	0.974100
C1891	C189	0.474400	0.329100	0.964200
C1901	C190	0.487100	0.303100	0.020200
H811	H81	0.475100	0.344200	0.052200
C1911	C191	0.520000	0.208400	0.025800
H821	H82	0.532500	0.180600	0.061700
C1921	C192	0.443500	0.419800	0.942000
C1931	C193	0.442600	0.459600	0.887600
H831	H83	0.462700	0.428300	0.856400
C1941	C194	0.408400	0.553000	0.881900
H841	H84	0.403200	0.590300	0.846800
C1951	C195	0.384300	0.581500	0.933300
C1961	C196	0.349200	0.674200	0.946200
Ag81	Ag8	0.746570	0.374350	0.531060
S431	S43	0.751760	0.754310	0.678370
S441	S44	0.668080	0.008610	0.775570
S451	S45	0.761140	0.252800	0.873080
S461	S46	0.901820	0.998700	0.520390
S471	S47	0.996970	0.765600	0.416990
S481	S48	0.097750	0.504370	0.488300
N291	N29	0.730900	0.501700	0.599600
N301	N30	0.742700	0.506300	0.955600
N311	N31	0.821400	0.256900	0.516500
N321	N32	0.177900	0.254200	0.457800
C1971	C197	0.715900	0.572300	0.625600
C1981	C198	0.699400	0.662900	0.658700
C1991	C199	0.700300	0.827300	0.715300
C2001	C200	0.645900	0.782200	0.711200
H851	H85	0.612100	0.811400	0.728100
C2011	C201	0.646200	0.688400	0.679200
H861	H86	0.612500	0.647100	0.672600
C2021	C202	0.719200	0.921800	0.746600
C2031	C203	0.774300	0.954400	0.759600
H871	H87	0.808000	0.917100	0.747900
C2041	C204	0.776400	0.048400	0.791900
H881	H88	0.811600	0.081000	0.803500
C2051	C205	0.722100	0.088300	0.805000
C2061	C206	0.707500	0.182500	0.836400
C2071	C207	0.710700	0.345700	0.895900
C2081	C208	0.656300	0.323600	0.877000
H891	H89	0.623600	0.366200	0.885400
C2091	C209	0.653300	0.230100	0.843400
H901	H90	0.618500	0.203100	0.827500
C2101	C210	0.728900	0.434400	0.928800
C2111	C211	0.847700	0.187300	0.498500
C2121	C212	0.880600	0.099900	0.475700
C2131	C213	0.899100	0.085200	0.419700
H911	H91	0.891400	0.133100	0.389200
C2141	C214	0.930000	0.992800	0.413000
H921	H92	0.945200	0.970300	0.377100
C2151	C215	0.936600	0.936200	0.463300
C2161	C216	0.968500	0.837800	0.474100
C2171	C217	0.025600	0.670900	0.464200
C2181	C218	0.012900	0.696900	0.520200
H931	H93	0.024900	0.655800	0.552200
C2191	C219	0.980000	0.791600	0.525800
H941	H94	0.967500	0.819400	0.561700
C2201	C220	0.056500	0.580200	0.442000
C2211	C221	0.057400	0.540400	0.387600
H951	H95	0.037300	0.571700	0.356400
C2221	C222	0.091600	0.447000	0.381900
H961	H96	0.096800	0.409700	0.346800
C2231	C223	0.115700	0.418500	0.433300
C2241	C224	0.150800	0.325800	0.446200
