data_PUQYAC_clean_PM
_symmetry_space_group_name_H-M	'P1'
_cell_length_a	7.730000
_cell_length_b	21.260000
_cell_length_c	21.260000
_cell_angle_alpha	120.000000
_cell_angle_beta	90.000000
_cell_angle_gamma	90.000000
_symmetry_Int_Tables_number 1

loop_
_symmetry_equiv_pos_as_xyz
'x,y,z'

loop_
_atom_site_label
_atom_site_type_symbol
_atom_site_fract_x
_atom_site_fract_y
_atom_site_fract_z
Zn11	Zn1	0.000000	0.299090	0.700920
Zn21	Zn2	0.666670	0.401830	0.700910
Zn31	Zn3	0.333330	0.299090	0.598180
Zn41	Zn4	0.000000	0.700910	0.299080
Zn51	Zn5	0.666670	0.598170	0.299080
Zn61	Zn6	0.333330	0.700920	0.401830
H11	H1	0.109600	0.153400	0.407600
H21	H2	0.565300	0.070500	0.413200
H31	H3	0.692500	0.157100	0.519300
H41	H4	0.989200	0.064800	0.301500
H51	H5	0.776270	0.254200	0.846600
H61	H6	0.231970	0.342700	0.929500
H71	H7	0.359170	0.362200	0.842900
H81	H8	0.655870	0.236700	0.935200
H91	H9	0.442930	0.592400	0.745800
H101	H10	0.898630	0.586800	0.657300
H111	H11	0.025830	0.480700	0.637800
H121	H12	0.322530	0.698500	0.763300
H131	H13	0.109600	0.846600	0.592400
H141	H14	0.565300	0.929500	0.586800
H151	H15	0.692500	0.842900	0.480700
H161	H16	0.989200	0.935200	0.698500
H171	H17	0.776270	0.745800	0.153400
H181	H18	0.231970	0.657300	0.070500
H191	H19	0.359170	0.637800	0.157100
H201	H20	0.655870	0.763300	0.064800
H211	H21	0.442930	0.407600	0.254200
H221	H22	0.898630	0.413200	0.342700
H231	H23	0.025830	0.519300	0.362200
H241	H24	0.322530	0.301500	0.236700
H251	H25	0.557070	0.745800	0.592400
H261	H26	0.101370	0.657300	0.586800
H271	H27	0.974170	0.637800	0.480700
H281	H28	0.677470	0.763300	0.698500
H291	H29	0.890400	0.407600	0.153400
H301	H30	0.434700	0.413200	0.070500
H311	H31	0.307500	0.519300	0.157100
H321	H32	0.010800	0.301500	0.064800
H331	H33	0.223730	0.846600	0.254200
H341	H34	0.768030	0.929500	0.342700
H351	H35	0.640830	0.842900	0.362200
H361	H36	0.344130	0.935200	0.236700
H371	H37	0.557070	0.254200	0.407600
H381	H38	0.101370	0.342700	0.413200
H391	H39	0.974170	0.362200	0.519300
H401	H40	0.677470	0.236700	0.301500
H411	H41	0.890400	0.592400	0.846600
H421	H42	0.434700	0.586800	0.929500
H431	H43	0.307500	0.480700	0.842900
H441	H44	0.010800	0.698500	0.935200
H451	H45	0.223730	0.153400	0.745800
H461	H46	0.768030	0.070500	0.657300
H471	H47	0.640830	0.157100	0.637800
H481	H48	0.344130	0.064800	0.763300
C11	C1	0.003800	0.218900	0.541300
C21	C2	0.000200	0.135800	0.408800
C31	C3	0.676400	0.086300	0.411500
C41	C4	0.752100	0.138700	0.475700
C51	C5	0.917400	0.163500	0.474300
C61	C6	0.928100	0.083100	0.344900
C71	C7	0.759200	0.056900	0.345600
C81	C8	0.540900	0.042400	0.255000
C91	C9	0.670470	0.322400	0.781100
C101	C10	0.666870	0.273000	0.864200
C111	C11	0.343070	0.325200	0.913700
C121	C12	0.418770	0.337000	0.861300
C131	C13	0.584070	0.310800	0.836500
C141	C14	0.594770	0.261800	0.916900
C151	C15	0.425870	0.288700	0.943100
C161	C16	0.207570	0.212600	0.957600
C171	C17	0.337130	0.458700	0.677600
C181	C18	0.333530	0.591200	0.727000
C191	C19	0.009730	0.588500	0.674800
C201	C20	0.085430	0.524300	0.663000
C211	C21	0.250730	0.525700	0.689200
C221	C22	0.261430	0.655100	0.738200
C231	C23	0.092530	0.654400	0.711300
C241	C24	0.874230	0.745000	0.787400
C251	C25	0.003800	0.781100	0.458700
C261	C26	0.000200	0.864200	0.591200
C271	C27	0.676400	0.913700	0.588500
C281	C28	0.752100	0.861300	0.524300
C291	C29	0.917400	0.836500	0.525700
C301	C30	0.928100	0.916900	0.655100
C311	C31	0.759200	0.943100	0.654400
C321	C32	0.540900	0.957600	0.745000
C331	C33	0.670470	0.677600	0.218900
C341	C34	0.666870	0.727000	0.135800
C351	C35	0.343070	0.674800	0.086300
C361	C36	0.418770	0.663000	0.138700
C371	C37	0.584070	0.689200	0.163500
C381	C38	0.594770	0.738200	0.083100
C391	C39	0.425870	0.711300	0.056900
C401	C40	0.207570	0.787400	0.042400
C411	C41	0.337130	0.541300	0.322400
C421	C42	0.333530	0.408800	0.273000
C431	C43	0.009730	0.411500	0.325200
C441	C44	0.085430	0.475700	0.337000
C451	C45	0.250730	0.474300	0.310800
C461	C46	0.261430	0.344900	0.261800
C471	C47	0.092530	0.345600	0.288700
C481	C48	0.874230	0.255000	0.212600
C491	C49	0.662870	0.677600	0.458700
C501	C50	0.666470	0.727000	0.591200
C511	C51	0.990270	0.674800	0.588500
C521	C52	0.914570	0.663000	0.524300
C531	C53	0.749270	0.689200	0.525700
C541	C54	0.738570	0.738200	0.655100
C551	C55	0.907470	0.711300	0.654400
C561	C56	0.125770	0.787400	0.745000
C571	C57	0.996200	0.541300	0.218900
C581	C58	0.999800	0.408800	0.135800
C591	C59	0.323600	0.411500	0.086300
C601	C60	0.247900	0.475700	0.138700
C611	C61	0.082600	0.474300	0.163500
C621	C62	0.071900	0.344900	0.083100
C631	C63	0.240800	0.345600	0.056900
C641	C64	0.459100	0.255000	0.042400
C651	C65	0.329530	0.781100	0.322400
C661	C66	0.333130	0.864200	0.273000
C671	C67	0.656930	0.913700	0.325200
C681	C68	0.581230	0.861300	0.337000
C691	C69	0.415930	0.836500	0.310800
C701	C70	0.405230	0.916900	0.261800
C711	C71	0.574130	0.943100	0.288700
C721	C72	0.792430	0.957600	0.212600
C731	C73	0.662870	0.322400	0.541300
C741	C74	0.666470	0.273000	0.408800
C751	C75	0.990270	0.325200	0.411500
C761	C76	0.914570	0.337000	0.475700
C771	C77	0.749270	0.310800	0.474300
C781	C78	0.738570	0.261800	0.344900
C791	C79	0.907470	0.288700	0.345600
C801	C80	0.125770	0.212600	0.255000
C811	C81	0.996200	0.458700	0.781100
C821	C82	0.999800	0.591200	0.864200
C831	C83	0.323600	0.588500	0.913700
C841	C84	0.247900	0.524300	0.861300
C851	C85	0.082600	0.525700	0.836500
C861	C86	0.071900	0.655100	0.916900
C871	C87	0.240800	0.654400	0.943100
C881	C88	0.459100	0.745000	0.957600
C891	C89	0.329530	0.218900	0.677600
C901	C90	0.333130	0.135800	0.727000
C911	C91	0.656930	0.086300	0.674800
C921	C92	0.581230	0.138700	0.663000
C931	C93	0.415930	0.163500	0.689200
C941	C94	0.405230	0.083100	0.738200
C951	C95	0.574130	0.056900	0.711300
C961	C96	0.792430	0.042400	0.787400
C971	C97	0.666670	0.000000	0.276500
C981	C98	0.333330	0.276500	0.000000
C991	C99	0.000000	0.723500	0.723500
C1001	C100	0.666670	0.000000	0.723500
C1011	C101	0.333330	0.723500	0.000000
C1021	C102	0.000000	0.276500	0.276500
O11	O1	0.925800	0.239000	0.600600
O21	O2	0.146200	0.242100	0.535600
O31	O3	0.592470	0.361600	0.761000
O41	O4	0.812870	0.293500	0.757900
O51	O5	0.259130	0.399400	0.638400
O61	O6	0.479530	0.464400	0.706500
O71	O7	0.925800	0.761000	0.399400
O81	O8	0.146200	0.757900	0.464400
O91	O9	0.592470	0.638400	0.239000
O101	O10	0.812870	0.706500	0.242100
O111	O11	0.259130	0.600600	0.361600
O121	O12	0.479530	0.535600	0.293500
O131	O13	0.740870	0.638400	0.399400
O141	O14	0.520470	0.706500	0.464400
O151	O15	0.074200	0.600600	0.239000
O161	O16	0.853800	0.535600	0.242100
O171	O17	0.407530	0.761000	0.361600
O181	O18	0.187130	0.757900	0.293500
O191	O19	0.740870	0.361600	0.600600
O201	O20	0.520470	0.293500	0.535600
O211	O21	0.074200	0.399400	0.761000
O221	O22	0.853800	0.464400	0.757900
O231	O23	0.407530	0.239000	0.638400
O241	O24	0.187130	0.242100	0.706500
F11	F1	0.415700	0.071300	0.301800
F21	F2	0.469100	0.003600	0.190000
F31	F3	0.625300	0.097600	0.253400
F41	F4	0.082370	0.230500	0.928700
F51	F5	0.135770	0.186400	0.996400
F61	F6	0.291970	0.155800	0.902400
F71	F7	0.749030	0.698200	0.769500
F81	F8	0.802430	0.810000	0.813600
F91	F9	0.958630	0.746600	0.844200
F101	F10	0.415700	0.928700	0.698200
F111	F11	0.469100	0.996400	0.810000
F121	F12	0.625300	0.902400	0.746600
F131	F13	0.082370	0.769500	0.071300
F141	F14	0.135770	0.813600	0.003600
F151	F15	0.291970	0.844200	0.097600
F161	F16	0.749030	0.301800	0.230500
F171	F17	0.802430	0.190000	0.186400
F181	F18	0.958630	0.253400	0.155800
F191	F19	0.250970	0.769500	0.698200
F201	F20	0.197570	0.813600	0.810000
F211	F21	0.041370	0.844200	0.746600
F221	F22	0.584300	0.301800	0.071300
F231	F23	0.530900	0.190000	0.003600
F241	F24	0.374700	0.253400	0.097600
F251	F25	0.917630	0.928700	0.230500
F261	F26	0.864230	0.996400	0.186400
F271	F27	0.708030	0.902400	0.155800
F281	F28	0.250970	0.230500	0.301800
F291	F29	0.197570	0.186400	0.190000
F301	F30	0.041370	0.155800	0.253400
F311	F31	0.584300	0.698200	0.928700
F321	F32	0.530900	0.810000	0.996400
F331	F33	0.374700	0.746600	0.902400
F341	F34	0.917630	0.071300	0.769500
F351	F35	0.864230	0.003600	0.813600
F361	F36	0.708030	0.097600	0.844200
