data_PURNEX_clean_PM
_symmetry_space_group_name_H-M	'P1'
_cell_length_a	24.680300
_cell_length_b	10.596600
_cell_length_c	19.982500
_cell_angle_alpha	90.000000
_cell_angle_beta	99.515000
_cell_angle_gamma	90.000000
_symmetry_Int_Tables_number 1

loop_
_symmetry_equiv_pos_as_xyz
'x,y,z'

loop_
_atom_site_label
_atom_site_type_symbol
_atom_site_fract_x
_atom_site_fract_y
_atom_site_fract_z
W11	W1	0.396650	0.771490	0.710320
W21	W2	0.381510	0.989540	0.828110
W31	W3	0.485300	0.241110	0.867760
W41	W4	0.398320	0.229450	0.698580
W51	W5	0.475650	0.759970	0.863310
W61	W6	0.423120	0.011870	0.585210
O11	O1	0.455800	0.907700	0.778200
O21	O2	0.375700	0.138900	0.617200
O31	O3	0.529800	0.087000	0.810300
O41	O4	0.549000	0.314700	0.847400
O51	O5	0.351300	0.858100	0.761300
O61	O6	0.372700	0.102300	0.750700
O71	O7	0.536800	0.721800	0.821400
O81	O8	0.427100	0.681400	0.793600
O91	O9	0.468300	0.141900	0.563100
O101	O10	0.413000	0.853700	0.884100
O111	O11	0.444300	0.278300	0.782300
O121	O12	0.520000	0.891700	0.908600
O131	O13	0.431800	0.108400	0.872200
O141	O14	0.391000	0.895800	0.645400
O151	O15	0.464200	0.355100	0.920500
O161	O16	0.480300	0.645400	0.924000
N11	N1	0.573000	0.475600	0.980300
C11	C1	0.606800	0.372300	0.996800
H11	H1	0.597900	0.299500	0.018600
N21	N2	0.656200	0.396100	0.975100
C21	C2	0.652900	0.514100	0.945100
H21	H2	0.680400	0.553500	0.926200
C31	C3	0.601500	0.563200	0.948300
H31	H3	0.588400	0.641500	0.931900
C41	C4	0.709900	0.232800	0.039600
H41	H4	0.682700	0.221700	0.066200
C51	C5	0.702800	0.320500	0.987800
C61	C6	0.742900	0.338000	0.948000
H51	H5	0.738000	0.397700	0.913300
W71	W7	0.896650	0.271490	0.710320
W81	W8	0.881510	0.489540	0.828110
W91	W9	0.985300	0.741110	0.867760
W101	W10	0.898320	0.729450	0.698580
W111	W11	0.975650	0.259970	0.863310
W121	W12	0.923120	0.511870	0.585210
O171	O17	0.955800	0.407700	0.778200
O181	O18	0.875700	0.638900	0.617200
O191	O19	0.029800	0.587000	0.810300
O201	O20	0.049000	0.814700	0.847400
O211	O21	0.851300	0.358100	0.761300
O221	O22	0.872700	0.602300	0.750700
O231	O23	0.036800	0.221800	0.821400
O241	O24	0.927100	0.181400	0.793600
O251	O25	0.968300	0.641900	0.563100
O261	O26	0.913000	0.353700	0.884100
O271	O27	0.944300	0.778300	0.782300
O281	O28	0.020000	0.391700	0.908600
O291	O29	0.931800	0.608400	0.872200
O301	O30	0.891000	0.395800	0.645400
O311	O31	0.964200	0.855100	0.920500
O321	O32	0.980300	0.145400	0.924000
N31	N3	0.073000	0.975600	0.980300
C71	C7	0.106800	0.872300	0.996800
H61	H6	0.097900	0.799500	0.018600
N41	N4	0.156200	0.896100	0.975100
C81	C8	0.152900	0.014100	0.945100
H71	H7	0.180400	0.053500	0.926200
C91	C9	0.101500	0.063200	0.948300
H81	H8	0.088400	0.141500	0.931900
C101	C10	0.209900	0.732800	0.039600
H91	H9	0.182700	0.721700	0.066200
C111	C11	0.202800	0.820500	0.987800
C121	C12	0.242900	0.838000	0.948000
H101	H10	0.238000	0.897700	0.913300
W131	W13	0.603350	0.771490	0.789680
W141	W14	0.618490	0.989540	0.671890
W151	W15	0.514700	0.241110	0.632240
W161	W16	0.601680	0.229450	0.801420
W171	W17	0.524350	0.759970	0.636690
W181	W18	0.576880	0.011870	0.914790
O331	O33	0.544200	0.907700	0.721800
O341	O34	0.624300	0.138900	0.882800
O351	O35	0.470200	0.087000	0.689700
O361	O36	0.451000	0.314700	0.652600
O371	O37	0.648700	0.858100	0.738700
O381	O38	0.627300	0.102300	0.749300
O391	O39	0.463200	0.721800	0.678600
O401	O40	0.572900	0.681400	0.706400
O411	O41	0.531700	0.141900	0.936900
O421	O42	0.587000	0.853700	0.615900
O431	O43	0.555700	0.278300	0.717700
O441	O44	0.480000	0.891700	0.591400
O451	O45	0.568200	0.108400	0.627800
O461	O46	0.609000	0.895800	0.854600
O471	O47	0.535800	0.355100	0.579500
O481	O48	0.519700	0.645400	0.576000
N51	N5	0.427000	0.475600	0.519700
C131	C13	0.393200	0.372300	0.503200
H111	H11	0.402100	0.299500	0.481400
N61	N6	0.343800	0.396100	0.524900
C141	C14	0.347100	0.514100	0.554900
H121	H12	0.319600	0.553500	0.573800
C151	C15	0.398500	0.563200	0.551700
H131	H13	0.411600	0.641500	0.568100
C161	C16	0.290100	0.232800	0.460400
H141	H14	0.317300	0.221700	0.433800
C171	C17	0.297200	0.320500	0.512200
C181	C18	0.257100	0.338000	0.552000
H151	H15	0.262000	0.397700	0.586700
W191	W19	0.103350	0.271490	0.789680
W201	W20	0.118490	0.489540	0.671890
W211	W21	0.014700	0.741110	0.632240
W221	W22	0.101680	0.729450	0.801420
W231	W23	0.024350	0.259970	0.636690
W241	W24	0.076880	0.511870	0.914790
O491	O49	0.044200	0.407700	0.721800
O501	O50	0.124300	0.638900	0.882800
O511	O51	0.970200	0.587000	0.689700
O521	O52	0.951000	0.814700	0.652600
O531	O53	0.148700	0.358100	0.738700
O541	O54	0.127300	0.602300	0.749300
O551	O55	0.963200	0.221800	0.678600
O561	O56	0.072900	0.181400	0.706400
O571	O57	0.031700	0.641900	0.936900
O581	O58	0.087000	0.353700	0.615900
O591	O59	0.055700	0.778300	0.717700
O601	O60	0.980000	0.391700	0.591400
O611	O61	0.068200	0.608400	0.627800
O621	O62	0.109000	0.395800	0.854600
O631	O63	0.035800	0.855100	0.579500
O641	O64	0.019700	0.145400	0.576000
N71	N7	0.927000	0.975600	0.519700
C191	C19	0.893200	0.872300	0.503200
H161	H16	0.902100	0.799500	0.481400
N81	N8	0.843800	0.896100	0.524900
C201	C20	0.847100	0.014100	0.554900
H171	H17	0.819600	0.053500	0.573800
C211	C21	0.898500	0.063200	0.551700
H181	H18	0.911600	0.141500	0.568100
C221	C22	0.790100	0.732800	0.460400
H191	H19	0.817300	0.721700	0.433800
C231	C23	0.797200	0.820500	0.512200
C241	C24	0.757100	0.838000	0.552000
H201	H20	0.762000	0.897700	0.586700
W251	W25	0.603350	0.228510	0.289680
W261	W26	0.618490	0.010460	0.171890
W271	W27	0.514700	0.758890	0.132240
W281	W28	0.601680	0.770550	0.301420
W291	W29	0.524350	0.240030	0.136690
W301	W30	0.576880	0.988130	0.414790
O651	O65	0.544200	0.092300	0.221800
O661	O66	0.624300	0.861100	0.382800
O671	O67	0.470200	0.913000	0.189700
O681	O68	0.451000	0.685300	0.152600
O691	O69	0.648700	0.141900	0.238700
O701	O70	0.627300	0.897700	0.249300
O711	O71	0.463200	0.278200	0.178600
O721	O72	0.572900	0.318600	0.206400
O731	O73	0.531700	0.858100	0.436900
O741	O74	0.587000	0.146300	0.115900
O751	O75	0.555700	0.721700	0.217700
O761	O76	0.480000	0.108300	0.091400
O771	O77	0.568200	0.891600	0.127800
O781	O78	0.609000	0.104200	0.354600
O791	O79	0.535800	0.644900	0.079500
O801	O80	0.519700	0.354600	0.076000
N91	N9	0.427000	0.524400	0.019700
C251	C25	0.393200	0.627700	0.003200
H211	H21	0.402100	0.700500	0.981400
N101	N10	0.343800	0.603900	0.024900
C261	C26	0.347100	0.485900	0.054900
H221	H22	0.319600	0.446500	0.073800
C271	C27	0.398500	0.436800	0.051700
H231	H23	0.411600	0.358500	0.068100
C281	C28	0.290100	0.767200	0.960400
H241	H24	0.317300	0.778300	0.933800
C291	C29	0.297200	0.679500	0.012200
C301	C30	0.257100	0.662000	0.052000
H251	H25	0.262000	0.602300	0.086700
W311	W31	0.103350	0.728510	0.289680
W321	W32	0.118490	0.510460	0.171890
W331	W33	0.014700	0.258890	0.132240
W341	W34	0.101680	0.270550	0.301420
W351	W35	0.024350	0.740030	0.136690
W361	W36	0.076880	0.488130	0.414790
O811	O81	0.044200	0.592300	0.221800
O821	O82	0.124300	0.361100	0.382800
O831	O83	0.970200	0.413000	0.189700
O841	O84	0.951000	0.185300	0.152600
O851	O85	0.148700	0.641900	0.238700
O861	O86	0.127300	0.397700	0.249300
O871	O87	0.963200	0.778200	0.178600
O881	O88	0.072900	0.818600	0.206400
O891	O89	0.031700	0.358100	0.436900
O901	O90	0.087000	0.646300	0.115900
O911	O91	0.055700	0.221700	0.217700
O921	O92	0.980000	0.608300	0.091400
O931	O93	0.068200	0.391600	0.127800
O941	O94	0.109000	0.604200	0.354600
O951	O95	0.035800	0.144900	0.079500
O961	O96	0.019700	0.854600	0.076000
N111	N11	0.927000	0.024400	0.019700
C311	C31	0.893200	0.127700	0.003200
H261	H26	0.902100	0.200500	0.981400
N121	N12	0.843800	0.103900	0.024900
C321	C32	0.847100	0.985900	0.054900
H271	H27	0.819600	0.946500	0.073800
C331	C33	0.898500	0.936800	0.051700
H281	H28	0.911600	0.858500	0.068100
C341	C34	0.790100	0.267200	0.960400
H291	H29	0.817300	0.278300	0.933800
C351	C35	0.797200	0.179500	0.012200
C361	C36	0.757100	0.162000	0.052000
H301	H30	0.762000	0.102300	0.086700
W371	W37	0.396650	0.228510	0.210320
W381	W38	0.381510	0.010460	0.328110
W391	W39	0.485300	0.758890	0.367760
W401	W40	0.398320	0.770550	0.198580
W411	W41	0.475650	0.240030	0.363310
W421	W42	0.423120	0.988130	0.085210
O971	O97	0.455800	0.092300	0.278200
O981	O98	0.375700	0.861100	0.117200
O991	O99	0.529800	0.913000	0.310300
O1001	O100	0.549000	0.685300	0.347400
O1011	O101	0.351300	0.141900	0.261300
O1021	O102	0.372700	0.897700	0.250700
O1031	O103	0.536800	0.278200	0.321400
O1041	O104	0.427100	0.318600	0.293600
O1051	O105	0.468300	0.858100	0.063100
O1061	O106	0.413000	0.146300	0.384100
O1071	O107	0.444300	0.721700	0.282300
O1081	O108	0.520000	0.108300	0.408600
O1091	O109	0.431800	0.891600	0.372200
O1101	O110	0.391000	0.104200	0.145400
O1111	O111	0.464200	0.644900	0.420500
O1121	O112	0.480300	0.354600	0.424000
N131	N13	0.573000	0.524400	0.480300
C371	C37	0.606800	0.627700	0.496800
H311	H31	0.597900	0.700500	0.518600
N141	N14	0.656200	0.603900	0.475100
C381	C38	0.652900	0.485900	0.445100
H321	H32	0.680400	0.446500	0.426200
C391	C39	0.601500	0.436800	0.448300
H331	H33	0.588400	0.358500	0.431900
C401	C40	0.709900	0.767200	0.539600
H341	H34	0.682700	0.778300	0.566200
C411	C41	0.702800	0.679500	0.487800
C421	C42	0.742900	0.662000	0.448000
H351	H35	0.738000	0.602300	0.413300
W431	W43	0.896650	0.728510	0.210320
W441	W44	0.881510	0.510460	0.328110
W451	W45	0.985300	0.258890	0.367760
W461	W46	0.898320	0.270550	0.198580
W471	W47	0.975650	0.740030	0.363310
W481	W48	0.923120	0.488130	0.085210
O1131	O113	0.955800	0.592300	0.278200
O1141	O114	0.875700	0.361100	0.117200
O1151	O115	0.029800	0.413000	0.310300
O1161	O116	0.049000	0.185300	0.347400
O1171	O117	0.851300	0.641900	0.261300
O1181	O118	0.872700	0.397700	0.250700
O1191	O119	0.036800	0.778200	0.321400
O1201	O120	0.927100	0.818600	0.293600
O1211	O121	0.968300	0.358100	0.063100
O1221	O122	0.913000	0.646300	0.384100
O1231	O123	0.944300	0.221700	0.282300
O1241	O124	0.020000	0.608300	0.408600
O1251	O125	0.931800	0.391600	0.372200
O1261	O126	0.891000	0.604200	0.145400
O1271	O127	0.964200	0.144900	0.420500
O1281	O128	0.980300	0.854600	0.424000
N151	N15	0.073000	0.024400	0.480300
C431	C43	0.106800	0.127700	0.496800
H361	H36	0.097900	0.200500	0.518600
N161	N16	0.156200	0.103900	0.475100
C441	C44	0.152900	0.985900	0.445100
H371	H37	0.180400	0.946500	0.426200
C451	C45	0.101500	0.936800	0.448300
H381	H38	0.088400	0.858500	0.431900
C461	C46	0.209900	0.267200	0.539600
H391	H39	0.182700	0.278300	0.566200
C471	C47	0.202800	0.179500	0.487800
C481	C48	0.242900	0.162000	0.448000
H401	H40	0.238000	0.102300	0.413300
Si11	Si1	0.500000	0.000000	0.750000
Si21	Si2	0.000000	0.500000	0.750000
Si31	Si3	0.500000	0.000000	0.250000
Si41	Si4	0.000000	0.500000	0.250000
Cu11	Cu1	0.500000	0.500000	0.000000
Cu21	Cu2	0.000000	0.000000	0.000000
Cu31	Cu3	0.500000	0.500000	0.500000
Cu41	Cu4	0.000000	0.000000	0.500000
