data_PURQEZ_clean_PM
_symmetry_space_group_name_H-M	'P1'
_cell_length_a	8.940000
_cell_length_b	12.480000
_cell_length_c	14.020000
_cell_angle_alpha	90.000000
_cell_angle_beta	90.000000
_cell_angle_gamma	91.730000
_symmetry_Int_Tables_number 1

loop_
_symmetry_equiv_pos_as_xyz
'x,y,z'

loop_
_atom_site_label
_atom_site_type_symbol
_atom_site_fract_x
_atom_site_fract_y
_atom_site_fract_z
Zn11	Zn1	0.750000	0.250000	0.326330
Zn21	Zn2	0.750000	0.250000	0.838740
Zn31	Zn3	0.250000	0.750000	0.673670
Zn41	Zn4	0.250000	0.750000	0.161260
H11	H1	0.441000	0.464600	0.152500
H21	H2	0.451100	0.355700	0.093900
H31	H3	0.622200	0.546800	0.055600
H41	H4	0.025800	0.497600	0.662200
H51	H5	0.064800	0.380700	0.624700
H61	H6	0.849100	0.508700	0.532600
H71	H7	0.059000	0.035400	0.152500
H81	H8	0.048900	0.144300	0.093900
H91	H9	0.877800	0.953200	0.055600
H101	H10	0.474200	0.002400	0.662200
H111	H11	0.435200	0.119300	0.624700
H121	H12	0.650900	0.991300	0.532600
H131	H13	0.559000	0.535400	0.847500
H141	H14	0.548900	0.644300	0.906100
H151	H15	0.377800	0.453200	0.944400
H161	H16	0.974200	0.502400	0.337800
H171	H17	0.935200	0.619300	0.375300
H181	H18	0.150900	0.491300	0.467400
H191	H19	0.941000	0.964600	0.847500
H201	H20	0.951100	0.855700	0.906100
H211	H21	0.122200	0.046800	0.944400
H221	H22	0.525800	0.997600	0.337800
H231	H23	0.564800	0.880700	0.375300
H241	H24	0.349100	0.008700	0.467400
C11	C1	0.624300	0.378300	0.188300
C21	C2	0.510500	0.418500	0.117500
C31	C3	0.568200	0.481000	0.031300
C41	C4	0.681200	0.416800	0.973300
C51	C5	0.853900	0.384900	0.687200
C61	C6	0.984600	0.433600	0.628400
C71	C7	0.941600	0.465800	0.527700
C81	C8	0.904200	0.370500	0.467200
C91	C9	0.875700	0.121700	0.188300
C101	C10	0.989500	0.081500	0.117500
C111	C11	0.931800	0.019000	0.031300
C121	C12	0.818800	0.083200	0.973300
C131	C13	0.646100	0.115100	0.687200
C141	C14	0.515400	0.066400	0.628400
C151	C15	0.558400	0.034200	0.527700
C161	C16	0.595800	0.129500	0.467200
C171	C17	0.375700	0.621700	0.811700
C181	C18	0.489500	0.581500	0.882500
C191	C19	0.431800	0.519000	0.968700
C201	C20	0.318800	0.583200	0.026700
C211	C21	0.146100	0.615100	0.312800
C221	C22	0.015400	0.566400	0.371600
C231	C23	0.058400	0.534200	0.472300
C241	C24	0.095800	0.629500	0.532800
C251	C25	0.124300	0.878300	0.811700
C261	C26	0.010500	0.918500	0.882500
C271	C27	0.068200	0.981000	0.968700
C281	C28	0.181200	0.916800	0.026700
C291	C29	0.353900	0.884900	0.312800
C301	C30	0.484600	0.933600	0.371600
C311	C31	0.441600	0.965800	0.472300
C321	C32	0.404200	0.870500	0.532800
O11	O1	0.584800	0.303100	0.245400
O21	O2	0.814200	0.439400	0.973700
O31	O3	0.622700	0.336600	0.922300
O41	O4	0.899600	0.335300	0.769200
O51	O5	0.726600	0.393200	0.668300
O61	O6	0.784500	0.372000	0.414600
O71	O7	0.988800	0.293400	0.462500
O81	O8	0.755000	0.425200	0.193400
O91	O9	0.915200	0.196900	0.245400
O101	O10	0.685800	0.060600	0.973700
O111	O11	0.877300	0.163400	0.922300
O121	O12	0.600400	0.164700	0.769200
O131	O13	0.773400	0.106800	0.668300
O141	O14	0.715500	0.128000	0.414600
O151	O15	0.511200	0.206600	0.462500
O161	O16	0.745000	0.074800	0.193400
O171	O17	0.415200	0.696900	0.754600
O181	O18	0.185800	0.560600	0.026300
O191	O19	0.377300	0.663400	0.077700
O201	O20	0.100400	0.664700	0.230800
O211	O21	0.273400	0.606800	0.331700
O221	O22	0.215500	0.628000	0.585400
O231	O23	0.011200	0.706600	0.537500
O241	O24	0.245000	0.574800	0.806600
O251	O25	0.084800	0.803100	0.754600
O261	O26	0.314200	0.939400	0.026300
O271	O27	0.122700	0.836600	0.077700
O281	O28	0.399600	0.835300	0.230800
O291	O29	0.226600	0.893200	0.331700
O301	O30	0.284500	0.872000	0.585400
O311	O31	0.488800	0.793400	0.537500
O321	O32	0.255000	0.925200	0.806600
