data_PURSOK_clean_PM
_symmetry_space_group_name_H-M	'P1'
_cell_length_a	9.726000
_cell_length_b	9.911000
_cell_length_c	10.450000
_cell_angle_alpha	99.720000
_cell_angle_beta	111.110000
_cell_angle_gamma	108.420000
_symmetry_Int_Tables_number 1

loop_
_symmetry_equiv_pos_as_xyz
'x,y,z'

loop_
_atom_site_label
_atom_site_type_symbol
_atom_site_fract_x
_atom_site_fract_y
_atom_site_fract_z
Zn11	Zn1	0.427200	0.602600	0.789300
Zn21	Zn2	0.572800	0.397400	0.210700
Zn31	Zn3	0.500000	0.500000	0.500000
H11	H1	0.167400	0.052000	0.388700
H21	H2	0.027100	0.187800	0.683000
H31	H3	0.847600	0.576700	0.096800
H41	H4	0.930800	0.452600	0.756000
H51	H5	0.354300	0.743100	0.401400
H61	H6	0.669200	0.106400	0.744000
H71	H7	0.832600	0.948000	0.611300
H81	H8	0.972900	0.812200	0.317000
H91	H9	0.152400	0.423300	0.903200
H101	H10	0.069200	0.547400	0.244000
H111	H11	0.645700	0.256900	0.598600
H121	H12	0.330800	0.893600	0.256000
C11	C1	0.246300	0.301500	0.591200
C21	C2	0.119000	0.145200	0.545100
C31	C3	0.100400	0.031500	0.434200
C41	C4	0.017100	0.112500	0.609300
C51	C5	0.712800	0.527500	0.810600
C61	C6	0.862100	0.514300	0.909500
C71	C7	0.908200	0.545000	0.057400
C81	C8	0.957900	0.470900	0.854100
C91	C9	0.527500	0.811500	0.681300
C101	C10	0.516200	0.910000	0.587500
C111	C11	0.413500	0.846500	0.441400
C121	C12	0.601100	0.063200	0.645300
C131	C13	0.753700	0.698500	0.408800
C141	C14	0.881000	0.854800	0.454900
C151	C15	0.899600	0.968500	0.565800
C161	C16	0.982900	0.887500	0.390700
C171	C17	0.287200	0.472500	0.189400
C181	C18	0.137900	0.485700	0.090500
C191	C19	0.091800	0.455000	0.942600
C201	C20	0.042100	0.529100	0.145900
C211	C21	0.472500	0.188500	0.318700
C221	C22	0.483800	0.090000	0.412500
C231	C23	0.586500	0.153500	0.558600
C241	C24	0.398900	0.936800	0.354700
O11	O1	0.331700	0.326700	0.525900
O21	O2	0.258300	0.396400	0.697300
O31	O3	0.691800	0.524200	0.685400
O41	O4	0.617900	0.541000	0.864900
O51	O5	0.455600	0.669000	0.621500
O61	O6	0.597000	0.866500	0.815800
O71	O7	0.668300	0.673300	0.474100
O81	O8	0.741700	0.603600	0.302700
O91	O9	0.308200	0.475800	0.314600
O101	O10	0.382100	0.459000	0.135100
O111	O11	0.544400	0.331000	0.378500
O121	O12	0.403000	0.133500	0.184200
