data_PUTYEI_clean_PM
_symmetry_space_group_name_H-M	'P1'
_cell_length_a	12.463000
_cell_length_b	12.463000
_cell_length_c	12.463000
_cell_angle_alpha	90.000000
_cell_angle_beta	90.000000
_cell_angle_gamma	90.000000
_symmetry_Int_Tables_number 1

loop_
_symmetry_equiv_pos_as_xyz
'x,y,z'

loop_
_atom_site_label
_atom_site_type_symbol
_atom_site_fract_x
_atom_site_fract_y
_atom_site_fract_z
C11	C1	0.690100	0.319200	0.950700
C21	C2	0.602300	0.266600	0.906300
N11	N1	0.561600	0.175000	0.955300
C31	C3	0.608700	0.136100	0.048600
C41	C4	0.696500	0.188700	0.092900
N21	N2	0.280300	0.044000	0.737200
C51	C5	0.809900	0.680800	0.450700
C61	C6	0.897700	0.733400	0.406300
N31	N3	0.938400	0.825000	0.455300
C71	C7	0.891300	0.863900	0.548600
C81	C8	0.803500	0.811300	0.592900
N41	N4	0.219700	0.956000	0.237200
C91	C9	0.309900	0.819200	0.549300
C101	C10	0.397700	0.766600	0.593700
N51	N5	0.438400	0.675000	0.544700
C111	C11	0.391300	0.636100	0.451400
C121	C12	0.303500	0.688700	0.407100
N61	N6	0.719700	0.544000	0.762800
C131	C13	0.190100	0.180800	0.049300
C141	C14	0.102300	0.233400	0.093700
N71	N7	0.061600	0.325000	0.044700
C151	C15	0.108700	0.363900	0.951400
C161	C16	0.196500	0.311300	0.907100
N81	N8	0.780300	0.456000	0.262800
C171	C17	0.950700	0.690100	0.319200
C181	C18	0.906300	0.602300	0.266600
N91	N9	0.955300	0.561600	0.175000
C191	C19	0.048600	0.608700	0.136100
C201	C20	0.092900	0.696500	0.188700
N101	N10	0.737200	0.280300	0.044000
C211	C21	0.450700	0.809900	0.680800
C221	C22	0.406300	0.897700	0.733400
N111	N11	0.455300	0.938400	0.825000
C231	C23	0.548600	0.891300	0.863900
C241	C24	0.592900	0.803500	0.811300
N121	N12	0.237200	0.219700	0.956000
C251	C25	0.549300	0.309900	0.819200
C261	C26	0.593700	0.397700	0.766600
N131	N13	0.544700	0.438400	0.675000
C271	C27	0.451400	0.391300	0.636100
C281	C28	0.407100	0.303500	0.688700
N141	N14	0.762800	0.719700	0.544000
C291	C29	0.049300	0.190100	0.180800
C301	C30	0.093700	0.102300	0.233400
N151	N15	0.044700	0.061600	0.325000
C311	C31	0.951400	0.108700	0.363900
C321	C32	0.907100	0.196500	0.311300
N161	N16	0.262800	0.780300	0.456000
C331	C33	0.319200	0.950700	0.690100
C341	C34	0.266600	0.906300	0.602300
N171	N17	0.175000	0.955300	0.561600
C351	C35	0.136100	0.048600	0.608700
C361	C36	0.188700	0.092900	0.696500
N181	N18	0.044000	0.737200	0.280300
C371	C37	0.680800	0.450700	0.809900
C381	C38	0.733400	0.406300	0.897700
N191	N19	0.825000	0.455300	0.938400
C391	C39	0.863900	0.548600	0.891300
C401	C40	0.811300	0.592900	0.803500
N201	N20	0.956000	0.237200	0.219700
C411	C41	0.819200	0.549300	0.309900
C421	C42	0.766600	0.593700	0.397700
N211	N21	0.675000	0.544700	0.438400
C431	C43	0.636100	0.451400	0.391300
C441	C44	0.688700	0.407100	0.303500
N221	N22	0.544000	0.762800	0.719700
C451	C45	0.180800	0.049300	0.190100
C461	C46	0.233400	0.093700	0.102300
N231	N23	0.325000	0.044700	0.061600
C471	C47	0.363900	0.951400	0.108700
C481	C48	0.311300	0.907100	0.196500
N241	N24	0.456000	0.262800	0.780300
Ag11	Ag1	0.387700	0.112300	0.887700
Ag21	Ag2	0.112300	0.887700	0.387700
Ag31	Ag3	0.612300	0.612300	0.612300
Ag41	Ag4	0.887700	0.387700	0.112300
