data_PUWCUF_clean_PM
_symmetry_space_group_name_H-M	'P1'
_cell_length_a	15.745000
_cell_length_b	16.907000
_cell_length_c	18.167000
_cell_angle_alpha	90.000000
_cell_angle_beta	90.000000
_cell_angle_gamma	90.000000
_symmetry_Int_Tables_number 1

loop_
_symmetry_equiv_pos_as_xyz
'x,y,z'

loop_
_atom_site_label
_atom_site_type_symbol
_atom_site_fract_x
_atom_site_fract_y
_atom_site_fract_z
Zn11	Zn1	0.434100	0.823100	0.644400
Zn21	Zn2	0.479300	0.642100	0.589200
Zn31	Zn3	0.065900	0.176900	0.144400
Zn41	Zn4	0.020700	0.357900	0.089200
Zn51	Zn5	0.565900	0.323100	0.855600
Zn61	Zn6	0.520700	0.142100	0.910800
Zn71	Zn7	0.934100	0.676900	0.355600
Zn81	Zn8	0.979300	0.857900	0.410800
Zn91	Zn9	0.565900	0.176900	0.355600
Zn101	Zn10	0.520700	0.357900	0.410800
Zn111	Zn11	0.934100	0.823100	0.855600
Zn121	Zn12	0.979300	0.642100	0.910800
Zn131	Zn13	0.434100	0.676900	0.144400
Zn141	Zn14	0.479300	0.857900	0.089200
Zn151	Zn15	0.065900	0.323100	0.644400
Zn161	Zn16	0.020700	0.142100	0.589200
H11	H1	0.469400	0.795200	0.368500
H21	H2	0.533400	0.721400	0.365400
H31	H3	0.595000	0.931800	0.261700
H41	H4	0.507000	0.923400	0.305400
H51	H5	0.732700	0.937100	0.333300
H61	H6	0.732100	0.932200	0.421200
H71	H7	0.672900	0.727700	0.434800
H81	H8	0.696000	0.803400	0.483900
H91	H9	0.591900	0.920900	0.490500
H101	H10	0.505000	0.916800	0.444500
H111	H11	0.697300	0.816700	0.258800
H121	H12	0.673900	0.735800	0.300000
H131	H13	0.030600	0.204800	0.868500
H141	H14	0.966600	0.278600	0.865400
H151	H15	0.905000	0.068200	0.761700
H161	H16	0.993000	0.076600	0.805400
H171	H17	0.767300	0.062900	0.833300
H181	H18	0.767900	0.067800	0.921200
H191	H19	0.827100	0.272300	0.934800
H201	H20	0.804000	0.196600	0.983900
H211	H21	0.908100	0.079100	0.990500
H221	H22	0.995000	0.083200	0.944500
H231	H23	0.802700	0.183300	0.758800
H241	H24	0.826100	0.264200	0.800000
H251	H25	0.530600	0.295200	0.131500
H261	H26	0.466600	0.221400	0.134600
H271	H27	0.405000	0.431800	0.238300
H281	H28	0.493000	0.423400	0.194600
H291	H29	0.267300	0.437100	0.166700
H301	H30	0.267900	0.432200	0.078800
H311	H31	0.327100	0.227700	0.065200
H321	H32	0.304000	0.303400	0.016100
H331	H33	0.408100	0.420900	0.009500
H341	H34	0.495000	0.416800	0.055500
H351	H35	0.302700	0.316700	0.241200
H361	H36	0.326100	0.235800	0.200000
H371	H37	0.969400	0.704800	0.631500
H381	H38	0.033400	0.778600	0.634600
H391	H39	0.095000	0.568200	0.738300
H401	H40	0.007000	0.576600	0.694600
H411	H41	0.232700	0.562900	0.666700
H421	H42	0.232100	0.567800	0.578800
H431	H43	0.172900	0.772300	0.565200
H441	H44	0.196000	0.696600	0.516100
H451	H45	0.091900	0.579100	0.509500
H461	H46	0.005000	0.583200	0.555500
H471	H47	0.197300	0.683300	0.741200
H481	H48	0.173900	0.764200	0.700000
H491	H49	0.530600	0.204800	0.631500
H501	H50	0.466600	0.278600	0.634600
H511	H51	0.405000	0.068200	0.738300
H521	H52	0.493000	0.076600	0.694600
H531	H53	0.267300	0.062900	0.666700
H541	H54	0.267900	0.067800	0.578800
H551	H55	0.327100	0.272300	0.565200
H561	H56	0.304000	0.196600	0.516100
H571	H57	0.408100	0.079100	0.509500
H581	H58	0.495000	0.083200	0.555500
H591	H59	0.302700	0.183300	0.741200
H601	H60	0.326100	0.264200	0.700000
H611	H61	0.969400	0.795200	0.131500
H621	H62	0.033400	0.721400	0.134600
H631	H63	0.095000	0.931800	0.238300
H641	H64	0.007000	0.923400	0.194600
H651	H65	0.232700	0.937100	0.166700
H661	H66	0.232100	0.932200	0.078800
H671	H67	0.172900	0.727700	0.065200
H681	H68	0.196000	0.803400	0.016100
H691	H69	0.091900	0.920900	0.009500
H701	H70	0.005000	0.916800	0.055500
H711	H71	0.197300	0.816700	0.241200
H721	H72	0.173900	0.735800	0.200000
H731	H73	0.469400	0.704800	0.868500
H741	H74	0.533400	0.778600	0.865400
H751	H75	0.595000	0.568200	0.761700
H761	H76	0.507000	0.576600	0.805400
H771	H77	0.732700	0.562900	0.833300
H781	H78	0.732100	0.567800	0.921200
H791	H79	0.672900	0.772300	0.934800
H801	H80	0.696000	0.696600	0.983900
H811	H81	0.591900	0.579100	0.990500
H821	H82	0.505000	0.583200	0.944500
H831	H83	0.697300	0.683300	0.758800
H841	H84	0.673900	0.764200	0.800000
H851	H85	0.030600	0.295200	0.368500
H861	H86	0.966600	0.221400	0.365400
H871	H87	0.905000	0.431800	0.261700
H881	H88	0.993000	0.423400	0.305400
H891	H89	0.767300	0.437100	0.333300
H901	H90	0.767900	0.432200	0.421200
H911	H91	0.827100	0.227700	0.434800
H921	H92	0.804000	0.303400	0.483900
H931	H93	0.908100	0.420900	0.490500
H941	H94	0.995000	0.416800	0.444500
H951	H95	0.802700	0.316700	0.258800
H961	H96	0.826100	0.235800	0.300000
C11	C1	0.530300	0.770100	0.505900
C21	C2	0.573600	0.809200	0.440300
C31	C3	0.530000	0.779800	0.368400
C41	C4	0.575100	0.816900	0.301500
C51	C5	0.567600	0.907900	0.305400
C61	C6	0.611400	0.939000	0.376800
C71	C7	0.703700	0.912900	0.376000
C81	C8	0.712800	0.823600	0.371800
C91	C9	0.667900	0.786000	0.437900
C101	C10	0.565700	0.901400	0.444400
C111	C11	0.668800	0.794100	0.302600
C121	C12	0.532800	0.789900	0.230600
C131	C13	0.606400	0.028900	0.381800
C141	C14	0.806100	0.799300	0.374100
C151	C15	0.969700	0.229900	0.005900
C161	C16	0.926400	0.190800	0.940300
C171	C17	0.970000	0.220200	0.868400
C181	C18	0.924900	0.183100	0.801500
C191	C19	0.932400	0.092100	0.805400
C201	C20	0.888600	0.061000	0.876800
C211	C21	0.796300	0.087100	0.876000
C221	C22	0.787200	0.176400	0.871800
C231	C23	0.832100	0.214000	0.937900
C241	C24	0.934300	0.098600	0.944400
C251	C25	0.831200	0.205900	0.802600
C261	C26	0.967200	0.210100	0.730600
C271	C27	0.893600	0.971100	0.881800
C281	C28	0.693900	0.200700	0.874100
C291	C29	0.469700	0.270100	0.994100
C301	C30	0.426400	0.309200	0.059700
C311	C31	0.470000	0.279800	0.131600
C321	C32	0.424900	0.316900	0.198500
C331	C33	0.432400	0.407900	0.194600
C341	C34	0.388600	0.439000	0.123200
C351	C35	0.296300	0.412900	0.124000
C361	C36	0.287200	0.323600	0.128200
C371	C37	0.332100	0.286000	0.062100
C381	C38	0.434300	0.401400	0.055600
C391	C39	0.331200	0.294100	0.197400
C401	C40	0.467200	0.289900	0.269400
C411	C41	0.393600	0.528900	0.118200
C421	C42	0.193900	0.299300	0.125900
C431	C43	0.030300	0.729900	0.494100
C441	C44	0.073600	0.690800	0.559700
C451	C45	0.030000	0.720200	0.631600
C461	C46	0.075100	0.683100	0.698500
C471	C47	0.067600	0.592100	0.694600
C481	C48	0.111400	0.561000	0.623200
C491	C49	0.203700	0.587100	0.624000
C501	C50	0.212800	0.676400	0.628200
C511	C51	0.167900	0.714000	0.562100
C521	C52	0.065700	0.598600	0.555600
C531	C53	0.168800	0.705900	0.697400
C541	C54	0.032800	0.710100	0.769400
C551	C55	0.106400	0.471100	0.618200
C561	C56	0.306100	0.700700	0.625900
C571	C57	0.469700	0.229900	0.494100
C581	C58	0.426400	0.190800	0.559700
C591	C59	0.470000	0.220200	0.631600
C601	C60	0.424900	0.183100	0.698500
C611	C61	0.432400	0.092100	0.694600
C621	C62	0.388600	0.061000	0.623200
C631	C63	0.296300	0.087100	0.624000
C641	C64	0.287200	0.176400	0.628200
C651	C65	0.332100	0.214000	0.562100
C661	C66	0.434300	0.098600	0.555600
C671	C67	0.331200	0.205900	0.697400
C681	C68	0.467200	0.210100	0.769400
C691	C69	0.393600	0.971100	0.618200
C701	C70	0.193900	0.200700	0.625900
C711	C71	0.030300	0.770100	0.994100
C721	C72	0.073600	0.809200	0.059700
C731	C73	0.030000	0.779800	0.131600
C741	C74	0.075100	0.816900	0.198500
C751	C75	0.067600	0.907900	0.194600
C761	C76	0.111400	0.939000	0.123200
C771	C77	0.203700	0.912900	0.124000
C781	C78	0.212800	0.823600	0.128200
C791	C79	0.167900	0.786000	0.062100
C801	C80	0.065700	0.901400	0.055600
C811	C81	0.168800	0.794100	0.197400
C821	C82	0.032800	0.789900	0.269400
C831	C83	0.106400	0.028900	0.118200
C841	C84	0.306100	0.799300	0.125900
C851	C85	0.530300	0.729900	0.005900
C861	C86	0.573600	0.690800	0.940300
C871	C87	0.530000	0.720200	0.868400
C881	C88	0.575100	0.683100	0.801500
C891	C89	0.567600	0.592100	0.805400
C901	C90	0.611400	0.561000	0.876800
C911	C91	0.703700	0.587100	0.876000
C921	C92	0.712800	0.676400	0.871800
C931	C93	0.667900	0.714000	0.937900
C941	C94	0.565700	0.598600	0.944400
C951	C95	0.668800	0.705900	0.802600
C961	C96	0.532800	0.710100	0.730600
C971	C97	0.606400	0.471100	0.881800
C981	C98	0.806100	0.700700	0.874100
C991	C99	0.969700	0.270100	0.505900
C1001	C100	0.926400	0.309200	0.440300
C1011	C101	0.970000	0.279800	0.368400
C1021	C102	0.924900	0.316900	0.301500
C1031	C103	0.932400	0.407900	0.305400
C1041	C104	0.888600	0.439000	0.376800
C1051	C105	0.796300	0.412900	0.376000
C1061	C106	0.787200	0.323600	0.371800
C1071	C107	0.832100	0.286000	0.437900
C1081	C108	0.934300	0.401400	0.444400
C1091	C109	0.831200	0.294100	0.302600
C1101	C110	0.967200	0.289900	0.230600
C1111	C111	0.893600	0.528900	0.381800
C1121	C112	0.693900	0.299300	0.374100
O11	O1	0.508100	0.813800	0.557900
O21	O2	0.520800	0.697600	0.504000
O31	O3	0.489800	0.728300	0.230500
O41	O4	0.549700	0.830400	0.173900
O51	O5	0.566600	0.066000	0.330100
O61	O6	0.636800	0.064300	0.433800
O71	O7	0.859300	0.850200	0.392000
O81	O8	0.822700	0.729500	0.358200
O91	O9	0.991900	0.186200	0.057900
O101	O10	0.979200	0.302400	0.004000
O111	O11	0.010200	0.271700	0.730500
O121	O12	0.950300	0.169600	0.673900
O131	O13	0.933400	0.934000	0.830100
O141	O14	0.863200	0.935700	0.933800
O151	O15	0.640700	0.149800	0.892000
O161	O16	0.677300	0.270500	0.858200
O171	O17	0.491900	0.313800	0.942100
O181	O18	0.479200	0.197600	0.996000
O191	O19	0.510200	0.228300	0.269500
O201	O20	0.450300	0.330400	0.326100
O211	O21	0.433400	0.566000	0.169900
O221	O22	0.363200	0.564300	0.066200
O231	O23	0.140700	0.350200	0.108000
O241	O24	0.177300	0.229500	0.141800
O251	O25	0.008100	0.686200	0.442100
O261	O26	0.020800	0.802400	0.496000
O271	O27	0.989800	0.771700	0.769500
O281	O28	0.049700	0.669600	0.826100
O291	O29	0.066600	0.434000	0.669900
O301	O30	0.136800	0.435700	0.566200
O311	O31	0.359300	0.649800	0.608000
O321	O32	0.322700	0.770500	0.641800
O331	O33	0.491900	0.186200	0.442100
O341	O34	0.479200	0.302400	0.496000
O351	O35	0.510200	0.271700	0.769500
O361	O36	0.450300	0.169600	0.826100
O371	O37	0.433400	0.934000	0.669900
O381	O38	0.363200	0.935700	0.566200
O391	O39	0.140700	0.149800	0.608000
O401	O40	0.177300	0.270500	0.641800
O411	O41	0.008100	0.813800	0.942100
O421	O42	0.020800	0.697600	0.996000
O431	O43	0.989800	0.728300	0.269500
O441	O44	0.049700	0.830400	0.326100
O451	O45	0.066600	0.066000	0.169900
O461	O46	0.136800	0.064300	0.066200
O471	O47	0.359300	0.850200	0.108000
O481	O48	0.322700	0.729500	0.141800
O491	O49	0.508100	0.686200	0.057900
O501	O50	0.520800	0.802400	0.004000
O511	O51	0.489800	0.771700	0.730500
O521	O52	0.549700	0.669600	0.673900
O531	O53	0.566600	0.434000	0.830100
O541	O54	0.636800	0.435700	0.933800
O551	O55	0.859300	0.649800	0.892000
O561	O56	0.822700	0.770500	0.858200
O571	O57	0.991900	0.313800	0.557900
O581	O58	0.979200	0.197600	0.504000
O591	O59	0.010200	0.228300	0.230500
O601	O60	0.950300	0.330400	0.173900
O611	O61	0.933400	0.566000	0.330100
O621	O62	0.863200	0.564300	0.433800
O631	O63	0.640700	0.350200	0.392000
O641	O64	0.677300	0.229500	0.358200
