data_PUWXAH_clean_PM
_symmetry_space_group_name_H-M	'P1'
_cell_length_a	9.753000
_cell_length_b	12.751000
_cell_length_c	14.174000
_cell_angle_alpha	90.000000
_cell_angle_beta	109.410000
_cell_angle_gamma	90.000000
_symmetry_Int_Tables_number 1

loop_
_symmetry_equiv_pos_as_xyz
'x,y,z'

loop_
_atom_site_label
_atom_site_type_symbol
_atom_site_fract_x
_atom_site_fract_y
_atom_site_fract_z
Mn11	Mn1	0.556740	0.724220	0.148580
O11	O1	0.671600	0.585200	0.117300
O21	O2	0.803400	0.728200	0.148000
O31	O3	0.350800	0.692100	0.185200
O41	O4	0.376800	0.567500	0.086100
O51	O5	0.131100	0.233300	0.120100
O61	O6	0.903000	0.239500	0.114500
C11	C1	0.919600	0.567900	0.129000
C21	C2	0.050200	0.616900	0.135800
C31	C3	0.168800	0.557300	0.135000
C41	C4	0.157800	0.448500	0.128900
C51	C5	0.030000	0.399500	0.125400
C61	C6	0.909400	0.460300	0.124900
C71	C7	0.792700	0.631400	0.130700
C81	C8	0.307200	0.608100	0.135600
C91	C9	0.014300	0.284100	0.119200
O71	O7	0.451000	0.882400	0.311200
O81	O8	0.513400	0.219400	0.000700
O91	O9	0.529400	0.366700	0.088800
C101	C10	0.512300	0.099200	0.168000
C111	C11	0.511100	0.208400	0.168000
C121	C12	0.519700	0.269700	0.079500
H11	H1	0.127900	0.155000	0.123400
H21	H2	0.058400	0.695000	0.141300
H31	H3	0.242800	0.405700	0.127100
H41	H4	0.816200	0.425300	0.121700
H51	H5	0.521800	0.059900	0.109400
Mn21	Mn2	0.443260	0.724220	0.351420
O101	O10	0.328400	0.585200	0.382700
O111	O11	0.196600	0.728200	0.352000
O121	O12	0.649200	0.692100	0.314800
O131	O13	0.623200	0.567500	0.413900
O141	O14	0.868900	0.233300	0.379900
O151	O15	0.097000	0.239500	0.385500
C131	C13	0.080400	0.567900	0.371000
C141	C14	0.949800	0.616900	0.364200
C151	C15	0.831200	0.557300	0.365000
C161	C16	0.842200	0.448500	0.371100
C171	C17	0.970000	0.399500	0.374600
C181	C18	0.090600	0.460300	0.375100
C191	C19	0.207300	0.631400	0.369300
C201	C20	0.692800	0.608100	0.364400
C211	C21	0.985700	0.284100	0.380800
O161	O16	0.549000	0.882400	0.188800
O171	O17	0.486600	0.219400	0.499300
O181	O18	0.470600	0.366700	0.411200
C221	C22	0.487700	0.099200	0.332000
C231	C23	0.488900	0.208400	0.332000
C241	C24	0.480300	0.269700	0.420500
H61	H6	0.872100	0.155000	0.376600
H71	H7	0.941600	0.695000	0.358700
H81	H8	0.757200	0.405700	0.372900
H91	H9	0.183800	0.425300	0.378300
H101	H10	0.478200	0.059900	0.390600
Mn31	Mn3	0.443260	0.275780	0.851420
O191	O19	0.328400	0.414800	0.882700
O201	O20	0.196600	0.271800	0.852000
O211	O21	0.649200	0.307900	0.814800
O221	O22	0.623200	0.432500	0.913900
O231	O23	0.868900	0.766700	0.879900
O241	O24	0.097000	0.760500	0.885500
C251	C25	0.080400	0.432100	0.871000
C261	C26	0.949800	0.383100	0.864200
C271	C27	0.831200	0.442700	0.865000
C281	C28	0.842200	0.551500	0.871100
C291	C29	0.970000	0.600500	0.874600
C301	C30	0.090600	0.539700	0.875100
C311	C31	0.207300	0.368600	0.869300
C321	C32	0.692800	0.391900	0.864400
C331	C33	0.985700	0.715900	0.880800
O251	O25	0.549000	0.117600	0.688800
O261	O26	0.486600	0.780600	0.999300
O271	O27	0.470600	0.633300	0.911200
C341	C34	0.487700	0.900800	0.832000
C351	C35	0.488900	0.791600	0.832000
C361	C36	0.480300	0.730300	0.920500
H111	H11	0.872100	0.845000	0.876600
H121	H12	0.941600	0.305000	0.858700
H131	H13	0.757200	0.594300	0.872900
H141	H14	0.183800	0.574700	0.878300
H151	H15	0.478200	0.940100	0.890600
Mn41	Mn4	0.556740	0.275780	0.648580
O281	O28	0.671600	0.414800	0.617300
O291	O29	0.803400	0.271800	0.648000
O301	O30	0.350800	0.307900	0.685200
O311	O31	0.376800	0.432500	0.586100
O321	O32	0.131100	0.766700	0.620100
O331	O33	0.903000	0.760500	0.614500
C371	C37	0.919600	0.432100	0.629000
C381	C38	0.050200	0.383100	0.635800
C391	C39	0.168800	0.442700	0.635000
C401	C40	0.157800	0.551500	0.628900
C411	C41	0.030000	0.600500	0.625400
C421	C42	0.909400	0.539700	0.624900
C431	C43	0.792700	0.368600	0.630700
C441	C44	0.307200	0.391900	0.635600
C451	C45	0.014300	0.715900	0.619200
O341	O34	0.451000	0.117600	0.811200
O351	O35	0.513400	0.780600	0.500700
O361	O36	0.529400	0.633300	0.588800
C461	C46	0.512300	0.900800	0.668000
C471	C47	0.511100	0.791600	0.668000
C481	C48	0.519700	0.730300	0.579500
H161	H16	0.127900	0.845000	0.623400
H171	H17	0.058400	0.305000	0.641300
H181	H18	0.242800	0.594300	0.627100
H191	H19	0.816200	0.574700	0.621700
H201	H20	0.521800	0.940100	0.609400
Mn51	Mn5	0.500000	0.500000	0.000000
Mn61	Mn6	0.500000	0.500000	0.500000
C491	C49	0.500000	0.045100	0.250000
C501	C50	0.500000	0.261700	0.250000
C511	C51	0.500000	0.927800	0.250000
H211	H21	0.500000	0.340200	0.250000
C521	C52	0.500000	0.954900	0.750000
C531	C53	0.500000	0.738300	0.750000
C541	C54	0.500000	0.072200	0.750000
H221	H22	0.500000	0.659800	0.750000
