data_PUYHOI_clean_PM
_symmetry_space_group_name_H-M	'P1'
_cell_length_a	14.381300
_cell_length_b	14.381300
_cell_length_c	15.769900
_cell_angle_alpha	90.000000
_cell_angle_beta	90.000000
_cell_angle_gamma	120.000000
_symmetry_Int_Tables_number 1

loop_
_symmetry_equiv_pos_as_xyz
'x,y,z'

loop_
_atom_site_label
_atom_site_type_symbol
_atom_site_fract_x
_atom_site_fract_y
_atom_site_fract_z
O11	O1	0.945800	0.382300	0.088900
C11	C1	0.868500	0.348700	0.138000
O21	O2	0.805400	0.385800	0.145900
C21	C2	0.849000	0.256400	0.191800
H11	H1	0.828700	0.192700	0.155800
H21	H2	0.915500	0.273300	0.222900
O31	O3	0.617700	0.563500	0.088900
C31	C3	0.651300	0.519800	0.138000
O41	O4	0.614200	0.419600	0.145900
C41	C4	0.743600	0.592600	0.191800
H31	H3	0.807300	0.636000	0.155800
H41	H4	0.726700	0.642200	0.222900
O51	O5	0.436500	0.054200	0.088900
C51	C5	0.480200	0.131500	0.138000
O61	O6	0.580400	0.194600	0.145900
C61	C6	0.407400	0.151000	0.191800
H51	H5	0.364000	0.171300	0.155800
H61	H6	0.357800	0.084500	0.222900
O71	O7	0.054200	0.617700	0.088900
C71	C7	0.131500	0.651300	0.138000
O81	O8	0.194600	0.614200	0.145900
C81	C8	0.151000	0.743600	0.191800
H71	H7	0.171300	0.807300	0.155800
H81	H8	0.084500	0.726700	0.222900
O91	O9	0.382300	0.436500	0.088900
C91	C9	0.348700	0.480200	0.138000
O101	O10	0.385800	0.580400	0.145900
C101	C10	0.256400	0.407400	0.191800
H91	H9	0.192700	0.364000	0.155800
H101	H10	0.273300	0.357800	0.222900
O111	O11	0.563500	0.945800	0.088900
C111	C11	0.519800	0.868500	0.138000
O121	O12	0.419600	0.805400	0.145900
C121	C12	0.592600	0.849000	0.191800
H111	H11	0.636000	0.828700	0.155800
H121	H12	0.642200	0.915500	0.222900
O131	O13	0.382300	0.945800	0.411100
C131	C13	0.348700	0.868500	0.362000
O141	O14	0.385800	0.805400	0.354100
C141	C14	0.256400	0.849000	0.308200
H131	H13	0.192700	0.828700	0.344200
H141	H14	0.273300	0.915500	0.277100
O151	O15	0.563500	0.617700	0.411100
C151	C15	0.519800	0.651300	0.362000
O161	O16	0.419600	0.614200	0.354100
C161	C16	0.592600	0.743600	0.308200
H151	H15	0.636000	0.807300	0.344200
H161	H16	0.642200	0.726700	0.277100
O171	O17	0.054200	0.436500	0.411100
C171	C17	0.131500	0.480200	0.362000
O181	O18	0.194600	0.580400	0.354100
C181	C18	0.151000	0.407400	0.308200
H171	H17	0.171300	0.364000	0.344200
H181	H18	0.084500	0.357800	0.277100
O191	O19	0.617700	0.054200	0.411100
C191	C19	0.651300	0.131500	0.362000
O201	O20	0.614200	0.194600	0.354100
C201	C20	0.743600	0.151000	0.308200
H191	H19	0.807300	0.171300	0.344200
H201	H20	0.726700	0.084500	0.277100
O211	O21	0.436500	0.382300	0.411100
C211	C21	0.480200	0.348700	0.362000
O221	O22	0.580400	0.385800	0.354100
C221	C22	0.407400	0.256400	0.308200
H211	H21	0.364000	0.192700	0.344200
H221	H22	0.357800	0.273300	0.277100
O231	O23	0.945800	0.563500	0.411100
C231	C23	0.868500	0.519800	0.362000
O241	O24	0.805400	0.419600	0.354100
C241	C24	0.849000	0.592600	0.308200
H231	H23	0.828700	0.636000	0.344200
H241	H24	0.915500	0.642200	0.277100
O251	O25	0.054200	0.617700	0.911100
C251	C25	0.131500	0.651300	0.862000
O261	O26	0.194600	0.614200	0.854100
C261	C26	0.151000	0.743600	0.808200
H251	H25	0.171300	0.807300	0.844200
H261	H26	0.084500	0.726700	0.777100
O271	O27	0.382300	0.436500	0.911100
C271	C27	0.348700	0.480200	0.862000
O281	O28	0.385800	0.580400	0.854100
C281	C28	0.256400	0.407400	0.808200
H271	H27	0.192700	0.364000	0.844200
H281	H28	0.273300	0.357800	0.777100
O291	O29	0.563500	0.945800	0.911100
C291	C29	0.519800	0.868500	0.862000
O301	O30	0.419600	0.805400	0.854100
C301	C30	0.592600	0.849000	0.808200
H291	H29	0.636000	0.828700	0.844200
H301	H30	0.642200	0.915500	0.777100
O311	O31	0.945800	0.382300	0.911100
C311	C31	0.868500	0.348700	0.862000
O321	O32	0.805400	0.385800	0.854100
C321	C32	0.849000	0.256400	0.808200
H311	H31	0.828700	0.192700	0.844200
H321	H32	0.915500	0.273300	0.777100
O331	O33	0.617700	0.563500	0.911100
C331	C33	0.651300	0.519800	0.862000
O341	O34	0.614200	0.419600	0.854100
C341	C34	0.743600	0.592600	0.808200
H331	H33	0.807300	0.636000	0.844200
H341	H34	0.726700	0.642200	0.777100
O351	O35	0.436500	0.054200	0.911100
C351	C35	0.480200	0.131500	0.862000
O361	O36	0.580400	0.194600	0.854100
C361	C36	0.407400	0.151000	0.808200
H351	H35	0.364000	0.171300	0.844200
H361	H36	0.357800	0.084500	0.777100
O371	O37	0.617700	0.054200	0.588900
C371	C37	0.651300	0.131500	0.638000
O381	O38	0.614200	0.194600	0.645900
C381	C38	0.743600	0.151000	0.691800
H371	H37	0.807300	0.171300	0.655800
H381	H38	0.726700	0.084500	0.722900
O391	O39	0.436500	0.382300	0.588900
C391	C39	0.480200	0.348700	0.638000
O401	O40	0.580400	0.385800	0.645900
C401	C40	0.407400	0.256400	0.691800
H391	H39	0.364000	0.192700	0.655800
H401	H40	0.357800	0.273300	0.722900
O411	O41	0.945800	0.563500	0.588900
C411	C41	0.868500	0.519800	0.638000
O421	O42	0.805400	0.419600	0.645900
C421	C42	0.849000	0.592600	0.691800
H411	H41	0.828700	0.636000	0.655800
H421	H42	0.915500	0.642200	0.722900
O431	O43	0.382300	0.945800	0.588900
C431	C43	0.348700	0.868500	0.638000
O441	O44	0.385800	0.805400	0.645900
C441	C44	0.256400	0.849000	0.691800
H431	H43	0.192700	0.828700	0.655800
H441	H44	0.273300	0.915500	0.722900
O451	O45	0.563500	0.617700	0.588900
C451	C45	0.519800	0.651300	0.638000
O461	O46	0.419600	0.614200	0.645900
C461	C46	0.592600	0.743600	0.691800
H451	H45	0.636000	0.807300	0.655800
H461	H46	0.642200	0.726700	0.722900
O471	O47	0.054200	0.436500	0.588900
C471	C47	0.131500	0.480200	0.638000
O481	O48	0.194600	0.580400	0.645900
C481	C48	0.151000	0.407400	0.691800
H471	H47	0.171300	0.364000	0.655800
H481	H48	0.084500	0.357800	0.722900
Gd11	Gd1	0.666670	0.333330	0.250000
Gd21	Gd2	0.333330	0.666670	0.250000
Gd31	Gd3	0.333330	0.666670	0.750000
Gd41	Gd4	0.666670	0.333330	0.750000
Ni11	Ni1	0.000000	0.500000	0.000000
Ni21	Ni2	0.500000	0.500000	0.000000
Ni31	Ni3	0.500000	0.000000	0.000000
Ni41	Ni4	0.500000	0.000000	0.500000
Ni51	Ni5	0.500000	0.500000	0.500000
Ni61	Ni6	0.000000	0.500000	0.500000
O491	O49	0.765900	0.234100	0.250000
O501	O50	0.765900	0.531800	0.250000
O511	O51	0.468200	0.234100	0.250000
O521	O52	0.234100	0.765900	0.250000
O531	O53	0.234100	0.468200	0.250000
O541	O54	0.531800	0.765900	0.250000
O551	O55	0.234100	0.765900	0.750000
O561	O56	0.234100	0.468200	0.750000
O571	O57	0.531800	0.765900	0.750000
O581	O58	0.765900	0.234100	0.750000
O591	O59	0.765900	0.531800	0.750000
O601	O60	0.468200	0.234100	0.750000
