data_PUZJOL_clean_PM
_symmetry_space_group_name_H-M	'P1'
_cell_length_a	9.661500
_cell_length_b	10.490000
_cell_length_c	11.940400
_cell_angle_alpha	110.295000
_cell_angle_beta	91.875000
_cell_angle_gamma	114.860000
_symmetry_Int_Tables_number 1

loop_
_symmetry_equiv_pos_as_xyz
'x,y,z'

loop_
_atom_site_label
_atom_site_type_symbol
_atom_site_fract_x
_atom_site_fract_y
_atom_site_fract_z
S11	S1	0.023890	0.053010	0.243330
S21	S2	0.509720	0.541850	0.365690
Mg11	Mg1	0.528620	0.084360	0.326610
O11	O1	0.455400	0.884100	0.350150
O21	O2	0.761700	0.107200	0.330260
O31	O3	0.440500	0.794100	0.495450
O41	O4	0.592000	0.285000	0.303180
O51	O5	0.306800	0.015600	0.250450
O61	O6	0.284800	0.920800	0.047350
O71	O7	0.597430	0.985600	0.154100
O81	O8	0.546400	0.221900	0.101220
C11	C1	0.462700	0.794300	0.392400
C21	C2	0.563600	0.306600	0.210100
C31	C3	0.727500	0.026500	0.217200
C41	C4	0.838100	0.974300	0.160900
C51	C5	0.070900	0.938400	0.126600
C61	C6	0.234800	0.959300	0.141700
C71	C7	0.814600	0.863800	0.049300
H11	H1	0.720400	0.807700	0.992600
C81	C8	0.948800	0.843900	0.028900
H21	H2	0.953300	0.774300	0.957100
C91	C9	0.546000	0.447400	0.230700
C101	C10	0.496300	0.669700	0.312800
C111	C11	0.520300	0.641100	0.196900
H31	H3	0.518500	0.699500	0.153900
C121	C12	0.548400	0.512700	0.149100
H41	H4	0.566400	0.476700	0.071000
S31	S3	0.976110	0.946990	0.756670
S41	S4	0.490280	0.458150	0.634310
Mg21	Mg2	0.471380	0.915640	0.673390
O91	O9	0.544600	0.115900	0.649850
O101	O10	0.238300	0.892800	0.669740
O111	O11	0.559500	0.205900	0.504550
O121	O12	0.408000	0.715000	0.696820
O131	O13	0.693200	0.984400	0.749550
O141	O14	0.715200	0.079200	0.952650
O151	O15	0.402570	0.014400	0.845900
O161	O16	0.453600	0.778100	0.898780
C131	C13	0.537300	0.205700	0.607600
C141	C14	0.436400	0.693400	0.789900
C151	C15	0.272500	0.973500	0.782800
C161	C16	0.161900	0.025700	0.839100
C171	C17	0.929100	0.061600	0.873400
C181	C18	0.765200	0.040700	0.858300
C191	C19	0.185400	0.136200	0.950700
H51	H5	0.279600	0.192300	0.007400
C201	C20	0.051200	0.156100	0.971100
H61	H6	0.046700	0.225700	0.042900
C211	C21	0.454000	0.552600	0.769300
C221	C22	0.503700	0.330300	0.687200
C231	C23	0.479700	0.358900	0.803100
H71	H7	0.481500	0.300500	0.846100
C241	C24	0.451600	0.487300	0.850900
H81	H8	0.433600	0.523300	0.929000
Mg31	Mg3	0.500000	0.000000	0.000000
