data_PUZKUS_clean_PM
_symmetry_space_group_name_H-M	'P1'
_cell_length_a	10.048300
_cell_length_b	13.496900
_cell_length_c	16.734600
_cell_angle_alpha	90.000000
_cell_angle_beta	93.683000
_cell_angle_gamma	90.000000
_symmetry_Int_Tables_number 1

loop_
_symmetry_equiv_pos_as_xyz
'x,y,z'

loop_
_atom_site_label
_atom_site_type_symbol
_atom_site_fract_x
_atom_site_fract_y
_atom_site_fract_z
S11	S1	0.298540	0.554610	0.250080
S21	S2	0.772070	0.252030	0.294800
Mg11	Mg1	0.407750	0.343780	0.025700
Mg21	Mg2	0.529300	0.102890	0.051250
O11	O1	0.386400	0.460660	0.101480
O21	O2	0.920620	0.295010	0.456280
O31	O3	0.622600	0.158870	0.154950
O41	O4	0.933070	0.454510	0.438820
O51	O5	0.143690	0.600590	0.393290
O61	O6	0.199000	0.761290	0.398610
O71	O7	0.484500	0.592480	0.055430
C11	C1	0.199200	0.677400	0.368140
C21	C2	0.271900	0.667600	0.293430
C31	C3	0.370900	0.609420	0.171390
C41	C4	0.418200	0.549350	0.103650
O81	O8	0.577000	0.296800	0.088530
C51	C5	0.623000	0.251100	0.148970
C61	C6	0.684200	0.309700	0.216970
C71	C7	0.811400	0.363940	0.339090
C81	C8	0.891400	0.370130	0.415200
C91	C9	0.316100	0.742700	0.248550
H11	H1	0.310200	0.809200	0.262600
C101	C10	0.372000	0.709300	0.178330
H21	H2	0.406100	0.751500	0.140700
C111	C11	0.683300	0.409300	0.225330
H31	H3	0.638900	0.452000	0.189000
C121	C12	0.756800	0.441300	0.295010
H41	H4	0.767200	0.507500	0.309600
S31	S3	0.201460	0.054610	0.249920
S41	S4	0.727930	0.752030	0.205200
Mg31	Mg3	0.092250	0.843780	0.474300
Mg41	Mg4	0.970700	0.602890	0.448750
O91	O9	0.113600	0.960660	0.398520
O101	O10	0.579380	0.795010	0.043720
O111	O11	0.877400	0.658870	0.345050
O121	O12	0.566930	0.954510	0.061180
O131	O13	0.356310	0.100590	0.106710
O141	O14	0.301000	0.261290	0.101390
O151	O15	0.015500	0.092480	0.444570
C131	C13	0.300800	0.177400	0.131860
C141	C14	0.228100	0.167600	0.206570
C151	C15	0.129100	0.109420	0.328610
C161	C16	0.081800	0.049350	0.396350
O161	O16	0.923000	0.796800	0.411470
C171	C17	0.877000	0.751100	0.351030
C181	C18	0.815800	0.809700	0.283030
C191	C19	0.688600	0.863940	0.160910
C201	C20	0.608600	0.870130	0.084800
C211	C21	0.183900	0.242700	0.251450
H51	H5	0.189800	0.309200	0.237400
C221	C22	0.128000	0.209300	0.321670
H61	H6	0.093900	0.251500	0.359300
C231	C23	0.816700	0.909300	0.274670
H71	H7	0.861100	0.952000	0.311000
C241	C24	0.743200	0.941300	0.204990
H81	H8	0.732800	0.007500	0.190400
S51	S5	0.701460	0.445390	0.749920
S61	S6	0.227930	0.747970	0.705200
Mg51	Mg5	0.592250	0.656220	0.974300
Mg61	Mg6	0.470700	0.897110	0.948750
O171	O17	0.613600	0.539340	0.898520
O181	O18	0.079380	0.704990	0.543720
O191	O19	0.377400	0.841130	0.845050
O201	O20	0.066930	0.545490	0.561180
O211	O21	0.856310	0.399410	0.606710
O221	O22	0.801000	0.238710	0.601390
O231	O23	0.515500	0.407520	0.944570
C251	C25	0.800800	0.322600	0.631860
C261	C26	0.728100	0.332400	0.706570
C271	C27	0.629100	0.390580	0.828610
C281	C28	0.581800	0.450650	0.896350
O241	O24	0.423000	0.703200	0.911470
C291	C29	0.377000	0.748900	0.851030
C301	C30	0.315800	0.690300	0.783030
C311	C31	0.188600	0.636060	0.660910
C321	C32	0.108600	0.629870	0.584800
C331	C33	0.683900	0.257300	0.751450
H91	H9	0.689800	0.190800	0.737400
C341	C34	0.628000	0.290700	0.821670
H101	H10	0.593900	0.248500	0.859300
C351	C35	0.316700	0.590700	0.774670
H111	H11	0.361100	0.548000	0.811000
C361	C36	0.243200	0.558700	0.704990
H121	H12	0.232800	0.492500	0.690400
S71	S7	0.798540	0.945390	0.750080
S81	S8	0.272070	0.247970	0.794800
Mg71	Mg7	0.907750	0.156220	0.525700
Mg81	Mg8	0.029300	0.397110	0.551250
O251	O25	0.886400	0.039340	0.601480
O261	O26	0.420620	0.204990	0.956280
O271	O27	0.122600	0.341130	0.654950
O281	O28	0.433070	0.045490	0.938820
O291	O29	0.643690	0.899410	0.893290
O301	O30	0.699000	0.738710	0.898610
O311	O31	0.984500	0.907520	0.555430
C371	C37	0.699200	0.822600	0.868140
C381	C38	0.771900	0.832400	0.793430
C391	C39	0.870900	0.890580	0.671390
C401	C40	0.918200	0.950650	0.603650
O321	O32	0.077000	0.203200	0.588530
C411	C41	0.123000	0.248900	0.648970
C421	C42	0.184200	0.190300	0.716970
C431	C43	0.311400	0.136060	0.839090
C441	C44	0.391400	0.129870	0.915200
C451	C45	0.816100	0.757300	0.748550
H131	H13	0.810200	0.690800	0.762600
C461	C46	0.872000	0.790700	0.678330
H141	H14	0.906100	0.748500	0.640700
C471	C47	0.183300	0.090700	0.725330
H151	H15	0.138900	0.048000	0.689000
C481	C48	0.256800	0.058700	0.795010
H161	H16	0.267200	0.992500	0.809600
