data_PUZLAZ_clean_PM
_symmetry_space_group_name_H-M	'P1'
_cell_length_a	13.564200
_cell_length_b	13.564200
_cell_length_c	15.642500
_cell_angle_alpha	90.000000
_cell_angle_beta	90.000000
_cell_angle_gamma	90.000000
_symmetry_Int_Tables_number 1

loop_
_symmetry_equiv_pos_as_xyz
'x,y,z'

loop_
_atom_site_label
_atom_site_type_symbol
_atom_site_fract_x
_atom_site_fract_y
_atom_site_fract_z
S11	S1	0.723600	0.784700	0.892100
O11	O1	0.621000	0.951300	0.985500
O21	O2	0.527200	0.997000	0.878600
O31	O3	0.807400	0.606600	0.708500
O41	O4	0.852300	0.614300	0.842200
C11	C1	0.798900	0.644500	0.782400
C21	C2	0.593800	0.942100	0.910000
C31	C3	0.636800	0.864800	0.854300
C41	C4	0.730900	0.727000	0.794900
C51	C5	0.667800	0.765800	0.737200
H11	H1	0.659800	0.742100	0.681800
C61	C6	0.615500	0.847100	0.771300
H21	H2	0.570900	0.884500	0.739800
S21	S2	0.276400	0.215300	0.392100
O51	O5	0.379000	0.048700	0.485500
O61	O6	0.472800	0.003000	0.378600
O71	O7	0.192600	0.393400	0.208500
O81	O8	0.147700	0.385700	0.342200
C71	C7	0.201100	0.355500	0.282400
C81	C8	0.406200	0.057900	0.410000
C91	C9	0.363200	0.135200	0.354300
C101	C10	0.269100	0.273000	0.294900
C111	C11	0.332200	0.234200	0.237200
H31	H3	0.340200	0.257900	0.181800
C121	C12	0.384500	0.152900	0.271300
H41	H4	0.429100	0.115500	0.239800
S31	S3	0.215300	0.723600	0.642100
O91	O9	0.048700	0.621000	0.735500
O101	O10	0.003000	0.527200	0.628600
O111	O11	0.393400	0.807400	0.458500
O121	O12	0.385700	0.852300	0.592200
C131	C13	0.355500	0.798900	0.532400
C141	C14	0.057900	0.593800	0.660000
C151	C15	0.135200	0.636800	0.604300
C161	C16	0.273000	0.730900	0.544900
C171	C17	0.234200	0.667800	0.487200
H51	H5	0.257900	0.659800	0.431800
C181	C18	0.152900	0.615500	0.521300
H61	H6	0.115500	0.570900	0.489800
S41	S4	0.784700	0.276400	0.142100
O131	O13	0.951300	0.379000	0.235500
O141	O14	0.997000	0.472800	0.128600
O151	O15	0.606600	0.192600	0.958500
O161	O16	0.614300	0.147700	0.092200
C191	C19	0.644500	0.201100	0.032400
C201	C20	0.942100	0.406200	0.160000
C211	C21	0.864800	0.363200	0.104300
C221	C22	0.727000	0.269100	0.044900
C231	C23	0.765800	0.332200	0.987200
H71	H7	0.742100	0.340200	0.931800
C241	C24	0.847100	0.384500	0.021300
H81	H8	0.884500	0.429100	0.989800
S51	S5	0.276400	0.784700	0.107900
O171	O17	0.379000	0.951300	0.014500
O181	O18	0.472800	0.997000	0.121400
O191	O19	0.192600	0.606600	0.291500
O201	O20	0.147700	0.614300	0.157800
C251	C25	0.201100	0.644500	0.217600
C261	C26	0.406200	0.942100	0.090000
C271	C27	0.363200	0.864800	0.145700
C281	C28	0.269100	0.727000	0.205100
C291	C29	0.332200	0.765800	0.262800
H91	H9	0.340200	0.742100	0.318200
C301	C30	0.384500	0.847100	0.228700
H101	H10	0.429100	0.884500	0.260200
S61	S6	0.723600	0.215300	0.607900
O211	O21	0.621000	0.048700	0.514500
O221	O22	0.527200	0.003000	0.621400
O231	O23	0.807400	0.393400	0.791500
O241	O24	0.852300	0.385700	0.657800
C311	C31	0.798900	0.355500	0.717600
C321	C32	0.593800	0.057900	0.590000
C331	C33	0.636800	0.135200	0.645700
C341	C34	0.730900	0.273000	0.705100
C351	C35	0.667800	0.234200	0.762800
H111	H11	0.659800	0.257900	0.818200
C361	C36	0.615500	0.152900	0.728700
H121	H12	0.570900	0.115500	0.760200
S71	S7	0.784700	0.723600	0.357900
O251	O25	0.951300	0.621000	0.264500
O261	O26	0.997000	0.527200	0.371400
O271	O27	0.606600	0.807400	0.541500
O281	O28	0.614300	0.852300	0.407800
C371	C37	0.644500	0.798900	0.467600
C381	C38	0.942100	0.593800	0.340000
C391	C39	0.864800	0.636800	0.395700
C401	C40	0.727000	0.730900	0.455100
C411	C41	0.765800	0.667800	0.512800
H131	H13	0.742100	0.659800	0.568200
C421	C42	0.847100	0.615500	0.478700
H141	H14	0.884500	0.570900	0.510200
S81	S8	0.215300	0.276400	0.857900
O291	O29	0.048700	0.379000	0.764500
O301	O30	0.003000	0.472800	0.871400
O311	O31	0.393400	0.192600	0.041500
O321	O32	0.385700	0.147700	0.907800
C431	C43	0.355500	0.201100	0.967600
C441	C44	0.057900	0.406200	0.840000
C451	C45	0.135200	0.363200	0.895700
C461	C46	0.273000	0.269100	0.955100
C471	C47	0.234200	0.332200	0.012800
H151	H15	0.257900	0.340200	0.068200
C481	C48	0.152900	0.384500	0.978700
H161	H16	0.115500	0.429100	0.010200
In11	In1	0.500000	0.076600	0.000000
In21	In2	0.500000	0.923400	0.500000
In31	In3	0.923400	0.500000	0.750000
In41	In4	0.076600	0.500000	0.250000
