data_PUZLUS_clean_PM
_symmetry_space_group_name_H-M	'P1'
_cell_length_a	26.405000
_cell_length_b	26.405000
_cell_length_c	36.631000
_cell_angle_alpha	90.000000
_cell_angle_beta	90.000000
_cell_angle_gamma	90.000000
_symmetry_Int_Tables_number 1

loop_
_symmetry_equiv_pos_as_xyz
'x,y,z'

loop_
_atom_site_label
_atom_site_type_symbol
_atom_site_fract_x
_atom_site_fract_y
_atom_site_fract_z
Co11	Co1	0.701650	0.701650	0.237030
Co21	Co2	0.298350	0.298350	0.237030
Co31	Co3	0.798350	0.201650	0.737030
Co41	Co4	0.201650	0.798350	0.737030
Co51	Co5	0.798350	0.201650	0.262970
Co61	Co6	0.201650	0.798350	0.262970
Co71	Co7	0.701650	0.701650	0.762970
Co81	Co8	0.298350	0.298350	0.762970
Co91	Co9	0.000000	0.500000	0.000000
Co101	Co10	0.000000	0.500000	0.500000
Co111	Co11	0.500000	0.000000	0.500000
Co121	Co12	0.500000	0.000000	0.000000
H11	H1	0.700600	0.585200	0.747000
H21	H2	0.728300	0.510100	0.771100
H31	H3	0.766100	0.581900	0.862500
H41	H4	0.739200	0.657000	0.837500
H51	H5	0.972800	0.422100	0.940400
H61	H6	0.917800	0.405200	0.893200
H71	H7	0.901100	0.544600	0.968000
H81	H8	0.845400	0.534300	0.918900
H91	H9	0.853100	0.326200	0.837500
H101	H10	0.774600	0.393300	0.758600
H111	H11	0.765500	0.310800	0.729800
H121	H12	0.850300	0.252700	0.804900
H131	H13	0.299400	0.414800	0.747000
H141	H14	0.271700	0.489900	0.771100
H151	H15	0.233900	0.418100	0.862500
H161	H16	0.260800	0.343000	0.837500
H171	H17	0.027200	0.577900	0.940400
H181	H18	0.082200	0.594800	0.893200
H191	H19	0.098900	0.455400	0.968000
H201	H20	0.154600	0.465700	0.918900
H211	H21	0.146900	0.673800	0.837500
H221	H22	0.225400	0.606700	0.758600
H231	H23	0.234500	0.689200	0.729800
H241	H24	0.149700	0.747300	0.804900
H251	H25	0.914800	0.200600	0.247000
H261	H26	0.989900	0.228300	0.271100
H271	H27	0.918100	0.266100	0.362500
H281	H28	0.843000	0.239200	0.337500
H291	H29	0.077900	0.472800	0.440400
H301	H30	0.094800	0.417800	0.393200
H311	H31	0.955400	0.401100	0.468000
H321	H32	0.965700	0.345400	0.418900
H331	H33	0.173800	0.353100	0.337500
H341	H34	0.106700	0.274600	0.258600
H351	H35	0.189200	0.265500	0.229800
H361	H36	0.247300	0.350300	0.304900
H371	H37	0.085200	0.799400	0.247000
H381	H38	0.010100	0.771700	0.271100
H391	H39	0.081900	0.733900	0.362500
H401	H40	0.157000	0.760800	0.337500
H411	H41	0.922100	0.527200	0.440400
H421	H42	0.905200	0.582200	0.393200
H431	H43	0.044600	0.598900	0.468000
H441	H44	0.034300	0.654600	0.418900
H451	H45	0.826200	0.646900	0.337500
H461	H46	0.893300	0.725400	0.258600
H471	H47	0.810800	0.734500	0.229800
H481	H48	0.752700	0.649700	0.304900
H491	H49	0.799400	0.085200	0.753000
H501	H50	0.771700	0.010100	0.728900
H511	H51	0.733900	0.081900	0.637500
H521	H52	0.760800	0.157000	0.662500
H531	H53	0.527200	0.922100	0.559600
H541	H54	0.582200	0.905200	0.606800
H551	H55	0.598900	0.044600	0.532000
H561	H56	0.654600	0.034300	0.581100
H571	H57	0.646900	0.826200	0.662500
H581	H58	0.725400	0.893300	0.741400
H591	H59	0.734500	0.810800	0.770200
H601	H60	0.649700	0.752700	0.695100
H611	H61	0.200600	0.914800	0.753000
H621	H62	0.228300	0.989900	0.728900
H631	H63	0.266100	0.918100	0.637500
H641	H64	0.239200	0.843000	0.662500
H651	H65	0.472800	0.077900	0.559600
H661	H66	0.417800	0.094800	0.606800
H671	H67	0.401100	0.955400	0.532000
H681	H68	0.345400	0.965700	0.581100
H691	H69	0.353100	0.173800	0.662500
H701	H70	0.274600	0.106700	0.741400
H711	H71	0.265500	0.189200	0.770200
H721	H72	0.350300	0.247300	0.695100
H731	H73	0.585200	0.700600	0.253000
H741	H74	0.510100	0.728300	0.228900
H751	H75	0.581900	0.766100	0.137500
H761	H76	0.657000	0.739200	0.162500
H771	H77	0.422100	0.972800	0.059600
H781	H78	0.405200	0.917800	0.106800
H791	H79	0.544600	0.901100	0.032000
H801	H80	0.534300	0.845400	0.081100
H811	H81	0.326200	0.853100	0.162500
H821	H82	0.393300	0.774600	0.241400
H831	H83	0.310800	0.765500	0.270200
H841	H84	0.252700	0.850300	0.195100
H851	H85	0.414800	0.299400	0.253000
H861	H86	0.489900	0.271700	0.228900
H871	H87	0.418100	0.233900	0.137500
H881	H88	0.343000	0.260800	0.162500
H891	H89	0.577900	0.027200	0.059600
H901	H90	0.594800	0.082200	0.106800
H911	H91	0.455400	0.098900	0.032000
H921	H92	0.465700	0.154600	0.081100
H931	H93	0.673800	0.146900	0.162500
H941	H94	0.606700	0.225400	0.241400
H951	H95	0.689200	0.234500	0.270200
H961	H96	0.747300	0.149700	0.195100
H971	H97	0.299400	0.414800	0.253000
H981	H98	0.271700	0.489900	0.228900
H991	H99	0.233900	0.418100	0.137500
H1001	H100	0.260800	0.343000	0.162500
H1011	H101	0.027200	0.577900	0.059600
H1021	H102	0.082200	0.594800	0.106800
H1031	H103	0.098900	0.455400	0.032000
H1041	H104	0.154600	0.465700	0.081100
H1051	H105	0.146900	0.673800	0.162500
H1061	H106	0.225400	0.606700	0.241400
H1071	H107	0.234500	0.689200	0.270200
H1081	H108	0.149700	0.747300	0.195100
H1091	H109	0.700600	0.585200	0.253000
H1101	H110	0.728300	0.510100	0.228900
H1111	H111	0.766100	0.581900	0.137500
H1121	H112	0.739200	0.657000	0.162500
H1131	H113	0.972800	0.422100	0.059600
H1141	H114	0.917800	0.405200	0.106800
H1151	H115	0.901100	0.544600	0.032000
H1161	H116	0.845400	0.534300	0.081100
H1171	H117	0.853100	0.326200	0.162500
H1181	H118	0.774600	0.393300	0.241400
H1191	H119	0.765500	0.310800	0.270200
H1201	H120	0.850300	0.252700	0.195100
H1211	H121	0.085200	0.799400	0.753000
H1221	H122	0.010100	0.771700	0.728900
H1231	H123	0.081900	0.733900	0.637500
H1241	H124	0.157000	0.760800	0.662500
H1251	H125	0.922100	0.527200	0.559600
H1261	H126	0.905200	0.582200	0.606800
H1271	H127	0.044600	0.598900	0.532000
H1281	H128	0.034300	0.654600	0.581100
H1291	H129	0.826200	0.646900	0.662500
H1301	H130	0.893300	0.725400	0.741400
H1311	H131	0.810800	0.734500	0.770200
H1321	H132	0.752700	0.649700	0.695100
H1331	H133	0.914800	0.200600	0.753000
H1341	H134	0.989900	0.228300	0.728900
H1351	H135	0.918100	0.266100	0.637500
H1361	H136	0.843000	0.239200	0.662500
H1371	H137	0.077900	0.472800	0.559600
H1381	H138	0.094800	0.417800	0.606800
H1391	H139	0.955400	0.401100	0.532000
H1401	H140	0.965700	0.345400	0.581100
H1411	H141	0.173800	0.353100	0.662500
H1421	H142	0.106700	0.274600	0.741400
H1431	H143	0.189200	0.265500	0.770200
H1441	H144	0.247300	0.350300	0.695100
H1451	H145	0.200600	0.914800	0.247000
H1461	H146	0.228300	0.989900	0.271100
H1471	H147	0.266100	0.918100	0.362500
H1481	H148	0.239200	0.843000	0.337500
H1491	H149	0.472800	0.077900	0.440400
H1501	H150	0.417800	0.094800	0.393200
H1511	H151	0.401100	0.955400	0.468000
H1521	H152	0.345400	0.965700	0.418900
H1531	H153	0.353100	0.173800	0.337500
H1541	H154	0.274600	0.106700	0.258600
H1551	H155	0.265500	0.189200	0.229800
H1561	H156	0.350300	0.247300	0.304900
H1571	H157	0.799400	0.085200	0.247000
H1581	H158	0.771700	0.010100	0.271100
H1591	H159	0.733900	0.081900	0.362500
H1601	H160	0.760800	0.157000	0.337500
H1611	H161	0.527200	0.922100	0.440400
H1621	H162	0.582200	0.905200	0.393200
H1631	H163	0.598900	0.044600	0.468000
H1641	H164	0.654600	0.034300	0.418900
H1651	H165	0.646900	0.826200	0.337500
H1661	H166	0.725400	0.893300	0.258600
H1671	H167	0.734500	0.810800	0.229800
H1681	H168	0.649700	0.752700	0.304900
H1691	H169	0.414800	0.299400	0.747000
H1701	H170	0.489900	0.271700	0.771100
H1711	H171	0.418100	0.233900	0.862500
H1721	H172	0.343000	0.260800	0.837500
H1731	H173	0.577900	0.027200	0.940400
H1741	H174	0.594800	0.082200	0.893200
H1751	H175	0.455400	0.098900	0.968000
H1761	H176	0.465700	0.154600	0.918900
H1771	H177	0.673800	0.146900	0.837500
H1781	H178	0.606700	0.225400	0.758600
H1791	H179	0.689200	0.234500	0.729800
H1801	H180	0.747300	0.149700	0.804900
H1811	H181	0.585200	0.700600	0.747000
H1821	H182	0.510100	0.728300	0.771100
H1831	H183	0.581900	0.766100	0.862500
H1841	H184	0.657000	0.739200	0.837500
H1851	H185	0.422100	0.972800	0.940400
H1861	H186	0.405200	0.917800	0.893200
H1871	H187	0.544600	0.901100	0.968000
H1881	H188	0.534300	0.845400	0.918900
H1891	H189	0.326200	0.853100	0.837500
H1901	H190	0.393300	0.774600	0.758600
H1911	H191	0.310800	0.765500	0.729800
H1921	H192	0.252700	0.850300	0.804900
C11	C1	0.756600	0.540150	0.816990
C21	C2	0.786500	0.494940	0.830170
C31	C3	0.876880	0.469040	0.900140
C41	C4	0.811900	0.415460	0.822430
C51	C5	0.842250	0.462800	0.868860
C61	C6	0.714780	0.585400	0.770830
C71	C7	0.732670	0.540670	0.784450
C81	C8	0.754850	0.582840	0.837820
C91	C9	0.737000	0.626980	0.823260
C101	C10	0.946600	0.445950	0.935730
C111	C11	0.914150	0.435190	0.907260
C121	C12	0.905990	0.517010	0.951710
C131	C13	0.871800	0.510460	0.922800
C141	C14	0.809610	0.366670	0.802400
C151	C15	0.834500	0.324670	0.815350
C161	C16	0.787800	0.363800	0.770000
C171	C17	0.784200	0.313650	0.751820
C181	C18	0.831900	0.280950	0.795900
C191	C19	0.243400	0.459850	0.816990
C201	C20	0.213500	0.505060	0.830170
C211	C21	0.123120	0.530960	0.900140
C221	C22	0.188100	0.584540	0.822430
C231	C23	0.157750	0.537200	0.868860
C241	C24	0.285220	0.414600	0.770830
C251	C25	0.267330	0.459330	0.784450
C261	C26	0.245150	0.417160	0.837820
C271	C27	0.263000	0.373020	0.823260
C281	C28	0.053400	0.554050	0.935730
C291	C29	0.085850	0.564810	0.907260
C301	C30	0.094010	0.482990	0.951710
C311	C31	0.128200	0.489540	0.922800
C321	C32	0.190390	0.633330	0.802400
C331	C33	0.165500	0.675330	0.815350
C341	C34	0.212200	0.636200	0.770000
C351	C35	0.215800	0.686350	0.751820
C361	C36	0.168100	0.719050	0.795900
C371	C37	0.959850	0.256600	0.316990
C381	C38	0.005060	0.286500	0.330170
C391	C39	0.030960	0.376880	0.400140
C401	C40	0.084540	0.311900	0.322430
C411	C41	0.037200	0.342250	0.368860
C421	C42	0.914600	0.214780	0.270830
C431	C43	0.959330	0.232670	0.284450
C441	C44	0.917160	0.254850	0.337820
C451	C45	0.873020	0.237000	0.323260
C461	C46	0.054050	0.446600	0.435730
C471	C47	0.064810	0.414150	0.407260
C481	C48	0.982990	0.405990	0.451710
C491	C49	0.989540	0.371800	0.422800
C501	C50	0.133330	0.309610	0.302400
C511	C51	0.175330	0.334500	0.315350
C521	C52	0.136200	0.287800	0.270000
C531	C53	0.186350	0.284200	0.251820
C541	C54	0.219050	0.331900	0.295900
C551	C55	0.040150	0.743400	0.316990
C561	C56	0.994940	0.713500	0.330170
C571	C57	0.969040	0.623120	0.400140
C581	C58	0.915460	0.688100	0.322430
C591	C59	0.962800	0.657750	0.368860
C601	C60	0.085400	0.785220	0.270830
C611	C61	0.040670	0.767330	0.284450
C621	C62	0.082840	0.745150	0.337820
C631	C63	0.126980	0.763000	0.323260
C641	C64	0.945950	0.553400	0.435730
C651	C65	0.935190	0.585850	0.407260
C661	C66	0.017010	0.594010	0.451710
C671	C67	0.010460	0.628200	0.422800
C681	C68	0.866670	0.690390	0.302400
C691	C69	0.824670	0.665500	0.315350
C701	C70	0.863800	0.712200	0.270000
C711	C71	0.813650	0.715800	0.251820
C721	C72	0.780950	0.668100	0.295900
C731	C73	0.743400	0.040150	0.683010
C741	C74	0.713500	0.994940	0.669830
C751	C75	0.623120	0.969040	0.599860
C761	C76	0.688100	0.915460	0.677570
C771	C77	0.657750	0.962800	0.631140
C781	C78	0.785220	0.085400	0.729170
C791	C79	0.767330	0.040670	0.715550
C801	C80	0.745150	0.082840	0.662180
C811	C81	0.763000	0.126980	0.676740
C821	C82	0.553400	0.945950	0.564270
C831	C83	0.585850	0.935190	0.592740
C841	C84	0.594010	0.017010	0.548290
C851	C85	0.628200	0.010460	0.577200
C861	C86	0.690390	0.866670	0.697600
C871	C87	0.665500	0.824670	0.684650
C881	C88	0.712200	0.863800	0.730000
C891	C89	0.715800	0.813650	0.748180
C901	C90	0.668100	0.780950	0.704100
C911	C91	0.256600	0.959850	0.683010
C921	C92	0.286500	0.005060	0.669830
C931	C93	0.376880	0.030960	0.599860
C941	C94	0.311900	0.084540	0.677570
C951	C95	0.342250	0.037200	0.631140
C961	C96	0.214780	0.914600	0.729170
C971	C97	0.232670	0.959330	0.715550
C981	C98	0.254850	0.917160	0.662180
C991	C99	0.237000	0.873020	0.676740
C1001	C100	0.446600	0.054050	0.564270
C1011	C101	0.414150	0.064810	0.592740
C1021	C102	0.405990	0.982990	0.548290
C1031	C103	0.371800	0.989540	0.577200
C1041	C104	0.309610	0.133330	0.697600
C1051	C105	0.334500	0.175330	0.684650
C1061	C106	0.287800	0.136200	0.730000
C1071	C107	0.284200	0.186350	0.748180
C1081	C108	0.331900	0.219050	0.704100
C1091	C109	0.540150	0.756600	0.183010
C1101	C110	0.494940	0.786500	0.169830
C1111	C111	0.469040	0.876880	0.099860
C1121	C112	0.415460	0.811900	0.177570
C1131	C113	0.462800	0.842250	0.131140
C1141	C114	0.585400	0.714780	0.229170
C1151	C115	0.540670	0.732670	0.215550
C1161	C116	0.582840	0.754850	0.162180
C1171	C117	0.626980	0.737000	0.176740
C1181	C118	0.445950	0.946600	0.064270
C1191	C119	0.435190	0.914150	0.092740
C1201	C120	0.517010	0.905990	0.048290
C1211	C121	0.510460	0.871800	0.077200
C1221	C122	0.366670	0.809610	0.197600
C1231	C123	0.324670	0.834500	0.184650
C1241	C124	0.363800	0.787800	0.230000
C1251	C125	0.313650	0.784200	0.248180
C1261	C126	0.280950	0.831900	0.204100
C1271	C127	0.459850	0.243400	0.183010
C1281	C128	0.505060	0.213500	0.169830
C1291	C129	0.530960	0.123120	0.099860
C1301	C130	0.584540	0.188100	0.177570
C1311	C131	0.537200	0.157750	0.131140
C1321	C132	0.414600	0.285220	0.229170
C1331	C133	0.459330	0.267330	0.215550
C1341	C134	0.417160	0.245150	0.162180
C1351	C135	0.373020	0.263000	0.176740
C1361	C136	0.554050	0.053400	0.064270
C1371	C137	0.564810	0.085850	0.092740
C1381	C138	0.482990	0.094010	0.048290
C1391	C139	0.489540	0.128200	0.077200
C1401	C140	0.633330	0.190390	0.197600
C1411	C141	0.675330	0.165500	0.184650
C1421	C142	0.636200	0.212200	0.230000
C1431	C143	0.686350	0.215800	0.248180
C1441	C144	0.719050	0.168100	0.204100
C1451	C145	0.243400	0.459850	0.183010
C1461	C146	0.213500	0.505060	0.169830
C1471	C147	0.123120	0.530960	0.099860
C1481	C148	0.188100	0.584540	0.177570
C1491	C149	0.157750	0.537200	0.131140
C1501	C150	0.285220	0.414600	0.229170
C1511	C151	0.267330	0.459330	0.215550
C1521	C152	0.245150	0.417160	0.162180
C1531	C153	0.263000	0.373020	0.176740
C1541	C154	0.053400	0.554050	0.064270
C1551	C155	0.085850	0.564810	0.092740
C1561	C156	0.094010	0.482990	0.048290
C1571	C157	0.128200	0.489540	0.077200
C1581	C158	0.190390	0.633330	0.197600
C1591	C159	0.165500	0.675330	0.184650
C1601	C160	0.212200	0.636200	0.230000
C1611	C161	0.215800	0.686350	0.248180
C1621	C162	0.168100	0.719050	0.204100
C1631	C163	0.756600	0.540150	0.183010
C1641	C164	0.786500	0.494940	0.169830
C1651	C165	0.876880	0.469040	0.099860
C1661	C166	0.811900	0.415460	0.177570
C1671	C167	0.842250	0.462800	0.131140
C1681	C168	0.714780	0.585400	0.229170
C1691	C169	0.732670	0.540670	0.215550
C1701	C170	0.754850	0.582840	0.162180
C1711	C171	0.737000	0.626980	0.176740
C1721	C172	0.946600	0.445950	0.064270
C1731	C173	0.914150	0.435190	0.092740
C1741	C174	0.905990	0.517010	0.048290
C1751	C175	0.871800	0.510460	0.077200
C1761	C176	0.809610	0.366670	0.197600
C1771	C177	0.834500	0.324670	0.184650
C1781	C178	0.787800	0.363800	0.230000
C1791	C179	0.784200	0.313650	0.248180
C1801	C180	0.831900	0.280950	0.204100
C1811	C181	0.040150	0.743400	0.683010
C1821	C182	0.994940	0.713500	0.669830
C1831	C183	0.969040	0.623120	0.599860
C1841	C184	0.915460	0.688100	0.677570
C1851	C185	0.962800	0.657750	0.631140
C1861	C186	0.085400	0.785220	0.729170
C1871	C187	0.040670	0.767330	0.715550
C1881	C188	0.082840	0.745150	0.662180
C1891	C189	0.126980	0.763000	0.676740
C1901	C190	0.945950	0.553400	0.564270
C1911	C191	0.935190	0.585850	0.592740
C1921	C192	0.017010	0.594010	0.548290
C1931	C193	0.010460	0.628200	0.577200
C1941	C194	0.866670	0.690390	0.697600
C1951	C195	0.824670	0.665500	0.684650
C1961	C196	0.863800	0.712200	0.730000
C1971	C197	0.813650	0.715800	0.748180
C1981	C198	0.780950	0.668100	0.704100
C1991	C199	0.959850	0.256600	0.683010
C2001	C200	0.005060	0.286500	0.669830
C2011	C201	0.030960	0.376880	0.599860
C2021	C202	0.084540	0.311900	0.677570
C2031	C203	0.037200	0.342250	0.631140
C2041	C204	0.914600	0.214780	0.729170
C2051	C205	0.959330	0.232670	0.715550
C2061	C206	0.917160	0.254850	0.662180
C2071	C207	0.873020	0.237000	0.676740
C2081	C208	0.054050	0.446600	0.564270
C2091	C209	0.064810	0.414150	0.592740
C2101	C210	0.982990	0.405990	0.548290
C2111	C211	0.989540	0.371800	0.577200
C2121	C212	0.133330	0.309610	0.697600
C2131	C213	0.175330	0.334500	0.684650
C2141	C214	0.136200	0.287800	0.730000
C2151	C215	0.186350	0.284200	0.748180
C2161	C216	0.219050	0.331900	0.704100
C2171	C217	0.256600	0.959850	0.316990
C2181	C218	0.286500	0.005060	0.330170
C2191	C219	0.376880	0.030960	0.400140
C2201	C220	0.311900	0.084540	0.322430
C2211	C221	0.342250	0.037200	0.368860
C2221	C222	0.214780	0.914600	0.270830
C2231	C223	0.232670	0.959330	0.284450
C2241	C224	0.254850	0.917160	0.337820
C2251	C225	0.237000	0.873020	0.323260
C2261	C226	0.446600	0.054050	0.435730
C2271	C227	0.414150	0.064810	0.407260
C2281	C228	0.405990	0.982990	0.451710
C2291	C229	0.371800	0.989540	0.422800
C2301	C230	0.309610	0.133330	0.302400
C2311	C231	0.334500	0.175330	0.315350
C2321	C232	0.287800	0.136200	0.270000
C2331	C233	0.284200	0.186350	0.251820
C2341	C234	0.331900	0.219050	0.295900
C2351	C235	0.743400	0.040150	0.316990
C2361	C236	0.713500	0.994940	0.330170
C2371	C237	0.623120	0.969040	0.400140
C2381	C238	0.688100	0.915460	0.322430
C2391	C239	0.657750	0.962800	0.368860
C2401	C240	0.785220	0.085400	0.270830
C2411	C241	0.767330	0.040670	0.284450
C2421	C242	0.745150	0.082840	0.337820
C2431	C243	0.763000	0.126980	0.323260
C2441	C244	0.553400	0.945950	0.435730
C2451	C245	0.585850	0.935190	0.407260
C2461	C246	0.594010	0.017010	0.451710
C2471	C247	0.628200	0.010460	0.422800
C2481	C248	0.690390	0.866670	0.302400
C2491	C249	0.665500	0.824670	0.315350
C2501	C250	0.712200	0.863800	0.270000
C2511	C251	0.715800	0.813650	0.251820
C2521	C252	0.668100	0.780950	0.295900
C2531	C253	0.459850	0.243400	0.816990
C2541	C254	0.505060	0.213500	0.830170
C2551	C255	0.530960	0.123120	0.900140
C2561	C256	0.584540	0.188100	0.822430
C2571	C257	0.537200	0.157750	0.868860
C2581	C258	0.414600	0.285220	0.770830
C2591	C259	0.459330	0.267330	0.784450
C2601	C260	0.417160	0.245150	0.837820
C2611	C261	0.373020	0.263000	0.823260
C2621	C262	0.554050	0.053400	0.935730
C2631	C263	0.564810	0.085850	0.907260
C2641	C264	0.482990	0.094010	0.951710
C2651	C265	0.489540	0.128200	0.922800
C2661	C266	0.633330	0.190390	0.802400
C2671	C267	0.675330	0.165500	0.815350
C2681	C268	0.636200	0.212200	0.770000
C2691	C269	0.686350	0.215800	0.751820
C2701	C270	0.719050	0.168100	0.795900
C2711	C271	0.540150	0.756600	0.816990
C2721	C272	0.494940	0.786500	0.830170
C2731	C273	0.469040	0.876880	0.900140
C2741	C274	0.415460	0.811900	0.822430
C2751	C275	0.462800	0.842250	0.868860
C2761	C276	0.585400	0.714780	0.770830
C2771	C277	0.540670	0.732670	0.784450
C2781	C278	0.582840	0.754850	0.837820
C2791	C279	0.626980	0.737000	0.823260
C2801	C280	0.445950	0.946600	0.935730
C2811	C281	0.435190	0.914150	0.907260
C2821	C282	0.517010	0.905990	0.951710
C2831	C283	0.510460	0.871800	0.922800
C2841	C284	0.366670	0.809610	0.802400
C2851	C285	0.324670	0.834500	0.815350
C2861	C286	0.363800	0.787800	0.770000
C2871	C287	0.313650	0.784200	0.751820
C2881	C288	0.280950	0.831900	0.795900
C2891	C289	0.760300	0.760300	0.173100
C2901	C290	0.648600	0.648600	0.303800
C2911	C291	0.239700	0.239700	0.173100
C2921	C292	0.351400	0.351400	0.303800
C2931	C293	0.739700	0.260300	0.673100
C2941	C294	0.851400	0.148600	0.803800
C2951	C295	0.260300	0.739700	0.673100
C2961	C296	0.148600	0.851400	0.803800
C2971	C297	0.739700	0.260300	0.326900
C2981	C298	0.851400	0.148600	0.196200
C2991	C299	0.260300	0.739700	0.326900
C3001	C300	0.148600	0.851400	0.196200
C3011	C301	0.760300	0.760300	0.826900
C3021	C302	0.648600	0.648600	0.696200
C3031	C303	0.239700	0.239700	0.826900
C3041	C304	0.351400	0.351400	0.696200
C3051	C305	0.977400	0.620100	0.000000
C3061	C306	0.022600	0.379900	0.000000
C3071	C307	0.879900	0.477400	0.500000
C3081	C308	0.120100	0.522600	0.500000
C3091	C309	0.522600	0.120100	0.500000
C3101	C310	0.477400	0.879900	0.500000
C3111	C311	0.620100	0.977400	0.000000
C3121	C312	0.379900	0.022600	0.000000
S11	S1	0.792290	0.792290	0.143290
S21	S2	0.622300	0.622300	0.337680
S31	S3	0.207710	0.207710	0.143290
S41	S4	0.377700	0.377700	0.337680
S51	S5	0.707710	0.292290	0.643290
S61	S6	0.877700	0.122300	0.837680
S71	S7	0.292290	0.707710	0.643290
S81	S8	0.122300	0.877700	0.837680
S91	S9	0.707710	0.292290	0.356710
S101	S10	0.877700	0.122300	0.162320
S111	S11	0.292290	0.707710	0.356710
S121	S12	0.122300	0.877700	0.162320
S131	S13	0.792290	0.792290	0.856710
S141	S14	0.622300	0.622300	0.662320
S151	S15	0.207710	0.207710	0.856710
S161	S16	0.377700	0.377700	0.662320
S171	S17	0.972400	0.680070	0.000000
S181	S18	0.027600	0.319930	0.000000
S191	S19	0.819930	0.472400	0.500000
S201	S20	0.180070	0.527600	0.500000
S211	S21	0.527600	0.180070	0.500000
S221	S22	0.472400	0.819930	0.500000
S231	S23	0.680070	0.972400	0.000000
S241	S24	0.319930	0.027600	0.000000
N11	N1	0.843370	0.418090	0.851270
N21	N2	0.715830	0.630070	0.789020
N31	N3	0.813280	0.500760	0.860330
N41	N4	0.945030	0.485990	0.957110
N51	N5	0.783740	0.452210	0.809920
N61	N6	0.805400	0.274510	0.764880
N71	N7	0.156630	0.581910	0.851270
N81	N8	0.284170	0.369930	0.789020
N91	N9	0.186720	0.499240	0.860330
N101	N10	0.054970	0.514010	0.957110
N111	N11	0.216260	0.547790	0.809920
N121	N12	0.194600	0.725490	0.764880
N131	N13	0.081910	0.343370	0.351270
N141	N14	0.869930	0.215830	0.289020
N151	N15	0.999240	0.313280	0.360330
N161	N16	0.014010	0.445030	0.457110
N171	N17	0.047790	0.283740	0.309920
N181	N18	0.225490	0.305400	0.264880
N191	N19	0.918090	0.656630	0.351270
N201	N20	0.130070	0.784170	0.289020
N211	N21	0.000760	0.686720	0.360330
N221	N22	0.985990	0.554970	0.457110
N231	N23	0.952210	0.716260	0.309920
N241	N24	0.774510	0.694600	0.264880
N251	N25	0.656630	0.918090	0.648730
N261	N26	0.784170	0.130070	0.710980
N271	N27	0.686720	0.000760	0.639670
N281	N28	0.554970	0.985990	0.542890
N291	N29	0.716260	0.952210	0.690080
N301	N30	0.694600	0.774510	0.735120
N311	N31	0.343370	0.081910	0.648730
N321	N32	0.215830	0.869930	0.710980
N331	N33	0.313280	0.999240	0.639670
N341	N34	0.445030	0.014010	0.542890
N351	N35	0.283740	0.047790	0.690080
N361	N36	0.305400	0.225490	0.735120
N371	N37	0.418090	0.843370	0.148730
N381	N38	0.630070	0.715830	0.210980
N391	N39	0.500760	0.813280	0.139670
N401	N40	0.485990	0.945030	0.042890
N411	N41	0.452210	0.783740	0.190080
N421	N42	0.274510	0.805400	0.235120
N431	N43	0.581910	0.156630	0.148730
N441	N44	0.369930	0.284170	0.210980
N451	N45	0.499240	0.186720	0.139670
N461	N46	0.514010	0.054970	0.042890
N471	N47	0.547790	0.216260	0.190080
N481	N48	0.725490	0.194600	0.235120
N491	N49	0.156630	0.581910	0.148730
N501	N50	0.284170	0.369930	0.210980
N511	N51	0.186720	0.499240	0.139670
N521	N52	0.054970	0.514010	0.042890
N531	N53	0.216260	0.547790	0.190080
N541	N54	0.194600	0.725490	0.235120
N551	N55	0.843370	0.418090	0.148730
N561	N56	0.715830	0.630070	0.210980
N571	N57	0.813280	0.500760	0.139670
N581	N58	0.945030	0.485990	0.042890
N591	N59	0.783740	0.452210	0.190080
N601	N60	0.805400	0.274510	0.235120
N611	N61	0.918090	0.656630	0.648730
N621	N62	0.130070	0.784170	0.710980
N631	N63	0.000760	0.686720	0.639670
N641	N64	0.985990	0.554970	0.542890
N651	N65	0.952210	0.716260	0.690080
N661	N66	0.774510	0.694600	0.735120
N671	N67	0.081910	0.343370	0.648730
N681	N68	0.869930	0.215830	0.710980
N691	N69	0.999240	0.313280	0.639670
N701	N70	0.014010	0.445030	0.542890
N711	N71	0.047790	0.283740	0.690080
N721	N72	0.225490	0.305400	0.735120
N731	N73	0.343370	0.081910	0.351270
N741	N74	0.215830	0.869930	0.289020
N751	N75	0.313280	0.999240	0.360330
N761	N76	0.445030	0.014010	0.457110
N771	N77	0.283740	0.047790	0.309920
N781	N78	0.305400	0.225490	0.264880
N791	N79	0.656630	0.918090	0.351270
N801	N80	0.784170	0.130070	0.289020
N811	N81	0.686720	0.000760	0.360330
N821	N82	0.554970	0.985990	0.457110
N831	N83	0.716260	0.952210	0.309920
N841	N84	0.694600	0.774510	0.264880
N851	N85	0.581910	0.156630	0.851270
N861	N86	0.369930	0.284170	0.789020
N871	N87	0.499240	0.186720	0.860330
N881	N88	0.514010	0.054970	0.957110
N891	N89	0.547790	0.216260	0.809920
N901	N90	0.725490	0.194600	0.764880
N911	N91	0.418090	0.843370	0.851270
N921	N92	0.630070	0.715830	0.789020
N931	N93	0.500760	0.813280	0.860330
N941	N94	0.485990	0.945030	0.957110
N951	N95	0.452210	0.783740	0.809920
N961	N96	0.274510	0.805400	0.764880
N971	N97	0.666400	0.666400	0.279380
N981	N98	0.737700	0.737700	0.194800
N991	N99	0.333600	0.333600	0.279380
N1001	N100	0.262300	0.262300	0.194800
N1011	N101	0.833600	0.166400	0.779380
N1021	N102	0.762300	0.237700	0.694800
N1031	N103	0.166400	0.833600	0.779380
N1041	N104	0.237700	0.762300	0.694800
N1051	N105	0.833600	0.166400	0.220620
N1061	N106	0.762300	0.237700	0.305200
N1071	N107	0.166400	0.833600	0.220620
N1081	N108	0.237700	0.762300	0.305200
N1091	N109	0.666400	0.666400	0.720620
N1101	N110	0.737700	0.737700	0.805200
N1111	N111	0.333600	0.333600	0.720620
N1121	N112	0.262300	0.262300	0.805200
N1131	N113	0.980270	0.575570	0.000000
N1141	N114	0.019730	0.424430	0.000000
N1151	N115	0.924430	0.480270	0.500000
N1161	N116	0.075570	0.519730	0.500000
N1171	N117	0.519730	0.075570	0.500000
N1181	N118	0.480270	0.924430	0.500000
N1191	N119	0.575570	0.980270	0.000000
N1201	N120	0.424430	0.019730	0.000000
