data_PUZTOV_clean_PM
_symmetry_space_group_name_H-M	'P1'
_cell_length_a	24.934000
_cell_length_b	13.227500
_cell_length_c	16.234000
_cell_angle_alpha	90.000000
_cell_angle_beta	127.520000
_cell_angle_gamma	90.000000
_symmetry_Int_Tables_number 1

loop_
_symmetry_equiv_pos_as_xyz
'x,y,z'

loop_
_atom_site_label
_atom_site_type_symbol
_atom_site_fract_x
_atom_site_fract_y
_atom_site_fract_z
Cd11	Cd1	0.171450	0.200280	0.382570
C11	C1	0.146900	0.395200	0.567200
C21	C2	0.085700	0.410100	0.545500
H11	H1	0.048600	0.371300	0.495400
C31	C3	0.079300	0.486200	0.600500
H21	H2	0.036500	0.502000	0.580500
C41	C4	0.135600	0.538100	0.684100
C51	C5	0.196700	0.506300	0.713300
H31	H3	0.236000	0.531200	0.774200
C61	C6	0.201800	0.436600	0.653200
H41	H4	0.244400	0.418700	0.673500
C71	C7	0.153100	0.323900	0.502700
C81	C8	0.127900	0.614900	0.743400
C91	C9	0.077800	0.106100	0.195800
C101	C10	0.037600	0.051600	0.094800
C111	C11	0.968300	0.051700	0.033100
H51	H5	0.946100	0.087700	0.053400
C121	C12	0.068900	0.002200	0.060000
H61	H6	0.115800	0.004700	0.099200
O11	O1	0.100060	0.286300	0.421700
O21	O2	0.210670	0.299000	0.530800
O31	O3	0.180560	0.653100	0.820000
O41	O4	0.069800	0.638100	0.709800
O51	O5	0.142100	0.103700	0.249200
O61	O6	0.049680	0.149700	0.226800
Cd21	Cd2	0.671450	0.700280	0.382570
C131	C13	0.646900	0.895200	0.567200
C141	C14	0.585700	0.910100	0.545500
H71	H7	0.548600	0.871300	0.495400
C151	C15	0.579300	0.986200	0.600500
H81	H8	0.536500	0.002000	0.580500
C161	C16	0.635600	0.038100	0.684100
C171	C17	0.696700	0.006300	0.713300
H91	H9	0.736000	0.031200	0.774200
C181	C18	0.701800	0.936600	0.653200
H101	H10	0.744400	0.918700	0.673500
C191	C19	0.653100	0.823900	0.502700
C201	C20	0.627900	0.114900	0.743400
C211	C21	0.577800	0.606100	0.195800
C221	C22	0.537600	0.551600	0.094800
C231	C23	0.468300	0.551700	0.033100
H111	H11	0.446100	0.587700	0.053400
C241	C24	0.568900	0.502200	0.060000
H121	H12	0.615800	0.504700	0.099200
O71	O7	0.600060	0.786300	0.421700
O81	O8	0.710670	0.799000	0.530800
O91	O9	0.680560	0.153100	0.820000
O101	O10	0.569800	0.138100	0.709800
O111	O11	0.642100	0.603700	0.249200
O121	O12	0.549680	0.649700	0.226800
Cd31	Cd3	0.828550	0.200280	0.117430
C251	C25	0.853100	0.395200	0.932800
C261	C26	0.914300	0.410100	0.954500
H131	H13	0.951400	0.371300	0.004600
C271	C27	0.920700	0.486200	0.899500
H141	H14	0.963500	0.502000	0.919500
C281	C28	0.864400	0.538100	0.815900
C291	C29	0.803300	0.506300	0.786700
H151	H15	0.764000	0.531200	0.725800
C301	C30	0.798200	0.436600	0.846800
H161	H16	0.755600	0.418700	0.826500
C311	C31	0.846900	0.323900	0.997300
C321	C32	0.872100	0.614900	0.756600
C331	C33	0.922200	0.106100	0.304200
C341	C34	0.962400	0.051600	0.405200
C351	C35	0.031700	0.051700	0.466900
H171	H17	0.053900	0.087700	0.446600
C361	C36	0.931100	0.002200	0.440000
H181	H18	0.884200	0.004700	0.400800
O131	O13	0.899940	0.286300	0.078300
O141	O14	0.789330	0.299000	0.969200
O151	O15	0.819440	0.653100	0.680000
O161	O16	0.930200	0.638100	0.790200
O171	O17	0.857900	0.103700	0.250800
O181	O18	0.950320	0.149700	0.273200
Cd41	Cd4	0.328550	0.700280	0.117430
C371	C37	0.353100	0.895200	0.932800
C381	C38	0.414300	0.910100	0.954500
H191	H19	0.451400	0.871300	0.004600
C391	C39	0.420700	0.986200	0.899500
H201	H20	0.463500	0.002000	0.919500
C401	C40	0.364400	0.038100	0.815900
C411	C41	0.303300	0.006300	0.786700
H211	H21	0.264000	0.031200	0.725800
C421	C42	0.298200	0.936600	0.846800
H221	H22	0.255600	0.918700	0.826500
C431	C43	0.346900	0.823900	0.997300
C441	C44	0.372100	0.114900	0.756600
C451	C45	0.422200	0.606100	0.304200
C461	C46	0.462400	0.551600	0.405200
C471	C47	0.531700	0.551700	0.466900
H231	H23	0.553900	0.587700	0.446600
C481	C48	0.431100	0.502200	0.440000
H241	H24	0.384200	0.504700	0.400800
O191	O19	0.399940	0.786300	0.078300
O201	O20	0.289330	0.799000	0.969200
O211	O21	0.319440	0.153100	0.680000
O221	O22	0.430200	0.138100	0.790200
O231	O23	0.357900	0.603700	0.250800
O241	O24	0.450320	0.649700	0.273200
Cd51	Cd5	0.828550	0.799720	0.617430
C491	C49	0.853100	0.604800	0.432800
C501	C50	0.914300	0.589900	0.454500
H251	H25	0.951400	0.628700	0.504600
C511	C51	0.920700	0.513800	0.399500
H261	H26	0.963500	0.498000	0.419500
C521	C52	0.864400	0.461900	0.315900
C531	C53	0.803300	0.493700	0.286700
H271	H27	0.764000	0.468800	0.225800
C541	C54	0.798200	0.563400	0.346800
H281	H28	0.755600	0.581300	0.326500
C551	C55	0.846900	0.676100	0.497300
C561	C56	0.872100	0.385100	0.256600
C571	C57	0.922200	0.893900	0.804200
C581	C58	0.962400	0.948400	0.905200
C591	C59	0.031700	0.948300	0.966900
H291	H29	0.053900	0.912300	0.946600
C601	C60	0.931100	0.997800	0.940000
H301	H30	0.884200	0.995300	0.900800
O251	O25	0.899940	0.713700	0.578300
O261	O26	0.789330	0.701000	0.469200
O271	O27	0.819440	0.346900	0.180000
O281	O28	0.930200	0.361900	0.290200
O291	O29	0.857900	0.896300	0.750800
O301	O30	0.950320	0.850300	0.773200
Cd61	Cd6	0.328550	0.299720	0.617430
C611	C61	0.353100	0.104800	0.432800
C621	C62	0.414300	0.089900	0.454500
H311	H31	0.451400	0.128700	0.504600
C631	C63	0.420700	0.013800	0.399500
H321	H32	0.463500	0.998000	0.419500
C641	C64	0.364400	0.961900	0.315900
C651	C65	0.303300	0.993700	0.286700
H331	H33	0.264000	0.968800	0.225800
C661	C66	0.298200	0.063400	0.346800
H341	H34	0.255600	0.081300	0.326500
C671	C67	0.346900	0.176100	0.497300
C681	C68	0.372100	0.885100	0.256600
C691	C69	0.422200	0.393900	0.804200
C701	C70	0.462400	0.448400	0.905200
C711	C71	0.531700	0.448300	0.966900
H351	H35	0.553900	0.412300	0.946600
C721	C72	0.431100	0.497800	0.940000
H361	H36	0.384200	0.495300	0.900800
O311	O31	0.399940	0.213700	0.578300
O321	O32	0.289330	0.201000	0.469200
O331	O33	0.319440	0.846900	0.180000
O341	O34	0.430200	0.861900	0.290200
O351	O35	0.357900	0.396300	0.750800
O361	O36	0.450320	0.350300	0.773200
Cd71	Cd7	0.171450	0.799720	0.882570
C731	C73	0.146900	0.604800	0.067200
C741	C74	0.085700	0.589900	0.045500
H371	H37	0.048600	0.628700	0.995400
C751	C75	0.079300	0.513800	0.100500
H381	H38	0.036500	0.498000	0.080500
C761	C76	0.135600	0.461900	0.184100
C771	C77	0.196700	0.493700	0.213300
H391	H39	0.236000	0.468800	0.274200
C781	C78	0.201800	0.563400	0.153200
H401	H40	0.244400	0.581300	0.173500
C791	C79	0.153100	0.676100	0.002700
C801	C80	0.127900	0.385100	0.243400
C811	C81	0.077800	0.893900	0.695800
C821	C82	0.037600	0.948400	0.594800
C831	C83	0.968300	0.948300	0.533100
H411	H41	0.946100	0.912300	0.553400
C841	C84	0.068900	0.997800	0.560000
H421	H42	0.115800	0.995300	0.599200
O371	O37	0.100060	0.713700	0.921700
O381	O38	0.210670	0.701000	0.030800
O391	O39	0.180560	0.346900	0.320000
O401	O40	0.069800	0.361900	0.209800
O411	O41	0.142100	0.896300	0.749200
O421	O42	0.049680	0.850300	0.726800
Cd81	Cd8	0.671450	0.299720	0.882570
C851	C85	0.646900	0.104800	0.067200
C861	C86	0.585700	0.089900	0.045500
H431	H43	0.548600	0.128700	0.995400
C871	C87	0.579300	0.013800	0.100500
H441	H44	0.536500	0.998000	0.080500
C881	C88	0.635600	0.961900	0.184100
C891	C89	0.696700	0.993700	0.213300
H451	H45	0.736000	0.968800	0.274200
C901	C90	0.701800	0.063400	0.153200
H461	H46	0.744400	0.081300	0.173500
C911	C91	0.653100	0.176100	0.002700
C921	C92	0.627900	0.885100	0.243400
C931	C93	0.577800	0.393900	0.695800
C941	C94	0.537600	0.448400	0.594800
C951	C95	0.468300	0.448300	0.533100
H471	H47	0.446100	0.412300	0.553400
C961	C96	0.568900	0.497800	0.560000
H481	H48	0.615800	0.495300	0.599200
O431	O43	0.600060	0.213700	0.921700
O441	O44	0.710670	0.201000	0.030800
O451	O45	0.680560	0.846900	0.320000
O461	O46	0.569800	0.861900	0.209800
O471	O47	0.642100	0.396300	0.749200
O481	O48	0.549680	0.350300	0.726800
Ca11	Ca1	0.000000	0.289590	0.250000
Ca21	Ca2	0.500000	0.789590	0.250000
Ca31	Ca3	0.000000	0.710410	0.750000
Ca41	Ca4	0.500000	0.210410	0.750000
