data_QADKAH_clean_PM
_symmetry_space_group_name_H-M	'P1'
_cell_length_a	14.292800
_cell_length_b	10.244000
_cell_length_c	18.990100
_cell_angle_alpha	90.000000
_cell_angle_beta	96.658000
_cell_angle_gamma	90.000000
_symmetry_Int_Tables_number 1

loop_
_symmetry_equiv_pos_as_xyz
'x,y,z'

loop_
_atom_site_label
_atom_site_type_symbol
_atom_site_fract_x
_atom_site_fract_y
_atom_site_fract_z
V11	V1	0.155400	0.614700	0.089400
V21	V2	0.227600	0.556100	0.280800
P11	P1	0.785100	0.374900	0.074900
P21	P2	0.166200	0.332500	0.169400
O11	O1	0.796400	0.425400	0.000600
O21	O2	0.692200	0.300300	0.075900
O31	O3	0.155500	0.402700	0.238800
O41	O4	0.182900	0.428800	0.109800
O51	O5	0.788900	0.493600	0.123200
O61	O6	0.247100	0.233500	0.175900
O71	O7	0.190900	0.651300	0.190500
C11	C1	0.880600	0.266100	0.104600
C21	C2	0.057900	0.246500	0.143300
C31	C3	0.974500	0.337200	0.120900
H11	H1	0.886400	0.200900	0.068300
H21	H2	0.866100	0.221100	0.147000
H31	H3	0.043000	0.192900	0.182600
H41	H4	0.066800	0.188800	0.104100
H51	H5	0.987300	0.385400	0.079100
H61	H6	0.969100	0.399900	0.158500
V31	V3	0.655400	0.114700	0.089400
V41	V4	0.727600	0.056100	0.280800
P31	P3	0.285100	0.874900	0.074900
P41	P4	0.666200	0.832500	0.169400
O81	O8	0.296400	0.925400	0.000600
O91	O9	0.192200	0.800300	0.075900
O101	O10	0.655500	0.902700	0.238800
O111	O11	0.682900	0.928800	0.109800
O121	O12	0.288900	0.993600	0.123200
O131	O13	0.747100	0.733500	0.175900
O141	O14	0.690900	0.151300	0.190500
C41	C4	0.380600	0.766100	0.104600
C51	C5	0.557900	0.746500	0.143300
C61	C6	0.474500	0.837200	0.120900
H71	H7	0.386400	0.700900	0.068300
H81	H8	0.366100	0.721100	0.147000
H91	H9	0.543000	0.692900	0.182600
H101	H10	0.566800	0.688800	0.104100
H111	H11	0.487300	0.885400	0.079100
H121	H12	0.469100	0.899900	0.158500
V51	V5	0.844600	0.614700	0.410600
V61	V6	0.772400	0.556100	0.219200
P51	P5	0.214900	0.374900	0.425100
P61	P6	0.833800	0.332500	0.330600
O151	O15	0.203600	0.425400	0.499400
O161	O16	0.307800	0.300300	0.424100
O171	O17	0.844500	0.402700	0.261200
O181	O18	0.817100	0.428800	0.390200
O191	O19	0.211100	0.493600	0.376800
O201	O20	0.752900	0.233500	0.324100
O211	O21	0.809100	0.651300	0.309500
C71	C7	0.119400	0.266100	0.395400
C81	C8	0.942100	0.246500	0.356700
C91	C9	0.025500	0.337200	0.379100
H131	H13	0.113600	0.200900	0.431700
H141	H14	0.133900	0.221100	0.353000
H151	H15	0.957000	0.192900	0.317400
H161	H16	0.933200	0.188800	0.395900
H171	H17	0.012700	0.385400	0.420900
H181	H18	0.030900	0.399900	0.341500
V71	V7	0.344600	0.114700	0.410600
V81	V8	0.272400	0.056100	0.219200
P71	P7	0.714900	0.874900	0.425100
P81	P8	0.333800	0.832500	0.330600
O221	O22	0.703600	0.925400	0.499400
O231	O23	0.807800	0.800300	0.424100
O241	O24	0.344500	0.902700	0.261200
O251	O25	0.317100	0.928800	0.390200
O261	O26	0.711100	0.993600	0.376800
O271	O27	0.252900	0.733500	0.324100
O281	O28	0.309100	0.151300	0.309500
C101	C10	0.619400	0.766100	0.395400
C111	C11	0.442100	0.746500	0.356700
C121	C12	0.525500	0.837200	0.379100
H191	H19	0.613600	0.700900	0.431700
H201	H20	0.633900	0.721100	0.353000
H211	H21	0.457000	0.692900	0.317400
H221	H22	0.433200	0.688800	0.395900
H231	H23	0.512700	0.885400	0.420900
H241	H24	0.530900	0.899900	0.341500
V91	V9	0.844600	0.385300	0.910600
V101	V10	0.772400	0.443900	0.719200
P91	P9	0.214900	0.625100	0.925100
P101	P10	0.833800	0.667500	0.830600
O291	O29	0.203600	0.574600	0.999400
O301	O30	0.307800	0.699700	0.924100
O311	O31	0.844500	0.597300	0.761200
O321	O32	0.817100	0.571200	0.890200
O331	O33	0.211100	0.506400	0.876800
O341	O34	0.752900	0.766500	0.824100
O351	O35	0.809100	0.348700	0.809500
C131	C13	0.119400	0.733900	0.895400
C141	C14	0.942100	0.753500	0.856700
C151	C15	0.025500	0.662800	0.879100
H251	H25	0.113600	0.799100	0.931700
H261	H26	0.133900	0.778900	0.853000
H271	H27	0.957000	0.807100	0.817400
H281	H28	0.933200	0.811200	0.895900
H291	H29	0.012700	0.614600	0.920900
H301	H30	0.030900	0.600100	0.841500
V111	V11	0.344600	0.885300	0.910600
V121	V12	0.272400	0.943900	0.719200
P111	P11	0.714900	0.125100	0.925100
P121	P12	0.333800	0.167500	0.830600
O361	O36	0.703600	0.074600	0.999400
O371	O37	0.807800	0.199700	0.924100
O381	O38	0.344500	0.097300	0.761200
O391	O39	0.317100	0.071200	0.890200
O401	O40	0.711100	0.006400	0.876800
O411	O41	0.252900	0.266500	0.824100
O421	O42	0.309100	0.848700	0.809500
C161	C16	0.619400	0.233900	0.895400
C171	C17	0.442100	0.253500	0.856700
C181	C18	0.525500	0.162800	0.879100
H311	H31	0.613600	0.299100	0.931700
H321	H32	0.633900	0.278900	0.853000
H331	H33	0.457000	0.307100	0.817400
H341	H34	0.433200	0.311200	0.895900
H351	H35	0.512700	0.114600	0.920900
H361	H36	0.530900	0.100100	0.841500
V131	V13	0.155400	0.385300	0.589400
V141	V14	0.227600	0.443900	0.780800
P131	P13	0.785100	0.625100	0.574900
P141	P14	0.166200	0.667500	0.669400
O431	O43	0.796400	0.574600	0.500600
O441	O44	0.692200	0.699700	0.575900
O451	O45	0.155500	0.597300	0.738800
O461	O46	0.182900	0.571200	0.609800
O471	O47	0.788900	0.506400	0.623200
O481	O48	0.247100	0.766500	0.675900
O491	O49	0.190900	0.348700	0.690500
C191	C19	0.880600	0.733900	0.604600
C201	C20	0.057900	0.753500	0.643300
C211	C21	0.974500	0.662800	0.620900
H371	H37	0.886400	0.799100	0.568300
H381	H38	0.866100	0.778900	0.647000
H391	H39	0.043000	0.807100	0.682600
H401	H40	0.066800	0.811200	0.604100
H411	H41	0.987300	0.614600	0.579100
H421	H42	0.969100	0.600100	0.658500
V151	V15	0.655400	0.885300	0.589400
V161	V16	0.727600	0.943900	0.780800
P151	P15	0.285100	0.125100	0.574900
P161	P16	0.666200	0.167500	0.669400
O501	O50	0.296400	0.074600	0.500600
O511	O51	0.192200	0.199700	0.575900
O521	O52	0.655500	0.097300	0.738800
O531	O53	0.682900	0.071200	0.609800
O541	O54	0.288900	0.006400	0.623200
O551	O55	0.747100	0.266500	0.675900
O561	O56	0.690900	0.848700	0.690500
C221	C22	0.380600	0.233900	0.604600
C231	C23	0.557900	0.253500	0.643300
C241	C24	0.474500	0.162800	0.620900
H431	H43	0.386400	0.299100	0.568300
H441	H44	0.366100	0.278900	0.647000
H451	H45	0.543000	0.307100	0.682600
H461	H46	0.566800	0.311200	0.604100
H471	H47	0.487300	0.114600	0.579100
H481	H48	0.469100	0.100100	0.658500
