data_QAHMUJ_clean_PM
_symmetry_space_group_name_H-M	'P1'
_cell_length_a	6.922400
_cell_length_b	18.809000
_cell_length_c	9.684900
_cell_angle_alpha	90.000000
_cell_angle_beta	90.000000
_cell_angle_gamma	90.000000
_symmetry_Int_Tables_number 1

loop_
_symmetry_equiv_pos_as_xyz
'x,y,z'

loop_
_atom_site_label
_atom_site_type_symbol
_atom_site_fract_x
_atom_site_fract_y
_atom_site_fract_z
Ba11	Ba1	0.750000	0.750000	0.493310
Ba21	Ba2	0.250000	0.250000	0.006690
Ba31	Ba3	0.250000	0.250000	0.506690
Ba41	Ba4	0.750000	0.750000	0.993310
Cd11	Cd1	0.000000	0.500000	0.000000
Cd21	Cd2	0.500000	0.000000	0.000000
Cd31	Cd3	0.500000	0.500000	0.500000
Cd41	Cd4	0.000000	0.000000	0.500000
H11	H1	0.428600	0.569300	0.831400
H21	H2	0.623700	0.582200	0.907600
H31	H3	0.071400	0.930700	0.831400
H41	H4	0.876300	0.917800	0.907600
H51	H5	0.928600	0.430700	0.668600
H61	H6	0.123700	0.417800	0.592400
H71	H7	0.571400	0.069300	0.668600
H81	H8	0.376300	0.082200	0.592400
H91	H9	0.571400	0.430700	0.168600
H101	H10	0.376300	0.417800	0.092400
H111	H11	0.928600	0.069300	0.168600
H121	H12	0.123700	0.082200	0.092400
H131	H13	0.071400	0.569300	0.331400
H141	H14	0.876300	0.582200	0.407600
H151	H15	0.428600	0.930700	0.331400
H161	H16	0.623700	0.917800	0.407600
C11	C1	0.616500	0.486500	0.808400
C21	C2	0.567700	0.565600	0.821600
C31	C3	0.628000	0.617500	0.709500
C41	C4	0.883500	0.013500	0.808400
C51	C5	0.932300	0.934400	0.821600
C61	C6	0.872000	0.882500	0.709500
C71	C7	0.116500	0.513500	0.691600
C81	C8	0.067700	0.434400	0.678400
C91	C9	0.128000	0.382500	0.790500
C101	C10	0.383500	0.986500	0.691600
C111	C11	0.432300	0.065600	0.678400
C121	C12	0.372000	0.117500	0.790500
C131	C13	0.383500	0.513500	0.191600
C141	C14	0.432300	0.434400	0.178400
C151	C15	0.372000	0.382500	0.290500
C161	C16	0.116500	0.986500	0.191600
C171	C17	0.067700	0.065600	0.178400
C181	C18	0.128000	0.117500	0.290500
C191	C19	0.883500	0.486500	0.308400
C201	C20	0.932300	0.565600	0.321600
C211	C21	0.872000	0.617500	0.209500
C221	C22	0.616500	0.013500	0.308400
C231	C23	0.567700	0.934400	0.321600
C241	C24	0.628000	0.882500	0.209500
O11	O1	0.706000	0.458100	0.906100
O21	O2	0.560600	0.452500	0.706100
O31	O3	0.634300	0.598600	0.583800
O41	O4	0.659000	0.680400	0.747000
O51	O5	0.794000	0.041900	0.906100
O61	O6	0.939400	0.047500	0.706100
O71	O7	0.865700	0.901400	0.583800
O81	O8	0.841000	0.819600	0.747000
O91	O9	0.206000	0.541900	0.593900
O101	O10	0.060600	0.547500	0.793900
O111	O11	0.134300	0.401400	0.916200
O121	O12	0.159000	0.319600	0.753000
O131	O13	0.294000	0.958100	0.593900
O141	O14	0.439400	0.952500	0.793900
O151	O15	0.365700	0.098600	0.916200
O161	O16	0.341000	0.180400	0.753000
O171	O17	0.294000	0.541900	0.093900
O181	O18	0.439400	0.547500	0.293900
O191	O19	0.365700	0.401400	0.416200
O201	O20	0.341000	0.319600	0.253000
O211	O21	0.206000	0.958100	0.093900
O221	O22	0.060600	0.952500	0.293900
O231	O23	0.134300	0.098600	0.416200
O241	O24	0.159000	0.180400	0.253000
O251	O25	0.794000	0.458100	0.406100
O261	O26	0.939400	0.452500	0.206100
O271	O27	0.865700	0.598600	0.083800
O281	O28	0.841000	0.680400	0.247000
O291	O29	0.706000	0.041900	0.406100
O301	O30	0.560600	0.047500	0.206100
O311	O31	0.634300	0.901400	0.083800
O321	O32	0.659000	0.819600	0.247000
