data_QAJMUM_clean_PM
_symmetry_space_group_name_H-M	'P1'
_cell_length_a	10.925000
_cell_length_b	10.925000
_cell_length_c	20.461000
_cell_angle_alpha	90.000000
_cell_angle_beta	90.000000
_cell_angle_gamma	90.000000
_symmetry_Int_Tables_number 1

loop_
_symmetry_equiv_pos_as_xyz
'x,y,z'

loop_
_atom_site_label
_atom_site_type_symbol
_atom_site_fract_x
_atom_site_fract_y
_atom_site_fract_z
Gd11	Gd1	0.153570	0.411390	0.185040
O11	O1	0.099600	0.247000	0.114600
O21	O2	0.319700	0.540300	0.217800
O31	O3	0.108800	0.443900	0.300140
O41	O4	0.145900	0.498000	0.077590
C11	C1	0.066000	0.499700	0.036960
Gd21	Gd2	0.653570	0.911390	0.685040
O51	O5	0.599600	0.747000	0.614600
O61	O6	0.819700	0.040300	0.717800
O71	O7	0.608800	0.943900	0.800140
O81	O8	0.645900	0.998000	0.577590
C21	C2	0.566000	0.999700	0.536960
Gd31	Gd3	0.846430	0.588610	0.185040
O91	O9	0.900400	0.753000	0.114600
O101	O10	0.680300	0.459700	0.217800
O111	O11	0.891200	0.556100	0.300140
O121	O12	0.854100	0.502000	0.077590
C31	C3	0.934000	0.500300	0.036960
Gd41	Gd4	0.346430	0.088610	0.685040
O131	O13	0.400400	0.253000	0.614600
O141	O14	0.180300	0.959700	0.717800
O151	O15	0.391200	0.056100	0.800140
O161	O16	0.354100	0.002000	0.577590
C41	C4	0.434000	0.000300	0.536960
Gd51	Gd5	0.411390	0.846430	0.814960
O171	O17	0.247000	0.900400	0.885400
O181	O18	0.540300	0.680300	0.782200
O191	O19	0.443900	0.891200	0.699860
O201	O20	0.498000	0.854100	0.922410
C51	C5	0.499700	0.934000	0.963040
Gd61	Gd6	0.911390	0.346430	0.314960
O211	O21	0.747000	0.400400	0.385400
O221	O22	0.040300	0.180300	0.282200
O231	O23	0.943900	0.391200	0.199860
O241	O24	0.998000	0.354100	0.422410
C61	C6	0.999700	0.434000	0.463040
Gd71	Gd7	0.588610	0.153570	0.814960
O251	O25	0.753000	0.099600	0.885400
O261	O26	0.459700	0.319700	0.782200
O271	O27	0.556100	0.108800	0.699860
O281	O28	0.502000	0.145900	0.922410
C71	C7	0.500300	0.066000	0.963040
Gd81	Gd8	0.088610	0.653570	0.314960
O291	O29	0.253000	0.599600	0.385400
O301	O30	0.959700	0.819700	0.282200
O311	O31	0.056100	0.608800	0.199860
O321	O32	0.002000	0.645900	0.422410
C81	C8	0.000300	0.566000	0.463040
Gd91	Gd9	0.846430	0.411390	0.814960
O331	O33	0.900400	0.247000	0.885400
O341	O34	0.680300	0.540300	0.782200
O351	O35	0.891200	0.443900	0.699860
O361	O36	0.854100	0.498000	0.922410
C91	C9	0.934000	0.499700	0.963040
Gd101	Gd10	0.346430	0.911390	0.314960
O371	O37	0.400400	0.747000	0.385400
O381	O38	0.180300	0.040300	0.282200
O391	O39	0.391200	0.943900	0.199860
O401	O40	0.354100	0.998000	0.422410
C101	C10	0.434000	0.999700	0.463040
Gd111	Gd11	0.153570	0.588610	0.814960
O411	O41	0.099600	0.753000	0.885400
O421	O42	0.319700	0.459700	0.782200
O431	O43	0.108800	0.556100	0.699860
O441	O44	0.145900	0.502000	0.922410
C111	C11	0.066000	0.500300	0.963040
Gd121	Gd12	0.653570	0.088610	0.314960
O451	O45	0.599600	0.253000	0.385400
O461	O46	0.819700	0.959700	0.282200
O471	O47	0.608800	0.056100	0.199860
O481	O48	0.645900	0.002000	0.422410
C121	C12	0.566000	0.000300	0.463040
Gd131	Gd13	0.588610	0.846430	0.185040
O491	O49	0.753000	0.900400	0.114600
O501	O50	0.459700	0.680300	0.217800
O511	O51	0.556100	0.891200	0.300140
O521	O52	0.502000	0.854100	0.077590
C131	C13	0.500300	0.934000	0.036960
Gd141	Gd14	0.088610	0.346430	0.685040
O531	O53	0.253000	0.400400	0.614600
O541	O54	0.959700	0.180300	0.717800
O551	O55	0.056100	0.391200	0.800140
O561	O56	0.002000	0.354100	0.577590
C141	C14	0.000300	0.434000	0.536960
Gd151	Gd15	0.411390	0.153570	0.185040
O571	O57	0.247000	0.099600	0.114600
O581	O58	0.540300	0.319700	0.217800
O591	O59	0.443900	0.108800	0.300140
O601	O60	0.498000	0.145900	0.077590
C151	C15	0.499700	0.066000	0.036960
Gd161	Gd16	0.911390	0.653570	0.685040
O611	O61	0.747000	0.599600	0.614600
O621	O62	0.040300	0.819700	0.717800
O631	O63	0.943900	0.608800	0.800140
O641	O64	0.998000	0.645900	0.577590
C161	C16	0.999700	0.566000	0.536960
Gd171	Gd17	0.500000	0.500000	0.155220
Gd181	Gd18	0.000000	0.000000	0.655220
Gd191	Gd19	0.500000	0.500000	0.844780
Gd201	Gd20	0.000000	0.000000	0.344780
O651	O65	0.274600	0.725400	0.260400
C171	C17	0.345300	0.654700	0.228200
O661	O66	0.774600	0.225400	0.760400
C181	C18	0.845300	0.154700	0.728200
O671	O67	0.725400	0.274600	0.260400
C191	C19	0.654700	0.345300	0.228200
O681	O68	0.225400	0.774600	0.760400
C201	C20	0.154700	0.845300	0.728200
O691	O69	0.725400	0.725400	0.739600
C211	C21	0.654700	0.654700	0.771800
O701	O70	0.225400	0.225400	0.239600
C221	C22	0.154700	0.154700	0.271800
O711	O71	0.274600	0.274600	0.739600
C231	C23	0.345300	0.345300	0.771800
O721	O72	0.774600	0.774600	0.239600
C241	C24	0.845300	0.845300	0.271800
O731	O73	0.345500	0.345500	0.135000
C251	C25	0.146700	0.146700	0.087100
H11	H1	0.111100	0.111100	0.050400
O741	O74	0.845500	0.845500	0.635000
C261	C26	0.646700	0.646700	0.587100
H21	H2	0.611100	0.611100	0.550400
O751	O75	0.654500	0.654500	0.135000
C271	C27	0.853300	0.853300	0.087100
H31	H3	0.888900	0.888900	0.050400
O761	O76	0.154500	0.154500	0.635000
C281	C28	0.353300	0.353300	0.587100
H41	H4	0.388900	0.388900	0.550400
O771	O77	0.345500	0.654500	0.865000
C291	C29	0.146700	0.853300	0.912900
H51	H5	0.111100	0.888900	0.949600
O781	O78	0.845500	0.154500	0.365000
C301	C30	0.646700	0.353300	0.412900
H61	H6	0.611100	0.388900	0.449600
O791	O79	0.654500	0.345500	0.865000
C311	C31	0.853300	0.146700	0.912900
H71	H7	0.888900	0.111100	0.949600
O801	O80	0.154500	0.845500	0.365000
C321	C32	0.353300	0.646700	0.412900
H81	H8	0.388900	0.611100	0.449600
