data_QAKFIU_clean_PM
_symmetry_space_group_name_H-M	'P1'
_cell_length_a	27.841000
_cell_length_b	7.526600
_cell_length_c	17.413000
_cell_angle_alpha	90.000000
_cell_angle_beta	90.000000
_cell_angle_gamma	90.000000
_symmetry_Int_Tables_number 1

loop_
_symmetry_equiv_pos_as_xyz
'x,y,z'

loop_
_atom_site_label
_atom_site_type_symbol
_atom_site_fract_x
_atom_site_fract_y
_atom_site_fract_z
Zn11	Zn1	0.097470	0.306320	0.233860
O11	O1	0.564070	0.010800	0.222940
O21	O2	0.576340	0.207100	0.873370
O31	O3	0.510280	0.363600	0.850570
O41	O4	0.613450	0.967100	0.125500
C11	C1	0.355140	0.327300	0.192600
H11	H1	0.348300	0.372600	0.241100
C21	C2	0.204390	0.321300	0.263200
H21	H2	0.195900	0.344900	0.313900
C31	C3	0.252780	0.312100	0.244400
H31	H3	0.276000	0.328300	0.282200
C41	C4	0.266550	0.278500	0.169200
C51	C5	0.317730	0.267600	0.145100
C61	C6	0.330320	0.201500	0.073400
H41	H4	0.306400	0.161900	0.040200
C71	C7	0.377500	0.193800	0.050700
H51	H5	0.385200	0.148700	0.002600
C81	C8	0.402070	0.318700	0.167300
H61	H6	0.426600	0.360000	0.198800
C91	C9	0.462850	0.233500	0.074600
C101	C10	0.475280	0.275300	0.000100
H71	H7	0.452700	0.322900	0.966500
C111	C11	0.495340	0.161800	0.126300
H81	H8	0.486000	0.134500	0.176200
C121	C12	0.542230	0.131600	0.102000
C131	C13	0.555430	0.173300	0.027100
H91	H9	0.586800	0.153100	0.010900
C141	C14	0.536380	0.276500	0.893100
C151	C15	0.522330	0.244600	0.976200
C161	C16	0.576990	0.032200	0.152900
C171	C17	0.230030	0.255600	0.115900
H101	H10	0.237500	0.234500	0.064700
C181	C18	0.182760	0.264000	0.138500
H111	H11	0.159000	0.245700	0.101900
N11	N1	0.169370	0.297500	0.211200
N21	N2	0.412770	0.251300	0.097820
Zn21	Zn2	0.597470	0.193680	0.766140
O51	O5	0.064070	0.489200	0.777060
O61	O6	0.076340	0.292900	0.126630
O71	O7	0.010280	0.136400	0.149430
O81	O8	0.113450	0.532900	0.874500
C191	C19	0.855140	0.172700	0.807400
H121	H12	0.848300	0.127400	0.758900
C201	C20	0.704390	0.178700	0.736800
H131	H13	0.695900	0.155100	0.686100
C211	C21	0.752780	0.187900	0.755600
H141	H14	0.776000	0.171700	0.717800
C221	C22	0.766550	0.221500	0.830800
C231	C23	0.817730	0.232400	0.854900
C241	C24	0.830320	0.298500	0.926600
H151	H15	0.806400	0.338100	0.959800
C251	C25	0.877500	0.306200	0.949300
H161	H16	0.885200	0.351300	0.997400
C261	C26	0.902070	0.181300	0.832700
H171	H17	0.926600	0.140000	0.801200
C271	C27	0.962850	0.266500	0.925400
C281	C28	0.975280	0.224700	0.999900
H181	H18	0.952700	0.177100	0.033500
C291	C29	0.995340	0.338200	0.873700
H191	H19	0.986000	0.365500	0.823800
C301	C30	0.042230	0.368400	0.898000
C311	C31	0.055430	0.326700	0.972900
H201	H20	0.086800	0.346900	0.989100
C321	C32	0.036380	0.223500	0.106900
C331	C33	0.022330	0.255400	0.023800
C341	C34	0.076990	0.467800	0.847100
C351	C35	0.730030	0.244400	0.884100
H211	H21	0.737500	0.265500	0.935300
C361	C36	0.682760	0.236000	0.861500
H221	H22	0.659000	0.254300	0.898100
N31	N3	0.669370	0.202500	0.788800
N41	N4	0.912770	0.248700	0.902180
Zn31	Zn3	0.597470	0.806320	0.266140
O91	O9	0.064070	0.510800	0.277060
O101	O10	0.076340	0.707100	0.626630
O111	O11	0.010280	0.863600	0.649430
O121	O12	0.113450	0.467100	0.374500
C371	C37	0.855140	0.827300	0.307400
H231	H23	0.848300	0.872600	0.258900
C381	C38	0.704390	0.821300	0.236800
H241	H24	0.695900	0.844900	0.186100
C391	C39	0.752780	0.812100	0.255600
H251	H25	0.776000	0.828300	0.217800
C401	C40	0.766550	0.778500	0.330800
C411	C41	0.817730	0.767600	0.354900
C421	C42	0.830320	0.701500	0.426600
H261	H26	0.806400	0.661900	0.459800
C431	C43	0.877500	0.693800	0.449300
H271	H27	0.885200	0.648700	0.497400
C441	C44	0.902070	0.818700	0.332700
H281	H28	0.926600	0.860000	0.301200
C451	C45	0.962850	0.733500	0.425400
C461	C46	0.975280	0.775300	0.499900
H291	H29	0.952700	0.822900	0.533500
C471	C47	0.995340	0.661800	0.373700
H301	H30	0.986000	0.634500	0.323800
C481	C48	0.042230	0.631600	0.398000
C491	C49	0.055430	0.673300	0.472900
H311	H31	0.086800	0.653100	0.489100
C501	C50	0.036380	0.776500	0.606900
C511	C51	0.022330	0.744600	0.523800
C521	C52	0.076990	0.532200	0.347100
C531	C53	0.730030	0.755600	0.384100
H321	H32	0.737500	0.734500	0.435300
C541	C54	0.682760	0.764000	0.361500
H331	H33	0.659000	0.745700	0.398100
N51	N5	0.669370	0.797500	0.288800
N61	N6	0.912770	0.751300	0.402180
Zn41	Zn4	0.097470	0.693680	0.733860
O131	O13	0.564070	0.989200	0.722940
O141	O14	0.576340	0.792900	0.373370
O151	O15	0.510280	0.636400	0.350570
O161	O16	0.613450	0.032900	0.625500
C551	C55	0.355140	0.672700	0.692600
H341	H34	0.348300	0.627400	0.741100
C561	C56	0.204390	0.678700	0.763200
H351	H35	0.195900	0.655100	0.813900
C571	C57	0.252780	0.687900	0.744400
H361	H36	0.276000	0.671700	0.782200
C581	C58	0.266550	0.721500	0.669200
C591	C59	0.317730	0.732400	0.645100
C601	C60	0.330320	0.798500	0.573400
H371	H37	0.306400	0.838100	0.540200
C611	C61	0.377500	0.806200	0.550700
H381	H38	0.385200	0.851300	0.502600
C621	C62	0.402070	0.681300	0.667300
H391	H39	0.426600	0.640000	0.698800
C631	C63	0.462850	0.766500	0.574600
C641	C64	0.475280	0.724700	0.500100
H401	H40	0.452700	0.677100	0.466500
C651	C65	0.495340	0.838200	0.626300
H411	H41	0.486000	0.865500	0.676200
C661	C66	0.542230	0.868400	0.602000
C671	C67	0.555430	0.826700	0.527100
H421	H42	0.586800	0.846900	0.510900
C681	C68	0.536380	0.723500	0.393100
C691	C69	0.522330	0.755400	0.476200
C701	C70	0.576990	0.967800	0.652900
C711	C71	0.230030	0.744400	0.615900
H431	H43	0.237500	0.765500	0.564700
C721	C72	0.182760	0.736000	0.638500
H441	H44	0.159000	0.754300	0.601900
N71	N7	0.169370	0.702500	0.711200
N81	N8	0.412770	0.748700	0.597820
Zn51	Zn5	0.402530	0.193680	0.733860
O171	O17	0.935930	0.489200	0.722940
O181	O18	0.923660	0.292900	0.373370
O191	O19	0.989720	0.136400	0.350570
O201	O20	0.886550	0.532900	0.625500
C731	C73	0.144860	0.172700	0.692600
H451	H45	0.151700	0.127400	0.741100
C741	C74	0.295610	0.178700	0.763200
H461	H46	0.304100	0.155100	0.813900
C751	C75	0.247220	0.187900	0.744400
H471	H47	0.224000	0.171700	0.782200
C761	C76	0.233450	0.221500	0.669200
C771	C77	0.182270	0.232400	0.645100
C781	C78	0.169680	0.298500	0.573400
H481	H48	0.193600	0.338100	0.540200
C791	C79	0.122500	0.306200	0.550700
H491	H49	0.114800	0.351300	0.502600
C801	C80	0.097930	0.181300	0.667300
H501	H50	0.073400	0.140000	0.698800
C811	C81	0.037150	0.266500	0.574600
C821	C82	0.024720	0.224700	0.500100
H511	H51	0.047300	0.177100	0.466500
C831	C83	0.004660	0.338200	0.626300
H521	H52	0.014000	0.365500	0.676200
C841	C84	0.957770	0.368400	0.602000
C851	C85	0.944570	0.326700	0.527100
H531	H53	0.913200	0.346900	0.510900
C861	C86	0.963620	0.223500	0.393100
C871	C87	0.977670	0.255400	0.476200
C881	C88	0.923010	0.467800	0.652900
C891	C89	0.269970	0.244400	0.615900
H541	H54	0.262500	0.265500	0.564700
C901	C90	0.317240	0.236000	0.638500
H551	H55	0.341000	0.254300	0.601900
N91	N9	0.330630	0.202500	0.711200
N101	N10	0.087230	0.248700	0.597820
Zn61	Zn6	0.902530	0.306320	0.266140
O211	O21	0.435930	0.010800	0.277060
O221	O22	0.423660	0.207100	0.626630
O231	O23	0.489720	0.363600	0.649430
O241	O24	0.386550	0.967100	0.374500
C911	C91	0.644860	0.327300	0.307400
H561	H56	0.651700	0.372600	0.258900
C921	C92	0.795610	0.321300	0.236800
H571	H57	0.804100	0.344900	0.186100
C931	C93	0.747220	0.312100	0.255600
H581	H58	0.724000	0.328300	0.217800
C941	C94	0.733450	0.278500	0.330800
C951	C95	0.682270	0.267600	0.354900
C961	C96	0.669680	0.201500	0.426600
H591	H59	0.693600	0.161900	0.459800
C971	C97	0.622500	0.193800	0.449300
H601	H60	0.614800	0.148700	0.497400
C981	C98	0.597930	0.318700	0.332700
H611	H61	0.573400	0.360000	0.301200
C991	C99	0.537150	0.233500	0.425400
C1001	C100	0.524720	0.275300	0.499900
H621	H62	0.547300	0.322900	0.533500
C1011	C101	0.504660	0.161800	0.373700
H631	H63	0.514000	0.134500	0.323800
C1021	C102	0.457770	0.131600	0.398000
C1031	C103	0.444570	0.173300	0.472900
H641	H64	0.413200	0.153100	0.489100
C1041	C104	0.463620	0.276500	0.606900
C1051	C105	0.477670	0.244600	0.523800
C1061	C106	0.423010	0.032200	0.347100
C1071	C107	0.769970	0.255600	0.384100
H651	H65	0.762500	0.234500	0.435300
C1081	C108	0.817240	0.264000	0.361500
H661	H66	0.841000	0.245700	0.398100
N111	N11	0.830630	0.297500	0.288800
N121	N12	0.587230	0.251300	0.402180
Zn71	Zn7	0.902530	0.693680	0.766140
O251	O25	0.435930	0.989200	0.777060
O261	O26	0.423660	0.792900	0.126630
O271	O27	0.489720	0.636400	0.149430
O281	O28	0.386550	0.032900	0.874500
C1091	C109	0.644860	0.672700	0.807400
H671	H67	0.651700	0.627400	0.758900
C1101	C110	0.795610	0.678700	0.736800
H681	H68	0.804100	0.655100	0.686100
C1111	C111	0.747220	0.687900	0.755600
H691	H69	0.724000	0.671700	0.717800
C1121	C112	0.733450	0.721500	0.830800
C1131	C113	0.682270	0.732400	0.854900
C1141	C114	0.669680	0.798500	0.926600
H701	H70	0.693600	0.838100	0.959800
C1151	C115	0.622500	0.806200	0.949300
H711	H71	0.614800	0.851300	0.997400
C1161	C116	0.597930	0.681300	0.832700
H721	H72	0.573400	0.640000	0.801200
C1171	C117	0.537150	0.766500	0.925400
C1181	C118	0.524720	0.724700	0.999900
H731	H73	0.547300	0.677100	0.033500
C1191	C119	0.504660	0.838200	0.873700
H741	H74	0.514000	0.865500	0.823800
C1201	C120	0.457770	0.868400	0.898000
C1211	C121	0.444570	0.826700	0.972900
H751	H75	0.413200	0.846900	0.989100
C1221	C122	0.463620	0.723500	0.106900
C1231	C123	0.477670	0.755400	0.023800
C1241	C124	0.423010	0.967800	0.847100
C1251	C125	0.769970	0.744400	0.884100
H761	H76	0.762500	0.765500	0.935300
C1261	C126	0.817240	0.736000	0.861500
H771	H77	0.841000	0.754300	0.898100
N131	N13	0.830630	0.702500	0.788800
N141	N14	0.587230	0.748700	0.902180
Zn81	Zn8	0.402530	0.806320	0.233860
O291	O29	0.935930	0.510800	0.222940
O301	O30	0.923660	0.707100	0.873370
O311	O31	0.989720	0.863600	0.850570
O321	O32	0.886550	0.467100	0.125500
C1271	C127	0.144860	0.827300	0.192600
H781	H78	0.151700	0.872600	0.241100
C1281	C128	0.295610	0.821300	0.263200
H791	H79	0.304100	0.844900	0.313900
C1291	C129	0.247220	0.812100	0.244400
H801	H80	0.224000	0.828300	0.282200
C1301	C130	0.233450	0.778500	0.169200
C1311	C131	0.182270	0.767600	0.145100
C1321	C132	0.169680	0.701500	0.073400
H811	H81	0.193600	0.661900	0.040200
C1331	C133	0.122500	0.693800	0.050700
H821	H82	0.114800	0.648700	0.002600
C1341	C134	0.097930	0.818700	0.167300
H831	H83	0.073400	0.860000	0.198800
C1351	C135	0.037150	0.733500	0.074600
C1361	C136	0.024720	0.775300	0.000100
H841	H84	0.047300	0.822900	0.966500
C1371	C137	0.004660	0.661800	0.126300
H851	H85	0.014000	0.634500	0.176200
C1381	C138	0.957770	0.631600	0.102000
C1391	C139	0.944570	0.673300	0.027100
H861	H86	0.913200	0.653100	0.010900
C1401	C140	0.963620	0.776500	0.893100
C1411	C141	0.977670	0.744600	0.976200
C1421	C142	0.923010	0.532200	0.152900
C1431	C143	0.269970	0.755600	0.115900
H871	H87	0.262500	0.734500	0.064700
C1441	C144	0.317240	0.764000	0.138500
H881	H88	0.341000	0.745700	0.101900
N151	N15	0.330630	0.797500	0.211200
N161	N16	0.087230	0.751300	0.097820
