data_QALHAO_clean_PM
_symmetry_space_group_name_H-M	'P1'
_cell_length_a	24.743000
_cell_length_b	24.743000
_cell_length_c	24.743000
_cell_angle_alpha	90.000000
_cell_angle_beta	90.000000
_cell_angle_gamma	90.000000
_symmetry_Int_Tables_number 1

loop_
_symmetry_equiv_pos_as_xyz
'x,y,z'

loop_
_atom_site_label
_atom_site_type_symbol
_atom_site_fract_x
_atom_site_fract_y
_atom_site_fract_z
N11	N1	0.910600	0.520700	0.186600
C11	C1	0.867000	0.531700	0.157800
N21	N2	0.910600	0.020700	0.686600
C21	C2	0.867000	0.031700	0.657800
N31	N3	0.410600	0.520700	0.686600
C31	C3	0.367000	0.531700	0.657800
N41	N4	0.410600	0.020700	0.186600
C41	C4	0.367000	0.031700	0.157800
N51	N5	0.339400	0.229300	0.686600
C51	C5	0.383000	0.218300	0.657800
N61	N6	0.339400	0.729300	0.186600
C61	C6	0.383000	0.718300	0.157800
N71	N7	0.839400	0.229300	0.186600
C71	C7	0.883000	0.218300	0.157800
N81	N8	0.839400	0.729300	0.686600
C81	C8	0.883000	0.718300	0.657800
N91	N9	0.839400	0.020700	0.063400
C91	C9	0.883000	0.031700	0.092200
N101	N10	0.839400	0.520700	0.563400
C101	C10	0.883000	0.531700	0.592200
N111	N11	0.339400	0.020700	0.563400
C111	C11	0.383000	0.031700	0.592200
N121	N12	0.339400	0.520700	0.063400
C121	C12	0.383000	0.531700	0.092200
N131	N13	0.410600	0.729300	0.563400
C131	C13	0.367000	0.718300	0.592200
N141	N14	0.410600	0.229300	0.063400
C141	C14	0.367000	0.218300	0.092200
N151	N15	0.910600	0.729300	0.063400
C151	C15	0.867000	0.718300	0.092200
N161	N16	0.910600	0.229300	0.563400
C161	C16	0.867000	0.218300	0.592200
N171	N17	0.186600	0.910600	0.520700
C171	C17	0.157800	0.867000	0.531700
N181	N18	0.186600	0.410600	0.020700
C181	C18	0.157800	0.367000	0.031700
N191	N19	0.686600	0.910600	0.020700
C191	C19	0.657800	0.867000	0.031700
N201	N20	0.686600	0.410600	0.520700
C201	C20	0.657800	0.367000	0.531700
N211	N21	0.686600	0.339400	0.229300
C211	C21	0.657800	0.383000	0.218300
N221	N22	0.686600	0.839400	0.729300
C221	C22	0.657800	0.883000	0.718300
N231	N23	0.186600	0.339400	0.729300
C231	C23	0.157800	0.383000	0.718300
N241	N24	0.186600	0.839400	0.229300
C241	C24	0.157800	0.883000	0.218300
N251	N25	0.063400	0.839400	0.020700
C251	C25	0.092200	0.883000	0.031700
N261	N26	0.063400	0.339400	0.520700
C261	C26	0.092200	0.383000	0.531700
N271	N27	0.563400	0.839400	0.520700
C271	C27	0.592200	0.883000	0.531700
N281	N28	0.563400	0.339400	0.020700
C281	C28	0.592200	0.383000	0.031700
N291	N29	0.563400	0.410600	0.729300
C291	C29	0.592200	0.367000	0.718300
N301	N30	0.563400	0.910600	0.229300
C301	C30	0.592200	0.867000	0.218300
N311	N31	0.063400	0.410600	0.229300
C311	C31	0.092200	0.367000	0.218300
N321	N32	0.063400	0.910600	0.729300
C321	C32	0.092200	0.867000	0.718300
N331	N33	0.520700	0.186600	0.910600
C331	C33	0.531700	0.157800	0.867000
N341	N34	0.520700	0.686600	0.410600
C341	C34	0.531700	0.657800	0.367000
N351	N35	0.020700	0.186600	0.410600
C351	C35	0.031700	0.157800	0.367000
N361	N36	0.020700	0.686600	0.910600
C361	C36	0.031700	0.657800	0.867000
N371	N37	0.229300	0.686600	0.339400
C371	C37	0.218300	0.657800	0.383000
N381	N38	0.229300	0.186600	0.839400
C381	C38	0.218300	0.157800	0.883000
N391	N39	0.729300	0.686600	0.839400
C391	C39	0.718300	0.657800	0.883000
N401	N40	0.729300	0.186600	0.339400
C401	C40	0.718300	0.157800	0.383000
N411	N41	0.020700	0.063400	0.839400
C411	C41	0.031700	0.092200	0.883000
N421	N42	0.020700	0.563400	0.339400
C421	C42	0.031700	0.592200	0.383000
N431	N43	0.520700	0.063400	0.339400
C431	C43	0.531700	0.092200	0.383000
N441	N44	0.520700	0.563400	0.839400
C441	C44	0.531700	0.592200	0.883000
N451	N45	0.729300	0.563400	0.410600
C451	C45	0.718300	0.592200	0.367000
N461	N46	0.729300	0.063400	0.910600
C461	C46	0.718300	0.092200	0.867000
N471	N47	0.229300	0.563400	0.910600
C471	C47	0.218300	0.592200	0.867000
N481	N48	0.229300	0.063400	0.410600
C481	C48	0.218300	0.092200	0.367000
N491	N49	0.270700	0.160600	0.813400
C491	C49	0.281700	0.117000	0.842200
N501	N50	0.270700	0.660600	0.313400
C501	C50	0.281700	0.617000	0.342200
N511	N51	0.770700	0.160600	0.313400
C511	C51	0.781700	0.117000	0.342200
N521	N52	0.770700	0.660600	0.813400
C521	C52	0.781700	0.617000	0.842200
N531	N53	0.979300	0.589400	0.313400
C531	C53	0.968300	0.633000	0.342200
N541	N54	0.979300	0.089400	0.813400
C541	C54	0.968300	0.133000	0.842200
N551	N55	0.479300	0.589400	0.813400
C551	C55	0.468300	0.633000	0.842200
N561	N56	0.479300	0.089400	0.313400
C561	C56	0.468300	0.133000	0.342200
N571	N57	0.770700	0.089400	0.936600
C571	C57	0.781700	0.133000	0.907800
N581	N58	0.770700	0.589400	0.436600
C581	C58	0.781700	0.633000	0.407800
N591	N59	0.270700	0.089400	0.436600
C591	C59	0.281700	0.133000	0.407800
N601	N60	0.270700	0.589400	0.936600
C601	C60	0.281700	0.633000	0.907800
N611	N61	0.479300	0.660600	0.436600
C611	C61	0.468300	0.617000	0.407800
N621	N62	0.479300	0.160600	0.936600
C621	C62	0.468300	0.117000	0.907800
N631	N63	0.979300	0.660600	0.936600
C631	C63	0.968300	0.617000	0.907800
N641	N64	0.979300	0.160600	0.436600
C641	C64	0.968300	0.117000	0.407800
N651	N65	0.660600	0.436600	0.479300
C651	C65	0.617000	0.407800	0.468300
N661	N66	0.660600	0.936600	0.979300
C661	C66	0.617000	0.907800	0.968300
N671	N67	0.160600	0.436600	0.979300
C671	C67	0.117000	0.407800	0.968300
N681	N68	0.160600	0.936600	0.479300
C681	C68	0.117000	0.907800	0.468300
N691	N69	0.089400	0.936600	0.770700
C691	C69	0.133000	0.907800	0.781700
N701	N70	0.089400	0.436600	0.270700
C701	C70	0.133000	0.407800	0.281700
N711	N71	0.589400	0.936600	0.270700
C711	C71	0.633000	0.907800	0.281700
N721	N72	0.589400	0.436600	0.770700
C721	C72	0.633000	0.407800	0.781700
N731	N73	0.589400	0.313400	0.979300
C731	C73	0.633000	0.342200	0.968300
N741	N74	0.589400	0.813400	0.479300
C741	C74	0.633000	0.842200	0.468300
N751	N75	0.089400	0.313400	0.479300
C751	C75	0.133000	0.342200	0.468300
N761	N76	0.089400	0.813400	0.979300
C761	C76	0.133000	0.842200	0.968300
N771	N77	0.160600	0.813400	0.270700
C771	C77	0.117000	0.842200	0.281700
N781	N78	0.160600	0.313400	0.770700
C781	C78	0.117000	0.342200	0.781700
N791	N79	0.660600	0.813400	0.770700
C791	C79	0.617000	0.842200	0.781700
N801	N80	0.660600	0.313400	0.270700
C801	C80	0.617000	0.342200	0.281700
N811	N81	0.936600	0.770700	0.089400
C811	C81	0.907800	0.781700	0.133000
N821	N82	0.936600	0.270700	0.589400
C821	C82	0.907800	0.281700	0.633000
N831	N83	0.436600	0.770700	0.589400
C831	C83	0.407800	0.781700	0.633000
N841	N84	0.436600	0.270700	0.089400
C841	C84	0.407800	0.281700	0.133000
N851	N85	0.436600	0.479300	0.660600
C851	C85	0.407800	0.468300	0.617000
N861	N86	0.436600	0.979300	0.160600
C861	C86	0.407800	0.968300	0.117000
N871	N87	0.936600	0.479300	0.160600
C871	C87	0.907800	0.468300	0.117000
N881	N88	0.936600	0.979300	0.660600
C881	C88	0.907800	0.968300	0.617000
N891	N89	0.813400	0.270700	0.160600
C891	C89	0.842200	0.281700	0.117000
N901	N90	0.813400	0.770700	0.660600
C901	C90	0.842200	0.781700	0.617000
N911	N91	0.313400	0.270700	0.660600
C911	C91	0.342200	0.281700	0.617000
N921	N92	0.313400	0.770700	0.160600
C921	C92	0.342200	0.781700	0.117000
N931	N93	0.313400	0.979300	0.589400
C931	C93	0.342200	0.968300	0.633000
N941	N94	0.313400	0.479300	0.089400
C941	C94	0.342200	0.468300	0.133000
N951	N95	0.813400	0.979300	0.089400
C951	C95	0.842200	0.968300	0.133000
N961	N96	0.813400	0.479300	0.589400
C961	C96	0.842200	0.468300	0.633000
N971	N97	0.089400	0.479300	0.813400
C971	C97	0.133000	0.468300	0.842200
N981	N98	0.089400	0.979300	0.313400
C981	C98	0.133000	0.968300	0.342200
N991	N99	0.589400	0.479300	0.313400
C991	C99	0.633000	0.468300	0.342200
N1001	N100	0.589400	0.979300	0.813400
C1001	C100	0.633000	0.968300	0.842200
N1011	N101	0.660600	0.770700	0.313400
C1011	C101	0.617000	0.781700	0.342200
N1021	N102	0.660600	0.270700	0.813400
C1021	C102	0.617000	0.281700	0.842200
N1031	N103	0.160600	0.770700	0.813400
C1031	C103	0.117000	0.781700	0.842200
N1041	N104	0.160600	0.270700	0.313400
C1041	C104	0.117000	0.281700	0.342200
N1051	N105	0.160600	0.979300	0.936600
C1051	C105	0.117000	0.968300	0.907800
N1061	N106	0.160600	0.479300	0.436600
C1061	C106	0.117000	0.468300	0.407800
N1071	N107	0.660600	0.979300	0.436600
C1071	C107	0.617000	0.968300	0.407800
N1081	N108	0.660600	0.479300	0.936600
C1081	C108	0.617000	0.468300	0.907800
N1091	N109	0.589400	0.270700	0.436600
C1091	C109	0.633000	0.281700	0.407800
N1101	N110	0.589400	0.770700	0.936600
C1101	C110	0.633000	0.781700	0.907800
N1111	N111	0.089400	0.270700	0.936600
C1111	C111	0.133000	0.281700	0.907800
N1121	N112	0.089400	0.770700	0.436600
C1121	C112	0.133000	0.781700	0.407800
N1131	N113	0.813400	0.089400	0.479300
C1131	C113	0.842200	0.133000	0.468300
N1141	N114	0.813400	0.589400	0.979300
C1141	C114	0.842200	0.633000	0.968300
N1151	N115	0.313400	0.089400	0.979300
C1151	C115	0.342200	0.133000	0.968300
N1161	N116	0.313400	0.589400	0.479300
C1161	C116	0.342200	0.633000	0.468300
N1171	N117	0.313400	0.660600	0.770700
C1171	C117	0.342200	0.617000	0.781700
N1181	N118	0.313400	0.160600	0.270700
C1181	C118	0.342200	0.117000	0.281700
N1191	N119	0.813400	0.660600	0.270700
C1191	C119	0.842200	0.617000	0.281700
N1201	N120	0.813400	0.160600	0.770700
C1201	C120	0.842200	0.117000	0.781700
N1211	N121	0.936600	0.160600	0.979300
C1211	C121	0.907800	0.117000	0.968300
N1221	N122	0.936600	0.660600	0.479300
C1221	C122	0.907800	0.617000	0.468300
N1231	N123	0.436600	0.160600	0.479300
C1231	C123	0.407800	0.117000	0.468300
N1241	N124	0.436600	0.660600	0.979300
C1241	C124	0.407800	0.617000	0.968300
N1251	N125	0.436600	0.589400	0.270700
C1251	C125	0.407800	0.633000	0.281700
N1261	N126	0.436600	0.089400	0.770700
C1261	C126	0.407800	0.133000	0.781700
N1271	N127	0.936600	0.589400	0.770700
C1271	C127	0.907800	0.633000	0.781700
N1281	N128	0.936600	0.089400	0.270700
C1281	C128	0.907800	0.133000	0.281700
N1291	N129	0.479300	0.813400	0.089400
C1291	C129	0.468300	0.842200	0.133000
N1301	N130	0.479300	0.313400	0.589400
C1301	C130	0.468300	0.342200	0.633000
N1311	N131	0.979300	0.813400	0.589400
C1311	C131	0.968300	0.842200	0.633000
N1321	N132	0.979300	0.313400	0.089400
C1321	C132	0.968300	0.342200	0.133000
N1331	N133	0.770700	0.313400	0.660600
C1331	C133	0.781700	0.342200	0.617000
N1341	N134	0.770700	0.813400	0.160600
C1341	C134	0.781700	0.842200	0.117000
N1351	N135	0.270700	0.313400	0.160600
C1351	C135	0.281700	0.342200	0.117000
N1361	N136	0.270700	0.813400	0.660600
C1361	C136	0.281700	0.842200	0.617000
N1371	N137	0.979300	0.936600	0.160600
C1371	C137	0.968300	0.907800	0.117000
N1381	N138	0.979300	0.436600	0.660600
C1381	C138	0.968300	0.407800	0.617000
N1391	N139	0.479300	0.936600	0.660600
C1391	C139	0.468300	0.907800	0.617000
N1401	N140	0.479300	0.436600	0.160600
C1401	C140	0.468300	0.407800	0.117000
N1411	N141	0.270700	0.436600	0.589400
C1411	C141	0.281700	0.407800	0.633000
N1421	N142	0.270700	0.936600	0.089400
C1421	C142	0.281700	0.907800	0.133000
N1431	N143	0.770700	0.436600	0.089400
C1431	C143	0.781700	0.407800	0.133000
N1441	N144	0.770700	0.936600	0.589400
C1441	C144	0.781700	0.907800	0.633000
N1451	N145	0.729300	0.839400	0.186600
C1451	C145	0.718300	0.883000	0.157800
N1461	N146	0.729300	0.339400	0.686600
C1461	C146	0.718300	0.383000	0.657800
N1471	N147	0.229300	0.839400	0.686600
C1471	C147	0.218300	0.883000	0.657800
N1481	N148	0.229300	0.339400	0.186600
C1481	C148	0.218300	0.383000	0.157800
N1491	N149	0.020700	0.410600	0.686600
C1491	C149	0.031700	0.367000	0.657800
N1501	N150	0.020700	0.910600	0.186600
C1501	C150	0.031700	0.867000	0.157800
N1511	N151	0.520700	0.410600	0.186600
C1511	C151	0.531700	0.367000	0.157800
N1521	N152	0.520700	0.910600	0.686600
C1521	C152	0.531700	0.867000	0.657800
N1531	N153	0.229300	0.910600	0.063400
C1531	C153	0.218300	0.867000	0.092200
N1541	N154	0.229300	0.410600	0.563400
C1541	C154	0.218300	0.367000	0.592200
N1551	N155	0.729300	0.910600	0.563400
C1551	C155	0.718300	0.867000	0.592200
N1561	N156	0.729300	0.410600	0.063400
C1561	C156	0.718300	0.367000	0.092200
N1571	N157	0.520700	0.339400	0.563400
C1571	C157	0.531700	0.383000	0.592200
N1581	N158	0.520700	0.839400	0.063400
C1581	C158	0.531700	0.883000	0.092200
N1591	N159	0.020700	0.339400	0.063400
C1591	C159	0.031700	0.383000	0.092200
N1601	N160	0.020700	0.839400	0.563400
C1601	C160	0.031700	0.883000	0.592200
N1611	N161	0.339400	0.563400	0.520700
C1611	C161	0.383000	0.592200	0.531700
N1621	N162	0.339400	0.063400	0.020700
C1621	C162	0.383000	0.092200	0.031700
N1631	N163	0.839400	0.563400	0.020700
C1631	C163	0.883000	0.592200	0.031700
N1641	N164	0.839400	0.063400	0.520700
C1641	C164	0.883000	0.092200	0.531700
N1651	N165	0.910600	0.063400	0.229300
C1651	C165	0.867000	0.092200	0.218300
N1661	N166	0.910600	0.563400	0.729300
C1661	C166	0.867000	0.592200	0.718300
N1671	N167	0.410600	0.063400	0.729300
C1671	C167	0.367000	0.092200	0.718300
N1681	N168	0.410600	0.563400	0.229300
C1681	C168	0.367000	0.592200	0.218300
N1691	N169	0.410600	0.686600	0.020700
C1691	C169	0.367000	0.657800	0.031700
N1701	N170	0.410600	0.186600	0.520700
C1701	C170	0.367000	0.157800	0.531700
N1711	N171	0.910600	0.686600	0.520700
C1711	C171	0.867000	0.657800	0.531700
N1721	N172	0.910600	0.186600	0.020700
C1721	C172	0.867000	0.157800	0.031700
N1731	N173	0.839400	0.186600	0.729300
C1731	C173	0.883000	0.157800	0.718300
N1741	N174	0.839400	0.686600	0.229300
C1741	C174	0.883000	0.657800	0.218300
N1751	N175	0.339400	0.186600	0.229300
C1751	C175	0.383000	0.157800	0.218300
N1761	N176	0.339400	0.686600	0.729300
C1761	C176	0.383000	0.657800	0.718300
N1771	N177	0.063400	0.229300	0.910600
C1771	C177	0.092200	0.218300	0.867000
N1781	N178	0.063400	0.729300	0.410600
C1781	C178	0.092200	0.718300	0.367000
N1791	N179	0.563400	0.229300	0.410600
C1791	C179	0.592200	0.218300	0.367000
N1801	N180	0.563400	0.729300	0.910600
C1801	C180	0.592200	0.718300	0.867000
N1811	N181	0.563400	0.520700	0.339400
C1811	C181	0.592200	0.531700	0.383000
N1821	N182	0.563400	0.020700	0.839400
C1821	C182	0.592200	0.031700	0.883000
N1831	N183	0.063400	0.520700	0.839400
C1831	C183	0.092200	0.531700	0.883000
N1841	N184	0.063400	0.020700	0.339400
C1841	C184	0.092200	0.031700	0.383000
N1851	N185	0.186600	0.729300	0.839400
C1851	C185	0.157800	0.718300	0.883000
N1861	N186	0.186600	0.229300	0.339400
C1861	C186	0.157800	0.218300	0.383000
N1871	N187	0.686600	0.729300	0.339400
C1871	C187	0.657800	0.718300	0.383000
N1881	N188	0.686600	0.229300	0.839400
C1881	C188	0.657800	0.218300	0.883000
N1891	N189	0.686600	0.020700	0.410600
C1891	C189	0.657800	0.031700	0.367000
N1901	N190	0.686600	0.520700	0.910600
C1901	C190	0.657800	0.531700	0.867000
N1911	N191	0.186600	0.020700	0.910600
C1911	C191	0.157800	0.031700	0.867000
N1921	N192	0.186600	0.520700	0.410600
C1921	C192	0.157800	0.531700	0.367000
Cu11	Cu1	0.806500	0.500000	0.056500
N1931	N193	0.863600	0.500000	0.113600
Cu21	Cu2	0.806500	0.000000	0.556500
N1941	N194	0.863600	0.000000	0.613600
Cu31	Cu3	0.443500	0.250000	0.556500
N1951	N195	0.386400	0.250000	0.613600
Cu41	Cu4	0.443500	0.750000	0.056500
N1961	N196	0.386400	0.750000	0.113600
Cu51	Cu5	0.943500	0.000000	0.193500
N1971	N197	0.886400	0.000000	0.136400
Cu61	Cu6	0.943500	0.500000	0.693500
N1981	N198	0.886400	0.500000	0.636400
Cu71	Cu7	0.306500	0.750000	0.693500
N1991	N199	0.363600	0.750000	0.636400
Cu81	Cu8	0.306500	0.250000	0.193500
N2001	N200	0.363600	0.250000	0.136400
Cu91	Cu9	0.056500	0.806500	0.500000
N2011	N201	0.113600	0.863600	0.500000
Cu101	Cu10	0.056500	0.306500	0.000000
N2021	N202	0.113600	0.363600	0.000000
Cu111	Cu11	0.556500	0.443500	0.250000
N2031	N203	0.613600	0.386400	0.250000
Cu121	Cu12	0.556500	0.943500	0.750000
N2041	N204	0.613600	0.886400	0.750000
Cu131	Cu13	0.193500	0.943500	0.000000
N2051	N205	0.136400	0.886400	0.000000
Cu141	Cu14	0.193500	0.443500	0.500000
N2061	N206	0.136400	0.386400	0.500000
Cu151	Cu15	0.693500	0.306500	0.750000
N2071	N207	0.636400	0.363600	0.750000
Cu161	Cu16	0.693500	0.806500	0.250000
N2081	N208	0.636400	0.863600	0.250000
Cu171	Cu17	0.500000	0.056500	0.806500
N2091	N209	0.500000	0.113600	0.863600
Cu181	Cu18	0.000000	0.056500	0.306500
N2101	N210	0.000000	0.113600	0.363600
Cu191	Cu19	0.250000	0.556500	0.443500
N2111	N211	0.250000	0.613600	0.386400
Cu201	Cu20	0.750000	0.556500	0.943500
N2121	N212	0.750000	0.613600	0.886400
Cu211	Cu21	0.000000	0.193500	0.943500
N2131	N213	0.000000	0.136400	0.886400
Cu221	Cu22	0.500000	0.193500	0.443500
N2141	N214	0.500000	0.136400	0.386400
Cu231	Cu23	0.750000	0.693500	0.306500
N2151	N215	0.750000	0.636400	0.363600
Cu241	Cu24	0.250000	0.693500	0.806500
N2161	N216	0.250000	0.636400	0.863600
Cu251	Cu25	0.250000	0.056500	0.943500
N2171	N217	0.250000	0.113600	0.886400
Cu261	Cu26	0.750000	0.056500	0.443500
N2181	N218	0.750000	0.113600	0.386400
Cu271	Cu27	0.000000	0.693500	0.443500
N2191	N219	0.000000	0.636400	0.386400
Cu281	Cu28	0.500000	0.693500	0.943500
N2201	N220	0.500000	0.636400	0.886400
Cu291	Cu29	0.750000	0.193500	0.806500
N2211	N221	0.750000	0.136400	0.863600
Cu301	Cu30	0.250000	0.193500	0.306500
N2221	N222	0.250000	0.136400	0.363600
Cu311	Cu31	0.500000	0.556500	0.306500
N2231	N223	0.500000	0.613600	0.363600
Cu321	Cu32	0.000000	0.556500	0.806500
N2241	N224	0.000000	0.613600	0.863600
Cu331	Cu33	0.556500	0.306500	0.500000
N2251	N225	0.613600	0.363600	0.500000
Cu341	Cu34	0.556500	0.806500	0.000000
N2261	N226	0.613600	0.863600	0.000000
Cu351	Cu35	0.193500	0.806500	0.750000
N2271	N227	0.136400	0.863600	0.750000
Cu361	Cu36	0.193500	0.306500	0.250000
N2281	N228	0.136400	0.363600	0.250000
Cu371	Cu37	0.693500	0.443500	0.000000
N2291	N229	0.636400	0.386400	0.000000
Cu381	Cu38	0.693500	0.943500	0.500000
N2301	N230	0.636400	0.886400	0.500000
Cu391	Cu39	0.056500	0.943500	0.250000
N2311	N231	0.113600	0.886400	0.250000
Cu401	Cu40	0.056500	0.443500	0.750000
N2321	N232	0.113600	0.386400	0.750000
Cu411	Cu41	0.806500	0.750000	0.193500
N2331	N233	0.863600	0.750000	0.136400
Cu421	Cu42	0.806500	0.250000	0.693500
N2341	N234	0.863600	0.250000	0.636400
Cu431	Cu43	0.306500	0.500000	0.556500
N2351	N235	0.363600	0.500000	0.613600
Cu441	Cu44	0.306500	0.000000	0.056500
N2361	N236	0.363600	0.000000	0.113600
Cu451	Cu45	0.943500	0.250000	0.056500
N2371	N237	0.886400	0.250000	0.113600
Cu461	Cu46	0.943500	0.750000	0.556500
N2381	N238	0.886400	0.750000	0.613600
Cu471	Cu47	0.443500	0.000000	0.693500
N2391	N239	0.386400	0.000000	0.636400
Cu481	Cu48	0.443500	0.500000	0.193500
N2401	N240	0.386400	0.500000	0.136400
Cu491	Cu49	0.193500	0.500000	0.943500
N2411	N241	0.136400	0.500000	0.886400
Cu501	Cu50	0.193500	0.000000	0.443500
N2421	N242	0.136400	0.000000	0.386400
Cu511	Cu51	0.556500	0.750000	0.443500
N2431	N243	0.613600	0.750000	0.386400
Cu521	Cu52	0.556500	0.250000	0.943500
N2441	N244	0.613600	0.250000	0.886400
Cu531	Cu53	0.056500	0.000000	0.806500
N2451	N245	0.113600	0.000000	0.863600
Cu541	Cu54	0.056500	0.500000	0.306500
N2461	N246	0.113600	0.500000	0.363600
Cu551	Cu55	0.693500	0.250000	0.306500
N2471	N247	0.636400	0.250000	0.363600
Cu561	Cu56	0.693500	0.750000	0.806500
N2481	N248	0.636400	0.750000	0.863600
Cu571	Cu57	0.943500	0.193500	0.500000
N2491	N249	0.886400	0.136400	0.500000
Cu581	Cu58	0.943500	0.693500	0.000000
N2501	N250	0.886400	0.636400	0.000000
Cu591	Cu59	0.443500	0.556500	0.750000
N2511	N251	0.386400	0.613600	0.750000
Cu601	Cu60	0.443500	0.056500	0.250000
N2521	N252	0.386400	0.113600	0.250000
Cu611	Cu61	0.806500	0.056500	0.000000
N2531	N253	0.863600	0.113600	0.000000
Cu621	Cu62	0.806500	0.556500	0.500000
N2541	N254	0.863600	0.613600	0.500000
Cu631	Cu63	0.306500	0.693500	0.250000
N2551	N255	0.363600	0.636400	0.250000
Cu641	Cu64	0.306500	0.193500	0.750000
N2561	N256	0.363600	0.136400	0.750000
Cu651	Cu65	0.500000	0.943500	0.193500
N2571	N257	0.500000	0.886400	0.136400
Cu661	Cu66	0.000000	0.943500	0.693500
N2581	N258	0.000000	0.886400	0.636400
Cu671	Cu67	0.750000	0.443500	0.556500
N2591	N259	0.750000	0.386400	0.613600
Cu681	Cu68	0.250000	0.443500	0.056500
N2601	N260	0.250000	0.386400	0.113600
Cu691	Cu69	0.000000	0.806500	0.056500
N2611	N261	0.000000	0.863600	0.113600
Cu701	Cu70	0.500000	0.806500	0.556500
N2621	N262	0.500000	0.863600	0.613600
Cu711	Cu71	0.250000	0.306500	0.693500
N2631	N263	0.250000	0.363600	0.636400
Cu721	Cu72	0.750000	0.306500	0.193500
N2641	N264	0.750000	0.363600	0.136400
Cu731	Cu73	0.750000	0.943500	0.056500
N2651	N265	0.750000	0.886400	0.113600
Cu741	Cu74	0.250000	0.943500	0.556500
N2661	N266	0.250000	0.886400	0.613600
Cu751	Cu75	0.000000	0.306500	0.556500
N2671	N267	0.000000	0.363600	0.613600
Cu761	Cu76	0.500000	0.306500	0.056500
N2681	N268	0.500000	0.363600	0.113600
Cu771	Cu77	0.250000	0.806500	0.193500
N2691	N269	0.250000	0.863600	0.136400
Cu781	Cu78	0.750000	0.806500	0.693500
N2701	N270	0.750000	0.863600	0.636400
Cu791	Cu79	0.500000	0.443500	0.693500
N2711	N271	0.500000	0.386400	0.636400
Cu801	Cu80	0.000000	0.443500	0.193500
N2721	N272	0.000000	0.386400	0.136400
Cu811	Cu81	0.443500	0.693500	0.500000
N2731	N273	0.386400	0.636400	0.500000
Cu821	Cu82	0.443500	0.193500	0.000000
N2741	N274	0.386400	0.136400	0.000000
Cu831	Cu83	0.806500	0.193500	0.250000
N2751	N275	0.863600	0.136400	0.250000
Cu841	Cu84	0.806500	0.693500	0.750000
N2761	N276	0.863600	0.636400	0.750000
Cu851	Cu85	0.306500	0.556500	0.000000
N2771	N277	0.363600	0.613600	0.000000
Cu861	Cu86	0.306500	0.056500	0.500000
N2781	N278	0.363600	0.113600	0.500000
Cu871	Cu87	0.943500	0.056500	0.750000
N2791	N279	0.886400	0.113600	0.750000
Cu881	Cu88	0.943500	0.556500	0.250000
N2801	N280	0.886400	0.613600	0.250000
Cu891	Cu89	0.193500	0.250000	0.806500
N2811	N281	0.136400	0.250000	0.863600
Cu901	Cu90	0.193500	0.750000	0.306500
N2821	N282	0.136400	0.750000	0.363600
Cu911	Cu91	0.693500	0.500000	0.443500
N2831	N283	0.636400	0.500000	0.386400
Cu921	Cu92	0.693500	0.000000	0.943500
N2841	N284	0.636400	0.000000	0.886400
Cu931	Cu93	0.056500	0.750000	0.943500
N2851	N285	0.113600	0.750000	0.886400
Cu941	Cu94	0.056500	0.250000	0.443500
N2861	N286	0.113600	0.250000	0.386400
Cu951	Cu95	0.556500	0.000000	0.306500
N2871	N287	0.613600	0.000000	0.363600
Cu961	Cu96	0.556500	0.500000	0.806500
N2881	N288	0.613600	0.500000	0.863600
O11	O1	0.750000	0.500000	0.000000
O21	O2	0.750000	0.000000	0.500000
O31	O3	0.500000	0.250000	0.500000
O41	O4	0.500000	0.750000	0.000000
O51	O5	0.000000	0.750000	0.500000
O61	O6	0.000000	0.000000	0.250000
O71	O7	0.000000	0.500000	0.750000
O81	O8	0.250000	0.750000	0.750000
O91	O9	0.250000	0.250000	0.250000
O101	O10	0.500000	0.500000	0.250000
O111	O11	0.500000	0.000000	0.750000
O121	O12	0.250000	0.000000	0.000000
O131	O13	0.750000	0.250000	0.750000
O141	O14	0.250000	0.500000	0.500000
O151	O15	0.000000	0.250000	0.000000
O161	O16	0.750000	0.750000	0.250000
O171	O17	0.250000	0.500000	0.000000
O181	O18	0.250000	0.000000	0.500000
O191	O19	0.500000	0.750000	0.500000
O201	O20	0.500000	0.250000	0.000000
O211	O21	0.000000	0.000000	0.750000
O221	O22	0.000000	0.500000	0.250000
O231	O23	0.750000	0.250000	0.250000
O241	O24	0.750000	0.750000	0.750000
O251	O25	0.000000	0.250000	0.500000
O261	O26	0.500000	0.500000	0.750000
O271	O27	0.750000	0.000000	0.000000
O281	O28	0.250000	0.750000	0.250000
O291	O29	0.500000	0.000000	0.250000
O301	O30	0.750000	0.500000	0.500000
O311	O31	0.000000	0.750000	0.000000
O321	O32	0.250000	0.250000	0.750000
