data_QALNIA_clean_PM
_symmetry_space_group_name_H-M	'P1'
_cell_length_a	9.492100
_cell_length_b	9.539400
_cell_length_c	11.013400
_cell_angle_alpha	90.000000
_cell_angle_beta	90.000000
_cell_angle_gamma	90.000000
_symmetry_Int_Tables_number 1

loop_
_symmetry_equiv_pos_as_xyz
'x,y,z'

loop_
_atom_site_label
_atom_site_type_symbol
_atom_site_fract_x
_atom_site_fract_y
_atom_site_fract_z
Sr11	Sr1	0.181480	0.192970	0.184740
Sr21	Sr2	0.318520	0.807030	0.684740
Sr31	Sr3	0.818520	0.692970	0.315260
Sr41	Sr4	0.681480	0.307030	0.815260
C11	C1	0.538300	0.259700	0.102800
C21	C2	0.696000	0.274200	0.135600
C31	C3	0.717300	0.335300	0.262800
C41	C4	0.875200	0.338000	0.293600
C51	C5	0.961700	0.740300	0.602800
C61	C6	0.804000	0.725800	0.635600
C71	C7	0.782700	0.664700	0.762800
C81	C8	0.624800	0.662000	0.793600
C91	C9	0.461700	0.759700	0.397200
C101	C10	0.304000	0.774200	0.364400
C111	C11	0.282700	0.835300	0.237200
C121	C12	0.124800	0.838000	0.206400
C131	C13	0.038300	0.240300	0.897200
C141	C14	0.196000	0.225800	0.864400
C151	C15	0.217300	0.164700	0.737200
C161	C16	0.375200	0.162000	0.706400
O11	O1	0.451900	0.243200	0.186300
O21	O2	0.510900	0.260800	0.990200
O31	O3	0.766800	0.355500	0.044200
O41	O4	0.659200	0.473700	0.271400
O51	O5	0.939800	0.223000	0.284900
O61	O6	0.930100	0.452200	0.326300
O71	O7	0.048100	0.756800	0.686300
O81	O8	0.989100	0.739200	0.490200
O91	O9	0.733200	0.644500	0.544200
O101	O10	0.840800	0.526300	0.771400
O111	O11	0.560200	0.777000	0.784900
O121	O12	0.569900	0.547800	0.826300
O131	O13	0.548100	0.743200	0.313700
O141	O14	0.489100	0.760800	0.509800
O151	O15	0.233200	0.855500	0.455800
O161	O16	0.340800	0.973700	0.228600
O171	O17	0.060200	0.723000	0.215100
O181	O18	0.069900	0.952200	0.173700
O191	O19	0.951900	0.256800	0.813700
O201	O20	0.010900	0.239200	0.009800
O211	O21	0.266800	0.144500	0.955800
O221	O22	0.159200	0.026300	0.728600
O231	O23	0.439800	0.277000	0.715100
O241	O24	0.430100	0.047800	0.673700
