data_QAMVEH01_clean_PM
_symmetry_space_group_name_H-M	'P1'
_cell_length_a	16.512600
_cell_length_b	16.512600
_cell_length_c	24.509800
_cell_angle_alpha	90.000000
_cell_angle_beta	90.000000
_cell_angle_gamma	120.000000
_symmetry_Int_Tables_number 1

loop_
_symmetry_equiv_pos_as_xyz
'x,y,z'

loop_
_atom_site_label
_atom_site_type_symbol
_atom_site_fract_x
_atom_site_fract_y
_atom_site_fract_z
Ce11	Ce1	0.922980	0.922980	0.000000
Ce21	Ce2	0.000000	0.077020	0.666670
Ce31	Ce3	0.077020	0.000000	0.333330
Ce41	Ce4	0.077020	0.077020	0.500000
Ce51	Ce5	0.000000	0.922980	0.166670
Ce61	Ce6	0.922980	0.000000	0.833330
H11	H1	0.022300	0.683300	0.996800
H21	H2	0.114900	0.615700	0.011000
H31	H3	0.281100	0.825800	0.109100
H41	H4	0.191100	0.896900	0.096000
H51	H5	0.151800	0.535300	0.063100
H61	H6	0.125800	0.393400	0.017000
H71	H7	0.044500	0.236800	0.019400
H81	H8	0.661000	0.977700	0.663470
H91	H9	0.500800	0.885100	0.677670
H101	H10	0.544700	0.718900	0.775770
H111	H11	0.705800	0.808900	0.762670
H121	H12	0.383500	0.848200	0.729770
H131	H13	0.267600	0.874200	0.683670
H141	H14	0.192300	0.955500	0.686070
H151	H15	0.316700	0.339000	0.330130
H161	H16	0.384300	0.499200	0.344330
H171	H17	0.174200	0.455300	0.442430
H181	H18	0.103100	0.294200	0.429330
H191	H19	0.464700	0.616500	0.396430
H201	H20	0.606600	0.732400	0.350330
H211	H21	0.763200	0.807700	0.352730
H221	H22	0.977700	0.316700	0.496800
H231	H23	0.885100	0.384300	0.511000
H241	H24	0.718900	0.174200	0.609100
H251	H25	0.808900	0.103100	0.596000
H261	H26	0.848200	0.464700	0.563100
H271	H27	0.874200	0.606600	0.517000
H281	H28	0.955500	0.763200	0.519400
H291	H29	0.339000	0.022300	0.163470
H301	H30	0.499200	0.114900	0.177670
H311	H31	0.455300	0.281100	0.275770
H321	H32	0.294200	0.191100	0.262670
H331	H33	0.616500	0.151800	0.229770
H341	H34	0.732400	0.125800	0.183670
H351	H35	0.807700	0.044500	0.186070
H361	H36	0.683300	0.661000	0.830130
H371	H37	0.615700	0.500800	0.844330
H381	H38	0.825800	0.544700	0.942430
H391	H39	0.896900	0.705800	0.929330
H401	H40	0.535300	0.383500	0.896430
H411	H41	0.393400	0.267600	0.850330
H421	H42	0.236800	0.192300	0.852730
H431	H43	0.339000	0.316700	0.669870
H441	H44	0.499200	0.384300	0.655670
H451	H45	0.455300	0.174200	0.557570
H461	H46	0.294200	0.103100	0.570670
H471	H47	0.616500	0.464700	0.603570
H481	H48	0.732400	0.606600	0.649670
H491	H49	0.807700	0.763200	0.647270
H501	H50	0.683300	0.022300	0.003200
H511	H51	0.615700	0.114900	0.989000
H521	H52	0.825800	0.281100	0.890900
H531	H53	0.896900	0.191100	0.904000
H541	H54	0.535300	0.151800	0.936900
H551	H55	0.393400	0.125800	0.983000
H561	H56	0.236800	0.044500	0.980600
H571	H57	0.977700	0.661000	0.336530
H581	H58	0.885100	0.500800	0.322330
H591	H59	0.718900	0.544700	0.224230
H601	H60	0.808900	0.705800	0.237330
H611	H61	0.848200	0.383500	0.270230
H621	H62	0.874200	0.267600	0.316330
H631	H63	0.955500	0.192300	0.313930
H641	H64	0.661000	0.683300	0.169870
H651	H65	0.500800	0.615700	0.155670
H661	H66	0.544700	0.825800	0.057570
H671	H67	0.705800	0.896900	0.070670
H681	H68	0.383500	0.535300	0.103570
H691	H69	0.267600	0.393400	0.149670
H701	H70	0.192300	0.236800	0.147270
H711	H71	0.316700	0.977700	0.503200
H721	H72	0.384300	0.885100	0.489000
H731	H73	0.174200	0.718900	0.390900
H741	H74	0.103100	0.808900	0.404000
H751	H75	0.464700	0.848200	0.436900
H761	H76	0.606600	0.874200	0.483000
H771	H77	0.763200	0.955500	0.480600
H781	H78	0.022300	0.339000	0.836530
H791	H79	0.114900	0.499200	0.822330
H801	H80	0.281100	0.455300	0.724230
H811	H81	0.191100	0.294200	0.737330
H821	H82	0.151800	0.616500	0.770230
H831	H83	0.125800	0.732400	0.816330
H841	H84	0.044500	0.807700	0.813930
H851	H85	0.387200	0.774400	0.083330
H861	H86	0.387200	0.612800	0.750000
H871	H87	0.225600	0.612800	0.416670
H881	H88	0.612800	0.225600	0.583330
H891	H89	0.612800	0.387200	0.250000
H901	H90	0.774400	0.387200	0.916670
C11	C1	0.029700	0.833400	0.039800
C21	C2	0.096400	0.795000	0.046000
C31	C3	0.073900	0.711800	0.019800
C41	C4	0.130300	0.671600	0.028500
C51	C5	0.206200	0.711500	0.061500
C61	C6	0.228600	0.797000	0.086700
C71	C7	0.174900	0.840100	0.079300
C81	C8	0.259100	0.662900	0.072400
C91	C9	0.215100	0.568000	0.071800
C101	C10	0.138300	0.361800	0.044100
C111	C11	0.091100	0.268700	0.045200
C121	C12	0.803700	0.970300	0.706470
C131	C13	0.698600	0.903600	0.712670
C141	C14	0.637900	0.926100	0.686470
C151	C15	0.541300	0.869700	0.695170
C161	C16	0.505300	0.793800	0.728170
C171	C17	0.568400	0.771400	0.753370
C181	C18	0.665200	0.825100	0.745970
C191	C19	0.403800	0.740900	0.739070
C201	C20	0.352900	0.784900	0.738470
C211	C21	0.223500	0.861700	0.710770
C221	C22	0.177600	0.908900	0.711870
C231	C23	0.166600	0.196300	0.373130
C241	C24	0.205000	0.301400	0.379330
C251	C25	0.288200	0.362100	0.353130
C261	C26	0.328400	0.458700	0.361830
C271	C27	0.288500	0.494700	0.394830
C281	C28	0.203000	0.431600	0.420030
C291	C29	0.159900	0.334800	0.412630
C301	C30	0.337100	0.596200	0.405730
C311	C31	0.432000	0.647100	0.405130
C321	C32	0.638200	0.776500	0.377430
C331	C33	0.731300	0.822400	0.378530
C341	C34	0.970300	0.166600	0.539800
C351	C35	0.903600	0.205000	0.546000
C361	C36	0.926100	0.288200	0.519800
C371	C37	0.869700	0.328400	0.528500
C381	C38	0.793800	0.288500	0.561500
C391	C39	0.771400	0.203000	0.586700
C401	C40	0.825100	0.159900	0.579300
C411	C41	0.740900	0.337100	0.572400
C421	C42	0.784900	0.432000	0.571800
C431	C43	0.861700	0.638200	0.544100
C441	C44	0.908900	0.731300	0.545200
C451	C45	0.196300	0.029700	0.206470
C461	C46	0.301400	0.096400	0.212670
C471	C47	0.362100	0.073900	0.186470
C481	C48	0.458700	0.130300	0.195170
C491	C49	0.494700	0.206200	0.228170
C501	C50	0.431600	0.228600	0.253370
C511	C51	0.334800	0.174900	0.245970
C521	C52	0.596200	0.259100	0.239070
C531	C53	0.647100	0.215100	0.238470
C541	C54	0.776500	0.138300	0.210770
C551	C55	0.822400	0.091100	0.211870
C561	C56	0.833400	0.803700	0.873130
C571	C57	0.795000	0.698600	0.879330
C581	C58	0.711800	0.637900	0.853130
C591	C59	0.671600	0.541300	0.861830
C601	C60	0.711500	0.505300	0.894830
C611	C61	0.797000	0.568400	0.920030
C621	C62	0.840100	0.665200	0.912630
C631	C63	0.662900	0.403800	0.905730
C641	C64	0.568000	0.352900	0.905130
C651	C65	0.361800	0.223500	0.877430
C661	C66	0.268700	0.177600	0.878530
C671	C67	0.196300	0.166600	0.626870
C681	C68	0.301400	0.205000	0.620670
C691	C69	0.362100	0.288200	0.646870
C701	C70	0.458700	0.328400	0.638170
C711	C71	0.494700	0.288500	0.605170
C721	C72	0.431600	0.203000	0.579970
C731	C73	0.334800	0.159900	0.587370
C741	C74	0.596200	0.337100	0.594270
C751	C75	0.647100	0.432000	0.594870
C761	C76	0.776500	0.638200	0.622570
C771	C77	0.822400	0.731300	0.621470
C781	C78	0.833400	0.029700	0.960200
C791	C79	0.795000	0.096400	0.954000
C801	C80	0.711800	0.073900	0.980200
C811	C81	0.671600	0.130300	0.971500
C821	C82	0.711500	0.206200	0.938500
C831	C83	0.797000	0.228600	0.913300
C841	C84	0.840100	0.174900	0.920700
C851	C85	0.662900	0.259100	0.927600
C861	C86	0.568000	0.215100	0.928200
C871	C87	0.361800	0.138300	0.955900
C881	C88	0.268700	0.091100	0.954800
C891	C89	0.970300	0.803700	0.293530
C901	C90	0.903600	0.698600	0.287330
C911	C91	0.926100	0.637900	0.313530
C921	C92	0.869700	0.541300	0.304830
C931	C93	0.793800	0.505300	0.271830
C941	C94	0.771400	0.568400	0.246630
C951	C95	0.825100	0.665200	0.254030
C961	C96	0.740900	0.403800	0.260930
C971	C97	0.784900	0.352900	0.261530
C981	C98	0.861700	0.223500	0.289230
C991	C99	0.908900	0.177600	0.288130
C1001	C100	0.803700	0.833400	0.126870
C1011	C101	0.698600	0.795000	0.120670
C1021	C102	0.637900	0.711800	0.146870
C1031	C103	0.541300	0.671600	0.138170
C1041	C104	0.505300	0.711500	0.105170
C1051	C105	0.568400	0.797000	0.079970
C1061	C106	0.665200	0.840100	0.087370
C1071	C107	0.403800	0.662900	0.094270
C1081	C108	0.352900	0.568000	0.094870
C1091	C109	0.223500	0.361800	0.122570
C1101	C110	0.177600	0.268700	0.121470
C1111	C111	0.166600	0.970300	0.460200
C1121	C112	0.205000	0.903600	0.454000
C1131	C113	0.288200	0.926100	0.480200
C1141	C114	0.328400	0.869700	0.471500
C1151	C115	0.288500	0.793800	0.438500
C1161	C116	0.203000	0.771400	0.413300
C1171	C117	0.159900	0.825100	0.420700
C1181	C118	0.337100	0.740900	0.427600
C1191	C119	0.432000	0.784900	0.428200
C1201	C120	0.638200	0.861700	0.455900
C1211	C121	0.731300	0.908900	0.454800
C1221	C122	0.029700	0.196300	0.793530
C1231	C123	0.096400	0.301400	0.787330
C1241	C124	0.073900	0.362100	0.813530
C1251	C125	0.130300	0.458700	0.804830
C1261	C126	0.206200	0.494700	0.771830
C1271	C127	0.228600	0.431600	0.746630
C1281	C128	0.174900	0.334800	0.754030
C1291	C129	0.259100	0.596200	0.760930
C1301	C130	0.215100	0.647100	0.761530
C1311	C131	0.138300	0.776500	0.789230
C1321	C132	0.091100	0.822400	0.788130
C1331	C133	0.354600	0.709200	0.083330
C1341	C134	0.258600	0.517200	0.083330
C1351	C135	0.206000	0.412000	0.083330
C1361	C136	0.108900	0.217800	0.083330
C1371	C137	0.056100	0.112200	0.083330
C1381	C138	0.354600	0.645400	0.750000
C1391	C139	0.258600	0.741400	0.750000
C1401	C140	0.206000	0.794000	0.750000
C1411	C141	0.108900	0.891100	0.750000
C1421	C142	0.056100	0.943900	0.750000
C1431	C143	0.290800	0.645400	0.416670
C1441	C144	0.482800	0.741400	0.416670
C1451	C145	0.588000	0.794000	0.416670
C1461	C146	0.782200	0.891100	0.416670
C1471	C147	0.887800	0.943900	0.416670
C1481	C148	0.645400	0.290800	0.583330
C1491	C149	0.741400	0.482800	0.583330
C1501	C150	0.794000	0.588000	0.583330
C1511	C151	0.891100	0.782200	0.583330
C1521	C152	0.943900	0.887800	0.583330
C1531	C153	0.645400	0.354600	0.250000
C1541	C154	0.741400	0.258600	0.250000
C1551	C155	0.794000	0.206000	0.250000
C1561	C156	0.891100	0.108900	0.250000
C1571	C157	0.943900	0.056100	0.250000
C1581	C158	0.709200	0.354600	0.916670
C1591	C159	0.517200	0.258600	0.916670
C1601	C160	0.412000	0.206000	0.916670
C1611	C161	0.217800	0.108900	0.916670
C1621	C162	0.112200	0.056100	0.916670
O11	O1	0.968500	0.799900	0.003600
O21	O2	0.037600	0.898800	0.071000
O31	O3	0.001200	0.072000	0.045200
O41	O4	0.831400	0.031500	0.670270
O51	O5	0.861200	0.962400	0.737670
O61	O6	0.070800	0.998800	0.711870
O71	O7	0.200100	0.168600	0.336930
O81	O8	0.101200	0.138800	0.404330
O91	O9	0.928000	0.929200	0.378530
O101	O10	0.031500	0.200100	0.503600
O111	O11	0.962400	0.101200	0.571000
O121	O12	0.998800	0.928000	0.545200
O131	O13	0.168600	0.968500	0.170270
O141	O14	0.138800	0.037600	0.237670
O151	O15	0.929200	0.001200	0.211870
O161	O16	0.799900	0.831400	0.836930
O171	O17	0.898800	0.861200	0.904330
O181	O18	0.072000	0.070800	0.878530
O191	O19	0.168600	0.200100	0.663070
O201	O20	0.138800	0.101200	0.595670
O211	O21	0.929200	0.928000	0.621470
O221	O22	0.799900	0.968500	0.996400
O231	O23	0.898800	0.037600	0.929000
O241	O24	0.072000	0.001200	0.954800
O251	O25	0.031500	0.831400	0.329730
O261	O26	0.962400	0.861200	0.262330
O271	O27	0.998800	0.070800	0.288130
O281	O28	0.831400	0.799900	0.163070
O291	O29	0.861200	0.898800	0.095670
O301	O30	0.070800	0.072000	0.121470
O311	O31	0.200100	0.031500	0.496400
O321	O32	0.101200	0.962400	0.429000
O331	O33	0.928000	0.998800	0.454800
O341	O34	0.968500	0.168600	0.829730
O351	O35	0.037600	0.138800	0.762330
O361	O36	0.001200	0.929200	0.788130
