data_QAQNOO_clean_PM
_symmetry_space_group_name_H-M	'P1'
_cell_length_a	19.699300
_cell_length_b	19.699300
_cell_length_c	29.298300
_cell_angle_alpha	90.000000
_cell_angle_beta	90.000000
_cell_angle_gamma	120.000000
_symmetry_Int_Tables_number 1

loop_
_symmetry_equiv_pos_as_xyz
'x,y,z'

loop_
_atom_site_label
_atom_site_type_symbol
_atom_site_fract_x
_atom_site_fract_y
_atom_site_fract_z
Cu11	Cu1	0.363100	0.671350	0.669330
O11	O1	0.309700	0.703200	0.623300
O21	O2	0.257500	0.665700	0.552700
O31	O3	0.290500	0.544300	0.555300
N11	N1	0.340600	0.589800	0.626400
C11	C1	0.307800	0.591700	0.590000
C21	C2	0.285000	0.656700	0.587000
C31	C3	0.421400	0.568000	0.678300
C41	C4	0.373100	0.537800	0.635900
H11	H1	0.406900	0.539800	0.609900
O41	O4	0.427100	0.629600	0.698200
O51	O5	0.454100	0.531800	0.694400
Cu21	Cu2	0.243820	0.565300	0.501810
O61	O6	0.344700	0.615900	0.466600
O71	O7	0.238200	0.635100	0.374500
O81	O8	0.385100	0.659200	0.395600
N21	N2	0.202400	0.585800	0.448000
O91	O9	0.133000	0.511600	0.520200
O101	O10	0.016700	0.508100	0.505400
C51	C5	0.310900	0.454100	0.644800
C61	C6	0.308000	0.395000	0.622900
H21	H2	0.343800	0.403900	0.598500
C71	C7	0.255000	0.320000	0.635100
H31	H3	0.258700	0.278700	0.620000
C81	C8	0.197000	0.297400	0.667300
H41	H4	0.160100	0.244100	0.673500
C91	C9	0.196500	0.355700	0.688500
H51	H5	0.157900	0.344600	0.711200
C101	C10	0.252800	0.435800	0.678600
H61	H6	0.251100	0.476800	0.694700
C111	C11	0.335700	0.633700	0.425300
C121	C12	0.251000	0.617100	0.413600
C131	C13	0.120100	0.562000	0.447900
H71	H7	0.093200	0.521300	0.423800
C141	C14	0.086000	0.523100	0.496500
C151	C15	0.103200	0.628800	0.439400
C161	C16	0.139300	0.696100	0.464600
H81	H8	0.180300	0.704500	0.484900
C171	C17	0.116700	0.752700	0.460800
H91	H9	0.140000	0.796900	0.480500
C181	C18	0.060000	0.747000	0.428800
H101	H10	0.045600	0.785600	0.425700
C191	C19	0.027000	0.676000	0.401200
H111	H11	0.991100	0.669900	0.377600
C201	C20	0.045800	0.619000	0.408000
H121	H12	0.019200	0.571900	0.391000
Ni11	Ni1	0.488050	0.516480	0.760370
N31	N3	0.596600	0.597900	0.748800
H131	H13	0.628600	0.586900	0.770900
N41	N4	0.510400	0.439500	0.729900
H141	H14	0.538100	0.424700	0.753000
C211	C21	0.631000	0.531000	0.698700
H151	H15	0.664100	0.540200	0.671400
H161	H16	0.657100	0.520800	0.724500
N51	N5	0.464200	0.598300	0.790500
H171	H17	0.444700	0.618900	0.765700
C221	C22	0.553000	0.456000	0.690300
H181	H18	0.524800	0.462700	0.664600
H191	H19	0.562800	0.412100	0.682800
C231	C23	0.536000	0.658500	0.803100
H201	H20	0.551000	0.648800	0.833800
H211	H21	0.536300	0.708700	0.803800
C241	C24	0.632000	0.608000	0.709300
H221	H22	0.686900	0.652300	0.711100
H231	H23	0.604500	0.620100	0.685100
C251	C25	0.409000	0.574000	0.826700
H241	H24	0.398100	0.617200	0.834000
H251	H25	0.430700	0.563500	0.854300
C261	C26	0.323000	0.420000	0.800400
H261	H26	0.334100	0.398200	0.827700
H271	H27	0.267600	0.384300	0.791500
C271	C27	0.331000	0.500000	0.813000
H281	H28	0.294900	0.489600	0.838900
H291	H29	0.310300	0.515500	0.787100
C281	C28	0.438000	0.374000	0.723800
H301	H30	0.446500	0.329200	0.719300
H311	H31	0.416700	0.381500	0.694700
N61	N6	0.369300	0.424200	0.766600
H321	H32	0.343000	0.428300	0.738400
C291	C29	0.594000	0.661000	0.766900
H331	H33	0.588300	0.689100	0.740500
H341	H34	0.646900	0.695900	0.779500
C301	C30	0.375000	0.350000	0.759600
H351	H35	0.389400	0.334500	0.788300
H361	H36	0.324100	0.306500	0.748600
Cu31	Cu3	0.328650	0.691750	0.336000
O111	O11	0.296800	0.606500	0.289970
O121	O12	0.334300	0.591800	0.219370
O131	O13	0.455700	0.746200	0.221970
N71	N7	0.410200	0.750800	0.293070
C311	C31	0.408300	0.716100	0.256670
C321	C32	0.343300	0.628300	0.253670
C331	C33	0.432000	0.853400	0.344970
C341	C34	0.462200	0.835300	0.302570
H371	H37	0.460200	0.867100	0.276570
O141	O14	0.370400	0.797500	0.364870
O151	O15	0.468200	0.922300	0.361070
Cu41	Cu4	0.434700	0.678520	0.168480
O161	O16	0.384100	0.728800	0.133270
O171	O17	0.364900	0.603100	0.041170
O181	O18	0.340800	0.725900	0.062270
N81	N8	0.414200	0.616600	0.114670
O191	O19	0.488400	0.621400	0.186870
O201	O20	0.491900	0.508600	0.172070
C351	C35	0.545900	0.856800	0.311470
C361	C36	0.605000	0.913000	0.289570
H381	H38	0.596100	0.939900	0.265170
C371	C37	0.680000	0.935000	0.301770
H391	H39	0.721300	0.980000	0.286670
C381	C38	0.702600	0.899600	0.333970
H401	H40	0.755900	0.916000	0.340170
C391	C39	0.644300	0.840800	0.355170
H411	H41	0.655400	0.813300	0.377870
C401	C40	0.564200	0.817000	0.345270
H421	H42	0.523200	0.774300	0.361370
C411	C41	0.366300	0.702000	0.091970
C421	C42	0.382900	0.633900	0.080270
C431	C43	0.438000	0.558100	0.114570
H431	H43	0.478700	0.571900	0.090470
C441	C44	0.476900	0.562900	0.163170
C451	C45	0.371200	0.474400	0.106070
C461	C46	0.303900	0.443200	0.131270
H441	H44	0.295500	0.475800	0.151570
C471	C47	0.247300	0.364000	0.127470
H451	H45	0.203100	0.343100	0.147170
C481	C48	0.253000	0.313000	0.095470
H461	H46	0.214400	0.260000	0.092370
C491	C49	0.324000	0.351000	0.067870
H471	H47	0.330100	0.321200	0.044270
C501	C50	0.381000	0.426800	0.074670
H481	H48	0.428100	0.447300	0.057670
Ni21	Ni2	0.483520	0.971570	0.427040
N91	N9	0.402100	0.998700	0.415470
H491	H49	0.413100	0.041700	0.437570
N101	N10	0.560500	0.070900	0.396570
H501	H50	0.575300	0.113400	0.419670
C511	C51	0.469000	0.100000	0.365370
H511	H51	0.459800	0.123900	0.338070
H521	H52	0.479200	0.136300	0.391170
N111	N11	0.401700	0.865900	0.457170
H531	H53	0.381100	0.825800	0.432370
C521	C52	0.544000	0.097000	0.356970
H541	H54	0.537300	0.062100	0.331270
H551	H55	0.587900	0.150700	0.349470
C531	C53	0.341500	0.877500	0.469770
H561	H56	0.351200	0.902200	0.500470
H571	H57	0.291300	0.827600	0.470470
C541	C54	0.392000	0.024000	0.375970
H581	H58	0.347700	0.034600	0.377770
H591	H59	0.379900	0.984400	0.351770
C551	C55	0.426000	0.835000	0.493370
H601	H60	0.382800	0.780900	0.500670
H611	H61	0.436500	0.867200	0.520970
C561	C56	0.580000	0.903000	0.467070
H621	H62	0.601800	0.935900	0.494370
H631	H63	0.615700	0.883300	0.458170
C571	C57	0.500000	0.831000	0.479670
H641	H64	0.510400	0.805300	0.505570
H651	H65	0.484500	0.794800	0.453770
C581	C58	0.626000	0.064000	0.390470
H661	H66	0.670800	0.117300	0.385970
H671	H67	0.618500	0.035200	0.361370
N121	N12	0.575800	0.945100	0.433270
H681	H68	0.571700	0.914700	0.405070
C591	C59	0.339000	0.933000	0.433570
H691	H69	0.310900	0.899200	0.407170
H701	H70	0.304100	0.951000	0.446170
C601	C60	0.650000	0.025000	0.426270
H711	H71	0.665500	0.054900	0.454970
H721	H72	0.693500	0.017600	0.415270
Cu51	Cu5	0.308250	0.636900	0.002660
O211	O21	0.393500	0.690300	0.956630
O221	O22	0.408200	0.742500	0.886030
O231	O23	0.253800	0.709500	0.888630
N131	N13	0.249200	0.659400	0.959730
C611	C61	0.283900	0.692200	0.923330
C621	C62	0.371700	0.715000	0.920330
C631	C63	0.146600	0.578600	0.011630
C641	C64	0.164700	0.626900	0.969230
H731	H73	0.132900	0.593100	0.943230
O241	O24	0.202500	0.572900	0.031530
O251	O25	0.077700	0.545900	0.027730
Cu61	Cu6	0.321480	0.756180	0.835140
O261	O26	0.271200	0.655300	0.799930
O271	O27	0.396900	0.761800	0.707830
O281	O28	0.274100	0.614900	0.728930
N141	N14	0.383400	0.797600	0.781330
O291	O29	0.378600	0.867000	0.853530
O301	O30	0.491400	0.983300	0.838730
C651	C65	0.143200	0.689100	0.978130
C661	C66	0.087000	0.692000	0.956230
H741	H74	0.060100	0.656200	0.931830
C671	C67	0.065000	0.745000	0.968430
H751	H75	0.020000	0.741300	0.953330
C681	C68	0.100400	0.803000	0.000630
H761	H76	0.084000	0.839900	0.006830
C691	C69	0.159200	0.803500	0.021830
H771	H77	0.186700	0.842100	0.044530
C701	C70	0.183000	0.747200	0.011930
H781	H78	0.225700	0.748900	0.028030
C711	C71	0.298000	0.664300	0.758630
C721	C72	0.366100	0.749000	0.746930
C731	C73	0.441900	0.879900	0.781230
H791	H79	0.428100	0.906800	0.757130
C741	C74	0.437100	0.914000	0.829830
C751	C75	0.525600	0.896800	0.772730
C761	C76	0.556800	0.860700	0.797930
H801	H80	0.524200	0.819700	0.818230
C771	C77	0.636000	0.883300	0.794130
H811	H81	0.656900	0.860000	0.813830
C781	C78	0.687000	0.940000	0.762130
H821	H82	0.740000	0.954400	0.759030
C791	C79	0.649000	0.973000	0.734530
H831	H83	0.678800	0.008900	0.710930
C801	C80	0.573200	0.954200	0.741330
H841	H84	0.552700	0.980800	0.724330
Ni31	Ni3	0.028430	0.511950	0.093700
N151	N15	0.001300	0.403400	0.082130
H851	H85	0.958300	0.371400	0.104230
N161	N16	0.929100	0.489600	0.063230
H861	H86	0.886600	0.461900	0.086330
C811	C81	0.900000	0.369000	0.032030
H871	H87	0.876100	0.335900	0.004730
H881	H88	0.863700	0.342900	0.057830
N171	N17	0.134100	0.535800	0.123830
H891	H89	0.174200	0.555300	0.099030
C821	C82	0.903000	0.447000	0.023630
H901	H90	0.937900	0.475200	0.997930
H911	H91	0.849300	0.437200	0.016130
C831	C83	0.122500	0.464000	0.136430
H921	H92	0.097800	0.449000	0.167130
H931	H93	0.172400	0.463700	0.137130
C841	C84	0.976000	0.368000	0.042630
H941	H94	0.965400	0.313100	0.044430
H951	H95	0.015600	0.395500	0.018430
C851	C85	0.165000	0.591000	0.160030
H961	H96	0.219100	0.601900	0.167330
H971	H97	0.132800	0.569300	0.187630
C861	C86	0.097000	0.677000	0.133730
H981	H98	0.064100	0.665900	0.161030
H991	H99	0.116700	0.732400	0.124830
C871	C87	0.169000	0.669000	0.146330
H1001	H100	0.194700	0.705100	0.172230
H1011	H101	0.205200	0.689700	0.120430
C881	C88	0.936000	0.562000	0.057130
H1021	H102	0.882700	0.553500	0.052630
H1031	H103	0.964800	0.583300	0.028030
N181	N18	0.054900	0.630700	0.099930
H1041	H104	0.085300	0.657000	0.071730
C891	C89	0.067000	0.406000	0.100230
H1051	H105	0.100800	0.411700	0.073830
H1061	H106	0.049000	0.353100	0.112830
C901	C90	0.975000	0.625000	0.092930
H1071	H107	0.945100	0.610600	0.121630
H1081	H108	0.982400	0.675900	0.081930
Cu71	Cu7	0.671350	0.363100	0.330670
O311	O31	0.703200	0.309700	0.376700
O321	O32	0.665700	0.257500	0.447300
O331	O33	0.544300	0.290500	0.444700
N191	N19	0.589800	0.340600	0.373600
C911	C91	0.591700	0.307800	0.410000
C921	C92	0.656700	0.285000	0.413000
C931	C93	0.568000	0.421400	0.321700
C941	C94	0.537800	0.373100	0.364100
H1091	H109	0.539800	0.406900	0.390100
O341	O34	0.629600	0.427100	0.301800
O351	O35	0.531800	0.454100	0.305600
Cu81	Cu8	0.565300	0.243820	0.498190
O361	O36	0.615900	0.344700	0.533400
O371	O37	0.635100	0.238200	0.625500
O381	O38	0.659200	0.385100	0.604400
N201	N20	0.585800	0.202400	0.552000
O391	O39	0.511600	0.133000	0.479800
O401	O40	0.508100	0.016700	0.494600
C951	C95	0.454100	0.310900	0.355200
C961	C96	0.395000	0.308000	0.377100
H1101	H110	0.403900	0.343800	0.401500
C971	C97	0.320000	0.255000	0.364900
H1111	H111	0.278700	0.258700	0.380000
C981	C98	0.297400	0.197000	0.332700
H1121	H112	0.244100	0.160100	0.326500
C991	C99	0.355700	0.196500	0.311500
H1131	H113	0.344600	0.157900	0.288800
C1001	C100	0.435800	0.252800	0.321400
H1141	H114	0.476800	0.251100	0.305300
C1011	C101	0.633700	0.335700	0.574700
C1021	C102	0.617100	0.251000	0.586400
C1031	C103	0.562000	0.120100	0.552100
H1151	H115	0.521300	0.093200	0.576200
C1041	C104	0.523100	0.086000	0.503500
C1051	C105	0.628800	0.103200	0.560600
C1061	C106	0.696100	0.139300	0.535400
H1161	H116	0.704500	0.180300	0.515100
C1071	C107	0.752700	0.116700	0.539200
H1171	H117	0.796900	0.140000	0.519500
C1081	C108	0.747000	0.060000	0.571200
H1181	H118	0.785600	0.045600	0.574300
C1091	C109	0.676000	0.027000	0.598800
H1191	H119	0.669900	0.991100	0.622400
C1101	C110	0.619000	0.045800	0.592000
H1201	H120	0.571900	0.019200	0.609000
Ni41	Ni4	0.516480	0.488050	0.239630
N211	N21	0.597900	0.596600	0.251200
H1211	H121	0.586900	0.628600	0.229100
N221	N22	0.439500	0.510400	0.270100
H1221	H122	0.424700	0.538100	0.247000
C1111	C111	0.531000	0.631000	0.301300
H1231	H123	0.540200	0.664100	0.328600
H1241	H124	0.520800	0.657100	0.275500
N231	N23	0.598300	0.464200	0.209500
H1251	H125	0.618900	0.444700	0.234300
C1121	C112	0.456000	0.553000	0.309700
H1261	H126	0.462700	0.524800	0.335400
H1271	H127	0.412100	0.562800	0.317200
C1131	C113	0.658500	0.536000	0.196900
H1281	H128	0.648800	0.551000	0.166200
H1291	H129	0.708700	0.536300	0.196200
C1141	C114	0.608000	0.632000	0.290700
H1301	H130	0.652300	0.686900	0.288900
H1311	H131	0.620100	0.604500	0.314900
C1151	C115	0.574000	0.409000	0.173300
H1321	H132	0.617200	0.398100	0.166000
H1331	H133	0.563500	0.430700	0.145700
C1161	C116	0.420000	0.323000	0.199600
H1341	H134	0.398200	0.334100	0.172300
H1351	H135	0.384300	0.267600	0.208500
C1171	C117	0.500000	0.331000	0.187000
H1361	H136	0.489600	0.294900	0.161100
H1371	H137	0.515500	0.310300	0.212900
C1181	C118	0.374000	0.438000	0.276200
H1381	H138	0.329200	0.446500	0.280700
H1391	H139	0.381500	0.416700	0.305300
N241	N24	0.424200	0.369300	0.233400
H1401	H140	0.428300	0.343000	0.261600
C1191	C119	0.661000	0.594000	0.233100
H1411	H141	0.689100	0.588300	0.259500
H1421	H142	0.695900	0.646900	0.220500
C1201	C120	0.350000	0.375000	0.240400
H1431	H143	0.334500	0.389400	0.211700
H1441	H144	0.306500	0.324100	0.251400
Cu91	Cu9	0.691750	0.328650	0.664000
O411	O41	0.606500	0.296800	0.710030
O421	O42	0.591800	0.334300	0.780630
O431	O43	0.746200	0.455700	0.778030
N251	N25	0.750800	0.410200	0.706930
C1211	C121	0.716100	0.408300	0.743330
C1221	C122	0.628300	0.343300	0.746330
C1231	C123	0.853400	0.432000	0.655030
C1241	C124	0.835300	0.462200	0.697430
H1451	H145	0.867100	0.460200	0.723430
O441	O44	0.797500	0.370400	0.635130
O451	O45	0.922300	0.468200	0.638930
Cu101	Cu10	0.678520	0.434700	0.831520
O461	O46	0.728800	0.384100	0.866730
O471	O47	0.603100	0.364900	0.958830
O481	O48	0.725900	0.340800	0.937730
N261	N26	0.616600	0.414200	0.885330
O491	O49	0.621400	0.488400	0.813130
O501	O50	0.508600	0.491900	0.827930
C1251	C125	0.856800	0.545900	0.688530
C1261	C126	0.913000	0.605000	0.710430
H1461	H146	0.939900	0.596100	0.734830
C1271	C127	0.935000	0.680000	0.698230
H1471	H147	0.980000	0.721300	0.713330
C1281	C128	0.899600	0.702600	0.666030
H1481	H148	0.916000	0.755900	0.659830
C1291	C129	0.840800	0.644300	0.644830
H1491	H149	0.813300	0.655400	0.622130
C1301	C130	0.817000	0.564200	0.654730
H1501	H150	0.774300	0.523200	0.638630
C1311	C131	0.702000	0.366300	0.908030
C1321	C132	0.633900	0.382900	0.919730
C1331	C133	0.558100	0.438000	0.885430
H1511	H151	0.571900	0.478700	0.909530
C1341	C134	0.562900	0.476900	0.836830
C1351	C135	0.474400	0.371200	0.893930
C1361	C136	0.443200	0.303900	0.868730
H1521	H152	0.475800	0.295500	0.848430
C1371	C137	0.364000	0.247300	0.872530
H1531	H153	0.343100	0.203100	0.852830
C1381	C138	0.313000	0.253000	0.904530
H1541	H154	0.260000	0.214400	0.907630
C1391	C139	0.351000	0.324000	0.932130
H1551	H155	0.321200	0.330100	0.955730
C1401	C140	0.426800	0.381000	0.925330
H1561	H156	0.447300	0.428100	0.942330
Ni51	Ni5	0.971570	0.483520	0.572960
N271	N27	0.998700	0.402100	0.584530
H1571	H157	0.041700	0.413100	0.562430
N281	N28	0.070900	0.560500	0.603430
H1581	H158	0.113400	0.575300	0.580330
C1411	C141	0.100000	0.469000	0.634630
H1591	H159	0.123900	0.459800	0.661930
H1601	H160	0.136300	0.479200	0.608830
N291	N29	0.865900	0.401700	0.542830
H1611	H161	0.825800	0.381100	0.567630
C1421	C142	0.097000	0.544000	0.643030
H1621	H162	0.062100	0.537300	0.668730
H1631	H163	0.150700	0.587900	0.650530
C1431	C143	0.877500	0.341500	0.530230
H1641	H164	0.902200	0.351200	0.499530
H1651	H165	0.827600	0.291300	0.529530
C1441	C144	0.024000	0.392000	0.624030
H1661	H166	0.034600	0.347700	0.622230
H1671	H167	0.984400	0.379900	0.648230
C1451	C145	0.835000	0.426000	0.506630
H1681	H168	0.780900	0.382800	0.499330
H1691	H169	0.867200	0.436500	0.479030
C1461	C146	0.903000	0.580000	0.532930
H1701	H170	0.935900	0.601800	0.505630
H1711	H171	0.883300	0.615700	0.541830
C1471	C147	0.831000	0.500000	0.520330
H1721	H172	0.805300	0.510400	0.494430
H1731	H173	0.794800	0.484500	0.546230
C1481	C148	0.064000	0.626000	0.609530
H1741	H174	0.117300	0.670800	0.614030
H1751	H175	0.035200	0.618500	0.638630
N301	N30	0.945100	0.575800	0.566730
H1761	H176	0.914700	0.571700	0.594930
C1491	C149	0.933000	0.339000	0.566430
H1771	H177	0.899200	0.310900	0.592830
H1781	H178	0.951000	0.304100	0.553830
C1501	C150	0.025000	0.650000	0.573730
H1791	H179	0.054900	0.665500	0.545030
H1801	H180	0.017600	0.693500	0.584730
Cu111	Cu11	0.636900	0.308250	0.997340
O511	O51	0.690300	0.393500	0.043370
O521	O52	0.742500	0.408200	0.113970
O531	O53	0.709500	0.253800	0.111370
N311	N31	0.659400	0.249200	0.040270
C1511	C151	0.692200	0.283900	0.076670
C1521	C152	0.715000	0.371700	0.079670
C1531	C153	0.578600	0.146600	0.988370
C1541	C154	0.626900	0.164700	0.030770
H1811	H181	0.593100	0.132900	0.056770
O541	O54	0.572900	0.202500	0.968470
O551	O55	0.545900	0.077700	0.972270
Cu121	Cu12	0.756180	0.321480	0.164860
O561	O56	0.655300	0.271200	0.200070
O571	O57	0.761800	0.396900	0.292170
O581	O58	0.614900	0.274100	0.271070
N321	N32	0.797600	0.383400	0.218670
O591	O59	0.867000	0.378600	0.146470
O601	O60	0.983300	0.491400	0.161270
C1551	C155	0.689100	0.143200	0.021870
C1561	C156	0.692000	0.087000	0.043770
H1821	H182	0.656200	0.060100	0.068170
C1571	C157	0.745000	0.065000	0.031570
H1831	H183	0.741300	0.020000	0.046670
C1581	C158	0.803000	0.100400	0.999370
H1841	H184	0.839900	0.084000	0.993170
C1591	C159	0.803500	0.159200	0.978170
H1851	H185	0.842100	0.186700	0.955470
C1601	C160	0.747200	0.183000	0.988070
H1861	H186	0.748900	0.225700	0.971970
C1611	C161	0.664300	0.298000	0.241370
C1621	C162	0.749000	0.366100	0.253070
C1631	C163	0.879900	0.441900	0.218770
H1871	H187	0.906800	0.428100	0.242870
C1641	C164	0.914000	0.437100	0.170170
C1651	C165	0.896800	0.525600	0.227270
C1661	C166	0.860700	0.556800	0.202070
H1881	H188	0.819700	0.524200	0.181770
C1671	C167	0.883300	0.636000	0.205870
H1891	H189	0.860000	0.656900	0.186170
C1681	C168	0.940000	0.687000	0.237870
H1901	H190	0.954400	0.740000	0.240970
C1691	C169	0.973000	0.649000	0.265470
H1911	H191	0.008900	0.678800	0.289070
C1701	C170	0.954200	0.573200	0.258670
H1921	H192	0.980800	0.552700	0.275670
Ni61	Ni6	0.511950	0.028430	0.906300
N331	N33	0.403400	0.001300	0.917870
H1931	H193	0.371400	0.958300	0.895770
N341	N34	0.489600	0.929100	0.936770
H1941	H194	0.461900	0.886600	0.913670
C1711	C171	0.369000	0.900000	0.967970
H1951	H195	0.335900	0.876100	0.995270
H1961	H196	0.342900	0.863700	0.942170
N351	N35	0.535800	0.134100	0.876170
H1971	H197	0.555300	0.174200	0.900970
C1721	C172	0.447000	0.903000	0.976370
H1981	H198	0.475200	0.937900	0.002070
H1991	H199	0.437200	0.849300	0.983870
C1731	C173	0.464000	0.122500	0.863570
H2001	H200	0.449000	0.097800	0.832870
H2011	H201	0.463700	0.172400	0.862870
C1741	C174	0.368000	0.976000	0.957370
H2021	H202	0.313100	0.965400	0.955570
H2031	H203	0.395500	0.015600	0.981570
C1751	C175	0.591000	0.165000	0.839970
H2041	H204	0.601900	0.219100	0.832670
H2051	H205	0.569300	0.132800	0.812370
C1761	C176	0.677000	0.097000	0.866270
H2061	H206	0.665900	0.064100	0.838970
H2071	H207	0.732400	0.116700	0.875170
C1771	C177	0.669000	0.169000	0.853670
H2081	H208	0.705100	0.194700	0.827770
H2091	H209	0.689700	0.205200	0.879570
C1781	C178	0.562000	0.936000	0.942870
H2101	H210	0.553500	0.882700	0.947370
H2111	H211	0.583300	0.964800	0.971970
N361	N36	0.630700	0.054900	0.900070
H2121	H212	0.657000	0.085300	0.928270
C1791	C179	0.406000	0.067000	0.899770
H2131	H213	0.411700	0.100800	0.926170
H2141	H214	0.353100	0.049000	0.887170
C1801	C180	0.625000	0.975000	0.907070
H2151	H215	0.610600	0.945100	0.878370
H2161	H216	0.675900	0.982400	0.918070
