data_QAQRUW_clean_PM
_symmetry_space_group_name_H-M	'P1'
_cell_length_a	11.743600
_cell_length_b	11.743600
_cell_length_c	20.979000
_cell_angle_alpha	97.332700
_cell_angle_beta	97.332700
_cell_angle_gamma	100.333000
_symmetry_Int_Tables_number 1

loop_
_symmetry_equiv_pos_as_xyz
'x,y,z'

loop_
_atom_site_label
_atom_site_type_symbol
_atom_site_fract_x
_atom_site_fract_y
_atom_site_fract_z
Mg11	Mg1	0.049880	0.540420	0.307680
Mg21	Mg2	0.459580	0.950120	0.192320
Mg31	Mg3	0.950120	0.459580	0.692320
Mg41	Mg4	0.540420	0.049880	0.807680
Mg51	Mg5	0.248150	0.751850	0.250000
Mg61	Mg6	0.751850	0.248150	0.750000
H11	H1	0.124400	0.023000	0.361000
H21	H2	0.079700	0.166500	0.433700
H31	H3	0.999500	0.776100	0.463300
H41	H4	0.501800	0.730800	0.414300
H51	H5	0.635400	0.706000	0.499300
H61	H6	0.304200	0.414800	0.417800
H71	H7	0.033900	0.310700	0.110000
H81	H8	0.989900	0.271700	0.998400
H91	H9	0.053900	0.656900	0.108700
H101	H10	0.977000	0.875600	0.139000
H111	H11	0.833500	0.920300	0.066300
H121	H12	0.223900	0.000500	0.036700
H131	H13	0.269200	0.498200	0.085700
H141	H14	0.294000	0.364600	0.000700
H151	H15	0.585200	0.695800	0.082200
H161	H16	0.689300	0.966100	0.390000
H171	H17	0.728300	0.010100	0.501600
H181	H18	0.343100	0.946100	0.391300
H191	H19	0.875600	0.977000	0.639000
H201	H20	0.920300	0.833500	0.566300
H211	H21	0.000500	0.223900	0.536700
H221	H22	0.498200	0.269200	0.585700
H231	H23	0.364600	0.294000	0.500700
H241	H24	0.695800	0.585200	0.582200
H251	H25	0.966100	0.689300	0.890000
H261	H26	0.010100	0.728300	0.001600
H271	H27	0.946100	0.343100	0.891300
H281	H28	0.023000	0.124400	0.861000
H291	H29	0.166500	0.079700	0.933700
H301	H30	0.776100	0.999500	0.963300
H311	H31	0.730800	0.501800	0.914300
H321	H32	0.706000	0.635400	0.999300
H331	H33	0.414800	0.304200	0.917800
H341	H34	0.310700	0.033900	0.610000
H351	H35	0.271700	0.989900	0.498400
H361	H36	0.656900	0.053900	0.608700
C11	C1	0.102400	0.795200	0.359800
C21	C2	0.068800	0.886600	0.406300
C31	C3	0.090200	0.002000	0.397600
C41	C4	0.063400	0.087200	0.440700
C51	C5	0.012100	0.058900	0.495300
C61	C6	0.016700	0.856300	0.458200
C71	C7	0.301900	0.590500	0.351800
C81	C8	0.390000	0.574000	0.406800
C91	C9	0.488900	0.660500	0.432600
C101	C10	0.567600	0.646600	0.483500
C111	C11	0.549100	0.544700	0.512700
C121	C12	0.371800	0.473600	0.434600
C131	C13	0.066600	0.509200	0.191300
C141	C14	0.047000	0.488200	0.119200
C151	C15	0.028000	0.373400	0.086000
C161	C16	0.001100	0.350100	0.019900
C171	C17	0.989500	0.440900	0.983100
C181	C18	0.039600	0.579200	0.085800
C191	C19	0.204800	0.897600	0.140200
C201	C20	0.113400	0.931200	0.093700
C211	C21	0.998000	0.909800	0.102400
C221	C22	0.912800	0.936600	0.059300
C231	C23	0.941100	0.987900	0.004700
C241	C24	0.143700	0.983300	0.041800
C251	C25	0.409500	0.698100	0.148200
C261	C26	0.426000	0.610000	0.093200
C271	C27	0.339500	0.511100	0.067400
C281	C28	0.353400	0.432400	0.016500
C291	C29	0.455300	0.450900	0.987300
C301	C30	0.526400	0.628200	0.065400
C311	C31	0.490800	0.933400	0.308700
C321	C32	0.511800	0.953000	0.380800
C331	C33	0.626600	0.972000	0.414000
C341	C34	0.649900	0.998900	0.480100
C351	C35	0.559100	0.010500	0.516900
C361	C36	0.420800	0.960400	0.414200
C371	C37	0.897600	0.204800	0.640200
C381	C38	0.931200	0.113400	0.593700
C391	C39	0.909800	0.998000	0.602400
C401	C40	0.936600	0.912800	0.559300
C411	C41	0.987900	0.941100	0.504700
C421	C42	0.983300	0.143700	0.541800
C431	C43	0.698100	0.409500	0.648200
C441	C44	0.610000	0.426000	0.593200
C451	C45	0.511100	0.339500	0.567400
C461	C46	0.432400	0.353400	0.516500
C471	C47	0.450900	0.455300	0.487300
C481	C48	0.628200	0.526400	0.565400
C491	C49	0.933400	0.490800	0.808700
C501	C50	0.953000	0.511800	0.880800
C511	C51	0.972000	0.626600	0.914000
C521	C52	0.998900	0.649900	0.980100
C531	C53	0.010500	0.559100	0.016900
C541	C54	0.960400	0.420800	0.914200
C551	C55	0.795200	0.102400	0.859800
C561	C56	0.886600	0.068800	0.906300
C571	C57	0.002000	0.090200	0.897600
C581	C58	0.087200	0.063400	0.940700
C591	C59	0.058900	0.012100	0.995300
C601	C60	0.856300	0.016700	0.958200
C611	C61	0.590500	0.301900	0.851800
C621	C62	0.574000	0.390000	0.906800
C631	C63	0.660500	0.488900	0.932600
C641	C64	0.646600	0.567600	0.983500
C651	C65	0.544700	0.549100	0.012700
C661	C66	0.473600	0.371800	0.934600
C671	C67	0.509200	0.066600	0.691300
C681	C68	0.488200	0.047000	0.619200
C691	C69	0.373400	0.028000	0.586000
C701	C70	0.350100	0.001100	0.519900
C711	C71	0.440900	0.989500	0.483100
C721	C72	0.579200	0.039600	0.585800
O11	O1	0.073700	0.689900	0.369200
O21	O2	0.155300	0.828900	0.315440
O31	O3	0.329100	0.674700	0.322340
O41	O4	0.208100	0.514900	0.339830
O51	O5	0.105000	0.611400	0.223070
O61	O6	0.035300	0.423300	0.219840
O71	O7	0.310100	0.926300	0.130800
O81	O8	0.171100	0.844700	0.184560
O91	O9	0.325300	0.670900	0.177660
O101	O10	0.485100	0.791900	0.160170
O111	O11	0.388600	0.895000	0.276930
O121	O12	0.576700	0.964700	0.280160
O131	O13	0.926300	0.310100	0.630800
O141	O14	0.844700	0.171100	0.684560
O151	O15	0.670900	0.325300	0.677660
O161	O16	0.791900	0.485100	0.660170
O171	O17	0.895000	0.388600	0.776930
O181	O18	0.964700	0.576700	0.780160
O191	O19	0.689900	0.073700	0.869200
O201	O20	0.828900	0.155300	0.815440
O211	O21	0.674700	0.329100	0.822340
O221	O22	0.514900	0.208100	0.839830
O231	O23	0.611400	0.105000	0.723070
O241	O24	0.423300	0.035300	0.719840
