data_QAQSAD_clean_PM
_symmetry_space_group_name_H-M	'P1'
_cell_length_a	10.327000
_cell_length_b	11.067000
_cell_length_c	11.692000
_cell_angle_alpha	112.330000
_cell_angle_beta	97.310000
_cell_angle_gamma	106.790000
_symmetry_Int_Tables_number 1

loop_
_symmetry_equiv_pos_as_xyz
'x,y,z'

loop_
_atom_site_label
_atom_site_type_symbol
_atom_site_fract_x
_atom_site_fract_y
_atom_site_fract_z
Zn11	Zn1	0.833360	0.167110	0.860020
Zn21	Zn2	0.166640	0.832890	0.139980
Zn31	Zn3	0.000000	0.000000	0.000000
H11	H1	0.095200	0.330900	0.336000
H21	H2	0.228100	0.453700	0.568000
H31	H3	0.749300	0.398900	0.223800
H41	H4	0.677500	0.660200	0.820000
H51	H5	0.558100	0.427300	0.685500
H61	H6	0.575100	0.763600	0.534900
H71	H7	0.352500	0.146000	0.914200
H81	H8	0.584000	0.290600	0.983100
H91	H9	0.233200	0.469100	0.940100
H101	H10	0.904800	0.669100	0.664000
H111	H11	0.771900	0.546300	0.432000
H121	H12	0.250700	0.601100	0.776200
H131	H13	0.322500	0.339800	0.180000
H141	H14	0.441900	0.572700	0.314500
H151	H15	0.424900	0.236400	0.465100
H161	H16	0.647500	0.854000	0.085800
H171	H17	0.416000	0.709400	0.016900
H181	H18	0.766800	0.530900	0.059900
C11	C1	0.910500	0.255300	0.124700
C21	C2	0.921800	0.350400	0.260400
C31	C3	0.031700	0.375300	0.356300
C41	C4	0.050300	0.467600	0.486000
C51	C5	0.162600	0.495700	0.586400
C61	C6	0.823400	0.415800	0.289200
C71	C7	0.720800	0.887900	0.778300
C81	C8	0.639200	0.735800	0.688900
C91	C9	0.633400	0.632700	0.734900
C101	C10	0.563100	0.493700	0.654200
C111	C11	0.573300	0.695500	0.563500
C121	C12	0.497600	0.448900	0.523300
C131	C13	0.117400	0.200500	0.885200
C141	C14	0.268500	0.294600	0.922000
C151	C15	0.376200	0.240700	0.934300
C161	C16	0.514600	0.327300	0.975300
C171	C17	0.553700	0.472700	0.006400
C181	C18	0.304000	0.434600	0.950000
C191	C19	0.089500	0.744700	0.875300
C201	C20	0.078200	0.649600	0.739600
C211	C21	0.968300	0.624700	0.643700
C221	C22	0.949700	0.532400	0.514000
C231	C23	0.837400	0.504300	0.413600
C241	C24	0.176600	0.584200	0.710800
C251	C25	0.279200	0.112100	0.221700
C261	C26	0.360800	0.264200	0.311100
C271	C27	0.366600	0.367300	0.265100
C281	C28	0.436900	0.506300	0.345800
C291	C29	0.426700	0.304500	0.436500
C301	C30	0.502400	0.551100	0.476700
C311	C31	0.882600	0.799500	0.114800
C321	C32	0.731500	0.705400	0.078000
C331	C33	0.623800	0.759300	0.065700
C341	C34	0.485400	0.672700	0.024700
C351	C35	0.446300	0.527300	0.993600
C361	C36	0.696000	0.565400	0.050000
O11	O1	0.993500	0.191550	0.107290
O21	O2	0.819000	0.249400	0.036220
O31	O3	0.713600	0.977870	0.735840
O41	O4	0.791300	0.921810	0.888080
O51	O5	0.086300	0.077710	0.875590
O61	O6	0.027100	0.253200	0.865400
O71	O7	0.006500	0.808450	0.892710
O81	O8	0.181000	0.750600	0.963780
O91	O9	0.286400	0.022130	0.264160
O101	O10	0.208700	0.078190	0.111920
O111	O11	0.913700	0.922290	0.124410
O121	O12	0.972900	0.746800	0.134600
