data_QATDEU_clean_PM
_symmetry_space_group_name_H-M	'P1'
_cell_length_a	15.774200
_cell_length_b	19.975100
_cell_length_c	16.206500
_cell_angle_alpha	90.000000
_cell_angle_beta	106.398000
_cell_angle_gamma	90.000000
_symmetry_Int_Tables_number 1

loop_
_symmetry_equiv_pos_as_xyz
'x,y,z'

loop_
_atom_site_label
_atom_site_type_symbol
_atom_site_fract_x
_atom_site_fract_y
_atom_site_fract_z
N11	N1	0.533300	0.976500	0.566300
O11	O1	0.572000	0.030200	0.573200
O21	O2	0.501800	0.953500	0.493500
O31	O3	0.531150	0.946530	0.632710
N21	N2	0.362200	0.953740	0.682900
C11	C1	0.453700	0.092500	0.682500
H11	H1	0.420400	0.068300	0.633600
C21	C2	0.450900	0.161600	0.679200
H21	H2	0.416100	0.183800	0.629400
C31	C3	0.423100	0.308300	0.712500
H31	H3	0.369900	0.285000	0.686000
C41	C4	0.423000	0.377700	0.713200
H41	H4	0.369400	0.401000	0.688200
C51	C5	0.442400	0.524200	0.683800
H51	H5	0.402400	0.500900	0.637900
C61	C6	0.442400	0.593600	0.683900
H61	H6	0.402600	0.617200	0.638100
C71	C7	0.485300	0.809300	0.676500
H71	H7	0.475000	0.832800	0.623600
C81	C8	0.484500	0.740200	0.674200
H81	H8	0.473300	0.717600	0.620700
C91	C9	0.303300	0.975000	0.722500
H91	H9	0.323100	0.982800	0.782700
C101	C10	0.215600	0.986300	0.680800
H101	H10	0.176800	0.002200	0.711900
C111	C11	0.184000	0.974300	0.593300
C121	C12	0.243400	0.951600	0.552300
H111	H11	0.224600	0.942200	0.492400
C131	C13	0.330900	0.942200	0.598500
H121	H12	0.370900	0.926800	0.568600
C141	C14	0.028600	0.934300	0.526800
C151	C15	0.062300	0.054000	0.519500
C161	C16	0.121800	0.108400	0.534700
H131	H13	0.182500	0.100700	0.563000
C171	C17	0.094000	0.171500	0.509700
H141	H14	0.134700	0.207600	0.522500
C181	C18	0.004600	0.183500	0.464700
H151	H15	0.985600	0.227800	0.447400
C191	C19	0.053900	0.867600	0.553900
H161	H16	0.113300	0.858800	0.585800
C201	C20	0.088700	0.987700	0.545500
N31	N3	0.466700	0.976500	0.933700
O41	O4	0.428000	0.030200	0.926800
O51	O5	0.498200	0.953500	0.006500
O61	O6	0.468850	0.946530	0.867290
N41	N4	0.637800	0.953740	0.817100
C211	C21	0.546300	0.092500	0.817500
H171	H17	0.579600	0.068300	0.866400
C221	C22	0.549100	0.161600	0.820800
H181	H18	0.583900	0.183800	0.870600
C231	C23	0.576900	0.308300	0.787500
H191	H19	0.630100	0.285000	0.814000
C241	C24	0.577000	0.377700	0.786800
H201	H20	0.630600	0.401000	0.811800
C251	C25	0.557600	0.524200	0.816200
H211	H21	0.597600	0.500900	0.862100
C261	C26	0.557600	0.593600	0.816100
H221	H22	0.597400	0.617200	0.861900
C271	C27	0.514700	0.809300	0.823500
H231	H23	0.525000	0.832800	0.876400
C281	C28	0.515500	0.740200	0.825800
H241	H24	0.526700	0.717600	0.879300
C291	C29	0.696700	0.975000	0.777500
H251	H25	0.676900	0.982800	0.717300
C301	C30	0.784400	0.986300	0.819200
H261	H26	0.823200	0.002200	0.788100
C311	C31	0.816000	0.974300	0.906700
C321	C32	0.756600	0.951600	0.947700
H271	H27	0.775400	0.942200	0.007600
C331	C33	0.669100	0.942200	0.901500
H281	H28	0.629100	0.926800	0.931400
C341	C34	0.971400	0.934300	0.973200
C351	C35	0.937700	0.054000	0.980500
C361	C36	0.878200	0.108400	0.965300
H291	H29	0.817500	0.100700	0.937000
C371	C37	0.906000	0.171500	0.990300
H301	H30	0.865300	0.207600	0.977500
C381	C38	0.995400	0.183500	0.035300
H311	H31	0.014400	0.227800	0.052600
C391	C39	0.946100	0.867600	0.946100
H321	H32	0.886700	0.858800	0.914200
C401	C40	0.911300	0.987700	0.954500
N51	N5	0.466700	0.023500	0.433700
O71	O7	0.428000	0.969800	0.426800
O81	O8	0.498200	0.046500	0.506500
O91	O9	0.468850	0.053470	0.367290
N61	N6	0.637800	0.046260	0.317100
C411	C41	0.546300	0.907500	0.317500
H331	H33	0.579600	0.931700	0.366400
C421	C42	0.549100	0.838400	0.320800
H341	H34	0.583900	0.816200	0.370600
C431	C43	0.576900	0.691700	0.287500
H351	H35	0.630100	0.715000	0.314000
C441	C44	0.577000	0.622300	0.286800
H361	H36	0.630600	0.599000	0.311800
C451	C45	0.557600	0.475800	0.316200
H371	H37	0.597600	0.499100	0.362100
C461	C46	0.557600	0.406400	0.316100
H381	H38	0.597400	0.382800	0.361900
C471	C47	0.514700	0.190700	0.323500
H391	H39	0.525000	0.167200	0.376400
C481	C48	0.515500	0.259800	0.325800
H401	H40	0.526700	0.282400	0.379300
C491	C49	0.696700	0.025000	0.277500
H411	H41	0.676900	0.017200	0.217300
C501	C50	0.784400	0.013700	0.319200
H421	H42	0.823200	0.997800	0.288100
C511	C51	0.816000	0.025700	0.406700
C521	C52	0.756600	0.048400	0.447700
H431	H43	0.775400	0.057800	0.507600
C531	C53	0.669100	0.057800	0.401500
H441	H44	0.629100	0.073200	0.431400
C541	C54	0.971400	0.065700	0.473200
C551	C55	0.937700	0.946000	0.480500
C561	C56	0.878200	0.891600	0.465300
H451	H45	0.817500	0.899300	0.437000
C571	C57	0.906000	0.828500	0.490300
H461	H46	0.865300	0.792400	0.477500
C581	C58	0.995400	0.816500	0.535300
H471	H47	0.014400	0.772200	0.552600
C591	C59	0.946100	0.132400	0.446100
H481	H48	0.886700	0.141200	0.414200
C601	C60	0.911300	0.012300	0.454500
N71	N7	0.533300	0.023500	0.066300
O101	O10	0.572000	0.969800	0.073200
O111	O11	0.501800	0.046500	0.993500
O121	O12	0.531150	0.053470	0.132710
N81	N8	0.362200	0.046260	0.182900
C611	C61	0.453700	0.907500	0.182500
H491	H49	0.420400	0.931700	0.133600
C621	C62	0.450900	0.838400	0.179200
H501	H50	0.416100	0.816200	0.129400
C631	C63	0.423100	0.691700	0.212500
H511	H51	0.369900	0.715000	0.186000
C641	C64	0.423000	0.622300	0.213200
H521	H52	0.369400	0.599000	0.188200
C651	C65	0.442400	0.475800	0.183800
H531	H53	0.402400	0.499100	0.137900
C661	C66	0.442400	0.406400	0.183900
H541	H54	0.402600	0.382800	0.138100
C671	C67	0.485300	0.190700	0.176500
H551	H55	0.475000	0.167200	0.123600
C681	C68	0.484500	0.259800	0.174200
H561	H56	0.473300	0.282400	0.120700
C691	C69	0.303300	0.025000	0.222500
H571	H57	0.323100	0.017200	0.282700
C701	C70	0.215600	0.013700	0.180800
H581	H58	0.176800	0.997800	0.211900
C711	C71	0.184000	0.025700	0.093300
C721	C72	0.243400	0.048400	0.052300
H591	H59	0.224600	0.057800	0.992400
C731	C73	0.330900	0.057800	0.098500
H601	H60	0.370900	0.073200	0.068600
C741	C74	0.028600	0.065700	0.026800
C751	C75	0.062300	0.946000	0.019500
C761	C76	0.121800	0.891600	0.034700
H611	H61	0.182500	0.899300	0.063000
C771	C77	0.094000	0.828500	0.009700
H621	H62	0.134700	0.792400	0.022500
C781	C78	0.004600	0.816500	0.964700
H631	H63	0.985600	0.772200	0.947400
C791	C79	0.053900	0.132400	0.053900
H641	H64	0.113300	0.141200	0.085800
C801	C80	0.088700	0.012300	0.045500
Ni11	Ni1	0.500000	0.951530	0.750000
N91	N9	0.500000	0.057900	0.750000
C811	C81	0.500000	0.198500	0.750000
C821	C82	0.500000	0.272100	0.750000
C831	C83	0.500000	0.413700	0.750000
C841	C84	0.500000	0.487900	0.750000
C851	C85	0.500000	0.629200	0.750000
N101	N10	0.500000	0.845500	0.750000
C861	C86	0.500000	0.703600	0.750000
Ni21	Ni2	0.500000	0.048470	0.250000
N111	N11	0.500000	0.942100	0.250000
C871	C87	0.500000	0.801500	0.250000
C881	C88	0.500000	0.727900	0.250000
C891	C89	0.500000	0.586300	0.250000
C901	C90	0.500000	0.512100	0.250000
C911	C91	0.500000	0.370800	0.250000
N121	N12	0.500000	0.154500	0.250000
C921	C92	0.500000	0.296400	0.250000
N131	N13	0.033300	0.476500	0.566300
O131	O13	0.072000	0.530200	0.573200
O141	O14	0.001800	0.453500	0.493500
O151	O15	0.031150	0.446530	0.632710
N141	N14	0.862200	0.453740	0.682900
C931	C93	0.953700	0.592500	0.682500
H651	H65	0.920400	0.568300	0.633600
C941	C94	0.950900	0.661600	0.679200
H661	H66	0.916100	0.683800	0.629400
C951	C95	0.923100	0.808300	0.712500
H671	H67	0.869900	0.785000	0.686000
C961	C96	0.923000	0.877700	0.713200
H681	H68	0.869400	0.901000	0.688200
C971	C97	0.942400	0.024200	0.683800
H691	H69	0.902400	0.000900	0.637900
C981	C98	0.942400	0.093600	0.683900
H701	H70	0.902600	0.117200	0.638100
C991	C99	0.985300	0.309300	0.676500
H711	H71	0.975000	0.332800	0.623600
C1001	C100	0.984500	0.240200	0.674200
H721	H72	0.973300	0.217600	0.620700
C1011	C101	0.803300	0.475000	0.722500
H731	H73	0.823100	0.482800	0.782700
C1021	C102	0.715600	0.486300	0.680800
H741	H74	0.676800	0.502200	0.711900
C1031	C103	0.684000	0.474300	0.593300
C1041	C104	0.743400	0.451600	0.552300
H751	H75	0.724600	0.442200	0.492400
C1051	C105	0.830900	0.442200	0.598500
H761	H76	0.870900	0.426800	0.568600
C1061	C106	0.528600	0.434300	0.526800
C1071	C107	0.562300	0.554000	0.519500
C1081	C108	0.621800	0.608400	0.534700
H771	H77	0.682500	0.600700	0.563000
C1091	C109	0.594000	0.671500	0.509700
H781	H78	0.634700	0.707600	0.522500
C1101	C110	0.504600	0.683500	0.464700
H791	H79	0.485600	0.727800	0.447400
C1111	C111	0.553900	0.367600	0.553900
H801	H80	0.613300	0.358800	0.585800
C1121	C112	0.588700	0.487700	0.545500
N151	N15	0.966700	0.476500	0.933700
O161	O16	0.928000	0.530200	0.926800
O171	O17	0.998200	0.453500	0.006500
O181	O18	0.968850	0.446530	0.867290
N161	N16	0.137800	0.453740	0.817100
C1131	C113	0.046300	0.592500	0.817500
H811	H81	0.079600	0.568300	0.866400
C1141	C114	0.049100	0.661600	0.820800
H821	H82	0.083900	0.683800	0.870600
C1151	C115	0.076900	0.808300	0.787500
H831	H83	0.130100	0.785000	0.814000
C1161	C116	0.077000	0.877700	0.786800
H841	H84	0.130600	0.901000	0.811800
C1171	C117	0.057600	0.024200	0.816200
H851	H85	0.097600	0.000900	0.862100
C1181	C118	0.057600	0.093600	0.816100
H861	H86	0.097400	0.117200	0.861900
C1191	C119	0.014700	0.309300	0.823500
H871	H87	0.025000	0.332800	0.876400
C1201	C120	0.015500	0.240200	0.825800
H881	H88	0.026700	0.217600	0.879300
C1211	C121	0.196700	0.475000	0.777500
H891	H89	0.176900	0.482800	0.717300
C1221	C122	0.284400	0.486300	0.819200
H901	H90	0.323200	0.502200	0.788100
C1231	C123	0.316000	0.474300	0.906700
C1241	C124	0.256600	0.451600	0.947700
H911	H91	0.275400	0.442200	0.007600
C1251	C125	0.169100	0.442200	0.901500
H921	H92	0.129100	0.426800	0.931400
C1261	C126	0.471400	0.434300	0.973200
C1271	C127	0.437700	0.554000	0.980500
C1281	C128	0.378200	0.608400	0.965300
H931	H93	0.317500	0.600700	0.937000
C1291	C129	0.406000	0.671500	0.990300
H941	H94	0.365300	0.707600	0.977500
C1301	C130	0.495400	0.683500	0.035300
H951	H95	0.514400	0.727800	0.052600
C1311	C131	0.446100	0.367600	0.946100
H961	H96	0.386700	0.358800	0.914200
C1321	C132	0.411300	0.487700	0.954500
N171	N17	0.966700	0.523500	0.433700
O191	O19	0.928000	0.469800	0.426800
O201	O20	0.998200	0.546500	0.506500
O211	O21	0.968850	0.553470	0.367290
N181	N18	0.137800	0.546260	0.317100
C1331	C133	0.046300	0.407500	0.317500
H971	H97	0.079600	0.431700	0.366400
C1341	C134	0.049100	0.338400	0.320800
H981	H98	0.083900	0.316200	0.370600
C1351	C135	0.076900	0.191700	0.287500
H991	H99	0.130100	0.215000	0.314000
C1361	C136	0.077000	0.122300	0.286800
H1001	H100	0.130600	0.099000	0.311800
C1371	C137	0.057600	0.975800	0.316200
H1011	H101	0.097600	0.999100	0.362100
C1381	C138	0.057600	0.906400	0.316100
H1021	H102	0.097400	0.882800	0.361900
C1391	C139	0.014700	0.690700	0.323500
H1031	H103	0.025000	0.667200	0.376400
C1401	C140	0.015500	0.759800	0.325800
H1041	H104	0.026700	0.782400	0.379300
C1411	C141	0.196700	0.525000	0.277500
H1051	H105	0.176900	0.517200	0.217300
C1421	C142	0.284400	0.513700	0.319200
H1061	H106	0.323200	0.497800	0.288100
C1431	C143	0.316000	0.525700	0.406700
C1441	C144	0.256600	0.548400	0.447700
H1071	H107	0.275400	0.557800	0.507600
C1451	C145	0.169100	0.557800	0.401500
H1081	H108	0.129100	0.573200	0.431400
C1461	C146	0.471400	0.565700	0.473200
C1471	C147	0.437700	0.446000	0.480500
C1481	C148	0.378200	0.391600	0.465300
H1091	H109	0.317500	0.399300	0.437000
C1491	C149	0.406000	0.328500	0.490300
H1101	H110	0.365300	0.292400	0.477500
C1501	C150	0.495400	0.316500	0.535300
H1111	H111	0.514400	0.272200	0.552600
C1511	C151	0.446100	0.632400	0.446100
H1121	H112	0.386700	0.641200	0.414200
C1521	C152	0.411300	0.512300	0.454500
N191	N19	0.033300	0.523500	0.066300
O221	O22	0.072000	0.469800	0.073200
O231	O23	0.001800	0.546500	0.993500
O241	O24	0.031150	0.553470	0.132710
N201	N20	0.862200	0.546260	0.182900
C1531	C153	0.953700	0.407500	0.182500
H1131	H113	0.920400	0.431700	0.133600
C1541	C154	0.950900	0.338400	0.179200
H1141	H114	0.916100	0.316200	0.129400
C1551	C155	0.923100	0.191700	0.212500
H1151	H115	0.869900	0.215000	0.186000
C1561	C156	0.923000	0.122300	0.213200
H1161	H116	0.869400	0.099000	0.188200
C1571	C157	0.942400	0.975800	0.183800
H1171	H117	0.902400	0.999100	0.137900
C1581	C158	0.942400	0.906400	0.183900
H1181	H118	0.902600	0.882800	0.138100
C1591	C159	0.985300	0.690700	0.176500
H1191	H119	0.975000	0.667200	0.123600
C1601	C160	0.984500	0.759800	0.174200
H1201	H120	0.973300	0.782400	0.120700
C1611	C161	0.803300	0.525000	0.222500
H1211	H121	0.823100	0.517200	0.282700
C1621	C162	0.715600	0.513700	0.180800
H1221	H122	0.676800	0.497800	0.211900
C1631	C163	0.684000	0.525700	0.093300
C1641	C164	0.743400	0.548400	0.052300
H1231	H123	0.724600	0.557800	0.992400
C1651	C165	0.830900	0.557800	0.098500
H1241	H124	0.870900	0.573200	0.068600
C1661	C166	0.528600	0.565700	0.026800
C1671	C167	0.562300	0.446000	0.019500
C1681	C168	0.621800	0.391600	0.034700
H1251	H125	0.682500	0.399300	0.063000
C1691	C169	0.594000	0.328500	0.009700
H1261	H126	0.634700	0.292400	0.022500
C1701	C170	0.504600	0.316500	0.964700
H1271	H127	0.485600	0.272200	0.947400
C1711	C171	0.553900	0.632400	0.053900
H1281	H128	0.613300	0.641200	0.085800
C1721	C172	0.588700	0.512300	0.045500
Ni31	Ni3	0.000000	0.451530	0.750000
N211	N21	0.000000	0.557900	0.750000
C1731	C173	0.000000	0.698500	0.750000
C1741	C174	0.000000	0.772100	0.750000
C1751	C175	0.000000	0.913700	0.750000
C1761	C176	0.000000	0.987900	0.750000
C1771	C177	0.000000	0.129200	0.750000
N221	N22	0.000000	0.345500	0.750000
C1781	C178	0.000000	0.203600	0.750000
Ni41	Ni4	0.000000	0.548470	0.250000
N231	N23	0.000000	0.442100	0.250000
C1791	C179	0.000000	0.301500	0.250000
C1801	C180	0.000000	0.227900	0.250000
C1811	C181	0.000000	0.086300	0.250000
C1821	C182	0.000000	0.012100	0.250000
C1831	C183	0.000000	0.870800	0.250000
N241	N24	0.000000	0.654500	0.250000
C1841	C184	0.000000	0.796400	0.250000
