data_QATVUE_clean_PM
_symmetry_space_group_name_H-M	'P1'
_cell_length_a	17.540000
_cell_length_b	17.540000
_cell_length_c	21.383000
_cell_angle_alpha	90.000000
_cell_angle_beta	90.000000
_cell_angle_gamma	90.000000
_symmetry_Int_Tables_number 1

loop_
_symmetry_equiv_pos_as_xyz
'x,y,z'

loop_
_atom_site_label
_atom_site_type_symbol
_atom_site_fract_x
_atom_site_fract_y
_atom_site_fract_z
O11	O1	0.361600	0.069000	0.003700
N11	N1	0.362600	0.262600	0.058800
N21	N2	0.294100	0.122300	0.078200
N31	N3	0.268900	0.045900	0.071200
C11	C1	0.397200	0.329800	0.049800
H11	H1	0.382400	0.371600	0.073600
C21	C2	0.454100	0.338100	0.006200
H21	H2	0.476000	0.385800	0.000400
C31	C3	0.479100	0.279100	0.971700
H31	H3	0.517500	0.285600	0.942200
C41	C4	0.444800	0.205800	0.981500
H41	H4	0.460300	0.163000	0.959200
C51	C5	0.388200	0.202300	0.025200
C61	C6	0.346900	0.130200	0.037700
C71	C7	0.308400	0.018000	0.026700
C81	C8	0.303700	0.943200	0.997300
C91	C9	0.253800	0.888800	0.019500
H51	H5	0.225400	0.897000	0.055600
C101	C10	0.347600	0.924500	0.944200
H61	H6	0.384300	0.958200	0.929300
N41	N4	0.282700	0.806000	0.934600
C111	C11	0.247500	0.822500	0.986400
H71	H7	0.214900	0.785600	0.002500
C121	C12	0.336000	0.857700	0.915600
H81	H8	0.365800	0.845900	0.880900
O21	O2	0.861600	0.569000	0.503700
N51	N5	0.862600	0.762600	0.558800
N61	N6	0.794100	0.622300	0.578200
N71	N7	0.768900	0.545900	0.571200
C131	C13	0.897200	0.829800	0.549800
H91	H9	0.882400	0.871600	0.573600
C141	C14	0.954100	0.838100	0.506200
H101	H10	0.976000	0.885800	0.500400
C151	C15	0.979100	0.779100	0.471700
H111	H11	0.017500	0.785600	0.442200
C161	C16	0.944800	0.705800	0.481500
H121	H12	0.960300	0.663000	0.459200
C171	C17	0.888200	0.702300	0.525200
C181	C18	0.846900	0.630200	0.537700
C191	C19	0.808400	0.518000	0.526700
C201	C20	0.803700	0.443200	0.497300
C211	C21	0.753800	0.388800	0.519500
H131	H13	0.725400	0.397000	0.555600
C221	C22	0.847600	0.424500	0.444200
H141	H14	0.884300	0.458200	0.429300
N81	N8	0.782700	0.306000	0.434600
C231	C23	0.747500	0.322500	0.486400
H151	H15	0.714900	0.285600	0.502500
C241	C24	0.836000	0.357700	0.415600
H161	H16	0.865800	0.345900	0.380900
O31	O3	0.638400	0.931000	0.003700
N91	N9	0.637400	0.737400	0.058800
N101	N10	0.705900	0.877700	0.078200
N111	N11	0.731100	0.954100	0.071200
C251	C25	0.602800	0.670200	0.049800
H171	H17	0.617600	0.628400	0.073600
C261	C26	0.545900	0.661900	0.006200
H181	H18	0.524000	0.614200	0.000400
C271	C27	0.520900	0.720900	0.971700
H191	H19	0.482500	0.714400	0.942200
C281	C28	0.555200	0.794200	0.981500
H201	H20	0.539700	0.837000	0.959200
C291	C29	0.611800	0.797700	0.025200
C301	C30	0.653100	0.869800	0.037700
C311	C31	0.691600	0.982000	0.026700
C321	C32	0.696300	0.056800	0.997300
C331	C33	0.746200	0.111200	0.019500
H211	H21	0.774600	0.103000	0.055600
C341	C34	0.652400	0.075500	0.944200
H221	H22	0.615700	0.041800	0.929300
N121	N12	0.717300	0.194000	0.934600
C351	C35	0.752500	0.177500	0.986400
H231	H23	0.785100	0.214400	0.002500
C361	C36	0.664000	0.142300	0.915600
H241	H24	0.634200	0.154100	0.880900
O41	O4	0.138400	0.431000	0.503700
N131	N13	0.137400	0.237400	0.558800
N141	N14	0.205900	0.377700	0.578200
N151	N15	0.231100	0.454100	0.571200
C371	C37	0.102800	0.170200	0.549800
H251	H25	0.117600	0.128400	0.573600
C381	C38	0.045900	0.161900	0.506200
H261	H26	0.024000	0.114200	0.500400
C391	C39	0.020900	0.220900	0.471700
H271	H27	0.982500	0.214400	0.442200
C401	C40	0.055200	0.294200	0.481500
H281	H28	0.039700	0.337000	0.459200
C411	C41	0.111800	0.297700	0.525200
C421	C42	0.153100	0.369800	0.537700
C431	C43	0.191600	0.482000	0.526700
C441	C44	0.196300	0.556800	0.497300
C451	C45	0.246200	0.611200	0.519500
H291	H29	0.274600	0.603000	0.555600
C461	C46	0.152400	0.575500	0.444200
H301	H30	0.115700	0.541800	0.429300
N161	N16	0.217300	0.694000	0.434600
C471	C47	0.252500	0.677500	0.486400
H311	H31	0.285100	0.714400	0.502500
C481	C48	0.164000	0.642300	0.415600
H321	H32	0.134200	0.654100	0.380900
O51	O5	0.069000	0.638400	0.996300
N171	N17	0.262600	0.637400	0.941200
N181	N18	0.122300	0.705900	0.921800
N191	N19	0.045900	0.731100	0.928800
C491	C49	0.329800	0.602800	0.950200
H331	H33	0.371600	0.617600	0.926400
C501	C50	0.338100	0.545900	0.993800
H341	H34	0.385800	0.524000	0.999600
C511	C51	0.279100	0.520900	0.028300
H351	H35	0.285600	0.482500	0.057800
C521	C52	0.205800	0.555200	0.018500
H361	H36	0.163000	0.539700	0.040800
C531	C53	0.202300	0.611800	0.974800
C541	C54	0.130200	0.653100	0.962300
C551	C55	0.018000	0.691600	0.973300
C561	C56	0.943200	0.696300	0.002700
C571	C57	0.888800	0.746200	0.980500
H371	H37	0.897000	0.774600	0.944400
C581	C58	0.924500	0.652400	0.055800
H381	H38	0.958200	0.615700	0.070700
N201	N20	0.806000	0.717300	0.065400
C591	C59	0.822500	0.752500	0.013600
H391	H39	0.785600	0.785100	0.997500
C601	C60	0.857700	0.664000	0.084400
H401	H40	0.845900	0.634200	0.119100
O61	O6	0.569000	0.138400	0.496300
N211	N21	0.762600	0.137400	0.441200
N221	N22	0.622300	0.205900	0.421800
N231	N23	0.545900	0.231100	0.428800
C611	C61	0.829800	0.102800	0.450200
H411	H41	0.871600	0.117600	0.426400
C621	C62	0.838100	0.045900	0.493800
H421	H42	0.885800	0.024000	0.499600
C631	C63	0.779100	0.020900	0.528300
H431	H43	0.785600	0.982500	0.557800
C641	C64	0.705800	0.055200	0.518500
H441	H44	0.663000	0.039700	0.540800
C651	C65	0.702300	0.111800	0.474800
C661	C66	0.630200	0.153100	0.462300
C671	C67	0.518000	0.191600	0.473300
C681	C68	0.443200	0.196300	0.502700
C691	C69	0.388800	0.246200	0.480500
H451	H45	0.397000	0.274600	0.444400
C701	C70	0.424500	0.152400	0.555800
H461	H46	0.458200	0.115700	0.570700
N241	N24	0.306000	0.217300	0.565400
C711	C71	0.322500	0.252500	0.513600
H471	H47	0.285600	0.285100	0.497500
C721	C72	0.357700	0.164000	0.584400
H481	H48	0.345900	0.134200	0.619100
O71	O7	0.931000	0.361600	0.996300
N251	N25	0.737400	0.362600	0.941200
N261	N26	0.877700	0.294100	0.921800
N271	N27	0.954100	0.268900	0.928800
C731	C73	0.670200	0.397200	0.950200
H491	H49	0.628400	0.382400	0.926400
C741	C74	0.661900	0.454100	0.993800
H501	H50	0.614200	0.476000	0.999600
C751	C75	0.720900	0.479100	0.028300
H511	H51	0.714400	0.517500	0.057800
C761	C76	0.794200	0.444800	0.018500
H521	H52	0.837000	0.460300	0.040800
C771	C77	0.797700	0.388200	0.974800
C781	C78	0.869800	0.346900	0.962300
C791	C79	0.982000	0.308400	0.973300
C801	C80	0.056800	0.303700	0.002700
C811	C81	0.111200	0.253800	0.980500
H531	H53	0.103000	0.225400	0.944400
C821	C82	0.075500	0.347600	0.055800
H541	H54	0.041800	0.384300	0.070700
N281	N28	0.194000	0.282700	0.065400
C831	C83	0.177500	0.247500	0.013600
H551	H55	0.214400	0.214900	0.997500
C841	C84	0.142300	0.336000	0.084400
H561	H56	0.154100	0.365800	0.119100
O81	O8	0.431000	0.861600	0.496300
N291	N29	0.237400	0.862600	0.441200
N301	N30	0.377700	0.794100	0.421800
N311	N31	0.454100	0.768900	0.428800
C851	C85	0.170200	0.897200	0.450200
H571	H57	0.128400	0.882400	0.426400
C861	C86	0.161900	0.954100	0.493800
H581	H58	0.114200	0.976000	0.499600
C871	C87	0.220900	0.979100	0.528300
H591	H59	0.214400	0.017500	0.557800
C881	C88	0.294200	0.944800	0.518500
H601	H60	0.337000	0.960300	0.540800
C891	C89	0.297700	0.888200	0.474800
C901	C90	0.369800	0.846900	0.462300
C911	C91	0.482000	0.808400	0.473300
C921	C92	0.556800	0.803700	0.502700
C931	C93	0.611200	0.753800	0.480500
H611	H61	0.603000	0.725400	0.444400
C941	C94	0.575500	0.847600	0.555800
H621	H62	0.541800	0.884300	0.570700
N321	N32	0.694000	0.782700	0.565400
C951	C95	0.677500	0.747500	0.513600
H631	H63	0.714400	0.714900	0.497500
C961	C96	0.642300	0.836000	0.584400
H641	H64	0.654100	0.865800	0.619100
O91	O9	0.138400	0.069000	0.746300
N331	N33	0.137400	0.262600	0.691200
N341	N34	0.205900	0.122300	0.671800
N351	N35	0.231100	0.045900	0.678800
C971	C97	0.102800	0.329800	0.700200
H651	H65	0.117600	0.371600	0.676400
C981	C98	0.045900	0.338100	0.743800
H661	H66	0.024000	0.385800	0.749600
C991	C99	0.020900	0.279100	0.778300
H671	H67	0.982500	0.285600	0.807800
C1001	C100	0.055200	0.205800	0.768500
H681	H68	0.039700	0.163000	0.790800
C1011	C101	0.111800	0.202300	0.724800
C1021	C102	0.153100	0.130200	0.712300
C1031	C103	0.191600	0.018000	0.723300
C1041	C104	0.196300	0.943200	0.752700
C1051	C105	0.246200	0.888800	0.730500
H691	H69	0.274600	0.897000	0.694400
C1061	C106	0.152400	0.924500	0.805800
H701	H70	0.115700	0.958200	0.820700
N361	N36	0.217300	0.806000	0.815400
C1071	C107	0.252500	0.822500	0.763600
H711	H71	0.285100	0.785600	0.747500
C1081	C108	0.164000	0.857700	0.834400
H721	H72	0.134200	0.845900	0.869100
O101	O10	0.638400	0.569000	0.246300
N371	N37	0.637400	0.762600	0.191200
N381	N38	0.705900	0.622300	0.171800
N391	N39	0.731100	0.545900	0.178800
C1091	C109	0.602800	0.829800	0.200200
H731	H73	0.617600	0.871600	0.176400
C1101	C110	0.545900	0.838100	0.243800
H741	H74	0.524000	0.885800	0.249600
C1111	C111	0.520900	0.779100	0.278300
H751	H75	0.482500	0.785600	0.307800
C1121	C112	0.555200	0.705800	0.268500
H761	H76	0.539700	0.663000	0.290800
C1131	C113	0.611800	0.702300	0.224800
C1141	C114	0.653100	0.630200	0.212300
C1151	C115	0.691600	0.518000	0.223300
C1161	C116	0.696300	0.443200	0.252700
C1171	C117	0.746200	0.388800	0.230500
H771	H77	0.774600	0.397000	0.194400
C1181	C118	0.652400	0.424500	0.305800
H781	H78	0.615700	0.458200	0.320700
N401	N40	0.717300	0.306000	0.315400
C1191	C119	0.752500	0.322500	0.263600
H791	H79	0.785100	0.285600	0.247500
C1201	C120	0.664000	0.357700	0.334400
H801	H80	0.634200	0.345900	0.369100
O111	O11	0.861600	0.931000	0.746300
N411	N41	0.862600	0.737400	0.691200
N421	N42	0.794100	0.877700	0.671800
N431	N43	0.768900	0.954100	0.678800
C1211	C121	0.897200	0.670200	0.700200
H811	H81	0.882400	0.628400	0.676400
C1221	C122	0.954100	0.661900	0.743800
H821	H82	0.976000	0.614200	0.749600
C1231	C123	0.979100	0.720900	0.778300
H831	H83	0.017500	0.714400	0.807800
C1241	C124	0.944800	0.794200	0.768500
H841	H84	0.960300	0.837000	0.790800
C1251	C125	0.888200	0.797700	0.724800
C1261	C126	0.846900	0.869800	0.712300
C1271	C127	0.808400	0.982000	0.723300
C1281	C128	0.803700	0.056800	0.752700
C1291	C129	0.753800	0.111200	0.730500
H851	H85	0.725400	0.103000	0.694400
C1301	C130	0.847600	0.075500	0.805800
H861	H86	0.884300	0.041800	0.820700
N441	N44	0.782700	0.194000	0.815400
C1311	C131	0.747500	0.177500	0.763600
H871	H87	0.714900	0.214400	0.747500
C1321	C132	0.836000	0.142300	0.834400
H881	H88	0.865800	0.154100	0.869100
O121	O12	0.361600	0.431000	0.246300
N451	N45	0.362600	0.237400	0.191200
N461	N46	0.294100	0.377700	0.171800
N471	N47	0.268900	0.454100	0.178800
C1331	C133	0.397200	0.170200	0.200200
H891	H89	0.382400	0.128400	0.176400
C1341	C134	0.454100	0.161900	0.243800
H901	H90	0.476000	0.114200	0.249600
C1351	C135	0.479100	0.220900	0.278300
H911	H91	0.517500	0.214400	0.307800
C1361	C136	0.444800	0.294200	0.268500
H921	H92	0.460300	0.337000	0.290800
C1371	C137	0.388200	0.297700	0.224800
C1381	C138	0.346900	0.369800	0.212300
C1391	C139	0.308400	0.482000	0.223300
C1401	C140	0.303700	0.556800	0.252700
C1411	C141	0.253800	0.611200	0.230500
H931	H93	0.225400	0.603000	0.194400
C1421	C142	0.347600	0.575500	0.305800
H941	H94	0.384300	0.541800	0.320700
N481	N48	0.282700	0.694000	0.315400
C1431	C143	0.247500	0.677500	0.263600
H951	H95	0.214900	0.714400	0.247500
C1441	C144	0.336000	0.642300	0.334400
H961	H96	0.365800	0.654100	0.369100
O131	O13	0.431000	0.638400	0.753700
N491	N49	0.237400	0.637400	0.808800
N501	N50	0.377700	0.705900	0.828200
N511	N51	0.454100	0.731100	0.821200
C1451	C145	0.170200	0.602800	0.799800
H971	H97	0.128400	0.617600	0.823600
C1461	C146	0.161900	0.545900	0.756200
H981	H98	0.114200	0.524000	0.750400
C1471	C147	0.220900	0.520900	0.721700
H991	H99	0.214400	0.482500	0.692200
C1481	C148	0.294200	0.555200	0.731500
H1001	H100	0.337000	0.539700	0.709200
C1491	C149	0.297700	0.611800	0.775200
C1501	C150	0.369800	0.653100	0.787700
C1511	C151	0.482000	0.691600	0.776700
C1521	C152	0.556800	0.696300	0.747300
C1531	C153	0.611200	0.746200	0.769500
H1011	H101	0.603000	0.774600	0.805600
C1541	C154	0.575500	0.652400	0.694200
H1021	H102	0.541800	0.615700	0.679300
N521	N52	0.694000	0.717300	0.684600
C1551	C155	0.677500	0.752500	0.736400
H1031	H103	0.714400	0.785100	0.752500
C1561	C156	0.642300	0.664000	0.665600
H1041	H104	0.654100	0.634200	0.630900
O141	O14	0.931000	0.138400	0.253700
N531	N53	0.737400	0.137400	0.308800
N541	N54	0.877700	0.205900	0.328200
N551	N55	0.954100	0.231100	0.321200
C1571	C157	0.670200	0.102800	0.299800
H1051	H105	0.628400	0.117600	0.323600
C1581	C158	0.661900	0.045900	0.256200
H1061	H106	0.614200	0.024000	0.250400
C1591	C159	0.720900	0.020900	0.221700
H1071	H107	0.714400	0.982500	0.192200
C1601	C160	0.794200	0.055200	0.231500
H1081	H108	0.837000	0.039700	0.209200
C1611	C161	0.797700	0.111800	0.275200
C1621	C162	0.869800	0.153100	0.287700
C1631	C163	0.982000	0.191600	0.276700
C1641	C164	0.056800	0.196300	0.247300
C1651	C165	0.111200	0.246200	0.269500
H1091	H109	0.103000	0.274600	0.305600
C1661	C166	0.075500	0.152400	0.194200
H1101	H110	0.041800	0.115700	0.179300
N561	N56	0.194000	0.217300	0.184600
C1671	C167	0.177500	0.252500	0.236400
H1111	H111	0.214400	0.285100	0.252500
C1681	C168	0.142300	0.164000	0.165600
H1121	H112	0.154100	0.134200	0.130900
O151	O15	0.569000	0.361600	0.753700
N571	N57	0.762600	0.362600	0.808800
N581	N58	0.622300	0.294100	0.828200
N591	N59	0.545900	0.268900	0.821200
C1691	C169	0.829800	0.397200	0.799800
H1131	H113	0.871600	0.382400	0.823600
C1701	C170	0.838100	0.454100	0.756200
H1141	H114	0.885800	0.476000	0.750400
C1711	C171	0.779100	0.479100	0.721700
H1151	H115	0.785600	0.517500	0.692200
C1721	C172	0.705800	0.444800	0.731500
H1161	H116	0.663000	0.460300	0.709200
C1731	C173	0.702300	0.388200	0.775200
C1741	C174	0.630200	0.346900	0.787700
C1751	C175	0.518000	0.308400	0.776700
C1761	C176	0.443200	0.303700	0.747300
C1771	C177	0.388800	0.253800	0.769500
H1171	H117	0.397000	0.225400	0.805600
C1781	C178	0.424500	0.347600	0.694200
H1181	H118	0.458200	0.384300	0.679300
N601	N60	0.306000	0.282700	0.684600
C1791	C179	0.322500	0.247500	0.736400
H1191	H119	0.285600	0.214900	0.752500
C1801	C180	0.357700	0.336000	0.665600
H1201	H120	0.345900	0.365800	0.630900
O161	O16	0.069000	0.861600	0.253700
N611	N61	0.262600	0.862600	0.308800
N621	N62	0.122300	0.794100	0.328200
N631	N63	0.045900	0.768900	0.321200
C1811	C181	0.329800	0.897200	0.299800
H1211	H121	0.371600	0.882400	0.323600
C1821	C182	0.338100	0.954100	0.256200
H1221	H122	0.385800	0.976000	0.250400
C1831	C183	0.279100	0.979100	0.221700
H1231	H123	0.285600	0.017500	0.192200
C1841	C184	0.205800	0.944800	0.231500
H1241	H124	0.163000	0.960300	0.209200
C1851	C185	0.202300	0.888200	0.275200
C1861	C186	0.130200	0.846900	0.287700
C1871	C187	0.018000	0.808400	0.276700
C1881	C188	0.943200	0.803700	0.247300
C1891	C189	0.888800	0.753800	0.269500
H1251	H125	0.897000	0.725400	0.305600
C1901	C190	0.924500	0.847600	0.194200
H1261	H126	0.958200	0.884300	0.179300
N641	N64	0.806000	0.782700	0.184600
C1911	C191	0.822500	0.747500	0.236400
H1271	H127	0.785600	0.714900	0.252500
C1921	C192	0.857700	0.836000	0.165600
H1281	H128	0.845900	0.865800	0.130900
Cu11	Cu1	0.279120	0.250000	0.125000
Cu21	Cu2	0.720880	0.750000	0.125000
Cu31	Cu3	0.220880	0.250000	0.625000
Cu41	Cu4	0.250000	0.720880	0.875000
Cu51	Cu5	0.750000	0.220880	0.375000
Cu61	Cu6	0.750000	0.279120	0.875000
Cu71	Cu7	0.250000	0.779120	0.375000
Cu81	Cu8	0.779120	0.750000	0.625000
