data_QAVYUJ_clean_PM
_symmetry_space_group_name_H-M	'P1'
_cell_length_a	7.291800
_cell_length_b	9.340000
_cell_length_c	14.129000
_cell_angle_alpha	83.816000
_cell_angle_beta	85.461000
_cell_angle_gamma	72.646000
_symmetry_Int_Tables_number 1

loop_
_symmetry_equiv_pos_as_xyz
'x,y,z'

loop_
_atom_site_label
_atom_site_type_symbol
_atom_site_fract_x
_atom_site_fract_y
_atom_site_fract_z
La11	La1	0.506170	0.285550	0.595960
La21	La2	0.493830	0.714450	0.404040
Ni11	Ni1	0.500000	0.500000	0.000000
H11	H1	0.837300	0.538000	0.003900
H21	H2	0.700200	0.685900	0.006600
H31	H3	0.193600	0.829200	0.902100
H41	H4	0.216500	0.877800	0.734700
H51	H5	0.989500	0.441000	0.858900
H61	H6	0.918500	0.736900	0.626000
H71	H7	0.624300	0.856500	0.871900
H81	H8	0.162700	0.462000	0.996100
H91	H9	0.299800	0.314100	0.993400
H101	H10	0.806400	0.170800	0.097900
H111	H11	0.783500	0.122200	0.265300
H121	H12	0.010500	0.559000	0.141100
H131	H13	0.081500	0.263100	0.374000
H141	H14	0.375700	0.143500	0.128100
C11	C1	0.264400	0.762000	0.859300
C21	C2	0.392700	0.670100	0.724600
C31	C3	0.450700	0.562500	0.799500
C41	C4	0.584600	0.405100	0.810700
C51	C5	0.444100	0.681200	0.621100
C61	C6	0.127400	0.457500	0.679800
C71	C7	0.795900	0.642000	0.881000
C81	C8	0.930200	0.535800	0.829400
C91	C9	0.976200	0.570900	0.733800
C101	C10	0.888600	0.713100	0.689900
C111	C11	0.711400	0.784300	0.837100
C121	C12	0.755700	0.819800	0.742000
C131	C13	0.659300	0.972700	0.693400
C141	C14	0.735600	0.238000	0.140700
C151	C15	0.607300	0.329900	0.275400
C161	C16	0.549300	0.437500	0.200500
C171	C17	0.415400	0.594900	0.189300
C181	C18	0.555900	0.318800	0.378900
C191	C19	0.872600	0.542500	0.320200
C201	C20	0.204100	0.358000	0.119000
C211	C21	0.069800	0.464200	0.170600
C221	C22	0.023800	0.429100	0.266200
C231	C23	0.111400	0.286900	0.310100
C241	C24	0.288600	0.215700	0.162900
C251	C25	0.244300	0.180200	0.258000
C261	C26	0.340700	0.027300	0.306600
N11	N1	0.734300	0.602000	0.975600
N21	N2	0.368100	0.623000	0.883600
N31	N3	0.274600	0.793600	0.765000
N41	N4	0.265700	0.398000	0.024400
N51	N5	0.631900	0.377000	0.116400
N61	N6	0.725400	0.206400	0.235000
O11	O1	0.626400	0.356500	0.896100
O21	O2	0.648500	0.334300	0.739900
O31	O3	0.404600	0.809600	0.578200
O41	O4	0.522500	0.563000	0.579200
O51	O5	0.161700	0.482500	0.592400
O61	O6	0.224600	0.340300	0.726000
O71	O7	0.721200	0.010400	0.611600
O81	O8	0.519900	0.060900	0.734900
O91	O9	0.373600	0.643500	0.103900
O101	O10	0.351500	0.665700	0.260100
O111	O11	0.595400	0.190400	0.421800
O121	O12	0.477500	0.437000	0.420800
O131	O13	0.838300	0.517500	0.407600
O141	O14	0.775400	0.659700	0.274000
O151	O15	0.278800	0.989600	0.388400
O161	O16	0.480100	0.939100	0.265100
