data_QAXQUB_clean_PM
_symmetry_space_group_name_H-M	'P1'
_cell_length_a	17.202300
_cell_length_b	17.202300
_cell_length_c	13.308600
_cell_angle_alpha	90.000000
_cell_angle_beta	90.000000
_cell_angle_gamma	90.000000
_symmetry_Int_Tables_number 1

loop_
_symmetry_equiv_pos_as_xyz
'x,y,z'

loop_
_atom_site_label
_atom_site_type_symbol
_atom_site_fract_x
_atom_site_fract_y
_atom_site_fract_z
P11	P1	0.674200	0.419600	0.951200
P21	P2	0.823200	0.408200	0.615100
P31	P3	0.604400	0.183300	0.876200
P41	P4	0.592000	0.334300	0.549400
F11	F1	0.730600	0.242200	0.646200
F21	F2	0.764400	0.276200	0.853100
O11	O1	0.698800	0.353300	0.019100
O21	O2	0.613200	0.467900	0.003800
O31	O3	0.541500	0.391400	0.493100
O41	O4	0.652300	0.199600	0.968800
O51	O5	0.622800	0.364200	0.649000
O61	O6	0.614100	0.241900	0.792200
O71	O7	0.538900	0.262800	0.578900
O81	O8	0.649900	0.393600	0.846300
O91	O9	0.780200	0.387000	0.709200
O101	O10	0.518500	0.179300	0.906800
O111	O11	0.655000	0.305200	0.478900
O121	O12	0.628200	0.102800	0.829900
O131	O13	0.747500	0.474000	0.930800
O141	O14	0.807200	0.354900	0.525600
O151	O15	0.910400	0.410200	0.639400
O161	O16	0.803100	0.491500	0.586600
Fe11	Fe1	0.693200	0.317900	0.749200
Fe21	Fe2	0.753100	0.254000	0.999300
P51	P5	0.325800	0.580400	0.951200
P61	P6	0.176800	0.591800	0.615100
P71	P7	0.395600	0.816700	0.876200
P81	P8	0.408000	0.665700	0.549400
F31	F3	0.269400	0.757800	0.646200
F41	F4	0.235600	0.723800	0.853100
O171	O17	0.301200	0.646700	0.019100
O181	O18	0.386800	0.532100	0.003800
O191	O19	0.458500	0.608600	0.493100
O201	O20	0.347700	0.800400	0.968800
O211	O21	0.377200	0.635800	0.649000
O221	O22	0.385900	0.758100	0.792200
O231	O23	0.461100	0.737200	0.578900
O241	O24	0.350100	0.606400	0.846300
O251	O25	0.219800	0.613000	0.709200
O261	O26	0.481500	0.820700	0.906800
O271	O27	0.345000	0.694800	0.478900
O281	O28	0.371800	0.897200	0.829900
O291	O29	0.252500	0.526000	0.930800
O301	O30	0.192800	0.645100	0.525600
O311	O31	0.089600	0.589800	0.639400
O321	O32	0.196900	0.508500	0.586600
Fe31	Fe3	0.306800	0.682100	0.749200
Fe41	Fe4	0.246900	0.746000	0.999300
P91	P9	0.419600	0.325800	0.048800
P101	P10	0.408200	0.176800	0.384900
P111	P11	0.183300	0.395600	0.123800
P121	P12	0.334300	0.408000	0.450600
F51	F5	0.242200	0.269400	0.353800
F61	F6	0.276200	0.235600	0.146900
O331	O33	0.353300	0.301200	0.980900
O341	O34	0.467900	0.386800	0.996200
O351	O35	0.391400	0.458500	0.506900
O361	O36	0.199600	0.347700	0.031200
O371	O37	0.364200	0.377200	0.351000
O381	O38	0.241900	0.385900	0.207800
O391	O39	0.262800	0.461100	0.421100
O401	O40	0.393600	0.350100	0.153700
O411	O41	0.387000	0.219800	0.290800
O421	O42	0.179300	0.481500	0.093200
O431	O43	0.305200	0.345000	0.521100
O441	O44	0.102800	0.371800	0.170100
O451	O45	0.474000	0.252500	0.069200
O461	O46	0.354900	0.192800	0.474400
O471	O47	0.410200	0.089600	0.360600
O481	O48	0.491500	0.196900	0.413400
Fe51	Fe5	0.317900	0.306800	0.250800
Fe61	Fe6	0.254000	0.246900	0.000700
P131	P13	0.580400	0.674200	0.048800
P141	P14	0.591800	0.823200	0.384900
P151	P15	0.816700	0.604400	0.123800
P161	P16	0.665700	0.592000	0.450600
F71	F7	0.757800	0.730600	0.353800
F81	F8	0.723800	0.764400	0.146900
O491	O49	0.646700	0.698800	0.980900
O501	O50	0.532100	0.613200	0.996200
O511	O51	0.608600	0.541500	0.506900
O521	O52	0.800400	0.652300	0.031200
O531	O53	0.635800	0.622800	0.351000
O541	O54	0.758100	0.614100	0.207800
O551	O55	0.737200	0.538900	0.421100
O561	O56	0.606400	0.649900	0.153700
O571	O57	0.613000	0.780200	0.290800
O581	O58	0.820700	0.518500	0.093200
O591	O59	0.694800	0.655000	0.521100
O601	O60	0.897200	0.628200	0.170100
O611	O61	0.526000	0.747500	0.069200
O621	O62	0.645100	0.807200	0.474400
O631	O63	0.589800	0.910400	0.360600
O641	O64	0.508500	0.803100	0.413400
Fe71	Fe7	0.682100	0.693200	0.250800
Fe81	Fe8	0.746000	0.753100	0.000700
P171	P17	0.825800	0.919600	0.548800
P181	P18	0.676800	0.908200	0.884900
P191	P19	0.895600	0.683300	0.623800
P201	P20	0.908000	0.834300	0.950600
F91	F9	0.769400	0.742200	0.853800
F101	F10	0.735600	0.776200	0.646900
O651	O65	0.801200	0.853300	0.480900
O661	O66	0.886800	0.967900	0.496200
O671	O67	0.958500	0.891400	0.006900
O681	O68	0.847700	0.699600	0.531200
O691	O69	0.877200	0.864200	0.851000
O701	O70	0.885900	0.741900	0.707800
O711	O71	0.961100	0.762800	0.921100
O721	O72	0.850100	0.893600	0.653700
O731	O73	0.719800	0.887000	0.790800
O741	O74	0.981500	0.679300	0.593200
O751	O75	0.845000	0.805200	0.021100
O761	O76	0.871800	0.602800	0.670100
O771	O77	0.752500	0.974000	0.569200
O781	O78	0.692800	0.854900	0.974400
O791	O79	0.589600	0.910200	0.860600
O801	O80	0.696900	0.991500	0.913400
Fe91	Fe9	0.806800	0.817900	0.750800
Fe101	Fe10	0.746900	0.754000	0.500700
P211	P21	0.174200	0.080400	0.548800
P221	P22	0.323200	0.091800	0.884900
P231	P23	0.104400	0.316700	0.623800
P241	P24	0.092000	0.165700	0.950600
F111	F11	0.230600	0.257800	0.853800
F121	F12	0.264400	0.223800	0.646900
O811	O81	0.198800	0.146700	0.480900
O821	O82	0.113200	0.032100	0.496200
O831	O83	0.041500	0.108600	0.006900
O841	O84	0.152300	0.300400	0.531200
O851	O85	0.122800	0.135800	0.851000
O861	O86	0.114100	0.258100	0.707800
O871	O87	0.038900	0.237200	0.921100
O881	O88	0.149900	0.106400	0.653700
O891	O89	0.280200	0.113000	0.790800
O901	O90	0.018500	0.320700	0.593200
O911	O91	0.155000	0.194800	0.021100
O921	O92	0.128200	0.397200	0.670100
O931	O93	0.247500	0.026000	0.569200
O941	O94	0.307200	0.145100	0.974400
O951	O95	0.410400	0.089800	0.860600
O961	O96	0.303100	0.008500	0.913400
Fe111	Fe11	0.193200	0.182100	0.750800
Fe121	Fe12	0.253100	0.246000	0.500700
P251	P25	0.080400	0.825800	0.451200
P261	P26	0.091800	0.676800	0.115100
P271	P27	0.316700	0.895600	0.376200
P281	P28	0.165700	0.908000	0.049400
F131	F13	0.257800	0.769400	0.146200
F141	F14	0.223800	0.735600	0.353100
O971	O97	0.146700	0.801200	0.519100
O981	O98	0.032100	0.886800	0.503800
O991	O99	0.108600	0.958500	0.993100
O1001	O100	0.300400	0.847700	0.468800
O1011	O101	0.135800	0.877200	0.149000
O1021	O102	0.258100	0.885900	0.292200
O1031	O103	0.237200	0.961100	0.078900
O1041	O104	0.106400	0.850100	0.346300
O1051	O105	0.113000	0.719800	0.209200
O1061	O106	0.320700	0.981500	0.406800
O1071	O107	0.194800	0.845000	0.978900
O1081	O108	0.397200	0.871800	0.329900
O1091	O109	0.026000	0.752500	0.430800
O1101	O110	0.145100	0.692800	0.025600
O1111	O111	0.089800	0.589600	0.139400
O1121	O112	0.008500	0.696900	0.086600
Fe131	Fe13	0.182100	0.806800	0.249200
Fe141	Fe14	0.246000	0.746900	0.499300
P291	P29	0.919600	0.174200	0.451200
P301	P30	0.908200	0.323200	0.115100
P311	P31	0.683300	0.104400	0.376200
P321	P32	0.834300	0.092000	0.049400
F151	F15	0.742200	0.230600	0.146200
F161	F16	0.776200	0.264400	0.353100
O1131	O113	0.853300	0.198800	0.519100
O1141	O114	0.967900	0.113200	0.503800
O1151	O115	0.891400	0.041500	0.993100
O1161	O116	0.699600	0.152300	0.468800
O1171	O117	0.864200	0.122800	0.149000
O1181	O118	0.741900	0.114100	0.292200
O1191	O119	0.762800	0.038900	0.078900
O1201	O120	0.893600	0.149900	0.346300
O1211	O121	0.887000	0.280200	0.209200
O1221	O122	0.679300	0.018500	0.406800
O1231	O123	0.805200	0.155000	0.978900
O1241	O124	0.602800	0.128200	0.329900
O1251	O125	0.974000	0.247500	0.430800
O1261	O126	0.854900	0.307200	0.025600
O1271	O127	0.910200	0.410400	0.139400
O1281	O128	0.991500	0.303100	0.086600
Fe151	Fe15	0.817900	0.193200	0.249200
Fe161	Fe16	0.754000	0.253100	0.499300
Fe171	Fe17	0.500000	0.500000	0.000000
Fe181	Fe18	0.000000	0.000000	0.500000
Fe191	Fe19	0.500000	0.500000	0.500000
Fe201	Fe20	0.000000	0.000000	0.000000
