data_QAYTOZ_charged_PM
_symmetry_space_group_name_H-M	'P1'
_cell_length_a	12.856000
_cell_length_b	13.097000
_cell_length_c	18.002000
_cell_angle_alpha	93.609000
_cell_angle_beta	99.887000
_cell_angle_gamma	91.441000
_symmetry_Int_Tables_number 1

loop_
_symmetry_equiv_pos_as_xyz
'x,y,z'

loop_
_atom_site_label
_atom_site_type_symbol
_atom_site_fract_x
_atom_site_fract_y
_atom_site_fract_z
Mn11	Mn1	0.741800	0.783800	0.748150
Mn21	Mn2	0.258200	0.216200	0.251850
H11	H1	0.027200	0.517900	0.745300
H21	H2	0.769000	0.748600	0.029200
H31	H3	0.647500	0.729600	0.459300
H41	H4	0.961200	0.107000	0.742700
H51	H5	0.499100	0.471300	0.754900
H61	H6	0.458200	0.043400	0.775100
H71	H7	0.083800	0.676400	0.784500
H81	H8	0.007300	0.766600	0.767300
H91	H9	0.010300	0.710500	0.842000
H101	H10	0.828600	0.480200	0.665600
H111	H11	0.920600	0.402900	0.671700
H121	H12	0.800400	0.446100	0.787300
H131	H13	0.894700	0.371300	0.795600
H141	H14	0.800300	0.263300	0.694300
H151	H15	0.705200	0.336900	0.689500
H161	H16	0.607500	0.818700	0.911300
H171	H17	0.670600	0.872800	0.986300
H181	H18	0.679900	0.915900	0.908300
H191	H19	0.935400	0.688200	0.047900
H201	H20	0.948700	0.716500	0.966400
H211	H21	0.832900	0.548300	0.999800
H221	H22	0.833200	0.578900	0.917100
H231	H23	0.024100	0.555500	0.941700
H241	H24	0.952900	0.455100	0.930100
H251	H25	0.822100	0.750700	0.505800
H261	H26	0.860600	0.782400	0.591800
H271	H27	0.828600	0.667800	0.565400
H281	H28	0.475900	0.701400	0.474700
H291	H29	0.502200	0.760000	0.554800
H301	H30	0.502100	0.860100	0.420900
H311	H31	0.402300	0.855400	0.459900
H321	H32	0.495800	0.949300	0.566700
H331	H33	0.596000	0.953700	0.527800
H341	H34	0.841200	0.079600	0.639500
H351	H35	0.852000	0.968300	0.605000
H361	H36	0.753200	0.995400	0.641800
H371	H37	0.034800	0.950300	0.826800
H381	H38	0.079200	0.063600	0.839700
H391	H39	0.949100	0.109300	0.905400
H401	H40	0.891400	0.001400	0.885400
H411	H41	0.093500	0.034000	0.978700
H421	H42	0.040800	0.924700	0.956100
H431	H43	0.579000	0.482100	0.656600
H441	H44	0.527100	0.582700	0.628200
H451	H45	0.650400	0.578000	0.647900
H461	H46	0.433700	0.567800	0.854600
H471	H47	0.546200	0.622200	0.874300
H481	H48	0.496300	0.418800	0.891400
H491	H49	0.613400	0.457500	0.895300
H501	H50	0.575600	0.579500	0.000200
H511	H51	0.603700	0.466700	0.019000
H521	H52	0.399200	0.898900	0.717000
H531	H53	0.476400	0.827900	0.681100
H541	H54	0.458800	0.814600	0.764000
H551	H55	0.572200	0.158100	0.843500
H561	H56	0.664000	0.082200	0.840500
H571	H57	0.671300	0.123700	0.717200
H581	H58	0.580400	0.200600	0.721000
H591	H59	0.688700	0.301700	0.814600
H601	H60	0.778900	0.223400	0.815000
H611	H61	0.972800	0.482100	0.254700
H621	H62	0.231000	0.251400	0.970800
H631	H63	0.352500	0.270400	0.540700
H641	H64	0.038800	0.893000	0.257300
H651	H65	0.500900	0.528700	0.245100
H661	H66	0.541800	0.956600	0.224900
H671	H67	0.916200	0.323600	0.215500
H681	H68	0.992700	0.233400	0.232700
H691	H69	0.989700	0.289500	0.158000
H701	H70	0.171400	0.519800	0.334400
H711	H71	0.079400	0.597100	0.328300
H721	H72	0.199600	0.553900	0.212700
H731	H73	0.105300	0.628700	0.204400
H741	H74	0.199700	0.736700	0.305700
H751	H75	0.294800	0.663100	0.310500
H761	H76	0.392500	0.181300	0.088700
H771	H77	0.329400	0.127200	0.013700
H781	H78	0.320100	0.084100	0.091700
H791	H79	0.064600	0.311800	0.952100
H801	H80	0.051300	0.283500	0.033600
H811	H81	0.167100	0.451700	0.000200
H821	H82	0.166800	0.421100	0.082900
H831	H83	0.975900	0.444500	0.058300
H841	H84	0.047100	0.544900	0.069900
H851	H85	0.177900	0.249300	0.494200
H861	H86	0.139400	0.217600	0.408200
H871	H87	0.171400	0.332200	0.434600
H881	H88	0.524100	0.298600	0.525300
H891	H89	0.497800	0.240000	0.445200
H901	H90	0.497900	0.139900	0.579100
H911	H91	0.597700	0.144600	0.540100
H921	H92	0.504200	0.050700	0.433300
H931	H93	0.404000	0.046300	0.472200
H941	H94	0.158800	0.920400	0.360500
H951	H95	0.148000	0.031700	0.395000
H961	H96	0.246800	0.004600	0.358200
H971	H97	0.965200	0.049700	0.173200
H981	H98	0.920800	0.936400	0.160300
H991	H99	0.050900	0.890700	0.094600
H1001	H100	0.108600	0.998600	0.114600
H1011	H101	0.906500	0.966000	0.021300
H1021	H102	0.959200	0.075300	0.043900
H1031	H103	0.421000	0.517900	0.343400
H1041	H104	0.472900	0.417300	0.371800
H1051	H105	0.349600	0.422000	0.352100
H1061	H106	0.566300	0.432200	0.145400
H1071	H107	0.453800	0.377800	0.125700
H1081	H108	0.503700	0.581200	0.108600
H1091	H109	0.386600	0.542500	0.104700
H1101	H110	0.424400	0.420500	0.999800
H1111	H111	0.396300	0.533300	0.981000
H1121	H112	0.600800	0.101100	0.283000
H1131	H113	0.523600	0.172100	0.318900
H1141	H114	0.541200	0.185400	0.236000
H1151	H115	0.427800	0.841900	0.156500
H1161	H116	0.336000	0.917800	0.159500
H1171	H117	0.328700	0.876300	0.282800
H1181	H118	0.419600	0.799400	0.279000
H1191	H119	0.311300	0.698300	0.185400
H1201	H120	0.221100	0.776600	0.185000
C11	C1	0.931200	0.627200	0.749700
C21	C2	0.760400	0.790200	0.928000
C31	C3	0.702100	0.757000	0.565400
C41	C4	0.884000	0.980000	0.718300
C51	C5	0.581700	0.592000	0.740000
C61	C6	0.554100	0.938900	0.756300
C71	C7	0.015700	0.701900	0.789400
C81	C8	0.885000	0.452000	0.700300
C91	C9	0.838200	0.397700	0.759900
C101	C10	0.763300	0.310100	0.723600
C111	C11	0.672200	0.854900	0.934000
C121	C12	0.900700	0.685800	0.995500
C131	C13	0.875300	0.579900	0.967300
C141	C14	0.973800	0.515800	0.963700
C151	C15	0.813300	0.737800	0.556300
C161	C16	0.515800	0.759100	0.503400
C171	C17	0.478900	0.856800	0.469200
C181	C18	0.519400	0.951700	0.518400
C191	C19	0.827700	0.008300	0.644800
C201	C20	0.014800	0.021100	0.830600
C211	C21	0.960000	0.036900	0.896200
C221	C22	0.026300	0.995900	0.967000
C231	C23	0.584900	0.555500	0.661300
C241	C24	0.508400	0.558400	0.855200
C251	C25	0.544500	0.477800	0.904600
C261	C26	0.552500	0.508200	0.989700
C271	C27	0.463900	0.863200	0.727000
C281	C28	0.603700	0.111600	0.810300
C291	C29	0.640700	0.170400	0.750700
C301	C30	0.720600	0.253200	0.783100
C311	C31	0.068800	0.372800	0.250300
C321	C32	0.239600	0.209800	0.072000
C331	C33	0.297900	0.243000	0.434600
C341	C34	0.116000	0.020000	0.281700
C351	C35	0.418300	0.408000	0.260000
C361	C36	0.445900	0.061100	0.243700
C371	C37	0.984300	0.298100	0.210600
C381	C38	0.115000	0.548000	0.299700
C391	C39	0.161800	0.602300	0.240100
C401	C40	0.236700	0.689900	0.276400
C411	C41	0.327800	0.145100	0.066000
C421	C42	0.099300	0.314200	0.004500
C431	C43	0.124700	0.420100	0.032700
C441	C44	0.026200	0.484200	0.036300
C451	C45	0.186700	0.262200	0.443700
C461	C46	0.484200	0.240900	0.496600
C471	C47	0.521100	0.143200	0.530800
C481	C48	0.480600	0.048300	0.481600
C491	C49	0.172300	0.991700	0.355200
C501	C50	0.985200	0.978900	0.169400
C511	C51	0.040000	0.963100	0.103800
C521	C52	0.973700	0.004100	0.033000
C531	C53	0.415100	0.444500	0.338700
C541	C54	0.491600	0.441600	0.144800
C551	C55	0.455500	0.522200	0.095400
C561	C56	0.447500	0.491800	0.010300
C571	C57	0.536100	0.136800	0.273000
C581	C58	0.396300	0.888400	0.189700
C591	C59	0.359300	0.829600	0.249300
C601	C60	0.279400	0.746800	0.216900
N11	N1	0.958500	0.532500	0.734100
N21	N2	0.802300	0.744200	0.989100
N31	N3	0.627100	0.746200	0.503800
N41	N4	0.952400	0.044500	0.759500
N51	N5	0.526400	0.531400	0.778000
N61	N6	0.527300	0.030600	0.779100
N71	N7	0.041500	0.467500	0.265900
N81	N8	0.197700	0.255800	0.010900
N91	N9	0.372900	0.253800	0.496200
N101	N10	0.047600	0.955500	0.240500
N111	N11	0.473600	0.468600	0.222000
N121	N12	0.472700	0.969400	0.220900
O11	O1	0.838400	0.653300	0.728400
O21	O2	0.798800	0.782800	0.868800
O31	O3	0.678500	0.779400	0.627700
O41	O4	0.867500	0.892700	0.740300
O51	O5	0.621300	0.674600	0.769800
O61	O6	0.646600	0.916700	0.760100
O71	O7	0.161600	0.346700	0.271600
O81	O8	0.201200	0.217200	0.131200
O91	O9	0.321500	0.220600	0.372300
O101	O10	0.132500	0.107300	0.259700
O111	O11	0.378700	0.325400	0.230200
O121	O12	0.353400	0.083300	0.239900
Hg11	Hg1	0.767670	0.712600	0.243040
Br11	Br1	0.613800	0.676210	0.319280
Br21	Br2	0.935880	0.770830	0.339770
Br31	Br3	0.692900	0.848700	0.151350
Br41	Br4	0.800100	0.543600	0.170020
Hg21	Hg2	0.232330	0.287400	0.756960
Br51	Br5	0.386200	0.323790	0.680720
Br61	Br6	0.064120	0.229170	0.660230
Br71	Br7	0.307100	0.151300	0.848650
Br81	Br8	0.199900	0.456400	0.829980
