data_QAYTEP_clean_PM
_symmetry_space_group_name_H-M	'P1'
_cell_length_a	13.992100
_cell_length_b	13.992100
_cell_length_c	25.705000
_cell_angle_alpha	90.000000
_cell_angle_beta	90.000000
_cell_angle_gamma	120.000000
_symmetry_Int_Tables_number 1

loop_
_symmetry_equiv_pos_as_xyz
'x,y,z'

loop_
_atom_site_label
_atom_site_type_symbol
_atom_site_fract_x
_atom_site_fract_y
_atom_site_fract_z
O11	O1	0.150000	0.120100	0.449720
C11	C1	0.249300	0.181600	0.437000
C21	C2	0.325500	0.273300	0.471900
H11	H1	0.383500	0.330400	0.451600
H21	H2	0.356800	0.245800	0.497000
H31	H3	0.285400	0.302500	0.489600
N11	N1	0.288000	0.168300	0.393400
H41	H4	0.359500	0.210000	0.384500
C31	C3	0.222800	0.079600	0.356300
H51	H5	0.249800	0.105000	0.321400
H61	H6	0.146400	0.061900	0.357800
C41	C4	0.229100	0.976300	0.367700
H71	H7	0.305900	0.995000	0.368300
H81	H8	0.198100	0.948500	0.401800
C51	C5	0.168000	0.887300	0.327900
H91	H9	0.202000	0.914500	0.294200
H101	H10	0.092700	0.872800	0.325800
O21	O2	0.816670	0.453430	0.783050
C61	C6	0.915970	0.514930	0.770330
C71	C7	0.992170	0.606630	0.805230
H111	H11	0.050170	0.663730	0.784930
H121	H12	0.023470	0.579130	0.830330
H131	H13	0.952070	0.635830	0.822930
N21	N2	0.954670	0.501630	0.726730
H141	H14	0.026170	0.543330	0.717830
C81	C8	0.889470	0.412930	0.689630
H151	H15	0.916470	0.438330	0.654730
H161	H16	0.813070	0.395230	0.691130
C91	C9	0.895770	0.309630	0.701030
H171	H17	0.972570	0.328330	0.701630
H181	H18	0.864770	0.281830	0.735130
C101	C10	0.834670	0.220630	0.661230
H191	H19	0.868670	0.247830	0.627530
H201	H20	0.759370	0.206130	0.659130
O31	O3	0.483330	0.786770	0.116390
C111	C11	0.582630	0.848270	0.103670
C121	C12	0.658830	0.939970	0.138570
H211	H21	0.716830	0.997070	0.118270
H221	H22	0.690130	0.912470	0.163670
H231	H23	0.618730	0.969170	0.156270
N31	N3	0.621330	0.834970	0.060070
H241	H24	0.692830	0.876670	0.051170
C131	C13	0.556130	0.746270	0.022970
H251	H25	0.583130	0.771670	0.988070
H261	H26	0.479730	0.728570	0.024470
C141	C14	0.562430	0.642970	0.034370
H271	H27	0.639230	0.661670	0.034970
H281	H28	0.531430	0.615170	0.068470
C151	C15	0.501330	0.553970	0.994570
H291	H29	0.535330	0.581170	0.960870
H301	H30	0.426030	0.539470	0.992470
O41	O4	0.879900	0.029900	0.449720
C161	C16	0.818400	0.067700	0.437000
C171	C17	0.726700	0.052200	0.471900
H311	H31	0.669600	0.053100	0.451600
H321	H32	0.754200	0.111000	0.497000
H331	H33	0.697500	0.982900	0.489600
N41	N4	0.831700	0.119700	0.393400
H341	H34	0.790000	0.149500	0.384500
C181	C18	0.920400	0.143200	0.356300
H351	H35	0.895000	0.144800	0.321400
H361	H36	0.938100	0.084500	0.357800
C191	C19	0.023700	0.252800	0.367700
H371	H37	0.005000	0.310900	0.368300
H381	H38	0.051500	0.249600	0.401800
C201	C20	0.112700	0.280700	0.327900
H391	H39	0.085500	0.287500	0.294200
H401	H40	0.127200	0.219900	0.325800
O51	O5	0.546570	0.363230	0.783050
C211	C21	0.485070	0.401030	0.770330
C221	C22	0.393370	0.385530	0.805230
H411	H41	0.336270	0.386430	0.784930
H421	H42	0.420870	0.444330	0.830330
H431	H43	0.364170	0.316230	0.822930
N51	N5	0.498370	0.453030	0.726730
H441	H44	0.456670	0.482830	0.717830
C231	C23	0.587070	0.476530	0.689630
H451	H45	0.561670	0.478130	0.654730
H461	H46	0.604770	0.417830	0.691130
C241	C24	0.690370	0.586130	0.701030
H471	H47	0.671670	0.644230	0.701630
H481	H48	0.718170	0.582930	0.735130
C251	C25	0.779370	0.614030	0.661230
H491	H49	0.752170	0.620830	0.627530
H501	H50	0.793870	0.553230	0.659130
O61	O6	0.213230	0.696570	0.116390
C261	C26	0.151730	0.734370	0.103670
C271	C27	0.060030	0.718870	0.138570
H511	H51	0.002930	0.719770	0.118270
H521	H52	0.087530	0.777670	0.163670
H531	H53	0.030830	0.649570	0.156270
N61	N6	0.165030	0.786370	0.060070
H541	H54	0.123330	0.816170	0.051170
C281	C28	0.253730	0.809870	0.022970
H551	H55	0.228330	0.811470	0.988070
H561	H56	0.271430	0.751170	0.024470
C291	C29	0.357030	0.919470	0.034370
H571	H57	0.338330	0.977570	0.034970
H581	H58	0.384830	0.916270	0.068470
C301	C30	0.446030	0.947370	0.994570
H591	H59	0.418830	0.954170	0.960870
H601	H60	0.460530	0.886570	0.992470
O71	O7	0.970100	0.850000	0.449720
C311	C31	0.932300	0.750700	0.437000
C321	C32	0.947800	0.674500	0.471900
H611	H61	0.946900	0.616500	0.451600
H621	H62	0.889000	0.643200	0.497000
H631	H63	0.017100	0.714600	0.489600
N71	N7	0.880300	0.712000	0.393400
H641	H64	0.850500	0.640500	0.384500
C331	C33	0.856800	0.777200	0.356300
H651	H65	0.855200	0.750200	0.321400
H661	H66	0.915500	0.853600	0.357800
C341	C34	0.747200	0.770900	0.367700
H671	H67	0.689100	0.694100	0.368300
H681	H68	0.750400	0.801900	0.401800
C351	C35	0.719300	0.832000	0.327900
H691	H69	0.712500	0.798000	0.294200
H701	H70	0.780100	0.907300	0.325800
O81	O8	0.636770	0.183330	0.783050
C361	C36	0.598970	0.084030	0.770330
C371	C37	0.614470	0.007830	0.805230
H711	H71	0.613570	0.949830	0.784930
H721	H72	0.555670	0.976530	0.830330
H731	H73	0.683770	0.047930	0.822930
N81	N8	0.546970	0.045330	0.726730
H741	H74	0.517170	0.973830	0.717830
C381	C38	0.523470	0.110530	0.689630
H751	H75	0.521870	0.083530	0.654730
H761	H76	0.582170	0.186930	0.691130
C391	C39	0.413870	0.104230	0.701030
H771	H77	0.355770	0.027430	0.701630
H781	H78	0.417070	0.135230	0.735130
C401	C40	0.385970	0.165330	0.661230
H791	H79	0.379170	0.131330	0.627530
H801	H80	0.446770	0.240630	0.659130
O91	O9	0.303430	0.516670	0.116390
C411	C41	0.265630	0.417370	0.103670
C421	C42	0.281130	0.341170	0.138570
H811	H81	0.280230	0.283170	0.118270
H821	H82	0.222330	0.309870	0.163670
H831	H83	0.350430	0.381270	0.156270
N91	N9	0.213630	0.378670	0.060070
H841	H84	0.183830	0.307170	0.051170
C431	C43	0.190130	0.443870	0.022970
H851	H85	0.188530	0.416870	0.988070
H861	H86	0.248830	0.520270	0.024470
C441	C44	0.080530	0.437570	0.034370
H871	H87	0.022430	0.360770	0.034970
H881	H88	0.083730	0.468570	0.068470
C451	C45	0.052630	0.498670	0.994570
H891	H89	0.045830	0.464670	0.960870
H901	H90	0.113430	0.573970	0.992470
O101	O10	0.850000	0.879900	0.550280
C461	C46	0.750700	0.818400	0.563000
C471	C47	0.674500	0.726700	0.528100
H911	H91	0.616500	0.669600	0.548400
H921	H92	0.643200	0.754200	0.503000
H931	H93	0.714600	0.697500	0.510400
N101	N10	0.712000	0.831700	0.606600
H941	H94	0.640500	0.790000	0.615500
C481	C48	0.777200	0.920400	0.643700
H951	H95	0.750200	0.895000	0.678600
H961	H96	0.853600	0.938100	0.642200
C491	C49	0.770900	0.023700	0.632300
H971	H97	0.694100	0.005000	0.631700
H981	H98	0.801900	0.051500	0.598200
C501	C50	0.832000	0.112700	0.672100
H991	H99	0.798000	0.085500	0.705800
H1001	H100	0.907300	0.127200	0.674200
O111	O11	0.516670	0.213230	0.883610
C511	C51	0.417370	0.151730	0.896330
C521	C52	0.341170	0.060030	0.861430
H1011	H101	0.283170	0.002930	0.881730
H1021	H102	0.309870	0.087530	0.836330
H1031	H103	0.381270	0.030830	0.843730
N111	N11	0.378670	0.165030	0.939930
H1041	H104	0.307170	0.123330	0.948830
C531	C53	0.443870	0.253730	0.977030
H1051	H105	0.416870	0.228330	0.011930
H1061	H106	0.520270	0.271430	0.975530
C541	C54	0.437570	0.357030	0.965630
H1071	H107	0.360770	0.338330	0.965030
H1081	H108	0.468570	0.384830	0.931530
C551	C55	0.498670	0.446030	0.005430
H1091	H109	0.464670	0.418830	0.039130
H1101	H110	0.573970	0.460530	0.007530
O121	O12	0.183330	0.546570	0.216950
C561	C56	0.084030	0.485070	0.229670
C571	C57	0.007830	0.393370	0.194770
H1111	H111	0.949830	0.336270	0.215070
H1121	H112	0.976530	0.420870	0.169670
H1131	H113	0.047930	0.364170	0.177070
N121	N12	0.045330	0.498370	0.273270
H1141	H114	0.973830	0.456670	0.282170
C581	C58	0.110530	0.587070	0.310370
H1151	H115	0.083530	0.561670	0.345270
H1161	H116	0.186930	0.604770	0.308870
C591	C59	0.104230	0.690370	0.298970
H1171	H117	0.027430	0.671670	0.298370
H1181	H118	0.135230	0.718170	0.264870
C601	C60	0.165330	0.779370	0.338770
H1191	H119	0.131330	0.752170	0.372470
H1201	H120	0.240630	0.793870	0.340870
O131	O13	0.120100	0.970100	0.550280
C611	C61	0.181600	0.932300	0.563000
C621	C62	0.273300	0.947800	0.528100
H1211	H121	0.330400	0.946900	0.548400
H1221	H122	0.245800	0.889000	0.503000
H1231	H123	0.302500	0.017100	0.510400
N131	N13	0.168300	0.880300	0.606600
H1241	H124	0.210000	0.850500	0.615500
C631	C63	0.079600	0.856800	0.643700
H1251	H125	0.105000	0.855200	0.678600
H1261	H126	0.061900	0.915500	0.642200
C641	C64	0.976300	0.747200	0.632300
H1271	H127	0.995000	0.689100	0.631700
H1281	H128	0.948500	0.750400	0.598200
C651	C65	0.887300	0.719300	0.672100
H1291	H129	0.914500	0.712500	0.705800
H1301	H130	0.872800	0.780100	0.674200
O141	O14	0.786770	0.303430	0.883610
C661	C66	0.848270	0.265630	0.896330
C671	C67	0.939970	0.281130	0.861430
H1311	H131	0.997070	0.280230	0.881730
H1321	H132	0.912470	0.222330	0.836330
H1331	H133	0.969170	0.350430	0.843730
N141	N14	0.834970	0.213630	0.939930
H1341	H134	0.876670	0.183830	0.948830
C681	C68	0.746270	0.190130	0.977030
H1351	H135	0.771670	0.188530	0.011930
H1361	H136	0.728570	0.248830	0.975530
C691	C69	0.642970	0.080530	0.965630
H1371	H137	0.661670	0.022430	0.965030
H1381	H138	0.615170	0.083730	0.931530
C701	C70	0.553970	0.052630	0.005430
H1391	H139	0.581170	0.045830	0.039130
H1401	H140	0.539470	0.113430	0.007530
O151	O15	0.453430	0.636770	0.216950
C711	C71	0.514930	0.598970	0.229670
C721	C72	0.606630	0.614470	0.194770
H1411	H141	0.663730	0.613570	0.215070
H1421	H142	0.579130	0.555670	0.169670
H1431	H143	0.635830	0.683770	0.177070
N151	N15	0.501630	0.546970	0.273270
H1441	H144	0.543330	0.517170	0.282170
C731	C73	0.412930	0.523470	0.310370
H1451	H145	0.438330	0.521870	0.345270
H1461	H146	0.395230	0.582170	0.308870
C741	C74	0.309630	0.413870	0.298970
H1471	H147	0.328330	0.355770	0.298370
H1481	H148	0.281830	0.417070	0.264870
C751	C75	0.220630	0.385970	0.338770
H1491	H149	0.247830	0.379170	0.372470
H1501	H150	0.206130	0.446770	0.340870
O161	O16	0.029900	0.150000	0.550280
C761	C76	0.067700	0.249300	0.563000
C771	C77	0.052200	0.325500	0.528100
H1511	H151	0.053100	0.383500	0.548400
H1521	H152	0.111000	0.356800	0.503000
H1531	H153	0.982900	0.285400	0.510400
N161	N16	0.119700	0.288000	0.606600
H1541	H154	0.149500	0.359500	0.615500
C781	C78	0.143200	0.222800	0.643700
H1551	H155	0.144800	0.249800	0.678600
H1561	H156	0.084500	0.146400	0.642200
C791	C79	0.252800	0.229100	0.632300
H1571	H157	0.310900	0.305900	0.631700
H1581	H158	0.249600	0.198100	0.598200
C801	C80	0.280700	0.168000	0.672100
H1591	H159	0.287500	0.202000	0.705800
H1601	H160	0.219900	0.092700	0.674200
O171	O17	0.696570	0.483330	0.883610
C811	C81	0.734370	0.582630	0.896330
C821	C82	0.718870	0.658830	0.861430
H1611	H161	0.719770	0.716830	0.881730
H1621	H162	0.777670	0.690130	0.836330
H1631	H163	0.649570	0.618730	0.843730
N171	N17	0.786370	0.621330	0.939930
H1641	H164	0.816170	0.692830	0.948830
C831	C83	0.809870	0.556130	0.977030
H1651	H165	0.811470	0.583130	0.011930
H1661	H166	0.751170	0.479730	0.975530
C841	C84	0.919470	0.562430	0.965630
H1671	H167	0.977570	0.639230	0.965030
H1681	H168	0.916270	0.531430	0.931530
C851	C85	0.947370	0.501330	0.005430
H1691	H169	0.954170	0.535330	0.039130
H1701	H170	0.886570	0.426030	0.007530
O181	O18	0.363230	0.816670	0.216950
C861	C86	0.401030	0.915970	0.229670
C871	C87	0.385530	0.992170	0.194770
H1711	H171	0.386430	0.050170	0.215070
H1721	H172	0.444330	0.023470	0.169670
H1731	H173	0.316230	0.952070	0.177070
N181	N18	0.453030	0.954670	0.273270
H1741	H174	0.482830	0.026170	0.282170
C881	C88	0.476530	0.889470	0.310370
H1751	H175	0.478130	0.916470	0.345270
H1761	H176	0.417830	0.813070	0.308870
C891	C89	0.586130	0.895770	0.298970
H1771	H177	0.644230	0.972570	0.298370
H1781	H178	0.582930	0.864770	0.264870
C901	C90	0.614030	0.834670	0.338770
H1791	H179	0.620830	0.868670	0.372470
H1801	H180	0.553230	0.759370	0.340870
Nd11	Nd1	0.000000	0.000000	0.500000
Nd21	Nd2	0.666670	0.333330	0.833330
Nd31	Nd3	0.333330	0.666670	0.166670
