data_QEJYIP_clean_PM
_symmetry_space_group_name_H-M	'P1'
_cell_length_a	10.773100
_cell_length_b	12.419900
_cell_length_c	13.532600
_cell_angle_alpha	99.098900
_cell_angle_beta	90.000000
_cell_angle_gamma	115.703000
_symmetry_Int_Tables_number 1

loop_
_symmetry_equiv_pos_as_xyz
'x,y,z'

loop_
_atom_site_label
_atom_site_type_symbol
_atom_site_fract_x
_atom_site_fract_y
_atom_site_fract_z
Cd11	Cd1	0.935170	0.406100	0.858650
Cd21	Cd2	0.529070	0.593900	0.641350
Cd31	Cd3	0.064830	0.593900	0.141350
Cd41	Cd4	0.470930	0.406100	0.358650
H11	H1	0.804800	0.113400	0.837300
H21	H2	0.633500	0.954200	0.893700
H31	H3	0.686900	0.336800	0.987000
H41	H4	0.520000	0.185200	0.052800
H51	H5	0.295900	0.572600	0.832100
H61	H6	0.691400	0.886600	0.662700
H71	H7	0.679300	0.045800	0.606300
H81	H8	0.350100	0.663200	0.513000
H91	H9	0.334800	0.814800	0.447200
H101	H10	0.723300	0.427400	0.667900
H111	H11	0.195200	0.886600	0.162700
H121	H12	0.366500	0.045800	0.106300
H131	H13	0.313100	0.663200	0.013000
H141	H14	0.480000	0.814800	0.947200
H151	H15	0.704100	0.427400	0.167900
H161	H16	0.308600	0.113400	0.337300
H171	H17	0.320700	0.954200	0.393700
H181	H18	0.649900	0.336800	0.487000
H191	H19	0.665200	0.185200	0.552800
H201	H20	0.276700	0.572600	0.332100
C11	C1	0.746600	0.129200	0.881900
C21	C2	0.642900	0.032400	0.915500
C31	C3	0.679100	0.258600	0.969400
C41	C4	0.576000	0.167000	0.007500
C51	C5	0.555400	0.050200	0.979600
C61	C6	0.249800	0.519000	0.773600
C71	C7	0.211300	0.420600	0.624700
C81	C8	0.244600	0.383400	0.523000
C91	C9	0.088700	0.381800	0.669900
C101	C10	0.948900	0.290400	0.635300
C111	C11	0.617400	0.870800	0.618100
C121	C12	0.610500	0.967600	0.584500
C131	C13	0.420500	0.741400	0.530600
C141	C14	0.409000	0.833000	0.492500
C151	C15	0.505200	0.949800	0.520400
C161	C16	0.730800	0.481000	0.726400
C171	C17	0.790700	0.579400	0.875300
C181	C18	0.861200	0.616600	0.977000
C191	C19	0.706900	0.618200	0.830100
C201	C20	0.658500	0.709600	0.864700
C211	C21	0.253400	0.870800	0.118100
C221	C22	0.357100	0.967600	0.084500
C231	C23	0.320900	0.741400	0.030600
C241	C24	0.424000	0.833000	0.992500
C251	C25	0.444600	0.949800	0.020400
C261	C26	0.750200	0.481000	0.226400
C271	C27	0.788700	0.579400	0.375300
C281	C28	0.755400	0.616600	0.477000
C291	C29	0.911300	0.618200	0.330100
C301	C30	0.051100	0.709600	0.364700
C311	C31	0.382600	0.129200	0.381900
C321	C32	0.389500	0.032400	0.415500
C331	C33	0.579500	0.258600	0.469400
C341	C34	0.591000	0.167000	0.507500
C351	C35	0.494800	0.050200	0.479600
C361	C36	0.269200	0.519000	0.273600
C371	C37	0.209300	0.420600	0.124700
C381	C38	0.138800	0.383400	0.023000
C391	C39	0.293100	0.381800	0.169900
C401	C40	0.341500	0.290400	0.135300
N11	N1	0.767300	0.241600	0.909500
N21	N2	0.114500	0.446600	0.765200
N31	N3	0.312700	0.507200	0.690900
N41	N4	0.525700	0.758400	0.590500
N51	N5	0.667900	0.553400	0.734800
N61	N6	0.805500	0.492800	0.809100
N71	N7	0.232700	0.758400	0.090500
N81	N8	0.885500	0.553400	0.234800
N91	N9	0.687300	0.492800	0.309100
N101	N10	0.474300	0.241600	0.409500
N111	N11	0.332100	0.446600	0.265200
N121	N12	0.194500	0.507200	0.190900
O11	O1	0.854700	0.271400	0.691800
O21	O2	0.930600	0.229400	0.546600
O31	O3	0.152900	0.298000	0.465500
O41	O4	0.367900	0.439400	0.503300
O51	O5	0.583300	0.728600	0.808200
O61	O6	0.701200	0.770600	0.953400
O71	O7	0.854900	0.702000	0.034500
O81	O8	0.928500	0.560600	0.996700
O91	O9	0.145300	0.728600	0.308200
O101	O10	0.069400	0.770600	0.453400
O111	O11	0.847100	0.702000	0.534500
O121	O12	0.632100	0.560600	0.496700
O131	O13	0.416700	0.271400	0.191800
O141	O14	0.298800	0.229400	0.046600
O151	O15	0.145100	0.298000	0.965500
O161	O16	0.071500	0.439400	0.003300
