data_QERWAL_clean_PM
_symmetry_space_group_name_H-M	'P1'
_cell_length_a	13.169800
_cell_length_b	16.696900
_cell_length_c	19.196500
_cell_angle_alpha	90.000000
_cell_angle_beta	90.000000
_cell_angle_gamma	108.967000
_symmetry_Int_Tables_number 1

loop_
_symmetry_equiv_pos_as_xyz
'x,y,z'

loop_
_atom_site_label
_atom_site_type_symbol
_atom_site_fract_x
_atom_site_fract_y
_atom_site_fract_z
Ni11	Ni1	0.462470	0.527870	0.773830
Ni21	Ni2	0.037530	0.972130	0.273830
Ni31	Ni3	0.537530	0.472130	0.226170
Ni41	Ni4	0.962470	0.027870	0.726170
Ni51	Ni5	0.000000	0.500000	0.000000
Ni61	Ni6	0.500000	0.000000	0.500000
H11	H1	0.794100	0.587100	0.885100
H21	H2	0.754600	0.764800	0.753700
H31	H3	0.032000	0.812100	0.861900
H41	H4	0.111500	0.375100	0.946600
H51	H5	0.117400	0.295600	0.850800
H61	H6	0.943100	0.416500	0.745700
H71	H7	0.942500	0.492600	0.845300
H81	H8	0.459400	0.638500	0.647700
H91	H9	0.346500	0.646800	0.559800
H101	H10	0.116300	0.448600	0.647100
H111	H11	0.235900	0.446900	0.733500
H121	H12	0.321600	0.637900	0.799100
H131	H13	0.202600	0.652900	0.881800
H141	H14	0.310900	0.507500	0.011800
H151	H15	0.424900	0.494900	0.924300
H161	H16	0.051000	0.253000	0.731000
H171	H17	0.998000	0.310000	0.694000
H181	H18	0.178000	0.581000	0.508000
H191	H19	0.085000	0.510000	0.544000
H201	H20	0.157000	0.638000	0.004000
H211	H21	0.198000	0.585000	0.049000
H221	H22	0.705900	0.912900	0.385100
H231	H23	0.745400	0.735200	0.253700
H241	H24	0.468000	0.687900	0.361900
H251	H25	0.388500	0.124900	0.446600
H261	H26	0.382600	0.204400	0.350800
H271	H27	0.556900	0.083500	0.245700
H281	H28	0.557500	0.007400	0.345300
H291	H29	0.040600	0.861500	0.147700
H301	H30	0.153500	0.853200	0.059800
H311	H31	0.383700	0.051400	0.147100
H321	H32	0.264100	0.053100	0.233500
H331	H33	0.178400	0.862100	0.299100
H341	H34	0.297400	0.847100	0.381800
H351	H35	0.189100	0.992500	0.511800
H361	H36	0.075100	0.005100	0.424300
H371	H37	0.449000	0.247000	0.231000
H381	H38	0.502000	0.190000	0.194000
H391	H39	0.322000	0.919000	0.008000
H401	H40	0.415000	0.990000	0.044000
H411	H41	0.343000	0.862000	0.504000
H421	H42	0.302000	0.915000	0.549000
H431	H43	0.205900	0.412900	0.114900
H441	H44	0.245400	0.235200	0.246300
H451	H45	0.968000	0.187900	0.138100
H461	H46	0.888500	0.624900	0.053400
H471	H47	0.882600	0.704400	0.149200
H481	H48	0.056900	0.583500	0.254300
H491	H49	0.057500	0.507400	0.154700
H501	H50	0.540600	0.361500	0.352300
H511	H51	0.653500	0.353200	0.440200
H521	H52	0.883700	0.551400	0.352900
H531	H53	0.764100	0.553100	0.266500
H541	H54	0.678400	0.362100	0.200900
H551	H55	0.797400	0.347100	0.118200
H561	H56	0.689100	0.492500	0.988200
H571	H57	0.575100	0.505100	0.075700
H581	H58	0.949000	0.747000	0.269000
H591	H59	0.002000	0.690000	0.306000
H601	H60	0.822000	0.419000	0.492000
H611	H61	0.915000	0.490000	0.456000
H621	H62	0.843000	0.362000	0.996000
H631	H63	0.802000	0.415000	0.951000
H641	H64	0.294100	0.087100	0.614900
H651	H65	0.254600	0.264800	0.746300
H661	H66	0.532000	0.312100	0.638100
H671	H67	0.611500	0.875100	0.553400
H681	H68	0.617400	0.795600	0.649200
H691	H69	0.443100	0.916500	0.754300
H701	H70	0.442500	0.992600	0.654700
H711	H71	0.959400	0.138500	0.852300
H721	H72	0.846500	0.146800	0.940200
H731	H73	0.616300	0.948600	0.852900
H741	H74	0.735900	0.946900	0.766500
H751	H75	0.821600	0.137900	0.700900
H761	H76	0.702600	0.152900	0.618200
H771	H77	0.810900	0.007500	0.488200
H781	H78	0.924900	0.994900	0.575700
H791	H79	0.551000	0.753000	0.769000
H801	H80	0.498000	0.810000	0.806000
H811	H81	0.678000	0.081000	0.992000
H821	H82	0.585000	0.010000	0.956000
H831	H83	0.657000	0.138000	0.496000
H841	H84	0.698000	0.085000	0.451000
C11	C1	0.992700	0.661900	0.927800
C21	C2	0.925400	0.694100	0.879100
C31	C3	0.821300	0.641500	0.864100
C41	C4	0.757100	0.668800	0.818300
C51	C5	0.644700	0.614400	0.805000
C61	C6	0.797400	0.747100	0.786200
C71	C7	0.900700	0.799800	0.801700
C81	C8	0.936900	0.885300	0.768900
C91	C9	0.963200	0.774500	0.849400
C101	C10	0.075300	0.382800	0.905600
C111	C11	0.079200	0.335000	0.848500
C121	C12	0.027600	0.343500	0.786800
C131	C13	0.977000	0.405700	0.786700
C141	C14	0.977300	0.450800	0.846700
C151	C15	0.388600	0.599200	0.647300
C161	C16	0.322100	0.604800	0.594800
C171	C17	0.216800	0.547600	0.592900
C181	C18	0.186700	0.488400	0.646200
C191	C19	0.258700	0.487600	0.697200
C201	C20	0.318100	0.609900	0.842500
C211	C21	0.247400	0.619800	0.891800
C221	C22	0.242100	0.581400	0.955900
C231	C23	0.310900	0.534200	0.968100
C241	C24	0.378600	0.527100	0.915400
C251	C25	0.507300	0.838100	0.427800
C261	C26	0.574600	0.805900	0.379100
C271	C27	0.678700	0.858500	0.364100
C281	C28	0.742900	0.831200	0.318300
C291	C29	0.855300	0.885600	0.305000
C301	C30	0.702600	0.752900	0.286200
C311	C31	0.599300	0.700200	0.301700
C321	C32	0.563100	0.614700	0.268900
C331	C33	0.536800	0.725500	0.349400
C341	C34	0.424700	0.117200	0.405600
C351	C35	0.420800	0.165000	0.348500
C361	C36	0.472400	0.156500	0.286800
C371	C37	0.523000	0.094300	0.286700
C381	C38	0.522700	0.049200	0.346700
C391	C39	0.111400	0.900800	0.147300
C401	C40	0.177900	0.895200	0.094800
C411	C41	0.283200	0.952400	0.092900
C421	C42	0.313300	0.011600	0.146200
C431	C43	0.241300	0.012400	0.197200
C441	C44	0.181900	0.890100	0.342500
C451	C45	0.252600	0.880200	0.391800
C461	C46	0.257900	0.918600	0.455900
C471	C47	0.189100	0.965800	0.468100
C481	C48	0.121400	0.972900	0.415400
C491	C49	0.007300	0.338100	0.072200
C501	C50	0.074600	0.305900	0.120900
C511	C51	0.178700	0.358500	0.135900
C521	C52	0.242900	0.331200	0.181700
C531	C53	0.355300	0.385600	0.195000
C541	C54	0.202600	0.252900	0.213800
C551	C55	0.099300	0.200200	0.198300
C561	C56	0.063100	0.114700	0.231100
C571	C57	0.036800	0.225500	0.150600
C581	C58	0.924700	0.617200	0.094400
C591	C59	0.920800	0.665000	0.151500
C601	C60	0.972400	0.656500	0.213200
C611	C61	0.023000	0.594300	0.213300
C621	C62	0.022700	0.549200	0.153300
C631	C63	0.611400	0.400800	0.352700
C641	C64	0.677900	0.395200	0.405200
C651	C65	0.783200	0.452400	0.407100
C661	C66	0.813300	0.511600	0.353800
C671	C67	0.741300	0.512400	0.302800
C681	C68	0.681900	0.390100	0.157500
C691	C69	0.752600	0.380200	0.108200
C701	C70	0.757900	0.418600	0.044100
C711	C71	0.689100	0.465800	0.031900
C721	C72	0.621400	0.472900	0.084600
C731	C73	0.492700	0.161900	0.572200
C741	C74	0.425400	0.194100	0.620900
C751	C75	0.321300	0.141500	0.635900
C761	C76	0.257100	0.168800	0.681700
C771	C77	0.144700	0.114400	0.695000
C781	C78	0.297400	0.247100	0.713800
C791	C79	0.400700	0.299800	0.698300
C801	C80	0.436900	0.385300	0.731100
C811	C81	0.463200	0.274500	0.650600
C821	C82	0.575300	0.882800	0.594400
C831	C83	0.579200	0.835000	0.651500
C841	C84	0.527600	0.843500	0.713200
C851	C85	0.477000	0.905700	0.713300
C861	C86	0.477300	0.950800	0.653300
C871	C87	0.888600	0.099200	0.852700
C881	C88	0.822100	0.104800	0.905200
C891	C89	0.716800	0.047600	0.907100
C901	C90	0.686700	0.988400	0.853800
C911	C91	0.758700	0.987600	0.802800
C921	C92	0.818100	0.109900	0.657500
C931	C93	0.747400	0.119800	0.608200
C941	C94	0.742100	0.081400	0.544100
C951	C95	0.810900	0.034200	0.531900
C961	C96	0.878600	0.027100	0.584600
N11	N1	0.022800	0.440600	0.907400
N21	N2	0.026900	0.295700	0.729900
N31	N3	0.360400	0.541400	0.698800
N41	N4	0.146400	0.549700	0.542300
N51	N5	0.383100	0.562600	0.852500
N61	N6	0.168400	0.586800	0.006600
N71	N7	0.477200	0.059400	0.407400
N81	N8	0.473100	0.204300	0.229900
N91	N9	0.139600	0.958600	0.198800
N101	N10	0.353600	0.950300	0.042300
N111	N11	0.116900	0.937400	0.352500
N121	N12	0.331600	0.913200	0.506600
N131	N13	0.977200	0.559400	0.092600
N141	N14	0.973100	0.704300	0.270100
N151	N15	0.639600	0.458600	0.301200
N161	N16	0.853600	0.450300	0.457700
N171	N17	0.616900	0.437400	0.147500
N181	N18	0.831600	0.413200	0.993400
N191	N19	0.522800	0.940600	0.592600
N201	N20	0.526900	0.795700	0.770100
N211	N21	0.860400	0.041400	0.801200
N221	N22	0.646400	0.049700	0.957700
N231	N23	0.883100	0.062600	0.647500
N241	N24	0.668400	0.086800	0.493400
O11	O1	0.954200	0.584070	0.942910
O21	O2	0.080200	0.711500	0.950800
O31	O3	0.605600	0.543360	0.834670
O41	O4	0.588000	0.639950	0.762220
O51	O5	0.886500	0.899390	0.717070
O61	O6	0.014000	0.944780	0.795460
O71	O7	0.545800	0.915930	0.442910
O81	O8	0.419800	0.788500	0.450800
O91	O9	0.894400	0.956640	0.334670
O101	O10	0.912000	0.860050	0.262220
O111	O11	0.613500	0.600610	0.217070
O121	O12	0.486000	0.555220	0.295460
O131	O13	0.045800	0.415930	0.057090
O141	O14	0.919800	0.288500	0.049200
O151	O15	0.394400	0.456640	0.165330
O161	O16	0.412000	0.360050	0.237780
O171	O17	0.113500	0.100610	0.282930
O181	O18	0.986000	0.055220	0.204540
O191	O19	0.454200	0.084070	0.557090
O201	O20	0.580200	0.211500	0.549200
O211	O21	0.105600	0.043360	0.665330
O221	O22	0.088000	0.139950	0.737780
O231	O23	0.386500	0.399390	0.782930
O241	O24	0.514000	0.444780	0.704540
