data_QETCUO_clean_PM
_symmetry_space_group_name_H-M	'P1'
_cell_length_a	9.938000
_cell_length_b	11.713000
_cell_length_c	13.498000
_cell_angle_alpha	66.880000
_cell_angle_beta	86.940000
_cell_angle_gamma	76.450000
_symmetry_Int_Tables_number 1

loop_
_symmetry_equiv_pos_as_xyz
'x,y,z'

loop_
_atom_site_label
_atom_site_type_symbol
_atom_site_fract_x
_atom_site_fract_y
_atom_site_fract_z
Gd11	Gd1	0.236410	0.526170	0.004820
Gd21	Gd2	0.763590	0.473830	0.995180
H11	H1	0.055200	0.234800	0.265500
H21	H2	0.011600	0.122200	0.441500
H31	H3	0.437900	0.008900	0.319300
H41	H4	0.718000	0.702200	0.524200
H51	H5	0.686100	0.600400	0.704900
H61	H6	0.303500	0.826200	0.657800
H71	H7	0.239800	0.568800	0.726400
H81	H8	0.307800	0.597900	0.554800
H91	H9	0.908800	0.466200	0.661400
H101	H10	0.944800	0.765200	0.734500
H111	H11	0.988400	0.877800	0.558500
H121	H12	0.562100	0.991100	0.680700
H131	H13	0.282000	0.297800	0.475800
H141	H14	0.313900	0.399600	0.295100
H151	H15	0.696500	0.173800	0.342200
H161	H16	0.760200	0.431200	0.273600
H171	H17	0.692200	0.402100	0.445200
H181	H18	0.091200	0.533800	0.338600
C11	C1	0.288900	0.208700	0.158760
C21	C2	0.252500	0.134800	0.272550
C31	C3	0.123600	0.167800	0.310400
C41	C4	0.098500	0.099100	0.416400
C51	C5	0.315700	0.969100	0.447400
C61	C6	0.350100	0.033500	0.342510
C71	C7	0.418300	0.859600	0.524900
C81	C8	0.634000	0.728200	0.551700
C91	C9	0.615600	0.665300	0.660600
C101	C10	0.489800	0.701400	0.701610
C111	C11	0.389200	0.800100	0.632570
C121	C12	0.465100	0.632700	0.819080
C131	C13	0.013200	0.495800	0.823670
C141	C14	0.065900	0.513200	0.713440
C151	C15	0.186700	0.553500	0.680300
C161	C16	0.226500	0.570500	0.576800
C171	C17	0.039000	0.511300	0.539400
C181	C18	0.991000	0.492600	0.641500
C191	C19	0.711100	0.791300	0.841240
C201	C20	0.747500	0.865200	0.727450
C211	C21	0.876400	0.832200	0.689600
C221	C22	0.901500	0.900900	0.583600
C231	C23	0.684300	0.030900	0.552600
C241	C24	0.649900	0.966500	0.657490
C251	C25	0.581700	0.140400	0.475100
C261	C26	0.366000	0.271800	0.448300
C271	C27	0.384400	0.334700	0.339400
C281	C28	0.510200	0.298600	0.298390
C291	C29	0.610800	0.199900	0.367430
C301	C30	0.534900	0.367300	0.180920
C311	C31	0.986800	0.504200	0.176330
C321	C32	0.934100	0.486800	0.286560
C331	C33	0.813300	0.446500	0.319700
C341	C34	0.773500	0.429500	0.423200
C351	C35	0.961000	0.488700	0.460600
C361	C36	0.009000	0.507400	0.358500
N11	N1	0.191400	0.001300	0.485100
N21	N2	0.539200	0.823200	0.484300
N31	N3	0.156200	0.550300	0.506500
N41	N4	0.808600	0.998700	0.514900
N51	N5	0.460800	0.176800	0.515700
N61	N6	0.843800	0.449700	0.493500
O11	O1	0.396500	0.164110	0.123520
O21	O2	0.204410	0.314250	0.107000
O31	O3	0.343830	0.649120	0.849640
O41	O4	0.568390	0.558770	0.878340
O51	O5	0.088850	0.506240	0.889350
O61	O6	0.895620	0.473070	0.842250
O71	O7	0.603500	0.835890	0.876480
O81	O8	0.795590	0.685750	0.893000
O91	O9	0.656170	0.350880	0.150360
O101	O10	0.431610	0.441230	0.121660
O111	O11	0.911150	0.493760	0.110650
O121	O12	0.104380	0.526930	0.157750
