data_QETSOY_clean_PM
_symmetry_space_group_name_H-M	'P1'
_cell_length_a	7.124300
_cell_length_b	10.693300
_cell_length_c	17.092000
_cell_angle_alpha	97.109000
_cell_angle_beta	90.000000
_cell_angle_gamma	90.000000
_symmetry_Int_Tables_number 1

loop_
_symmetry_equiv_pos_as_xyz
'x,y,z'

loop_
_atom_site_label
_atom_site_type_symbol
_atom_site_fract_x
_atom_site_fract_y
_atom_site_fract_z
Er11	Er1	0.020140	0.677410	0.746570
Er21	Er2	0.520140	0.822590	0.753430
Er31	Er3	0.979860	0.322590	0.253430
Er41	Er4	0.479860	0.177410	0.246570
H11	H1	0.456100	0.180500	0.559500
H21	H2	0.180600	0.488500	0.520000
H31	H3	0.151700	0.835500	0.549700
H41	H4	0.956100	0.319500	0.940500
H51	H5	0.680600	0.011500	0.980000
H61	H6	0.651700	0.664500	0.950300
H71	H7	0.543900	0.819500	0.440500
H81	H8	0.819400	0.511500	0.480000
H91	H9	0.848300	0.164500	0.450300
H101	H10	0.043900	0.680500	0.059500
H111	H11	0.319400	0.988500	0.020000
H121	H12	0.348300	0.335500	0.049700
C11	C1	0.326100	0.585800	0.650000
C21	C2	0.424400	0.542000	0.573600
C31	C3	0.309300	0.493100	0.511700
C41	C4	0.618600	0.548800	0.562000
C51	C5	0.754100	0.596700	0.626000
C61	C6	0.852800	0.890300	0.635300
C71	C7	0.927500	0.952800	0.567000
C81	C8	0.090300	0.901300	0.529500
C91	C9	0.839200	0.053200	0.537000
C101	C10	0.677300	0.121600	0.579200
C111	C11	0.826100	0.914200	0.850000
C121	C12	0.924400	0.958000	0.926400
C131	C13	0.809300	0.006900	0.988300
C141	C14	0.118600	0.951200	0.938000
C151	C15	0.254100	0.903300	0.874000
C161	C16	0.352800	0.609700	0.864700
C171	C17	0.427500	0.547200	0.933000
C181	C18	0.590300	0.598700	0.970500
C191	C19	0.339200	0.446800	0.963000
C201	C20	0.177300	0.378400	0.920800
C211	C21	0.673900	0.414200	0.350000
C221	C22	0.575600	0.458000	0.426400
C231	C23	0.690700	0.506900	0.488300
C241	C24	0.381400	0.451200	0.438000
C251	C25	0.245900	0.403300	0.374000
C261	C26	0.147200	0.109700	0.364700
C271	C27	0.072500	0.047200	0.433000
C281	C28	0.909700	0.098700	0.470500
C291	C29	0.160800	0.946800	0.463000
C301	C30	0.322700	0.878400	0.420800
C311	C31	0.173900	0.085800	0.150000
C321	C32	0.075600	0.042000	0.073600
C331	C33	0.190700	0.993100	0.011700
C341	C34	0.881400	0.048800	0.062000
C351	C35	0.745900	0.096700	0.126000
C361	C36	0.647200	0.390300	0.135300
C371	C37	0.572500	0.452800	0.067000
C381	C38	0.409700	0.401300	0.029500
C391	C39	0.660800	0.553200	0.037000
C401	C40	0.822700	0.621600	0.079200
O11	O1	0.242800	0.506600	0.685560
O21	O2	0.307800	0.703800	0.671590
O31	O3	0.924200	0.587100	0.614500
O41	O4	0.690400	0.646300	0.693110
O51	O5	0.972000	0.844800	0.676900
O61	O6	0.677800	0.885800	0.644820
O71	O7	0.677900	0.152200	0.650400
O81	O8	0.543900	0.148800	0.533000
O91	O9	0.742800	0.993400	0.814440
O101	O10	0.807800	0.796200	0.828410
O111	O11	0.424200	0.912900	0.885500
O121	O12	0.190400	0.853700	0.806890
O131	O13	0.472000	0.655200	0.823100
O141	O14	0.177800	0.614200	0.855180
O151	O15	0.177900	0.347800	0.849600
O161	O16	0.043900	0.351200	0.967000
O171	O17	0.757200	0.493400	0.314440
O181	O18	0.692200	0.296200	0.328410
O191	O19	0.075800	0.412900	0.385500
O201	O20	0.309600	0.353700	0.306890
O211	O21	0.028000	0.155200	0.323100
O221	O22	0.322200	0.114200	0.355180
O231	O23	0.322100	0.847800	0.349600
O241	O24	0.456100	0.851200	0.467000
O251	O25	0.257200	0.006600	0.185560
O261	O26	0.192200	0.203800	0.171590
O271	O27	0.575800	0.087100	0.114500
O281	O28	0.809600	0.146300	0.193110
O291	O29	0.528000	0.344800	0.176900
O301	O30	0.822200	0.385800	0.144820
O311	O31	0.822100	0.652200	0.150400
O321	O32	0.956100	0.648800	0.033000
