data_QEVKOS_clean_PM
_symmetry_space_group_name_H-M	'P1'
_cell_length_a	11.031700
_cell_length_b	13.893400
_cell_length_c	18.291100
_cell_angle_alpha	73.658800
_cell_angle_beta	72.448700
_cell_angle_gamma	66.608400
_symmetry_Int_Tables_number 1

loop_
_symmetry_equiv_pos_as_xyz
'x,y,z'

loop_
_atom_site_label
_atom_site_type_symbol
_atom_site_fract_x
_atom_site_fract_y
_atom_site_fract_z
Cu11	Cu1	0.407650	0.737010	0.604990
Cu21	Cu2	0.593330	0.740920	0.746860
Cu31	Cu3	0.749650	0.762990	0.895010
Cu41	Cu4	0.081110	0.759080	0.753140
Cu51	Cu5	0.592350	0.262990	0.395010
Cu61	Cu6	0.406670	0.259080	0.253140
Cu71	Cu7	0.250350	0.237010	0.104990
Cu81	Cu8	0.918890	0.240920	0.246860
H11	H1	0.947700	0.765800	0.987600
H21	H2	0.766600	0.554600	0.037800
H31	H3	0.901000	0.506600	0.135600
H41	H4	0.106200	0.567900	0.135500
H51	H5	0.111000	0.678300	0.079300
H61	H6	0.002500	0.565000	0.270200
H71	H7	0.932600	0.848400	0.124600
H81	H8	0.483200	0.780200	0.027600
H91	H9	0.553300	0.010400	0.855800
H101	H10	0.322400	0.084500	0.932300
H111	H11	0.250200	0.867600	0.097000
H121	H12	0.223700	0.990300	0.094900
H131	H13	0.200100	0.874600	0.949600
H141	H14	0.990300	0.078400	0.099400
H151	H15	0.701100	0.734200	0.512400
H161	H16	0.359000	0.945400	0.462200
H171	H17	0.543200	0.993400	0.364400
H181	H18	0.809600	0.932100	0.364500
H191	H19	0.868600	0.821700	0.420700
H201	H20	0.837700	0.935000	0.229800
H211	H21	0.905600	0.651600	0.375400
H221	H22	0.291000	0.719800	0.472400
H231	H23	0.419500	0.489600	0.644200
H241	H24	0.339200	0.415500	0.567700
H251	H25	0.214800	0.632400	0.403000
H261	H26	0.308900	0.509700	0.405100
H271	H27	0.024300	0.625400	0.550400
H281	H28	0.168100	0.421600	0.400600
H291	H29	0.052300	0.234200	0.012400
H301	H30	0.233400	0.445400	0.962200
H311	H31	0.099000	0.493400	0.864400
H321	H32	0.893800	0.432100	0.864500
H331	H33	0.889000	0.321700	0.920700
H341	H34	0.997500	0.435000	0.729800
H351	H35	0.067400	0.151600	0.875400
H361	H36	0.516800	0.219800	0.972400
H371	H37	0.446700	0.989600	0.144200
H381	H38	0.677600	0.915500	0.067700
H391	H39	0.749800	0.132400	0.903000
H401	H40	0.776300	0.009700	0.905100
H411	H41	0.799900	0.125400	0.050400
H421	H42	0.009700	0.921600	0.900600
H431	H43	0.298900	0.265800	0.487600
H441	H44	0.641000	0.054600	0.537800
H451	H45	0.456800	0.006600	0.635600
H461	H46	0.190400	0.067900	0.635500
H471	H47	0.131400	0.178300	0.579300
H481	H48	0.162300	0.065000	0.770200
H491	H49	0.094400	0.348400	0.624600
H501	H50	0.709000	0.280200	0.527600
H511	H51	0.580500	0.510400	0.355800
H521	H52	0.660800	0.584500	0.432300
H531	H53	0.785200	0.367600	0.597000
H541	H54	0.691100	0.490300	0.594900
H551	H55	0.975700	0.374600	0.449600
H561	H56	0.831900	0.578400	0.599400
W11	W1	0.844380	0.741980	0.744740
W21	W2	0.331100	0.758020	0.755260
W31	W3	0.155620	0.258020	0.255260
W41	W4	0.668900	0.241980	0.244740
C11	C1	0.917700	0.706800	0.012400
C21	C2	0.820200	0.592500	0.039900
C31	C3	0.894100	0.565500	0.093300
C41	C4	0.049800	0.641900	0.116700
C51	C5	0.979000	0.699000	0.185800
C61	C6	0.969300	0.640800	0.261600
C71	C7	0.928500	0.807400	0.176000
C81	C8	0.472200	0.847400	0.993800
C91	C9	0.509800	0.972500	0.900700
C101	C10	0.383300	0.013500	0.942300
C111	C11	0.238000	0.938500	0.062700
C121	C12	0.114800	0.971500	0.029100
C131	C13	0.118300	0.926100	0.970300
C141	C14	0.994600	0.046200	0.058800
C151	C15	0.636900	0.793200	0.487600
C161	C16	0.452600	0.907500	0.460100
C171	C17	0.552900	0.934500	0.406700
C181	C18	0.808400	0.858100	0.383300
C191	C19	0.863800	0.801000	0.314200
C201	C20	0.871700	0.859200	0.238400
C211	C21	0.911900	0.692600	0.324000
C221	C22	0.313400	0.652600	0.506200
C231	C23	0.383000	0.527500	0.599300
C241	C24	0.339100	0.486500	0.557700
C251	C25	0.239200	0.561500	0.437300
C261	C26	0.115400	0.528500	0.470900
C271	C27	0.014700	0.573900	0.529700
C281	C28	0.099600	0.453800	0.441200
C291	C29	0.082300	0.293200	0.987600
C301	C30	0.179800	0.407500	0.960100
C311	C31	0.105900	0.434500	0.906700
C321	C32	0.950200	0.358100	0.883300
C331	C33	0.021000	0.301000	0.814200
C341	C34	0.030700	0.359200	0.738400
C351	C35	0.071500	0.192600	0.824000
C361	C36	0.527800	0.152600	0.006200
C371	C37	0.490200	0.027500	0.099300
C381	C38	0.616700	0.986500	0.057700
C391	C39	0.762000	0.061500	0.937300
C401	C40	0.885200	0.028500	0.970900
C411	C41	0.881700	0.073900	0.029700
C421	C42	0.005400	0.953800	0.941200
C431	C43	0.363100	0.206800	0.512400
C441	C44	0.547400	0.092500	0.539900
C451	C45	0.447100	0.065500	0.593300
C461	C46	0.191600	0.141900	0.616700
C471	C47	0.136200	0.199000	0.685800
C481	C48	0.128300	0.140800	0.761600
C491	C49	0.088100	0.307400	0.676000
C501	C50	0.686600	0.347400	0.493800
C511	C51	0.617000	0.472500	0.400700
C521	C52	0.660900	0.513500	0.442300
C531	C53	0.760800	0.438500	0.562700
C541	C54	0.884600	0.471500	0.529100
C551	C55	0.985300	0.426100	0.470300
C561	C56	0.900400	0.546200	0.558800
S11	S1	0.387840	0.861630	0.799210
S21	S2	0.731610	0.644410	0.836790
S31	S3	0.521330	0.636700	0.702840
S41	S4	0.205340	0.678240	0.849220
S51	S5	0.048680	0.638370	0.700790
S61	S6	0.212810	0.855590	0.663210
S71	S7	0.860870	0.863300	0.797160
S81	S8	0.732800	0.821760	0.650780
S91	S9	0.612160	0.138370	0.200790
S101	S10	0.268390	0.355590	0.163210
S111	S11	0.478670	0.363300	0.297160
S121	S12	0.794660	0.321760	0.150780
S131	S13	0.951320	0.361630	0.299210
S141	S14	0.787190	0.144410	0.336790
S151	S15	0.139130	0.136700	0.202840
S161	S16	0.267200	0.178240	0.349220
N11	N1	0.833200	0.683700	0.988300
N21	N2	0.956900	0.637800	0.076000
N31	N3	0.565000	0.868600	0.933200
N41	N4	0.360100	0.933800	0.001200
N51	N5	0.505200	0.816300	0.511700
N61	N6	0.670700	0.862200	0.424000
N71	N7	0.366800	0.631400	0.566800
N81	N8	0.295100	0.566200	0.498800
N91	N9	0.166800	0.316300	0.011700
N101	N10	0.043100	0.362200	0.924000
N111	N11	0.435000	0.131400	0.066800
N121	N12	0.639900	0.066200	0.998800
N131	N13	0.494800	0.183700	0.488300
N141	N14	0.329300	0.137800	0.576000
N151	N15	0.633200	0.368600	0.433200
N161	N16	0.704900	0.433800	0.501200
