data_QEYWUN_clean_PM
_symmetry_space_group_name_H-M	'P1'
_cell_length_a	10.093600
_cell_length_b	12.510800
_cell_length_c	15.172100
_cell_angle_alpha	90.000000
_cell_angle_beta	90.000000
_cell_angle_gamma	90.000000
_symmetry_Int_Tables_number 1

loop_
_symmetry_equiv_pos_as_xyz
'x,y,z'

loop_
_atom_site_label
_atom_site_type_symbol
_atom_site_fract_x
_atom_site_fract_y
_atom_site_fract_z
Cd11	Cd1	0.000000	0.500000	0.000000
Cd21	Cd2	0.500000	0.500000	0.500000
Cd31	Cd3	0.000000	0.000000	0.500000
Cd41	Cd4	0.500000	0.000000	0.000000
H11	H1	0.378900	0.759300	0.057900
H21	H2	0.637500	0.776200	0.870700
H31	H3	0.518700	0.498000	0.887400
H41	H4	0.444200	0.479200	0.729200
H51	H5	0.715900	0.648900	0.616000
H61	H6	0.121100	0.240700	0.557900
H71	H7	0.862500	0.223800	0.370700
H81	H8	0.981300	0.502000	0.387400
H91	H9	0.055800	0.520800	0.229200
H101	H10	0.784100	0.351100	0.116000
H111	H11	0.621100	0.259300	0.442100
H121	H12	0.362500	0.276200	0.629300
H131	H13	0.481300	0.998000	0.612600
H141	H14	0.555800	0.979200	0.770800
H151	H15	0.284100	0.148900	0.884000
H161	H16	0.878900	0.740700	0.942100
H171	H17	0.137500	0.723800	0.129300
H181	H18	0.018700	0.002000	0.112600
H191	H19	0.944200	0.020800	0.270800
H201	H20	0.215900	0.851100	0.384000
H211	H21	0.621100	0.240700	0.942100
H221	H22	0.362500	0.223800	0.129300
H231	H23	0.481300	0.502000	0.112600
H241	H24	0.555800	0.520800	0.270800
H251	H25	0.284100	0.351100	0.384000
H261	H26	0.878900	0.759300	0.442100
H271	H27	0.137500	0.776200	0.629300
H281	H28	0.018700	0.498000	0.612600
H291	H29	0.944200	0.479200	0.770800
H301	H30	0.215900	0.648900	0.884000
H311	H31	0.378900	0.740700	0.557900
H321	H32	0.637500	0.723800	0.370700
H331	H33	0.518700	0.002000	0.387400
H341	H34	0.444200	0.020800	0.229200
H351	H35	0.715900	0.851100	0.116000
H361	H36	0.121100	0.259300	0.057900
H371	H37	0.862500	0.276200	0.870700
H381	H38	0.981300	0.998000	0.887400
H391	H39	0.055800	0.979200	0.729200
H401	H40	0.784100	0.148900	0.616000
C11	C1	0.435900	0.739900	0.012400
C21	C2	0.576300	0.751100	0.911600
C31	C3	0.584800	0.553500	0.875520
C41	C4	0.721000	0.509600	0.905500
C51	C5	0.516100	0.524000	0.718900
C61	C6	0.665000	0.616100	0.659400
C71	C7	0.064100	0.260100	0.512400
C81	C8	0.923700	0.248900	0.411600
C91	C9	0.915200	0.446500	0.375520
C101	C10	0.779000	0.490400	0.405500
C111	C11	0.983900	0.476000	0.218900
C121	C12	0.835000	0.383900	0.159400
C131	C13	0.564100	0.239900	0.487600
C141	C14	0.423700	0.251100	0.588400
C151	C15	0.415200	0.053500	0.624480
C161	C16	0.279000	0.009600	0.594500
C171	C17	0.483900	0.024000	0.781100
C181	C18	0.335000	0.116100	0.840600
C191	C19	0.935900	0.760100	0.987600
C201	C20	0.076300	0.748900	0.088400
C211	C21	0.084800	0.946500	0.124480
C221	C22	0.221000	0.990400	0.094500
C231	C23	0.016100	0.976000	0.281100
C241	C24	0.165000	0.883900	0.340600
C251	C25	0.564100	0.260100	0.987600
C261	C26	0.423700	0.248900	0.088400
C271	C27	0.415200	0.446500	0.124480
C281	C28	0.279000	0.490400	0.094500
C291	C29	0.483900	0.476000	0.281100
C301	C30	0.335000	0.383900	0.340600
C311	C31	0.935900	0.739900	0.487600
C321	C32	0.076300	0.751100	0.588400
C331	C33	0.084800	0.553500	0.624480
C341	C34	0.221000	0.509600	0.594500
C351	C35	0.016100	0.524000	0.781100
C361	C36	0.165000	0.616100	0.840600
C371	C37	0.435900	0.760100	0.512400
C381	C38	0.576300	0.748900	0.411600
C391	C39	0.584800	0.946500	0.375520
C401	C40	0.721000	0.990400	0.405500
C411	C41	0.516100	0.976000	0.218900
C421	C42	0.665000	0.883900	0.159400
C431	C43	0.064100	0.239900	0.012400
C441	C44	0.923700	0.251100	0.911600
C451	C45	0.915200	0.053500	0.875520
C461	C46	0.779000	0.009600	0.905500
C471	C47	0.983900	0.024000	0.718900
C481	C48	0.835000	0.116100	0.659400
N11	N1	0.541100	0.650440	0.920320
N21	N2	0.448700	0.641200	0.985360
N31	N3	0.512300	0.811800	0.969000
N41	N4	0.588500	0.569830	0.780770
N51	N5	0.687400	0.628800	0.743460
N61	N6	0.560800	0.551000	0.640560
N71	N7	0.958900	0.349560	0.420320
N81	N8	0.051300	0.358800	0.485360
N91	N9	0.987700	0.188200	0.469000
N101	N10	0.911500	0.430170	0.280770
N111	N11	0.812600	0.371200	0.243460
N121	N12	0.939200	0.449000	0.140560
N131	N13	0.458900	0.150440	0.579680
N141	N14	0.551300	0.141200	0.514640
N151	N15	0.487700	0.311800	0.531000
N161	N16	0.411500	0.069830	0.719230
N171	N17	0.312600	0.128800	0.756540
N181	N18	0.439200	0.051000	0.859440
N191	N19	0.041100	0.849560	0.079680
N201	N20	0.948700	0.858800	0.014640
N211	N21	0.012300	0.688200	0.031000
N221	N22	0.088500	0.930170	0.219230
N231	N23	0.187400	0.871200	0.256540
N241	N24	0.060800	0.949000	0.359440
N251	N25	0.458900	0.349560	0.079680
N261	N26	0.551300	0.358800	0.014640
N271	N27	0.487700	0.188200	0.031000
N281	N28	0.411500	0.430170	0.219230
N291	N29	0.312600	0.371200	0.256540
N301	N30	0.439200	0.449000	0.359440
N311	N31	0.041100	0.650440	0.579680
N321	N32	0.948700	0.641200	0.514640
N331	N33	0.012300	0.811800	0.531000
N341	N34	0.088500	0.569830	0.719230
N351	N35	0.187400	0.628800	0.756540
N361	N36	0.060800	0.551000	0.859440
N371	N37	0.541100	0.849560	0.420320
N381	N38	0.448700	0.858800	0.485360
N391	N39	0.512300	0.688200	0.469000
N401	N40	0.588500	0.930170	0.280770
N411	N41	0.687400	0.871200	0.243460
N421	N42	0.560800	0.949000	0.140560
N431	N43	0.958900	0.150440	0.920320
N441	N44	0.051300	0.141200	0.985360
N451	N45	0.987700	0.311800	0.969000
N461	N46	0.911500	0.069830	0.780770
N471	N47	0.812600	0.128800	0.743460
N481	N48	0.939200	0.051000	0.640560
O11	O1	0.777600	0.552890	0.969120
O21	O2	0.759300	0.432880	0.861270
O31	O3	0.722400	0.447110	0.469120
O41	O4	0.740700	0.567120	0.361270
O51	O5	0.222400	0.052890	0.530880
O61	O6	0.240700	0.932880	0.638730
O71	O7	0.277600	0.947110	0.030880
O81	O8	0.259300	0.067120	0.138730
O91	O9	0.222400	0.447110	0.030880
O101	O10	0.240700	0.567120	0.138730
O111	O11	0.277600	0.552890	0.530880
O121	O12	0.259300	0.432880	0.638730
O131	O13	0.777600	0.947110	0.469120
O141	O14	0.759300	0.067120	0.361270
O151	O15	0.722400	0.052890	0.969120
O161	O16	0.740700	0.932880	0.861270
