data_QIDDAI02_clean_PM
_symmetry_space_group_name_H-M	'P1'
_cell_length_a	13.044200
_cell_length_b	13.044200
_cell_length_c	16.758000
_cell_angle_alpha	109.757000
_cell_angle_beta	109.757000
_cell_angle_gamma	93.339300
_symmetry_Int_Tables_number 1

loop_
_symmetry_equiv_pos_as_xyz
'x,y,z'

loop_
_atom_site_label
_atom_site_type_symbol
_atom_site_fract_x
_atom_site_fract_y
_atom_site_fract_z
Cd11	Cd1	0.122400	0.877600	0.250000
Cd21	Cd2	0.877600	0.122400	0.750000
H11	H1	0.348800	0.825200	0.218300
H21	H2	0.042000	0.703800	0.039800
H31	H3	0.418700	0.733900	0.109800
H41	H4	0.103000	0.604800	0.927200
H51	H5	0.328000	0.647600	0.903900
H61	H6	0.246400	0.536200	0.881200
H71	H7	0.216800	0.139600	0.385700
H81	H8	0.958500	0.945300	0.360500
H91	H9	0.179900	0.290500	0.485600
H101	H10	0.914900	0.090700	0.459900
H111	H11	0.075600	0.326000	0.612700
H121	H12	0.945600	0.280200	0.554000
H131	H13	0.174800	0.651200	0.281700
H141	H14	0.296200	0.958000	0.460200
H151	H15	0.266100	0.581300	0.390200
H161	H16	0.395200	0.897000	0.572800
H171	H17	0.352400	0.672000	0.596100
H181	H18	0.463800	0.753600	0.618800
H191	H19	0.860400	0.783200	0.114300
H201	H20	0.054700	0.041500	0.139500
H211	H21	0.709500	0.820100	0.014400
H221	H22	0.909300	0.085100	0.040100
H231	H23	0.674000	0.924400	0.887300
H241	H24	0.719800	0.054400	0.946000
H251	H25	0.651200	0.174800	0.781700
H261	H26	0.958000	0.296200	0.960200
H271	H27	0.581300	0.266100	0.890200
H281	H28	0.897000	0.395200	0.072800
H291	H29	0.672000	0.352400	0.096100
H301	H30	0.753600	0.463800	0.118800
H311	H31	0.783200	0.860400	0.614300
H321	H32	0.041500	0.054700	0.639500
H331	H33	0.820100	0.709500	0.514400
H341	H34	0.085100	0.909300	0.540100
H351	H35	0.924400	0.674000	0.387300
H361	H36	0.054400	0.719800	0.446000
H371	H37	0.825200	0.348800	0.718300
H381	H38	0.703800	0.042000	0.539800
H391	H39	0.733900	0.418700	0.609800
H401	H40	0.604800	0.103000	0.427200
H411	H41	0.647600	0.328000	0.403900
H421	H42	0.536200	0.246400	0.381200
H431	H43	0.139600	0.216800	0.885700
H441	H44	0.945300	0.958500	0.860500
H451	H45	0.290500	0.179900	0.985600
H461	H46	0.090700	0.914900	0.959900
H471	H47	0.326000	0.075600	0.112700
H481	H48	0.280200	0.945600	0.054000
C11	C1	0.298090	0.780630	0.158000
C21	C2	0.119620	0.709480	0.054390
C31	C3	0.340700	0.725720	0.093730
C41	C4	0.155440	0.650540	0.986460
C51	C5	0.268390	0.658470	0.005390
C61	C6	0.307900	0.596100	0.930540
C71	C7	0.406660	0.546140	0.965200
C81	C8	0.394650	0.442410	0.970220
C91	C9	0.485080	0.397900	0.003950
C101	C10	0.153750	0.129090	0.400370
C111	C11	0.004390	0.016730	0.385890
C121	C12	0.132320	0.220020	0.460550
C131	C13	0.977700	0.103420	0.445490
C141	C14	0.042420	0.208220	0.483980
C151	C15	0.016950	0.304650	0.550910
C161	C16	0.009620	0.405380	0.525120
C171	C17	0.917430	0.409830	0.456070
C181	C18	0.907310	0.500510	0.431220
C191	C19	0.219370	0.701910	0.342000
C201	C20	0.290520	0.880380	0.445610
C211	C21	0.274280	0.659300	0.406270
C221	C22	0.349460	0.844560	0.513540
C231	C23	0.341530	0.731610	0.494610
C241	C24	0.403900	0.692100	0.569460
C251	C25	0.453860	0.593340	0.534800
C261	C26	0.557590	0.605350	0.529780
C271	C27	0.602100	0.514920	0.496050
C281	C28	0.870910	0.846250	0.099630
C291	C29	0.983270	0.995610	0.114110
C301	C30	0.779980	0.867680	0.039450
C311	C31	0.896580	0.022300	0.054510
C321	C32	0.791780	0.957580	0.016020
C331	C33	0.695350	0.983050	0.949090
C341	C34	0.594620	0.990380	0.974880
C351	C35	0.590170	0.082570	0.043930
C361	C36	0.499490	0.092690	0.068780
C371	C37	0.701910	0.219370	0.842000
C381	C38	0.880380	0.290520	0.945610
C391	C39	0.659300	0.274280	0.906270
C401	C40	0.844560	0.349460	0.013540
C411	C41	0.731610	0.341530	0.994610
C421	C42	0.692100	0.403900	0.069460
C431	C43	0.593340	0.453860	0.034800
C441	C44	0.605350	0.557590	0.029780
C451	C45	0.514920	0.602100	0.996050
C461	C46	0.846250	0.870910	0.599630
C471	C47	0.995610	0.983270	0.614110
C481	C48	0.867680	0.779980	0.539450
C491	C49	0.022300	0.896580	0.554510
C501	C50	0.957580	0.791780	0.516020
C511	C51	0.983050	0.695350	0.449090
C521	C52	0.990380	0.594620	0.474880
C531	C53	0.082570	0.590170	0.543930
C541	C54	0.092690	0.499490	0.568780
C551	C55	0.780630	0.298090	0.658000
C561	C56	0.709480	0.119620	0.554390
C571	C57	0.725720	0.340700	0.593730
C581	C58	0.650540	0.155440	0.486460
C591	C59	0.658470	0.268390	0.505390
C601	C60	0.596100	0.307900	0.430540
C611	C61	0.546140	0.406660	0.465200
C621	C62	0.442410	0.394650	0.470220
C631	C63	0.397900	0.485080	0.503950
C641	C64	0.129090	0.153750	0.900370
C651	C65	0.016730	0.004390	0.885890
C661	C66	0.220020	0.132320	0.960550
C671	C67	0.103420	0.977700	0.945490
C681	C68	0.208220	0.042420	0.983980
C691	C69	0.304650	0.016950	0.050910
C701	C70	0.405380	0.009620	0.025120
C711	C71	0.409830	0.917430	0.956070
C721	C72	0.500510	0.907310	0.931220
N11	N1	0.189230	0.774410	0.139880
N21	N2	0.091160	0.028040	0.362140
N31	N3	0.225590	0.810770	0.360120
N41	N4	0.971960	0.908840	0.137860
N51	N5	0.810770	0.225590	0.860120
N61	N6	0.908840	0.971960	0.637860
N71	N7	0.774410	0.189230	0.639880
N81	N8	0.028040	0.091160	0.862140
F11	F1	0.292020	0.383140	0.941200
F21	F2	0.467570	0.296870	0.007230
F31	F3	0.833240	0.320200	0.409400
F41	F4	0.813980	0.495340	0.362020
F51	F5	0.616860	0.707980	0.558800
F61	F6	0.703130	0.532430	0.492770
F71	F7	0.679800	0.166760	0.090600
F81	F8	0.504660	0.186020	0.137980
F91	F9	0.707980	0.616860	0.058800
F101	F10	0.532430	0.703130	0.992770
F111	F11	0.166760	0.679800	0.590600
F121	F12	0.186020	0.504660	0.637980
F131	F13	0.383140	0.292020	0.441200
F141	F14	0.296870	0.467570	0.507230
F151	F15	0.320200	0.833240	0.909400
F161	F16	0.495340	0.813980	0.862020
