data_QIFLEY_clean_PM
_symmetry_space_group_name_H-M	'P1'
_cell_length_a	13.821000
_cell_length_b	32.910000
_cell_length_c	14.903000
_cell_angle_alpha	90.000000
_cell_angle_beta	112.939000
_cell_angle_gamma	90.000000
_symmetry_Int_Tables_number 1

loop_
_symmetry_equiv_pos_as_xyz
'x,y,z'

loop_
_atom_site_label
_atom_site_type_symbol
_atom_site_fract_x
_atom_site_fract_y
_atom_site_fract_z
C11	C1	0.134900	0.886840	0.363500
H11	H1	0.171200	0.881300	0.429400
C21	C2	0.125400	0.856220	0.298200
H21	H2	0.154300	0.830800	0.320100
C31	C3	0.072400	0.863410	0.199300
C41	C4	0.029500	0.901520	0.172200
H31	H3	0.991700	0.907600	0.106800
C51	C5	0.043100	0.930650	0.243100
H41	H4	0.014300	0.956300	0.223200
C61	C6	0.065500	0.831240	0.125700
C71	C7	0.155400	0.808870	0.138500
H51	H5	0.216400	0.813500	0.193300
C81	C8	0.155700	0.779690	0.070900
C91	C9	0.062000	0.772760	0.989900
H61	H6	0.059800	0.753400	0.943800
C101	C10	0.973100	0.794720	0.978600
C111	C11	0.972500	0.824400	0.043900
H71	H7	0.912200	0.839400	0.033900
C121	C12	0.254900	0.757470	0.084200
C131	C13	0.339000	0.755160	0.173800
H81	H8	0.332800	0.766200	0.228800
C141	C14	0.432000	0.736500	0.181900
H91	H9	0.486800	0.735600	0.243000
C151	C15	0.365400	0.721080	0.021000
H101	H10	0.373400	0.709100	0.967700
C161	C16	0.268900	0.739230	0.006400
H111	H11	0.214600	0.739000	0.945000
C171	C17	0.814400	0.810940	0.837900
C181	C18	0.851100	0.845700	0.810200
H121	H12	0.922400	0.851900	0.837000
C191	C19	0.780100	0.871600	0.741200
C201	C20	0.672000	0.862000	0.704000
H131	H13	0.624300	0.879500	0.659400
C211	C21	0.635400	0.827190	0.732500
C221	C22	0.707500	0.800630	0.799800
H141	H14	0.684700	0.776700	0.818700
C231	C23	0.815600	0.908740	0.706300
C241	C24	0.917800	0.914130	0.712700
H151	H15	0.968600	0.894700	0.744000
C251	C25	0.944800	0.948240	0.672900
H161	H16	0.013900	0.951000	0.678400
C261	C26	0.776700	0.973120	0.622800
H171	H17	0.727900	0.993300	0.592700
C271	C27	0.519700	0.819360	0.696700
C281	C28	0.473900	0.781860	0.664400
H181	H18	0.514900	0.759800	0.662200
C291	C29	0.365400	0.777550	0.635100
H191	H19	0.335900	0.752300	0.612300
C301	C30	0.346300	0.843650	0.667700
H201	H20	0.303800	0.865300	0.669600
C311	C31	0.452600	0.850790	0.695800
H211	H21	0.479200	0.876800	0.714200
C321	C32	0.280600	0.951980	0.628500
C331	C33	0.384000	0.951830	0.717100
C341	C34	0.473300	0.968130	0.709800
H221	H22	0.469500	0.978200	0.650300
C351	C35	0.569000	0.969630	0.790800
H231	H23	0.627500	0.981400	0.785100
C361	C36	0.577000	0.953570	0.879400
C371	C37	0.487400	0.936260	0.885400
H241	H24	0.491900	0.924700	0.943900
C381	C38	0.391800	0.935830	0.806000
H251	H25	0.332800	0.924800	0.812400
C391	C39	0.679800	0.954510	0.973600
C401	C40	0.666800	0.989150	0.038200
C411	C41	0.779100	0.964470	0.952600
C421	C42	0.697800	0.912900	0.025000
C431	C43	0.728800	0.908280	0.125700
H261	H26	0.747700	0.930900	0.166200
C441	C44	0.731400	0.869890	0.165300
H271	H27	0.752000	0.867000	0.232300
C451	C45	0.703700	0.835850	0.106200
C461	C46	0.680000	0.840230	0.007500
H281	H28	0.666000	0.817300	0.967900
C471	C47	0.676900	0.877950	0.967300
H291	H29	0.660700	0.880300	0.900800
C481	C48	0.693000	0.795150	0.148100
Cd11	Cd1	0.103760	0.968890	0.467060
Cd21	Cd2	0.621510	0.700670	0.125650
F11	F1	0.634000	0.023440	0.987300
F21	F2	0.756100	0.998280	0.114600
F31	F3	0.595000	0.979310	0.074100
F41	F4	0.779300	0.001790	0.918900
F51	F5	0.867700	0.961110	0.033400
F61	F6	0.788400	0.938540	0.887900
N11	N1	0.095100	0.924190	0.338200
N21	N2	0.447100	0.719850	0.107200
N31	N3	0.875600	0.977330	0.626900
N41	N4	0.300900	0.807600	0.638000
O11	O1	0.280700	0.967100	0.551800
O21	O2	0.199900	0.938610	0.634900
O31	O3	0.640500	0.768100	0.088900
O41	O4	0.736800	0.790850	0.237700
O51	O5	0.879700	0.782440	0.901300
C491	C49	0.745800	0.940470	0.661000
H301	H30	0.677100	0.939200	0.657000
C501	C50	0.365100	0.386840	0.136500
H311	H31	0.328800	0.381300	0.070600
C511	C51	0.374600	0.356220	0.201800
H321	H32	0.345700	0.330800	0.179900
C521	C52	0.427600	0.363410	0.300700
C531	C53	0.470500	0.401520	0.327800
H331	H33	0.508300	0.407600	0.393200
C541	C54	0.456900	0.430650	0.256900
H341	H34	0.485700	0.456300	0.276800
C551	C55	0.434500	0.331240	0.374300
C561	C56	0.344600	0.308870	0.361500
H351	H35	0.283600	0.313500	0.306700
C571	C57	0.344300	0.279690	0.429100
C581	C58	0.438000	0.272760	0.510100
H361	H36	0.440200	0.253400	0.556200
C591	C59	0.526900	0.294720	0.521400
C601	C60	0.527500	0.324400	0.456100
H371	H37	0.587800	0.339400	0.466100
C611	C61	0.245100	0.257470	0.415800
C621	C62	0.161000	0.255160	0.326200
H381	H38	0.167200	0.266200	0.271200
C631	C63	0.068000	0.236500	0.318100
H391	H39	0.013200	0.235600	0.257000
C641	C64	0.134600	0.221080	0.479000
H401	H40	0.126600	0.209100	0.532300
C651	C65	0.231100	0.239230	0.493600
H411	H41	0.285400	0.239000	0.555000
C661	C66	0.685600	0.310940	0.662100
C671	C67	0.648900	0.345700	0.689800
H421	H42	0.577600	0.351900	0.663000
C681	C68	0.719900	0.371600	0.758800
C691	C69	0.828000	0.362000	0.796000
H431	H43	0.875700	0.379500	0.840600
C701	C70	0.864600	0.327190	0.767500
C711	C71	0.792500	0.300630	0.700200
H441	H44	0.815300	0.276700	0.681300
C721	C72	0.684400	0.408740	0.793700
C731	C73	0.582200	0.414130	0.787300
H451	H45	0.531400	0.394700	0.756000
C741	C74	0.555200	0.448240	0.827100
H461	H46	0.486100	0.451000	0.821600
C751	C75	0.723300	0.473120	0.877200
H471	H47	0.772100	0.493300	0.907300
C761	C76	0.980300	0.319360	0.803300
C771	C77	0.026100	0.281860	0.835600
H481	H48	0.985100	0.259800	0.837800
C781	C78	0.134600	0.277550	0.864900
H491	H49	0.164100	0.252300	0.887700
C791	C79	0.153700	0.343650	0.832300
H501	H50	0.196200	0.365300	0.830400
C801	C80	0.047400	0.350790	0.804200
H511	H51	0.020800	0.376800	0.785800
C811	C81	0.219400	0.451980	0.871500
C821	C82	0.116000	0.451830	0.782900
C831	C83	0.026700	0.468130	0.790200
H521	H52	0.030500	0.478200	0.849700
C841	C84	0.931000	0.469630	0.709200
H531	H53	0.872500	0.481400	0.714900
C851	C85	0.923000	0.453570	0.620600
C861	C86	0.012600	0.436260	0.614600
H541	H54	0.008100	0.424700	0.556100
C871	C87	0.108200	0.435830	0.694000
H551	H55	0.167200	0.424800	0.687600
C881	C88	0.820200	0.454510	0.526400
C891	C89	0.833200	0.489150	0.461800
C901	C90	0.720900	0.464470	0.547400
C911	C91	0.802200	0.412900	0.475000
C921	C92	0.771200	0.408280	0.374300
H561	H56	0.752300	0.430900	0.333800
C931	C93	0.768600	0.369890	0.334700
H571	H57	0.748000	0.367000	0.267700
C941	C94	0.796300	0.335850	0.393800
C951	C95	0.820000	0.340230	0.492500
H581	H58	0.834000	0.317300	0.532100
C961	C96	0.823100	0.377950	0.532700
H591	H59	0.839300	0.380300	0.599200
C971	C97	0.807000	0.295150	0.351900
Cd31	Cd3	0.396240	0.468890	0.032940
Cd41	Cd4	0.878490	0.200670	0.374350
F71	F7	0.866000	0.523440	0.512700
F81	F8	0.743900	0.498280	0.385400
F91	F9	0.905000	0.479310	0.425900
F101	F10	0.720700	0.501790	0.581100
F111	F11	0.632300	0.461110	0.466600
F121	F12	0.711600	0.438540	0.612100
N51	N5	0.404900	0.424190	0.161800
N61	N6	0.052900	0.219850	0.392800
N71	N7	0.624400	0.477330	0.873100
N81	N8	0.199100	0.307600	0.862000
O61	O6	0.219300	0.467100	0.948200
O71	O7	0.300100	0.438610	0.865100
O81	O8	0.859500	0.268100	0.411100
O91	O9	0.763200	0.290850	0.262300
O101	O10	0.620300	0.282440	0.598700
C981	C98	0.754200	0.440470	0.839000
H601	H60	0.822900	0.439200	0.843000
C991	C99	0.865100	0.113160	0.636500
H611	H61	0.828800	0.118700	0.570600
C1001	C100	0.874600	0.143780	0.701800
H621	H62	0.845700	0.169200	0.679900
C1011	C101	0.927600	0.136590	0.800700
C1021	C102	0.970500	0.098480	0.827800
H631	H63	0.008300	0.092400	0.893200
C1031	C103	0.956900	0.069350	0.756900
H641	H64	0.985700	0.043700	0.776800
C1041	C104	0.934500	0.168760	0.874300
C1051	C105	0.844600	0.191130	0.861500
H651	H65	0.783600	0.186500	0.806700
C1061	C106	0.844300	0.220310	0.929100
C1071	C107	0.938000	0.227240	0.010100
H661	H66	0.940200	0.246600	0.056200
C1081	C108	0.026900	0.205280	0.021400
C1091	C109	0.027500	0.175600	0.956100
H671	H67	0.087800	0.160600	0.966100
C1101	C110	0.745100	0.242530	0.915800
C1111	C111	0.661000	0.244840	0.826200
H681	H68	0.667200	0.233800	0.771200
C1121	C112	0.568000	0.263500	0.818100
H691	H69	0.513200	0.264400	0.757000
C1131	C113	0.634600	0.278920	0.979000
H701	H70	0.626600	0.290900	0.032300
C1141	C114	0.731100	0.260770	0.993600
H711	H71	0.785400	0.261000	0.055000
C1151	C115	0.185600	0.189060	0.162100
C1161	C116	0.148900	0.154300	0.189800
H721	H72	0.077600	0.148100	0.163000
C1171	C117	0.219900	0.128400	0.258800
C1181	C118	0.328000	0.138000	0.296000
H731	H73	0.375700	0.120500	0.340600
C1191	C119	0.364600	0.172810	0.267500
C1201	C120	0.292500	0.199370	0.200200
H741	H74	0.315300	0.223300	0.181300
C1211	C121	0.184400	0.091260	0.293700
C1221	C122	0.082200	0.085870	0.287300
H751	H75	0.031400	0.105300	0.256000
C1231	C123	0.055200	0.051760	0.327100
H761	H76	0.986100	0.049000	0.321600
C1241	C124	0.223300	0.026880	0.377200
H771	H77	0.272100	0.006700	0.407300
C1251	C125	0.480300	0.180640	0.303300
C1261	C126	0.526100	0.218140	0.335600
H781	H78	0.485100	0.240200	0.337800
C1271	C127	0.634600	0.222450	0.364900
H791	H79	0.664100	0.247700	0.387700
C1281	C128	0.653700	0.156350	0.332300
H801	H80	0.696200	0.134700	0.330400
C1291	C129	0.547400	0.149210	0.304200
H811	H81	0.520800	0.123200	0.285800
C1301	C130	0.719400	0.048020	0.371500
C1311	C131	0.616000	0.048170	0.282900
C1321	C132	0.526700	0.031870	0.290200
H821	H82	0.530500	0.021800	0.349700
C1331	C133	0.431000	0.030370	0.209200
H831	H83	0.372500	0.018600	0.214900
C1341	C134	0.423000	0.046430	0.120600
C1351	C135	0.512600	0.063740	0.114600
H841	H84	0.508100	0.075300	0.056100
C1361	C136	0.608200	0.064170	0.194000
H851	H85	0.667200	0.075200	0.187600
C1371	C137	0.320200	0.045490	0.026400
C1381	C138	0.333200	0.010850	0.961800
C1391	C139	0.220900	0.035530	0.047400
C1401	C140	0.302200	0.087100	0.975000
C1411	C141	0.271200	0.091720	0.874300
H861	H86	0.252300	0.069100	0.833800
C1421	C142	0.268600	0.130110	0.834700
H871	H87	0.248000	0.133000	0.767700
C1431	C143	0.296300	0.164150	0.893800
C1441	C144	0.320000	0.159770	0.992500
H881	H88	0.334000	0.182700	0.032100
C1451	C145	0.323100	0.122050	0.032700
H891	H89	0.339300	0.119700	0.099200
C1461	C146	0.307000	0.204850	0.851900
Cd51	Cd5	0.896240	0.031110	0.532940
Cd61	Cd6	0.378490	0.299330	0.874350
F131	F13	0.366000	0.976560	0.012700
F141	F14	0.243900	0.001720	0.885400
F151	F15	0.405000	0.020690	0.925900
F161	F16	0.220700	0.998210	0.081100
F171	F17	0.132300	0.038890	0.966600
F181	F18	0.211600	0.061460	0.112100
N91	N9	0.904900	0.075810	0.661800
N101	N10	0.552900	0.280150	0.892800
N111	N11	0.124400	0.022670	0.373100
N121	N12	0.699100	0.192400	0.362000
O111	O11	0.719300	0.032900	0.448200
O121	O12	0.800100	0.061390	0.365100
O131	O13	0.359500	0.231900	0.911100
O141	O14	0.263200	0.209150	0.762300
O151	O15	0.120300	0.217560	0.098700
C1471	C147	0.254200	0.059530	0.339000
H901	H90	0.322900	0.060800	0.343000
C1481	C148	0.634900	0.613160	0.863500
H911	H91	0.671200	0.618700	0.929400
C1491	C149	0.625400	0.643780	0.798200
H921	H92	0.654300	0.669200	0.820100
C1501	C150	0.572400	0.636590	0.699300
C1511	C151	0.529500	0.598480	0.672200
H931	H93	0.491700	0.592400	0.606800
C1521	C152	0.543100	0.569350	0.743100
H941	H94	0.514300	0.543700	0.723200
C1531	C153	0.565500	0.668760	0.625700
C1541	C154	0.655400	0.691130	0.638500
H951	H95	0.716400	0.686500	0.693300
C1551	C155	0.655700	0.720310	0.570900
C1561	C156	0.562000	0.727240	0.489900
H961	H96	0.559800	0.746600	0.443800
C1571	C157	0.473100	0.705280	0.478600
C1581	C158	0.472500	0.675600	0.543900
H971	H97	0.412200	0.660600	0.533900
C1591	C159	0.754900	0.742530	0.584200
C1601	C160	0.839000	0.744840	0.673800
H981	H98	0.832800	0.733800	0.728800
C1611	C161	0.932000	0.763500	0.681900
H991	H99	0.986800	0.764400	0.743000
C1621	C162	0.865400	0.778920	0.521000
H1001	H100	0.873400	0.790900	0.467700
C1631	C163	0.768900	0.760770	0.506400
H1011	H101	0.714600	0.761000	0.445000
C1641	C164	0.314400	0.689060	0.337900
C1651	C165	0.351100	0.654300	0.310200
H1021	H102	0.422400	0.648100	0.337000
C1661	C166	0.280100	0.628400	0.241200
C1671	C167	0.172000	0.638000	0.204000
H1031	H103	0.124300	0.620500	0.159400
C1681	C168	0.135400	0.672810	0.232500
C1691	C169	0.207500	0.699370	0.299800
H1041	H104	0.184700	0.723300	0.318700
C1701	C170	0.315600	0.591260	0.206300
C1711	C171	0.417800	0.585870	0.212700
H1051	H105	0.468600	0.605300	0.244000
C1721	C172	0.444800	0.551760	0.172900
H1061	H106	0.513900	0.549000	0.178400
C1731	C173	0.276700	0.526880	0.122800
H1071	H107	0.227900	0.506700	0.092700
C1741	C174	0.019700	0.680640	0.196700
C1751	C175	0.973900	0.718140	0.164400
H1081	H108	0.014900	0.740200	0.162200
C1761	C176	0.865400	0.722450	0.135100
H1091	H109	0.835900	0.747700	0.112300
C1771	C177	0.846300	0.656350	0.167700
H1101	H110	0.803800	0.634700	0.169600
C1781	C178	0.952600	0.649210	0.195800
H1111	H111	0.979200	0.623200	0.214200
C1791	C179	0.780600	0.548020	0.128500
C1801	C180	0.884000	0.548170	0.217100
C1811	C181	0.973300	0.531870	0.209800
H1121	H112	0.969500	0.521800	0.150300
C1821	C182	0.069000	0.530370	0.290800
H1131	H113	0.127500	0.518600	0.285100
C1831	C183	0.077000	0.546430	0.379400
C1841	C184	0.987400	0.563740	0.385400
H1141	H114	0.991900	0.575300	0.443900
C1851	C185	0.891800	0.564170	0.306000
H1151	H115	0.832800	0.575200	0.312400
C1861	C186	0.179800	0.545490	0.473600
C1871	C187	0.166800	0.510850	0.538200
C1881	C188	0.279100	0.535530	0.452600
C1891	C189	0.197800	0.587100	0.525000
C1901	C190	0.228800	0.591720	0.625700
H1161	H116	0.247700	0.569100	0.666200
C1911	C191	0.231400	0.630110	0.665300
H1171	H117	0.252000	0.633000	0.732300
C1921	C192	0.203700	0.664150	0.606200
C1931	C193	0.180000	0.659770	0.507500
H1181	H118	0.166000	0.682700	0.467900
C1941	C194	0.176900	0.622050	0.467300
H1191	H119	0.160700	0.619700	0.400800
C1951	C195	0.193000	0.704850	0.648100
Cd71	Cd7	0.603760	0.531110	0.967060
Cd81	Cd8	0.121510	0.799330	0.625650
F191	F19	0.134000	0.476560	0.487300
F201	F20	0.256100	0.501720	0.614600
F211	F21	0.095000	0.520690	0.574100
F221	F22	0.279300	0.498210	0.418900
F231	F23	0.367700	0.538890	0.533400
F241	F24	0.288400	0.561460	0.387900
N131	N13	0.595100	0.575810	0.838200
N141	N14	0.947100	0.780150	0.607200
N151	N15	0.375600	0.522670	0.126900
N161	N16	0.800900	0.692400	0.138000
O161	O16	0.780700	0.532900	0.051800
O171	O17	0.699900	0.561390	0.134900
O181	O18	0.140500	0.731900	0.588900
O191	O19	0.236800	0.709150	0.737700
O201	O20	0.379700	0.717560	0.401300
C1961	C196	0.245800	0.559530	0.161000
H1201	H120	0.177100	0.560800	0.157000
