data_QIGBIR_clean_PM
_symmetry_space_group_name_H-M	'P1'
_cell_length_a	16.501000
_cell_length_b	16.633000
_cell_length_c	17.208000
_cell_angle_alpha	90.000000
_cell_angle_beta	90.000000
_cell_angle_gamma	90.000000
_symmetry_Int_Tables_number 1

loop_
_symmetry_equiv_pos_as_xyz
'x,y,z'

loop_
_atom_site_label
_atom_site_type_symbol
_atom_site_fract_x
_atom_site_fract_y
_atom_site_fract_z
Mn11	Mn1	0.414190	0.913390	0.601020
Mn21	Mn2	0.085810	0.086610	0.101020
Mn31	Mn3	0.585810	0.413390	0.898980
Mn41	Mn4	0.914190	0.586610	0.398980
Mn51	Mn5	0.585810	0.086610	0.398980
Mn61	Mn6	0.914190	0.913390	0.898980
Mn71	Mn7	0.414190	0.586610	0.101020
Mn81	Mn8	0.085810	0.413390	0.601020
Re11	Re1	0.102330	0.967040	0.527770
Re21	Re2	0.976630	0.897700	0.466110
Re31	Re3	0.037160	0.026140	0.402500
Re41	Re4	0.397670	0.032960	0.027770
Re51	Re5	0.523370	0.102300	0.966110
Re61	Re6	0.462840	0.973860	0.902500
Re71	Re7	0.897670	0.467040	0.972230
Re81	Re8	0.023370	0.397700	0.033890
Re91	Re9	0.962840	0.526140	0.097500
Re101	Re10	0.602330	0.532960	0.472230
Re111	Re11	0.476630	0.602300	0.533890
Re121	Re12	0.537160	0.473860	0.597500
Re131	Re13	0.897670	0.032960	0.472230
Re141	Re14	0.023370	0.102300	0.533890
Re151	Re15	0.962840	0.973860	0.597500
Re161	Re16	0.602330	0.967040	0.972230
Re171	Re17	0.476630	0.897700	0.033890
Re181	Re18	0.537160	0.026140	0.097500
Re191	Re19	0.102330	0.532960	0.027770
Re201	Re20	0.976630	0.602300	0.966110
Re211	Re21	0.037160	0.473860	0.902500
Re221	Re22	0.397670	0.467040	0.527770
Re231	Re23	0.523370	0.397700	0.466110
Re241	Re24	0.462840	0.526140	0.402500
C11	C1	0.220300	0.929900	0.560400
C21	C2	0.948500	0.780200	0.427200
C31	C3	0.075900	0.056500	0.288900
C41	C4	0.279700	0.070100	0.060400
C51	C5	0.551500	0.219800	0.927200
C61	C6	0.424100	0.943500	0.788900
C71	C7	0.779700	0.429900	0.939600
C81	C8	0.051500	0.280200	0.072800
C91	C9	0.924100	0.556500	0.211100
C101	C10	0.720300	0.570100	0.439600
C111	C11	0.448500	0.719800	0.572800
C121	C12	0.575900	0.443500	0.711100
C131	C13	0.779700	0.070100	0.439600
C141	C14	0.051500	0.219800	0.572800
C151	C15	0.924100	0.943500	0.711100
C161	C16	0.720300	0.929900	0.939600
C171	C17	0.448500	0.780200	0.072800
C181	C18	0.575900	0.056500	0.211100
C191	C19	0.220300	0.570100	0.060400
C201	C20	0.948500	0.719800	0.927200
C211	C21	0.075900	0.443500	0.788900
C221	C22	0.279700	0.429900	0.560400
C231	C23	0.551500	0.280200	0.427200
C241	C24	0.424100	0.556500	0.288900
S11	S1	0.107790	0.899250	0.404000
S21	S2	0.038360	0.851180	0.584470
S31	S3	0.150050	0.088260	0.466790
S41	S4	0.082000	0.040420	0.646670
S51	S5	0.392210	0.100750	0.904000
S61	S6	0.461640	0.148820	0.084470
S71	S7	0.349950	0.911740	0.966790
S81	S8	0.418000	0.959580	0.146670
S91	S9	0.892210	0.399250	0.096000
S101	S10	0.961640	0.351180	0.915530
S111	S11	0.849950	0.588260	0.033210
S121	S12	0.918000	0.540420	0.853330
S131	S13	0.607790	0.600750	0.596000
S141	S14	0.538360	0.648820	0.415530
S151	S15	0.650050	0.411740	0.533210
S161	S16	0.582000	0.459580	0.353330
S171	S17	0.892210	0.100750	0.596000
S181	S18	0.961640	0.148820	0.415530
S191	S19	0.849950	0.911740	0.533210
S201	S20	0.918000	0.959580	0.353330
S211	S21	0.607790	0.899250	0.096000
S221	S22	0.538360	0.851180	0.915530
S231	S23	0.650050	0.088260	0.033210
S241	S24	0.582000	0.040420	0.853330
S251	S25	0.107790	0.600750	0.904000
S261	S26	0.038360	0.648820	0.084470
S271	S27	0.150050	0.411740	0.966790
S281	S28	0.082000	0.459580	0.146670
S291	S29	0.392210	0.399250	0.404000
S301	S30	0.461640	0.351180	0.584470
S311	S31	0.349950	0.588260	0.466790
S321	S32	0.418000	0.540420	0.646670
N11	N1	0.284900	0.912800	0.581000
N21	N2	0.933500	0.716700	0.407700
N31	N3	0.093600	0.073600	0.226900
N41	N4	0.215100	0.087200	0.081000
N51	N5	0.566500	0.283300	0.907700
N61	N6	0.406400	0.926400	0.726900
N71	N7	0.715100	0.412800	0.919000
N81	N8	0.066500	0.216700	0.092300
N91	N9	0.906400	0.573600	0.273100
N101	N10	0.784900	0.587200	0.419000
N111	N11	0.433500	0.783300	0.592300
N121	N12	0.593600	0.426400	0.773100
N131	N13	0.715100	0.087200	0.419000
N141	N14	0.066500	0.283300	0.592300
N151	N15	0.906400	0.926400	0.773100
N161	N16	0.784900	0.912800	0.919000
N171	N17	0.433500	0.716700	0.092300
N181	N18	0.593600	0.073600	0.273100
N191	N19	0.284900	0.587200	0.081000
N201	N20	0.933500	0.783300	0.907700
N211	N21	0.093600	0.426400	0.726900
N221	N22	0.215100	0.412800	0.581000
N231	N23	0.566500	0.216700	0.407700
N241	N24	0.406400	0.573600	0.226900
