data_QIHXIQ_clean_PM
_symmetry_space_group_name_H-M	'P1'
_cell_length_a	12.880000
_cell_length_b	16.861000
_cell_length_c	17.325000
_cell_angle_alpha	75.740000
_cell_angle_beta	73.260000
_cell_angle_gamma	68.590000
_symmetry_Int_Tables_number 1

loop_
_symmetry_equiv_pos_as_xyz
'x,y,z'

loop_
_atom_site_label
_atom_site_type_symbol
_atom_site_fract_x
_atom_site_fract_y
_atom_site_fract_z
Zn11	Zn1	0.530510	0.681920	0.950010
Zn21	Zn2	0.649050	0.554940	0.822250
Zn31	Zn3	0.384290	0.624910	0.861330
N11	N1	0.746400	0.610600	0.845500
N21	N2	0.702100	0.655700	0.908200
O11	O1	0.513900	0.590720	0.908190
O21	O2	0.577800	0.535500	0.082540
O31	O3	0.493400	0.679900	0.068000
O41	O4	0.435000	0.616500	0.742100
O51	O5	0.624500	0.587700	0.711000
O61	O6	0.428000	0.796500	0.915900
O71	O7	0.340800	0.756700	0.845000
O81	O8	0.718000	0.430700	0.826100
O91	O9	0.672300	0.403900	0.963680
C11	C1	0.538200	0.605200	0.110300
C21	C2	0.532000	0.607200	0.605090
C31	C3	0.430800	0.624500	0.581120
H11	H1	0.360100	0.635400	0.620100
C41	C4	0.432900	0.625900	0.500140
H21	H2	0.363700	0.637700	0.483800
C51	C5	0.536300	0.609900	0.443120
C61	C6	0.637500	0.592700	0.467090
H31	H3	0.708100	0.581800	0.428100
C71	C7	0.635400	0.591300	0.548080
H41	H4	0.704500	0.579500	0.564500
C81	C8	0.817000	0.295330	0.892370
C91	C9	0.868500	0.266200	0.817800
H51	H5	0.844600	0.300100	0.769600
C101	C10	0.954900	0.187300	0.813700
H61	H6	0.990000	0.167400	0.762700
C111	C11	0.989800	0.137600	0.884170
C121	C12	0.938300	0.166770	0.958740
H71	H7	0.962200	0.132800	0.006900
C131	C13	0.851900	0.245600	0.962840
H81	H8	0.816700	0.265600	0.013800
C141	C14	0.003690	0.632000	0.878050
C151	C15	0.066200	0.669000	0.808320
H91	H9	0.033900	0.696100	0.761900
C161	C16	0.175900	0.666400	0.806560
H101	H10	0.218600	0.691700	0.758900
N31	N3	0.223210	0.626780	0.874530
C171	C17	0.160700	0.589800	0.944250
H111	H11	0.193000	0.562700	0.990700
C181	C18	0.051000	0.592400	0.946020
H121	H12	0.008300	0.567000	0.993700
C191	C19	0.539200	0.607500	0.195740
C201	C20	0.629100	0.551320	0.230930
H131	H13	0.691100	0.512000	0.200300
C211	C21	0.628400	0.552800	0.310970
H141	H14	0.689900	0.514400	0.335000
C221	C22	0.537700	0.610400	0.355810
C231	C23	0.447700	0.666500	0.320610
H151	H15	0.385700	0.705900	0.351300
C241	C24	0.448500	0.665100	0.240580
H161	H16	0.387000	0.703500	0.216500
C251	C25	0.179900	0.918030	0.830300
H171	H17	0.183200	0.878500	0.798200
C261	C26	0.092000	0.996200	0.832800
H181	H18	0.035200	0.010200	0.802400
C271	C27	0.087200	0.054030	0.879800
C281	C28	0.170300	0.033600	0.924200
H191	H19	0.167000	0.073100	0.956300
C291	C29	0.258200	0.955400	0.921800
H201	H20	0.314900	0.941400	0.952200
C301	C30	0.263000	0.897590	0.874800
C311	C31	0.528900	0.604600	0.692500
C321	C32	0.351900	0.809500	0.878500
C331	C33	0.729500	0.382200	0.896100
C341	C34	0.935400	0.546600	0.757600
H211	H21	0.888100	0.530100	0.733000
H221	H22	0.975000	0.583400	0.716200
H231	H23	0.991800	0.494600	0.778700
C351	C35	0.859400	0.596000	0.827600
C361	C36	0.887000	0.631500	0.879100
C371	C37	0.781300	0.668900	0.929900
C381	C38	0.762700	0.711100	0.002700
H241	H24	0.680700	0.731300	0.027200
H251	H25	0.803100	0.669100	0.043100
H261	H26	0.792100	0.760200	0.984700
Zn41	Zn4	0.469490	0.318080	0.049990
Zn51	Zn5	0.350950	0.445060	0.177750
Zn61	Zn6	0.615710	0.375090	0.138670
N41	N4	0.253600	0.389400	0.154500
N51	N5	0.297900	0.344300	0.091800
O101	O10	0.486100	0.409280	0.091810
O111	O11	0.422200	0.464500	0.917460
O121	O12	0.506600	0.320100	0.932000
O131	O13	0.565000	0.383500	0.257900
O141	O14	0.375500	0.412300	0.289000
O151	O15	0.572000	0.203500	0.084100
O161	O16	0.659200	0.243300	0.155000
O171	O17	0.282000	0.569300	0.173900
O181	O18	0.327700	0.596100	0.036320
C391	C39	0.461800	0.394800	0.889700
C401	C40	0.468000	0.392800	0.394910
C411	C41	0.569200	0.375500	0.418880
H271	H27	0.639900	0.364600	0.379900
C421	C42	0.567100	0.374100	0.499860
H281	H28	0.636300	0.362300	0.516200
C431	C43	0.463700	0.390100	0.556880
C441	C44	0.362500	0.407300	0.532910
H291	H29	0.291900	0.418200	0.571900
C451	C45	0.364600	0.408700	0.451920
H301	H30	0.295500	0.420500	0.435500
C461	C46	0.183000	0.704670	0.107630
C471	C47	0.131500	0.733800	0.182200
H311	H31	0.155400	0.699900	0.230400
C481	C48	0.045100	0.812700	0.186300
H321	H32	0.010000	0.832600	0.237300
C491	C49	0.010200	0.862400	0.115830
C501	C50	0.061700	0.833230	0.041260
H331	H33	0.037800	0.867200	0.993100
C511	C51	0.148100	0.754400	0.037160
H341	H34	0.183300	0.734400	0.986200
C521	C52	0.996310	0.368000	0.121950
C531	C53	0.933800	0.331000	0.191680
H351	H35	0.966100	0.303900	0.238100
C541	C54	0.824100	0.333600	0.193440
H361	H36	0.781400	0.308300	0.241100
N61	N6	0.776790	0.373220	0.125470
C551	C55	0.839300	0.410200	0.055750
H371	H37	0.807000	0.437300	0.009300
C561	C56	0.949000	0.407600	0.053980
H381	H38	0.991700	0.433000	0.006300
C571	C57	0.460800	0.392500	0.804260
C581	C58	0.370900	0.448680	0.769070
H391	H39	0.308900	0.488000	0.799700
C591	C59	0.371600	0.447200	0.689030
H401	H40	0.310100	0.485600	0.665000
C601	C60	0.462300	0.389600	0.644190
C611	C61	0.552300	0.333500	0.679390
H411	H41	0.614300	0.294100	0.648700
C621	C62	0.551500	0.334900	0.759420
H421	H42	0.613000	0.296500	0.783500
C631	C63	0.820100	0.081970	0.169700
H431	H43	0.816800	0.121500	0.201800
C641	C64	0.908000	0.003800	0.167200
H441	H44	0.964800	0.989800	0.197600
C651	C65	0.912800	0.945970	0.120200
C661	C66	0.829700	0.966400	0.075800
H451	H45	0.833000	0.926900	0.043700
C671	C67	0.741800	0.044600	0.078200
H461	H46	0.685100	0.058600	0.047800
C681	C68	0.737000	0.102410	0.125200
C691	C69	0.471100	0.395400	0.307500
C701	C70	0.648100	0.190500	0.121500
C711	C71	0.270500	0.617800	0.103900
C721	C72	0.064600	0.453400	0.242400
H471	H47	0.111900	0.469900	0.267000
H481	H48	0.025000	0.416600	0.283800
H491	H49	0.008200	0.505400	0.221300
C731	C73	0.140600	0.404000	0.172400
C741	C74	0.113000	0.368500	0.120900
C751	C75	0.218700	0.331100	0.070100
C761	C76	0.237300	0.288900	0.997300
H501	H50	0.319300	0.268700	0.972800
H511	H51	0.196900	0.330900	0.956900
H521	H52	0.207900	0.239800	0.015300
