data_QIPROY_clean_PM
_symmetry_space_group_name_H-M	'P1'
_cell_length_a	9.526800
_cell_length_b	9.526800
_cell_length_c	23.401000
_cell_angle_alpha	90.000000
_cell_angle_beta	90.000000
_cell_angle_gamma	90.000000
_symmetry_Int_Tables_number 1

loop_
_symmetry_equiv_pos_as_xyz
'x,y,z'

loop_
_atom_site_label
_atom_site_type_symbol
_atom_site_fract_x
_atom_site_fract_y
_atom_site_fract_z
N11	N1	0.602600	0.887300	0.810270
O11	O1	0.831700	0.957800	0.926720
C11	C1	0.928300	0.886500	0.963610
H11	H1	0.997400	0.835600	0.941300
H21	H2	0.878900	0.820400	0.987900
C21	C2	0.757100	0.876700	0.889780
C31	C3	0.751200	0.732600	0.890000
H31	H3	0.799500	0.680100	0.917100
C41	C4	0.671900	0.669900	0.849080
H41	H4	0.668300	0.572400	0.847700
C51	C5	0.597500	0.744900	0.810070
H51	H5	0.542800	0.698500	0.783100
C61	C6	0.679800	0.950700	0.849800
H61	H6	0.682000	0.048200	0.850700
N21	N2	0.397400	0.112700	0.810270
O21	O2	0.168300	0.042200	0.926720
C71	C7	0.071700	0.113500	0.963610
H71	H7	0.002600	0.164400	0.941300
H81	H8	0.121100	0.179600	0.987900
C81	C8	0.242900	0.123300	0.889780
C91	C9	0.248800	0.267400	0.890000
H91	H9	0.200500	0.319900	0.917100
C101	C10	0.328100	0.330100	0.849080
H101	H10	0.331700	0.427600	0.847700
C111	C11	0.402500	0.255100	0.810070
H111	H11	0.457200	0.301500	0.783100
C121	C12	0.320200	0.049300	0.849800
H121	H12	0.318000	0.951800	0.850700
N31	N3	0.887300	0.397400	0.189730
O31	O3	0.957800	0.168300	0.073280
C131	C13	0.886500	0.071700	0.036390
H131	H13	0.835600	0.002600	0.058700
H141	H14	0.820400	0.121100	0.012100
C141	C14	0.876700	0.242900	0.110220
C151	C15	0.732600	0.248800	0.110000
H151	H15	0.680100	0.200500	0.082900
C161	C16	0.669900	0.328100	0.150920
H161	H16	0.572400	0.331700	0.152300
C171	C17	0.744900	0.402500	0.189930
H171	H17	0.698500	0.457200	0.216900
C181	C18	0.950700	0.320200	0.150200
H181	H18	0.048200	0.318000	0.149300
N41	N4	0.112700	0.602600	0.189730
O41	O4	0.042200	0.831700	0.073280
C191	C19	0.113500	0.928300	0.036390
H191	H19	0.164400	0.997400	0.058700
H201	H20	0.179600	0.878900	0.012100
C201	C20	0.123300	0.757100	0.110220
C211	C21	0.267400	0.751200	0.110000
H211	H21	0.319900	0.799500	0.082900
C221	C22	0.330100	0.671900	0.150920
H221	H22	0.427600	0.668300	0.152300
C231	C23	0.255100	0.597500	0.189930
H231	H23	0.301500	0.542800	0.216900
C241	C24	0.049300	0.679800	0.150200
H241	H24	0.951800	0.682000	0.149300
N51	N5	0.102600	0.612700	0.310270
O51	O5	0.331700	0.542200	0.426720
C251	C25	0.428300	0.613500	0.463610
H251	H25	0.497400	0.664400	0.441300
H261	H26	0.378900	0.679600	0.487900
C261	C26	0.257100	0.623300	0.389780
C271	C27	0.251200	0.767400	0.390000
H271	H27	0.299500	0.819900	0.417100
C281	C28	0.171900	0.830100	0.349080
H281	H28	0.168300	0.927600	0.347700
C291	C29	0.097500	0.755100	0.310070
H291	H29	0.042800	0.801500	0.283100
C301	C30	0.179800	0.549300	0.349800
H301	H30	0.182000	0.451800	0.350700
N61	N6	0.897400	0.387300	0.310270
O61	O6	0.668300	0.457800	0.426720
C311	C31	0.571700	0.386500	0.463610
H311	H31	0.502600	0.335600	0.441300
H321	H32	0.621100	0.320400	0.487900
C321	C32	0.742900	0.376700	0.389780
C331	C33	0.748800	0.232600	0.390000
H331	H33	0.700500	0.180100	0.417100
C341	C34	0.828100	0.169900	0.349080
H341	H34	0.831700	0.072400	0.347700
C351	C35	0.902500	0.244900	0.310070
H351	H35	0.957200	0.198500	0.283100
C361	C36	0.820200	0.450700	0.349800
H361	H36	0.818000	0.548200	0.350700
N71	N7	0.387300	0.102600	0.689730
O71	O7	0.457800	0.331700	0.573280
C371	C37	0.386500	0.428300	0.536390
H371	H37	0.335600	0.497400	0.558700
H381	H38	0.320400	0.378900	0.512100
C381	C38	0.376700	0.257100	0.610220
C391	C39	0.232600	0.251200	0.610000
H391	H39	0.180100	0.299500	0.582900
C401	C40	0.169900	0.171900	0.650920
H401	H40	0.072400	0.168300	0.652300
C411	C41	0.244900	0.097500	0.689930
H411	H41	0.198500	0.042800	0.716900
C421	C42	0.450700	0.179800	0.650200
H421	H42	0.548200	0.182000	0.649300
N81	N8	0.612700	0.897400	0.689730
O81	O8	0.542200	0.668300	0.573280
C431	C43	0.613500	0.571700	0.536390
H431	H43	0.664400	0.502600	0.558700
H441	H44	0.679600	0.621100	0.512100
C441	C44	0.623300	0.742900	0.610220
C451	C45	0.767400	0.748800	0.610000
H451	H45	0.819900	0.700500	0.582900
C461	C46	0.830100	0.828100	0.650920
H461	H46	0.927600	0.831700	0.652300
C471	C47	0.755100	0.902500	0.689930
H471	H47	0.801500	0.957200	0.716900
C481	C48	0.549300	0.820200	0.650200
H481	H48	0.451800	0.818000	0.649300
Cu11	Cu1	0.500000	0.000000	0.750000
Cu21	Cu2	0.000000	0.500000	0.250000
C491	C49	0.000000	0.000000	0.000000
C501	C50	0.500000	0.500000	0.500000
