data_QIQZIB_clean_PM
_symmetry_space_group_name_H-M	'P1'
_cell_length_a	13.654200
_cell_length_b	13.654200
_cell_length_c	42.160000
_cell_angle_alpha	90.000000
_cell_angle_beta	90.000000
_cell_angle_gamma	90.000000
_symmetry_Int_Tables_number 1

loop_
_symmetry_equiv_pos_as_xyz
'x,y,z'

loop_
_atom_site_label
_atom_site_type_symbol
_atom_site_fract_x
_atom_site_fract_y
_atom_site_fract_z
Cu11	Cu1	0.557670	0.512790	0.279280
Cu21	Cu2	0.723940	0.421800	0.236330
Cu31	Cu3	0.327720	0.541820	0.270360
Cu41	Cu4	0.632340	0.848170	0.253980
S11	S1	0.715540	0.386350	0.308210
S21	S2	0.460420	0.699800	0.300740
S31	S3	0.686420	0.648600	0.215500
O11	O1	0.207800	0.548600	0.294460
O21	O2	0.100410	0.431100	0.283020
O31	O3	0.654000	0.474700	0.310650
O41	O4	0.778480	0.396700	0.280240
O51	O5	0.649500	0.301700	0.303910
O61	O6	0.773200	0.374000	0.336460
O71	O7	0.528300	0.618370	0.308320
O81	O8	0.360700	0.660300	0.296330
O91	O9	0.492600	0.745100	0.270590
O101	O10	0.461200	0.770300	0.325940
O111	O11	0.710000	0.578590	0.240870
O121	O12	0.696400	0.747900	0.229120
O131	O13	0.586100	0.633000	0.204830
O141	O14	0.753300	0.640300	0.188810
N11	N1	0.932740	0.638290	0.469260
N21	N2	0.912300	0.469120	0.472130
C11	C1	0.910000	0.557800	0.484760
H11	H1	0.891200	0.563600	0.505900
C21	C2	0.961600	0.630900	0.438970
H21	H2	0.976400	0.687400	0.427600
C31	C3	0.969700	0.540800	0.424450
C41	C4	0.942300	0.460600	0.442180
H31	H3	0.944800	0.398800	0.433000
C51	C5	0.008700	0.530500	0.392050
C61	C6	0.083400	0.591500	0.381710
H41	H4	0.107900	0.639600	0.395200
C71	C7	0.120700	0.581600	0.352210
H51	H5	0.170200	0.623700	0.345600
C81	C8	0.086700	0.509800	0.331390
C91	C9	0.011200	0.450000	0.341200
H61	H6	0.986400	0.402400	0.327600
C101	C10	0.972300	0.461200	0.371360
H71	H7	0.920800	0.421300	0.377800
C111	C11	0.135000	0.494900	0.300460
Cu51	Cu5	0.442330	0.487210	0.779280
Cu61	Cu6	0.276060	0.578200	0.736330
Cu71	Cu7	0.672280	0.458180	0.770360
Cu81	Cu8	0.367660	0.151830	0.753980
S41	S4	0.284460	0.613650	0.808210
S51	S5	0.539580	0.300200	0.800740
S61	S6	0.313580	0.351400	0.715500
O151	O15	0.792200	0.451400	0.794460
O161	O16	0.899590	0.568900	0.783020
O171	O17	0.346000	0.525300	0.810650
O181	O18	0.221520	0.603300	0.780240
O191	O19	0.350500	0.698300	0.803910
O201	O20	0.226800	0.626000	0.836460
O211	O21	0.471700	0.381630	0.808320
O221	O22	0.639300	0.339700	0.796330
O231	O23	0.507400	0.254900	0.770590
O241	O24	0.538800	0.229700	0.825940
O251	O25	0.290000	0.421410	0.740870
O261	O26	0.303600	0.252100	0.729120
O271	O27	0.413900	0.367000	0.704830
O281	O28	0.246700	0.359700	0.688810
N31	N3	0.067260	0.361710	0.969260
N41	N4	0.087700	0.530880	0.972130
C121	C12	0.090000	0.442200	0.984760
H81	H8	0.108800	0.436400	0.005900
C131	C13	0.038400	0.369100	0.938970
H91	H9	0.023600	0.312600	0.927600
C141	C14	0.030300	0.459200	0.924450
C151	C15	0.057700	0.539400	0.942180
H101	H10	0.055200	0.601200	0.933000
C161	C16	0.991300	0.469500	0.892050
C171	C17	0.916600	0.408500	0.881710
H111	H11	0.892100	0.360400	0.895200
C181	C18	0.879300	0.418400	0.852210
H121	H12	0.829800	0.376300	0.845600
C191	C19	0.913300	0.490200	0.831390
C201	C20	0.988800	0.550000	0.841200
H131	H13	0.013600	0.597600	0.827600
C211	C21	0.027700	0.538800	0.871360
H141	H14	0.079200	0.578700	0.877800
C221	C22	0.865000	0.505100	0.800460
Cu91	Cu9	0.987210	0.057670	0.029280
Cu101	Cu10	0.078200	0.223940	0.986330
Cu111	Cu11	0.958180	0.827720	0.020360
Cu121	Cu12	0.651830	0.132340	0.003980
S71	S7	0.113650	0.215540	0.058210
S81	S8	0.800200	0.960420	0.050740
S91	S9	0.851400	0.186420	0.965500
O291	O29	0.951400	0.707800	0.044460
O301	O30	0.068900	0.600410	0.033020
O311	O31	0.025300	0.154000	0.060650
O321	O32	0.103300	0.278480	0.030240
O331	O33	0.198300	0.149500	0.053910
O341	O34	0.126000	0.273200	0.086460
O351	O35	0.881630	0.028300	0.058320
O361	O36	0.839700	0.860700	0.046330
O371	O37	0.754900	0.992600	0.020590
O381	O38	0.729700	0.961200	0.075940
O391	O39	0.921410	0.210000	0.990870
O401	O40	0.752100	0.196400	0.979120
O411	O41	0.867000	0.086100	0.954830
O421	O42	0.859700	0.253300	0.938810
N51	N5	0.861710	0.432740	0.219260
N61	N6	0.030880	0.412300	0.222130
C231	C23	0.942200	0.410000	0.234760
H151	H15	0.936400	0.391200	0.255900
C241	C24	0.869100	0.461600	0.188970
H161	H16	0.812600	0.476400	0.177600
C251	C25	0.959200	0.469700	0.174450
C261	C26	0.039400	0.442300	0.192180
H171	H17	0.101200	0.444800	0.183000
C271	C27	0.969500	0.508700	0.142050
C281	C28	0.908500	0.583400	0.131710
H181	H18	0.860400	0.607900	0.145200
C291	C29	0.918400	0.620700	0.102210
H191	H19	0.876300	0.670200	0.095600
C301	C30	0.990200	0.586700	0.081390
C311	C31	0.050000	0.511200	0.091200
H201	H20	0.097600	0.486400	0.077600
C321	C32	0.038800	0.472300	0.121360
H211	H21	0.078700	0.420800	0.127800
C331	C33	0.005100	0.635000	0.050460
Cu131	Cu13	0.012790	0.942330	0.529280
Cu141	Cu14	0.921800	0.776060	0.486330
Cu151	Cu15	0.041820	0.172280	0.520360
Cu161	Cu16	0.348170	0.867660	0.503980
S101	S10	0.886350	0.784460	0.558210
S111	S11	0.199800	0.039580	0.550740
S121	S12	0.148600	0.813580	0.465500
O431	O43	0.048600	0.292200	0.544460
O441	O44	0.931100	0.399590	0.533020
O451	O45	0.974700	0.846000	0.560650
O461	O46	0.896700	0.721520	0.530240
O471	O47	0.801700	0.850500	0.553910
O481	O48	0.874000	0.726800	0.586460
O491	O49	0.118370	0.971700	0.558320
O501	O50	0.160300	0.139300	0.546330
O511	O51	0.245100	0.007400	0.520590
O521	O52	0.270300	0.038800	0.575940
O531	O53	0.078590	0.790000	0.490870
O541	O54	0.247900	0.803600	0.479120
O551	O55	0.133000	0.913900	0.454830
O561	O56	0.140300	0.746700	0.438810
N71	N7	0.138290	0.567260	0.719260
N81	N8	0.969120	0.587700	0.722130
C341	C34	0.057800	0.590000	0.734760
H221	H22	0.063600	0.608800	0.755900
C351	C35	0.130900	0.538400	0.688970
H231	H23	0.187400	0.523600	0.677600
C361	C36	0.040800	0.530300	0.674450
C371	C37	0.960600	0.557700	0.692180
H241	H24	0.898800	0.555200	0.683000
C381	C38	0.030500	0.491300	0.642050
C391	C39	0.091500	0.416600	0.631710
H251	H25	0.139600	0.392100	0.645200
C401	C40	0.081600	0.379300	0.602210
H261	H26	0.123700	0.329800	0.595600
C411	C41	0.009800	0.413300	0.581390
C421	C42	0.950000	0.488800	0.591200
H271	H27	0.902400	0.513600	0.577600
C431	C43	0.961200	0.527700	0.621360
H281	H28	0.921300	0.579200	0.627800
C441	C44	0.994900	0.365000	0.550460
Cu171	Cu17	0.942330	0.012790	0.470720
Cu181	Cu18	0.776060	0.921800	0.513670
Cu191	Cu19	0.172280	0.041820	0.479640
Cu201	Cu20	0.867660	0.348170	0.496020
S131	S13	0.784460	0.886350	0.441790
S141	S14	0.039580	0.199800	0.449260
S151	S15	0.813580	0.148600	0.534500
O571	O57	0.292200	0.048600	0.455540
O581	O58	0.399590	0.931100	0.466980
O591	O59	0.846000	0.974700	0.439350
O601	O60	0.721520	0.896700	0.469760
O611	O61	0.850500	0.801700	0.446090
O621	O62	0.726800	0.874000	0.413540
O631	O63	0.971700	0.118370	0.441680
O641	O64	0.139300	0.160300	0.453670
O651	O65	0.007400	0.245100	0.479410
O661	O66	0.038800	0.270300	0.424060
O671	O67	0.790000	0.078590	0.509130
O681	O68	0.803600	0.247900	0.520880
O691	O69	0.913900	0.133000	0.545170
O701	O70	0.746700	0.140300	0.561190
N91	N9	0.567260	0.138290	0.280740
N101	N10	0.587700	0.969120	0.277870
C451	C45	0.590000	0.057800	0.265240
H291	H29	0.608800	0.063600	0.244100
C461	C46	0.538400	0.130900	0.311030
H301	H30	0.523600	0.187400	0.322400
C471	C47	0.530300	0.040800	0.325550
C481	C48	0.557700	0.960600	0.307820
H311	H31	0.555200	0.898800	0.317000
C491	C49	0.491300	0.030500	0.357950
C501	C50	0.416600	0.091500	0.368290
H321	H32	0.392100	0.139600	0.354800
C511	C51	0.379300	0.081600	0.397790
H331	H33	0.329800	0.123700	0.404400
C521	C52	0.413300	0.009800	0.418610
C531	C53	0.488800	0.950000	0.408800
H341	H34	0.513600	0.902400	0.422400
C541	C54	0.527700	0.961200	0.378640
H351	H35	0.579200	0.921300	0.372200
C551	C55	0.365000	0.994900	0.449540
Cu211	Cu21	0.057670	0.987210	0.970720
Cu221	Cu22	0.223940	0.078200	0.013670
Cu231	Cu23	0.827720	0.958180	0.979640
Cu241	Cu24	0.132340	0.651830	0.996020
S161	S16	0.215540	0.113650	0.941790
S171	S17	0.960420	0.800200	0.949260
S181	S18	0.186420	0.851400	0.034500
O711	O71	0.707800	0.951400	0.955540
O721	O72	0.600410	0.068900	0.966980
O731	O73	0.154000	0.025300	0.939350
O741	O74	0.278480	0.103300	0.969760
O751	O75	0.149500	0.198300	0.946090
O761	O76	0.273200	0.126000	0.913540
O771	O77	0.028300	0.881630	0.941680
O781	O78	0.860700	0.839700	0.953670
O791	O79	0.992600	0.754900	0.979410
O801	O80	0.961200	0.729700	0.924060
O811	O81	0.210000	0.921410	0.009130
O821	O82	0.196400	0.752100	0.020880
O831	O83	0.086100	0.867000	0.045170
O841	O84	0.253300	0.859700	0.061190
N111	N11	0.432740	0.861710	0.780740
N121	N12	0.412300	0.030880	0.777870
C561	C56	0.410000	0.942200	0.765240
H361	H36	0.391200	0.936400	0.744100
C571	C57	0.461600	0.869100	0.811030
H371	H37	0.476400	0.812600	0.822400
C581	C58	0.469700	0.959200	0.825550
C591	C59	0.442300	0.039400	0.807820
H381	H38	0.444800	0.101200	0.817000
C601	C60	0.508700	0.969500	0.857950
C611	C61	0.583400	0.908500	0.868290
H391	H39	0.607900	0.860400	0.854800
C621	C62	0.620700	0.918400	0.897790
H401	H40	0.670200	0.876300	0.904400
C631	C63	0.586700	0.990200	0.918610
C641	C64	0.511200	0.050000	0.908800
H411	H41	0.486400	0.097600	0.922400
C651	C65	0.472300	0.038800	0.878640
H421	H42	0.420800	0.078700	0.872200
C661	C66	0.635000	0.005100	0.949540
Cu251	Cu25	0.512790	0.557670	0.720720
Cu261	Cu26	0.421800	0.723940	0.763670
Cu271	Cu27	0.541820	0.327720	0.729640
Cu281	Cu28	0.848170	0.632340	0.746020
S191	S19	0.386350	0.715540	0.691790
S201	S20	0.699800	0.460420	0.699260
S211	S21	0.648600	0.686420	0.784500
O851	O85	0.548600	0.207800	0.705540
O861	O86	0.431100	0.100410	0.716980
O871	O87	0.474700	0.654000	0.689350
O881	O88	0.396700	0.778480	0.719760
O891	O89	0.301700	0.649500	0.696090
O901	O90	0.374000	0.773200	0.663540
O911	O91	0.618370	0.528300	0.691680
O921	O92	0.660300	0.360700	0.703670
O931	O93	0.745100	0.492600	0.729410
O941	O94	0.770300	0.461200	0.674060
O951	O95	0.578590	0.710000	0.759130
O961	O96	0.747900	0.696400	0.770880
O971	O97	0.633000	0.586100	0.795170
O981	O98	0.640300	0.753300	0.811190
N131	N13	0.638290	0.932740	0.530740
N141	N14	0.469120	0.912300	0.527870
C671	C67	0.557800	0.910000	0.515240
H431	H43	0.563600	0.891200	0.494100
C681	C68	0.630900	0.961600	0.561030
H441	H44	0.687400	0.976400	0.572400
C691	C69	0.540800	0.969700	0.575550
C701	C70	0.460600	0.942300	0.557820
H451	H45	0.398800	0.944800	0.567000
C711	C71	0.530500	0.008700	0.607950
C721	C72	0.591500	0.083400	0.618290
H461	H46	0.639600	0.107900	0.604800
C731	C73	0.581600	0.120700	0.647790
H471	H47	0.623700	0.170200	0.654400
C741	C74	0.509800	0.086700	0.668610
C751	C75	0.450000	0.011200	0.658800
H481	H48	0.402400	0.986400	0.672400
C761	C76	0.461200	0.972300	0.628640
H491	H49	0.421300	0.920800	0.622200
C771	C77	0.494900	0.135000	0.699540
Cu291	Cu29	0.487210	0.442330	0.220720
Cu301	Cu30	0.578200	0.276060	0.263670
Cu311	Cu31	0.458180	0.672280	0.229640
Cu321	Cu32	0.151830	0.367660	0.246020
S221	S22	0.613650	0.284460	0.191790
S231	S23	0.300200	0.539580	0.199260
S241	S24	0.351400	0.313580	0.284500
O991	O99	0.451400	0.792200	0.205540
O1001	O100	0.568900	0.899590	0.216980
O1011	O101	0.525300	0.346000	0.189350
O1021	O102	0.603300	0.221520	0.219760
O1031	O103	0.698300	0.350500	0.196090
O1041	O104	0.626000	0.226800	0.163540
O1051	O105	0.381630	0.471700	0.191680
O1061	O106	0.339700	0.639300	0.203670
O1071	O107	0.254900	0.507400	0.229410
O1081	O108	0.229700	0.538800	0.174060
O1091	O109	0.421410	0.290000	0.259130
O1101	O110	0.252100	0.303600	0.270880
O1111	O111	0.367000	0.413900	0.295170
O1121	O112	0.359700	0.246700	0.311190
N151	N15	0.361710	0.067260	0.030740
N161	N16	0.530880	0.087700	0.027870
C781	C78	0.442200	0.090000	0.015240
H501	H50	0.436400	0.108800	0.994100
C791	C79	0.369100	0.038400	0.061030
H511	H51	0.312600	0.023600	0.072400
C801	C80	0.459200	0.030300	0.075550
C811	C81	0.539400	0.057700	0.057820
H521	H52	0.601200	0.055200	0.067000
C821	C82	0.469500	0.991300	0.107950
C831	C83	0.408500	0.916600	0.118290
H531	H53	0.360400	0.892100	0.104800
C841	C84	0.418400	0.879300	0.147790
H541	H54	0.376300	0.829800	0.154400
C851	C85	0.490200	0.913300	0.168610
C861	C86	0.550000	0.988800	0.158800
H551	H55	0.597600	0.013600	0.172400
C871	C87	0.538800	0.027700	0.128640
H561	H56	0.578700	0.079200	0.122200
C881	C88	0.505100	0.865000	0.199540
O1131	O113	0.591060	0.408940	0.250000
O1141	O114	0.453890	0.546110	0.250000
O1151	O115	0.408940	0.591060	0.750000
O1161	O116	0.546110	0.453890	0.750000
O1171	O117	0.091060	0.091060	0.000000
O1181	O118	0.953890	0.953890	0.000000
O1191	O119	0.908940	0.908940	0.500000
O1201	O120	0.046110	0.046110	0.500000
