data_QIRWAR_clean_PM
_symmetry_space_group_name_H-M	'P1'
_cell_length_a	14.745000
_cell_length_b	11.024000
_cell_length_c	13.287000
_cell_angle_alpha	90.000000
_cell_angle_beta	97.270000
_cell_angle_gamma	90.000000
_symmetry_Int_Tables_number 1

loop_
_symmetry_equiv_pos_as_xyz
'x,y,z'

loop_
_atom_site_label
_atom_site_type_symbol
_atom_site_fract_x
_atom_site_fract_y
_atom_site_fract_z
Cu11	Cu1	0.014700	0.287420	0.233140
Cu21	Cu2	0.314410	0.197300	0.236520
O11	O1	0.943000	0.138700	0.211900
O21	O2	0.920910	0.943300	0.239200
O31	O3	0.127900	0.209700	0.219900
O41	O4	0.386200	0.346100	0.230800
O51	O5	0.450200	0.465900	0.127300
O61	O6	0.398900	0.422500	0.919800
N11	N1	0.229800	0.057800	0.242000
N21	N2	0.094900	0.891300	0.262200
N31	N3	0.301000	0.215000	0.083600
N41	N4	0.304900	0.264500	0.881800
C11	C1	0.141000	0.096100	0.233900
C21	C2	0.073200	0.006900	0.242800
C31	C3	0.973100	0.033500	0.230900
C41	C4	0.182500	0.856800	0.272600
H11	H1	0.198400	0.774600	0.287300
C51	C5	0.250100	0.941500	0.261800
H21	H2	0.312200	0.916300	0.268700
C61	C6	0.353800	0.335800	0.952300
C71	C7	0.350500	0.308100	0.056600
C81	C8	0.399200	0.378800	0.143100
C91	C9	0.253200	0.146500	0.012900
H31	H3	0.217700	0.080500	0.032100
C101	C10	0.255800	0.172200	0.911800
H41	H4	0.221700	0.123000	0.861900
Cu31	Cu3	0.985300	0.787420	0.266860
Cu41	Cu4	0.685590	0.697300	0.263480
O71	O7	0.057000	0.638700	0.288100
O81	O8	0.079090	0.443300	0.260800
O91	O9	0.872100	0.709700	0.280100
O101	O10	0.613800	0.846100	0.269200
O111	O11	0.549800	0.965900	0.372700
O121	O12	0.601100	0.922500	0.580200
N51	N5	0.770200	0.557800	0.258000
N61	N6	0.905100	0.391300	0.237800
N71	N7	0.699000	0.715000	0.416400
N81	N8	0.695100	0.764500	0.618200
C111	C11	0.859000	0.596100	0.266100
C121	C12	0.926800	0.506900	0.257200
C131	C13	0.026900	0.533500	0.269100
C141	C14	0.817500	0.356800	0.227400
H51	H5	0.801600	0.274600	0.212700
C151	C15	0.749900	0.441500	0.238200
H61	H6	0.687800	0.416300	0.231300
C161	C16	0.646200	0.835800	0.547700
C171	C17	0.649500	0.808100	0.443400
C181	C18	0.600800	0.878800	0.356900
C191	C19	0.746800	0.646500	0.487100
H71	H7	0.782300	0.580500	0.467900
C201	C20	0.744200	0.672200	0.588200
H81	H8	0.778300	0.623000	0.638100
Cu51	Cu5	0.985300	0.712580	0.766860
Cu61	Cu6	0.685590	0.802700	0.763480
O131	O13	0.057000	0.861300	0.788100
O141	O14	0.079090	0.056700	0.760800
O151	O15	0.872100	0.790300	0.780100
O161	O16	0.613800	0.653900	0.769200
O171	O17	0.549800	0.534100	0.872700
O181	O18	0.601100	0.577500	0.080200
N91	N9	0.770200	0.942200	0.758000
N101	N10	0.905100	0.108700	0.737800
N111	N11	0.699000	0.785000	0.916400
N121	N12	0.695100	0.735500	0.118200
C211	C21	0.859000	0.903900	0.766100
C221	C22	0.926800	0.993100	0.757200
C231	C23	0.026900	0.966500	0.769100
C241	C24	0.817500	0.143200	0.727400
H91	H9	0.801600	0.225400	0.712700
C251	C25	0.749900	0.058500	0.738200
H101	H10	0.687800	0.083700	0.731300
C261	C26	0.646200	0.664200	0.047700
C271	C27	0.649500	0.691900	0.943400
C281	C28	0.600800	0.621200	0.856900
C291	C29	0.746800	0.853500	0.987100
H111	H11	0.782300	0.919500	0.967900
C301	C30	0.744200	0.827800	0.088200
H121	H12	0.778300	0.877000	0.138100
Cu71	Cu7	0.014700	0.212580	0.733140
Cu81	Cu8	0.314410	0.302700	0.736520
O191	O19	0.943000	0.361300	0.711900
O201	O20	0.920910	0.556700	0.739200
O211	O21	0.127900	0.290300	0.719900
O221	O22	0.386200	0.153900	0.730800
O231	O23	0.450200	0.034100	0.627300
O241	O24	0.398900	0.077500	0.419800
N131	N13	0.229800	0.442200	0.742000
N141	N14	0.094900	0.608700	0.762200
N151	N15	0.301000	0.285000	0.583600
N161	N16	0.304900	0.235500	0.381800
C311	C31	0.141000	0.403900	0.733900
C321	C32	0.073200	0.493100	0.742800
C331	C33	0.973100	0.466500	0.730900
C341	C34	0.182500	0.643200	0.772600
H131	H13	0.198400	0.725400	0.787300
C351	C35	0.250100	0.558500	0.761800
H141	H14	0.312200	0.583700	0.768700
C361	C36	0.353800	0.164200	0.452300
C371	C37	0.350500	0.191900	0.556600
C381	C38	0.399200	0.121200	0.643100
C391	C39	0.253200	0.353500	0.512900
H151	H15	0.217700	0.419500	0.532100
C401	C40	0.255800	0.327800	0.411800
H161	H16	0.221700	0.377000	0.361900
Cu91	Cu9	0.500000	0.500000	0.000000
Cu101	Cu10	0.500000	0.000000	0.500000
