data_QISKIN_clean_PM
_symmetry_space_group_name_H-M	'P1'
_cell_length_a	8.757800
_cell_length_b	11.143000
_cell_length_c	12.529000
_cell_angle_alpha	84.479000
_cell_angle_beta	81.501000
_cell_angle_gamma	71.648000
_symmetry_Int_Tables_number 1

loop_
_symmetry_equiv_pos_as_xyz
'x,y,z'

loop_
_atom_site_label
_atom_site_type_symbol
_atom_site_fract_x
_atom_site_fract_y
_atom_site_fract_z
K11	K1	0.319300	0.640050	0.953100
K21	K2	0.944350	0.585400	0.150320
K31	K3	0.680700	0.359950	0.046900
K41	K4	0.055650	0.414600	0.849680
Cu11	Cu1	0.679670	0.977190	0.968040
Cu21	Cu2	0.320330	0.022810	0.031960
H11	H1	0.207800	0.124100	0.828200
H21	H2	0.177900	0.218900	0.659900
H31	H3	0.298600	0.276000	0.478800
H41	H4	0.770400	0.117100	0.384800
H51	H5	0.800500	0.999400	0.544200
H61	H6	0.810800	0.890100	0.680400
H71	H7	0.713400	0.832400	0.775400
H81	H8	0.024700	0.809300	0.785000
H91	H9	0.035200	0.880300	0.884700
H101	H10	0.970200	0.046800	0.752200
H111	H11	0.787100	0.117700	0.740300
H121	H12	0.340000	0.405000	0.135000
H131	H13	0.319000	0.367000	0.049000
H141	H14	0.653200	0.489300	0.242800
H151	H15	0.483800	0.668200	0.290100
H161	H16	0.413600	0.607900	0.208500
H171	H17	0.495300	0.713200	0.167600
H181	H18	0.792200	0.875900	0.171800
H191	H19	0.822100	0.781100	0.340100
H201	H20	0.701400	0.724000	0.521200
H211	H21	0.229600	0.882900	0.615200
H221	H22	0.199500	0.000600	0.455800
H231	H23	0.189200	0.109900	0.319600
H241	H24	0.286600	0.167600	0.224600
H251	H25	0.975300	0.190700	0.215000
H261	H26	0.964800	0.119700	0.115300
H271	H27	0.029800	0.953200	0.247800
H281	H28	0.212900	0.882300	0.259700
H291	H29	0.660000	0.595000	0.865000
H301	H30	0.681000	0.633000	0.951000
H311	H31	0.346800	0.510700	0.757200
H321	H32	0.516200	0.331800	0.709900
H331	H33	0.586400	0.392100	0.791500
H341	H34	0.504700	0.286800	0.832400
C11	C1	0.451400	0.034300	0.801210
C21	C2	0.297600	0.112000	0.775890
C31	C3	0.280100	0.169200	0.675540
C41	C4	0.414100	0.154500	0.594920
C51	C5	0.399600	0.222700	0.493520
C61	C6	0.531300	0.211800	0.416760
C71	C7	0.681300	0.126400	0.437510
C81	C8	0.700000	0.056600	0.533410
C91	C9	0.567300	0.070400	0.616720
C101	C10	0.583200	0.007000	0.721300
C111	C11	0.737300	0.909400	0.746760
C121	C12	0.965100	0.846800	0.851460
C131	C13	0.918500	0.745700	0.927360
C141	C14	0.861000	0.068000	0.790100
C151	C15	0.849400	0.145500	0.886190
C161	C16	0.520500	0.292900	0.313700
C171	C17	0.498600	0.641800	0.217600
C181	C18	0.548600	0.965700	0.198790
C191	C19	0.702400	0.888000	0.224110
C201	C20	0.719900	0.830800	0.324460
C211	C21	0.585900	0.845500	0.405080
C221	C22	0.600400	0.777300	0.506480
C231	C23	0.468700	0.788200	0.583240
C241	C24	0.318700	0.873600	0.562490
C251	C25	0.300000	0.943400	0.466590
C261	C26	0.432700	0.929600	0.383280
C271	C27	0.416800	0.993000	0.278700
C281	C28	0.262700	0.090600	0.253240
C291	C29	0.034900	0.153200	0.148540
C301	C30	0.081500	0.254300	0.072640
C311	C31	0.139000	0.932000	0.209900
C321	C32	0.150600	0.854500	0.113810
C331	C33	0.479500	0.707100	0.686300
C341	C34	0.501400	0.358200	0.782400
N11	N1	0.819800	0.950620	0.826440
N21	N2	0.180200	0.049380	0.173560
O11	O1	0.470450	0.985620	0.902400
O21	O2	0.782330	0.781110	0.986780
O31	O3	0.014800	0.637760	0.929530
O41	O4	0.775000	0.114690	0.975410
O51	O5	0.905600	0.234670	0.873710
O61	O6	0.384900	0.342600	0.281950
O71	O7	0.649800	0.307900	0.266080
O81	O8	0.343500	0.420900	0.073910
O91	O9	0.648800	0.548800	0.198200
O101	O10	0.529550	0.014380	0.097600
O111	O11	0.217670	0.218890	0.013220
O121	O12	0.985200	0.362240	0.070470
O131	O13	0.225000	0.885310	0.024590
O141	O14	0.094400	0.765330	0.126290
O151	O15	0.615100	0.657400	0.718050
O161	O16	0.350200	0.692100	0.733920
O171	O17	0.656500	0.579100	0.926090
O181	O18	0.351200	0.451200	0.801800
