data_QISNEN_clean_PM
_symmetry_space_group_name_H-M	'P1'
_cell_length_a	12.817400
_cell_length_b	15.031800
_cell_length_c	15.444800
_cell_angle_alpha	90.000000
_cell_angle_beta	90.000000
_cell_angle_gamma	90.000000
_symmetry_Int_Tables_number 1

loop_
_symmetry_equiv_pos_as_xyz
'x,y,z'

loop_
_atom_site_label
_atom_site_type_symbol
_atom_site_fract_x
_atom_site_fract_y
_atom_site_fract_z
Cd11	Cd1	0.237750	0.216340	0.226310
Br11	Br1	0.094430	0.294510	0.311830
C11	C1	0.184100	0.110900	0.066600
C21	C2	0.126900	0.095700	0.982500
C31	C3	0.156100	0.024900	0.928500
H11	H1	0.211300	0.988200	0.944500
C41	C4	0.104200	0.009100	0.852700
C51	C5	0.025200	0.066200	0.825200
H21	H2	0.991400	0.056900	0.772700
C61	C6	0.997700	0.138600	0.879000
C71	C7	0.048200	0.153000	0.955400
H31	H3	0.030000	0.201500	0.989600
C81	C8	0.910500	0.200000	0.849100
C91	C9	0.133000	0.932100	0.793900
O11	O1	0.148600	0.170100	0.114300
O21	O2	0.261800	0.063000	0.081200
O31	O3	0.884300	0.261900	0.898200
O41	O4	0.865100	0.182600	0.778400
O51	O5	0.073900	0.914000	0.732900
O61	O6	0.214400	0.890600	0.814000
Cd21	Cd2	0.435570	0.093030	0.087850
Cd31	Cd3	0.262250	0.783660	0.726310
Br21	Br2	0.405570	0.705490	0.811830
C101	C10	0.315900	0.889100	0.566600
C111	C11	0.373100	0.904300	0.482500
C121	C12	0.343900	0.975100	0.428500
H41	H4	0.288700	0.011800	0.444500
C131	C13	0.395800	0.990900	0.352700
C141	C14	0.474800	0.933800	0.325200
H51	H5	0.508600	0.943100	0.272700
C151	C15	0.502300	0.861400	0.379000
C161	C16	0.451800	0.847000	0.455400
H61	H6	0.470000	0.798500	0.489600
C171	C17	0.589500	0.800000	0.349100
C181	C18	0.367000	0.067900	0.293900
O71	O7	0.351400	0.829900	0.614300
O81	O8	0.238200	0.937000	0.581200
O91	O9	0.615700	0.738100	0.398200
O101	O10	0.634900	0.817400	0.278400
O111	O11	0.426100	0.086000	0.232900
O121	O12	0.285600	0.109400	0.314000
Cd41	Cd4	0.064430	0.906970	0.587850
Cd51	Cd5	0.762250	0.716340	0.273690
Br31	Br3	0.905570	0.794510	0.188170
C191	C19	0.815900	0.610900	0.433400
C201	C20	0.873100	0.595700	0.517500
C211	C21	0.843900	0.524900	0.571500
H71	H7	0.788700	0.488200	0.555500
C221	C22	0.895800	0.509100	0.647300
C231	C23	0.974800	0.566200	0.674800
H81	H8	0.008600	0.556900	0.727300
C241	C24	0.002300	0.638600	0.621000
C251	C25	0.951800	0.653000	0.544600
H91	H9	0.970000	0.701500	0.510400
C261	C26	0.089500	0.700000	0.650900
C271	C27	0.867000	0.432100	0.706100
O131	O13	0.851400	0.670100	0.385700
O141	O14	0.738200	0.563000	0.418800
O151	O15	0.115700	0.761900	0.601800
O161	O16	0.134900	0.682600	0.721600
O171	O17	0.926100	0.414000	0.767100
O181	O18	0.785600	0.390600	0.686000
Cd61	Cd6	0.564430	0.593030	0.412150
Cd71	Cd7	0.737750	0.283660	0.773690
Br41	Br4	0.594430	0.205490	0.688170
C281	C28	0.684100	0.389100	0.933400
C291	C29	0.626900	0.404300	0.017500
C301	C30	0.656100	0.475100	0.071500
H101	H10	0.711300	0.511800	0.055500
C311	C31	0.604200	0.490900	0.147300
C321	C32	0.525200	0.433800	0.174800
H111	H11	0.491400	0.443100	0.227300
C331	C33	0.497700	0.361400	0.121000
C341	C34	0.548200	0.347000	0.044600
H121	H12	0.530000	0.298500	0.010400
C351	C35	0.410500	0.300000	0.150900
C361	C36	0.633000	0.567900	0.206100
O191	O19	0.648600	0.329900	0.885700
O201	O20	0.761800	0.437000	0.918800
O211	O21	0.384300	0.238100	0.101800
O221	O22	0.365100	0.317400	0.221600
O231	O23	0.573900	0.586000	0.267100
O241	O24	0.714400	0.609400	0.186000
Cd81	Cd8	0.935570	0.406970	0.912150
