data_QISNAJ_clean_PM
_symmetry_space_group_name_H-M	'P1'
_cell_length_a	12.779200
_cell_length_b	14.817500
_cell_length_c	15.473700
_cell_angle_alpha	90.000000
_cell_angle_beta	90.000000
_cell_angle_gamma	90.000000
_symmetry_Int_Tables_number 1

loop_
_symmetry_equiv_pos_as_xyz
'x,y,z'

loop_
_atom_site_label
_atom_site_type_symbol
_atom_site_fract_x
_atom_site_fract_y
_atom_site_fract_z
Cd11	Cd1	0.235070	0.719830	0.272480
Cd21	Cd2	0.433400	0.592610	0.408750
Cl11	Cl1	0.100300	0.799200	0.193240
O11	O1	0.259900	0.562500	0.414300
O21	O2	0.145500	0.670800	0.382300
O31	O3	0.881300	0.760100	0.601800
O41	O4	0.864100	0.678600	0.718900
O51	O5	0.078900	0.408900	0.764300
O61	O6	0.218600	0.387000	0.682700
C11	C1	0.182200	0.610600	0.431600
C21	C2	0.908900	0.697200	0.650500
C31	C3	0.137900	0.428400	0.702300
C41	C4	0.126700	0.594400	0.514500
C51	C5	0.047100	0.652300	0.543200
H11	H1	0.028200	0.701700	0.509500
C61	C6	0.996100	0.636900	0.620900
C71	C7	0.026100	0.563600	0.672200
H21	H2	0.992000	0.552600	0.724200
C81	C8	0.106300	0.507600	0.645600
C91	C9	0.155400	0.523600	0.568800
H31	H3	0.209900	0.485900	0.552000
Cd31	Cd3	0.264930	0.280170	0.772480
Cd41	Cd4	0.066600	0.407390	0.908750
Cl21	Cl2	0.399700	0.200800	0.693240
O71	O7	0.240100	0.437500	0.914300
O81	O8	0.354500	0.329200	0.882300
O91	O9	0.618700	0.239900	0.101800
O101	O10	0.635900	0.321400	0.218900
O111	O11	0.421100	0.591100	0.264300
O121	O12	0.281400	0.613000	0.182700
C101	C10	0.317800	0.389400	0.931600
C111	C11	0.591100	0.302800	0.150500
C121	C12	0.362100	0.571600	0.202300
C131	C13	0.373300	0.405600	0.014500
C141	C14	0.452900	0.347700	0.043200
H41	H4	0.471800	0.298300	0.009500
C151	C15	0.503900	0.363100	0.120900
C161	C16	0.473900	0.436400	0.172200
H51	H5	0.508000	0.447400	0.224200
C171	C17	0.393700	0.492400	0.145600
C181	C18	0.344600	0.476400	0.068800
H61	H6	0.290100	0.514100	0.052000
Cd51	Cd5	0.764930	0.219830	0.227520
Cd61	Cd6	0.566600	0.092610	0.091250
Cl31	Cl3	0.899700	0.299200	0.306760
O131	O13	0.740100	0.062500	0.085700
O141	O14	0.854500	0.170800	0.117700
O151	O15	0.118700	0.260100	0.898200
O161	O16	0.135900	0.178600	0.781100
O171	O17	0.921100	0.908900	0.735700
O181	O18	0.781400	0.887000	0.817300
C191	C19	0.817800	0.110600	0.068400
C201	C20	0.091100	0.197200	0.849500
C211	C21	0.862100	0.928400	0.797700
C221	C22	0.873300	0.094400	0.985500
C231	C23	0.952900	0.152300	0.956800
H71	H7	0.971800	0.201700	0.990500
C241	C24	0.003900	0.136900	0.879100
C251	C25	0.973900	0.063600	0.827800
H81	H8	0.008000	0.052600	0.775800
C261	C26	0.893700	0.007600	0.854400
C271	C27	0.844600	0.023600	0.931200
H91	H9	0.790100	0.985900	0.948000
Cd71	Cd7	0.735070	0.780170	0.727520
Cd81	Cd8	0.933400	0.907390	0.591250
Cl41	Cl4	0.600300	0.700800	0.806760
O191	O19	0.759900	0.937500	0.585700
O201	O20	0.645500	0.829200	0.617700
O211	O21	0.381300	0.739900	0.398200
O221	O22	0.364100	0.821400	0.281100
O231	O23	0.578900	0.091100	0.235700
O241	O24	0.718600	0.113000	0.317300
C281	C28	0.682200	0.889400	0.568400
C291	C29	0.408900	0.802800	0.349500
C301	C30	0.637900	0.071600	0.297700
C311	C31	0.626700	0.905600	0.485500
C321	C32	0.547100	0.847700	0.456800
H101	H10	0.528200	0.798300	0.490500
C331	C33	0.496100	0.863100	0.379100
C341	C34	0.526100	0.936400	0.327800
H111	H11	0.492000	0.947400	0.275800
C351	C35	0.606300	0.992400	0.354400
C361	C36	0.655400	0.976400	0.431200
H121	H12	0.709900	0.014100	0.448000
