data_QISVEU_clean_PM
_symmetry_space_group_name_H-M	'P1'
_cell_length_a	18.876400
_cell_length_b	18.876400
_cell_length_c	18.876400
_cell_angle_alpha	72.968700
_cell_angle_beta	72.968700
_cell_angle_gamma	72.968700
_symmetry_Int_Tables_number 1

loop_
_symmetry_equiv_pos_as_xyz
'x,y,z'

loop_
_atom_site_label
_atom_site_type_symbol
_atom_site_fract_x
_atom_site_fract_y
_atom_site_fract_z
Cu11	Cu1	0.410570	0.268590	0.851910
Cu21	Cu2	0.851910	0.410570	0.268590
Cu31	Cu3	0.268590	0.851910	0.410570
Cu41	Cu4	0.231410	0.089430	0.648090
Cu51	Cu5	0.089430	0.648090	0.231410
Cu61	Cu6	0.648090	0.231410	0.089430
Cu71	Cu7	0.589430	0.731410	0.148090
Cu81	Cu8	0.148090	0.589430	0.731410
Cu91	Cu9	0.731410	0.148090	0.589430
Cu101	Cu10	0.768590	0.910570	0.351910
Cu111	Cu11	0.910570	0.351910	0.768590
Cu121	Cu12	0.351910	0.768590	0.910570
H11	H1	0.440200	0.304200	0.983800
H21	H2	0.374800	0.370400	0.078100
H31	H3	0.184000	0.403200	0.006900
H41	H4	0.255000	0.335600	0.915900
H51	H5	0.983800	0.440200	0.304200
H61	H6	0.078100	0.374800	0.370400
H71	H7	0.006900	0.184000	0.403200
H81	H8	0.915900	0.255000	0.335600
H91	H9	0.304200	0.983800	0.440200
H101	H10	0.370400	0.078100	0.374800
H111	H11	0.403200	0.006900	0.184000
H121	H12	0.335600	0.915900	0.255000
H131	H13	0.195800	0.059800	0.516200
H141	H14	0.129600	0.125200	0.421900
H151	H15	0.096800	0.316000	0.493100
H161	H16	0.164400	0.245000	0.584100
H171	H17	0.059800	0.516200	0.195800
H181	H18	0.125200	0.421900	0.129600
H191	H19	0.316000	0.493100	0.096800
H201	H20	0.245000	0.584100	0.164400
H211	H21	0.516200	0.195800	0.059800
H221	H22	0.421900	0.129600	0.125200
H231	H23	0.493100	0.096800	0.316000
H241	H24	0.584100	0.164400	0.245000
H251	H25	0.559800	0.695800	0.016200
H261	H26	0.625200	0.629600	0.921900
H271	H27	0.816000	0.596800	0.993100
H281	H28	0.745000	0.664400	0.084100
H291	H29	0.016200	0.559800	0.695800
H301	H30	0.921900	0.625200	0.629600
H311	H31	0.993100	0.816000	0.596800
H321	H32	0.084100	0.745000	0.664400
H331	H33	0.695800	0.016200	0.559800
H341	H34	0.629600	0.921900	0.625200
H351	H35	0.596800	0.993100	0.816000
H361	H36	0.664400	0.084100	0.745000
H371	H37	0.804200	0.940200	0.483800
H381	H38	0.870400	0.874800	0.578100
H391	H39	0.903200	0.684000	0.506900
H401	H40	0.835600	0.755000	0.415900
H411	H41	0.940200	0.483800	0.804200
H421	H42	0.874800	0.578100	0.870400
H431	H43	0.684000	0.506900	0.903200
H441	H44	0.755000	0.415900	0.835600
H451	H45	0.483800	0.804200	0.940200
H461	H46	0.578100	0.870400	0.874800
H471	H47	0.506900	0.903200	0.684000
H481	H48	0.415900	0.835600	0.755000
H491	H49	0.056430	0.056430	0.056430
H501	H50	0.443570	0.443570	0.443570
H511	H51	0.943570	0.943570	0.943570
H521	H52	0.556430	0.556430	0.556430
C11	C1	0.342610	0.145310	0.946610
C21	C2	0.280170	0.913970	0.919270
C31	C3	0.284870	0.097570	0.962270
C41	C4	0.304300	0.033400	0.933000
C51	C5	0.256710	0.984010	0.952910
C61	C6	0.187260	0.000160	0.004860
C71	C7	0.162050	0.066450	0.033050
C81	C8	0.212900	0.114000	0.009500
C91	C9	0.387810	0.325210	0.988510
C101	C10	0.349300	0.365000	0.044800
C111	C11	0.271560	0.397060	0.050760
C121	C12	0.236600	0.384300	0.002900
C131	C13	0.279440	0.343640	0.948640
C141	C14	0.946610	0.342610	0.145310
C151	C15	0.919270	0.280170	0.913970
C161	C16	0.962270	0.284870	0.097570
C171	C17	0.933000	0.304300	0.033400
C181	C18	0.952910	0.256710	0.984010
C191	C19	0.004860	0.187260	0.000160
C201	C20	0.033050	0.162050	0.066450
C211	C21	0.009500	0.212900	0.114000
C221	C22	0.988510	0.387810	0.325210
C231	C23	0.044800	0.349300	0.365000
C241	C24	0.050760	0.271560	0.397060
C251	C25	0.002900	0.236600	0.384300
C261	C26	0.948640	0.279440	0.343640
C271	C27	0.145310	0.946610	0.342610
C281	C28	0.913970	0.919270	0.280170
C291	C29	0.097570	0.962270	0.284870
C301	C30	0.033400	0.933000	0.304300
C311	C31	0.984010	0.952910	0.256710
C321	C32	0.000160	0.004860	0.187260
C331	C33	0.066450	0.033050	0.162050
C341	C34	0.114000	0.009500	0.212900
C351	C35	0.325210	0.988510	0.387810
C361	C36	0.365000	0.044800	0.349300
C371	C37	0.397060	0.050760	0.271560
C381	C38	0.384300	0.002900	0.236600
C391	C39	0.343640	0.948640	0.279440
C401	C40	0.354690	0.157390	0.553390
C411	C41	0.586030	0.219830	0.580730
C421	C42	0.402430	0.215130	0.537730
C431	C43	0.466600	0.195700	0.567000
C441	C44	0.515990	0.243290	0.547090
C451	C45	0.499840	0.312740	0.495140
C461	C46	0.433550	0.337950	0.466950
C471	C47	0.386000	0.287100	0.490500
C481	C48	0.174790	0.112190	0.511490
C491	C49	0.135000	0.150700	0.455200
C501	C50	0.102940	0.228440	0.449240
C511	C51	0.115700	0.263400	0.497100
C521	C52	0.156360	0.220560	0.551360
C531	C53	0.157390	0.553390	0.354690
C541	C54	0.219830	0.580730	0.586030
C551	C55	0.215130	0.537730	0.402430
C561	C56	0.195700	0.567000	0.466600
C571	C57	0.243290	0.547090	0.515990
C581	C58	0.312740	0.495140	0.499840
C591	C59	0.337950	0.466950	0.433550
C601	C60	0.287100	0.490500	0.386000
C611	C61	0.112190	0.511490	0.174790
C621	C62	0.150700	0.455200	0.135000
C631	C63	0.228440	0.449240	0.102940
C641	C64	0.263400	0.497100	0.115700
C651	C65	0.220560	0.551360	0.156360
C661	C66	0.553390	0.354690	0.157390
C671	C67	0.580730	0.586030	0.219830
C681	C68	0.537730	0.402430	0.215130
C691	C69	0.567000	0.466600	0.195700
C701	C70	0.547090	0.515990	0.243290
C711	C71	0.495140	0.499840	0.312740
C721	C72	0.466950	0.433550	0.337950
C731	C73	0.490500	0.386000	0.287100
C741	C74	0.511490	0.174790	0.112190
C751	C75	0.455200	0.135000	0.150700
C761	C76	0.449240	0.102940	0.228440
C771	C77	0.497100	0.115700	0.263400
C781	C78	0.551360	0.156360	0.220560
C791	C79	0.657390	0.854690	0.053390
C801	C80	0.719830	0.086030	0.080730
C811	C81	0.715130	0.902430	0.037730
C821	C82	0.695700	0.966600	0.067000
C831	C83	0.743290	0.015990	0.047090
C841	C84	0.812740	0.999840	0.995140
C851	C85	0.837950	0.933550	0.966950
C861	C86	0.787100	0.886000	0.990500
C871	C87	0.612190	0.674790	0.011490
C881	C88	0.650700	0.635000	0.955200
C891	C89	0.728440	0.602940	0.949240
C901	C90	0.763400	0.615700	0.997100
C911	C91	0.720560	0.656360	0.051360
C921	C92	0.053390	0.657390	0.854690
C931	C93	0.080730	0.719830	0.086030
C941	C94	0.037730	0.715130	0.902430
C951	C95	0.067000	0.695700	0.966600
C961	C96	0.047090	0.743290	0.015990
C971	C97	0.995140	0.812740	0.999840
C981	C98	0.966950	0.837950	0.933550
C991	C99	0.990500	0.787100	0.886000
C1001	C100	0.011490	0.612190	0.674790
C1011	C101	0.955200	0.650700	0.635000
C1021	C102	0.949240	0.728440	0.602940
C1031	C103	0.997100	0.763400	0.615700
C1041	C104	0.051360	0.720560	0.656360
C1051	C105	0.854690	0.053390	0.657390
C1061	C106	0.086030	0.080730	0.719830
C1071	C107	0.902430	0.037730	0.715130
C1081	C108	0.966600	0.067000	0.695700
C1091	C109	0.015990	0.047090	0.743290
C1101	C110	0.999840	0.995140	0.812740
C1111	C111	0.933550	0.966950	0.837950
C1121	C112	0.886000	0.990500	0.787100
C1131	C113	0.674790	0.011490	0.612190
C1141	C114	0.635000	0.955200	0.650700
C1151	C115	0.602940	0.949240	0.728440
C1161	C116	0.615700	0.997100	0.763400
C1171	C117	0.656360	0.051360	0.720560
C1181	C118	0.645310	0.842610	0.446610
C1191	C119	0.413970	0.780170	0.419270
C1201	C120	0.597570	0.784870	0.462270
C1211	C121	0.533400	0.804300	0.433000
C1221	C122	0.484010	0.756710	0.452910
C1231	C123	0.500160	0.687260	0.504860
C1241	C124	0.566450	0.662050	0.533050
C1251	C125	0.614000	0.712900	0.509500
C1261	C126	0.825210	0.887810	0.488510
C1271	C127	0.865000	0.849300	0.544800
C1281	C128	0.897060	0.771560	0.550760
C1291	C129	0.884300	0.736600	0.502900
C1301	C130	0.843640	0.779440	0.448640
C1311	C131	0.842610	0.446610	0.645310
C1321	C132	0.780170	0.419270	0.413970
C1331	C133	0.784870	0.462270	0.597570
C1341	C134	0.804300	0.433000	0.533400
C1351	C135	0.756710	0.452910	0.484010
C1361	C136	0.687260	0.504860	0.500160
C1371	C137	0.662050	0.533050	0.566450
C1381	C138	0.712900	0.509500	0.614000
C1391	C139	0.887810	0.488510	0.825210
C1401	C140	0.849300	0.544800	0.865000
C1411	C141	0.771560	0.550760	0.897060
C1421	C142	0.736600	0.502900	0.884300
C1431	C143	0.779440	0.448640	0.843640
C1441	C144	0.446610	0.645310	0.842610
C1451	C145	0.419270	0.413970	0.780170
C1461	C146	0.462270	0.597570	0.784870
C1471	C147	0.433000	0.533400	0.804300
C1481	C148	0.452910	0.484010	0.756710
C1491	C149	0.504860	0.500160	0.687260
C1501	C150	0.533050	0.566450	0.662050
C1511	C151	0.509500	0.614000	0.712900
C1521	C152	0.488510	0.825210	0.887810
C1531	C153	0.544800	0.865000	0.849300
C1541	C154	0.550760	0.897060	0.771560
C1551	C155	0.502900	0.884300	0.736600
C1561	C156	0.448640	0.843640	0.779440
C1571	C157	0.080430	0.080430	0.080430
C1581	C158	0.419570	0.419570	0.419570
C1591	C159	0.919570	0.919570	0.919570
C1601	C160	0.580430	0.580430	0.580430
N11	N1	0.353560	0.315560	0.940760
N21	N2	0.940760	0.353560	0.315560
N31	N3	0.315560	0.940760	0.353560
N41	N4	0.184440	0.146440	0.559240
N51	N5	0.146440	0.559240	0.184440
N61	N6	0.559240	0.184440	0.146440
N71	N7	0.646440	0.684440	0.059240
N81	N8	0.059240	0.646440	0.684440
N91	N9	0.684440	0.059240	0.646440
N101	N10	0.815560	0.853560	0.440760
N111	N11	0.853560	0.440760	0.815560
N121	N12	0.440760	0.815560	0.853560
Cl11	Cl1	0.391440	0.014990	0.869700
Cl21	Cl2	0.131400	0.934510	0.031690
Cl31	Cl3	0.189980	0.197820	0.039890
Cl41	Cl4	0.869700	0.391440	0.014990
Cl51	Cl5	0.031690	0.131400	0.934510
Cl61	Cl6	0.039890	0.189980	0.197820
Cl71	Cl7	0.014990	0.869700	0.391440
Cl81	Cl8	0.934510	0.031690	0.131400
Cl91	Cl9	0.197820	0.039890	0.189980
Cl101	Cl10	0.485010	0.108560	0.630300
Cl111	Cl11	0.565490	0.368600	0.468310
Cl121	Cl12	0.302180	0.310020	0.460110
Cl131	Cl13	0.108560	0.630300	0.485010
Cl141	Cl14	0.368600	0.468310	0.565490
Cl151	Cl15	0.310020	0.460110	0.302180
Cl161	Cl16	0.630300	0.485010	0.108560
Cl171	Cl17	0.468310	0.565490	0.368600
Cl181	Cl18	0.460110	0.302180	0.310020
Cl191	Cl19	0.608560	0.985010	0.130300
Cl201	Cl20	0.868600	0.065490	0.968310
Cl211	Cl21	0.810020	0.802180	0.960110
Cl221	Cl22	0.130300	0.608560	0.985010
Cl231	Cl23	0.968310	0.868600	0.065490
Cl241	Cl24	0.960110	0.810020	0.802180
Cl251	Cl25	0.985010	0.130300	0.608560
Cl261	Cl26	0.065490	0.968310	0.868600
Cl271	Cl27	0.802180	0.960110	0.810020
Cl281	Cl28	0.514990	0.891440	0.369700
Cl291	Cl29	0.434510	0.631400	0.531690
Cl301	Cl30	0.697820	0.689980	0.539890
Cl311	Cl31	0.891440	0.369700	0.514990
Cl321	Cl32	0.631400	0.531690	0.434510
Cl331	Cl33	0.689980	0.539890	0.697820
Cl341	Cl34	0.369700	0.514990	0.891440
Cl351	Cl35	0.531690	0.434510	0.631400
Cl361	Cl36	0.539890	0.697820	0.689980
O11	O1	0.344100	0.196740	0.886790
O21	O2	0.382630	0.129230	0.992630
O31	O3	0.307400	0.852760	0.961410
O41	O4	0.272730	0.922310	0.854050
O51	O5	0.886790	0.344100	0.196740
O61	O6	0.992630	0.382630	0.129230
O71	O7	0.961410	0.307400	0.852760
O81	O8	0.854050	0.272730	0.922310
O91	O9	0.196740	0.886790	0.344100
O101	O10	0.129230	0.992630	0.382630
O111	O11	0.852760	0.961410	0.307400
O121	O12	0.922310	0.854050	0.272730
O131	O13	0.303260	0.155900	0.613210
O141	O14	0.370770	0.117370	0.507370
O151	O15	0.647240	0.192600	0.538590
O161	O16	0.577690	0.227270	0.645950
O171	O17	0.155900	0.613210	0.303260
O181	O18	0.117370	0.507370	0.370770
O191	O19	0.192600	0.538590	0.647240
O201	O20	0.227270	0.645950	0.577690
O211	O21	0.613210	0.303260	0.155900
O221	O22	0.507370	0.370770	0.117370
O231	O23	0.538590	0.647240	0.192600
O241	O24	0.645950	0.577690	0.227270
O251	O25	0.655900	0.803260	0.113210
O261	O26	0.617370	0.870770	0.007370
O271	O27	0.692600	0.147240	0.038590
O281	O28	0.727270	0.077690	0.145950
O291	O29	0.113210	0.655900	0.803260
O301	O30	0.007370	0.617370	0.870770
O311	O31	0.038590	0.692600	0.147240
O321	O32	0.145950	0.727270	0.077690
O331	O33	0.803260	0.113210	0.655900
O341	O34	0.870770	0.007370	0.617370
O351	O35	0.147240	0.038590	0.692600
O361	O36	0.077690	0.145950	0.727270
O371	O37	0.696740	0.844100	0.386790
O381	O38	0.629230	0.882630	0.492630
O391	O39	0.352760	0.807400	0.461410
O401	O40	0.422310	0.772730	0.354050
O411	O41	0.844100	0.386790	0.696740
O421	O42	0.882630	0.492630	0.629230
O431	O43	0.807400	0.461410	0.352760
O441	O44	0.772730	0.354050	0.422310
O451	O45	0.386790	0.696740	0.844100
O461	O46	0.492630	0.629230	0.882630
O471	O47	0.461410	0.352760	0.807400
O481	O48	0.354050	0.422310	0.772730
