data_QISVAQ_clean_PM
_symmetry_space_group_name_H-M	'P1'
_cell_length_a	18.832700
_cell_length_b	18.832700
_cell_length_c	18.832700
_cell_angle_alpha	72.807700
_cell_angle_beta	72.807700
_cell_angle_gamma	72.807700
_symmetry_Int_Tables_number 1

loop_
_symmetry_equiv_pos_as_xyz
'x,y,z'

loop_
_atom_site_label
_atom_site_type_symbol
_atom_site_fract_x
_atom_site_fract_y
_atom_site_fract_z
Cu11	Cu1	0.412820	0.268270	0.850360
Cu21	Cu2	0.850360	0.412820	0.268270
Cu31	Cu3	0.268270	0.850360	0.412820
Cu41	Cu4	0.231730	0.087190	0.649640
Cu51	Cu5	0.087180	0.649640	0.231730
Cu61	Cu6	0.649640	0.231730	0.087180
Cu71	Cu7	0.587180	0.731730	0.149640
Cu81	Cu8	0.149640	0.587180	0.731730
Cu91	Cu9	0.731730	0.149640	0.587180
Cu101	Cu10	0.768270	0.912820	0.350360
Cu111	Cu11	0.912820	0.350360	0.768270
Cu121	Cu12	0.350360	0.768270	0.912820
H11	H1	0.439600	0.305000	0.981800
H21	H2	0.373200	0.375100	0.074100
H31	H3	0.184600	0.413900	0.995900
H41	H4	0.255900	0.342000	0.908000
H51	H5	0.981800	0.439600	0.305000
H61	H6	0.074100	0.373200	0.375100
H71	H7	0.995900	0.184600	0.413900
H81	H8	0.908000	0.255900	0.342000
H91	H9	0.305000	0.981800	0.439600
H101	H10	0.375100	0.074100	0.373200
H111	H11	0.413900	0.995900	0.184600
H121	H12	0.342000	0.908000	0.255900
H131	H13	0.195000	0.060400	0.518200
H141	H14	0.124900	0.126800	0.425900
H151	H15	0.086100	0.315400	0.504100
H161	H16	0.158000	0.244100	0.592000
H171	H17	0.060400	0.518200	0.195000
H181	H18	0.126800	0.425900	0.124900
H191	H19	0.315400	0.504100	0.086100
H201	H20	0.244100	0.592000	0.158000
H211	H21	0.518200	0.195000	0.060400
H221	H22	0.425900	0.124900	0.126800
H231	H23	0.504100	0.086100	0.315400
H241	H24	0.592000	0.158000	0.244100
H251	H25	0.560400	0.695000	0.018200
H261	H26	0.626800	0.624900	0.925900
H271	H27	0.815400	0.586100	0.004100
H281	H28	0.744100	0.658000	0.092000
H291	H29	0.018200	0.560400	0.695000
H301	H30	0.925900	0.626800	0.624900
H311	H31	0.004100	0.815400	0.586100
H321	H32	0.092000	0.744100	0.658000
H331	H33	0.695000	0.018200	0.560400
H341	H34	0.624900	0.925900	0.626800
H351	H35	0.586100	0.004100	0.815400
H361	H36	0.658000	0.092000	0.744100
H371	H37	0.805000	0.939600	0.481800
H381	H38	0.875100	0.873200	0.574100
H391	H39	0.913900	0.684600	0.495900
H401	H40	0.842000	0.755900	0.408000
H411	H41	0.939600	0.481800	0.805000
H421	H42	0.873200	0.574100	0.875100
H431	H43	0.684600	0.495900	0.913900
H441	H44	0.755900	0.408000	0.842000
H451	H45	0.481800	0.805000	0.939600
H461	H46	0.574100	0.875100	0.873200
H471	H47	0.495900	0.913900	0.684600
H481	H48	0.408000	0.842000	0.755900
C11	C1	0.276910	0.913910	0.922110
C21	C2	0.254200	0.984800	0.954000
C31	C3	0.185860	0.001460	0.007060
C41	C4	0.161300	0.069000	0.033200
C51	C5	0.387390	0.327490	0.985090
C61	C6	0.348040	0.369940	0.040340
C71	C7	0.271510	0.404310	0.044310
C81	C8	0.236780	0.392580	0.994080
C91	C9	0.279640	0.349440	0.941740
C101	C10	0.343680	0.147080	0.941580
C111	C11	0.284930	0.100430	0.959230
C121	C12	0.303600	0.034500	0.932000
C131	C13	0.214170	0.116370	0.009370
C141	C14	0.922110	0.276910	0.913910
C151	C15	0.954000	0.254200	0.984800
C161	C16	0.007060	0.185860	0.001460
C171	C17	0.033200	0.161300	0.069000
C181	C18	0.985090	0.387390	0.327490
C191	C19	0.040340	0.348040	0.369940
C201	C20	0.044310	0.271510	0.404310
C211	C21	0.994080	0.236780	0.392580
C221	C22	0.941740	0.279640	0.349440
C231	C23	0.941580	0.343680	0.147080
C241	C24	0.959230	0.284930	0.100430
C251	C25	0.932000	0.303600	0.034500
C261	C26	0.009370	0.214170	0.116370
C271	C27	0.913910	0.922110	0.276910
C281	C28	0.984800	0.954000	0.254200
C291	C29	0.001460	0.007060	0.185860
C301	C30	0.069000	0.033200	0.161300
C311	C31	0.327490	0.985090	0.387390
C321	C32	0.369940	0.040340	0.348040
C331	C33	0.404310	0.044310	0.271510
C341	C34	0.392580	0.994080	0.236780
C351	C35	0.349440	0.941740	0.279640
C361	C36	0.147080	0.941580	0.343680
C371	C37	0.100430	0.959230	0.284930
C381	C38	0.034500	0.932000	0.303600
C391	C39	0.116370	0.009370	0.214170
C401	C40	0.586090	0.223090	0.577890
C411	C41	0.515200	0.245800	0.546000
C421	C42	0.498540	0.314140	0.492940
C431	C43	0.431000	0.338700	0.466800
C441	C44	0.172510	0.112610	0.514910
C451	C45	0.130060	0.151960	0.459660
C461	C46	0.095690	0.228490	0.455690
C471	C47	0.107420	0.263220	0.505920
C481	C48	0.150560	0.220360	0.558260
C491	C49	0.352920	0.156320	0.558420
C501	C50	0.399570	0.215070	0.540770
C511	C51	0.465500	0.196400	0.568000
C521	C52	0.383630	0.285830	0.490630
C531	C53	0.223090	0.577890	0.586090
C541	C54	0.245800	0.546000	0.515200
C551	C55	0.314140	0.492940	0.498540
C561	C56	0.338700	0.466800	0.431000
C571	C57	0.112610	0.514910	0.172510
C581	C58	0.151960	0.459660	0.130060
C591	C59	0.228490	0.455690	0.095690
C601	C60	0.263220	0.505920	0.107420
C611	C61	0.220360	0.558260	0.150560
C621	C62	0.156320	0.558420	0.352920
C631	C63	0.215070	0.540770	0.399570
C641	C64	0.196400	0.568000	0.465500
C651	C65	0.285830	0.490630	0.383630
C661	C66	0.577890	0.586090	0.223090
C671	C67	0.546000	0.515200	0.245800
C681	C68	0.492940	0.498540	0.314140
C691	C69	0.466800	0.431000	0.338700
C701	C70	0.514910	0.172510	0.112610
C711	C71	0.459660	0.130060	0.151960
C721	C72	0.455690	0.095690	0.228490
C731	C73	0.505920	0.107420	0.263220
C741	C74	0.558260	0.150560	0.220360
C751	C75	0.558420	0.352920	0.156320
C761	C76	0.540770	0.399570	0.215070
C771	C77	0.568000	0.465500	0.196400
C781	C78	0.490630	0.383630	0.285830
C791	C79	0.723090	0.086090	0.077890
C801	C80	0.745800	0.015200	0.046000
C811	C81	0.814140	0.998540	0.992940
C821	C82	0.838700	0.931000	0.966800
C831	C83	0.612610	0.672510	0.014910
C841	C84	0.651960	0.630060	0.959660
C851	C85	0.728490	0.595690	0.955690
C861	C86	0.763220	0.607420	0.005920
C871	C87	0.720360	0.650560	0.058260
C881	C88	0.656320	0.852920	0.058420
C891	C89	0.715070	0.899570	0.040770
C901	C90	0.696400	0.965500	0.068000
C911	C91	0.785830	0.883630	0.990630
C921	C92	0.077890	0.723090	0.086090
C931	C93	0.046000	0.745800	0.015200
C941	C94	0.992940	0.814140	0.998540
C951	C95	0.966800	0.838700	0.931000
C961	C96	0.014910	0.612610	0.672510
C971	C97	0.959660	0.651960	0.630060
C981	C98	0.955690	0.728490	0.595690
C991	C99	0.005920	0.763220	0.607420
C1001	C100	0.058260	0.720360	0.650560
C1011	C101	0.058420	0.656320	0.852920
C1021	C102	0.040770	0.715070	0.899570
C1031	C103	0.068000	0.696400	0.965500
C1041	C104	0.990630	0.785830	0.883630
C1051	C105	0.086090	0.077890	0.723090
C1061	C106	0.015200	0.046000	0.745800
C1071	C107	0.998540	0.992940	0.814140
C1081	C108	0.931000	0.966800	0.838700
C1091	C109	0.672510	0.014910	0.612610
C1101	C110	0.630060	0.959660	0.651960
C1111	C111	0.595690	0.955690	0.728490
C1121	C112	0.607420	0.005920	0.763220
C1131	C113	0.650560	0.058260	0.720360
C1141	C114	0.852920	0.058420	0.656320
C1151	C115	0.899570	0.040770	0.715070
C1161	C116	0.965500	0.068000	0.696400
C1171	C117	0.883630	0.990630	0.785830
C1181	C118	0.413910	0.776910	0.422110
C1191	C119	0.484800	0.754200	0.454000
C1201	C120	0.501460	0.685860	0.507060
C1211	C121	0.569000	0.661300	0.533200
C1221	C122	0.827490	0.887390	0.485090
C1231	C123	0.869940	0.848040	0.540340
C1241	C124	0.904310	0.771510	0.544310
C1251	C125	0.892580	0.736780	0.494080
C1261	C126	0.849440	0.779640	0.441740
C1271	C127	0.647080	0.843680	0.441580
C1281	C128	0.600430	0.784930	0.459230
C1291	C129	0.534500	0.803600	0.432000
C1301	C130	0.616370	0.714170	0.509370
C1311	C131	0.776910	0.422110	0.413910
C1321	C132	0.754200	0.454000	0.484800
C1331	C133	0.685860	0.507060	0.501460
C1341	C134	0.661300	0.533200	0.569000
C1351	C135	0.887390	0.485090	0.827490
C1361	C136	0.848040	0.540340	0.869940
C1371	C137	0.771510	0.544310	0.904310
C1381	C138	0.736780	0.494080	0.892580
C1391	C139	0.779640	0.441740	0.849440
C1401	C140	0.843680	0.441580	0.647080
C1411	C141	0.784930	0.459230	0.600430
C1421	C142	0.803600	0.432000	0.534500
C1431	C143	0.714170	0.509370	0.616370
C1441	C144	0.422110	0.413910	0.776910
C1451	C145	0.454000	0.484800	0.754200
C1461	C146	0.507060	0.501460	0.685860
C1471	C147	0.533200	0.569000	0.661300
C1481	C148	0.485090	0.827490	0.887390
C1491	C149	0.540340	0.869940	0.848040
C1501	C150	0.544310	0.904310	0.771510
C1511	C151	0.494080	0.892580	0.736780
C1521	C152	0.441740	0.849440	0.779640
C1531	C153	0.441580	0.647080	0.843680
C1541	C154	0.459230	0.600430	0.784930
C1551	C155	0.432000	0.534500	0.803600
C1561	C156	0.509370	0.616370	0.714170
C1571	C157	0.086530	0.086530	0.086530
C1581	C158	0.413470	0.413470	0.413470
C1591	C159	0.913470	0.913470	0.913470
C1601	C160	0.586530	0.586530	0.586530
N11	N1	0.353710	0.317710	0.937410
N21	N2	0.937410	0.353710	0.317710
N31	N3	0.317710	0.937410	0.353710
N41	N4	0.182290	0.146290	0.562590
N51	N5	0.146290	0.562590	0.182290
N61	N6	0.562590	0.182290	0.146290
N71	N7	0.646290	0.682290	0.062590
N81	N8	0.062590	0.646290	0.682290
N91	N9	0.682290	0.062590	0.646290
N101	N10	0.817710	0.853710	0.437410
N111	N11	0.853710	0.437410	0.817710
N121	N12	0.437410	0.817710	0.853710
Cl11	Cl1	0.388910	0.015730	0.866360
Cl21	Cl2	0.127730	0.937660	0.033590
Cl31	Cl3	0.191700	0.200050	0.040350
Cl41	Cl4	0.866360	0.388910	0.015730
Cl51	Cl5	0.033590	0.127730	0.937660
Cl61	Cl6	0.040350	0.191700	0.200050
Cl71	Cl7	0.015730	0.866360	0.388910
Cl81	Cl8	0.937660	0.033590	0.127730
Cl91	Cl9	0.200050	0.040350	0.191700
Cl101	Cl10	0.484270	0.111090	0.633640
Cl111	Cl11	0.562340	0.372270	0.466410
Cl121	Cl12	0.299950	0.308300	0.459650
Cl131	Cl13	0.111090	0.633640	0.484270
Cl141	Cl14	0.372270	0.466410	0.562340
Cl151	Cl15	0.308300	0.459650	0.299950
Cl161	Cl16	0.633640	0.484270	0.111090
Cl171	Cl17	0.466410	0.562340	0.372270
Cl181	Cl18	0.459650	0.299950	0.308300
Cl191	Cl19	0.611090	0.984270	0.133640
Cl201	Cl20	0.872270	0.062340	0.966410
Cl211	Cl21	0.808300	0.799950	0.959650
Cl221	Cl22	0.133640	0.611090	0.984270
Cl231	Cl23	0.966410	0.872270	0.062340
Cl241	Cl24	0.959650	0.808300	0.799950
Cl251	Cl25	0.984270	0.133640	0.611090
Cl261	Cl26	0.062340	0.966410	0.872270
Cl271	Cl27	0.799950	0.959650	0.808300
Cl281	Cl28	0.515730	0.888910	0.366360
Cl291	Cl29	0.437660	0.627730	0.533590
Cl301	Cl30	0.700050	0.691700	0.540350
Cl311	Cl31	0.888910	0.366360	0.515730
Cl321	Cl32	0.627730	0.533590	0.437660
Cl331	Cl33	0.691700	0.540350	0.700050
Cl341	Cl34	0.366360	0.515730	0.888910
Cl351	Cl35	0.533590	0.437660	0.627730
Cl361	Cl36	0.540350	0.700050	0.691700
O11	O1	0.347470	0.195970	0.884370
O21	O2	0.306390	0.853490	0.963460
O31	O3	0.266480	0.920680	0.858180
O41	O4	0.384790	0.129090	0.988390
O51	O5	0.884370	0.347470	0.195970
O61	O6	0.963460	0.306390	0.853490
O71	O7	0.858180	0.266480	0.920680
O81	O8	0.988390	0.384790	0.129090
O91	O9	0.195970	0.884370	0.347470
O101	O10	0.853490	0.963460	0.306390
O111	O11	0.920680	0.858180	0.266480
O121	O12	0.129090	0.988390	0.384790
O131	O13	0.304030	0.152530	0.615630
O141	O14	0.646510	0.193610	0.536540
O151	O15	0.579320	0.233520	0.641820
O161	O16	0.370910	0.115210	0.511610
O171	O17	0.152530	0.615630	0.304030
O181	O18	0.193610	0.536540	0.646510
O191	O19	0.233520	0.641820	0.579320
O201	O20	0.115210	0.511610	0.370910
O211	O21	0.615630	0.304030	0.152530
O221	O22	0.536540	0.646510	0.193610
O231	O23	0.641820	0.579320	0.233520
O241	O24	0.511610	0.370910	0.115210
O251	O25	0.652530	0.804030	0.115630
O261	O26	0.693610	0.146510	0.036540
O271	O27	0.733520	0.079320	0.141820
O281	O28	0.615210	0.870910	0.011610
O291	O29	0.115630	0.652530	0.804030
O301	O30	0.036540	0.693610	0.146510
O311	O31	0.141820	0.733520	0.079320
O321	O32	0.011610	0.615210	0.870910
O331	O33	0.804030	0.115630	0.652530
O341	O34	0.146510	0.036540	0.693610
O351	O35	0.079320	0.141820	0.733520
O361	O36	0.870910	0.011610	0.615210
O371	O37	0.695970	0.847470	0.384370
O381	O38	0.353490	0.806390	0.463460
O391	O39	0.420680	0.766480	0.358180
O401	O40	0.629090	0.884790	0.488390
O411	O41	0.847470	0.384370	0.695970
O421	O42	0.806390	0.463460	0.353490
O431	O43	0.766480	0.358180	0.420680
O441	O44	0.884790	0.488390	0.629090
O451	O45	0.384370	0.695970	0.847470
O461	O46	0.463460	0.353490	0.806390
O471	O47	0.358180	0.420680	0.766480
O481	O48	0.488390	0.629090	0.884790
