data_QITXAU_clean_PM
_symmetry_space_group_name_H-M	'P1'
_cell_length_a	9.691000
_cell_length_b	14.157000
_cell_length_c	16.055000
_cell_angle_alpha	107.408000
_cell_angle_beta	99.937000
_cell_angle_gamma	104.264000
_symmetry_Int_Tables_number 1

loop_
_symmetry_equiv_pos_as_xyz
'x,y,z'

loop_
_atom_site_label
_atom_site_type_symbol
_atom_site_fract_x
_atom_site_fract_y
_atom_site_fract_z
Zn11	Zn1	0.808000	0.908970	0.939760
S11	S1	0.988700	0.485820	0.702390
O11	O1	0.948700	0.855800	0.876500
O21	O2	0.174500	0.955600	0.964400
O31	O3	0.597500	0.835000	0.916600
O41	O4	0.570700	0.707600	0.788700
O51	O5	0.076100	0.417100	0.693700
O61	O6	0.879200	0.462600	0.750600
O71	O7	0.924700	0.494600	0.617500
N11	N1	0.956300	0.758600	0.115200
N21	N2	0.913400	0.827400	0.174500
N31	N3	0.873100	0.846600	0.040100
N41	N4	0.737300	0.012000	0.718000
N51	N5	0.657700	0.061600	0.766000
N61	N6	0.758900	0.974400	0.839800
C11	C1	0.012500	0.592200	0.067300
C21	C2	0.131500	0.584800	0.032400
C31	C3	0.118600	0.489600	0.965000
C41	C4	0.026600	0.689700	0.145300
H11	H1	0.981400	0.669500	0.189400
H21	H2	0.130400	0.727400	0.174800
C51	C5	0.272100	0.677000	0.063100
H31	H3	0.327500	0.685500	0.122000
H41	H4	0.247100	0.739200	0.065900
H51	H5	0.330500	0.664600	0.020900
C61	C6	0.251600	0.478100	0.930800
H61	H6	0.298700	0.540500	0.921100
H71	H7	0.220600	0.419700	0.874800
H81	H8	0.319900	0.466800	0.974800
C71	C7	0.864200	0.877700	0.125800
H91	H9	0.826000	0.931100	0.149000
C81	C8	0.933600	0.771800	0.036900
H101	H10	0.956800	0.733700	0.986200
C91	C9	0.623100	0.013200	0.566800
C101	C10	0.527100	0.912900	0.514300
C111	C11	0.404700	0.899400	0.445800
C121	C12	0.762300	0.025600	0.634000
H111	H11	0.807500	0.975000	0.605700
H121	H12	0.831300	0.094600	0.649100
C131	C13	0.552300	0.818000	0.531200
H131	H13	0.500100	0.802600	0.573700
H141	H14	0.656000	0.831800	0.555400
H151	H15	0.516800	0.759300	0.475200
C141	C14	0.308000	0.789500	0.385800
H161	H16	0.355700	0.760500	0.341400
H171	H17	0.214500	0.791300	0.355800
H181	H18	0.292500	0.747000	0.422200
C151	C15	0.672700	0.036000	0.837500
H191	H19	0.628000	0.058200	0.883300
C161	C16	0.796100	0.961300	0.762900
H201	H20	0.855800	0.921700	0.743200
C171	C17	0.147300	0.790500	0.859200
C181	C18	0.298600	0.811400	0.872000
H211	H21	0.362100	0.877900	0.907900
C191	C19	0.355900	0.734700	0.832100
C201	C20	0.261600	0.635000	0.779600
H221	H22	0.299200	0.583000	0.751800
C211	C21	0.111400	0.613700	0.769000
C221	C22	0.053700	0.691100	0.806800
H231	H23	0.952000	0.676400	0.797000
C231	C23	0.085900	0.874400	0.903600
C241	C24	0.520800	0.759400	0.845400
Zn21	Zn2	0.192000	0.091030	0.060240
S21	S2	0.011300	0.514180	0.297610
O81	O8	0.051300	0.144200	0.123500
O91	O9	0.825500	0.044400	0.035600
O101	O10	0.402500	0.165000	0.083400
O111	O11	0.429300	0.292400	0.211300
O121	O12	0.923900	0.582900	0.306300
O131	O13	0.120800	0.537400	0.249400
O141	O14	0.075300	0.505400	0.382500
N71	N7	0.043700	0.241400	0.884800
N81	N8	0.086600	0.172600	0.825500
N91	N9	0.126900	0.153400	0.959900
N101	N10	0.262700	0.988000	0.282000
N111	N11	0.342300	0.938400	0.234000
N121	N12	0.241100	0.025600	0.160200
C251	C25	0.987500	0.407800	0.932700
C261	C26	0.868500	0.415200	0.967600
C271	C27	0.881400	0.510400	0.035000
C281	C28	0.973400	0.310300	0.854700
H241	H24	0.018600	0.330500	0.810600
H251	H25	0.869600	0.272600	0.825200
C291	C29	0.727900	0.323000	0.936900
H261	H26	0.672500	0.314500	0.878000
H271	H27	0.752900	0.260800	0.934100
H281	H28	0.669500	0.335400	0.979100
C301	C30	0.748400	0.521900	0.069200
H291	H29	0.701300	0.459500	0.078900
H301	H30	0.779400	0.580300	0.125200
H311	H31	0.680100	0.533200	0.025200
C311	C31	0.135800	0.122300	0.874200
H321	H32	0.174000	0.068900	0.851000
C321	C32	0.066400	0.228200	0.963100
H331	H33	0.043200	0.266300	0.013800
C331	C33	0.376900	0.986800	0.433200
C341	C34	0.472900	0.087100	0.485700
C351	C35	0.595300	0.100600	0.554200
C361	C36	0.237700	0.974400	0.366000
H341	H34	0.192500	0.025000	0.394300
H351	H35	0.168700	0.905400	0.350900
C371	C37	0.447700	0.182000	0.468800
H361	H36	0.499900	0.197400	0.426300
H371	H37	0.344000	0.168200	0.444600
H381	H38	0.483200	0.240700	0.524800
C381	C38	0.692000	0.210500	0.614200
H391	H39	0.644300	0.239500	0.658600
H401	H40	0.785500	0.208700	0.644200
H411	H41	0.707500	0.253000	0.577800
C391	C39	0.327300	0.964000	0.162500
H421	H42	0.372000	0.941800	0.116700
C401	C40	0.203900	0.038700	0.237100
H431	H43	0.144200	0.078300	0.256800
C411	C41	0.852700	0.209500	0.140800
C421	C42	0.701400	0.188600	0.128000
H441	H44	0.637900	0.122100	0.092100
C431	C43	0.644100	0.265300	0.167900
C441	C44	0.738400	0.365000	0.220400
H451	H45	0.700800	0.417000	0.248200
C451	C45	0.888600	0.386300	0.231000
C461	C46	0.946300	0.308900	0.193200
H461	H46	0.048000	0.323600	0.203000
C471	C47	0.914100	0.125600	0.096400
C481	C48	0.479200	0.240600	0.154600
