data_QIVYUR_clean_PM
_symmetry_space_group_name_H-M	'P1'
_cell_length_a	22.219000
_cell_length_b	5.524300
_cell_length_c	18.471900
_cell_angle_alpha	90.000000
_cell_angle_beta	115.962000
_cell_angle_gamma	90.000000
_symmetry_Int_Tables_number 1

loop_
_symmetry_equiv_pos_as_xyz
'x,y,z'

loop_
_atom_site_label
_atom_site_type_symbol
_atom_site_fract_x
_atom_site_fract_y
_atom_site_fract_z
C11	C1	0.644900	0.607300	0.330380
H11	H1	0.654600	0.737200	0.305200
O11	O1	0.498310	0.818020	0.164940
O21	O2	0.563390	0.099300	0.151870
C21	C2	0.613800	0.220500	0.398690
H21	H2	0.603400	0.087800	0.422100
N11	N1	0.578940	0.254220	0.318510
C31	C3	0.533560	0.903500	0.131720
C41	C4	0.680580	0.575600	0.413390
C51	C5	0.664030	0.374500	0.447230
H31	H3	0.686900	0.345000	0.502200
C61	C6	0.595040	0.444900	0.285540
H41	H4	0.571800	0.468900	0.230300
C71	C7	0.499650	0.567000	0.033580
C81	C8	0.536770	0.762700	0.065090
C91	C9	0.732440	0.751800	0.459950
H51	H5	0.565600	0.822000	0.044000
H61	H6	0.740400	0.875000	0.430800
H71	H7	0.470300	0.512000	0.055400
C101	C10	0.144900	0.107300	0.330380
H81	H8	0.154600	0.237200	0.305200
O31	O3	0.998310	0.318020	0.164940
O41	O4	0.063390	0.599300	0.151870
C111	C11	0.113800	0.720500	0.398690
H91	H9	0.103400	0.587800	0.422100
N21	N2	0.078940	0.754220	0.318510
C121	C12	0.033560	0.403500	0.131720
C131	C13	0.180580	0.075600	0.413390
C141	C14	0.164030	0.874500	0.447230
H101	H10	0.186900	0.845000	0.502200
C151	C15	0.095040	0.944900	0.285540
H111	H11	0.071800	0.968900	0.230300
C161	C16	0.999650	0.067000	0.033580
C171	C17	0.036770	0.262700	0.065090
C181	C18	0.232440	0.251800	0.459950
H121	H12	0.065600	0.322000	0.044000
H131	H13	0.240400	0.375000	0.430800
H141	H14	0.970300	0.012000	0.055400
C191	C19	0.355100	0.607300	0.169620
H151	H15	0.345400	0.737200	0.194800
O51	O5	0.501690	0.818020	0.335060
O61	O6	0.436610	0.099300	0.348130
C201	C20	0.386200	0.220500	0.101310
H161	H16	0.396600	0.087800	0.077900
N31	N3	0.421060	0.254220	0.181490
C211	C21	0.466440	0.903500	0.368280
C221	C22	0.319420	0.575600	0.086610
C231	C23	0.335970	0.374500	0.052770
H171	H17	0.313100	0.345000	0.997800
C241	C24	0.404960	0.444900	0.214460
H181	H18	0.428200	0.468900	0.269700
C251	C25	0.500350	0.567000	0.466420
C261	C26	0.463230	0.762700	0.434910
C271	C27	0.267560	0.751800	0.040050
H191	H19	0.434400	0.822000	0.456000
H201	H20	0.259600	0.875000	0.069200
H211	H21	0.529700	0.512000	0.444600
C281	C28	0.855100	0.107300	0.169620
H221	H22	0.845400	0.237200	0.194800
O71	O7	0.001690	0.318020	0.335060
O81	O8	0.936610	0.599300	0.348130
C291	C29	0.886200	0.720500	0.101310
H231	H23	0.896600	0.587800	0.077900
N41	N4	0.921060	0.754220	0.181490
C301	C30	0.966440	0.403500	0.368280
C311	C31	0.819420	0.075600	0.086610
C321	C32	0.835970	0.874500	0.052770
H241	H24	0.813100	0.845000	0.997800
C331	C33	0.904960	0.944900	0.214460
H251	H25	0.928200	0.968900	0.269700
C341	C34	0.000350	0.067000	0.466420
C351	C35	0.963230	0.262700	0.434910
C361	C36	0.767560	0.251800	0.040050
H261	H26	0.934400	0.322000	0.456000
H271	H27	0.759600	0.375000	0.069200
H281	H28	0.029700	0.012000	0.444600
C371	C37	0.355100	0.392700	0.669620
H291	H29	0.345400	0.262800	0.694800
O91	O9	0.501690	0.181980	0.835060
O101	O10	0.436610	0.900700	0.848130
C381	C38	0.386200	0.779500	0.601310
H301	H30	0.396600	0.912200	0.577900
N51	N5	0.421060	0.745780	0.681490
C391	C39	0.466440	0.096500	0.868280
C401	C40	0.319420	0.424400	0.586610
C411	C41	0.335970	0.625500	0.552770
H311	H31	0.313100	0.655000	0.497800
C421	C42	0.404960	0.555100	0.714460
H321	H32	0.428200	0.531100	0.769700
C431	C43	0.500350	0.433000	0.966420
C441	C44	0.463230	0.237300	0.934910
C451	C45	0.267560	0.248200	0.540050
H331	H33	0.434400	0.178000	0.956000
H341	H34	0.259600	0.125000	0.569200
H351	H35	0.529700	0.488000	0.944600
C461	C46	0.855100	0.892700	0.669620
H361	H36	0.845400	0.762800	0.694800
O111	O11	0.001690	0.681980	0.835060
O121	O12	0.936610	0.400700	0.848130
C471	C47	0.886200	0.279500	0.601310
H371	H37	0.896600	0.412200	0.577900
N61	N6	0.921060	0.245780	0.681490
C481	C48	0.966440	0.596500	0.868280
C491	C49	0.819420	0.924400	0.586610
C501	C50	0.835970	0.125500	0.552770
H381	H38	0.813100	0.155000	0.497800
C511	C51	0.904960	0.055100	0.714460
H391	H39	0.928200	0.031100	0.769700
C521	C52	0.000350	0.933000	0.966420
C531	C53	0.963230	0.737300	0.934910
C541	C54	0.767560	0.748200	0.540050
H401	H40	0.934400	0.678000	0.956000
H411	H41	0.759600	0.625000	0.569200
H421	H42	0.029700	0.988000	0.944600
C551	C55	0.644900	0.392700	0.830380
H431	H43	0.654600	0.262800	0.805200
O131	O13	0.498310	0.181980	0.664940
O141	O14	0.563390	0.900700	0.651870
C561	C56	0.613800	0.779500	0.898690
H441	H44	0.603400	0.912200	0.922100
N71	N7	0.578940	0.745780	0.818510
C571	C57	0.533560	0.096500	0.631720
C581	C58	0.680580	0.424400	0.913390
C591	C59	0.664030	0.625500	0.947230
H451	H45	0.686900	0.655000	0.002200
C601	C60	0.595040	0.555100	0.785540
H461	H46	0.571800	0.531100	0.730300
C611	C61	0.499650	0.433000	0.533580
C621	C62	0.536770	0.237300	0.565090
C631	C63	0.732440	0.248200	0.959950
H471	H47	0.565600	0.178000	0.544000
H481	H48	0.740400	0.125000	0.930800
H491	H49	0.470300	0.488000	0.555400
C641	C64	0.144900	0.892700	0.830380
H501	H50	0.154600	0.762800	0.805200
O151	O15	0.998310	0.681980	0.664940
O161	O16	0.063390	0.400700	0.651870
C651	C65	0.113800	0.279500	0.898690
H511	H51	0.103400	0.412200	0.922100
N81	N8	0.078940	0.245780	0.818510
C661	C66	0.033560	0.596500	0.631720
C671	C67	0.180580	0.924400	0.913390
C681	C68	0.164030	0.125500	0.947230
H521	H52	0.186900	0.155000	0.002200
C691	C69	0.095040	0.055100	0.785540
H531	H53	0.071800	0.031100	0.730300
C701	C70	0.999650	0.933000	0.533580
C711	C71	0.036770	0.737300	0.565090
C721	C72	0.232440	0.748200	0.959950
H541	H54	0.065600	0.678000	0.544000
H551	H55	0.240400	0.625000	0.930800
H561	H56	0.970300	0.988000	0.555400
Zn11	Zn1	0.500000	0.036810	0.250000
Zn21	Zn2	0.000000	0.536810	0.250000
Zn31	Zn3	0.500000	0.963190	0.750000
Zn41	Zn4	0.000000	0.463190	0.750000
