data_QIXNIW_clean_PM
_symmetry_space_group_name_H-M	'P1'
_cell_length_a	9.847500
_cell_length_b	29.058000
_cell_length_c	10.815100
_cell_angle_alpha	90.000000
_cell_angle_beta	92.311000
_cell_angle_gamma	90.000000
_symmetry_Int_Tables_number 1

loop_
_symmetry_equiv_pos_as_xyz
'x,y,z'

loop_
_atom_site_label
_atom_site_type_symbol
_atom_site_fract_x
_atom_site_fract_y
_atom_site_fract_z
C11	C1	0.076400	0.349100	0.912300
C21	C2	0.983500	0.380400	0.866200
H11	H1	0.014400	0.408200	0.830400
C31	C3	0.843200	0.372100	0.871000
H21	H2	0.780800	0.393900	0.836000
C41	C4	0.795000	0.333400	0.924800
C51	C5	0.888400	0.301560	0.984200
C61	C6	0.845000	0.263800	0.060000
C71	C7	0.937000	0.233100	0.107400
H31	H3	0.907700	0.209300	0.160300
C81	C8	0.075100	0.236100	0.079400
H41	H4	0.136500	0.213000	0.108900
C91	C9	0.122300	0.271680	0.010400
C101	C10	0.031900	0.307160	0.967400
C111	C11	0.219300	0.365840	0.920000
C121	C12	0.647900	0.322500	0.901700
C131	C13	0.704200	0.261500	0.106000
C141	C14	0.268200	0.267430	0.969700
C151	C15	0.026200	0.486600	0.230400
H51	H5	0.057600	0.483300	0.314100
C161	C16	0.118200	0.489400	0.140200
C171	C17	0.263500	0.477000	0.173100
C181	C18	0.071400	0.498780	0.014000
C191	C19	0.161500	0.506400	0.917000
C201	C20	0.311200	0.514600	0.941000
C211	C21	0.113600	0.511600	0.797600
H61	H6	0.175800	0.514100	0.733000
O11	O1	0.264400	0.390640	0.833500
O21	O2	0.293000	0.358510	0.015200
O31	O3	0.563400	0.354130	0.903900
O41	O4	0.617300	0.281820	0.871200
O51	O5	0.646600	0.296730	0.147600
O61	O6	0.646200	0.222350	0.112600
O71	O7	0.288200	0.272960	0.857800
O81	O8	0.357500	0.255340	0.049200
O91	O9	0.315500	0.491000	0.275000
O101	O10	0.322100	0.450160	0.101600
O111	O11	0.340000	0.546270	0.015200
O121	O12	0.395000	0.490900	0.883900
Er11	Er1	0.455120	0.418770	0.957640
Er21	Er2	0.461090	0.251700	0.237260
C221	C22	0.923600	0.849100	0.587700
C231	C23	0.016500	0.880400	0.633800
H71	H7	0.985600	0.908200	0.669600
C241	C24	0.156800	0.872100	0.629000
H81	H8	0.219200	0.893900	0.664000
C251	C25	0.205000	0.833400	0.575200
C261	C26	0.111600	0.801560	0.515800
C271	C27	0.155000	0.763800	0.440000
C281	C28	0.063000	0.733100	0.392600
H91	H9	0.092300	0.709300	0.339700
C291	C29	0.924900	0.736100	0.420600
H101	H10	0.863500	0.713000	0.391100
C301	C30	0.877700	0.771680	0.489600
C311	C31	0.968100	0.807160	0.532600
C321	C32	0.780700	0.865840	0.580000
C331	C33	0.352100	0.822500	0.598300
C341	C34	0.295800	0.761500	0.394000
C351	C35	0.731800	0.767430	0.530300
C361	C36	0.973800	0.986600	0.269600
H111	H11	0.942400	0.983300	0.185900
C371	C37	0.881800	0.989400	0.359800
C381	C38	0.736500	0.977000	0.326900
C391	C39	0.928600	0.998780	0.486000
C401	C40	0.838500	0.006400	0.583000
C411	C41	0.688800	0.014600	0.559000
C421	C42	0.886400	0.011600	0.702400
H121	H12	0.824200	0.014100	0.767000
O131	O13	0.735600	0.890640	0.666500
O141	O14	0.707000	0.858510	0.484800
O151	O15	0.436600	0.854130	0.596100
O161	O16	0.382700	0.781820	0.628800
O171	O17	0.353400	0.796730	0.352400
O181	O18	0.353800	0.722350	0.387400
O191	O19	0.711800	0.772960	0.642200
O201	O20	0.642500	0.755340	0.450800
O211	O21	0.684500	0.991000	0.225000
O221	O22	0.677900	0.950160	0.398400
O231	O23	0.660000	0.046270	0.484800
O241	O24	0.605000	0.990900	0.616100
Er31	Er3	0.544880	0.918770	0.542360
Er41	Er4	0.538910	0.751700	0.262740
C431	C43	0.923600	0.650900	0.087700
C441	C44	0.016500	0.619600	0.133800
H131	H13	0.985600	0.591800	0.169600
C451	C45	0.156800	0.627900	0.129000
H141	H14	0.219200	0.606100	0.164000
C461	C46	0.205000	0.666600	0.075200
C471	C47	0.111600	0.698440	0.015800
C481	C48	0.155000	0.736200	0.940000
C491	C49	0.063000	0.766900	0.892600
H151	H15	0.092300	0.790700	0.839700
C501	C50	0.924900	0.763900	0.920600
H161	H16	0.863500	0.787000	0.891100
C511	C51	0.877700	0.728320	0.989600
C521	C52	0.968100	0.692840	0.032600
C531	C53	0.780700	0.634160	0.080000
C541	C54	0.352100	0.677500	0.098300
C551	C55	0.295800	0.738500	0.894000
C561	C56	0.731800	0.732570	0.030300
C571	C57	0.973800	0.513400	0.769600
H171	H17	0.942400	0.516700	0.685900
C581	C58	0.881800	0.510600	0.859800
C591	C59	0.736500	0.523000	0.826900
C601	C60	0.928600	0.501220	0.986000
C611	C61	0.838500	0.493600	0.083000
C621	C62	0.688800	0.485400	0.059000
C631	C63	0.886400	0.488400	0.202400
H181	H18	0.824200	0.485900	0.267000
O251	O25	0.735600	0.609360	0.166500
O261	O26	0.707000	0.641490	0.984800
O271	O27	0.436600	0.645870	0.096100
O281	O28	0.382700	0.718180	0.128800
O291	O29	0.353400	0.703270	0.852400
O301	O30	0.353800	0.777650	0.887400
O311	O31	0.711800	0.727040	0.142200
O321	O32	0.642500	0.744660	0.950800
O331	O33	0.684500	0.509000	0.725000
O341	O34	0.677900	0.549840	0.898400
O351	O35	0.660000	0.453730	0.984800
O361	O36	0.605000	0.509100	0.116100
Er51	Er5	0.544880	0.581230	0.042360
Er61	Er6	0.538910	0.748300	0.762740
C641	C64	0.076400	0.150900	0.412300
C651	C65	0.983500	0.119600	0.366200
H191	H19	0.014400	0.091800	0.330400
C661	C66	0.843200	0.127900	0.371000
H201	H20	0.780800	0.106100	0.336000
C671	C67	0.795000	0.166600	0.424800
C681	C68	0.888400	0.198440	0.484200
C691	C69	0.845000	0.236200	0.560000
C701	C70	0.937000	0.266900	0.607400
H211	H21	0.907700	0.290700	0.660300
C711	C71	0.075100	0.263900	0.579400
H221	H22	0.136500	0.287000	0.608900
C721	C72	0.122300	0.228320	0.510400
C731	C73	0.031900	0.192840	0.467400
C741	C74	0.219300	0.134160	0.420000
C751	C75	0.647900	0.177500	0.401700
C761	C76	0.704200	0.238500	0.606000
C771	C77	0.268200	0.232570	0.469700
C781	C78	0.026200	0.013400	0.730400
H231	H23	0.057600	0.016700	0.814100
C791	C79	0.118200	0.010600	0.640200
C801	C80	0.263500	0.023000	0.673100
C811	C81	0.071400	0.001220	0.514000
C821	C82	0.161500	0.993600	0.417000
C831	C83	0.311200	0.985400	0.441000
C841	C84	0.113600	0.988400	0.297600
H241	H24	0.175800	0.985900	0.233000
O371	O37	0.264400	0.109360	0.333500
O381	O38	0.293000	0.141490	0.515200
O391	O39	0.563400	0.145870	0.403900
O401	O40	0.617300	0.218180	0.371200
O411	O41	0.646600	0.203270	0.647600
O421	O42	0.646200	0.277650	0.612600
O431	O43	0.288200	0.227040	0.357800
O441	O44	0.357500	0.244660	0.549200
O451	O45	0.315500	0.009000	0.775000
O461	O46	0.322100	0.049840	0.601600
O471	O47	0.340000	0.953730	0.515200
O481	O48	0.395000	0.009100	0.383900
Er71	Er7	0.455120	0.081230	0.457640
Er81	Er8	0.461090	0.248300	0.737260
