data_QIXNES_clean_PM
_symmetry_space_group_name_H-M	'P1'
_cell_length_a	9.860500
_cell_length_b	29.210000
_cell_length_c	10.865200
_cell_angle_alpha	90.000000
_cell_angle_beta	92.203000
_cell_angle_gamma	90.000000
_symmetry_Int_Tables_number 1

loop_
_symmetry_equiv_pos_as_xyz
'x,y,z'

loop_
_atom_site_label
_atom_site_type_symbol
_atom_site_fract_x
_atom_site_fract_y
_atom_site_fract_z
C11	C1	0.074900	0.348920	0.912600
C21	C2	0.982800	0.380120	0.868300
H11	H1	0.013300	0.407500	0.835600
C31	C3	0.841900	0.371740	0.870800
H21	H2	0.781000	0.392700	0.835600
C41	C4	0.794100	0.332790	0.925000
C51	C5	0.887300	0.301120	0.982700
C61	C6	0.843100	0.264450	0.058500
C71	C7	0.935400	0.233350	0.104900
H31	H3	0.906300	0.209900	0.155500
C81	C8	0.073500	0.236080	0.077400
H41	H4	0.133000	0.213400	0.105900
C91	C9	0.121300	0.271340	0.009900
C101	C10	0.030000	0.307050	0.966200
C111	C11	0.218300	0.365420	0.920300
C121	C12	0.646000	0.322480	0.900800
C131	C13	0.702500	0.261680	0.105800
C141	C14	0.266100	0.267580	0.971200
C151	C15	0.026400	0.486030	0.228700
H51	H5	0.057400	0.482400	0.310100
C161	C16	0.117300	0.489050	0.139100
C171	C17	0.262700	0.476470	0.172900
C181	C18	0.071600	0.498910	0.014300
C191	C19	0.161700	0.506300	0.917500
C201	C20	0.310400	0.514160	0.941100
C211	C21	0.113500	0.511700	0.798200
H61	H6	0.174000	0.513900	0.734900
O11	O1	0.262600	0.390380	0.834700
O21	O2	0.290900	0.358430	0.015600
O31	O3	0.562700	0.354450	0.903700
O41	O4	0.615500	0.282360	0.870000
O51	O5	0.645500	0.296490	0.146600
O61	O6	0.644400	0.223010	0.111400
O71	O7	0.287200	0.272740	0.859200
O81	O8	0.355300	0.255220	0.049200
O91	O9	0.313500	0.490800	0.273300
O101	O10	0.322300	0.449930	0.101600
O111	O11	0.341500	0.545950	0.014100
O121	O12	0.393100	0.490320	0.883900
Y11	Y1	0.454480	0.418560	0.958410
Y21	Y2	0.459570	0.251660	0.236690
C221	C22	0.925100	0.848920	0.587400
C231	C23	0.017200	0.880120	0.631700
H71	H7	0.986700	0.907500	0.664400
C241	C24	0.158100	0.871740	0.629200
H81	H8	0.219000	0.892700	0.664400
C251	C25	0.205900	0.832790	0.575000
C261	C26	0.112700	0.801120	0.517300
C271	C27	0.156900	0.764450	0.441500
C281	C28	0.064600	0.733350	0.395100
H91	H9	0.093700	0.709900	0.344500
C291	C29	0.926500	0.736080	0.422600
H101	H10	0.867000	0.713400	0.394100
C301	C30	0.878700	0.771340	0.490100
C311	C31	0.970000	0.807050	0.533800
C321	C32	0.781700	0.865420	0.579700
C331	C33	0.354000	0.822480	0.599200
C341	C34	0.297500	0.761680	0.394200
C351	C35	0.733900	0.767580	0.528800
C361	C36	0.973600	0.986030	0.271300
H111	H11	0.942600	0.982400	0.189900
C371	C37	0.882700	0.989050	0.360900
C381	C38	0.737300	0.976470	0.327100
C391	C39	0.928400	0.998910	0.485700
C401	C40	0.838300	0.006300	0.582500
C411	C41	0.689600	0.014160	0.558900
C421	C42	0.886500	0.011700	0.701800
H121	H12	0.826000	0.013900	0.765100
O131	O13	0.737400	0.890380	0.665300
O141	O14	0.709100	0.858430	0.484400
O151	O15	0.437300	0.854450	0.596300
O161	O16	0.384500	0.782360	0.630000
O171	O17	0.354500	0.796490	0.353400
O181	O18	0.355600	0.723010	0.388600
O191	O19	0.712800	0.772740	0.640800
O201	O20	0.644700	0.755220	0.450800
O211	O21	0.686500	0.990800	0.226700
O221	O22	0.677700	0.949930	0.398400
O231	O23	0.658500	0.045950	0.485900
O241	O24	0.606900	0.990320	0.616100
Y31	Y3	0.545520	0.918560	0.541590
Y41	Y4	0.540430	0.751660	0.263310
C431	C43	0.925100	0.651080	0.087400
C441	C44	0.017200	0.619880	0.131700
H131	H13	0.986700	0.592500	0.164400
C451	C45	0.158100	0.628260	0.129200
H141	H14	0.219000	0.607300	0.164400
C461	C46	0.205900	0.667210	0.075000
C471	C47	0.112700	0.698880	0.017300
C481	C48	0.156900	0.735550	0.941500
C491	C49	0.064600	0.766650	0.895100
H151	H15	0.093700	0.790100	0.844500
C501	C50	0.926500	0.763920	0.922600
H161	H16	0.867000	0.786600	0.894100
C511	C51	0.878700	0.728660	0.990100
C521	C52	0.970000	0.692950	0.033800
C531	C53	0.781700	0.634580	0.079700
C541	C54	0.354000	0.677520	0.099200
C551	C55	0.297500	0.738320	0.894200
C561	C56	0.733900	0.732420	0.028800
C571	C57	0.973600	0.513970	0.771300
H171	H17	0.942600	0.517600	0.689900
C581	C58	0.882700	0.510950	0.860900
C591	C59	0.737300	0.523530	0.827100
C601	C60	0.928400	0.501090	0.985700
C611	C61	0.838300	0.493700	0.082500
C621	C62	0.689600	0.485840	0.058900
C631	C63	0.886500	0.488300	0.201800
H181	H18	0.826000	0.486100	0.265100
O251	O25	0.737400	0.609620	0.165300
O261	O26	0.709100	0.641570	0.984400
O271	O27	0.437300	0.645550	0.096300
O281	O28	0.384500	0.717640	0.130000
O291	O29	0.354500	0.703510	0.853400
O301	O30	0.355600	0.776990	0.888600
O311	O31	0.712800	0.727260	0.140800
O321	O32	0.644700	0.744780	0.950800
O331	O33	0.686500	0.509200	0.726700
O341	O34	0.677700	0.550070	0.898400
O351	O35	0.658500	0.454050	0.985900
O361	O36	0.606900	0.509680	0.116100
Y51	Y5	0.545520	0.581440	0.041590
Y61	Y6	0.540430	0.748340	0.763310
C641	C64	0.074900	0.151080	0.412600
C651	C65	0.982800	0.119880	0.368300
H191	H19	0.013300	0.092500	0.335600
C661	C66	0.841900	0.128260	0.370800
H201	H20	0.781000	0.107300	0.335600
C671	C67	0.794100	0.167210	0.425000
C681	C68	0.887300	0.198880	0.482700
C691	C69	0.843100	0.235550	0.558500
C701	C70	0.935400	0.266650	0.604900
H211	H21	0.906300	0.290100	0.655500
C711	C71	0.073500	0.263920	0.577400
H221	H22	0.133000	0.286600	0.605900
C721	C72	0.121300	0.228660	0.509900
C731	C73	0.030000	0.192950	0.466200
C741	C74	0.218300	0.134580	0.420300
C751	C75	0.646000	0.177520	0.400800
C761	C76	0.702500	0.238320	0.605800
C771	C77	0.266100	0.232420	0.471200
C781	C78	0.026400	0.013970	0.728700
H231	H23	0.057400	0.017600	0.810100
C791	C79	0.117300	0.010950	0.639100
C801	C80	0.262700	0.023530	0.672900
C811	C81	0.071600	0.001090	0.514300
C821	C82	0.161700	0.993700	0.417500
C831	C83	0.310400	0.985840	0.441100
C841	C84	0.113500	0.988300	0.298200
H241	H24	0.174000	0.986100	0.234900
O371	O37	0.262600	0.109620	0.334700
O381	O38	0.290900	0.141570	0.515600
O391	O39	0.562700	0.145550	0.403700
O401	O40	0.615500	0.217640	0.370000
O411	O41	0.645500	0.203510	0.646600
O421	O42	0.644400	0.276990	0.611400
O431	O43	0.287200	0.227260	0.359200
O441	O44	0.355300	0.244780	0.549200
O451	O45	0.313500	0.009200	0.773300
O461	O46	0.322300	0.050070	0.601600
O471	O47	0.341500	0.954050	0.514100
O481	O48	0.393100	0.009680	0.383900
Y71	Y7	0.454480	0.081450	0.458410
Y81	Y8	0.459570	0.248340	0.736690
