data_QIYBUX_clean_PM
_symmetry_space_group_name_H-M	'P1'
_cell_length_a	17.635200
_cell_length_b	18.555500
_cell_length_c	20.331100
_cell_angle_alpha	90.000000
_cell_angle_beta	90.000000
_cell_angle_gamma	90.000000
_symmetry_Int_Tables_number 1

loop_
_symmetry_equiv_pos_as_xyz
'x,y,z'

loop_
_atom_site_label
_atom_site_type_symbol
_atom_site_fract_x
_atom_site_fract_y
_atom_site_fract_z
Ag11	Ag1	0.322770	0.874050	0.852220
Si11	Si1	0.463350	0.679840	0.581760
Si21	Si2	0.928500	0.825840	0.866050
N11	N1	0.362300	0.802000	0.764300
N21	N2	0.607200	0.476400	0.642600
N31	N3	0.193100	0.863400	0.860600
N41	N4	0.863200	0.696300	0.056200
C11	C1	0.535500	0.472100	0.624600
H11	H1	0.512700	0.425700	0.623300
C21	C2	0.491200	0.530800	0.607400
H21	H2	0.439900	0.524100	0.594700
C31	C3	0.521800	0.598800	0.609000
C41	C4	0.594900	0.603900	0.627900
H31	H3	0.618600	0.649900	0.629500
C51	C5	0.636100	0.542800	0.645100
H41	H4	0.687100	0.548600	0.659200
C61	C6	0.387500	0.651000	0.523700
H51	H5	0.358100	0.610800	0.543100
H61	H6	0.352300	0.691600	0.515500
C71	C7	0.424400	0.626100	0.457300
H71	H7	0.384500	0.610700	0.426800
H81	H8	0.459000	0.585800	0.465700
H91	H9	0.452700	0.666300	0.437900
C81	C8	0.528900	0.746700	0.544000
H101	H10	0.499900	0.788900	0.529500
H111	H11	0.554400	0.724800	0.506100
H121	H12	0.566800	0.761500	0.576500
C91	C9	0.421300	0.723700	0.656300
C101	C10	0.355000	0.763200	0.652800
H131	H13	0.327700	0.764600	0.612600
C111	C11	0.327800	0.800400	0.706600
H141	H14	0.281700	0.826400	0.701900
C121	C12	0.426800	0.763900	0.768300
H151	H15	0.452900	0.763000	0.809100
C131	C13	0.456900	0.726200	0.716900
H161	H16	0.503400	0.701200	0.722900
C141	C14	0.162400	0.797800	0.858000
H171	H17	0.195500	0.757600	0.855000
C151	C15	0.085400	0.784800	0.859400
H181	H18	0.067100	0.736700	0.857000
C161	C16	0.034100	0.842400	0.864400
C171	C17	0.067000	0.910200	0.869000
H191	H19	0.035600	0.951400	0.874100
C181	C18	0.143900	0.918500	0.866400
H201	H20	0.163800	0.966000	0.868900
C191	C19	0.901400	0.770700	0.794100
H211	H21	0.939500	0.732100	0.787900
H221	H22	0.852000	0.747400	0.802900
C201	C20	0.895400	0.814500	0.730500
H231	H23	0.881100	0.782600	0.694100
H241	H24	0.944500	0.837000	0.720900
H251	H25	0.856800	0.852100	0.735800
C211	C21	0.876600	0.913400	0.867200
H261	H26	0.888200	0.940500	0.827000
H271	H27	0.892400	0.941500	0.905700
H281	H28	0.821900	0.904300	0.869500
C221	C22	0.905600	0.774300	0.943200
C231	C23	0.957000	0.746100	0.985200
H291	H29	0.009500	0.751600	0.976000
C241	C24	0.935300	0.709600	0.041300
H301	H30	0.973600	0.693100	0.070600
C251	C25	0.813400	0.722500	0.014900
H311	H31	0.761500	0.714800	0.024900
C261	C26	0.829500	0.760200	0.958500
H321	H32	0.789900	0.776300	0.930500
Ag21	Ag2	0.177230	0.125950	0.352220
Si31	Si3	0.036650	0.320160	0.081760
Si41	Si4	0.571500	0.174160	0.366050
N51	N5	0.137700	0.198000	0.264300
N61	N6	0.892800	0.523600	0.142600
N71	N7	0.306900	0.136600	0.360600
N81	N8	0.636800	0.303700	0.556200
C271	C27	0.964500	0.527900	0.124600
H331	H33	0.987300	0.574300	0.123300
C281	C28	0.008800	0.469200	0.107400
H341	H34	0.060100	0.475900	0.094700
C291	C29	0.978200	0.401200	0.109000
C301	C30	0.905100	0.396100	0.127900
H351	H35	0.881400	0.350100	0.129500
C311	C31	0.863900	0.457200	0.145100
H361	H36	0.812900	0.451400	0.159200
C321	C32	0.112500	0.349000	0.023700
H371	H37	0.141900	0.389200	0.043100
H381	H38	0.147700	0.308400	0.015500
C331	C33	0.075600	0.373900	0.957300
H391	H39	0.115500	0.389300	0.926800
H401	H40	0.041000	0.414200	0.965700
H411	H41	0.047300	0.333700	0.937900
C341	C34	0.971100	0.253300	0.044000
H421	H42	0.000100	0.211100	0.029500
H431	H43	0.945600	0.275200	0.006100
H441	H44	0.933200	0.238500	0.076500
C351	C35	0.078700	0.276300	0.156300
C361	C36	0.145000	0.236800	0.152800
H451	H45	0.172300	0.235400	0.112600
C371	C37	0.172200	0.199600	0.206600
H461	H46	0.218300	0.173600	0.201900
C381	C38	0.073200	0.236100	0.268300
H471	H47	0.047100	0.237000	0.309100
C391	C39	0.043100	0.273800	0.216900
H481	H48	0.996600	0.298800	0.222900
C401	C40	0.337600	0.202200	0.358000
H491	H49	0.304500	0.242400	0.355000
C411	C41	0.414600	0.215200	0.359400
H501	H50	0.432900	0.263300	0.357000
C421	C42	0.465900	0.157600	0.364400
C431	C43	0.433000	0.089800	0.369000
H511	H51	0.464400	0.048600	0.374100
C441	C44	0.356100	0.081500	0.366400
H521	H52	0.336200	0.034000	0.368900
C451	C45	0.598600	0.229300	0.294100
H531	H53	0.560500	0.267900	0.287900
H541	H54	0.648000	0.252600	0.302900
C461	C46	0.604600	0.185500	0.230500
H551	H55	0.618900	0.217400	0.194100
H561	H56	0.555500	0.163000	0.220900
H571	H57	0.643200	0.147900	0.235800
C471	C47	0.623400	0.086600	0.367200
H581	H58	0.611800	0.059500	0.327000
H591	H59	0.607600	0.058500	0.405700
H601	H60	0.678100	0.095700	0.369500
C481	C48	0.594400	0.225700	0.443200
C491	C49	0.543000	0.253900	0.485200
H611	H61	0.490500	0.248400	0.476000
C501	C50	0.564700	0.290400	0.541300
H621	H62	0.526400	0.306900	0.570600
C511	C51	0.686600	0.277500	0.514900
H631	H63	0.738500	0.285200	0.524900
C521	C52	0.670500	0.239800	0.458500
H641	H64	0.710100	0.223700	0.430500
Ag31	Ag3	0.677230	0.374050	0.647780
Si51	Si5	0.536650	0.179840	0.918240
Si61	Si6	0.071500	0.325840	0.633950
N91	N9	0.637700	0.302000	0.735700
N101	N10	0.392800	0.976400	0.857400
N111	N11	0.806900	0.363400	0.639400
N121	N12	0.136800	0.196300	0.443800
C531	C53	0.464500	0.972100	0.875400
H651	H65	0.487300	0.925700	0.876700
C541	C54	0.508800	0.030800	0.892600
H661	H66	0.560100	0.024100	0.905300
C551	C55	0.478200	0.098800	0.891000
C561	C56	0.405100	0.103900	0.872100
H671	H67	0.381400	0.149900	0.870500
C571	C57	0.363900	0.042800	0.854900
H681	H68	0.312900	0.048600	0.840800
C581	C58	0.612500	0.151000	0.976300
H691	H69	0.641900	0.110800	0.956900
H701	H70	0.647700	0.191600	0.984500
C591	C59	0.575600	0.126100	0.042700
H711	H71	0.615500	0.110700	0.073200
H721	H72	0.541000	0.085800	0.034300
H731	H73	0.547300	0.166300	0.062100
C601	C60	0.471100	0.246700	0.956000
H741	H74	0.500100	0.288900	0.970500
H751	H75	0.445600	0.224800	0.993900
H761	H76	0.433200	0.261500	0.923500
C611	C61	0.578700	0.223700	0.843700
C621	C62	0.645000	0.263200	0.847200
H771	H77	0.672300	0.264600	0.887400
C631	C63	0.672200	0.300400	0.793400
H781	H78	0.718300	0.326400	0.798100
C641	C64	0.573200	0.263900	0.731700
H791	H79	0.547100	0.263000	0.690900
C651	C65	0.543100	0.226200	0.783100
H801	H80	0.496600	0.201200	0.777100
C661	C66	0.837600	0.297800	0.642000
H811	H81	0.804500	0.257600	0.645000
C671	C67	0.914600	0.284800	0.640600
H821	H82	0.932900	0.236700	0.643000
C681	C68	0.965900	0.342400	0.635600
C691	C69	0.933000	0.410200	0.631000
H831	H83	0.964400	0.451400	0.625900
C701	C70	0.856100	0.418500	0.633600
H841	H84	0.836200	0.466000	0.631100
C711	C71	0.098600	0.270700	0.705900
H851	H85	0.060500	0.232100	0.712100
H861	H86	0.148000	0.247400	0.697100
C721	C72	0.104600	0.314500	0.769500
H871	H87	0.118900	0.282600	0.805900
H881	H88	0.055500	0.337000	0.779100
H891	H89	0.143200	0.352100	0.764200
C731	C73	0.123400	0.413400	0.632800
H901	H90	0.111800	0.440500	0.673000
H911	H91	0.107600	0.441500	0.594300
H921	H92	0.178100	0.404300	0.630500
C741	C74	0.094400	0.274300	0.556800
C751	C75	0.043000	0.246100	0.514800
H931	H93	0.990500	0.251600	0.524000
C761	C76	0.064700	0.209600	0.458700
H941	H94	0.026400	0.193100	0.429400
C771	C77	0.186600	0.222500	0.485100
H951	H95	0.238500	0.214800	0.475100
C781	C78	0.170500	0.260200	0.541500
H961	H96	0.210100	0.276300	0.569500
Ag41	Ag4	0.822770	0.625950	0.147780
Si71	Si7	0.963350	0.820160	0.418240
Si81	Si8	0.428500	0.674160	0.133950
N131	N13	0.862300	0.698000	0.235700
N141	N14	0.107200	0.023600	0.357400
N151	N15	0.693100	0.636600	0.139400
N161	N16	0.363200	0.803700	0.943800
C791	C79	0.035500	0.027900	0.375400
H971	H97	0.012700	0.074300	0.376700
C801	C80	0.991200	0.969200	0.392600
H981	H98	0.939900	0.975900	0.405300
C811	C81	0.021800	0.901200	0.391000
C821	C82	0.094900	0.896100	0.372100
H991	H99	0.118600	0.850100	0.370500
C831	C83	0.136100	0.957200	0.354900
H1001	H100	0.187100	0.951400	0.340800
C841	C84	0.887500	0.849000	0.476300
H1011	H101	0.858100	0.889200	0.456900
H1021	H102	0.852300	0.808400	0.484500
C851	C85	0.924400	0.873900	0.542700
H1031	H103	0.884500	0.889300	0.573200
H1041	H104	0.959000	0.914200	0.534300
H1051	H105	0.952700	0.833700	0.562100
C861	C86	0.028900	0.753300	0.456000
H1061	H106	0.999900	0.711100	0.470500
H1071	H107	0.054400	0.775200	0.493900
H1081	H108	0.066800	0.738500	0.423500
C871	C87	0.921300	0.776300	0.343700
C881	C88	0.855000	0.736800	0.347200
H1091	H109	0.827700	0.735400	0.387400
C891	C89	0.827800	0.699600	0.293400
H1101	H110	0.781700	0.673600	0.298100
C901	C90	0.926800	0.736100	0.231700
H1111	H111	0.952900	0.737000	0.190900
C911	C91	0.956900	0.773800	0.283100
H1121	H112	0.003400	0.798800	0.277100
C921	C92	0.662400	0.702200	0.142000
H1131	H113	0.695500	0.742400	0.145000
C931	C93	0.585400	0.715200	0.140600
H1141	H114	0.567100	0.763300	0.143000
C941	C94	0.534100	0.657600	0.135600
C951	C95	0.567000	0.589800	0.131000
H1151	H115	0.535600	0.548600	0.125900
C961	C96	0.643900	0.581500	0.133600
H1161	H116	0.663800	0.534000	0.131100
C971	C97	0.401400	0.729300	0.205900
H1171	H117	0.439500	0.767900	0.212100
H1181	H118	0.352000	0.752600	0.197100
C981	C98	0.395400	0.685500	0.269500
H1191	H119	0.381100	0.717400	0.305900
H1201	H120	0.444500	0.663000	0.279100
H1211	H121	0.356800	0.647900	0.264200
C991	C99	0.376600	0.586600	0.132800
H1221	H122	0.388200	0.559500	0.173000
H1231	H123	0.392400	0.558500	0.094300
H1241	H124	0.321900	0.595700	0.130500
C1001	C100	0.405600	0.725700	0.056800
C1011	C101	0.457000	0.753900	0.014800
H1251	H125	0.509500	0.748400	0.024000
C1021	C102	0.435300	0.790400	0.958700
H1261	H126	0.473600	0.806900	0.929400
C1031	C103	0.313400	0.777500	0.985100
H1271	H127	0.261500	0.785200	0.975100
C1041	C104	0.329500	0.739800	0.041500
H1281	H128	0.289900	0.723700	0.069500
Ag51	Ag5	0.837880	0.119890	0.845550
Si91	Si9	0.860960	0.497690	0.859600
Si101	Si10	0.535620	0.024060	0.641140
N171	N17	0.861300	0.244100	0.859500
N181	N18	0.060800	0.588800	0.729000
N191	N19	0.737700	0.085200	0.782700
N201	N20	0.633700	0.917800	0.449900
C1051	C105	0.831800	0.282100	0.909200
H1291	H129	0.809300	0.256700	0.944800
C1061	C106	0.832400	0.356600	0.911300
H1301	H130	0.809700	0.380900	0.947400
C1071	C107	0.866000	0.396100	0.861100
C1081	C108	0.898000	0.356100	0.810800
H1311	H131	0.922400	0.380300	0.775500
C1091	C109	0.894900	0.281100	0.810900
H1321	H132	0.917400	0.255400	0.775600
C1101	C110	0.764700	0.517300	0.817600
H1331	H133	0.767400	0.502100	0.770900
H1341	H134	0.724700	0.488400	0.839300
C1111	C111	0.742800	0.598300	0.820700
H1351	H135	0.694000	0.605600	0.798800
H1361	H136	0.781800	0.627100	0.798700
H1371	H137	0.738800	0.613400	0.866800
C1121	C112	0.874000	0.532400	0.947100
H1381	H138	0.924700	0.519300	0.963000
H1391	H139	0.835600	0.510700	0.975800
H1401	H140	0.868600	0.584900	0.947600
C1131	C113	0.940400	0.533200	0.806400
C1141	C114	0.015000	0.525600	0.824200
H1411	H141	0.027200	0.501400	0.864000
C1151	C115	0.072500	0.552400	0.785300
H1421	H142	0.123400	0.544800	0.799100
C1161	C116	0.988500	0.597000	0.712300
H1431	H143	0.977000	0.623400	0.673500
C1171	C117	0.929200	0.569400	0.748400
H1441	H144	0.878900	0.575600	0.732700
C1181	C118	0.723200	0.120400	0.727500
H1451	H145	0.755200	0.159800	0.716500
C1191	C119	0.664500	0.103700	0.684500
H1461	H146	0.657400	0.131600	0.645800
C1201	C120	0.616500	0.047100	0.697800
C1211	C121	0.633200	0.009900	0.755400
H1471	H147	0.602700	0.969500	0.766700
C1221	C122	0.691700	0.028700	0.796700
H1481	H148	0.699900	0.001700	0.835800
C1231	C123	0.486000	0.108200	0.617300
H1491	H149	0.463700	0.129600	0.657500
H1501	H150	0.524400	0.142500	0.600500
C1241	C124	0.422600	0.101400	0.565200
H1511	H151	0.400600	0.149100	0.556700
H1521	H152	0.383000	0.068900	0.581500
H1531	H153	0.443900	0.082000	0.524400
C1251	C125	0.470800	0.958900	0.680800
H1541	H154	0.498900	0.915000	0.692000
H1551	H155	0.429500	0.946900	0.650500
H1561	H156	0.449800	0.980200	0.720900
C1261	C126	0.577100	0.981100	0.565700
C1271	C127	0.531900	0.941900	0.523600
H1571	H157	0.479800	0.935000	0.533800
C1281	C128	0.560900	0.913000	0.467400
H1581	H158	0.527300	0.887900	0.438900
C1291	C129	0.677700	0.953900	0.489700
H1591	H159	0.729700	0.958800	0.478300
C1301	C130	0.652900	0.985700	0.547900
H1601	H160	0.687700	0.010500	0.575400
Ag61	Ag6	0.662120	0.880110	0.345550
Si111	Si11	0.639040	0.502310	0.359600
Si121	Si12	0.964380	0.975940	0.141140
N211	N21	0.638700	0.755900	0.359500
N221	N22	0.439200	0.411200	0.229000
N231	N23	0.762300	0.914800	0.282700
N241	N24	0.866300	0.082200	0.949900
C1311	C131	0.668200	0.717900	0.409200
H1611	H161	0.690700	0.743300	0.444800
C1321	C132	0.667600	0.643400	0.411300
H1621	H162	0.690300	0.619100	0.447400
C1331	C133	0.634000	0.603900	0.361100
C1341	C134	0.602000	0.643900	0.310800
H1631	H163	0.577600	0.619700	0.275500
C1351	C135	0.605100	0.718900	0.310900
H1641	H164	0.582600	0.744600	0.275600
C1361	C136	0.735300	0.482700	0.317600
H1651	H165	0.732600	0.497900	0.270900
H1661	H166	0.775300	0.511600	0.339300
C1371	C137	0.757200	0.401700	0.320700
H1671	H167	0.806000	0.394400	0.298800
H1681	H168	0.718200	0.372900	0.298700
H1691	H169	0.761200	0.386600	0.366800
C1381	C138	0.626000	0.467600	0.447100
H1701	H170	0.575300	0.480700	0.463000
H1711	H171	0.664400	0.489300	0.475800
H1721	H172	0.631400	0.415100	0.447600
C1391	C139	0.559600	0.466800	0.306400
C1401	C140	0.485000	0.474400	0.324200
H1731	H173	0.472800	0.498600	0.364000
C1411	C141	0.427500	0.447600	0.285300
H1741	H174	0.376600	0.455200	0.299100
C1421	C142	0.511500	0.403000	0.212300
H1751	H175	0.523000	0.376600	0.173500
C1431	C143	0.570800	0.430600	0.248400
H1761	H176	0.621100	0.424400	0.232700
C1441	C144	0.776800	0.879600	0.227500
H1771	H177	0.744800	0.840200	0.216500
C1451	C145	0.835500	0.896300	0.184500
H1781	H178	0.842600	0.868400	0.145800
C1461	C146	0.883500	0.952900	0.197800
C1471	C147	0.866800	0.990100	0.255400
H1791	H179	0.897300	0.030500	0.266700
C1481	C148	0.808300	0.971300	0.296700
H1801	H180	0.800100	0.998300	0.335800
C1491	C149	0.014000	0.891800	0.117300
H1811	H181	0.036300	0.870400	0.157500
H1821	H182	0.975600	0.857500	0.100500
C1501	C150	0.077400	0.898600	0.065200
H1831	H183	0.099400	0.850900	0.056700
H1841	H184	0.117000	0.931100	0.081500
H1851	H185	0.056100	0.918000	0.024400
C1511	C151	0.029200	0.041100	0.180800
H1861	H186	0.001100	0.085000	0.192000
H1871	H187	0.070500	0.053100	0.150500
H1881	H188	0.050200	0.019800	0.220900
C1521	C152	0.922900	0.018900	0.065700
C1531	C153	0.968100	0.058100	0.023600
H1891	H189	0.020200	0.065000	0.033800
C1541	C154	0.939100	0.087000	0.967400
H1901	H190	0.972700	0.112100	0.938900
C1551	C155	0.822300	0.046100	0.989700
H1911	H191	0.770300	0.041200	0.978300
C1561	C156	0.847100	0.014300	0.047900
H1921	H192	0.812300	0.989500	0.075400
Ag71	Ag7	0.162120	0.619890	0.654450
Si131	Si13	0.139040	0.997690	0.640400
Si141	Si14	0.464380	0.524060	0.858860
N251	N25	0.138700	0.744100	0.640500
N261	N26	0.939200	0.088800	0.771000
N271	N27	0.262300	0.585200	0.717300
N281	N28	0.366300	0.417800	0.050100
C1571	C157	0.168200	0.782100	0.590800
H1931	H193	0.190700	0.756700	0.555200
C1581	C158	0.167600	0.856600	0.588700
H1941	H194	0.190300	0.880900	0.552600
C1591	C159	0.134000	0.896100	0.638900
C1601	C160	0.102000	0.856100	0.689200
H1951	H195	0.077600	0.880300	0.724500
C1611	C161	0.105100	0.781100	0.689100
H1961	H196	0.082600	0.755400	0.724400
C1621	C162	0.235300	0.017300	0.682400
H1971	H197	0.232600	0.002100	0.729100
H1981	H198	0.275300	0.988400	0.660700
C1631	C163	0.257200	0.098300	0.679300
H1991	H199	0.306000	0.105600	0.701200
H2001	H200	0.218200	0.127100	0.701300
H2011	H201	0.261200	0.113400	0.633200
C1641	C164	0.126000	0.032400	0.552900
H2021	H202	0.075300	0.019300	0.537000
H2031	H203	0.164400	0.010700	0.524200
H2041	H204	0.131400	0.084900	0.552400
C1651	C165	0.059600	0.033200	0.693600
C1661	C166	0.985000	0.025600	0.675800
H2051	H205	0.972800	0.001400	0.636000
C1671	C167	0.927500	0.052400	0.714700
H2061	H206	0.876600	0.044800	0.700900
C1681	C168	0.011500	0.097000	0.787700
H2071	H207	0.023000	0.123400	0.826500
C1691	C169	0.070800	0.069400	0.751600
H2081	H208	0.121100	0.075600	0.767300
C1701	C170	0.276800	0.620400	0.772500
H2091	H209	0.244800	0.659800	0.783500
C1711	C171	0.335500	0.603700	0.815500
H2101	H210	0.342600	0.631600	0.854200
C1721	C172	0.383500	0.547100	0.802200
C1731	C173	0.366800	0.509900	0.744600
H2111	H211	0.397300	0.469500	0.733300
C1741	C174	0.308300	0.528700	0.703300
H2121	H212	0.300100	0.501700	0.664200
C1751	C175	0.514000	0.608200	0.882700
H2131	H213	0.536300	0.629600	0.842500
H2141	H214	0.475600	0.642500	0.899500
C1761	C176	0.577400	0.601400	0.934800
H2151	H215	0.599400	0.649100	0.943300
H2161	H216	0.617000	0.568900	0.918500
H2171	H217	0.556100	0.582000	0.975600
C1771	C177	0.529200	0.458900	0.819200
H2181	H218	0.501100	0.415000	0.808000
H2191	H219	0.570500	0.446900	0.849500
H2201	H220	0.550200	0.480200	0.779100
C1781	C178	0.422900	0.481100	0.934300
C1791	C179	0.468100	0.441900	0.976400
H2211	H221	0.520200	0.435000	0.966200
C1801	C180	0.439100	0.413000	0.032600
H2221	H222	0.472700	0.387900	0.061100
C1811	C181	0.322300	0.453900	0.010300
H2231	H223	0.270300	0.458800	0.021700
C1821	C182	0.347100	0.485700	0.952100
H2241	H224	0.312300	0.510500	0.924600
Ag81	Ag8	0.337880	0.380110	0.154450
Si151	Si15	0.360960	0.002310	0.140400
Si161	Si16	0.035620	0.475940	0.358860
N291	N29	0.361300	0.255900	0.140500
N301	N30	0.560800	0.911200	0.271000
N311	N31	0.237700	0.414800	0.217300
N321	N32	0.133700	0.582200	0.550100
C1831	C183	0.331800	0.217900	0.090800
H2251	H225	0.309300	0.243300	0.055200
C1841	C184	0.332400	0.143400	0.088700
H2261	H226	0.309700	0.119100	0.052600
C1851	C185	0.366000	0.103900	0.138900
C1861	C186	0.398000	0.143900	0.189200
H2271	H227	0.422400	0.119700	0.224500
C1871	C187	0.394900	0.218900	0.189100
H2281	H228	0.417400	0.244600	0.224400
C1881	C188	0.264700	0.982700	0.182400
H2291	H229	0.267400	0.997900	0.229100
H2301	H230	0.224700	0.011600	0.160700
C1891	C189	0.242800	0.901700	0.179300
H2311	H231	0.194000	0.894400	0.201200
H2321	H232	0.281800	0.872900	0.201300
H2331	H233	0.238800	0.886600	0.133200
C1901	C190	0.374000	0.967600	0.052900
H2341	H234	0.424700	0.980700	0.037000
H2351	H235	0.335600	0.989300	0.024200
H2361	H236	0.368600	0.915100	0.052400
C1911	C191	0.440400	0.966800	0.193600
C1921	C192	0.515000	0.974400	0.175800
H2371	H237	0.527200	0.998600	0.136000
C1931	C193	0.572500	0.947600	0.214700
H2381	H238	0.623400	0.955200	0.200900
C1941	C194	0.488500	0.903000	0.287700
H2391	H239	0.477000	0.876600	0.326500
C1951	C195	0.429200	0.930600	0.251600
H2401	H240	0.378900	0.924400	0.267300
C1961	C196	0.223200	0.379600	0.272500
H2411	H241	0.255200	0.340200	0.283500
C1971	C197	0.164500	0.396300	0.315500
H2421	H242	0.157400	0.368400	0.354200
C1981	C198	0.116500	0.452900	0.302200
C1991	C199	0.133200	0.490100	0.244600
H2431	H243	0.102700	0.530500	0.233300
C2001	C200	0.191700	0.471300	0.203300
H2441	H244	0.199900	0.498300	0.164200
C2011	C201	0.986000	0.391800	0.382700
H2451	H245	0.963700	0.370400	0.342500
H2461	H246	0.024400	0.357500	0.399500
C2021	C202	0.922600	0.398600	0.434800
H2471	H247	0.900600	0.350900	0.443300
H2481	H248	0.883000	0.431100	0.418500
H2491	H249	0.943900	0.418000	0.475600
C2031	C203	0.970800	0.541100	0.319200
H2501	H250	0.998900	0.585000	0.308000
H2511	H251	0.929500	0.553100	0.349500
H2521	H252	0.949800	0.519800	0.279100
C2041	C204	0.077100	0.518900	0.434300
C2051	C205	0.031900	0.558100	0.476400
H2531	H253	0.979800	0.565000	0.466200
C2061	C206	0.060900	0.587000	0.532600
H2541	H254	0.027300	0.612100	0.561100
C2071	C207	0.177700	0.546100	0.510300
H2551	H255	0.229700	0.541200	0.521700
C2081	C208	0.152900	0.514300	0.452100
H2561	H256	0.187700	0.489500	0.424600
