data_QIYCAE_clean_PM
_symmetry_space_group_name_H-M	'P1'
_cell_length_a	18.310000
_cell_length_b	18.352700
_cell_length_c	20.295400
_cell_angle_alpha	90.000000
_cell_angle_beta	90.000000
_cell_angle_gamma	90.000000
_symmetry_Int_Tables_number 1

loop_
_symmetry_equiv_pos_as_xyz
'x,y,z'

loop_
_atom_site_label
_atom_site_type_symbol
_atom_site_fract_x
_atom_site_fract_y
_atom_site_fract_z
Ag11	Ag1	0.159320	0.856470	0.651140
Si11	Si1	0.539670	0.832280	0.628890
Si21	Si2	0.035600	0.668950	0.929630
N11	N1	0.283700	0.852900	0.637900
N21	N2	0.610900	0.728000	0.428400
N31	N3	0.122600	0.795900	0.745300
N41	N4	0.904400	0.462100	0.862800
C11	C1	0.326200	0.913100	0.630700
H11	H1	0.303600	0.959600	0.628300
C21	C2	0.401000	0.908700	0.627000
H21	H2	0.428400	0.952300	0.621400
C31	C3	0.437500	0.843700	0.631100
C41	C4	0.392500	0.782200	0.636800
H31	H3	0.413800	0.735100	0.638500
C51	C5	0.317800	0.789300	0.640000
H41	H4	0.289200	0.746400	0.644000
C61	C6	0.541700	0.729200	0.446600
H51	H5	0.507000	0.706000	0.418900
C71	C7	0.516200	0.762700	0.504700
H61	H6	0.465500	0.762400	0.514900
C81	C8	0.565000	0.795800	0.546400
C91	C9	0.637300	0.795800	0.524800
H71	H7	0.673500	0.819500	0.550500
C101	C10	0.656900	0.762600	0.467800
H81	H8	0.706900	0.764200	0.455400
C111	C11	0.573000	0.773400	0.697500
H91	H9	0.531800	0.749300	0.720300
H101	H10	0.607000	0.735700	0.681000
C121	C12	0.611300	0.825300	0.742400
H111	H11	0.576700	0.841000	0.777100
H121	H12	0.652000	0.799300	0.764300
C131	C13	0.639800	0.888300	0.710800
H131	H13	0.689000	0.877000	0.693500
H141	H14	0.645100	0.927600	0.743800
C141	C14	0.591900	0.915600	0.654300
H151	H15	0.622100	0.934300	0.617500
H161	H16	0.558500	0.954600	0.669300
C151	C15	0.060400	0.757800	0.743200
H171	H17	0.033700	0.756900	0.703100
C161	C16	0.033200	0.719900	0.796200
H181	H18	0.988800	0.693500	0.791800
C171	C17	0.069700	0.719800	0.856000
C181	C18	0.132900	0.761200	0.858500
H191	H19	0.160200	0.764400	0.898200
C191	C19	0.156000	0.797700	0.802600
H201	H20	0.199100	0.826300	0.805900
C201	C20	0.872500	0.526800	0.869600
H211	H21	0.821500	0.530400	0.861600
C211	C21	0.909400	0.588400	0.887700
H221	H22	0.883600	0.633100	0.891500
C221	C22	0.984200	0.586800	0.900500
C231	C23	0.015300	0.520800	0.892800
H231	H23	0.066300	0.515700	0.900100
C241	C24	0.975300	0.460200	0.874700
H241	H24	0.000000	0.414900	0.870600
C251	C25	0.965800	0.728900	0.981300
H251	H25	0.960000	0.778300	0.962300
H261	H26	0.917400	0.705200	0.984800
C261	C26	0.002500	0.731000	0.043200
H271	H27	0.965700	0.737000	0.078500
H281	H28	0.034900	0.774200	0.044200
C271	C27	0.046800	0.665000	0.057400
H291	H29	0.014200	0.622800	0.064800
H301	H30	0.076000	0.672800	0.097800
C281	C28	0.100600	0.648600	0.995800
H311	H31	0.117200	0.597300	0.994800
H321	H32	0.143400	0.681600	0.995000
Ag21	Ag2	0.340680	0.143530	0.151140
Si31	Si3	0.960330	0.167720	0.128890
Si41	Si4	0.464400	0.331050	0.429630
N51	N5	0.216300	0.147100	0.137900
N61	N6	0.889100	0.272000	0.928400
N71	N7	0.377400	0.204100	0.245300
N81	N8	0.595600	0.537900	0.362800
C291	C29	0.173800	0.086900	0.130700
H331	H33	0.196400	0.040400	0.128300
C301	C30	0.099000	0.091300	0.127000
H341	H34	0.071600	0.047700	0.121400
C311	C31	0.062500	0.156300	0.131100
C321	C32	0.107500	0.217800	0.136800
H351	H35	0.086200	0.264900	0.138500
C331	C33	0.182200	0.210700	0.140000
H361	H36	0.210800	0.253600	0.144000
C341	C34	0.958300	0.270800	0.946600
H371	H37	0.993000	0.294000	0.918900
C351	C35	0.983800	0.237300	0.004700
H381	H38	0.034500	0.237600	0.014900
C361	C36	0.935000	0.204200	0.046400
C371	C37	0.862700	0.204200	0.024800
H391	H39	0.826500	0.180500	0.050500
C381	C38	0.843100	0.237400	0.967800
H401	H40	0.793100	0.235800	0.955400
C391	C39	0.927000	0.226600	0.197500
H411	H41	0.968200	0.250700	0.220300
H421	H42	0.893000	0.264300	0.181000
C401	C40	0.888700	0.174700	0.242400
H431	H43	0.923300	0.159000	0.277100
H441	H44	0.848000	0.200700	0.264300
C411	C41	0.860200	0.111700	0.210800
H451	H45	0.811000	0.123000	0.193500
H461	H46	0.854900	0.072400	0.243800
C421	C42	0.908100	0.084400	0.154300
H471	H47	0.877900	0.065700	0.117500
H481	H48	0.941500	0.045400	0.169300
C431	C43	0.439600	0.242200	0.243200
H491	H49	0.466300	0.243100	0.203100
C441	C44	0.466800	0.280100	0.296200
H501	H50	0.511200	0.306500	0.291800
C451	C45	0.430300	0.280200	0.356000
C461	C46	0.367100	0.238800	0.358500
H511	H51	0.339800	0.235600	0.398200
C471	C47	0.344000	0.202300	0.302600
H521	H52	0.300900	0.173700	0.305900
C481	C48	0.627500	0.473200	0.369600
H531	H53	0.678500	0.469600	0.361600
C491	C49	0.590600	0.411600	0.387700
H541	H54	0.616400	0.366900	0.391500
C501	C50	0.515800	0.413200	0.400500
C511	C51	0.484700	0.479200	0.392800
H551	H55	0.433700	0.484300	0.400100
C521	C52	0.524700	0.539800	0.374700
H561	H56	0.500000	0.585100	0.370600
C531	C53	0.534200	0.271100	0.481300
H571	H57	0.540000	0.221700	0.462300
H581	H58	0.582600	0.294800	0.484800
C541	C54	0.497500	0.269000	0.543200
H591	H59	0.534300	0.263000	0.578500
H601	H60	0.465100	0.225800	0.544200
C551	C55	0.453200	0.335000	0.557400
H611	H61	0.485800	0.377200	0.564800
H621	H62	0.424000	0.327200	0.597800
C561	C56	0.399400	0.351400	0.495800
H631	H63	0.382800	0.402700	0.494800
H641	H64	0.356600	0.318400	0.495000
Ag31	Ag3	0.840680	0.356470	0.848860
Si51	Si5	0.460330	0.332280	0.871110
Si61	Si6	0.964400	0.168950	0.570370
N91	N9	0.716300	0.352900	0.862100
N101	N10	0.389100	0.228000	0.071600
N111	N11	0.877400	0.295900	0.754700
N121	N12	0.095600	0.962100	0.637200
C571	C57	0.673800	0.413100	0.869300
H651	H65	0.696400	0.459600	0.871700
C581	C58	0.599000	0.408700	0.873000
H661	H66	0.571600	0.452300	0.878600
C591	C59	0.562500	0.343700	0.868900
C601	C60	0.607500	0.282200	0.863200
H671	H67	0.586200	0.235100	0.861500
C611	C61	0.682200	0.289300	0.860000
H681	H68	0.710800	0.246400	0.856000
C621	C62	0.458300	0.229200	0.053400
H691	H69	0.493000	0.206000	0.081100
C631	C63	0.483800	0.262700	0.995300
H701	H70	0.534500	0.262400	0.985100
C641	C64	0.435000	0.295800	0.953600
C651	C65	0.362700	0.295800	0.975200
H711	H71	0.326500	0.319500	0.949500
C661	C66	0.343100	0.262600	0.032200
H721	H72	0.293100	0.264200	0.044600
C671	C67	0.427000	0.273400	0.802500
H731	H73	0.468200	0.249300	0.779700
H741	H74	0.393000	0.235700	0.819000
C681	C68	0.388700	0.325300	0.757600
H751	H75	0.423300	0.341000	0.722900
H761	H76	0.348000	0.299300	0.735700
C691	C69	0.360200	0.388300	0.789200
H771	H77	0.311000	0.377000	0.806500
H781	H78	0.354900	0.427600	0.756200
C701	C70	0.408100	0.415600	0.845700
H791	H79	0.377900	0.434300	0.882500
H801	H80	0.441500	0.454600	0.830700
C711	C71	0.939600	0.257800	0.756800
H811	H81	0.966300	0.256900	0.796900
C721	C72	0.966800	0.219900	0.703800
H821	H82	0.011200	0.193500	0.708200
C731	C73	0.930300	0.219800	0.644000
C741	C74	0.867100	0.261200	0.641500
H831	H83	0.839800	0.264400	0.601800
C751	C75	0.844000	0.297700	0.697400
H841	H84	0.800900	0.326300	0.694100
C761	C76	0.127500	0.026800	0.630400
H851	H85	0.178500	0.030400	0.638400
C771	C77	0.090600	0.088400	0.612300
H861	H86	0.116400	0.133100	0.608500
C781	C78	0.015800	0.086800	0.599500
C791	C79	0.984700	0.020800	0.607200
H871	H87	0.933700	0.015700	0.599900
C801	C80	0.024700	0.960200	0.625300
H881	H88	0.000000	0.914900	0.629400
C811	C81	0.034200	0.228900	0.518700
H891	H89	0.040000	0.278300	0.537700
H901	H90	0.082600	0.205200	0.515200
C821	C82	0.997500	0.231000	0.456800
H911	H91	0.034300	0.237000	0.421500
H921	H92	0.965100	0.274200	0.455800
C831	C83	0.953200	0.165000	0.442600
H931	H93	0.985800	0.122800	0.435200
H941	H94	0.924000	0.172800	0.402200
C841	C84	0.899400	0.148600	0.504200
H951	H95	0.882800	0.097300	0.505200
H961	H96	0.856600	0.181600	0.505000
Ag41	Ag4	0.659320	0.643530	0.348860
Si71	Si7	0.039670	0.667720	0.371110
Si81	Si8	0.535600	0.831050	0.070370
N131	N13	0.783700	0.647100	0.362100
N141	N14	0.110900	0.772000	0.571600
N151	N15	0.622600	0.704100	0.254700
N161	N16	0.404400	0.037900	0.137200
C851	C85	0.826200	0.586900	0.369300
H971	H97	0.803600	0.540400	0.371700
C861	C86	0.901000	0.591300	0.373000
H981	H98	0.928400	0.547700	0.378600
C871	C87	0.937500	0.656300	0.368900
C881	C88	0.892500	0.717800	0.363200
H991	H99	0.913800	0.764900	0.361500
C891	C89	0.817800	0.710700	0.360000
H1001	H100	0.789200	0.753600	0.356000
C901	C90	0.041700	0.770800	0.553400
H1011	H101	0.007000	0.794000	0.581100
C911	C91	0.016200	0.737300	0.495300
H1021	H102	0.965500	0.737600	0.485100
C921	C92	0.065000	0.704200	0.453600
C931	C93	0.137300	0.704200	0.475200
H1031	H103	0.173500	0.680500	0.449500
C941	C94	0.156900	0.737400	0.532200
H1041	H104	0.206900	0.735800	0.544600
C951	C95	0.073000	0.726600	0.302500
H1051	H105	0.031800	0.750700	0.279700
H1061	H106	0.107000	0.764300	0.319000
C961	C96	0.111300	0.674700	0.257600
H1071	H107	0.076700	0.659000	0.222900
H1081	H108	0.152000	0.700700	0.235700
C971	C97	0.139800	0.611700	0.289200
H1091	H109	0.189000	0.623000	0.306500
H1101	H110	0.145100	0.572400	0.256200
C981	C98	0.091900	0.584400	0.345700
H1111	H111	0.122100	0.565700	0.382500
H1121	H112	0.058500	0.545400	0.330700
C991	C99	0.560400	0.742200	0.256800
H1131	H113	0.533700	0.743100	0.296900
C1001	C100	0.533200	0.780100	0.203800
H1141	H114	0.488800	0.806500	0.208200
C1011	C101	0.569700	0.780200	0.144000
C1021	C102	0.632900	0.738800	0.141500
H1151	H115	0.660200	0.735600	0.101800
C1031	C103	0.656000	0.702300	0.197400
H1161	H116	0.699100	0.673700	0.194100
C1041	C104	0.372500	0.973200	0.130400
H1171	H117	0.321500	0.969600	0.138400
C1051	C105	0.409400	0.911600	0.112300
H1181	H118	0.383600	0.866900	0.108500
C1061	C106	0.484200	0.913200	0.099500
C1071	C107	0.515300	0.979200	0.107200
H1191	H119	0.566300	0.984300	0.099900
C1081	C108	0.475300	0.039800	0.125300
H1201	H120	0.500000	0.085100	0.129400
C1091	C109	0.465800	0.771100	0.018700
H1211	H121	0.460000	0.721700	0.037700
H1221	H122	0.417400	0.794800	0.015200
C1101	C110	0.502500	0.769000	0.956800
H1231	H123	0.465700	0.763000	0.921500
H1241	H124	0.534900	0.725800	0.955800
C1111	C111	0.546800	0.835000	0.942600
H1251	H125	0.514200	0.877200	0.935200
H1261	H126	0.576000	0.827200	0.902200
C1121	C112	0.600600	0.851400	0.004200
H1271	H127	0.617200	0.902700	0.005200
H1281	H128	0.643400	0.818400	0.005000
Ag51	Ag5	0.338530	0.625090	0.846120
Si91	Si9	0.375750	0.007950	0.865290
Si101	Si10	0.046690	0.509590	0.649920
N171	N17	0.347600	0.752300	0.853300
N181	N18	0.565300	0.096600	0.730500
N191	N19	0.239300	0.584300	0.787700
N201	N20	0.130600	0.418300	0.447400
C1131	C113	0.320500	0.792700	0.903500
H1291	H129	0.295300	0.768000	0.937800
C1141	C114	0.327000	0.866300	0.908300
H1301	H130	0.305200	0.891100	0.944300
C1151	C115	0.366000	0.906300	0.860100
C1161	C116	0.395000	0.863300	0.808600
H1311	H131	0.422200	0.885900	0.774400
C1171	C117	0.384400	0.789000	0.807600
H1321	H132	0.404600	0.762300	0.771900
C1181	C118	0.494500	0.100700	0.712700
H1331	H133	0.483100	0.123400	0.672000
C1191	C119	0.437800	0.074000	0.750000
H1341	H134	0.389000	0.079100	0.734800
C1201	C120	0.451100	0.039900	0.809300
C1211	C121	0.524500	0.035800	0.828300
H1351	H135	0.537700	0.013000	0.868600
C1221	C122	0.577000	0.064900	0.788200
H1361	H136	0.626100	0.062200	0.803000
C1231	C123	0.286100	0.054800	0.850200
H1371	H137	0.290200	0.091000	0.814200
H1381	H138	0.247400	0.019300	0.839100
C1241	C124	0.271300	0.091200	0.915500
H1391	H139	0.268600	0.144400	0.907300
H1401	H140	0.222100	0.075600	0.930100
C1251	C125	0.317200	0.080800	0.965900
H1411	H141	0.290000	0.055300	0.001300
H1421	H142	0.331100	0.129200	0.983400
C1261	C126	0.386500	0.038600	0.953000
H1431	H143	0.390800	0.996300	0.983100
H1441	H144	0.430100	0.070000	0.958200
C1271	C127	0.203300	0.521900	0.799300
H1451	H145	0.216800	0.493500	0.836500
C1281	C128	0.147500	0.497400	0.759300
H1461	H146	0.124100	0.452600	0.769500
C1291	C129	0.124700	0.536600	0.704300
C1301	C130	0.162600	0.602600	0.694000
H1471	H147	0.149700	0.633300	0.658100
C1311	C131	0.218600	0.622800	0.736100
H1481	H148	0.243600	0.667100	0.727300
C1321	C132	0.060300	0.419500	0.463800
H1491	H149	0.025800	0.400300	0.433600
C1331	C133	0.035100	0.447400	0.523200
H1501	H150	0.984200	0.446900	0.532300
C1341	C134	0.082400	0.475800	0.569000
C1351	C135	0.154200	0.476600	0.549400
H1511	H151	0.190200	0.496700	0.577700
C1361	C136	0.174600	0.448600	0.489300
H1521	H152	0.224700	0.451800	0.477600
C1371	C137	0.978000	0.584800	0.640000
H1531	H153	0.998900	0.632800	0.651900
H1541	H154	0.958400	0.586800	0.594600
C1381	C138	0.919100	0.559900	0.690200
H1551	H155	0.934700	0.572700	0.735500
H1561	H156	0.872400	0.585200	0.681000
C1391	C139	0.908600	0.480100	0.684900
H1571	H157	0.885100	0.468000	0.642400
H1581	H158	0.876500	0.462800	0.720900
C1401	C140	0.982600	0.443100	0.689500
H1591	H159	0.982500	0.396100	0.665600
H1601	H160	0.996300	0.434200	0.736000
Ag61	Ag6	0.161470	0.374910	0.346120
Si111	Si11	0.124250	0.992050	0.365290
Si121	Si12	0.453310	0.490410	0.149920
N211	N21	0.152400	0.247700	0.353300
N221	N22	0.934700	0.903400	0.230500
N231	N23	0.260700	0.415700	0.287700
N241	N24	0.369400	0.581700	0.947400
C1411	C141	0.179500	0.207300	0.403500
H1611	H161	0.204700	0.232000	0.437800
C1421	C142	0.173000	0.133700	0.408300
H1621	H162	0.194800	0.108900	0.444300
C1431	C143	0.134000	0.093700	0.360100
C1441	C144	0.105000	0.136700	0.308600
H1631	H163	0.077800	0.114100	0.274400
C1451	C145	0.115600	0.211000	0.307600
H1641	H164	0.095400	0.237700	0.271900
C1461	C146	0.005500	0.899300	0.212700
H1651	H165	0.016900	0.876600	0.172000
C1471	C147	0.062200	0.926000	0.250000
H1661	H166	0.111000	0.920900	0.234800
C1481	C148	0.048900	0.960100	0.309300
C1491	C149	0.975500	0.964200	0.328300
H1671	H167	0.962300	0.987000	0.368600
C1501	C150	0.923000	0.935100	0.288200
H1681	H168	0.873900	0.937800	0.303000
C1511	C151	0.213900	0.945200	0.350200
H1691	H169	0.209800	0.909000	0.314200
H1701	H170	0.252600	0.980700	0.339100
C1521	C152	0.228700	0.908800	0.415500
H1711	H171	0.231400	0.855600	0.407300
H1721	H172	0.277900	0.924400	0.430100
C1531	C153	0.182800	0.919200	0.465900
H1731	H173	0.210000	0.944700	0.501300
H1741	H174	0.168900	0.870800	0.483400
C1541	C154	0.113500	0.961400	0.453000
H1751	H175	0.109200	0.003700	0.483100
H1761	H176	0.069900	0.930000	0.458200
C1551	C155	0.296700	0.478100	0.299300
H1771	H177	0.283200	0.506500	0.336500
C1561	C156	0.352500	0.502600	0.259300
H1781	H178	0.375900	0.547400	0.269500
C1571	C157	0.375300	0.463400	0.204300
C1581	C158	0.337400	0.397400	0.194000
H1791	H179	0.350300	0.366700	0.158100
C1591	C159	0.281400	0.377200	0.236100
H1801	H180	0.256400	0.332900	0.227300
C1601	C160	0.439700	0.580500	0.963800
H1811	H181	0.474200	0.599700	0.933600
C1611	C161	0.464900	0.552600	0.023200
H1821	H182	0.515800	0.553100	0.032300
C1621	C162	0.417600	0.524200	0.069000
C1631	C163	0.345800	0.523400	0.049400
H1831	H183	0.309800	0.503300	0.077700
C1641	C164	0.325400	0.551400	0.989300
H1841	H184	0.275300	0.548200	0.977600
C1651	C165	0.522000	0.415200	0.140000
H1851	H185	0.501100	0.367200	0.151900
H1861	H186	0.541600	0.413200	0.094600
C1661	C166	0.580900	0.440100	0.190200
H1871	H187	0.565300	0.427300	0.235500
H1881	H188	0.627600	0.414800	0.181000
C1671	C167	0.591400	0.519900	0.184900
H1891	H189	0.614900	0.532000	0.142400
H1901	H190	0.623500	0.537200	0.220900
C1681	C168	0.517400	0.556900	0.189500
H1911	H191	0.517500	0.603900	0.165600
H1921	H192	0.503700	0.565800	0.236000
Ag71	Ag7	0.661470	0.125090	0.653880
Si131	Si13	0.624250	0.507950	0.634710
Si141	Si14	0.953310	0.009590	0.850080
N251	N25	0.652400	0.252300	0.646700
N261	N26	0.434700	0.596600	0.769500
N271	N27	0.760700	0.084300	0.712300
N281	N28	0.869400	0.918300	0.052600
C1691	C169	0.679500	0.292700	0.596500
H1931	H193	0.704700	0.268000	0.562200
C1701	C170	0.673000	0.366300	0.591700
H1941	H194	0.694800	0.391100	0.555700
C1711	C171	0.634000	0.406300	0.639900
C1721	C172	0.605000	0.363300	0.691400
H1951	H195	0.577800	0.385900	0.725600
C1731	C173	0.615600	0.289000	0.692400
H1961	H196	0.595400	0.262300	0.728100
C1741	C174	0.505500	0.600700	0.787300
H1971	H197	0.516900	0.623400	0.828000
C1751	C175	0.562200	0.574000	0.750000
H1981	H198	0.611000	0.579100	0.765200
C1761	C176	0.548900	0.539900	0.690700
C1771	C177	0.475500	0.535800	0.671700
H1991	H199	0.462300	0.513000	0.631400
C1781	C178	0.423000	0.564900	0.711800
H2001	H200	0.373900	0.562200	0.697000
C1791	C179	0.713900	0.554800	0.649800
H2011	H201	0.709800	0.591000	0.685800
H2021	H202	0.752600	0.519300	0.660900
C1801	C180	0.728700	0.591200	0.584500
H2031	H203	0.731400	0.644400	0.592700
H2041	H204	0.777900	0.575600	0.569900
C1811	C181	0.682800	0.580800	0.534100
H2051	H205	0.710000	0.555300	0.498700
H2061	H206	0.668900	0.629200	0.516600
C1821	C182	0.613500	0.538600	0.547000
H2071	H207	0.609200	0.496300	0.516900
H2081	H208	0.569900	0.570000	0.541800
C1831	C183	0.796700	0.021900	0.700700
H2091	H209	0.783200	0.993500	0.663500
C1841	C184	0.852500	0.997400	0.740700
H2101	H210	0.875900	0.952600	0.730500
C1851	C185	0.875300	0.036600	0.795700
C1861	C186	0.837400	0.102600	0.806000
H2111	H211	0.850300	0.133300	0.841900
C1871	C187	0.781400	0.122800	0.763900
H2121	H212	0.756400	0.167100	0.772700
C1881	C188	0.939700	0.919500	0.036200
H2131	H213	0.974200	0.900300	0.066400
C1891	C189	0.964900	0.947400	0.976800
H2141	H214	0.015800	0.946900	0.967700
C1901	C190	0.917600	0.975800	0.931000
C1911	C191	0.845800	0.976600	0.950600
H2151	H215	0.809800	0.996700	0.922300
C1921	C192	0.825400	0.948600	0.010700
H2161	H216	0.775300	0.951800	0.022400
C1931	C193	0.022000	0.084800	0.860000
H2171	H217	0.001100	0.132800	0.848100
H2181	H218	0.041600	0.086800	0.905400
C1941	C194	0.080900	0.059900	0.809800
H2191	H219	0.065300	0.072700	0.764500
H2201	H220	0.127600	0.085200	0.819000
C1951	C195	0.091400	0.980100	0.815100
H2211	H221	0.114900	0.968000	0.857600
H2221	H222	0.123500	0.962800	0.779100
C1961	C196	0.017400	0.943100	0.810500
H2231	H223	0.017500	0.896100	0.834400
H2241	H224	0.003700	0.934200	0.764000
Ag81	Ag8	0.838530	0.874910	0.153880
Si151	Si15	0.875750	0.492050	0.134710
Si161	Si16	0.546690	0.990410	0.350080
N291	N29	0.847600	0.747700	0.146700
N301	N30	0.065300	0.403400	0.269500
N311	N31	0.739300	0.915700	0.212300
N321	N32	0.630600	0.081700	0.552600
C1971	C197	0.820500	0.707300	0.096500
H2251	H225	0.795300	0.732000	0.062200
C1981	C198	0.827000	0.633700	0.091700
H2261	H226	0.805200	0.608900	0.055700
C1991	C199	0.866000	0.593700	0.139900
C2001	C200	0.895000	0.636700	0.191400
H2271	H227	0.922200	0.614100	0.225600
C2011	C201	0.884400	0.711000	0.192400
H2281	H228	0.904600	0.737700	0.228100
C2021	C202	0.994500	0.399300	0.287300
H2291	H229	0.983100	0.376600	0.328000
C2031	C203	0.937800	0.426000	0.250000
H2301	H230	0.889000	0.420900	0.265200
C2041	C204	0.951100	0.460100	0.190700
C2051	C205	0.024500	0.464200	0.171700
H2311	H231	0.037700	0.487000	0.131400
C2061	C206	0.077000	0.435100	0.211800
H2321	H232	0.126100	0.437800	0.197000
C2071	C207	0.786100	0.445200	0.149800
H2331	H233	0.790200	0.409000	0.185800
H2341	H234	0.747400	0.480700	0.160900
C2081	C208	0.771300	0.408800	0.084500
H2351	H235	0.768600	0.355600	0.092700
H2361	H236	0.722100	0.424400	0.069900
C2091	C209	0.817200	0.419200	0.034100
H2371	H237	0.790000	0.444700	0.998700
H2381	H238	0.831100	0.370800	0.016600
C2101	C210	0.886500	0.461400	0.047000
H2391	H239	0.890800	0.503700	0.016900
H2401	H240	0.930100	0.430000	0.041800
C2111	C211	0.703300	0.978100	0.200700
H2411	H241	0.716800	0.006500	0.163500
C2121	C212	0.647500	0.002600	0.240700
H2421	H242	0.624100	0.047400	0.230500
C2131	C213	0.624700	0.963400	0.295700
C2141	C214	0.662600	0.897400	0.306000
H2431	H243	0.649700	0.866700	0.341900
C2151	C215	0.718600	0.877200	0.263900
H2441	H244	0.743600	0.832900	0.272700
C2161	C216	0.560300	0.080500	0.536200
H2451	H245	0.525800	0.099700	0.566400
C2171	C217	0.535100	0.052600	0.476800
H2461	H246	0.484200	0.053100	0.467700
C2181	C218	0.582400	0.024200	0.431000
C2191	C219	0.654200	0.023400	0.450600
H2471	H247	0.690200	0.003300	0.422300
C2201	C220	0.674600	0.051400	0.510700
H2481	H248	0.724700	0.048200	0.522400
C2211	C221	0.478000	0.915200	0.360000
H2491	H249	0.498900	0.867200	0.348100
H2501	H250	0.458400	0.913200	0.405400
C2221	C222	0.419100	0.940100	0.309800
H2511	H251	0.434700	0.927300	0.264500
H2521	H252	0.372400	0.914800	0.319000
C2231	C223	0.408600	0.019900	0.315100
H2531	H253	0.385100	0.032000	0.357600
H2541	H254	0.376500	0.037200	0.279100
C2241	C224	0.482600	0.056900	0.310500
H2551	H255	0.482500	0.103900	0.334400
H2561	H256	0.496300	0.065800	0.264000
