data_QIYCIM_clean_PM
_symmetry_space_group_name_H-M	'P1'
_cell_length_a	18.193500
_cell_length_b	18.575900
_cell_length_c	20.204400
_cell_angle_alpha	90.000000
_cell_angle_beta	90.000000
_cell_angle_gamma	90.000000
_symmetry_Int_Tables_number 1

loop_
_symmetry_equiv_pos_as_xyz
'x,y,z'

loop_
_atom_site_label
_atom_site_type_symbol
_atom_site_fract_x
_atom_site_fract_y
_atom_site_fract_z
Ag11	Ag1	0.337500	0.358480	0.652730
Si11	Si1	0.954020	0.329930	0.630280
Si21	Si2	0.474500	0.172800	0.927810
N11	N1	0.210800	0.353700	0.640100
N21	N2	0.883500	0.219700	0.430600
N31	N3	0.374000	0.291900	0.744400
N41	N4	0.602300	0.964500	0.860200
C11	C1	0.836200	0.255800	0.468700
H11	H1	0.786500	0.259700	0.454600
C21	C2	0.856400	0.288000	0.528300
H21	H2	0.820100	0.309900	0.555400
C31	C3	0.927800	0.288200	0.547500
C41	C4	0.975900	0.254100	0.509100
H31	H3	0.026100	0.252000	0.522100
C51	C5	0.954000	0.221200	0.449700
H41	H4	0.990200	0.199500	0.422400
C61	C6	0.920200	0.270700	0.699100
H51	H5	0.885800	0.233200	0.683000
H61	H6	0.961000	0.247900	0.723700
C71	C7	0.878400	0.332200	0.743000
H71	H7	0.830800	0.312200	0.758100
H81	H8	0.908400	0.341700	0.783000
C81	C8	0.864900	0.397300	0.712100
H91	H9	0.876600	0.436100	0.744000
H101	H10	0.811500	0.400100	0.702900
C91	C9	0.904800	0.413100	0.649300
H111	H11	0.939500	0.453600	0.655300
H121	H12	0.869800	0.425400	0.613400
C101	C10	0.056500	0.338900	0.633400
C111	C11	0.103200	0.281500	0.638400
H131	H13	0.083400	0.234100	0.638300
C121	C12	0.178200	0.290400	0.643800
H141	H14	0.207900	0.249000	0.650500
C131	C13	0.166000	0.411100	0.631800
H151	H15	0.188000	0.457300	0.629000
C141	C14	0.093500	0.407000	0.627300
H161	H16	0.065600	0.449500	0.620000
C151	C15	0.429800	0.246800	0.738600
H171	H17	0.453100	0.240300	0.697000
C161	C16	0.454700	0.208200	0.795000
H181	H18	0.490900	0.172100	0.788300
C171	C17	0.432900	0.218100	0.851500
C181	C18	0.377100	0.266600	0.858600
H191	H19	0.357300	0.277500	0.900900
C191	C19	0.350400	0.298800	0.802600
H201	H20	0.309500	0.330000	0.808300
C201	C20	0.404700	0.147400	0.992200
H211	H21	0.366100	0.184800	0.994900
H221	H22	0.381000	0.101200	0.980100
C211	C21	0.441400	0.140400	0.055400
H231	H23	0.405300	0.127800	0.089500
H241	H24	0.464900	0.186200	0.066900
H251	H25	0.478800	0.102600	0.052600
C221	C22	0.540200	0.237600	0.965400
H261	H26	0.510400	0.270100	0.993500
H271	H27	0.571200	0.209100	0.996000
C231	C23	0.590800	0.284200	0.928100
H281	H28	0.618200	0.314700	0.959000
H291	H29	0.562600	0.314600	0.897600
H301	H30	0.625200	0.254300	0.902800
C241	C24	0.523700	0.090000	0.899900
C251	C25	0.598100	0.087600	0.884300
H311	H31	0.625700	0.130900	0.886800
C261	C26	0.632400	0.027800	0.866000
H321	H32	0.683400	0.031500	0.856300
C271	C27	0.531800	0.963300	0.873500
H331	H33	0.506600	0.918600	0.870300
C281	C28	0.490700	0.026000	0.892700
H341	H34	0.439300	0.021900	0.900300
Ag21	Ag2	0.162500	0.641520	0.152730
Si31	Si3	0.545980	0.670070	0.130280
Si41	Si4	0.025500	0.827200	0.427810
N51	N5	0.289200	0.646300	0.140100
N61	N6	0.616500	0.780300	0.930600
N71	N7	0.126000	0.708100	0.244400
N81	N8	0.897700	0.035500	0.360200
C291	C29	0.663800	0.744200	0.968700
H351	H35	0.713500	0.740300	0.954600
C301	C30	0.643600	0.712000	0.028300
H361	H36	0.679900	0.690100	0.055400
C311	C31	0.572200	0.711800	0.047500
C321	C32	0.524100	0.745900	0.009100
H371	H37	0.473900	0.748000	0.022100
C331	C33	0.546000	0.778800	0.949700
H381	H38	0.509800	0.800500	0.922400
C341	C34	0.579800	0.729300	0.199100
H391	H39	0.614200	0.766800	0.183000
H401	H40	0.539000	0.752100	0.223700
C351	C35	0.621600	0.667800	0.243000
H411	H41	0.669200	0.687800	0.258100
H421	H42	0.591600	0.658300	0.283000
C361	C36	0.635100	0.602700	0.212100
H431	H43	0.623400	0.563900	0.244000
H441	H44	0.688500	0.599900	0.202900
C371	C37	0.595200	0.586900	0.149300
H451	H45	0.560500	0.546400	0.155300
H461	H46	0.630200	0.574600	0.113400
C381	C38	0.443500	0.661100	0.133400
C391	C39	0.396800	0.718500	0.138400
H471	H47	0.416600	0.765900	0.138300
C401	C40	0.321800	0.709600	0.143800
H481	H48	0.292100	0.751000	0.150500
C411	C41	0.334000	0.588900	0.131800
H491	H49	0.312000	0.542700	0.129000
C421	C42	0.406500	0.593000	0.127300
H501	H50	0.434400	0.550500	0.120000
C431	C43	0.070200	0.753200	0.238600
H511	H51	0.046900	0.759700	0.197000
C441	C44	0.045300	0.791800	0.295000
H521	H52	0.009100	0.827900	0.288300
C451	C45	0.067100	0.781900	0.351500
C461	C46	0.122900	0.733400	0.358600
H531	H53	0.142700	0.722500	0.400900
C471	C47	0.149600	0.701200	0.302600
H541	H54	0.190500	0.670000	0.308300
C481	C48	0.095300	0.852600	0.492200
H551	H55	0.133900	0.815200	0.494900
H561	H56	0.119000	0.898800	0.480100
C491	C49	0.058600	0.859600	0.555400
H571	H57	0.094700	0.872200	0.589500
H581	H58	0.035100	0.813800	0.566900
H591	H59	0.021200	0.897400	0.552600
C501	C50	0.959800	0.762400	0.465400
H601	H60	0.989600	0.729900	0.493500
H611	H61	0.928800	0.790900	0.496000
C511	C51	0.909200	0.715800	0.428100
H621	H62	0.881800	0.685300	0.459000
H631	H63	0.937400	0.685400	0.397600
H641	H64	0.874800	0.745700	0.402800
C521	C52	0.976300	0.910000	0.399900
C531	C53	0.901900	0.912400	0.384300
H651	H65	0.874300	0.869100	0.386800
C541	C54	0.867600	0.972200	0.366000
H661	H66	0.816600	0.968500	0.356300
C551	C55	0.968200	0.036700	0.373500
H671	H67	0.993400	0.081400	0.370300
C561	C56	0.009300	0.974000	0.392700
H681	H68	0.060700	0.978100	0.400300
Ag31	Ag3	0.662500	0.858480	0.847270
Si51	Si5	0.045980	0.829930	0.869720
Si61	Si6	0.525500	0.672800	0.572190
N91	N9	0.789200	0.853700	0.859900
N101	N10	0.116500	0.719700	0.069400
N111	N11	0.626000	0.791900	0.755600
N121	N12	0.397700	0.464500	0.639800
C571	C57	0.163800	0.755800	0.031300
H691	H69	0.213500	0.759700	0.045400
C581	C58	0.143600	0.788000	0.971700
H701	H70	0.179900	0.809900	0.944600
C591	C59	0.072200	0.788200	0.952500
C601	C60	0.024100	0.754100	0.990900
H711	H71	0.973900	0.752000	0.977900
C611	C61	0.046000	0.721200	0.050300
H721	H72	0.009800	0.699500	0.077600
C621	C62	0.079800	0.770700	0.800900
H731	H73	0.114200	0.733200	0.817000
H741	H74	0.039000	0.747900	0.776300
C631	C63	0.121600	0.832200	0.757000
H751	H75	0.169200	0.812200	0.741900
H761	H76	0.091600	0.841700	0.717000
C641	C64	0.135100	0.897300	0.787900
H771	H77	0.123400	0.936100	0.756000
H781	H78	0.188500	0.900100	0.797100
C651	C65	0.095200	0.913100	0.850700
H791	H79	0.060500	0.953600	0.844700
H801	H80	0.130200	0.925400	0.886600
C661	C66	0.943500	0.838900	0.866600
C671	C67	0.896800	0.781500	0.861600
H811	H81	0.916600	0.734100	0.861700
C681	C68	0.821800	0.790400	0.856200
H821	H82	0.792100	0.749000	0.849500
C691	C69	0.834000	0.911100	0.868200
H831	H83	0.812000	0.957300	0.871000
C701	C70	0.906500	0.907000	0.872700
H841	H84	0.934400	0.949500	0.880000
C711	C71	0.570200	0.746800	0.761400
H851	H85	0.546900	0.740300	0.803000
C721	C72	0.545300	0.708200	0.705000
H861	H86	0.509100	0.672100	0.711700
C731	C73	0.567100	0.718100	0.648500
C741	C74	0.622900	0.766600	0.641400
H871	H87	0.642700	0.777500	0.599100
C751	C75	0.649600	0.798800	0.697400
H881	H88	0.690500	0.830000	0.691700
C761	C76	0.595300	0.647400	0.507800
H891	H89	0.633900	0.684800	0.505100
H901	H90	0.619000	0.601200	0.519900
C771	C77	0.558600	0.640400	0.444600
H911	H91	0.594700	0.627800	0.410500
H921	H92	0.535100	0.686200	0.433100
H931	H93	0.521200	0.602600	0.447400
C781	C78	0.459800	0.737600	0.534600
H941	H94	0.489600	0.770100	0.506500
H951	H95	0.428800	0.709100	0.504000
C791	C79	0.409200	0.784200	0.571900
H961	H96	0.381800	0.814700	0.541000
H971	H97	0.437400	0.814600	0.602400
H981	H98	0.374800	0.754300	0.597200
C801	C80	0.476300	0.590000	0.600100
C811	C81	0.401900	0.587600	0.615700
H991	H99	0.374300	0.630900	0.613200
C821	C82	0.367600	0.527800	0.634000
H1001	H100	0.316600	0.531500	0.643700
C831	C83	0.468200	0.463300	0.626500
H1011	H101	0.493400	0.418600	0.629700
C841	C84	0.509300	0.526000	0.607300
H1021	H102	0.560700	0.521900	0.599700
Ag41	Ag4	0.837500	0.141520	0.347270
Si71	Si7	0.454020	0.170070	0.369720
Si81	Si8	0.974500	0.327200	0.072190
N131	N13	0.710800	0.146300	0.359900
N141	N14	0.383500	0.280300	0.569400
N151	N15	0.874000	0.208100	0.255600
N161	N16	0.102300	0.535500	0.139800
C851	C85	0.336200	0.244200	0.531300
H1031	H103	0.286500	0.240300	0.545400
C861	C86	0.356400	0.212000	0.471700
H1041	H104	0.320100	0.190100	0.444600
C871	C87	0.427800	0.211800	0.452500
C881	C88	0.475900	0.245900	0.490900
H1051	H105	0.526100	0.248000	0.477900
C891	C89	0.454000	0.278800	0.550300
H1061	H106	0.490200	0.300500	0.577600
C901	C90	0.420200	0.229300	0.300900
H1071	H107	0.385800	0.266800	0.317000
H1081	H108	0.461000	0.252100	0.276300
C911	C91	0.378400	0.167800	0.257000
H1091	H109	0.330800	0.187800	0.241900
H1101	H110	0.408400	0.158300	0.217000
C921	C92	0.364900	0.102700	0.287900
H1111	H111	0.376600	0.063900	0.256000
H1121	H112	0.311500	0.099900	0.297100
C931	C93	0.404800	0.086900	0.350700
H1131	H113	0.439500	0.046400	0.344700
H1141	H114	0.369800	0.074600	0.386600
C941	C94	0.556500	0.161100	0.366600
C951	C95	0.603200	0.218500	0.361600
H1151	H115	0.583400	0.265900	0.361700
C961	C96	0.678200	0.209600	0.356200
H1161	H116	0.707900	0.251000	0.349500
C971	C97	0.666000	0.088900	0.368200
H1171	H117	0.688000	0.042700	0.371000
C981	C98	0.593500	0.093000	0.372700
H1181	H118	0.565600	0.050500	0.380000
C991	C99	0.929800	0.253200	0.261400
H1191	H119	0.953100	0.259700	0.303000
C1001	C100	0.954700	0.291800	0.205000
H1201	H120	0.990900	0.327900	0.211700
C1011	C101	0.932900	0.281900	0.148500
C1021	C102	0.877100	0.233400	0.141400
H1211	H121	0.857300	0.222500	0.099100
C1031	C103	0.850400	0.201200	0.197400
H1221	H122	0.809500	0.170000	0.191700
C1041	C104	0.904700	0.352600	0.007800
H1231	H123	0.866100	0.315200	0.005100
H1241	H124	0.881000	0.398800	0.019900
C1051	C105	0.941400	0.359600	0.944600
H1251	H125	0.905300	0.372200	0.910500
H1261	H126	0.964900	0.313800	0.933100
H1271	H127	0.978800	0.397400	0.947400
C1061	C106	0.040200	0.262400	0.034600
H1281	H128	0.010400	0.229900	0.006500
H1291	H129	0.071200	0.290900	0.004000
C1071	C107	0.090800	0.215800	0.071900
H1301	H130	0.118200	0.185300	0.041000
H1311	H131	0.062600	0.185400	0.102400
H1321	H132	0.125200	0.245700	0.097200
C1081	C108	0.023700	0.410000	0.100100
C1091	C109	0.098100	0.412400	0.115700
H1331	H133	0.125700	0.369100	0.113200
C1101	C110	0.132400	0.472200	0.134000
H1341	H134	0.183400	0.468500	0.143700
C1111	C111	0.031800	0.536700	0.126500
H1351	H135	0.006600	0.581400	0.129700
C1121	C112	0.990700	0.474000	0.107300
H1361	H136	0.939300	0.478100	0.099700
Ag51	Ag5	0.840520	0.630000	0.658050
Si91	Si9	0.550300	0.507300	0.854500
Si101	Si10	0.133800	0.507100	0.860950
N171	N17	0.740200	0.588600	0.715700
N181	N18	0.631600	0.418400	0.055500
N191	N19	0.938700	0.598700	0.731600
N201	N20	0.147800	0.252100	0.851600
C1131	C113	0.703200	0.529800	0.696500
H1371	H137	0.713900	0.508700	0.654700
C1141	C114	0.649400	0.499100	0.736500
H1381	H138	0.625100	0.456100	0.723500
C1151	C115	0.631300	0.533900	0.798400
C1161	C116	0.674500	0.585000	0.815200
H1391	H139	0.670600	0.603600	0.858900
C1171	C117	0.725200	0.613900	0.774800
H1401	H140	0.751500	0.654900	0.789800
C1181	C118	0.484200	0.453700	0.819600
H1411	H141	0.496800	0.447200	0.772300
H1421	H142	0.487200	0.405700	0.840800
C1191	C119	0.416100	0.475100	0.823000
H1431	H143	0.393100	0.460400	0.865100
H1441	H144	0.386900	0.455500	0.785600
C1201	C120	0.423400	0.565300	0.818000
H1451	H145	0.439000	0.579600	0.772600
H1461	H146	0.375500	0.588200	0.827300
C1211	C121	0.479900	0.588300	0.867700
H1471	H147	0.459800	0.589500	0.913200
H1481	H148	0.502000	0.635500	0.856600
C1221	C122	0.588100	0.467300	0.931300
C1231	C123	0.657600	0.473200	0.953300
H1491	H149	0.691700	0.500600	0.928100
C1241	C124	0.681700	0.440600	0.011900
H1501	H150	0.732700	0.434400	0.020300
C1251	C125	0.563300	0.420700	0.036500
H1511	H151	0.527400	0.405400	0.067500
C1261	C126	0.538200	0.443400	0.975500
H1521	H152	0.487400	0.442100	0.965000
C1271	C127	0.007300	0.603000	0.711300
H1531	H153	0.017600	0.626700	0.670700
C1281	C128	0.065400	0.573800	0.747700
H1541	H154	0.113300	0.575900	0.729200
C1291	C129	0.057000	0.542000	0.809200
C1301	C130	0.983800	0.539600	0.829500
H1551	H155	0.970900	0.517300	0.870200
C1311	C131	0.930300	0.569800	0.789900
H1561	H156	0.881700	0.569500	0.807200
C1321	C132	0.123300	0.540200	0.950000
H1571	H157	0.080600	0.572800	0.954900
H1581	H158	0.118600	0.499700	0.981500
C1331	C133	0.196000	0.580600	0.959200
H1591	H159	0.199500	0.599100	0.004500
H1601	H160	0.198800	0.620900	0.927900
H1611	H161	0.237400	0.547600	0.950900
C1341	C134	0.225100	0.544400	0.832600
H1621	H162	0.260900	0.542300	0.869500
H1631	H163	0.244400	0.514700	0.795800
C1351	C135	0.216000	0.629000	0.808000
H1641	H164	0.264500	0.650500	0.802000
H1651	H165	0.187900	0.656000	0.840600
H1661	H166	0.189600	0.629700	0.765200
C1361	C136	0.136800	0.404200	0.857600
C1371	C137	0.178300	0.365600	0.902700
H1671	H167	0.203900	0.390200	0.936900
C1381	C138	0.182500	0.295400	0.898500
H1681	H168	0.212100	0.271700	0.930600
C1391	C139	0.107300	0.289900	0.811000
H1691	H169	0.082500	0.264900	0.776600
C1401	C140	0.098200	0.361800	0.814200
H1701	H170	0.063800	0.383900	0.785400
Ag61	Ag6	0.659480	0.370000	0.158050
Si111	Si11	0.949700	0.492700	0.354500
Si121	Si12	0.366200	0.492900	0.360950
N211	N21	0.759800	0.411400	0.215700
N221	N22	0.868400	0.581600	0.555500
N231	N23	0.561300	0.401300	0.231600
N241	N24	0.352200	0.747900	0.351600
C1411	C141	0.796800	0.470200	0.196500
H1711	H171	0.786100	0.491300	0.154700
C1421	C142	0.850600	0.500900	0.236500
H1721	H172	0.874900	0.543900	0.223500
C1431	C143	0.868700	0.466100	0.298400
C1441	C144	0.825500	0.415000	0.315200
H1731	H173	0.829400	0.396400	0.358900
C1451	C145	0.774800	0.386100	0.274800
H1741	H174	0.748500	0.345100	0.289800
C1461	C146	0.015800	0.546300	0.319600
H1751	H175	0.003200	0.552800	0.272300
H1761	H176	0.012800	0.594300	0.340800
C1471	C147	0.083900	0.524900	0.323000
H1771	H177	0.106900	0.539600	0.365100
H1781	H178	0.113100	0.544500	0.285600
C1481	C148	0.076600	0.434700	0.318000
H1791	H179	0.061000	0.420400	0.272600
H1801	H180	0.124500	0.411800	0.327300
C1491	C149	0.020100	0.411700	0.367700
H1811	H181	0.040200	0.410500	0.413200
H1821	H182	0.998000	0.364500	0.356600
C1501	C150	0.911900	0.532700	0.431300
C1511	C151	0.842400	0.526800	0.453300
H1831	H183	0.808300	0.499400	0.428100
C1521	C152	0.818300	0.559400	0.511900
H1841	H184	0.767300	0.565600	0.520300
C1531	C153	0.936700	0.579300	0.536500
H1851	H185	0.972600	0.594600	0.567500
C1541	C154	0.961800	0.556600	0.475500
H1861	H186	0.012600	0.557900	0.465000
C1551	C155	0.492700	0.397000	0.211300
H1871	H187	0.482400	0.373300	0.170700
C1561	C156	0.434600	0.426200	0.247700
H1881	H188	0.386700	0.424100	0.229200
C1571	C157	0.443000	0.458000	0.309200
C1581	C158	0.516200	0.460400	0.329500
H1891	H189	0.529100	0.482700	0.370200
C1591	C159	0.569700	0.430200	0.289900
H1901	H190	0.618300	0.430500	0.307200
C1601	C160	0.376700	0.459800	0.450000
H1911	H191	0.419400	0.427200	0.454900
H1921	H192	0.381400	0.500300	0.481500
C1611	C161	0.304000	0.419400	0.459200
H1931	H193	0.300500	0.400900	0.504500
H1941	H194	0.301200	0.379100	0.427900
H1951	H195	0.262600	0.452400	0.450900
C1621	C162	0.274900	0.455600	0.332600
H1961	H196	0.239100	0.457700	0.369500
H1971	H197	0.255600	0.485300	0.295800
C1631	C163	0.284000	0.371000	0.308000
H1981	H198	0.235500	0.349500	0.302000
H1991	H199	0.312100	0.344000	0.340600
H2001	H200	0.310400	0.370300	0.265200
C1641	C164	0.363200	0.595800	0.357600
C1651	C165	0.321700	0.634400	0.402700
H2011	H201	0.296100	0.609800	0.436900
C1661	C166	0.317500	0.704600	0.398500
H2021	H202	0.287900	0.728300	0.430600
C1671	C167	0.392700	0.710100	0.311000
H2031	H203	0.417500	0.735100	0.276600
C1681	C168	0.401800	0.638200	0.314200
H2041	H204	0.436200	0.616100	0.285400
Ag71	Ag7	0.159480	0.130000	0.841950
Si131	Si13	0.449700	0.007300	0.645500
Si141	Si14	0.866200	0.007100	0.639050
N251	N25	0.259800	0.088600	0.784300
N261	N26	0.368400	0.918400	0.444500
N271	N27	0.061300	0.098700	0.768400
N281	N28	0.852200	0.752100	0.648400
C1691	C169	0.296800	0.029800	0.803500
H2051	H205	0.286100	0.008700	0.845300
C1701	C170	0.350600	0.999100	0.763500
H2061	H206	0.374900	0.956100	0.776500
C1711	C171	0.368700	0.033900	0.701600
C1721	C172	0.325500	0.085000	0.684800
H2071	H207	0.329400	0.103600	0.641100
C1731	C173	0.274800	0.113900	0.725200
H2081	H208	0.248500	0.154900	0.710200
C1741	C174	0.515800	0.953700	0.680400
H2091	H209	0.503200	0.947200	0.727700
H2101	H210	0.512800	0.905700	0.659200
C1751	C175	0.583900	0.975100	0.677000
H2111	H211	0.606900	0.960400	0.634900
H2121	H212	0.613100	0.955500	0.714400
C1761	C176	0.576600	0.065300	0.682000
H2131	H213	0.561000	0.079600	0.727400
H2141	H214	0.624500	0.088200	0.672700
C1771	C177	0.520100	0.088300	0.632300
H2151	H215	0.540200	0.089500	0.586800
H2161	H216	0.498000	0.135500	0.643400
C1781	C178	0.411900	0.967300	0.568700
C1791	C179	0.342400	0.973200	0.546700
H2171	H217	0.308300	0.000600	0.571900
C1801	C180	0.318300	0.940600	0.488100
H2181	H218	0.267300	0.934400	0.479700
C1811	C181	0.436700	0.920700	0.463500
H2191	H219	0.472600	0.905400	0.432500
C1821	C182	0.461800	0.943400	0.524500
H2201	H220	0.512600	0.942100	0.535000
C1831	C183	0.992700	0.103000	0.788700
H2211	H221	0.982400	0.126700	0.829300
C1841	C184	0.934600	0.073800	0.752300
H2221	H222	0.886700	0.075900	0.770800
C1851	C185	0.943000	0.042000	0.690800
C1861	C186	0.016200	0.039600	0.670500
H2231	H223	0.029100	0.017300	0.629800
C1871	C187	0.069700	0.069800	0.710100
H2241	H224	0.118300	0.069500	0.692800
C1881	C188	0.876700	0.040200	0.550000
H2251	H225	0.919400	0.072800	0.545100
H2261	H226	0.881400	0.999700	0.518500
C1891	C189	0.804000	0.080600	0.540800
H2271	H227	0.800500	0.099100	0.495500
H2281	H228	0.801200	0.120900	0.572100
H2291	H229	0.762600	0.047600	0.549100
C1901	C190	0.774900	0.044400	0.667400
H2301	H230	0.739100	0.042300	0.630500
H2311	H231	0.755600	0.014700	0.704200
C1911	C191	0.784000	0.129000	0.692000
H2321	H232	0.735500	0.150500	0.698000
H2331	H233	0.812100	0.156000	0.659400
H2341	H234	0.810400	0.129700	0.734800
C1921	C192	0.863200	0.904200	0.642400
C1931	C193	0.821700	0.865600	0.597300
H2351	H235	0.796100	0.890200	0.563100
C1941	C194	0.817500	0.795400	0.601500
H2361	H236	0.787900	0.771700	0.569400
C1951	C195	0.892700	0.789900	0.689000
H2371	H237	0.917500	0.764900	0.723400
C1961	C196	0.901800	0.861800	0.685800
H2381	H238	0.936200	0.883900	0.714600
Ag81	Ag8	0.340520	0.870000	0.341950
Si151	Si15	0.050300	0.992700	0.145500
Si161	Si16	0.633800	0.992900	0.139050
N291	N29	0.240200	0.911400	0.284300
N301	N30	0.131600	0.081600	0.944500
N311	N31	0.438700	0.901300	0.268400
N321	N32	0.647800	0.247900	0.148400
C1971	C197	0.203200	0.970200	0.303500
H2391	H239	0.213900	0.991300	0.345300
C1981	C198	0.149400	0.000900	0.263500
H2401	H240	0.125100	0.043900	0.276500
C1991	C199	0.131300	0.966100	0.201600
C2001	C200	0.174500	0.915000	0.184800
H2411	H241	0.170600	0.896400	0.141100
C2011	C201	0.225200	0.886100	0.225200
H2421	H242	0.251500	0.845100	0.210200
C2021	C202	0.984200	0.046300	0.180400
H2431	H243	0.996800	0.052800	0.227700
H2441	H244	0.987200	0.094300	0.159200
C2031	C203	0.916100	0.024900	0.177000
H2451	H245	0.893100	0.039600	0.134900
H2461	H246	0.886900	0.044500	0.214400
C2041	C204	0.923400	0.934700	0.182000
H2471	H247	0.939000	0.920400	0.227400
H2481	H248	0.875500	0.911800	0.172700
C2051	C205	0.979900	0.911700	0.132300
H2491	H249	0.959800	0.910500	0.086800
H2501	H250	0.002000	0.864500	0.143400
C2061	C206	0.088100	0.032700	0.068700
C2071	C207	0.157600	0.026800	0.046700
H2511	H251	0.191700	0.999400	0.071900
C2081	C208	0.181700	0.059400	0.988100
H2521	H252	0.232700	0.065600	0.979700
C2091	C209	0.063300	0.079300	0.963500
H2531	H253	0.027400	0.094600	0.932500
C2101	C210	0.038200	0.056600	0.024500
H2541	H254	0.987400	0.057900	0.035000
C2111	C211	0.507300	0.897000	0.288700
H2551	H255	0.517600	0.873300	0.329300
C2121	C212	0.565400	0.926200	0.252300
H2561	H256	0.613300	0.924100	0.270800
C2131	C213	0.557000	0.958000	0.190800
C2141	C214	0.483800	0.960400	0.170500
H2571	H257	0.470900	0.982700	0.129800
C2151	C215	0.430300	0.930200	0.210100
H2581	H258	0.381700	0.930500	0.192800
C2161	C216	0.623300	0.959800	0.050000
H2591	H259	0.580600	0.927200	0.045100
H2601	H260	0.618600	0.000300	0.018500
C2171	C217	0.696000	0.919400	0.040800
H2611	H261	0.699500	0.900900	0.995500
H2621	H262	0.698800	0.879100	0.072100
H2631	H263	0.737400	0.952400	0.049100
C2181	C218	0.725100	0.955600	0.167400
H2641	H264	0.760900	0.957700	0.130500
H2651	H265	0.744400	0.985300	0.204200
C2191	C219	0.716000	0.871000	0.192000
H2661	H266	0.764500	0.849500	0.198000
H2671	H267	0.687900	0.844000	0.159400
H2681	H268	0.689600	0.870300	0.234800
C2201	C220	0.636800	0.095800	0.142400
C2211	C221	0.678300	0.134400	0.097300
H2691	H269	0.703900	0.109800	0.063100
C2221	C222	0.682500	0.204600	0.101500
H2701	H270	0.712100	0.228300	0.069400
C2231	C223	0.607300	0.210100	0.189000
H2711	H271	0.582500	0.235100	0.223400
C2241	C224	0.598200	0.138200	0.185800
H2721	H272	0.563800	0.116100	0.214600
