data_QOBPEE_clean_PM
_symmetry_space_group_name_H-M	'P1'
_cell_length_a	25.098600
_cell_length_b	4.866600
_cell_length_c	24.035900
_cell_angle_alpha	90.000000
_cell_angle_beta	117.200000
_cell_angle_gamma	90.000000
_symmetry_Int_Tables_number 1

loop_
_symmetry_equiv_pos_as_xyz
'x,y,z'

loop_
_atom_site_label
_atom_site_type_symbol
_atom_site_fract_x
_atom_site_fract_y
_atom_site_fract_z
Be11	Be1	0.182850	0.670600	0.249330
Be21	Be2	0.059900	0.653200	0.340500
Be31	Be3	0.260600	0.517500	0.570710
P11	P1	0.237470	0.162660	0.314870
P21	P2	0.065650	0.487250	0.223320
P31	P3	0.176590	0.473970	0.436450
O11	O1	0.214130	0.462800	0.310770
O21	O2	0.264610	0.072800	0.382920
O31	O3	0.285410	0.147200	0.294150
O41	O4	0.183510	0.983200	0.274040
O51	O5	0.112580	0.594500	0.205280
O61	O6	0.069750	0.167000	0.226100
H11	H1	0.105000	0.120100	0.240900
O71	O7	0.003440	0.535900	0.171150
O81	O8	0.076110	0.599000	0.285340
O91	O9	0.110570	0.535000	0.405230
O101	O10	0.203380	0.558600	0.503840
O111	O11	0.209110	0.657200	0.405550
O121	O12	0.186600	0.176500	0.426680
O131	O13	0.058070	0.987500	0.353560
H21	H2	0.023900	0.045500	0.332800
Be41	Be4	0.682850	0.170600	0.249330
Be51	Be5	0.559900	0.153200	0.340500
Be61	Be6	0.760600	0.017500	0.570710
P41	P4	0.737470	0.662660	0.314870
P51	P5	0.565650	0.987250	0.223320
P61	P6	0.676590	0.973970	0.436450
O141	O14	0.714130	0.962800	0.310770
O151	O15	0.764610	0.572800	0.382920
O161	O16	0.785410	0.647200	0.294150
O171	O17	0.683510	0.483200	0.274040
O181	O18	0.612580	0.094500	0.205280
O191	O19	0.569750	0.667000	0.226100
H31	H3	0.605000	0.620100	0.240900
O201	O20	0.503440	0.035900	0.171150
O211	O21	0.576110	0.099000	0.285340
O221	O22	0.610570	0.035000	0.405230
O231	O23	0.703380	0.058600	0.503840
O241	O24	0.709110	0.157200	0.405550
O251	O25	0.686600	0.676500	0.426680
O261	O26	0.558070	0.487500	0.353560
H41	H4	0.523900	0.545500	0.332800
Be71	Be7	0.817150	0.670600	0.250670
Be81	Be8	0.940100	0.653200	0.159500
Be91	Be9	0.739400	0.517500	0.929290
P71	P7	0.762530	0.162660	0.185130
P81	P8	0.934350	0.487250	0.276680
P91	P9	0.823410	0.473970	0.063550
O271	O27	0.785870	0.462800	0.189230
O281	O28	0.735390	0.072800	0.117080
O291	O29	0.714590	0.147200	0.205850
O301	O30	0.816490	0.983200	0.225960
O311	O31	0.887420	0.594500	0.294720
O321	O32	0.930250	0.167000	0.273900
H51	H5	0.895000	0.120100	0.259100
O331	O33	0.996560	0.535900	0.328850
O341	O34	0.923890	0.599000	0.214660
O351	O35	0.889430	0.535000	0.094770
O361	O36	0.796620	0.558600	0.996160
O371	O37	0.790890	0.657200	0.094450
O381	O38	0.813400	0.176500	0.073320
O391	O39	0.941930	0.987500	0.146440
H61	H6	0.976100	0.045500	0.167200
Be101	Be10	0.317150	0.170600	0.250670
Be111	Be11	0.440100	0.153200	0.159500
Be121	Be12	0.239400	0.017500	0.929290
P101	P10	0.262530	0.662660	0.185130
P111	P11	0.434350	0.987250	0.276680
P121	P12	0.323410	0.973970	0.063550
O401	O40	0.285870	0.962800	0.189230
O411	O41	0.235390	0.572800	0.117080
O421	O42	0.214590	0.647200	0.205850
O431	O43	0.316490	0.483200	0.225960
O441	O44	0.387420	0.094500	0.294720
O451	O45	0.430250	0.667000	0.273900
H71	H7	0.395000	0.620100	0.259100
O461	O46	0.496560	0.035900	0.328850
O471	O47	0.423890	0.099000	0.214660
O481	O48	0.389430	0.035000	0.094770
O491	O49	0.296620	0.058600	0.996160
O501	O50	0.290890	0.157200	0.094450
O511	O51	0.313400	0.676500	0.073320
O521	O52	0.441930	0.487500	0.146440
H81	H8	0.476100	0.545500	0.167200
Be131	Be13	0.817150	0.329400	0.750670
Be141	Be14	0.940100	0.346800	0.659500
Be151	Be15	0.739400	0.482500	0.429290
P131	P13	0.762530	0.837340	0.685130
P141	P14	0.934350	0.512750	0.776680
P151	P15	0.823410	0.526030	0.563550
O531	O53	0.785870	0.537200	0.689230
O541	O54	0.735390	0.927200	0.617080
O551	O55	0.714590	0.852800	0.705850
O561	O56	0.816490	0.016800	0.725960
O571	O57	0.887420	0.405500	0.794720
O581	O58	0.930250	0.833000	0.773900
H91	H9	0.895000	0.879900	0.759100
O591	O59	0.996560	0.464100	0.828850
O601	O60	0.923890	0.401000	0.714660
O611	O61	0.889430	0.465000	0.594770
O621	O62	0.796620	0.441400	0.496160
O631	O63	0.790890	0.342800	0.594450
O641	O64	0.813400	0.823500	0.573320
O651	O65	0.941930	0.012500	0.646440
H101	H10	0.976100	0.954500	0.667200
Be161	Be16	0.317150	0.829400	0.750670
Be171	Be17	0.440100	0.846800	0.659500
Be181	Be18	0.239400	0.982500	0.429290
P161	P16	0.262530	0.337340	0.685130
P171	P17	0.434350	0.012750	0.776680
P181	P18	0.323410	0.026030	0.563550
O661	O66	0.285870	0.037200	0.689230
O671	O67	0.235390	0.427200	0.617080
O681	O68	0.214590	0.352800	0.705850
O691	O69	0.316490	0.516800	0.725960
O701	O70	0.387420	0.905500	0.794720
O711	O71	0.430250	0.333000	0.773900
H111	H11	0.395000	0.379900	0.759100
O721	O72	0.496560	0.964100	0.828850
O731	O73	0.423890	0.901000	0.714660
O741	O74	0.389430	0.965000	0.594770
O751	O75	0.296620	0.941400	0.496160
O761	O76	0.290890	0.842800	0.594450
O771	O77	0.313400	0.323500	0.573320
O781	O78	0.441930	0.512500	0.646440
H121	H12	0.476100	0.454500	0.667200
Be191	Be19	0.182850	0.329400	0.749330
Be201	Be20	0.059900	0.346800	0.840500
Be211	Be21	0.260600	0.482500	0.070710
P191	P19	0.237470	0.837340	0.814870
P201	P20	0.065650	0.512750	0.723320
P211	P21	0.176590	0.526030	0.936450
O791	O79	0.214130	0.537200	0.810770
O801	O80	0.264610	0.927200	0.882920
O811	O81	0.285410	0.852800	0.794150
O821	O82	0.183510	0.016800	0.774040
O831	O83	0.112580	0.405500	0.705280
O841	O84	0.069750	0.833000	0.726100
H131	H13	0.105000	0.879900	0.740900
O851	O85	0.003440	0.464100	0.671150
O861	O86	0.076110	0.401000	0.785340
O871	O87	0.110570	0.465000	0.905230
O881	O88	0.203380	0.441400	0.003840
O891	O89	0.209110	0.342800	0.905550
O901	O90	0.186600	0.823500	0.926680
O911	O91	0.058070	0.012500	0.853560
H141	H14	0.023900	0.954500	0.832800
Be221	Be22	0.682850	0.829400	0.749330
Be231	Be23	0.559900	0.846800	0.840500
Be241	Be24	0.760600	0.982500	0.070710
P221	P22	0.737470	0.337340	0.814870
P231	P23	0.565650	0.012750	0.723320
P241	P24	0.676590	0.026030	0.936450
O921	O92	0.714130	0.037200	0.810770
O931	O93	0.764610	0.427200	0.882920
O941	O94	0.785410	0.352800	0.794150
O951	O95	0.683510	0.516800	0.774040
O961	O96	0.612580	0.905500	0.705280
O971	O97	0.569750	0.333000	0.726100
H151	H15	0.605000	0.379900	0.740900
O981	O98	0.503440	0.964100	0.671150
O991	O99	0.576110	0.901000	0.785340
O1001	O100	0.610570	0.965000	0.905230
O1011	O101	0.703380	0.941400	0.003840
O1021	O102	0.709110	0.842800	0.905550
O1031	O103	0.686600	0.323500	0.926680
O1041	O104	0.558070	0.512500	0.853560
H161	H16	0.523900	0.454500	0.832800
