data_QOBWIN_clean_PM
_symmetry_space_group_name_H-M	'P1'
_cell_length_a	9.299400
_cell_length_b	9.751000
_cell_length_c	14.334800
_cell_angle_alpha	90.000000
_cell_angle_beta	90.974000
_cell_angle_gamma	90.000000
_symmetry_Int_Tables_number 1

loop_
_symmetry_equiv_pos_as_xyz
'x,y,z'

loop_
_atom_site_label
_atom_site_type_symbol
_atom_site_fract_x
_atom_site_fract_y
_atom_site_fract_z
Zn11	Zn1	0.532300	0.885300	0.267300
Zn21	Zn2	0.228400	0.376900	0.375500
Zn31	Zn3	0.756300	0.904000	0.870000
Zn41	Zn4	0.929400	0.113500	0.245600
Zn51	Zn5	0.923000	0.739600	0.227000
P11	P1	0.795400	0.926200	0.393500
P21	P2	0.756200	0.916500	0.098600
P31	P3	0.955600	0.428900	0.237800
P41	P4	0.264600	0.122000	0.242300
P51	P5	0.444400	0.562800	0.272500
O11	O1	0.628200	0.860600	0.150600
O21	O2	0.638900	0.969900	0.370900
O31	O3	0.475500	0.704500	0.308700
O41	O4	0.364500	0.001200	0.248300
O51	O5	0.241600	0.185700	0.337800
O61	O6	0.412300	0.462900	0.351800
O71	O7	0.816600	0.888300	0.495500
O81	O8	0.058200	0.460800	0.319300
O91	O9	0.037700	0.407400	0.146700
O101	O10	0.713700	0.940100	0.997400
O111	O11	0.324200	0.561800	0.199400
O121	O12	0.323800	0.229200	0.174000
O131	O13	0.899000	0.044300	0.370000
O141	O14	0.863100	0.302500	0.257900
O151	O15	0.119600	0.069900	0.203000
O161	O16	0.806000	0.054000	0.142500
O171	O17	0.831300	0.798700	0.336300
O181	O18	0.882200	0.813500	0.104300
O191	O19	0.852900	0.551100	0.225000
O201	O20	0.582000	0.502400	0.221900
H11	H1	0.563600	0.423200	0.201900
Zn61	Zn6	0.467700	0.385300	0.732700
Zn71	Zn7	0.771600	0.876900	0.624500
Zn81	Zn8	0.243700	0.404000	0.130000
Zn91	Zn9	0.070600	0.613500	0.754400
Zn101	Zn10	0.077000	0.239600	0.773000
P61	P6	0.204600	0.426200	0.606500
P71	P7	0.243800	0.416500	0.901400
P81	P8	0.044400	0.928900	0.762200
P91	P9	0.735400	0.622000	0.757700
P101	P10	0.555600	0.062800	0.727500
O211	O21	0.371800	0.360600	0.849400
O221	O22	0.361100	0.469900	0.629100
O231	O23	0.524500	0.204500	0.691300
O241	O24	0.635500	0.501200	0.751700
O251	O25	0.758400	0.685700	0.662200
O261	O26	0.587700	0.962900	0.648200
O271	O27	0.183400	0.388300	0.504500
O281	O28	0.941800	0.960800	0.680700
O291	O29	0.962300	0.907400	0.853300
O301	O30	0.286300	0.440100	0.002600
O311	O31	0.675800	0.061800	0.800600
O321	O32	0.676200	0.729200	0.826000
O331	O33	0.101000	0.544300	0.630000
O341	O34	0.136900	0.802500	0.742100
O351	O35	0.880400	0.569900	0.797000
O361	O36	0.194000	0.554000	0.857500
O371	O37	0.168700	0.298700	0.663700
O381	O38	0.117800	0.313500	0.895700
O391	O39	0.147100	0.051100	0.775000
O401	O40	0.418000	0.002400	0.778100
H21	H2	0.436400	0.923200	0.798100
