data_QOCRUW_clean_PM
_symmetry_space_group_name_H-M	'P1'
_cell_length_a	9.910000
_cell_length_b	10.745000
_cell_length_c	11.079000
_cell_angle_alpha	63.177000
_cell_angle_beta	65.556000
_cell_angle_gamma	66.664000
_symmetry_Int_Tables_number 1

loop_
_symmetry_equiv_pos_as_xyz
'x,y,z'

loop_
_atom_site_label
_atom_site_type_symbol
_atom_site_fract_x
_atom_site_fract_y
_atom_site_fract_z
La11	La1	0.282810	0.009470	0.510300
La21	La2	0.717190	0.990530	0.489700
H11	H1	0.528300	0.605600	0.330400
H21	H2	0.679300	0.372000	0.341000
H31	H3	0.001300	0.447400	0.415900
H41	H4	0.845700	0.678600	0.411500
H51	H5	0.705100	0.606000	0.889500
H61	H6	0.287900	0.601100	0.914100
H71	H7	0.471700	0.394400	0.669600
H81	H8	0.320700	0.628000	0.659000
H91	H9	0.998700	0.552600	0.584100
H101	H10	0.154300	0.321400	0.588500
H111	H11	0.294900	0.394000	0.110500
H121	H12	0.712100	0.398900	0.085900
C11	C1	0.559000	0.802000	0.391100
C21	C2	0.669100	0.660100	0.377500
C31	C3	0.622900	0.571700	0.351600
C41	C4	0.713500	0.433300	0.356300
C51	C5	0.853900	0.384600	0.383400
C61	C6	0.903400	0.478100	0.401500
C71	C7	0.811200	0.615700	0.398800
C81	C8	0.055400	0.769800	0.596100
C91	C9	0.486300	0.764500	0.757600
C101	C10	0.494200	0.626200	0.882200
C111	C11	0.621400	0.563100	0.934700
C121	C12	0.374300	0.560100	0.949300
C131	C13	0.441000	0.198000	0.608900
C141	C14	0.330900	0.339900	0.622500
C151	C15	0.377100	0.428300	0.648400
C161	C16	0.286500	0.566700	0.643700
C171	C17	0.146100	0.615400	0.616600
C181	C18	0.096600	0.521900	0.598500
C191	C19	0.188800	0.384300	0.601200
C201	C20	0.944600	0.230200	0.403900
C211	C21	0.513700	0.235500	0.242400
C221	C22	0.505800	0.373800	0.117800
C231	C23	0.378600	0.436900	0.065300
C241	C24	0.625700	0.439900	0.050700
O11	O1	0.430900	0.838300	0.372400
O21	O2	0.597000	0.876900	0.426900
O31	O3	0.922600	0.805100	0.584000
O41	O4	0.113600	0.854200	0.593300
O51	O5	0.374800	0.808700	0.708800
O61	O6	0.591900	0.824800	0.711000
O71	O7	0.569100	0.161700	0.627600
O81	O8	0.403000	0.123100	0.573100
O91	O9	0.077400	0.194900	0.416000
O101	O10	0.886400	0.145800	0.406700
O111	O11	0.625200	0.191300	0.291200
O121	O12	0.408100	0.175200	0.289000
