data_QOCSAD_clean_PM
_symmetry_space_group_name_H-M	'P1'
_cell_length_a	9.855500
_cell_length_b	10.705000
_cell_length_c	11.106000
_cell_angle_alpha	62.947000
_cell_angle_beta	65.653000
_cell_angle_gamma	66.647000
_symmetry_Int_Tables_number 1

loop_
_symmetry_equiv_pos_as_xyz
'x,y,z'

loop_
_atom_site_label
_atom_site_type_symbol
_atom_site_fract_x
_atom_site_fract_y
_atom_site_fract_z
Ce11	Ce1	0.783010	0.509300	0.510340
Ce21	Ce2	0.216990	0.490700	0.489660
H11	H1	0.025300	0.106300	0.332200
H21	H2	0.179300	0.872700	0.340400
H31	H3	0.785100	0.103200	0.915400
H41	H4	0.204300	0.109900	0.888600
H51	H5	0.350600	0.179900	0.405500
H61	H6	0.504100	0.945800	0.414100
H71	H7	0.974700	0.893700	0.667800
H81	H8	0.820700	0.127300	0.659600
H91	H9	0.214900	0.896800	0.084600
H101	H10	0.795700	0.890100	0.111400
H111	H11	0.649400	0.820100	0.594500
H121	H12	0.495900	0.054200	0.585900
C11	C1	0.985900	0.264600	0.756400
C21	C2	0.121000	0.072700	0.352500
C31	C3	0.213200	0.933800	0.356700
C41	C4	0.353900	0.884000	0.384600
C51	C5	0.168000	0.161900	0.377600
C61	C6	0.993100	0.126300	0.882200
C71	C7	0.872900	0.061000	0.949600
C81	C8	0.121500	0.065200	0.933600
C91	C9	0.313600	0.116200	0.395900
C101	C10	0.405300	0.977000	0.400300
C111	C11	0.059600	0.302300	0.391800
C121	C12	0.554700	0.270900	0.595300
C131	C13	0.014100	0.735400	0.243600
C141	C14	0.879000	0.927300	0.647500
C151	C15	0.786800	0.066200	0.643300
C161	C16	0.646100	0.116000	0.615400
C171	C17	0.832000	0.838100	0.622400
C181	C18	0.006900	0.873700	0.117800
C191	C19	0.127100	0.939000	0.050400
C201	C20	0.878500	0.934800	0.066400
C211	C21	0.686400	0.883800	0.604100
C221	C22	0.594700	0.023000	0.599700
C231	C23	0.940400	0.697700	0.608200
C241	C24	0.445300	0.729100	0.404700
O11	O1	0.421800	0.306000	0.585700
O21	O2	0.613400	0.356500	0.593300
O31	O3	0.929600	0.340100	0.373500
O41	O4	0.096700	0.377100	0.429100
O51	O5	0.875300	0.308100	0.707100
O61	O6	0.092500	0.325200	0.709300
O71	O7	0.578200	0.694000	0.414300
O81	O8	0.386600	0.643500	0.406700
O91	O9	0.070400	0.659900	0.626500
O101	O10	0.903300	0.622900	0.570900
O111	O11	0.124700	0.691900	0.292900
O121	O12	0.907500	0.674800	0.290700
