data_QOCSEH_clean_PM
_symmetry_space_group_name_H-M	'P1'
_cell_length_a	9.761000
_cell_length_b	10.645000
_cell_length_c	10.956000
_cell_angle_alpha	63.331000
_cell_angle_beta	65.969000
_cell_angle_gamma	67.128000
_symmetry_Int_Tables_number 1

loop_
_symmetry_equiv_pos_as_xyz
'x,y,z'

loop_
_atom_site_label
_atom_site_type_symbol
_atom_site_fract_x
_atom_site_fract_y
_atom_site_fract_z
Nd11	Nd1	0.714210	0.992320	0.492490
O11	O1	0.570100	0.162400	0.625700
O21	O2	0.402300	0.124600	0.567200
O31	O3	0.914900	0.805700	0.588700
O41	O4	0.112900	0.858400	0.590400
O51	O5	0.628400	0.188100	0.293500
O61	O6	0.413100	0.166600	0.285500
C11	C1	0.438800	0.199400	0.607400
C21	C2	0.327200	0.338800	0.624900
C31	C3	0.378400	0.429800	0.647200
H11	H1	0.476000	0.397400	0.665400
C41	C4	0.285400	0.569000	0.642800
H21	H2	0.321300	0.632200	0.655600
C51	C5	0.141100	0.616200	0.620100
C61	C6	0.085600	0.520000	0.608300
H31	H3	0.984000	0.548800	0.599400
C71	C7	0.180000	0.381500	0.609800
H41	H4	0.143100	0.316800	0.600300
C81	C8	0.049300	0.771500	0.599100
C91	C9	0.516200	0.231700	0.242300
C101	C10	0.508200	0.371800	0.116300
C111	C11	0.380200	0.431400	0.063800
H51	H5	0.298000	0.384800	0.107900
C121	C12	0.627300	0.441200	0.052700
H61	H6	0.714200	0.401300	0.089200
Nd21	Nd2	0.285790	0.007680	0.507510
O71	O7	0.429900	0.837600	0.374300
O81	O8	0.597700	0.875400	0.432800
O91	O9	0.085100	0.194300	0.411300
O101	O10	0.887100	0.141600	0.409600
O111	O11	0.371600	0.811900	0.706500
O121	O12	0.586900	0.833400	0.714500
C131	C13	0.561200	0.800600	0.392600
C141	C14	0.672800	0.661200	0.375100
C151	C15	0.621600	0.570200	0.352800
H71	H7	0.524000	0.602600	0.334600
C161	C16	0.714600	0.431000	0.357200
H81	H8	0.678700	0.367800	0.344400
C171	C17	0.858900	0.383800	0.379900
C181	C18	0.914400	0.480000	0.391700
H91	H9	0.016000	0.451200	0.400600
C191	C19	0.820000	0.618500	0.390200
H101	H10	0.856900	0.683200	0.399700
C201	C20	0.950700	0.228500	0.400900
C211	C21	0.483800	0.768300	0.757700
C221	C22	0.491800	0.628200	0.883700
C231	C23	0.619800	0.568600	0.936200
H111	H11	0.702000	0.615200	0.892100
C241	C24	0.372700	0.558800	0.947300
H121	H12	0.285800	0.598700	0.910800
