data_QODHUO01_clean_PM
_symmetry_space_group_name_H-M	'P1'
_cell_length_a	21.938100
_cell_length_b	16.719800
_cell_length_c	25.503700
_cell_angle_alpha	90.000000
_cell_angle_beta	115.074000
_cell_angle_gamma	90.000000
_symmetry_Int_Tables_number 1

loop_
_symmetry_equiv_pos_as_xyz
'x,y,z'

loop_
_atom_site_label
_atom_site_type_symbol
_atom_site_fract_x
_atom_site_fract_y
_atom_site_fract_z
Ag11	Ag1	0.844240	0.043670	0.366650
Ag21	Ag2	0.321440	0.243120	0.866220
C11	C1	0.597500	0.028200	0.998600
C21	C2	0.776300	0.861700	0.007300
H11	H1	0.797000	0.865400	0.047500
C31	C3	0.059600	0.199700	0.467400
C41	C4	0.297500	0.417200	0.503300
H21	H2	0.319300	0.414100	0.543400
C51	C5	0.123000	0.244500	0.499800
C61	C6	0.032600	0.190200	0.408800
H31	H3	0.054100	0.211400	0.387400
C71	C7	0.503000	0.114700	0.994000
H41	H4	0.522400	0.116000	0.034300
C81	C8	0.443400	0.155100	0.962200
H51	H5	0.423800	0.183600	0.982400
C91	C9	0.242800	0.263200	0.649000
C101	C10	0.681400	0.947600	0.004600
C111	C11	0.719700	0.847100	0.890000
H61	H6	0.700200	0.842400	0.849900
C121	C12	0.532800	0.072600	0.964700
C131	C13	0.235000	0.379100	0.472300
C141	C14	0.678600	0.044200	0.179000
H71	H7	0.634600	0.062100	0.158700
C151	C15	0.209400	0.274300	0.585300
C161	C16	0.712000	0.008000	0.149900
C171	C17	0.714200	0.899000	0.975500
C181	C18	0.025300	0.166300	0.497000
H81	H8	0.042100	0.171200	0.537000
C191	C19	0.235600	0.435300	0.387000
H91	H9	0.214400	0.441600	0.347100
C201	C20	0.203900	0.391000	0.413500
H101	H10	0.161600	0.369100	0.391800
C211	C21	0.204500	0.328300	0.502500
C221	C22	0.679900	0.997900	0.085700
C231	C23	0.806200	0.819400	0.977800
H111	H11	0.847200	0.794500	0.999200
C241	C24	0.685500	0.890000	0.916400
H121	H12	0.643600	0.912300	0.894100
C251	C25	0.324700	0.458600	0.472700
H131	H13	0.367200	0.480900	0.493000
C261	C26	0.967300	0.126900	0.467100
H141	H14	0.945400	0.104100	0.487700
C271	C27	0.972600	0.148500	0.381400
H151	H15	0.954900	0.141400	0.341500
C281	C28	0.806100	0.994900	0.240300
H161	H16	0.849900	0.977000	0.261300
C291	C29	0.501100	0.071100	0.904900
H171	H17	0.518300	0.040900	0.883600
C301	C30	0.710800	0.053500	0.237800
H181	H18	0.687500	0.077200	0.257000
C311	C31	0.245700	0.206200	0.734800
H191	H19	0.227100	0.171000	0.752300
C321	C32	0.214500	0.213200	0.676400
H201	H20	0.175100	0.185200	0.655000
C331	C33	0.777500	0.983700	0.181600
H211	H21	0.801900	0.960200	0.163400
C341	C34	0.443600	0.115400	0.877800
H221	H22	0.424600	0.117600	0.837600
C351	C35	0.302200	0.300400	0.682600
H231	H23	0.324900	0.331200	0.666100
C361	C36	0.327500	0.290300	0.742300
H241	H24	0.366800	0.317600	0.765200
N11	N1	0.939500	0.118500	0.410200
N21	N2	0.295200	0.469500	0.416000
N31	N3	0.300100	0.245300	0.768700
N41	N4	0.152000	0.234500	0.556900
N51	N5	0.147500	0.290400	0.470400
N61	N6	0.237300	0.322900	0.560500
N71	N7	0.412800	0.155700	0.905100
N81	N8	0.779500	0.812500	0.920500
N91	N9	0.775300	0.029700	0.269300
N101	N10	0.622500	0.037200	0.056300
N111	N11	0.624800	0.986900	0.970700
N121	N12	0.710300	0.950800	0.062400
Ag31	Ag3	0.344240	0.543670	0.366650
Ag41	Ag4	0.821440	0.743120	0.866220
C371	C37	0.097500	0.528200	0.998600
C381	C38	0.276300	0.361700	0.007300
H251	H25	0.297000	0.365400	0.047500
C391	C39	0.559600	0.699700	0.467400
C401	C40	0.797500	0.917200	0.503300
H261	H26	0.819300	0.914100	0.543400
C411	C41	0.623000	0.744500	0.499800
C421	C42	0.532600	0.690200	0.408800
H271	H27	0.554100	0.711400	0.387400
C431	C43	0.003000	0.614700	0.994000
H281	H28	0.022400	0.616000	0.034300
C441	C44	0.943400	0.655100	0.962200
H291	H29	0.923800	0.683600	0.982400
C451	C45	0.742800	0.763200	0.649000
C461	C46	0.181400	0.447600	0.004600
C471	C47	0.219700	0.347100	0.890000
H301	H30	0.200200	0.342400	0.849900
C481	C48	0.032800	0.572600	0.964700
C491	C49	0.735000	0.879100	0.472300
C501	C50	0.178600	0.544200	0.179000
H311	H31	0.134600	0.562100	0.158700
C511	C51	0.709400	0.774300	0.585300
C521	C52	0.212000	0.508000	0.149900
C531	C53	0.214200	0.399000	0.975500
C541	C54	0.525300	0.666300	0.497000
H321	H32	0.542100	0.671200	0.537000
C551	C55	0.735600	0.935300	0.387000
H331	H33	0.714400	0.941600	0.347100
C561	C56	0.703900	0.891000	0.413500
H341	H34	0.661600	0.869100	0.391800
C571	C57	0.704500	0.828300	0.502500
C581	C58	0.179900	0.497900	0.085700
C591	C59	0.306200	0.319400	0.977800
H351	H35	0.347200	0.294500	0.999200
C601	C60	0.185500	0.390000	0.916400
H361	H36	0.143600	0.412300	0.894100
C611	C61	0.824700	0.958600	0.472700
H371	H37	0.867200	0.980900	0.493000
C621	C62	0.467300	0.626900	0.467100
H381	H38	0.445400	0.604100	0.487700
C631	C63	0.472600	0.648500	0.381400
H391	H39	0.454900	0.641400	0.341500
C641	C64	0.306100	0.494900	0.240300
H401	H40	0.349900	0.477000	0.261300
C651	C65	0.001100	0.571100	0.904900
H411	H41	0.018300	0.540900	0.883600
C661	C66	0.210800	0.553500	0.237800
H421	H42	0.187500	0.577200	0.257000
C671	C67	0.745700	0.706200	0.734800
H431	H43	0.727100	0.671000	0.752300
C681	C68	0.714500	0.713200	0.676400
H441	H44	0.675100	0.685200	0.655000
C691	C69	0.277500	0.483700	0.181600
H451	H45	0.301900	0.460200	0.163400
C701	C70	0.943600	0.615400	0.877800
H461	H46	0.924600	0.617600	0.837600
C711	C71	0.802200	0.800400	0.682600
H471	H47	0.824900	0.831200	0.666100
C721	C72	0.827500	0.790300	0.742300
H481	H48	0.866800	0.817600	0.765200
N131	N13	0.439500	0.618500	0.410200
N141	N14	0.795200	0.969500	0.416000
N151	N15	0.800100	0.745300	0.768700
N161	N16	0.652000	0.734500	0.556900
N171	N17	0.647500	0.790400	0.470400
N181	N18	0.737300	0.822900	0.560500
N191	N19	0.912800	0.655700	0.905100
N201	N20	0.279500	0.312500	0.920500
N211	N21	0.275300	0.529700	0.269300
N221	N22	0.122500	0.537200	0.056300
N231	N23	0.124800	0.486900	0.970700
N241	N24	0.210300	0.450800	0.062400
Ag51	Ag5	0.155760	0.043670	0.133350
Ag61	Ag6	0.678560	0.243120	0.633780
C731	C73	0.402500	0.028200	0.501400
C741	C74	0.223700	0.861700	0.492700
H491	H49	0.203000	0.865400	0.452500
C751	C75	0.940400	0.199700	0.032600
C761	C76	0.702500	0.417200	0.996700
H501	H50	0.680700	0.414100	0.956600
C771	C77	0.877000	0.244500	0.000200
C781	C78	0.967400	0.190200	0.091200
H511	H51	0.945900	0.211400	0.112600
C791	C79	0.497000	0.114700	0.506000
H521	H52	0.477600	0.116000	0.465700
C801	C80	0.556600	0.155100	0.537800
H531	H53	0.576200	0.183600	0.517600
C811	C81	0.757200	0.263200	0.851000
C821	C82	0.318600	0.947600	0.495400
C831	C83	0.280300	0.847100	0.610000
H541	H54	0.299800	0.842400	0.650100
C841	C84	0.467200	0.072600	0.535300
C851	C85	0.765000	0.379100	0.027700
C861	C86	0.321400	0.044200	0.321000
H551	H55	0.365400	0.062100	0.341300
C871	C87	0.790600	0.274300	0.914700
C881	C88	0.288000	0.008000	0.350100
C891	C89	0.285800	0.899000	0.524500
C901	C90	0.974700	0.166300	0.003000
H561	H56	0.957900	0.171200	0.963000
C911	C91	0.764400	0.435300	0.113000
H571	H57	0.785600	0.441600	0.152900
C921	C92	0.796100	0.391000	0.086500
H581	H58	0.838400	0.369100	0.108200
C931	C93	0.795500	0.328300	0.997500
C941	C94	0.320100	0.997900	0.414300
C951	C95	0.193800	0.819400	0.522200
H591	H59	0.152800	0.794500	0.500800
C961	C96	0.314500	0.890000	0.583600
H601	H60	0.356400	0.912300	0.605900
C971	C97	0.675300	0.458600	0.027300
H611	H61	0.632800	0.480900	0.007000
C981	C98	0.032700	0.126900	0.032900
H621	H62	0.054600	0.104100	0.012300
C991	C99	0.027400	0.148500	0.118600
H631	H63	0.045100	0.141400	0.158500
C1001	C100	0.193900	0.994900	0.259700
H641	H64	0.150100	0.977000	0.238700
C1011	C101	0.498900	0.071100	0.595100
H651	H65	0.481700	0.040900	0.616400
C1021	C102	0.289200	0.053500	0.262200
H661	H66	0.312500	0.077200	0.243000
C1031	C103	0.754300	0.206200	0.765200
H671	H67	0.772900	0.171000	0.747700
C1041	C104	0.785500	0.213200	0.823600
H681	H68	0.824900	0.185200	0.845000
C1051	C105	0.222500	0.983700	0.318400
H691	H69	0.198100	0.960200	0.336600
C1061	C106	0.556400	0.115400	0.622200
H701	H70	0.575400	0.117600	0.662400
C1071	C107	0.697800	0.300400	0.817400
H711	H71	0.675100	0.331200	0.833900
C1081	C108	0.672500	0.290300	0.757700
H721	H72	0.633200	0.317600	0.734800
N251	N25	0.060500	0.118500	0.089800
N261	N26	0.704800	0.469500	0.084000
N271	N27	0.699900	0.245300	0.731300
N281	N28	0.848000	0.234500	0.943100
N291	N29	0.852500	0.290400	0.029600
N301	N30	0.762700	0.322900	0.939500
N311	N31	0.587200	0.155700	0.594900
N321	N32	0.220500	0.812500	0.579500
N331	N33	0.224700	0.029700	0.230700
N341	N34	0.377500	0.037200	0.443700
N351	N35	0.375200	0.986900	0.529300
N361	N36	0.289700	0.950800	0.437600
Ag71	Ag7	0.655760	0.543670	0.133350
Ag81	Ag8	0.178560	0.743120	0.633780
C1091	C109	0.902500	0.528200	0.501400
C1101	C110	0.723700	0.361700	0.492700
H731	H73	0.703000	0.365400	0.452500
C1111	C111	0.440400	0.699700	0.032600
C1121	C112	0.202500	0.917200	0.996700
H741	H74	0.180700	0.914100	0.956600
C1131	C113	0.377000	0.744500	0.000200
C1141	C114	0.467400	0.690200	0.091200
H751	H75	0.445900	0.711400	0.112600
C1151	C115	0.997000	0.614700	0.506000
H761	H76	0.977600	0.616000	0.465700
C1161	C116	0.056600	0.655100	0.537800
H771	H77	0.076200	0.683600	0.517600
C1171	C117	0.257200	0.763200	0.851000
C1181	C118	0.818600	0.447600	0.495400
C1191	C119	0.780300	0.347100	0.610000
H781	H78	0.799800	0.342400	0.650100
C1201	C120	0.967200	0.572600	0.535300
C1211	C121	0.265000	0.879100	0.027700
C1221	C122	0.821400	0.544200	0.321000
H791	H79	0.865400	0.562100	0.341300
C1231	C123	0.290600	0.774300	0.914700
C1241	C124	0.788000	0.508000	0.350100
C1251	C125	0.785800	0.399000	0.524500
C1261	C126	0.474700	0.666300	0.003000
H801	H80	0.457900	0.671200	0.963000
C1271	C127	0.264400	0.935300	0.113000
H811	H81	0.285600	0.941600	0.152900
C1281	C128	0.296100	0.891000	0.086500
H821	H82	0.338400	0.869100	0.108200
C1291	C129	0.295500	0.828300	0.997500
C1301	C130	0.820100	0.497900	0.414300
C1311	C131	0.693800	0.319400	0.522200
H831	H83	0.652800	0.294500	0.500800
C1321	C132	0.814500	0.390000	0.583600
H841	H84	0.856400	0.412300	0.605900
C1331	C133	0.175300	0.958600	0.027300
H851	H85	0.132800	0.980900	0.007000
C1341	C134	0.532700	0.626900	0.032900
H861	H86	0.554600	0.604100	0.012300
C1351	C135	0.527400	0.648500	0.118600
H871	H87	0.545100	0.641400	0.158500
C1361	C136	0.693900	0.494900	0.259700
H881	H88	0.650100	0.477000	0.238700
C1371	C137	0.998900	0.571100	0.595100
H891	H89	0.981700	0.540900	0.616400
C1381	C138	0.789200	0.553500	0.262200
H901	H90	0.812500	0.577200	0.243000
C1391	C139	0.254300	0.706200	0.765200
H911	H91	0.272900	0.671000	0.747700
C1401	C140	0.285500	0.713200	0.823600
H921	H92	0.324900	0.685200	0.845000
C1411	C141	0.722500	0.483700	0.318400
H931	H93	0.698100	0.460200	0.336600
C1421	C142	0.056400	0.615400	0.622200
H941	H94	0.075400	0.617600	0.662400
C1431	C143	0.197800	0.800400	0.817400
H951	H95	0.175100	0.831200	0.833900
C1441	C144	0.172500	0.790300	0.757700
H961	H96	0.133200	0.817600	0.734800
N371	N37	0.560500	0.618500	0.089800
N381	N38	0.204800	0.969500	0.084000
N391	N39	0.199900	0.745300	0.731300
N401	N40	0.348000	0.734500	0.943100
N411	N41	0.352500	0.790400	0.029600
N421	N42	0.262700	0.822900	0.939500
N431	N43	0.087200	0.655700	0.594900
N441	N44	0.720500	0.312500	0.579500
N451	N45	0.724700	0.529700	0.230700
N461	N46	0.877500	0.537200	0.443700
N471	N47	0.875200	0.486900	0.529300
N481	N48	0.789700	0.450800	0.437600
Ag91	Ag9	0.155760	0.956330	0.633350
Ag101	Ag10	0.678560	0.756880	0.133780
C1451	C145	0.402500	0.971800	0.001400
C1461	C146	0.223700	0.138300	0.992700
H971	H97	0.203000	0.134600	0.952500
C1471	C147	0.940400	0.800300	0.532600
C1481	C148	0.702500	0.582800	0.496700
H981	H98	0.680700	0.585900	0.456600
C1491	C149	0.877000	0.755500	0.500200
C1501	C150	0.967400	0.809800	0.591200
H991	H99	0.945900	0.788600	0.612600
C1511	C151	0.497000	0.885300	0.006000
H1001	H100	0.477600	0.884000	0.965700
C1521	C152	0.556600	0.844900	0.037800
H1011	H101	0.576200	0.816400	0.017600
C1531	C153	0.757200	0.736800	0.351000
C1541	C154	0.318600	0.052400	0.995400
C1551	C155	0.280300	0.152900	0.110000
H1021	H102	0.299800	0.157600	0.150100
C1561	C156	0.467200	0.927400	0.035300
C1571	C157	0.765000	0.620900	0.527700
C1581	C158	0.321400	0.955800	0.821000
H1031	H103	0.365400	0.937900	0.841300
C1591	C159	0.790600	0.725700	0.414700
C1601	C160	0.288000	0.992000	0.850100
C1611	C161	0.285800	0.101000	0.024500
C1621	C162	0.974700	0.833700	0.503000
H1041	H104	0.957900	0.828800	0.463000
C1631	C163	0.764400	0.564700	0.613000
H1051	H105	0.785600	0.558400	0.652900
C1641	C164	0.796100	0.609000	0.586500
H1061	H106	0.838400	0.630900	0.608200
C1651	C165	0.795500	0.671700	0.497500
C1661	C166	0.320100	0.002100	0.914300
C1671	C167	0.193800	0.180600	0.022200
H1071	H107	0.152800	0.205500	0.000800
C1681	C168	0.314500	0.110000	0.083600
H1081	H108	0.356400	0.087700	0.105900
C1691	C169	0.675300	0.541400	0.527300
H1091	H109	0.632800	0.519100	0.507000
C1701	C170	0.032700	0.873100	0.532900
H1101	H110	0.054600	0.895900	0.512300
C1711	C171	0.027400	0.851500	0.618600
H1111	H111	0.045100	0.858600	0.658500
C1721	C172	0.193900	0.005100	0.759700
H1121	H112	0.150100	0.023000	0.738700
C1731	C173	0.498900	0.928900	0.095100
H1131	H113	0.481700	0.959100	0.116400
C1741	C174	0.289200	0.946500	0.762200
H1141	H114	0.312500	0.922800	0.743000
C1751	C175	0.754300	0.793800	0.265200
H1151	H115	0.772900	0.829000	0.247700
C1761	C176	0.785500	0.786800	0.323600
H1161	H116	0.824900	0.814800	0.345000
C1771	C177	0.222500	0.016300	0.818400
H1171	H117	0.198100	0.039800	0.836600
C1781	C178	0.556400	0.884600	0.122200
H1181	H118	0.575400	0.882400	0.162400
C1791	C179	0.697800	0.699600	0.317400
H1191	H119	0.675100	0.668800	0.333900
C1801	C180	0.672500	0.709700	0.257700
H1201	H120	0.633200	0.682400	0.234800
N491	N49	0.060500	0.881500	0.589800
N501	N50	0.704800	0.530500	0.584000
N511	N51	0.699900	0.754700	0.231300
N521	N52	0.848000	0.765500	0.443100
N531	N53	0.852500	0.709600	0.529600
N541	N54	0.762700	0.677100	0.439500
N551	N55	0.587200	0.844300	0.094900
N561	N56	0.220500	0.187500	0.079500
N571	N57	0.224700	0.970300	0.730700
N581	N58	0.377500	0.962800	0.943700
N591	N59	0.375200	0.013100	0.029300
N601	N60	0.289700	0.049200	0.937600
Ag111	Ag11	0.655760	0.456330	0.633350
Ag121	Ag12	0.178560	0.256880	0.133780
C1811	C181	0.902500	0.471800	0.001400
C1821	C182	0.723700	0.638300	0.992700
H1211	H121	0.703000	0.634600	0.952500
C1831	C183	0.440400	0.300300	0.532600
C1841	C184	0.202500	0.082800	0.496700
H1221	H122	0.180700	0.085900	0.456600
C1851	C185	0.377000	0.255500	0.500200
C1861	C186	0.467400	0.309800	0.591200
H1231	H123	0.445900	0.288600	0.612600
C1871	C187	0.997000	0.385300	0.006000
H1241	H124	0.977600	0.384000	0.965700
C1881	C188	0.056600	0.344900	0.037800
H1251	H125	0.076200	0.316400	0.017600
C1891	C189	0.257200	0.236800	0.351000
C1901	C190	0.818600	0.552400	0.995400
C1911	C191	0.780300	0.652900	0.110000
H1261	H126	0.799800	0.657600	0.150100
C1921	C192	0.967200	0.427400	0.035300
C1931	C193	0.265000	0.120900	0.527700
C1941	C194	0.821400	0.455800	0.821000
H1271	H127	0.865400	0.437900	0.841300
C1951	C195	0.290600	0.225700	0.414700
C1961	C196	0.788000	0.492000	0.850100
C1971	C197	0.785800	0.601000	0.024500
C1981	C198	0.474700	0.333700	0.503000
H1281	H128	0.457900	0.328800	0.463000
C1991	C199	0.264400	0.064700	0.613000
H1291	H129	0.285600	0.058400	0.652900
C2001	C200	0.296100	0.109000	0.586500
H1301	H130	0.338400	0.130900	0.608200
C2011	C201	0.295500	0.171700	0.497500
C2021	C202	0.820100	0.502100	0.914300
C2031	C203	0.693800	0.680600	0.022200
H1311	H131	0.652800	0.705500	0.000800
C2041	C204	0.814500	0.610000	0.083600
H1321	H132	0.856400	0.587700	0.105900
C2051	C205	0.175300	0.041400	0.527300
H1331	H133	0.132800	0.019100	0.507000
C2061	C206	0.532700	0.373100	0.532900
H1341	H134	0.554600	0.395900	0.512300
C2071	C207	0.527400	0.351500	0.618600
H1351	H135	0.545100	0.358600	0.658500
C2081	C208	0.693900	0.505100	0.759700
H1361	H136	0.650100	0.523000	0.738700
C2091	C209	0.998900	0.428900	0.095100
H1371	H137	0.981700	0.459100	0.116400
C2101	C210	0.789200	0.446500	0.762200
H1381	H138	0.812500	0.422800	0.743000
C2111	C211	0.254300	0.293800	0.265200
H1391	H139	0.272900	0.329000	0.247700
C2121	C212	0.285500	0.286800	0.323600
H1401	H140	0.324900	0.314800	0.345000
C2131	C213	0.722500	0.516300	0.818400
H1411	H141	0.698100	0.539800	0.836600
C2141	C214	0.056400	0.384600	0.122200
H1421	H142	0.075400	0.382400	0.162400
C2151	C215	0.197800	0.199600	0.317400
H1431	H143	0.175100	0.168800	0.333900
C2161	C216	0.172500	0.209700	0.257700
H1441	H144	0.133200	0.182400	0.234800
N611	N61	0.560500	0.381500	0.589800
N621	N62	0.204800	0.030500	0.584000
N631	N63	0.199900	0.254700	0.231300
N641	N64	0.348000	0.265500	0.443100
N651	N65	0.352500	0.209600	0.529600
N661	N66	0.262700	0.177100	0.439500
N671	N67	0.087200	0.344300	0.094900
N681	N68	0.720500	0.687500	0.079500
N691	N69	0.724700	0.470300	0.730700
N701	N70	0.877500	0.462800	0.943700
N711	N71	0.875200	0.513100	0.029300
N721	N72	0.789700	0.549200	0.937600
Ag131	Ag13	0.844240	0.956330	0.866650
Ag141	Ag14	0.321440	0.756880	0.366220
C2171	C217	0.597500	0.971800	0.498600
C2181	C218	0.776300	0.138300	0.507300
H1451	H145	0.797000	0.134600	0.547500
C2191	C219	0.059600	0.800300	0.967400
C2201	C220	0.297500	0.582800	0.003300
H1461	H146	0.319300	0.585900	0.043400
C2211	C221	0.123000	0.755500	0.999800
C2221	C222	0.032600	0.809800	0.908800
H1471	H147	0.054100	0.788600	0.887400
C2231	C223	0.503000	0.885300	0.494000
H1481	H148	0.522400	0.884000	0.534300
C2241	C224	0.443400	0.844900	0.462200
H1491	H149	0.423800	0.816400	0.482400
C2251	C225	0.242800	0.736800	0.149000
C2261	C226	0.681400	0.052400	0.504600
C2271	C227	0.719700	0.152900	0.390000
H1501	H150	0.700200	0.157600	0.349900
C2281	C228	0.532800	0.927400	0.464700
C2291	C229	0.235000	0.620900	0.972300
C2301	C230	0.678600	0.955800	0.679000
H1511	H151	0.634600	0.937900	0.658700
C2311	C231	0.209400	0.725700	0.085300
C2321	C232	0.712000	0.992000	0.649900
C2331	C233	0.714200	0.101000	0.475500
C2341	C234	0.025300	0.833700	0.997000
H1521	H152	0.042100	0.828800	0.037000
C2351	C235	0.235600	0.564700	0.887000
H1531	H153	0.214400	0.558400	0.847100
C2361	C236	0.203900	0.609000	0.913500
H1541	H154	0.161600	0.630900	0.891800
C2371	C237	0.204500	0.671700	0.002500
C2381	C238	0.679900	0.002100	0.585700
C2391	C239	0.806200	0.180600	0.477800
H1551	H155	0.847200	0.205500	0.499200
C2401	C240	0.685500	0.110000	0.416400
H1561	H156	0.643600	0.087700	0.394100
C2411	C241	0.324700	0.541400	0.972700
H1571	H157	0.367200	0.519100	0.993000
C2421	C242	0.967300	0.873100	0.967100
H1581	H158	0.945400	0.895900	0.987700
C2431	C243	0.972600	0.851500	0.881400
H1591	H159	0.954900	0.858600	0.841500
C2441	C244	0.806100	0.005100	0.740300
H1601	H160	0.849900	0.023000	0.761300
C2451	C245	0.501100	0.928900	0.404900
H1611	H161	0.518300	0.959100	0.383600
C2461	C246	0.710800	0.946500	0.737800
H1621	H162	0.687500	0.922800	0.757000
C2471	C247	0.245700	0.793800	0.234800
H1631	H163	0.227100	0.829000	0.252300
C2481	C248	0.214500	0.786800	0.176400
H1641	H164	0.175100	0.814800	0.155000
C2491	C249	0.777500	0.016300	0.681600
H1651	H165	0.801900	0.039800	0.663400
C2501	C250	0.443600	0.884600	0.377800
H1661	H166	0.424600	0.882400	0.337600
C2511	C251	0.302200	0.699600	0.182600
H1671	H167	0.324900	0.668800	0.166100
C2521	C252	0.327500	0.709700	0.242300
H1681	H168	0.366800	0.682400	0.265200
N731	N73	0.939500	0.881500	0.910200
N741	N74	0.295200	0.530500	0.916000
N751	N75	0.300100	0.754700	0.268700
N761	N76	0.152000	0.765500	0.056900
N771	N77	0.147500	0.709600	0.970400
N781	N78	0.237300	0.677100	0.060500
N791	N79	0.412800	0.844300	0.405100
N801	N80	0.779500	0.187500	0.420500
N811	N81	0.775300	0.970300	0.769300
N821	N82	0.622500	0.962800	0.556300
N831	N83	0.624800	0.013100	0.470700
N841	N84	0.710300	0.049200	0.562400
Ag151	Ag15	0.344240	0.456330	0.866650
Ag161	Ag16	0.821440	0.256880	0.366220
C2531	C253	0.097500	0.471800	0.498600
C2541	C254	0.276300	0.638300	0.507300
H1691	H169	0.297000	0.634600	0.547500
C2551	C255	0.559600	0.300300	0.967400
C2561	C256	0.797500	0.082800	0.003300
H1701	H170	0.819300	0.085900	0.043400
C2571	C257	0.623000	0.255500	0.999800
C2581	C258	0.532600	0.309800	0.908800
H1711	H171	0.554100	0.288600	0.887400
C2591	C259	0.003000	0.385300	0.494000
H1721	H172	0.022400	0.384000	0.534300
C2601	C260	0.943400	0.344900	0.462200
H1731	H173	0.923800	0.316400	0.482400
C2611	C261	0.742800	0.236800	0.149000
C2621	C262	0.181400	0.552400	0.504600
C2631	C263	0.219700	0.652900	0.390000
H1741	H174	0.200200	0.657600	0.349900
C2641	C264	0.032800	0.427400	0.464700
C2651	C265	0.735000	0.120900	0.972300
C2661	C266	0.178600	0.455800	0.679000
H1751	H175	0.134600	0.437900	0.658700
C2671	C267	0.709400	0.225700	0.085300
C2681	C268	0.212000	0.492000	0.649900
C2691	C269	0.214200	0.601000	0.475500
C2701	C270	0.525300	0.333700	0.997000
H1761	H176	0.542100	0.328800	0.037000
C2711	C271	0.735600	0.064700	0.887000
H1771	H177	0.714400	0.058400	0.847100
C2721	C272	0.703900	0.109000	0.913500
H1781	H178	0.661600	0.130900	0.891800
C2731	C273	0.704500	0.171700	0.002500
C2741	C274	0.179900	0.502100	0.585700
C2751	C275	0.306200	0.680600	0.477800
H1791	H179	0.347200	0.705500	0.499200
C2761	C276	0.185500	0.610000	0.416400
H1801	H180	0.143600	0.587700	0.394100
C2771	C277	0.824700	0.041400	0.972700
H1811	H181	0.867200	0.019100	0.993000
C2781	C278	0.467300	0.373100	0.967100
H1821	H182	0.445400	0.395900	0.987700
C2791	C279	0.472600	0.351500	0.881400
H1831	H183	0.454900	0.358600	0.841500
C2801	C280	0.306100	0.505100	0.740300
H1841	H184	0.349900	0.523000	0.761300
C2811	C281	0.001100	0.428900	0.404900
H1851	H185	0.018300	0.459100	0.383600
C2821	C282	0.210800	0.446500	0.737800
H1861	H186	0.187500	0.422800	0.757000
C2831	C283	0.745700	0.293800	0.234800
H1871	H187	0.727100	0.329000	0.252300
C2841	C284	0.714500	0.286800	0.176400
H1881	H188	0.675100	0.314800	0.155000
C2851	C285	0.277500	0.516300	0.681600
H1891	H189	0.301900	0.539800	0.663400
C2861	C286	0.943600	0.384600	0.377800
H1901	H190	0.924600	0.382400	0.337600
C2871	C287	0.802200	0.199600	0.182600
H1911	H191	0.824900	0.168800	0.166100
C2881	C288	0.827500	0.209700	0.242300
H1921	H192	0.866800	0.182400	0.265200
N851	N85	0.439500	0.381500	0.910200
N861	N86	0.795200	0.030500	0.916000
N871	N87	0.800100	0.254700	0.268700
N881	N88	0.652000	0.265500	0.056900
N891	N89	0.647500	0.209600	0.970400
N901	N90	0.737300	0.177100	0.060500
N911	N91	0.912800	0.344300	0.405100
N921	N92	0.279500	0.687500	0.420500
N931	N93	0.275300	0.470300	0.769300
N941	N94	0.122500	0.462800	0.556300
N951	N95	0.124800	0.513100	0.470700
N961	N96	0.210300	0.549200	0.562400
