data_QODHUO_clean_PM
_symmetry_space_group_name_H-M	'P1'
_cell_length_a	13.739300
_cell_length_b	13.739300
_cell_length_c	24.574800
_cell_angle_alpha	78.739400
_cell_angle_beta	78.478900
_cell_angle_gamma	107.067000
_symmetry_Int_Tables_number 1

loop_
_symmetry_equiv_pos_as_xyz
'x,y,z'

loop_
_atom_site_label
_atom_site_type_symbol
_atom_site_fract_x
_atom_site_fract_y
_atom_site_fract_z
Ag11	Ag1	0.518560	0.698530	0.867890
Ag21	Ag2	0.703950	0.425550	0.367300
H11	H1	0.645500	0.446800	0.500500
H21	H2	0.749000	0.681100	0.844700
H31	H3	0.507000	0.888500	0.759900
H41	H4	0.872900	0.652500	0.890200
H51	H5	0.990400	0.511200	0.168600
H61	H6	0.557200	0.659100	0.989900
H71	H7	0.922100	0.454500	0.267000
H81	H8	0.566700	0.627100	0.763600
H91	H9	0.622900	0.261300	0.485000
H101	H10	0.672100	0.625800	0.040300
H111	H11	0.700800	0.502700	0.156300
H121	H12	0.691400	0.644200	0.352200
H131	H13	0.535400	0.926900	0.661300
H141	H14	0.135400	0.706000	0.894000
H151	H15	0.187100	0.591200	0.045100
H161	H16	0.597000	0.657400	0.665200
H171	H17	0.661600	0.769500	0.396500
H181	H18	0.604400	0.095000	0.536800
H191	H19	0.641300	0.443600	0.255100
H201	H20	0.356700	0.614800	0.994500
H211	H21	0.615100	0.566300	0.549800
H221	H22	0.306000	0.729000	0.848800
H231	H23	0.678900	0.023900	0.386200
H241	H24	0.702800	0.194800	0.339400
C11	C1	0.630800	0.583800	0.509800
C21	C2	0.877500	0.465500	0.244400
C31	C3	0.712600	0.459400	0.237600
C41	C4	0.786830	0.637700	0.970470
C51	C5	0.809160	0.653700	0.911340
C61	C6	0.639710	0.040900	0.467390
C71	C7	0.919800	0.500600	0.185200
C81	C8	0.621600	0.658000	0.969600
C91	C9	0.624280	0.766200	0.507120
C101	C10	0.568700	0.796000	0.652100
C111	C11	0.139660	0.642900	0.974640
C121	C12	0.178580	0.686400	0.915420
C131	C13	0.525000	0.841600	0.740600
C141	C14	0.668520	0.071300	0.407180
C151	C15	0.560100	0.687800	0.742700
C161	C16	0.734300	0.671500	0.884400
C171	C17	0.623250	0.113100	0.496650
C181	C18	0.311500	0.633500	0.974200
C191	C19	0.590130	0.817800	0.588270
C201	C20	0.854680	0.519500	0.151420
C211	C21	0.578500	0.705200	0.683500
C221	C22	0.676050	0.628600	0.392150
C231	C23	0.626510	0.932900	0.501390
C241	C24	0.027870	0.622100	0.005230
C251	C25	0.635400	0.213400	0.465000
C261	C26	0.681300	0.173800	0.379500
C271	C27	0.895440	0.563500	0.087660
C281	C28	0.281540	0.700100	0.888560
C291	C29	0.658550	0.704800	0.418450
C301	C30	0.864320	0.618900	0.002580
C311	C31	0.690150	0.638300	0.000350
C321	C32	0.636510	0.683300	0.477990
C331	C33	0.649100	0.512500	0.479600
C341	C34	0.209070	0.617800	0.005130
C351	C35	0.747600	0.495100	0.178100
C361	C36	0.541900	0.865400	0.681300
N11	N1	0.597030	0.739390	0.564780
N21	N2	0.601160	0.915050	0.558790
N31	N3	0.964430	0.641600	0.972770
N41	N4	0.825080	0.578360	0.059560
N51	N5	0.997820	0.583790	0.063190
N61	N6	0.663990	0.245000	0.407410
N71	N7	0.533140	0.753300	0.771760
N81	N8	0.348690	0.673990	0.916720
N91	N9	0.641610	0.675630	0.912360
N101	N10	0.671980	0.533290	0.421530
N111	N11	0.642220	0.862480	0.473300
N121	N12	0.775900	0.446200	0.271500
Ag31	Ag3	0.481440	0.301470	0.132110
Ag41	Ag4	0.296050	0.574450	0.632700
H251	H25	0.464600	0.073100	0.338700
H261	H26	0.643300	0.385200	0.005500
H271	H27	0.403000	0.342600	0.334800
H281	H28	0.327900	0.374200	0.959700
H291	H29	0.433300	0.372900	0.236400
H301	H30	0.077900	0.545500	0.733000
H311	H31	0.321100	0.976100	0.613800
H321	H32	0.493000	0.111500	0.240100
H331	H33	0.338400	0.230500	0.603500
H341	H34	0.395600	0.905000	0.463200
H351	H35	0.251000	0.318900	0.155300
H361	H36	0.694000	0.271000	0.151200
H371	H37	0.442800	0.340900	0.010100
H381	H38	0.308600	0.355800	0.647800
H391	H39	0.864600	0.294000	0.106000
H401	H40	0.384900	0.433700	0.450200
H411	H41	0.127100	0.347500	0.109800
H421	H42	0.812900	0.408800	0.954900
H431	H43	0.299200	0.497300	0.843700
H441	H44	0.354500	0.553200	0.499500
H451	H45	0.009600	0.488800	0.831400
H461	H46	0.377100	0.738700	0.515000
H471	H47	0.358700	0.556400	0.744900
H481	H48	0.297200	0.805200	0.660600
C371	C37	0.331480	0.928700	0.592820
C381	C38	0.688500	0.366500	0.025800
C391	C39	0.080200	0.499400	0.814800
C401	C40	0.350900	0.487500	0.520400
C411	C41	0.373490	0.067100	0.498610
C421	C42	0.369200	0.416200	0.490200
C431	C43	0.421500	0.294800	0.316500
C441	C44	0.135680	0.381100	0.997420
C451	C45	0.458100	0.134600	0.318700
C461	C46	0.790930	0.382200	0.994870
C471	C47	0.860340	0.357100	0.025360
C481	C48	0.341450	0.295200	0.581550
C491	C49	0.363490	0.316700	0.522010
C501	C50	0.475000	0.158400	0.259400
C511	C51	0.287400	0.540600	0.762400
C521	C52	0.360290	0.959100	0.532610
C531	C53	0.318700	0.826200	0.620500
C541	C54	0.190840	0.346300	0.088660
C551	C55	0.409870	0.182200	0.411730
C561	C56	0.718460	0.299900	0.111440
C571	C57	0.213170	0.362300	0.029530
C581	C58	0.972130	0.377900	0.994770
C591	C59	0.431300	0.204000	0.347900
C601	C60	0.323950	0.371400	0.607850
C611	C61	0.378400	0.342000	0.030400
C621	C62	0.821420	0.313600	0.084580
C631	C63	0.439900	0.312200	0.257300
C641	C64	0.104560	0.436500	0.912340
C651	C65	0.375720	0.233800	0.492880
C661	C66	0.364600	0.786600	0.535000
C671	C67	0.265700	0.328500	0.115600
C681	C68	0.122500	0.534500	0.755600
C691	C69	0.145320	0.480500	0.848580
C701	C70	0.252400	0.504900	0.821900
C711	C71	0.376750	0.886900	0.503350
C721	C72	0.309850	0.361700	0.999650
N131	N13	0.035570	0.358400	0.027230
N141	N14	0.466860	0.246700	0.228240
N151	N15	0.398840	0.084950	0.441210
N161	N16	0.336010	0.755000	0.592590
N171	N17	0.002180	0.416210	0.936810
N181	N18	0.328020	0.466710	0.578470
N191	N19	0.651310	0.326010	0.083280
N201	N20	0.224100	0.553800	0.728500
N211	N21	0.402970	0.260610	0.435220
N221	N22	0.358390	0.324370	0.087640
N231	N23	0.357780	0.137520	0.526700
N241	N24	0.174920	0.421640	0.940440
Ag51	Ag5	0.933580	0.613550	0.367890
Ag61	Ag6	0.707150	0.928750	0.867300
H491	H49	0.890700	0.648800	0.494500
H501	H50	0.109300	0.669700	0.263600
H511	H51	0.965800	0.957800	0.839400
H521	H52	0.868200	0.858800	0.036800
H531	H53	0.841000	0.142900	0.656300
H541	H54	0.900000	0.970600	0.394000
H551	H55	0.552700	0.854000	0.000500
H561	H56	0.753700	0.892100	0.985000
H571	H57	0.957300	0.236900	0.390200
H581	H58	0.177400	0.737800	0.165200
H591	H59	0.089900	0.934900	0.886200
H601	H60	0.851600	0.733100	0.259900
H611	H61	0.922200	0.845200	0.348800
H621	H62	0.383900	0.835100	0.049800
H631	H63	0.801300	0.103600	0.755100
H641	H64	0.911800	0.803300	0.161300
H651	H65	0.820200	0.841000	0.668600
H661	H66	0.974200	0.406300	0.344700
H671	H67	0.833900	0.287600	0.540300
H681	H68	0.851000	0.452900	0.489900
H691	H69	0.778500	0.810900	0.767000
H701	H70	0.334000	0.941900	0.896500
H711	H71	0.503600	0.956400	0.852200
H721	H72	0.863700	0.767800	0.545100
C731	C73	0.911340	0.829900	0.388560
C741	C74	0.892300	0.714300	0.474200
C751	C75	0.826800	0.074300	0.678100
C761	C76	0.093930	0.821600	0.088270
C771	C77	0.991710	0.892900	0.967390
C781	C78	0.848840	0.016900	0.587660
C791	C79	0.226680	0.868600	0.007120
C801	C80	0.891830	0.242700	0.470470
C811	C81	0.917800	0.734400	0.240600
C821	C82	0.051900	0.779200	0.152100
C831	C83	0.872400	0.408800	0.469600
C841	C84	0.861350	0.309500	0.500350
C851	C85	0.877070	0.785800	0.505130
C861	C86	0.944100	0.381300	0.384400
C871	C87	0.021520	0.924300	0.907180
C881	C88	0.882460	0.885700	0.474640
C891	C89	0.111300	0.738000	0.183500
C901	C90	0.898180	0.906000	0.415420
C911	C91	0.878520	0.133100	0.502580
C921	C92	0.790100	0.878100	0.744400
C931	C93	0.338710	0.885500	0.977990
C941	C94	0.890250	0.880100	0.996650
C951	C95	0.069500	0.697200	0.242700
C961	C96	0.946700	0.939200	0.879500
C971	C97	0.934960	0.279500	0.411340
C981	C98	0.803000	0.049800	0.737600
C991	C99	0.376750	0.923000	0.918450
C1001	C100	0.479250	0.931800	0.892150
C1011	C101	0.872670	0.966900	0.505230
C1021	C102	0.507900	0.871300	0.979600
C1031	C103	0.829080	0.993900	0.651420
C1041	C104	0.065710	0.872100	0.001390
C1051	C105	0.953300	0.776800	0.181300
C1061	C106	0.814200	0.895000	0.685200
C1071	C107	0.821600	0.899600	0.965000
C1081	C108	0.406400	0.859400	0.009800
N251	N25	0.853020	0.938990	0.563190
N261	N26	0.912010	0.446030	0.412360
N271	N27	0.862080	0.115360	0.559560
N281	N28	0.164220	0.884480	0.973300
N291	N29	0.847590	0.928600	0.907410
N301	N30	0.782300	0.952600	0.771500
N311	N31	0.974940	0.695100	0.271760
N321	N32	0.195830	0.838190	0.064780
N331	N33	0.026160	0.840050	0.058790
N341	N34	0.885630	0.062800	0.472770
N351	N35	0.909290	0.734590	0.416720
N361	N36	0.545180	0.906490	0.921530
Ag71	Ag7	0.066420	0.386450	0.632110
Ag81	Ag8	0.292850	0.071250	0.132700
H731	H73	0.149000	0.547100	0.510100
H741	H74	0.148400	0.266900	0.740100
H751	H75	0.159000	0.857100	0.343700
H761	H76	0.496400	0.043600	0.147800
H771	H77	0.447300	0.146000	0.999500
H781	H78	0.910100	0.065100	0.113800
H791	H79	0.890700	0.330300	0.736400
H801	H80	0.109300	0.351200	0.505500
H811	H81	0.616100	0.164900	0.950200
H821	H82	0.131800	0.141200	0.963200
H831	H83	0.666000	0.058100	0.103500
H841	H84	0.221500	0.189100	0.233000
H851	H85	0.042700	0.763100	0.609800
H861	H86	0.088200	0.196700	0.838700
H871	H87	0.198700	0.896400	0.244900
H881	H88	0.025800	0.593700	0.655300
H891	H89	0.034200	0.042200	0.160600
H901	H90	0.822600	0.262200	0.834800
H911	H91	0.179800	0.159000	0.331400
H921	H92	0.100000	0.029400	0.606000
H931	H93	0.077800	0.154800	0.651200
H941	H94	0.136300	0.232200	0.454900
H951	H95	0.166100	0.712400	0.459700
H961	H96	0.246300	0.107900	0.015000
C1091	C109	0.088660	0.170100	0.611440
C1101	C110	0.520750	0.068200	0.107850
C1111	C111	0.623250	0.077000	0.081550
C1121	C112	0.178400	0.100400	0.035000
C1131	C113	0.173200	0.925700	0.321900
C1141	C114	0.127600	0.591200	0.530400
C1151	C115	0.185800	0.105000	0.314800
C1161	C116	0.127330	0.033100	0.494770
C1171	C117	0.138650	0.690500	0.499650
C1181	C118	0.122930	0.214200	0.494870
C1191	C119	0.209900	0.121900	0.255600
C1201	C120	0.492100	0.128700	0.020400
C1211	C121	0.046700	0.223200	0.818700
C1221	C122	0.065040	0.720500	0.588660
C1231	C123	0.008290	0.107100	0.032610
C1241	C124	0.101820	0.094000	0.584580
C1251	C125	0.170920	0.006100	0.348580
C1261	C126	0.593600	0.140600	0.990200
C1271	C127	0.930500	0.302800	0.757300
C1281	C128	0.948100	0.220800	0.847900
C1291	C129	0.151160	0.983100	0.412340
C1301	C130	0.773320	0.131400	0.992880
C1311	C131	0.117540	0.114300	0.525360
C1321	C132	0.055900	0.618700	0.615600
C1331	C133	0.082200	0.265600	0.759400
C1341	C134	0.661290	0.114500	0.022010
C1351	C135	0.934290	0.127900	0.998610
C1361	C136	0.053300	0.060800	0.120500
C1371	C137	0.906070	0.178400	0.911730
C1381	C138	0.197000	0.950200	0.262400
C1391	C139	0.108170	0.757300	0.529530
C1401	C140	0.109750	0.119900	0.003350
C1411	C141	0.978480	0.075700	0.092820
C1421	C142	0.888700	0.262000	0.816500
C1431	C143	0.107700	0.285700	0.525800
C1441	C144	0.121480	0.866900	0.497420
N371	N37	0.835780	0.115520	0.026700
N381	N38	0.973840	0.159950	0.941210
N391	N39	0.087990	0.553970	0.587640
N401	N40	0.217700	0.047400	0.228500
N411	N41	0.152410	0.071400	0.092590
N421	N42	0.804170	0.161810	0.935220
N431	N43	0.137920	0.884640	0.440440
N441	N44	0.114370	0.937200	0.527230
N451	N45	0.025060	0.304900	0.728240
N461	N46	0.454820	0.093510	0.078470
N471	N47	0.090710	0.265410	0.583280
N481	N48	0.146980	0.061010	0.436810
