data_QODHUO05_clean_PM
_symmetry_space_group_name_H-M	'P1'
_cell_length_a	22.026700
_cell_length_b	16.606100
_cell_length_c	25.574200
_cell_angle_alpha	90.000000
_cell_angle_beta	115.250000
_cell_angle_gamma	90.000000
_symmetry_Int_Tables_number 1

loop_
_symmetry_equiv_pos_as_xyz
'x,y,z'

loop_
_atom_site_label
_atom_site_type_symbol
_atom_site_fract_x
_atom_site_fract_y
_atom_site_fract_z
Ag11	Ag1	0.344240	0.957080	0.367260
Ag21	Ag2	0.322270	0.255010	0.866750
C11	C1	0.032700	0.310700	0.409600
H11	H1	0.054000	0.289700	0.388000
C21	C2	0.123700	0.255900	0.501000
C31	C3	0.597800	0.471300	0.999500
C41	C4	0.059800	0.300900	0.468800
C51	C5	0.297700	0.083500	0.504300
H21	H2	0.319900	0.087200	0.544400
C61	C6	0.503900	0.384700	0.995400
H31	H3	0.523600	0.383300	0.035600
C71	C7	0.209500	0.226100	0.586400
C81	C8	0.720300	0.652500	0.891100
H41	H4	0.700600	0.657200	0.851100
C91	C9	0.682000	0.552200	0.005600
C101	C10	0.777500	0.638300	0.008600
H51	H5	0.798400	0.634500	0.048700
C111	C11	0.533300	0.427200	0.965400
C121	C12	0.444100	0.344400	0.963400
H61	H6	0.424200	0.316400	0.983500
C131	C13	0.242800	0.236700	0.650400
C141	C14	0.026000	0.334300	0.498600
H71	H7	0.043100	0.329700	0.538600
C151	C15	0.235300	0.064300	0.387700
H81	H8	0.213500	0.057200	0.347800
C161	C16	0.714800	0.601700	0.976500
C171	C17	0.235400	0.121600	0.473500
C181	C18	0.967000	0.374200	0.467900
H91	H9	0.945000	0.396800	0.488300
C191	C19	0.678800	0.456100	0.179500
H101	H10	0.634800	0.438800	0.159200
C201	C20	0.204100	0.109500	0.414300
H111	H11	0.162000	0.131900	0.392500
C211	C21	0.680200	0.502100	0.086900
C221	C22	0.712400	0.491400	0.151100
C231	C23	0.686500	0.609900	0.917300
H121	H12	0.644900	0.586900	0.894900
C241	C24	0.973100	0.352600	0.383100
H131	H13	0.955600	0.360000	0.343300
C251	C25	0.807300	0.680100	0.978700
H141	H14	0.848600	0.704600	0.999900
C261	C26	0.205300	0.172100	0.503800
C271	C27	0.324800	0.040400	0.473100
H151	H15	0.366800	0.017100	0.493500
C281	C28	0.501600	0.427900	0.905700
H161	H16	0.519100	0.457600	0.884600
C291	C29	0.806600	0.504900	0.241300
H171	H17	0.850600	0.521900	0.262400
C301	C30	0.711800	0.446400	0.239200
H181	H18	0.689000	0.422200	0.258400
C311	C31	0.244900	0.295100	0.735900
H191	H19	0.226000	0.329900	0.753400
C321	C32	0.443800	0.384000	0.878200
H201	H20	0.424500	0.382400	0.838000
C331	C33	0.214400	0.287600	0.676800
H211	H21	0.175400	0.316200	0.654900
C341	C34	0.328000	0.208600	0.743000
H221	H22	0.367200	0.180900	0.765600
C351	C35	0.778000	0.516600	0.182200
H231	H23	0.801900	0.540600	0.164000
C361	C36	0.302200	0.199300	0.683900
H241	H24	0.324500	0.168400	0.667200
N11	N1	0.295700	0.030000	0.416700
N21	N2	0.939200	0.382900	0.410800
N31	N3	0.300800	0.254400	0.769700
N41	N4	0.147700	0.210400	0.471400
N51	N5	0.152600	0.266800	0.558100
N61	N6	0.237900	0.177500	0.561700
N71	N7	0.779900	0.687100	0.921100
N81	N8	0.413500	0.343200	0.905900
N91	N9	0.775300	0.470800	0.270000
N101	N10	0.625900	0.512700	0.972100
N111	N11	0.622900	0.463000	0.057500
N121	N12	0.711000	0.549100	0.063500
Ag31	Ag3	0.844240	0.457080	0.367260
Ag41	Ag4	0.822270	0.755010	0.866750
C371	C37	0.532700	0.810700	0.409600
H251	H25	0.554000	0.789700	0.388000
C381	C38	0.623700	0.755900	0.501000
C391	C39	0.097800	0.971300	0.999500
C401	C40	0.559800	0.800900	0.468800
C411	C41	0.797700	0.583500	0.504300
H261	H26	0.819900	0.587200	0.544400
C421	C42	0.003900	0.884700	0.995400
H271	H27	0.023600	0.883300	0.035600
C431	C43	0.709500	0.726100	0.586400
C441	C44	0.220300	0.152500	0.891100
H281	H28	0.200600	0.157200	0.851100
C451	C45	0.182000	0.052200	0.005600
C461	C46	0.277500	0.138300	0.008600
H291	H29	0.298400	0.134500	0.048700
C471	C47	0.033300	0.927200	0.965400
C481	C48	0.944100	0.844400	0.963400
H301	H30	0.924200	0.816400	0.983500
C491	C49	0.742800	0.736700	0.650400
C501	C50	0.526000	0.834300	0.498600
H311	H31	0.543100	0.829700	0.538600
C511	C51	0.735300	0.564300	0.387700
H321	H32	0.713500	0.557200	0.347800
C521	C52	0.214800	0.101700	0.976500
C531	C53	0.735400	0.621600	0.473500
C541	C54	0.467000	0.874200	0.467900
H331	H33	0.445000	0.896800	0.488300
C551	C55	0.178800	0.956100	0.179500
H341	H34	0.134800	0.938800	0.159200
C561	C56	0.704100	0.609500	0.414300
H351	H35	0.662000	0.631900	0.392500
C571	C57	0.180200	0.002100	0.086900
C581	C58	0.212400	0.991400	0.151100
C591	C59	0.186500	0.109900	0.917300
H361	H36	0.144900	0.086900	0.894900
C601	C60	0.473100	0.852600	0.383100
H371	H37	0.455600	0.860000	0.343300
C611	C61	0.307300	0.180100	0.978700
H381	H38	0.348600	0.204600	0.999900
C621	C62	0.705300	0.672100	0.503800
C631	C63	0.824800	0.540400	0.473100
H391	H39	0.866800	0.517100	0.493500
C641	C64	0.001600	0.927900	0.905700
H401	H40	0.019100	0.957600	0.884600
C651	C65	0.306600	0.004900	0.241300
H411	H41	0.350600	0.021900	0.262400
C661	C66	0.211800	0.946400	0.239200
H421	H42	0.189000	0.922200	0.258400
C671	C67	0.744900	0.795100	0.735900
H431	H43	0.726000	0.829900	0.753400
C681	C68	0.943800	0.884000	0.878200
H441	H44	0.924500	0.882400	0.838000
C691	C69	0.714400	0.787600	0.676800
H451	H45	0.675400	0.816200	0.654900
C701	C70	0.828000	0.708600	0.743000
H461	H46	0.867200	0.680900	0.765600
C711	C71	0.278000	0.016600	0.182200
H471	H47	0.301900	0.040600	0.164000
C721	C72	0.802200	0.699300	0.683900
H481	H48	0.824500	0.668400	0.667200
N131	N13	0.795700	0.530000	0.416700
N141	N14	0.439200	0.882900	0.410800
N151	N15	0.800800	0.754400	0.769700
N161	N16	0.647700	0.710400	0.471400
N171	N17	0.652600	0.766800	0.558100
N181	N18	0.737900	0.677500	0.561700
N191	N19	0.279900	0.187100	0.921100
N201	N20	0.913500	0.843200	0.905900
N211	N21	0.275300	0.970800	0.270000
N221	N22	0.125900	0.012700	0.972100
N231	N23	0.122900	0.963000	0.057500
N241	N24	0.211000	0.049100	0.063500
Ag51	Ag5	0.655760	0.957080	0.132740
Ag61	Ag6	0.677730	0.255010	0.633250
C731	C73	0.967300	0.310700	0.090400
H491	H49	0.946000	0.289700	0.112000
C741	C74	0.876300	0.255900	0.999000
C751	C75	0.402200	0.471300	0.500500
C761	C76	0.940200	0.300900	0.031200
C771	C77	0.702300	0.083500	0.995700
H501	H50	0.680100	0.087200	0.955600
C781	C78	0.496100	0.384700	0.504600
H511	H51	0.476400	0.383300	0.464400
C791	C79	0.790500	0.226100	0.913600
C801	C80	0.279700	0.652500	0.608900
H521	H52	0.299400	0.657200	0.648900
C811	C81	0.318000	0.552200	0.494400
C821	C82	0.222500	0.638300	0.491400
H531	H53	0.201600	0.634500	0.451300
C831	C83	0.466700	0.427200	0.534600
C841	C84	0.555900	0.344400	0.536600
H541	H54	0.575800	0.316400	0.516500
C851	C85	0.757200	0.236700	0.849600
C861	C86	0.974000	0.334300	0.001400
H551	H55	0.956900	0.329700	0.961400
C871	C87	0.764700	0.064300	0.112300
H561	H56	0.786500	0.057200	0.152200
C881	C88	0.285200	0.601700	0.523500
C891	C89	0.764600	0.121600	0.026500
C901	C90	0.033000	0.374200	0.032100
H571	H57	0.055000	0.396800	0.011700
C911	C91	0.321200	0.456100	0.320500
H581	H58	0.365200	0.438800	0.340800
C921	C92	0.795900	0.109500	0.085700
H591	H59	0.838000	0.131900	0.107500
C931	C93	0.319800	0.502100	0.413100
C941	C94	0.287600	0.491400	0.348900
C951	C95	0.313500	0.609900	0.582700
H601	H60	0.355100	0.586900	0.605100
C961	C96	0.026900	0.352600	0.116900
H611	H61	0.044400	0.360000	0.156700
C971	C97	0.192700	0.680100	0.521300
H621	H62	0.151400	0.704600	0.500100
C981	C98	0.794700	0.172100	0.996200
C991	C99	0.675200	0.040400	0.026900
H631	H63	0.633200	0.017100	0.006500
C1001	C100	0.498400	0.427900	0.594300
H641	H64	0.480900	0.457600	0.615400
C1011	C101	0.193400	0.504900	0.258700
H651	H65	0.149400	0.521900	0.237600
C1021	C102	0.288200	0.446400	0.260800
H661	H66	0.311000	0.422200	0.241600
C1031	C103	0.755100	0.295100	0.764100
H671	H67	0.774000	0.329900	0.746600
C1041	C104	0.556200	0.384000	0.621800
H681	H68	0.575500	0.382400	0.662000
C1051	C105	0.785600	0.287600	0.823200
H691	H69	0.824600	0.316200	0.845100
C1061	C106	0.672000	0.208600	0.757000
H701	H70	0.632800	0.180900	0.734400
C1071	C107	0.222000	0.516600	0.317800
H711	H71	0.198100	0.540600	0.336000
C1081	C108	0.697800	0.199300	0.816100
H721	H72	0.675500	0.168400	0.832800
N251	N25	0.704300	0.030000	0.083300
N261	N26	0.060800	0.382900	0.089200
N271	N27	0.699200	0.254400	0.730300
N281	N28	0.852300	0.210400	0.028600
N291	N29	0.847400	0.266800	0.941900
N301	N30	0.762100	0.177500	0.938300
N311	N31	0.220100	0.687100	0.578900
N321	N32	0.586500	0.343200	0.594100
N331	N33	0.224700	0.470800	0.230000
N341	N34	0.374100	0.512700	0.527900
N351	N35	0.377100	0.463000	0.442500
N361	N36	0.289000	0.549100	0.436500
Ag71	Ag7	0.155760	0.457080	0.132740
Ag81	Ag8	0.177730	0.755010	0.633250
C1091	C109	0.467300	0.810700	0.090400
H731	H73	0.446000	0.789700	0.112000
C1101	C110	0.376300	0.755900	0.999000
C1111	C111	0.902200	0.971300	0.500500
C1121	C112	0.440200	0.800900	0.031200
C1131	C113	0.202300	0.583500	0.995700
H741	H74	0.180100	0.587200	0.955600
C1141	C114	0.996100	0.884700	0.504600
H751	H75	0.976400	0.883300	0.464400
C1151	C115	0.290500	0.726100	0.913600
C1161	C116	0.779700	0.152500	0.608900
H761	H76	0.799400	0.157200	0.648900
C1171	C117	0.818000	0.052200	0.494400
C1181	C118	0.722500	0.138300	0.491400
H771	H77	0.701600	0.134500	0.451300
C1191	C119	0.966700	0.927200	0.534600
C1201	C120	0.055900	0.844400	0.536600
H781	H78	0.075800	0.816400	0.516500
C1211	C121	0.257200	0.736700	0.849600
C1221	C122	0.474000	0.834300	0.001400
H791	H79	0.456900	0.829700	0.961400
C1231	C123	0.264700	0.564300	0.112300
H801	H80	0.286500	0.557200	0.152200
C1241	C124	0.785200	0.101700	0.523500
C1251	C125	0.264600	0.621600	0.026500
C1261	C126	0.533000	0.874200	0.032100
H811	H81	0.555000	0.896800	0.011700
C1271	C127	0.821200	0.956100	0.320500
H821	H82	0.865200	0.938800	0.340800
C1281	C128	0.295900	0.609500	0.085700
H831	H83	0.338000	0.631900	0.107500
C1291	C129	0.819800	0.002100	0.413100
C1301	C130	0.787600	0.991400	0.348900
C1311	C131	0.813500	0.109900	0.582700
H841	H84	0.855100	0.086900	0.605100
C1321	C132	0.526900	0.852600	0.116900
H851	H85	0.544400	0.860000	0.156700
C1331	C133	0.692700	0.180100	0.521300
H861	H86	0.651400	0.204600	0.500100
C1341	C134	0.294700	0.672100	0.996200
C1351	C135	0.175200	0.540400	0.026900
H871	H87	0.133200	0.517100	0.006500
C1361	C136	0.998400	0.927900	0.594300
H881	H88	0.980900	0.957600	0.615400
C1371	C137	0.693400	0.004900	0.258700
H891	H89	0.649400	0.021900	0.237600
C1381	C138	0.788200	0.946400	0.260800
H901	H90	0.811000	0.922200	0.241600
C1391	C139	0.255100	0.795100	0.764100
H911	H91	0.274000	0.829900	0.746600
C1401	C140	0.056200	0.884000	0.621800
H921	H92	0.075500	0.882400	0.662000
C1411	C141	0.285600	0.787600	0.823200
H931	H93	0.324600	0.816200	0.845100
C1421	C142	0.172000	0.708600	0.757000
H941	H94	0.132800	0.680900	0.734400
C1431	C143	0.722000	0.016600	0.317800
H951	H95	0.698100	0.040600	0.336000
C1441	C144	0.197800	0.699300	0.816100
H961	H96	0.175500	0.668400	0.832800
N371	N37	0.204300	0.530000	0.083300
N381	N38	0.560800	0.882900	0.089200
N391	N39	0.199200	0.754400	0.730300
N401	N40	0.352300	0.710400	0.028600
N411	N41	0.347400	0.766800	0.941900
N421	N42	0.262100	0.677500	0.938300
N431	N43	0.720100	0.187100	0.578900
N441	N44	0.086500	0.843200	0.594100
N451	N45	0.724700	0.970800	0.230000
N461	N46	0.874100	0.012700	0.527900
N471	N47	0.877100	0.963000	0.442500
N481	N48	0.789000	0.049100	0.436500
Ag91	Ag9	0.655760	0.042920	0.632740
Ag101	Ag10	0.677730	0.744990	0.133250
C1451	C145	0.967300	0.689300	0.590400
H971	H97	0.946000	0.710300	0.612000
C1461	C146	0.876300	0.744100	0.499000
C1471	C147	0.402200	0.528700	0.000500
C1481	C148	0.940200	0.699100	0.531200
C1491	C149	0.702300	0.916500	0.495700
H981	H98	0.680100	0.912800	0.455600
C1501	C150	0.496100	0.615300	0.004600
H991	H99	0.476400	0.616700	0.964400
C1511	C151	0.790500	0.773900	0.413600
C1521	C152	0.279700	0.347500	0.108900
H1001	H100	0.299400	0.342800	0.148900
C1531	C153	0.318000	0.447800	0.994400
C1541	C154	0.222500	0.361700	0.991400
H1011	H101	0.201600	0.365500	0.951300
C1551	C155	0.466700	0.572800	0.034600
C1561	C156	0.555900	0.655600	0.036600
H1021	H102	0.575800	0.683600	0.016500
C1571	C157	0.757200	0.763300	0.349600
C1581	C158	0.974000	0.665700	0.501400
H1031	H103	0.956900	0.670300	0.461400
C1591	C159	0.764700	0.935700	0.612300
H1041	H104	0.786500	0.942800	0.652200
C1601	C160	0.285200	0.398300	0.023500
C1611	C161	0.764600	0.878400	0.526500
C1621	C162	0.033000	0.625800	0.532100
H1051	H105	0.055000	0.603200	0.511700
C1631	C163	0.321200	0.543900	0.820500
H1061	H106	0.365200	0.561200	0.840800
C1641	C164	0.795900	0.890500	0.585700
H1071	H107	0.838000	0.868100	0.607500
C1651	C165	0.319800	0.497900	0.913100
C1661	C166	0.287600	0.508600	0.848900
C1671	C167	0.313500	0.390100	0.082700
H1081	H108	0.355100	0.413100	0.105100
C1681	C168	0.026900	0.647400	0.616900
H1091	H109	0.044400	0.640000	0.656700
C1691	C169	0.192700	0.319900	0.021300
H1101	H110	0.151400	0.295400	0.000100
C1701	C170	0.794700	0.827900	0.496200
C1711	C171	0.675200	0.959600	0.526900
H1111	H111	0.633200	0.982900	0.506500
C1721	C172	0.498400	0.572100	0.094300
H1121	H112	0.480900	0.542400	0.115400
C1731	C173	0.193400	0.495100	0.758700
H1131	H113	0.149400	0.478100	0.737600
C1741	C174	0.288200	0.553600	0.760800
H1141	H114	0.311000	0.577800	0.741600
C1751	C175	0.755100	0.704900	0.264100
H1151	H115	0.774000	0.670100	0.246600
C1761	C176	0.556200	0.616000	0.121800
H1161	H116	0.575500	0.617600	0.162000
C1771	C177	0.785600	0.712400	0.323200
H1171	H117	0.824600	0.683800	0.345100
C1781	C178	0.672000	0.791400	0.257000
H1181	H118	0.632800	0.819100	0.234400
C1791	C179	0.222000	0.483400	0.817800
H1191	H119	0.198100	0.459400	0.836000
C1801	C180	0.697800	0.800700	0.316100
H1201	H120	0.675500	0.831600	0.332800
N491	N49	0.704300	0.970000	0.583300
N501	N50	0.060800	0.617100	0.589200
N511	N51	0.699200	0.745600	0.230300
N521	N52	0.852300	0.789600	0.528600
N531	N53	0.847400	0.733200	0.441900
N541	N54	0.762100	0.822500	0.438300
N551	N55	0.220100	0.312900	0.078900
N561	N56	0.586500	0.656800	0.094100
N571	N57	0.224700	0.529200	0.730000
N581	N58	0.374100	0.487300	0.027900
N591	N59	0.377100	0.537000	0.942500
N601	N60	0.289000	0.450900	0.936500
Ag111	Ag11	0.155760	0.542920	0.632740
Ag121	Ag12	0.177730	0.244990	0.133250
C1811	C181	0.467300	0.189300	0.590400
H1211	H121	0.446000	0.210300	0.612000
C1821	C182	0.376300	0.244100	0.499000
C1831	C183	0.902200	0.028700	0.000500
C1841	C184	0.440200	0.199100	0.531200
C1851	C185	0.202300	0.416500	0.495700
H1221	H122	0.180100	0.412800	0.455600
C1861	C186	0.996100	0.115300	0.004600
H1231	H123	0.976400	0.116700	0.964400
C1871	C187	0.290500	0.273900	0.413600
C1881	C188	0.779700	0.847500	0.108900
H1241	H124	0.799400	0.842800	0.148900
C1891	C189	0.818000	0.947800	0.994400
C1901	C190	0.722500	0.861700	0.991400
H1251	H125	0.701600	0.865500	0.951300
C1911	C191	0.966700	0.072800	0.034600
C1921	C192	0.055900	0.155600	0.036600
H1261	H126	0.075800	0.183600	0.016500
C1931	C193	0.257200	0.263300	0.349600
C1941	C194	0.474000	0.165700	0.501400
H1271	H127	0.456900	0.170300	0.461400
C1951	C195	0.264700	0.435700	0.612300
H1281	H128	0.286500	0.442800	0.652200
C1961	C196	0.785200	0.898300	0.023500
C1971	C197	0.264600	0.378400	0.526500
C1981	C198	0.533000	0.125800	0.532100
H1291	H129	0.555000	0.103200	0.511700
C1991	C199	0.821200	0.043900	0.820500
H1301	H130	0.865200	0.061200	0.840800
C2001	C200	0.295900	0.390500	0.585700
H1311	H131	0.338000	0.368100	0.607500
C2011	C201	0.819800	0.997900	0.913100
C2021	C202	0.787600	0.008600	0.848900
C2031	C203	0.813500	0.890100	0.082700
H1321	H132	0.855100	0.913100	0.105100
C2041	C204	0.526900	0.147400	0.616900
H1331	H133	0.544400	0.140000	0.656700
C2051	C205	0.692700	0.819900	0.021300
H1341	H134	0.651400	0.795400	0.000100
C2061	C206	0.294700	0.327900	0.496200
C2071	C207	0.175200	0.459600	0.526900
H1351	H135	0.133200	0.482900	0.506500
C2081	C208	0.998400	0.072100	0.094300
H1361	H136	0.980900	0.042400	0.115400
C2091	C209	0.693400	0.995100	0.758700
H1371	H137	0.649400	0.978100	0.737600
C2101	C210	0.788200	0.053600	0.760800
H1381	H138	0.811000	0.077800	0.741600
C2111	C211	0.255100	0.204900	0.264100
H1391	H139	0.274000	0.170100	0.246600
C2121	C212	0.056200	0.116000	0.121800
H1401	H140	0.075500	0.117600	0.162000
C2131	C213	0.285600	0.212400	0.323200
H1411	H141	0.324600	0.183800	0.345100
C2141	C214	0.172000	0.291400	0.257000
H1421	H142	0.132800	0.319100	0.234400
C2151	C215	0.722000	0.983400	0.817800
H1431	H143	0.698100	0.959400	0.836000
C2161	C216	0.197800	0.300700	0.316100
H1441	H144	0.175500	0.331600	0.332800
N611	N61	0.204300	0.470000	0.583300
N621	N62	0.560800	0.117100	0.589200
N631	N63	0.199200	0.245600	0.230300
N641	N64	0.352300	0.289600	0.528600
N651	N65	0.347400	0.233200	0.441900
N661	N66	0.262100	0.322500	0.438300
N671	N67	0.720100	0.812900	0.078900
N681	N68	0.086500	0.156800	0.094100
N691	N69	0.724700	0.029200	0.730000
N701	N70	0.874100	0.987300	0.027900
N711	N71	0.877100	0.037000	0.942500
N721	N72	0.789000	0.950900	0.936500
Ag131	Ag13	0.344240	0.042920	0.867260
Ag141	Ag14	0.322270	0.744990	0.366750
C2171	C217	0.032700	0.689300	0.909600
H1451	H145	0.054000	0.710300	0.888000
C2181	C218	0.123700	0.744100	0.001000
C2191	C219	0.597800	0.528700	0.499500
C2201	C220	0.059800	0.699100	0.968800
C2211	C221	0.297700	0.916500	0.004300
H1461	H146	0.319900	0.912800	0.044400
C2221	C222	0.503900	0.615300	0.495400
H1471	H147	0.523600	0.616700	0.535600
C2231	C223	0.209500	0.773900	0.086400
C2241	C224	0.720300	0.347500	0.391100
H1481	H148	0.700600	0.342800	0.351100
C2251	C225	0.682000	0.447800	0.505600
C2261	C226	0.777500	0.361700	0.508600
H1491	H149	0.798400	0.365500	0.548700
C2271	C227	0.533300	0.572800	0.465400
C2281	C228	0.444100	0.655600	0.463400
H1501	H150	0.424200	0.683600	0.483500
C2291	C229	0.242800	0.763300	0.150400
C2301	C230	0.026000	0.665700	0.998600
H1511	H151	0.043100	0.670300	0.038600
C2311	C231	0.235300	0.935700	0.887700
H1521	H152	0.213500	0.942800	0.847800
C2321	C232	0.714800	0.398300	0.476500
C2331	C233	0.235400	0.878400	0.973500
C2341	C234	0.967000	0.625800	0.967900
H1531	H153	0.945000	0.603200	0.988300
C2351	C235	0.678800	0.543900	0.679500
H1541	H154	0.634800	0.561200	0.659200
C2361	C236	0.204100	0.890500	0.914300
H1551	H155	0.162000	0.868100	0.892500
C2371	C237	0.680200	0.497900	0.586900
C2381	C238	0.712400	0.508600	0.651100
C2391	C239	0.686500	0.390100	0.417300
H1561	H156	0.644900	0.413100	0.394900
C2401	C240	0.973100	0.647400	0.883100
H1571	H157	0.955600	0.640000	0.843300
C2411	C241	0.807300	0.319900	0.478700
H1581	H158	0.848600	0.295400	0.499900
C2421	C242	0.205300	0.827900	0.003800
C2431	C243	0.324800	0.959600	0.973100
H1591	H159	0.366800	0.982900	0.993500
C2441	C244	0.501600	0.572100	0.405700
H1601	H160	0.519100	0.542400	0.384600
C2451	C245	0.806600	0.495100	0.741300
H1611	H161	0.850600	0.478100	0.762400
C2461	C246	0.711800	0.553600	0.739200
H1621	H162	0.689000	0.577800	0.758400
C2471	C247	0.244900	0.704900	0.235900
H1631	H163	0.226000	0.670100	0.253400
C2481	C248	0.443800	0.616000	0.378200
H1641	H164	0.424500	0.617600	0.338000
C2491	C249	0.214400	0.712400	0.176800
H1651	H165	0.175400	0.683800	0.154900
C2501	C250	0.328000	0.791400	0.243000
H1661	H166	0.367200	0.819100	0.265600
C2511	C251	0.778000	0.483400	0.682200
H1671	H167	0.801900	0.459400	0.664000
C2521	C252	0.302200	0.800700	0.183900
H1681	H168	0.324500	0.831600	0.167200
N731	N73	0.295700	0.970000	0.916700
N741	N74	0.939200	0.617100	0.910800
N751	N75	0.300800	0.745600	0.269700
N761	N76	0.147700	0.789600	0.971400
N771	N77	0.152600	0.733200	0.058100
N781	N78	0.237900	0.822500	0.061700
N791	N79	0.779900	0.312900	0.421100
N801	N80	0.413500	0.656800	0.405900
N811	N81	0.775300	0.529200	0.770000
N821	N82	0.625900	0.487300	0.472100
N831	N83	0.622900	0.537000	0.557500
N841	N84	0.711000	0.450900	0.563500
Ag151	Ag15	0.844240	0.542920	0.867260
Ag161	Ag16	0.822270	0.244990	0.366750
C2531	C253	0.532700	0.189300	0.909600
H1691	H169	0.554000	0.210300	0.888000
C2541	C254	0.623700	0.244100	0.001000
C2551	C255	0.097800	0.028700	0.499500
C2561	C256	0.559800	0.199100	0.968800
C2571	C257	0.797700	0.416500	0.004300
H1701	H170	0.819900	0.412800	0.044400
C2581	C258	0.003900	0.115300	0.495400
H1711	H171	0.023600	0.116700	0.535600
C2591	C259	0.709500	0.273900	0.086400
C2601	C260	0.220300	0.847500	0.391100
H1721	H172	0.200600	0.842800	0.351100
C2611	C261	0.182000	0.947800	0.505600
C2621	C262	0.277500	0.861700	0.508600
H1731	H173	0.298400	0.865500	0.548700
C2631	C263	0.033300	0.072800	0.465400
C2641	C264	0.944100	0.155600	0.463400
H1741	H174	0.924200	0.183600	0.483500
C2651	C265	0.742800	0.263300	0.150400
C2661	C266	0.526000	0.165700	0.998600
H1751	H175	0.543100	0.170300	0.038600
C2671	C267	0.735300	0.435700	0.887700
H1761	H176	0.713500	0.442800	0.847800
C2681	C268	0.214800	0.898300	0.476500
C2691	C269	0.735400	0.378400	0.973500
C2701	C270	0.467000	0.125800	0.967900
H1771	H177	0.445000	0.103200	0.988300
C2711	C271	0.178800	0.043900	0.679500
H1781	H178	0.134800	0.061200	0.659200
C2721	C272	0.704100	0.390500	0.914300
H1791	H179	0.662000	0.368100	0.892500
C2731	C273	0.180200	0.997900	0.586900
C2741	C274	0.212400	0.008600	0.651100
C2751	C275	0.186500	0.890100	0.417300
H1801	H180	0.144900	0.913100	0.394900
C2761	C276	0.473100	0.147400	0.883100
H1811	H181	0.455600	0.140000	0.843300
C2771	C277	0.307300	0.819900	0.478700
H1821	H182	0.348600	0.795400	0.499900
C2781	C278	0.705300	0.327900	0.003800
C2791	C279	0.824800	0.459600	0.973100
H1831	H183	0.866800	0.482900	0.993500
C2801	C280	0.001600	0.072100	0.405700
H1841	H184	0.019100	0.042400	0.384600
C2811	C281	0.306600	0.995100	0.741300
H1851	H185	0.350600	0.978100	0.762400
C2821	C282	0.211800	0.053600	0.739200
H1861	H186	0.189000	0.077800	0.758400
C2831	C283	0.744900	0.204900	0.235900
H1871	H187	0.726000	0.170100	0.253400
C2841	C284	0.943800	0.116000	0.378200
H1881	H188	0.924500	0.117600	0.338000
C2851	C285	0.714400	0.212400	0.176800
H1891	H189	0.675400	0.183800	0.154900
C2861	C286	0.828000	0.291400	0.243000
H1901	H190	0.867200	0.319100	0.265600
C2871	C287	0.278000	0.983400	0.682200
H1911	H191	0.301900	0.959400	0.664000
C2881	C288	0.802200	0.300700	0.183900
H1921	H192	0.824500	0.331600	0.167200
N851	N85	0.795700	0.470000	0.916700
N861	N86	0.439200	0.117100	0.910800
N871	N87	0.800800	0.245600	0.269700
N881	N88	0.647700	0.289600	0.971400
N891	N89	0.652600	0.233200	0.058100
N901	N90	0.737900	0.322500	0.061700
N911	N91	0.279900	0.812900	0.421100
N921	N92	0.913500	0.156800	0.405900
N931	N93	0.275300	0.029200	0.770000
N941	N94	0.125900	0.987300	0.472100
N951	N95	0.122900	0.037000	0.557500
N961	N96	0.211000	0.950900	0.563500
