data_QOFBIY_clean_PM
_symmetry_space_group_name_H-M	'P1'
_cell_length_a	22.076500
_cell_length_b	16.315800
_cell_length_c	25.680000
_cell_angle_alpha	90.000000
_cell_angle_beta	115.416000
_cell_angle_gamma	90.000000
_symmetry_Int_Tables_number 1

loop_
_symmetry_equiv_pos_as_xyz
'x,y,z'

loop_
_atom_site_label
_atom_site_type_symbol
_atom_site_fract_x
_atom_site_fract_y
_atom_site_fract_z
Ag11	Ag1	0.822800	0.249590	0.867410
Ag21	Ag2	0.343480	0.457250	0.367670
C11	C1	0.002060	0.382700	0.996710
H11	H1	0.021500	0.381800	0.036800
C21	C2	0.032900	0.812000	0.411190
H21	H2	0.054400	0.790500	0.390000
C31	C3	0.123900	0.757500	0.502680
C41	C4	0.059780	0.802100	0.470460
C51	C5	0.277500	0.636900	0.009550
H31	H3	0.298300	0.633800	0.049600
C61	C6	0.235880	0.566700	0.388560
H41	H4	0.214000	0.560400	0.348800
C71	C7	0.219500	0.650500	0.892470
H51	H5	0.199300	0.655300	0.852500
C81	C8	0.942660	0.342400	0.965510
H61	H6	0.922300	0.315200	0.985600
C91	C9	0.097030	0.468600	0.001500
C101	C10	0.026030	0.836200	0.500120
H71	H7	0.043600	0.832000	0.540000
C111	C11	0.209690	0.726300	0.587920
C121	C12	0.966280	0.876100	0.469480
H81	H8	0.943700	0.897900	0.489600
C131	C13	0.032480	0.424700	0.967400
C141	C14	0.305800	0.506900	0.242890
H91	H9	0.349800	0.524300	0.263800
C151	C15	0.215220	0.599800	0.978130
C161	C16	0.177400	0.456700	0.181730
H101	H10	0.133400	0.438600	0.161800
C171	C17	0.001620	0.424500	0.907490
H111	H11	0.020200	0.453200	0.886600
C181	C18	0.326110	0.540600	0.474370
H121	H12	0.367800	0.516400	0.494800
C191	C19	0.242810	0.736100	0.651920
C201	C20	0.326600	0.702500	0.744690
H131	H13	0.365300	0.673400	0.767200
C211	C21	0.307600	0.678700	0.979630
H141	H14	0.349000	0.703400	0.000600
C221	C22	0.298480	0.584400	0.505120
H151	H15	0.320900	0.588600	0.545000
C231	C23	0.973480	0.854500	0.384420
H161	H16	0.956400	0.862500	0.344800
C241	C24	0.179090	0.502100	0.088440
C251	C25	0.206000	0.672700	0.505720
C261	C26	0.942730	0.381000	0.879670
H171	H17	0.923000	0.379800	0.839600
C271	C27	0.276800	0.517700	0.183740
H181	H18	0.301000	0.541200	0.165500
C281	C28	0.185850	0.608000	0.918530
H191	H19	0.144000	0.585100	0.896400
C291	C29	0.181980	0.550400	0.007180
C301	C30	0.210200	0.448200	0.240740
H201	H20	0.187300	0.424500	0.260000
C311	C31	0.236360	0.622000	0.475020
C321	C32	0.210730	0.492800	0.152110
C331	C33	0.204710	0.611700	0.415340
H211	H21	0.162900	0.635100	0.393800
C341	C34	0.215100	0.787800	0.678510
H221	H22	0.177300	0.818800	0.656700
C351	C35	0.244400	0.792900	0.737840
H231	H23	0.225500	0.828000	0.755300
C361	C36	0.301200	0.694500	0.685640
H241	H24	0.322700	0.662100	0.668900
N11	N1	0.912340	0.340100	0.907460
N21	N2	0.274100	0.472600	0.271800
N31	N3	0.279630	0.685230	0.921600
N41	N4	0.125830	0.509400	0.973380
N51	N5	0.121310	0.462000	0.058970
N61	N6	0.210460	0.548800	0.064880
N71	N7	0.296320	0.531100	0.416910
N81	N8	0.938860	0.885100	0.411840
N91	N9	0.299040	0.749400	0.771710
N101	N10	0.148060	0.710500	0.472920
N111	N11	0.153140	0.768300	0.559840
N121	N12	0.238480	0.677300	0.563330
Ag31	Ag3	0.322800	0.749590	0.867410
Ag41	Ag4	0.843480	0.957250	0.367670
C371	C37	0.502060	0.882700	0.996710
H251	H25	0.521500	0.881800	0.036800
C381	C38	0.532900	0.312000	0.411190
H261	H26	0.554400	0.290500	0.390000
C391	C39	0.623900	0.257500	0.502680
C401	C40	0.559780	0.302100	0.470460
C411	C41	0.777500	0.136900	0.009550
H271	H27	0.798300	0.133800	0.049600
C421	C42	0.735880	0.066700	0.388560
H281	H28	0.714000	0.060400	0.348800
C431	C43	0.719500	0.150500	0.892470
H291	H29	0.699300	0.155300	0.852500
C441	C44	0.442660	0.842400	0.965510
H301	H30	0.422300	0.815200	0.985600
C451	C45	0.597030	0.968600	0.001500
C461	C46	0.526030	0.336200	0.500120
H311	H31	0.543600	0.332000	0.540000
C471	C47	0.709690	0.226300	0.587920
C481	C48	0.466280	0.376100	0.469480
H321	H32	0.443700	0.397900	0.489600
C491	C49	0.532480	0.924700	0.967400
C501	C50	0.805800	0.006900	0.242890
H331	H33	0.849800	0.024300	0.263800
C511	C51	0.715220	0.099800	0.978130
C521	C52	0.677400	0.956700	0.181730
H341	H34	0.633400	0.938600	0.161800
C531	C53	0.501620	0.924500	0.907490
H351	H35	0.520200	0.953200	0.886600
C541	C54	0.826110	0.040600	0.474370
H361	H36	0.867800	0.016400	0.494800
C551	C55	0.742810	0.236100	0.651920
C561	C56	0.826600	0.202500	0.744690
H371	H37	0.865300	0.173400	0.767200
C571	C57	0.807600	0.178700	0.979630
H381	H38	0.849000	0.203400	0.000600
C581	C58	0.798480	0.084400	0.505120
H391	H39	0.820900	0.088600	0.545000
C591	C59	0.473480	0.354500	0.384420
H401	H40	0.456400	0.362500	0.344800
C601	C60	0.679090	0.002100	0.088440
C611	C61	0.706000	0.172700	0.505720
C621	C62	0.442730	0.881000	0.879670
H411	H41	0.423000	0.879800	0.839600
C631	C63	0.776800	0.017700	0.183740
H421	H42	0.801000	0.041200	0.165500
C641	C64	0.685850	0.108000	0.918530
H431	H43	0.644000	0.085100	0.896400
C651	C65	0.681980	0.050400	0.007180
C661	C66	0.710200	0.948200	0.240740
H441	H44	0.687300	0.924500	0.260000
C671	C67	0.736360	0.122000	0.475020
C681	C68	0.710730	0.992800	0.152110
C691	C69	0.704710	0.111700	0.415340
H451	H45	0.662900	0.135100	0.393800
C701	C70	0.715100	0.287800	0.678510
H461	H46	0.677300	0.318800	0.656700
C711	C71	0.744400	0.292900	0.737840
H471	H47	0.725500	0.328000	0.755300
C721	C72	0.801200	0.194500	0.685640
H481	H48	0.822700	0.162100	0.668900
N131	N13	0.412340	0.840100	0.907460
N141	N14	0.774100	0.972600	0.271800
N151	N15	0.779630	0.185230	0.921600
N161	N16	0.625830	0.009400	0.973380
N171	N17	0.621310	0.962000	0.058970
N181	N18	0.710460	0.048800	0.064880
N191	N19	0.796320	0.031100	0.416910
N201	N20	0.438860	0.385100	0.411840
N211	N21	0.799040	0.249400	0.771710
N221	N22	0.648060	0.210500	0.472920
N231	N23	0.653140	0.268300	0.559840
N241	N24	0.738480	0.177300	0.563330
Ag51	Ag5	0.177200	0.249590	0.632590
Ag61	Ag6	0.656520	0.457250	0.132330
C731	C73	0.997940	0.382700	0.503290
H491	H49	0.978500	0.381800	0.463200
C741	C74	0.967100	0.812000	0.088810
H501	H50	0.945600	0.790500	0.110000
C751	C75	0.876100	0.757500	0.997320
C761	C76	0.940220	0.802100	0.029540
C771	C77	0.722500	0.636900	0.490450
H511	H51	0.701700	0.633800	0.450400
C781	C78	0.764120	0.566700	0.111440
H521	H52	0.786000	0.560400	0.151200
C791	C79	0.780500	0.650500	0.607530
H531	H53	0.800700	0.655300	0.647500
C801	C80	0.057340	0.342400	0.534490
H541	H54	0.077700	0.315200	0.514400
C811	C81	0.902970	0.468600	0.498500
C821	C82	0.973970	0.836200	0.999880
H551	H55	0.956400	0.832000	0.960000
C831	C83	0.790310	0.726300	0.912080
C841	C84	0.033720	0.876100	0.030520
H561	H56	0.056300	0.897900	0.010400
C851	C85	0.967520	0.424700	0.532600
C861	C86	0.694200	0.506900	0.257110
H571	H57	0.650200	0.524300	0.236200
C871	C87	0.784780	0.599800	0.521870
C881	C88	0.822600	0.456700	0.318270
H581	H58	0.866600	0.438600	0.338200
C891	C89	0.998380	0.424500	0.592510
H591	H59	0.979800	0.453200	0.613400
C901	C90	0.673890	0.540600	0.025630
H601	H60	0.632200	0.516400	0.005200
C911	C91	0.757190	0.736100	0.848080
C921	C92	0.673400	0.702500	0.755310
H611	H61	0.634700	0.673400	0.732800
C931	C93	0.692400	0.678700	0.520370
H621	H62	0.651000	0.703400	0.499400
C941	C94	0.701520	0.584400	0.994880
H631	H63	0.679100	0.588600	0.955000
C951	C95	0.026520	0.854500	0.115580
H641	H64	0.043600	0.862500	0.155200
C961	C96	0.820910	0.502100	0.411560
C971	C97	0.794000	0.672700	0.994280
C981	C98	0.057270	0.381000	0.620330
H651	H65	0.077000	0.379800	0.660400
C991	C99	0.723200	0.517700	0.316260
H661	H66	0.699000	0.541200	0.334500
C1001	C100	0.814150	0.608000	0.581470
H671	H67	0.856000	0.585100	0.603600
C1011	C101	0.818020	0.550400	0.492820
C1021	C102	0.789800	0.448200	0.259260
H681	H68	0.812700	0.424500	0.240000
C1031	C103	0.763640	0.622000	0.024980
C1041	C104	0.789270	0.492800	0.347890
C1051	C105	0.795290	0.611700	0.084660
H691	H69	0.837100	0.635100	0.106200
C1061	C106	0.784900	0.787800	0.821490
H701	H70	0.822700	0.818800	0.843300
C1071	C107	0.755600	0.792900	0.762160
H711	H71	0.774500	0.828000	0.744700
C1081	C108	0.698800	0.694500	0.814360
H721	H72	0.677300	0.662100	0.831100
N251	N25	0.087660	0.340100	0.592540
N261	N26	0.725900	0.472600	0.228200
N271	N27	0.720370	0.685230	0.578400
N281	N28	0.874170	0.509400	0.526620
N291	N29	0.878690	0.462000	0.441030
N301	N30	0.789540	0.548800	0.435120
N311	N31	0.703680	0.531100	0.083090
N321	N32	0.061140	0.885100	0.088160
N331	N33	0.700960	0.749400	0.728290
N341	N34	0.851940	0.710500	0.027080
N351	N35	0.846860	0.768300	0.940160
N361	N36	0.761520	0.677300	0.936670
Ag71	Ag7	0.677200	0.749590	0.632590
Ag81	Ag8	0.156520	0.957250	0.132330
C1091	C109	0.497940	0.882700	0.503290
H731	H73	0.478500	0.881800	0.463200
C1101	C110	0.467100	0.312000	0.088810
H741	H74	0.445600	0.290500	0.110000
C1111	C111	0.376100	0.257500	0.997320
C1121	C112	0.440220	0.302100	0.029540
C1131	C113	0.222500	0.136900	0.490450
H751	H75	0.201700	0.133800	0.450400
C1141	C114	0.264120	0.066700	0.111440
H761	H76	0.286000	0.060400	0.151200
C1151	C115	0.280500	0.150500	0.607530
H771	H77	0.300700	0.155300	0.647500
C1161	C116	0.557340	0.842400	0.534490
H781	H78	0.577700	0.815200	0.514400
C1171	C117	0.402970	0.968600	0.498500
C1181	C118	0.473970	0.336200	0.999880
H791	H79	0.456400	0.332000	0.960000
C1191	C119	0.290310	0.226300	0.912080
C1201	C120	0.533720	0.376100	0.030520
H801	H80	0.556300	0.397900	0.010400
C1211	C121	0.467520	0.924700	0.532600
C1221	C122	0.194200	0.006900	0.257110
H811	H81	0.150200	0.024300	0.236200
C1231	C123	0.284780	0.099800	0.521870
C1241	C124	0.322600	0.956700	0.318270
H821	H82	0.366600	0.938600	0.338200
C1251	C125	0.498380	0.924500	0.592510
H831	H83	0.479800	0.953200	0.613400
C1261	C126	0.173890	0.040600	0.025630
H841	H84	0.132200	0.016400	0.005200
C1271	C127	0.257190	0.236100	0.848080
C1281	C128	0.173400	0.202500	0.755310
H851	H85	0.134700	0.173400	0.732800
C1291	C129	0.192400	0.178700	0.520370
H861	H86	0.151000	0.203400	0.499400
C1301	C130	0.201520	0.084400	0.994880
H871	H87	0.179100	0.088600	0.955000
C1311	C131	0.526520	0.354500	0.115580
H881	H88	0.543600	0.362500	0.155200
C1321	C132	0.320910	0.002100	0.411560
C1331	C133	0.294000	0.172700	0.994280
C1341	C134	0.557270	0.881000	0.620330
H891	H89	0.577000	0.879800	0.660400
C1351	C135	0.223200	0.017700	0.316260
H901	H90	0.199000	0.041200	0.334500
C1361	C136	0.314150	0.108000	0.581470
H911	H91	0.356000	0.085100	0.603600
C1371	C137	0.318020	0.050400	0.492820
C1381	C138	0.289800	0.948200	0.259260
H921	H92	0.312700	0.924500	0.240000
C1391	C139	0.263640	0.122000	0.024980
C1401	C140	0.289270	0.992800	0.347890
C1411	C141	0.295290	0.111700	0.084660
H931	H93	0.337100	0.135100	0.106200
C1421	C142	0.284900	0.287800	0.821490
H941	H94	0.322700	0.318800	0.843300
C1431	C143	0.255600	0.292900	0.762160
H951	H95	0.274500	0.328000	0.744700
C1441	C144	0.198800	0.194500	0.814360
H961	H96	0.177300	0.162100	0.831100
N371	N37	0.587660	0.840100	0.592540
N381	N38	0.225900	0.972600	0.228200
N391	N39	0.220370	0.185230	0.578400
N401	N40	0.374170	0.009400	0.526620
N411	N41	0.378690	0.962000	0.441030
N421	N42	0.289540	0.048800	0.435120
N431	N43	0.203680	0.031100	0.083090
N441	N44	0.561140	0.385100	0.088160
N451	N45	0.200960	0.249400	0.728290
N461	N46	0.351940	0.210500	0.027080
N471	N47	0.346860	0.268300	0.940160
N481	N48	0.261520	0.177300	0.936670
Ag91	Ag9	0.177200	0.750410	0.132590
Ag101	Ag10	0.656520	0.542750	0.632330
C1451	C145	0.997940	0.617300	0.003290
H971	H97	0.978500	0.618200	0.963200
C1461	C146	0.967100	0.188000	0.588810
H981	H98	0.945600	0.209500	0.610000
C1471	C147	0.876100	0.242500	0.497320
C1481	C148	0.940220	0.197900	0.529540
C1491	C149	0.722500	0.363100	0.990450
H991	H99	0.701700	0.366200	0.950400
C1501	C150	0.764120	0.433300	0.611440
H1001	H100	0.786000	0.439600	0.651200
C1511	C151	0.780500	0.349500	0.107530
H1011	H101	0.800700	0.344700	0.147500
C1521	C152	0.057340	0.657600	0.034490
H1021	H102	0.077700	0.684800	0.014400
C1531	C153	0.902970	0.531400	0.998500
C1541	C154	0.973970	0.163800	0.499880
H1031	H103	0.956400	0.168000	0.460000
C1551	C155	0.790310	0.273700	0.412080
C1561	C156	0.033720	0.123900	0.530520
H1041	H104	0.056300	0.102100	0.510400
C1571	C157	0.967520	0.575300	0.032600
C1581	C158	0.694200	0.493100	0.757110
H1051	H105	0.650200	0.475700	0.736200
C1591	C159	0.784780	0.400200	0.021870
C1601	C160	0.822600	0.543300	0.818270
H1061	H106	0.866600	0.561400	0.838200
C1611	C161	0.998380	0.575500	0.092510
H1071	H107	0.979800	0.546800	0.113400
C1621	C162	0.673890	0.459400	0.525630
H1081	H108	0.632200	0.483600	0.505200
C1631	C163	0.757190	0.263900	0.348080
C1641	C164	0.673400	0.297500	0.255310
H1091	H109	0.634700	0.326600	0.232800
C1651	C165	0.692400	0.321300	0.020370
H1101	H110	0.651000	0.296600	0.999400
C1661	C166	0.701520	0.415600	0.494880
H1111	H111	0.679100	0.411400	0.455000
C1671	C167	0.026520	0.145500	0.615580
H1121	H112	0.043600	0.137500	0.655200
C1681	C168	0.820910	0.497900	0.911560
C1691	C169	0.794000	0.327300	0.494280
C1701	C170	0.057270	0.619000	0.120330
H1131	H113	0.077000	0.620200	0.160400
C1711	C171	0.723200	0.482300	0.816260
H1141	H114	0.699000	0.458800	0.834500
C1721	C172	0.814150	0.392000	0.081470
H1151	H115	0.856000	0.414900	0.103600
C1731	C173	0.818020	0.449600	0.992820
C1741	C174	0.789800	0.551800	0.759260
H1161	H116	0.812700	0.575500	0.740000
C1751	C175	0.763640	0.378000	0.524980
C1761	C176	0.789270	0.507200	0.847890
C1771	C177	0.795290	0.388300	0.584660
H1171	H117	0.837100	0.364900	0.606200
C1781	C178	0.784900	0.212200	0.321490
H1181	H118	0.822700	0.181200	0.343300
C1791	C179	0.755600	0.207100	0.262160
H1191	H119	0.774500	0.172000	0.244700
C1801	C180	0.698800	0.305500	0.314360
H1201	H120	0.677300	0.337900	0.331100
N491	N49	0.087660	0.659900	0.092540
N501	N50	0.725900	0.527400	0.728200
N511	N51	0.720370	0.314770	0.078400
N521	N52	0.874170	0.490600	0.026620
N531	N53	0.878690	0.538000	0.941030
N541	N54	0.789540	0.451200	0.935120
N551	N55	0.703680	0.468900	0.583090
N561	N56	0.061140	0.114900	0.588160
N571	N57	0.700960	0.250600	0.228290
N581	N58	0.851940	0.289500	0.527080
N591	N59	0.846860	0.231700	0.440160
N601	N60	0.761520	0.322700	0.436670
Ag111	Ag11	0.677200	0.250410	0.132590
Ag121	Ag12	0.156520	0.042750	0.632330
C1811	C181	0.497940	0.117300	0.003290
H1211	H121	0.478500	0.118200	0.963200
C1821	C182	0.467100	0.688000	0.588810
H1221	H122	0.445600	0.709500	0.610000
C1831	C183	0.376100	0.742500	0.497320
C1841	C184	0.440220	0.697900	0.529540
C1851	C185	0.222500	0.863100	0.990450
H1231	H123	0.201700	0.866200	0.950400
C1861	C186	0.264120	0.933300	0.611440
H1241	H124	0.286000	0.939600	0.651200
C1871	C187	0.280500	0.849500	0.107530
H1251	H125	0.300700	0.844700	0.147500
C1881	C188	0.557340	0.157600	0.034490
H1261	H126	0.577700	0.184800	0.014400
C1891	C189	0.402970	0.031400	0.998500
C1901	C190	0.473970	0.663800	0.499880
H1271	H127	0.456400	0.668000	0.460000
C1911	C191	0.290310	0.773700	0.412080
C1921	C192	0.533720	0.623900	0.530520
H1281	H128	0.556300	0.602100	0.510400
C1931	C193	0.467520	0.075300	0.032600
C1941	C194	0.194200	0.993100	0.757110
H1291	H129	0.150200	0.975700	0.736200
C1951	C195	0.284780	0.900200	0.021870
C1961	C196	0.322600	0.043300	0.818270
H1301	H130	0.366600	0.061400	0.838200
C1971	C197	0.498380	0.075500	0.092510
H1311	H131	0.479800	0.046800	0.113400
C1981	C198	0.173890	0.959400	0.525630
H1321	H132	0.132200	0.983600	0.505200
C1991	C199	0.257190	0.763900	0.348080
C2001	C200	0.173400	0.797500	0.255310
H1331	H133	0.134700	0.826600	0.232800
C2011	C201	0.192400	0.821300	0.020370
H1341	H134	0.151000	0.796600	0.999400
C2021	C202	0.201520	0.915600	0.494880
H1351	H135	0.179100	0.911400	0.455000
C2031	C203	0.526520	0.645500	0.615580
H1361	H136	0.543600	0.637500	0.655200
C2041	C204	0.320910	0.997900	0.911560
C2051	C205	0.294000	0.827300	0.494280
C2061	C206	0.557270	0.119000	0.120330
H1371	H137	0.577000	0.120200	0.160400
C2071	C207	0.223200	0.982300	0.816260
H1381	H138	0.199000	0.958800	0.834500
C2081	C208	0.314150	0.892000	0.081470
H1391	H139	0.356000	0.914900	0.103600
C2091	C209	0.318020	0.949600	0.992820
C2101	C210	0.289800	0.051800	0.759260
H1401	H140	0.312700	0.075500	0.740000
C2111	C211	0.263640	0.878000	0.524980
C2121	C212	0.289270	0.007200	0.847890
C2131	C213	0.295290	0.888300	0.584660
H1411	H141	0.337100	0.864900	0.606200
C2141	C214	0.284900	0.712200	0.321490
H1421	H142	0.322700	0.681200	0.343300
C2151	C215	0.255600	0.707100	0.262160
H1431	H143	0.274500	0.672000	0.244700
C2161	C216	0.198800	0.805500	0.314360
H1441	H144	0.177300	0.837900	0.331100
N611	N61	0.587660	0.159900	0.092540
N621	N62	0.225900	0.027400	0.728200
N631	N63	0.220370	0.814770	0.078400
N641	N64	0.374170	0.990600	0.026620
N651	N65	0.378690	0.038000	0.941030
N661	N66	0.289540	0.951200	0.935120
N671	N67	0.203680	0.968900	0.583090
N681	N68	0.561140	0.614900	0.588160
N691	N69	0.200960	0.750600	0.228290
N701	N70	0.351940	0.789500	0.527080
N711	N71	0.346860	0.731700	0.440160
N721	N72	0.261520	0.822700	0.436670
Ag131	Ag13	0.822800	0.750410	0.367410
Ag141	Ag14	0.343480	0.542750	0.867670
C2171	C217	0.002060	0.617300	0.496710
H1451	H145	0.021500	0.618200	0.536800
C2181	C218	0.032900	0.188000	0.911190
H1461	H146	0.054400	0.209500	0.890000
C2191	C219	0.123900	0.242500	0.002680
C2201	C220	0.059780	0.197900	0.970460
C2211	C221	0.277500	0.363100	0.509550
H1471	H147	0.298300	0.366200	0.549600
C2221	C222	0.235880	0.433300	0.888560
H1481	H148	0.214000	0.439600	0.848800
C2231	C223	0.219500	0.349500	0.392470
H1491	H149	0.199300	0.344700	0.352500
C2241	C224	0.942660	0.657600	0.465510
H1501	H150	0.922300	0.684800	0.485600
C2251	C225	0.097030	0.531400	0.501500
C2261	C226	0.026030	0.163800	0.000120
H1511	H151	0.043600	0.168000	0.040000
C2271	C227	0.209690	0.273700	0.087920
C2281	C228	0.966280	0.123900	0.969480
H1521	H152	0.943700	0.102100	0.989600
C2291	C229	0.032480	0.575300	0.467400
C2301	C230	0.305800	0.493100	0.742890
H1531	H153	0.349800	0.475700	0.763800
C2311	C231	0.215220	0.400200	0.478130
C2321	C232	0.177400	0.543300	0.681730
H1541	H154	0.133400	0.561400	0.661800
C2331	C233	0.001620	0.575500	0.407490
H1551	H155	0.020200	0.546800	0.386600
C2341	C234	0.326110	0.459400	0.974370
H1561	H156	0.367800	0.483600	0.994800
C2351	C235	0.242810	0.263900	0.151920
C2361	C236	0.326600	0.297500	0.244690
H1571	H157	0.365300	0.326600	0.267200
C2371	C237	0.307600	0.321300	0.479630
H1581	H158	0.349000	0.296600	0.500600
C2381	C238	0.298480	0.415600	0.005120
H1591	H159	0.320900	0.411400	0.045000
C2391	C239	0.973480	0.145500	0.884420
H1601	H160	0.956400	0.137500	0.844800
C2401	C240	0.179090	0.497900	0.588440
C2411	C241	0.206000	0.327300	0.005720
C2421	C242	0.942730	0.619000	0.379670
H1611	H161	0.923000	0.620200	0.339600
C2431	C243	0.276800	0.482300	0.683740
H1621	H162	0.301000	0.458800	0.665500
C2441	C244	0.185850	0.392000	0.418530
H1631	H163	0.144000	0.414900	0.396400
C2451	C245	0.181980	0.449600	0.507180
C2461	C246	0.210200	0.551800	0.740740
H1641	H164	0.187300	0.575500	0.760000
C2471	C247	0.236360	0.378000	0.975020
C2481	C248	0.210730	0.507200	0.652110
C2491	C249	0.204710	0.388300	0.915340
H1651	H165	0.162900	0.364900	0.893800
C2501	C250	0.215100	0.212200	0.178510
H1661	H166	0.177300	0.181200	0.156700
C2511	C251	0.244400	0.207100	0.237840
H1671	H167	0.225500	0.172000	0.255300
C2521	C252	0.301200	0.305500	0.185640
H1681	H168	0.322700	0.337900	0.168900
N731	N73	0.912340	0.659900	0.407460
N741	N74	0.274100	0.527400	0.771800
N751	N75	0.279630	0.314770	0.421600
N761	N76	0.125830	0.490600	0.473380
N771	N77	0.121310	0.538000	0.558970
N781	N78	0.210460	0.451200	0.564880
N791	N79	0.296320	0.468900	0.916910
N801	N80	0.938860	0.114900	0.911840
N811	N81	0.299040	0.250600	0.271710
N821	N82	0.148060	0.289500	0.972920
N831	N83	0.153140	0.231700	0.059840
N841	N84	0.238480	0.322700	0.063330
Ag151	Ag15	0.322800	0.250410	0.367410
Ag161	Ag16	0.843480	0.042750	0.867670
C2531	C253	0.502060	0.117300	0.496710
H1691	H169	0.521500	0.118200	0.536800
C2541	C254	0.532900	0.688000	0.911190
H1701	H170	0.554400	0.709500	0.890000
C2551	C255	0.623900	0.742500	0.002680
C2561	C256	0.559780	0.697900	0.970460
C2571	C257	0.777500	0.863100	0.509550
H1711	H171	0.798300	0.866200	0.549600
C2581	C258	0.735880	0.933300	0.888560
H1721	H172	0.714000	0.939600	0.848800
C2591	C259	0.719500	0.849500	0.392470
H1731	H173	0.699300	0.844700	0.352500
C2601	C260	0.442660	0.157600	0.465510
H1741	H174	0.422300	0.184800	0.485600
C2611	C261	0.597030	0.031400	0.501500
C2621	C262	0.526030	0.663800	0.000120
H1751	H175	0.543600	0.668000	0.040000
C2631	C263	0.709690	0.773700	0.087920
C2641	C264	0.466280	0.623900	0.969480
H1761	H176	0.443700	0.602100	0.989600
C2651	C265	0.532480	0.075300	0.467400
C2661	C266	0.805800	0.993100	0.742890
H1771	H177	0.849800	0.975700	0.763800
C2671	C267	0.715220	0.900200	0.478130
C2681	C268	0.677400	0.043300	0.681730
H1781	H178	0.633400	0.061400	0.661800
C2691	C269	0.501620	0.075500	0.407490
H1791	H179	0.520200	0.046800	0.386600
C2701	C270	0.826110	0.959400	0.974370
H1801	H180	0.867800	0.983600	0.994800
C2711	C271	0.742810	0.763900	0.151920
C2721	C272	0.826600	0.797500	0.244690
H1811	H181	0.865300	0.826600	0.267200
C2731	C273	0.807600	0.821300	0.479630
H1821	H182	0.849000	0.796600	0.500600
C2741	C274	0.798480	0.915600	0.005120
H1831	H183	0.820900	0.911400	0.045000
C2751	C275	0.473480	0.645500	0.884420
H1841	H184	0.456400	0.637500	0.844800
C2761	C276	0.679090	0.997900	0.588440
C2771	C277	0.706000	0.827300	0.005720
C2781	C278	0.442730	0.119000	0.379670
H1851	H185	0.423000	0.120200	0.339600
C2791	C279	0.776800	0.982300	0.683740
H1861	H186	0.801000	0.958800	0.665500
C2801	C280	0.685850	0.892000	0.418530
H1871	H187	0.644000	0.914900	0.396400
C2811	C281	0.681980	0.949600	0.507180
C2821	C282	0.710200	0.051800	0.740740
H1881	H188	0.687300	0.075500	0.760000
C2831	C283	0.736360	0.878000	0.975020
C2841	C284	0.710730	0.007200	0.652110
C2851	C285	0.704710	0.888300	0.915340
H1891	H189	0.662900	0.864900	0.893800
C2861	C286	0.715100	0.712200	0.178510
H1901	H190	0.677300	0.681200	0.156700
C2871	C287	0.744400	0.707100	0.237840
H1911	H191	0.725500	0.672000	0.255300
C2881	C288	0.801200	0.805500	0.185640
H1921	H192	0.822700	0.837900	0.168900
N851	N85	0.412340	0.159900	0.407460
N861	N86	0.774100	0.027400	0.771800
N871	N87	0.779630	0.814770	0.421600
N881	N88	0.625830	0.990600	0.473380
N891	N89	0.621310	0.038000	0.558970
N901	N90	0.710460	0.951200	0.564880
N911	N91	0.796320	0.968900	0.916910
N921	N92	0.438860	0.614900	0.911840
N931	N93	0.799040	0.750600	0.271710
N941	N94	0.648060	0.789500	0.972920
N951	N95	0.653140	0.731700	0.059840
N961	N96	0.738480	0.822700	0.063330
