data_QOFBIY01_clean_PM
_symmetry_space_group_name_H-M	'P1'
_cell_length_a	22.060000
_cell_length_b	16.347200
_cell_length_c	25.677000
_cell_angle_alpha	90.000000
_cell_angle_beta	115.392000
_cell_angle_gamma	90.000000
_symmetry_Int_Tables_number 1

loop_
_symmetry_equiv_pos_as_xyz
'x,y,z'

loop_
_atom_site_label
_atom_site_type_symbol
_atom_site_fract_x
_atom_site_fract_y
_atom_site_fract_z
Ag11	Ag1	0.343700	0.042360	0.367830
N11	N1	0.439140	0.115000	0.411980
N21	N2	0.796280	0.469080	0.417150
N31	N3	0.274580	0.027000	0.271970
C11	C1	0.466590	0.123700	0.469830
C21	C2	0.473360	0.145500	0.384510
C31	C3	0.526260	0.164000	0.500170
H11	H1	0.444200	0.101600	0.490100
C41	C4	0.533090	0.188400	0.411430
H21	H2	0.456200	0.137600	0.344900
C51	C5	0.559950	0.197800	0.470580
H31	H3	0.543800	0.168500	0.540100
H41	H4	0.554500	0.210200	0.390300
C61	C6	0.624150	0.243000	0.502660
N41	N4	0.647950	0.289100	0.472970
N51	N5	0.653260	0.231400	0.559860
C71	C7	0.706140	0.327400	0.505610
C81	C8	0.709800	0.273500	0.587740
C91	C9	0.736290	0.377800	0.475030
N61	N6	0.738500	0.322770	0.563300
C101	C10	0.742920	0.263300	0.651840
C111	C11	0.798540	0.415900	0.505370
C121	C12	0.704680	0.388800	0.415520
C131	C13	0.715270	0.211800	0.678600
C141	C14	0.801450	0.305500	0.685460
H51	H5	0.820800	0.412100	0.545300
C151	C15	0.826010	0.459200	0.474370
C161	C16	0.735760	0.433200	0.388500
H61	H6	0.662600	0.366100	0.394100
H71	H7	0.677300	0.181100	0.656900
C171	C17	0.744940	0.206800	0.737870
C181	C18	0.826800	0.297100	0.744750
H81	H8	0.822800	0.338200	0.668800
H91	H9	0.867900	0.483100	0.494700
H101	H10	0.714100	0.438800	0.348600
H111	H11	0.726300	0.171400	0.755400
N71	N7	0.799220	0.250300	0.771620
H121	H12	0.865600	0.325900	0.767400
Ag21	Ag2	0.822920	0.250160	0.867490
N81	N8	0.912780	0.159700	0.907820
N91	N9	0.279810	0.814580	0.921770
C191	C19	0.942930	0.157700	0.965800
C201	C20	0.942990	0.119000	0.879720
C211	C21	0.002290	0.117200	0.996770
H131	H13	0.922600	0.185000	0.985900
C221	C22	0.001890	0.075100	0.907600
H141	H14	0.923300	0.120400	0.839600
H151	H15	0.021900	0.118000	0.036900
C231	C23	0.032500	0.075200	0.967250
H161	H16	0.020400	0.046200	0.886700
C241	C24	0.097190	0.030800	0.001410
N101	N10	0.126020	0.990400	0.973250
N111	N11	0.121660	0.037760	0.059300
C251	C25	0.181970	0.949300	0.007240
C261	C26	0.179460	0.997900	0.088650
C271	C27	0.215060	0.900000	0.978040
N121	N12	0.210710	0.950900	0.064790
C281	C28	0.210980	0.007300	0.152240
C291	C29	0.277660	0.862600	0.009500
C301	C30	0.186130	0.891900	0.918590
C311	C31	0.177630	0.042900	0.181620
C321	C32	0.277210	0.981800	0.183920
H171	H17	0.298500	0.865300	0.049500
C331	C33	0.307550	0.821700	0.979510
C341	C34	0.219420	0.849600	0.892670
H181	H18	0.144400	0.914900	0.896400
H191	H19	0.133600	0.060600	0.161700
C351	C35	0.210510	0.051600	0.240650
C361	C36	0.305830	0.993200	0.242880
H201	H20	0.301300	0.957900	0.165800
H211	H21	0.349200	0.797700	0.000500
H221	H22	0.199100	0.845000	0.852700
H231	H23	0.187600	0.075500	0.259800
H241	H24	0.350000	0.976100	0.263800
Ag31	Ag3	0.843700	0.542360	0.367830
N131	N13	0.939140	0.615000	0.411980
N141	N14	0.296280	0.969080	0.417150
N151	N15	0.774580	0.527000	0.271970
C371	C37	0.966590	0.623700	0.469830
C381	C38	0.973360	0.645500	0.384510
C391	C39	0.026260	0.664000	0.500170
H251	H25	0.944200	0.601600	0.490100
C401	C40	0.033090	0.688400	0.411430
H261	H26	0.956200	0.637600	0.344900
C411	C41	0.059950	0.697800	0.470580
H271	H27	0.043800	0.668500	0.540100
H281	H28	0.054500	0.710200	0.390300
C421	C42	0.124150	0.743000	0.502660
N161	N16	0.147950	0.789100	0.472970
N171	N17	0.153260	0.731400	0.559860
C431	C43	0.206140	0.827400	0.505610
C441	C44	0.209800	0.773500	0.587740
C451	C45	0.236290	0.877800	0.475030
N181	N18	0.238500	0.822770	0.563300
C461	C46	0.242920	0.763300	0.651840
C471	C47	0.298540	0.915900	0.505370
C481	C48	0.204680	0.888800	0.415520
C491	C49	0.215270	0.711800	0.678600
C501	C50	0.301450	0.805500	0.685460
H291	H29	0.320800	0.912100	0.545300
C511	C51	0.326010	0.959200	0.474370
C521	C52	0.235760	0.933200	0.388500
H301	H30	0.162600	0.866100	0.394100
H311	H31	0.177300	0.681100	0.656900
C531	C53	0.244940	0.706800	0.737870
C541	C54	0.326800	0.797100	0.744750
H321	H32	0.322800	0.838200	0.668800
H331	H33	0.367900	0.983100	0.494700
H341	H34	0.214100	0.938800	0.348600
H351	H35	0.226300	0.671400	0.755400
N191	N19	0.299220	0.750300	0.771620
H361	H36	0.365600	0.825900	0.767400
Ag41	Ag4	0.322920	0.750160	0.867490
N201	N20	0.412780	0.659700	0.907820
N211	N21	0.779810	0.314580	0.921770
C551	C55	0.442930	0.657700	0.965800
C561	C56	0.442990	0.619000	0.879720
C571	C57	0.502290	0.617200	0.996770
H371	H37	0.422600	0.685000	0.985900
C581	C58	0.501890	0.575100	0.907600
H381	H38	0.423300	0.620400	0.839600
H391	H39	0.521900	0.618000	0.036900
C591	C59	0.532500	0.575200	0.967250
H401	H40	0.520400	0.546200	0.886700
C601	C60	0.597190	0.530800	0.001410
N221	N22	0.626020	0.490400	0.973250
N231	N23	0.621660	0.537760	0.059300
C611	C61	0.681970	0.449300	0.007240
C621	C62	0.679460	0.497900	0.088650
C631	C63	0.715060	0.400000	0.978040
N241	N24	0.710710	0.450900	0.064790
C641	C64	0.710980	0.507300	0.152240
C651	C65	0.777660	0.362600	0.009500
C661	C66	0.686130	0.391900	0.918590
C671	C67	0.677630	0.542900	0.181620
C681	C68	0.777210	0.481800	0.183920
H411	H41	0.798500	0.365300	0.049500
C691	C69	0.807550	0.321700	0.979510
C701	C70	0.719420	0.349600	0.892670
H421	H42	0.644400	0.414900	0.896400
H431	H43	0.633600	0.560600	0.161700
C711	C71	0.710510	0.551600	0.240650
C721	C72	0.805830	0.493200	0.242880
H441	H44	0.801300	0.457900	0.165800
H451	H45	0.849200	0.297700	0.000500
H461	H46	0.699100	0.345000	0.852700
H471	H47	0.687600	0.575500	0.259800
H481	H48	0.850000	0.476100	0.263800
Ag51	Ag5	0.656300	0.042360	0.132170
N251	N25	0.560860	0.115000	0.088020
N261	N26	0.203720	0.469080	0.082850
N271	N27	0.725420	0.027000	0.228030
C731	C73	0.533410	0.123700	0.030170
C741	C74	0.526640	0.145500	0.115490
C751	C75	0.473740	0.164000	0.999830
H491	H49	0.555800	0.101600	0.009900
C761	C76	0.466910	0.188400	0.088570
H501	H50	0.543800	0.137600	0.155100
C771	C77	0.440050	0.197800	0.029420
H511	H51	0.456200	0.168500	0.959900
H521	H52	0.445500	0.210200	0.109700
C781	C78	0.375850	0.243000	0.997340
N281	N28	0.352050	0.289100	0.027030
N291	N29	0.346740	0.231400	0.940140
C791	C79	0.293860	0.327400	0.994390
C801	C80	0.290200	0.273500	0.912260
C811	C81	0.263710	0.377800	0.024970
N301	N30	0.261500	0.322770	0.936700
C821	C82	0.257080	0.263300	0.848160
C831	C83	0.201460	0.415900	0.994630
C841	C84	0.295320	0.388800	0.084480
C851	C85	0.284730	0.211800	0.821400
C861	C86	0.198550	0.305500	0.814540
H531	H53	0.179200	0.412100	0.954700
C871	C87	0.173990	0.459200	0.025630
C881	C88	0.264240	0.433200	0.111500
H541	H54	0.337400	0.366100	0.105900
H551	H55	0.322700	0.181100	0.843100
C891	C89	0.255060	0.206800	0.762130
C901	C90	0.173200	0.297100	0.755250
H561	H56	0.177200	0.338200	0.831200
H571	H57	0.132100	0.483100	0.005300
H581	H58	0.285900	0.438800	0.151400
H591	H59	0.273700	0.171400	0.744600
N311	N31	0.200780	0.250300	0.728380
H601	H60	0.134400	0.325900	0.732600
Ag61	Ag6	0.177080	0.250160	0.632510
N321	N32	0.087220	0.159700	0.592180
N331	N33	0.720190	0.814580	0.578230
C911	C91	0.057070	0.157700	0.534200
C921	C92	0.057010	0.119000	0.620280
C931	C93	0.997710	0.117200	0.503230
H611	H61	0.077400	0.185000	0.514100
C941	C94	0.998110	0.075100	0.592400
H621	H62	0.076700	0.120400	0.660400
H631	H63	0.978100	0.118000	0.463100
C951	C95	0.967500	0.075200	0.532750
H641	H64	0.979600	0.046200	0.613300
C961	C96	0.902810	0.030800	0.498590
N341	N34	0.873980	0.990400	0.526750
N351	N35	0.878340	0.037760	0.440700
C971	C97	0.818030	0.949300	0.492760
C981	C98	0.820540	0.997900	0.411350
C991	C99	0.784940	0.900000	0.521960
N361	N36	0.789290	0.950900	0.435210
C1001	C100	0.789020	0.007300	0.347760
C1011	C101	0.722340	0.862600	0.490500
C1021	C102	0.813870	0.891900	0.581410
C1031	C103	0.822370	0.042900	0.318380
C1041	C104	0.722790	0.981800	0.316080
H651	H65	0.701500	0.865300	0.450500
C1051	C105	0.692450	0.821700	0.520490
C1061	C106	0.780580	0.849600	0.607330
H661	H66	0.855600	0.914900	0.603600
H671	H67	0.866400	0.060600	0.338300
C1071	C107	0.789490	0.051600	0.259350
C1081	C108	0.694170	0.993200	0.257120
H681	H68	0.698700	0.957900	0.334200
H691	H69	0.650800	0.797700	0.499500
H701	H70	0.800900	0.845000	0.647300
H711	H71	0.812400	0.075500	0.240200
H721	H72	0.650000	0.976100	0.236200
Ag71	Ag7	0.156300	0.542360	0.132170
N371	N37	0.060860	0.615000	0.088020
N381	N38	0.703720	0.969080	0.082850
N391	N39	0.225420	0.527000	0.228030
C1091	C109	0.033410	0.623700	0.030170
C1101	C110	0.026640	0.645500	0.115490
C1111	C111	0.973740	0.664000	0.999830
H731	H73	0.055800	0.601600	0.009900
C1121	C112	0.966910	0.688400	0.088570
H741	H74	0.043800	0.637600	0.155100
C1131	C113	0.940050	0.697800	0.029420
H751	H75	0.956200	0.668500	0.959900
H761	H76	0.945500	0.710200	0.109700
C1141	C114	0.875850	0.743000	0.997340
N401	N40	0.852050	0.789100	0.027030
N411	N41	0.846740	0.731400	0.940140
C1151	C115	0.793860	0.827400	0.994390
C1161	C116	0.790200	0.773500	0.912260
C1171	C117	0.763710	0.877800	0.024970
N421	N42	0.761500	0.822770	0.936700
C1181	C118	0.757080	0.763300	0.848160
C1191	C119	0.701460	0.915900	0.994630
C1201	C120	0.795320	0.888800	0.084480
C1211	C121	0.784730	0.711800	0.821400
C1221	C122	0.698550	0.805500	0.814540
H771	H77	0.679200	0.912100	0.954700
C1231	C123	0.673990	0.959200	0.025630
C1241	C124	0.764240	0.933200	0.111500
H781	H78	0.837400	0.866100	0.105900
H791	H79	0.822700	0.681100	0.843100
C1251	C125	0.755060	0.706800	0.762130
C1261	C126	0.673200	0.797100	0.755250
H801	H80	0.677200	0.838200	0.831200
H811	H81	0.632100	0.983100	0.005300
H821	H82	0.785900	0.938800	0.151400
H831	H83	0.773700	0.671400	0.744600
N431	N43	0.700780	0.750300	0.728380
H841	H84	0.634400	0.825900	0.732600
Ag81	Ag8	0.677080	0.750160	0.632510
N441	N44	0.587220	0.659700	0.592180
N451	N45	0.220190	0.314580	0.578230
C1271	C127	0.557070	0.657700	0.534200
C1281	C128	0.557010	0.619000	0.620280
C1291	C129	0.497710	0.617200	0.503230
H851	H85	0.577400	0.685000	0.514100
C1301	C130	0.498110	0.575100	0.592400
H861	H86	0.576700	0.620400	0.660400
H871	H87	0.478100	0.618000	0.463100
C1311	C131	0.467500	0.575200	0.532750
H881	H88	0.479600	0.546200	0.613300
C1321	C132	0.402810	0.530800	0.498590
N461	N46	0.373980	0.490400	0.526750
N471	N47	0.378340	0.537760	0.440700
C1331	C133	0.318030	0.449300	0.492760
C1341	C134	0.320540	0.497900	0.411350
C1351	C135	0.284940	0.400000	0.521960
N481	N48	0.289290	0.450900	0.435210
C1361	C136	0.289020	0.507300	0.347760
C1371	C137	0.222340	0.362600	0.490500
C1381	C138	0.313870	0.391900	0.581410
C1391	C139	0.322370	0.542900	0.318380
C1401	C140	0.222790	0.481800	0.316080
H891	H89	0.201500	0.365300	0.450500
C1411	C141	0.192450	0.321700	0.520490
C1421	C142	0.280580	0.349600	0.607330
H901	H90	0.355600	0.414900	0.603600
H911	H91	0.366400	0.560600	0.338300
C1431	C143	0.289490	0.551600	0.259350
C1441	C144	0.194170	0.493200	0.257120
H921	H92	0.198700	0.457900	0.334200
H931	H93	0.150800	0.297700	0.499500
H941	H94	0.300900	0.345000	0.647300
H951	H95	0.312400	0.575500	0.240200
H961	H96	0.150000	0.476100	0.236200
Ag91	Ag9	0.656300	0.957640	0.632170
N491	N49	0.560860	0.885000	0.588020
N501	N50	0.203720	0.530920	0.582850
N511	N51	0.725420	0.973000	0.728030
C1451	C145	0.533410	0.876300	0.530170
C1461	C146	0.526640	0.854500	0.615490
C1471	C147	0.473740	0.836000	0.499830
H971	H97	0.555800	0.898400	0.509900
C1481	C148	0.466910	0.811600	0.588570
H981	H98	0.543800	0.862400	0.655100
C1491	C149	0.440050	0.802200	0.529420
H991	H99	0.456200	0.831500	0.459900
H1001	H100	0.445500	0.789800	0.609700
C1501	C150	0.375850	0.757000	0.497340
N521	N52	0.352050	0.710900	0.527030
N531	N53	0.346740	0.768600	0.440140
C1511	C151	0.293860	0.672600	0.494390
C1521	C152	0.290200	0.726500	0.412260
C1531	C153	0.263710	0.622200	0.524970
N541	N54	0.261500	0.677230	0.436700
C1541	C154	0.257080	0.736700	0.348160
C1551	C155	0.201460	0.584100	0.494630
C1561	C156	0.295320	0.611200	0.584480
C1571	C157	0.284730	0.788200	0.321400
C1581	C158	0.198550	0.694500	0.314540
H1011	H101	0.179200	0.587900	0.454700
C1591	C159	0.173990	0.540800	0.525630
C1601	C160	0.264240	0.566800	0.611500
H1021	H102	0.337400	0.633900	0.605900
H1031	H103	0.322700	0.818900	0.343100
C1611	C161	0.255060	0.793200	0.262130
C1621	C162	0.173200	0.702900	0.255250
H1041	H104	0.177200	0.661800	0.331200
H1051	H105	0.132100	0.516900	0.505300
H1061	H106	0.285900	0.561200	0.651400
H1071	H107	0.273700	0.828600	0.244600
N551	N55	0.200780	0.749700	0.228380
H1081	H108	0.134400	0.674100	0.232600
Ag101	Ag10	0.177080	0.749840	0.132510
N561	N56	0.087220	0.840300	0.092180
N571	N57	0.720190	0.185420	0.078230
C1631	C163	0.057070	0.842300	0.034200
C1641	C164	0.057010	0.881000	0.120280
C1651	C165	0.997710	0.882800	0.003230
H1091	H109	0.077400	0.815000	0.014100
C1661	C166	0.998110	0.924900	0.092400
H1101	H110	0.076700	0.879600	0.160400
H1111	H111	0.978100	0.882000	0.963100
C1671	C167	0.967500	0.924800	0.032750
H1121	H112	0.979600	0.953800	0.113300
C1681	C168	0.902810	0.969200	0.998590
N581	N58	0.873980	0.009600	0.026750
N591	N59	0.878340	0.962240	0.940700
C1691	C169	0.818030	0.050700	0.992760
C1701	C170	0.820540	0.002100	0.911350
C1711	C171	0.784940	0.100000	0.021960
N601	N60	0.789290	0.049100	0.935210
C1721	C172	0.789020	0.992700	0.847760
C1731	C173	0.722340	0.137400	0.990500
C1741	C174	0.813870	0.108100	0.081410
C1751	C175	0.822370	0.957100	0.818380
C1761	C176	0.722790	0.018200	0.816080
H1131	H113	0.701500	0.134700	0.950500
C1771	C177	0.692450	0.178300	0.020490
C1781	C178	0.780580	0.150400	0.107330
H1141	H114	0.855600	0.085100	0.103600
H1151	H115	0.866400	0.939400	0.838300
C1791	C179	0.789490	0.948400	0.759350
C1801	C180	0.694170	0.006800	0.757120
H1161	H116	0.698700	0.042100	0.834200
H1171	H117	0.650800	0.202300	0.999500
H1181	H118	0.800900	0.155000	0.147300
H1191	H119	0.812400	0.924500	0.740200
H1201	H120	0.650000	0.023900	0.736200
Ag111	Ag11	0.156300	0.457640	0.632170
N611	N61	0.060860	0.385000	0.588020
N621	N62	0.703720	0.030920	0.582850
N631	N63	0.225420	0.473000	0.728030
C1811	C181	0.033410	0.376300	0.530170
C1821	C182	0.026640	0.354500	0.615490
C1831	C183	0.973740	0.336000	0.499830
H1211	H121	0.055800	0.398400	0.509900
C1841	C184	0.966910	0.311600	0.588570
H1221	H122	0.043800	0.362400	0.655100
C1851	C185	0.940050	0.302200	0.529420
H1231	H123	0.956200	0.331500	0.459900
H1241	H124	0.945500	0.289800	0.609700
C1861	C186	0.875850	0.257000	0.497340
N641	N64	0.852050	0.210900	0.527030
N651	N65	0.846740	0.268600	0.440140
C1871	C187	0.793860	0.172600	0.494390
C1881	C188	0.790200	0.226500	0.412260
C1891	C189	0.763710	0.122200	0.524970
N661	N66	0.761500	0.177230	0.436700
C1901	C190	0.757080	0.236700	0.348160
C1911	C191	0.701460	0.084100	0.494630
C1921	C192	0.795320	0.111200	0.584480
C1931	C193	0.784730	0.288200	0.321400
C1941	C194	0.698550	0.194500	0.314540
H1251	H125	0.679200	0.087900	0.454700
C1951	C195	0.673990	0.040800	0.525630
C1961	C196	0.764240	0.066800	0.611500
H1261	H126	0.837400	0.133900	0.605900
H1271	H127	0.822700	0.318900	0.343100
C1971	C197	0.755060	0.293200	0.262130
C1981	C198	0.673200	0.202900	0.255250
H1281	H128	0.677200	0.161800	0.331200
H1291	H129	0.632100	0.016900	0.505300
H1301	H130	0.785900	0.061200	0.651400
H1311	H131	0.773700	0.328600	0.244600
N671	N67	0.700780	0.249700	0.228380
H1321	H132	0.634400	0.174100	0.232600
Ag121	Ag12	0.677080	0.249840	0.132510
N681	N68	0.587220	0.340300	0.092180
N691	N69	0.220190	0.685420	0.078230
C1991	C199	0.557070	0.342300	0.034200
C2001	C200	0.557010	0.381000	0.120280
C2011	C201	0.497710	0.382800	0.003230
H1331	H133	0.577400	0.315000	0.014100
C2021	C202	0.498110	0.424900	0.092400
H1341	H134	0.576700	0.379600	0.160400
H1351	H135	0.478100	0.382000	0.963100
C2031	C203	0.467500	0.424800	0.032750
H1361	H136	0.479600	0.453800	0.113300
C2041	C204	0.402810	0.469200	0.998590
N701	N70	0.373980	0.509600	0.026750
N711	N71	0.378340	0.462240	0.940700
C2051	C205	0.318030	0.550700	0.992760
C2061	C206	0.320540	0.502100	0.911350
C2071	C207	0.284940	0.600000	0.021960
N721	N72	0.289290	0.549100	0.935210
C2081	C208	0.289020	0.492700	0.847760
C2091	C209	0.222340	0.637400	0.990500
C2101	C210	0.313870	0.608100	0.081410
C2111	C211	0.322370	0.457100	0.818380
C2121	C212	0.222790	0.518200	0.816080
H1371	H137	0.201500	0.634700	0.950500
C2131	C213	0.192450	0.678300	0.020490
C2141	C214	0.280580	0.650400	0.107330
H1381	H138	0.355600	0.585100	0.103600
H1391	H139	0.366400	0.439400	0.838300
C2151	C215	0.289490	0.448400	0.759350
C2161	C216	0.194170	0.506800	0.757120
H1401	H140	0.198700	0.542100	0.834200
H1411	H141	0.150800	0.702300	0.999500
H1421	H142	0.300900	0.655000	0.147300
H1431	H143	0.312400	0.424500	0.740200
H1441	H144	0.150000	0.523900	0.736200
Ag131	Ag13	0.343700	0.957640	0.867830
N731	N73	0.439140	0.885000	0.911980
N741	N74	0.796280	0.530920	0.917150
N751	N75	0.274580	0.973000	0.771970
C2171	C217	0.466590	0.876300	0.969830
C2181	C218	0.473360	0.854500	0.884510
C2191	C219	0.526260	0.836000	0.000170
H1451	H145	0.444200	0.898400	0.990100
C2201	C220	0.533090	0.811600	0.911430
H1461	H146	0.456200	0.862400	0.844900
C2211	C221	0.559950	0.802200	0.970580
H1471	H147	0.543800	0.831500	0.040100
H1481	H148	0.554500	0.789800	0.890300
C2221	C222	0.624150	0.757000	0.002660
N761	N76	0.647950	0.710900	0.972970
N771	N77	0.653260	0.768600	0.059860
C2231	C223	0.706140	0.672600	0.005610
C2241	C224	0.709800	0.726500	0.087740
C2251	C225	0.736290	0.622200	0.975030
N781	N78	0.738500	0.677230	0.063300
C2261	C226	0.742920	0.736700	0.151840
C2271	C227	0.798540	0.584100	0.005370
C2281	C228	0.704680	0.611200	0.915520
C2291	C229	0.715270	0.788200	0.178600
C2301	C230	0.801450	0.694500	0.185460
H1491	H149	0.820800	0.587900	0.045300
C2311	C231	0.826010	0.540800	0.974370
C2321	C232	0.735760	0.566800	0.888500
H1501	H150	0.662600	0.633900	0.894100
H1511	H151	0.677300	0.818900	0.156900
C2331	C233	0.744940	0.793200	0.237870
C2341	C234	0.826800	0.702900	0.244750
H1521	H152	0.822800	0.661800	0.168800
H1531	H153	0.867900	0.516900	0.994700
H1541	H154	0.714100	0.561200	0.848600
H1551	H155	0.726300	0.828600	0.255400
N791	N79	0.799220	0.749700	0.271620
H1561	H156	0.865600	0.674100	0.267400
Ag141	Ag14	0.822920	0.749840	0.367490
N801	N80	0.912780	0.840300	0.407820
N811	N81	0.279810	0.185420	0.421770
C2351	C235	0.942930	0.842300	0.465800
C2361	C236	0.942990	0.881000	0.379720
C2371	C237	0.002290	0.882800	0.496770
H1571	H157	0.922600	0.815000	0.485900
C2381	C238	0.001890	0.924900	0.407600
H1581	H158	0.923300	0.879600	0.339600
H1591	H159	0.021900	0.882000	0.536900
C2391	C239	0.032500	0.924800	0.467250
H1601	H160	0.020400	0.953800	0.386700
C2401	C240	0.097190	0.969200	0.501410
N821	N82	0.126020	0.009600	0.473250
N831	N83	0.121660	0.962240	0.559300
C2411	C241	0.181970	0.050700	0.507240
C2421	C242	0.179460	0.002100	0.588650
C2431	C243	0.215060	0.100000	0.478040
N841	N84	0.210710	0.049100	0.564790
C2441	C244	0.210980	0.992700	0.652240
C2451	C245	0.277660	0.137400	0.509500
C2461	C246	0.186130	0.108100	0.418590
C2471	C247	0.177630	0.957100	0.681620
C2481	C248	0.277210	0.018200	0.683920
H1611	H161	0.298500	0.134700	0.549500
C2491	C249	0.307550	0.178300	0.479510
C2501	C250	0.219420	0.150400	0.392670
H1621	H162	0.144400	0.085100	0.396400
H1631	H163	0.133600	0.939400	0.661700
C2511	C251	0.210510	0.948400	0.740650
C2521	C252	0.305830	0.006800	0.742880
H1641	H164	0.301300	0.042100	0.665800
H1651	H165	0.349200	0.202300	0.500500
H1661	H166	0.199100	0.155000	0.352700
H1671	H167	0.187600	0.924500	0.759800
H1681	H168	0.350000	0.023900	0.763800
Ag151	Ag15	0.843700	0.457640	0.867830
N851	N85	0.939140	0.385000	0.911980
N861	N86	0.296280	0.030920	0.917150
N871	N87	0.774580	0.473000	0.771970
C2531	C253	0.966590	0.376300	0.969830
C2541	C254	0.973360	0.354500	0.884510
C2551	C255	0.026260	0.336000	0.000170
H1691	H169	0.944200	0.398400	0.990100
C2561	C256	0.033090	0.311600	0.911430
H1701	H170	0.956200	0.362400	0.844900
C2571	C257	0.059950	0.302200	0.970580
H1711	H171	0.043800	0.331500	0.040100
H1721	H172	0.054500	0.289800	0.890300
C2581	C258	0.124150	0.257000	0.002660
N881	N88	0.147950	0.210900	0.972970
N891	N89	0.153260	0.268600	0.059860
C2591	C259	0.206140	0.172600	0.005610
C2601	C260	0.209800	0.226500	0.087740
C2611	C261	0.236290	0.122200	0.975030
N901	N90	0.238500	0.177230	0.063300
C2621	C262	0.242920	0.236700	0.151840
C2631	C263	0.298540	0.084100	0.005370
C2641	C264	0.204680	0.111200	0.915520
C2651	C265	0.215270	0.288200	0.178600
C2661	C266	0.301450	0.194500	0.185460
H1731	H173	0.320800	0.087900	0.045300
C2671	C267	0.326010	0.040800	0.974370
C2681	C268	0.235760	0.066800	0.888500
H1741	H174	0.162600	0.133900	0.894100
H1751	H175	0.177300	0.318900	0.156900
C2691	C269	0.244940	0.293200	0.237870
C2701	C270	0.326800	0.202900	0.244750
H1761	H176	0.322800	0.161800	0.168800
H1771	H177	0.367900	0.016900	0.994700
H1781	H178	0.214100	0.061200	0.848600
H1791	H179	0.226300	0.328600	0.255400
N911	N91	0.299220	0.249700	0.271620
H1801	H180	0.365600	0.174100	0.267400
Ag161	Ag16	0.322920	0.249840	0.367490
N921	N92	0.412780	0.340300	0.407820
N931	N93	0.779810	0.685420	0.421770
C2711	C271	0.442930	0.342300	0.465800
C2721	C272	0.442990	0.381000	0.379720
C2731	C273	0.502290	0.382800	0.496770
H1811	H181	0.422600	0.315000	0.485900
C2741	C274	0.501890	0.424900	0.407600
H1821	H182	0.423300	0.379600	0.339600
H1831	H183	0.521900	0.382000	0.536900
C2751	C275	0.532500	0.424800	0.467250
H1841	H184	0.520400	0.453800	0.386700
C2761	C276	0.597190	0.469200	0.501410
N941	N94	0.626020	0.509600	0.473250
N951	N95	0.621660	0.462240	0.559300
C2771	C277	0.681970	0.550700	0.507240
C2781	C278	0.679460	0.502100	0.588650
C2791	C279	0.715060	0.600000	0.478040
N961	N96	0.710710	0.549100	0.564790
C2801	C280	0.710980	0.492700	0.652240
C2811	C281	0.777660	0.637400	0.509500
C2821	C282	0.686130	0.608100	0.418590
C2831	C283	0.677630	0.457100	0.681620
C2841	C284	0.777210	0.518200	0.683920
H1851	H185	0.798500	0.634700	0.549500
C2851	C285	0.807550	0.678300	0.479510
C2861	C286	0.719420	0.650400	0.392670
H1861	H186	0.644400	0.585100	0.396400
H1871	H187	0.633600	0.439400	0.661700
C2871	C287	0.710510	0.448400	0.740650
C2881	C288	0.805830	0.506800	0.742880
H1881	H188	0.801300	0.542100	0.665800
H1891	H189	0.849200	0.702300	0.500500
H1901	H190	0.699100	0.655000	0.352700
H1911	H191	0.687600	0.424500	0.759800
H1921	H192	0.850000	0.523900	0.763800
