data_QOFBIY02_clean_PM
_symmetry_space_group_name_H-M	'P1'
_cell_length_a	22.053200
_cell_length_b	16.382800
_cell_length_c	25.680900
_cell_angle_alpha	90.000000
_cell_angle_beta	115.391000
_cell_angle_gamma	90.000000
_symmetry_Int_Tables_number 1

loop_
_symmetry_equiv_pos_as_xyz
'x,y,z'

loop_
_atom_site_label
_atom_site_type_symbol
_atom_site_fract_x
_atom_site_fract_y
_atom_site_fract_z
Ag11	Ag1	0.343890	0.457940	0.367960
Ag21	Ag2	0.823010	0.250060	0.867550
C11	C1	0.624260	0.257300	0.502690
C21	C2	0.002460	0.382800	0.996850
H11	H1	0.021800	0.382000	0.036900
C31	C3	0.533290	0.311600	0.411540
H21	H2	0.554700	0.289800	0.390400
C41	C4	0.277670	0.637100	0.009520
H31	H3	0.298500	0.633900	0.049500
C51	C5	0.735740	0.066700	0.388820
H41	H4	0.714000	0.060900	0.349000
C61	C6	0.560030	0.302500	0.470560
C71	C7	0.097310	0.469100	0.001600
C81	C8	0.219650	0.650600	0.892870
H51	H5	0.199300	0.655800	0.853000
C91	C9	0.710010	0.226500	0.587940
C101	C10	0.943360	0.342400	0.965700
H61	H6	0.923200	0.314900	0.985800
C111	C11	0.526620	0.335900	0.500490
H71	H7	0.543900	0.331000	0.540300
C121	C12	0.743220	0.236800	0.651830
C131	C13	0.178200	0.457200	0.181880
H81	H8	0.134100	0.439500	0.162000
C141	C14	0.306100	0.506800	0.242960
H91	H9	0.350300	0.523700	0.263800
C151	C15	0.215440	0.600300	0.978150
C161	C16	0.467100	0.376500	0.469700
H101	H10	0.444900	0.399100	0.490000
C171	C17	0.179550	0.502400	0.088700
C181	C18	0.032720	0.424800	0.967470
C191	C19	0.825860	0.040700	0.474620
H111	H11	0.867600	0.016400	0.495000
C201	C20	0.827000	0.202800	0.744800
H121	H12	0.865500	0.173600	0.767400
C211	C21	0.186080	0.608000	0.918610
H131	H13	0.144400	0.584700	0.896500
C221	C22	0.798550	0.084200	0.505510
H141	H14	0.820900	0.088400	0.545400
C231	C23	0.706000	0.172500	0.505840
C241	C24	0.182100	0.550900	0.007200
C251	C25	0.307790	0.678400	0.979750
H151	H15	0.349300	0.702600	0.000800
C261	C26	0.473270	0.354500	0.384470
H161	H16	0.455900	0.362000	0.344800
C271	C27	0.210770	0.448400	0.240780
H171	H17	0.187800	0.424500	0.259900
C281	C28	0.002080	0.424700	0.907780
H181	H18	0.020800	0.453200	0.886900
C291	C29	0.277370	0.518300	0.183890
H191	H19	0.301400	0.542500	0.165800
C301	C30	0.704630	0.111100	0.415620
H201	H20	0.662600	0.133900	0.394200
C311	C31	0.942990	0.381300	0.879790
H211	H21	0.923100	0.380300	0.839700
C321	C32	0.211200	0.492500	0.152230
C331	C33	0.736340	0.121900	0.475070
C341	C34	0.745200	0.293500	0.737820
H221	H22	0.726600	0.328600	0.755400
C351	C35	0.715640	0.288400	0.678490
H231	H23	0.677800	0.319300	0.656800
C361	C36	0.801460	0.194600	0.685480
H241	H24	0.822700	0.161800	0.668800
N11	N1	0.439240	0.385400	0.412060
N21	N2	0.796310	0.031080	0.417310
N31	N3	0.799710	0.250100	0.771500
N41	N4	0.648180	0.210800	0.472940
N51	N5	0.738660	0.177170	0.563360
N61	N6	0.653330	0.268300	0.559910
N71	N7	0.912940	0.340400	0.907760
N81	N8	0.280010	0.685300	0.921950
N91	N9	0.274830	0.473100	0.272010
N101	N10	0.126030	0.509900	0.973410
N111	N11	0.210810	0.549100	0.065050
N121	N12	0.121850	0.462400	0.059180
Ag31	Ag3	0.843890	0.957940	0.367960
Ag41	Ag4	0.323010	0.750060	0.867550
C371	C37	0.124260	0.757300	0.502690
C381	C38	0.502460	0.882800	0.996850
H251	H25	0.521800	0.882000	0.036900
C391	C39	0.033290	0.811600	0.411540
H261	H26	0.054700	0.789800	0.390400
C401	C40	0.777670	0.137100	0.009520
H271	H27	0.798500	0.133900	0.049500
C411	C41	0.235740	0.566700	0.388820
H281	H28	0.214000	0.560900	0.349000
C421	C42	0.060030	0.802500	0.470560
C431	C43	0.597310	0.969100	0.001600
C441	C44	0.719650	0.150600	0.892870
H291	H29	0.699300	0.155800	0.853000
C451	C45	0.210010	0.726500	0.587940
C461	C46	0.443360	0.842400	0.965700
H301	H30	0.423200	0.814900	0.985800
C471	C47	0.026620	0.835900	0.500490
H311	H31	0.043900	0.831000	0.540300
C481	C48	0.243220	0.736800	0.651830
C491	C49	0.678200	0.957200	0.181880
H321	H32	0.634100	0.939500	0.162000
C501	C50	0.806100	0.006800	0.242960
H331	H33	0.850300	0.023700	0.263800
C511	C51	0.715440	0.100300	0.978150
C521	C52	0.967100	0.876500	0.469700
H341	H34	0.944900	0.899100	0.490000
C531	C53	0.679550	0.002400	0.088700
C541	C54	0.532720	0.924800	0.967470
C551	C55	0.325860	0.540700	0.474620
H351	H35	0.367600	0.516400	0.495000
C561	C56	0.327000	0.702800	0.744800
H361	H36	0.365500	0.673600	0.767400
C571	C57	0.686080	0.108000	0.918610
H371	H37	0.644400	0.084700	0.896500
C581	C58	0.298550	0.584200	0.505510
H381	H38	0.320900	0.588400	0.545400
C591	C59	0.206000	0.672500	0.505840
C601	C60	0.682100	0.050900	0.007200
C611	C61	0.807790	0.178400	0.979750
H391	H39	0.849300	0.202600	0.000800
C621	C62	0.973270	0.854500	0.384470
H401	H40	0.955900	0.862000	0.344800
C631	C63	0.710770	0.948400	0.240780
H411	H41	0.687800	0.924500	0.259900
C641	C64	0.502080	0.924700	0.907780
H421	H42	0.520800	0.953200	0.886900
C651	C65	0.777370	0.018300	0.183890
H431	H43	0.801400	0.042500	0.165800
C661	C66	0.204630	0.611100	0.415620
H441	H44	0.162600	0.633900	0.394200
C671	C67	0.442990	0.881300	0.879790
H451	H45	0.423100	0.880300	0.839700
C681	C68	0.711200	0.992500	0.152230
C691	C69	0.236340	0.621900	0.475070
C701	C70	0.245200	0.793500	0.737820
H461	H46	0.226600	0.828600	0.755400
C711	C71	0.215640	0.788400	0.678490
H471	H47	0.177800	0.819300	0.656800
C721	C72	0.301460	0.694600	0.685480
H481	H48	0.322700	0.661800	0.668800
N131	N13	0.939240	0.885400	0.412060
N141	N14	0.296310	0.531080	0.417310
N151	N15	0.299710	0.750100	0.771500
N161	N16	0.148180	0.710800	0.472940
N171	N17	0.238660	0.677170	0.563360
N181	N18	0.153330	0.768300	0.559910
N191	N19	0.412940	0.840400	0.907760
N201	N20	0.780010	0.185300	0.921950
N211	N21	0.774830	0.973100	0.272010
N221	N22	0.626030	0.009900	0.973410
N231	N23	0.710810	0.049100	0.065050
N241	N24	0.621850	0.962400	0.059180
Ag51	Ag5	0.656110	0.457940	0.132040
Ag61	Ag6	0.176990	0.250060	0.632450
C731	C73	0.375740	0.257300	0.997310
C741	C74	0.997540	0.382800	0.503150
H491	H49	0.978200	0.382000	0.463100
C751	C75	0.466710	0.311600	0.088460
H501	H50	0.445300	0.289800	0.109600
C761	C76	0.722330	0.637100	0.490480
H511	H51	0.701500	0.633900	0.450500
C771	C77	0.264260	0.066700	0.111180
H521	H52	0.286000	0.060900	0.151000
C781	C78	0.439970	0.302500	0.029440
C791	C79	0.902690	0.469100	0.498400
C801	C80	0.780350	0.650600	0.607130
H531	H53	0.800700	0.655800	0.647000
C811	C81	0.289990	0.226500	0.912060
C821	C82	0.056640	0.342400	0.534300
H541	H54	0.076800	0.314900	0.514200
C831	C83	0.473380	0.335900	0.999510
H551	H55	0.456100	0.331000	0.959700
C841	C84	0.256780	0.236800	0.848170
C851	C85	0.821800	0.457200	0.318120
H561	H56	0.865900	0.439500	0.338000
C861	C86	0.693900	0.506800	0.257040
H571	H57	0.649700	0.523700	0.236200
C871	C87	0.784560	0.600300	0.521850
C881	C88	0.532900	0.376500	0.030300
H581	H58	0.555100	0.399100	0.010000
C891	C89	0.820450	0.502400	0.411300
C901	C90	0.967280	0.424800	0.532530
C911	C91	0.174140	0.040700	0.025380
H591	H59	0.132400	0.016400	0.005000
C921	C92	0.173000	0.202800	0.755200
H601	H60	0.134500	0.173600	0.732600
C931	C93	0.813920	0.608000	0.581390
H611	H61	0.855600	0.584700	0.603500
C941	C94	0.201450	0.084200	0.994490
H621	H62	0.179100	0.088400	0.954600
C951	C95	0.294000	0.172500	0.994160
C961	C96	0.817900	0.550900	0.492800
C971	C97	0.692210	0.678400	0.520250
H631	H63	0.650700	0.702600	0.499200
C981	C98	0.526730	0.354500	0.115530
H641	H64	0.544100	0.362000	0.155200
C991	C99	0.789230	0.448400	0.259220
H651	H65	0.812200	0.424500	0.240100
C1001	C100	0.997920	0.424700	0.592220
H661	H66	0.979200	0.453200	0.613100
C1011	C101	0.722630	0.518300	0.316110
H671	H67	0.698600	0.542500	0.334200
C1021	C102	0.295370	0.111100	0.084380
H681	H68	0.337400	0.133900	0.105800
C1031	C103	0.057010	0.381300	0.620210
H691	H69	0.076900	0.380300	0.660300
C1041	C104	0.788800	0.492500	0.347770
C1051	C105	0.263660	0.121900	0.024930
C1061	C106	0.254800	0.293500	0.762180
H701	H70	0.273400	0.328600	0.744600
C1071	C107	0.284360	0.288400	0.821510
H711	H71	0.322200	0.319300	0.843200
C1081	C108	0.198540	0.194600	0.814520
H721	H72	0.177300	0.161800	0.831200
N251	N25	0.560760	0.385400	0.087940
N261	N26	0.203690	0.031080	0.082690
N271	N27	0.200290	0.250100	0.728500
N281	N28	0.351820	0.210800	0.027060
N291	N29	0.261340	0.177170	0.936640
N301	N30	0.346670	0.268300	0.940090
N311	N31	0.087060	0.340400	0.592240
N321	N32	0.719990	0.685300	0.578050
N331	N33	0.725170	0.473100	0.227990
N341	N34	0.873970	0.509900	0.526590
N351	N35	0.789190	0.549100	0.434950
N361	N36	0.878150	0.462400	0.440820
Ag71	Ag7	0.156110	0.957940	0.132040
Ag81	Ag8	0.676990	0.750060	0.632450
C1091	C109	0.875740	0.757300	0.997310
C1101	C110	0.497540	0.882800	0.503150
H731	H73	0.478200	0.882000	0.463100
C1111	C111	0.966710	0.811600	0.088460
H741	H74	0.945300	0.789800	0.109600
C1121	C112	0.222330	0.137100	0.490480
H751	H75	0.201500	0.133900	0.450500
C1131	C113	0.764260	0.566700	0.111180
H761	H76	0.786000	0.560900	0.151000
C1141	C114	0.939970	0.802500	0.029440
C1151	C115	0.402690	0.969100	0.498400
C1161	C116	0.280350	0.150600	0.607130
H771	H77	0.300700	0.155800	0.647000
C1171	C117	0.789990	0.726500	0.912060
C1181	C118	0.556640	0.842400	0.534300
H781	H78	0.576800	0.814900	0.514200
C1191	C119	0.973380	0.835900	0.999510
H791	H79	0.956100	0.831000	0.959700
C1201	C120	0.756780	0.736800	0.848170
C1211	C121	0.321800	0.957200	0.318120
H801	H80	0.365900	0.939500	0.338000
C1221	C122	0.193900	0.006800	0.257040
H811	H81	0.149700	0.023700	0.236200
C1231	C123	0.284560	0.100300	0.521850
C1241	C124	0.032900	0.876500	0.030300
H821	H82	0.055100	0.899100	0.010000
C1251	C125	0.320450	0.002400	0.411300
C1261	C126	0.467280	0.924800	0.532530
C1271	C127	0.674140	0.540700	0.025380
H831	H83	0.632400	0.516400	0.005000
C1281	C128	0.673000	0.702800	0.755200
H841	H84	0.634500	0.673600	0.732600
C1291	C129	0.313920	0.108000	0.581390
H851	H85	0.355600	0.084700	0.603500
C1301	C130	0.701450	0.584200	0.994490
H861	H86	0.679100	0.588400	0.954600
C1311	C131	0.794000	0.672500	0.994160
C1321	C132	0.317900	0.050900	0.492800
C1331	C133	0.192210	0.178400	0.520250
H871	H87	0.150700	0.202600	0.499200
C1341	C134	0.026730	0.854500	0.115530
H881	H88	0.044100	0.862000	0.155200
C1351	C135	0.289230	0.948400	0.259220
H891	H89	0.312200	0.924500	0.240100
C1361	C136	0.497920	0.924700	0.592220
H901	H90	0.479200	0.953200	0.613100
C1371	C137	0.222630	0.018300	0.316110
H911	H91	0.198600	0.042500	0.334200
C1381	C138	0.795370	0.611100	0.084380
H921	H92	0.837400	0.633900	0.105800
C1391	C139	0.557010	0.881300	0.620210
H931	H93	0.576900	0.880300	0.660300
C1401	C140	0.288800	0.992500	0.347770
C1411	C141	0.763660	0.621900	0.024930
C1421	C142	0.754800	0.793500	0.762180
H941	H94	0.773400	0.828600	0.744600
C1431	C143	0.784360	0.788400	0.821510
H951	H95	0.822200	0.819300	0.843200
C1441	C144	0.698540	0.694600	0.814520
H961	H96	0.677300	0.661800	0.831200
N371	N37	0.060760	0.885400	0.087940
N381	N38	0.703690	0.531080	0.082690
N391	N39	0.700290	0.750100	0.728500
N401	N40	0.851820	0.710800	0.027060
N411	N41	0.761340	0.677170	0.936640
N421	N42	0.846670	0.768300	0.940090
N431	N43	0.587060	0.840400	0.592240
N441	N44	0.219990	0.185300	0.578050
N451	N45	0.225170	0.973100	0.227990
N461	N46	0.373970	0.009900	0.526590
N471	N47	0.289190	0.049100	0.434950
N481	N48	0.378150	0.962400	0.440820
Ag91	Ag9	0.656110	0.542060	0.632040
Ag101	Ag10	0.176990	0.749940	0.132450
C1451	C145	0.375740	0.742700	0.497310
C1461	C146	0.997540	0.617200	0.003150
H971	H97	0.978200	0.618000	0.963100
C1471	C147	0.466710	0.688400	0.588460
H981	H98	0.445300	0.710200	0.609600
C1481	C148	0.722330	0.362900	0.990480
H991	H99	0.701500	0.366100	0.950500
C1491	C149	0.264260	0.933300	0.611180
H1001	H100	0.286000	0.939100	0.651000
C1501	C150	0.439970	0.697500	0.529440
C1511	C151	0.902690	0.530900	0.998400
C1521	C152	0.780350	0.349400	0.107130
H1011	H101	0.800700	0.344200	0.147000
C1531	C153	0.289990	0.773500	0.412060
C1541	C154	0.056640	0.657600	0.034300
H1021	H102	0.076800	0.685100	0.014200
C1551	C155	0.473380	0.664100	0.499510
H1031	H103	0.456100	0.669000	0.459700
C1561	C156	0.256780	0.763200	0.348170
C1571	C157	0.821800	0.542800	0.818120
H1041	H104	0.865900	0.560500	0.838000
C1581	C158	0.693900	0.493200	0.757040
H1051	H105	0.649700	0.476300	0.736200
C1591	C159	0.784560	0.399700	0.021850
C1601	C160	0.532900	0.623500	0.530300
H1061	H106	0.555100	0.600900	0.510000
C1611	C161	0.820450	0.497600	0.911300
C1621	C162	0.967280	0.575200	0.032530
C1631	C163	0.174140	0.959300	0.525380
H1071	H107	0.132400	0.983600	0.505000
C1641	C164	0.173000	0.797200	0.255200
H1081	H108	0.134500	0.826400	0.232600
C1651	C165	0.813920	0.392000	0.081390
H1091	H109	0.855600	0.415300	0.103500
C1661	C166	0.201450	0.915800	0.494490
H1101	H110	0.179100	0.911600	0.454600
C1671	C167	0.294000	0.827500	0.494160
C1681	C168	0.817900	0.449100	0.992800
C1691	C169	0.692210	0.321600	0.020250
H1111	H111	0.650700	0.297400	0.999200
C1701	C170	0.526730	0.645500	0.615530
H1121	H112	0.544100	0.638000	0.655200
C1711	C171	0.789230	0.551600	0.759220
H1131	H113	0.812200	0.575500	0.740100
C1721	C172	0.997920	0.575300	0.092220
H1141	H114	0.979200	0.546800	0.113100
C1731	C173	0.722630	0.481700	0.816110
H1151	H115	0.698600	0.457500	0.834200
C1741	C174	0.295370	0.888900	0.584380
H1161	H116	0.337400	0.866100	0.605800
C1751	C175	0.057010	0.618700	0.120210
H1171	H117	0.076900	0.619700	0.160300
C1761	C176	0.788800	0.507500	0.847770
C1771	C177	0.263660	0.878100	0.524930
C1781	C178	0.254800	0.706500	0.262180
H1181	H118	0.273400	0.671400	0.244600
C1791	C179	0.284360	0.711600	0.321510
H1191	H119	0.322200	0.680700	0.343200
C1801	C180	0.198540	0.805400	0.314520
H1201	H120	0.177300	0.838200	0.331200
N491	N49	0.560760	0.614600	0.587940
N501	N50	0.203690	0.968920	0.582690
N511	N51	0.200290	0.749900	0.228500
N521	N52	0.351820	0.789200	0.527060
N531	N53	0.261340	0.822830	0.436640
N541	N54	0.346670	0.731700	0.440090
N551	N55	0.087060	0.659600	0.092240
N561	N56	0.719990	0.314700	0.078050
N571	N57	0.725170	0.526900	0.727990
N581	N58	0.873970	0.490100	0.026590
N591	N59	0.789190	0.450900	0.934950
N601	N60	0.878150	0.537600	0.940820
Ag111	Ag11	0.156110	0.042060	0.632040
Ag121	Ag12	0.676990	0.249940	0.132450
C1811	C181	0.875740	0.242700	0.497310
C1821	C182	0.497540	0.117200	0.003150
H1211	H121	0.478200	0.118000	0.963100
C1831	C183	0.966710	0.188400	0.588460
H1221	H122	0.945300	0.210200	0.609600
C1841	C184	0.222330	0.862900	0.990480
H1231	H123	0.201500	0.866100	0.950500
C1851	C185	0.764260	0.433300	0.611180
H1241	H124	0.786000	0.439100	0.651000
C1861	C186	0.939970	0.197500	0.529440
C1871	C187	0.402690	0.030900	0.998400
C1881	C188	0.280350	0.849400	0.107130
H1251	H125	0.300700	0.844200	0.147000
C1891	C189	0.789990	0.273500	0.412060
C1901	C190	0.556640	0.157600	0.034300
H1261	H126	0.576800	0.185100	0.014200
C1911	C191	0.973380	0.164100	0.499510
H1271	H127	0.956100	0.169000	0.459700
C1921	C192	0.756780	0.263200	0.348170
C1931	C193	0.321800	0.042800	0.818120
H1281	H128	0.365900	0.060500	0.838000
C1941	C194	0.193900	0.993200	0.757040
H1291	H129	0.149700	0.976300	0.736200
C1951	C195	0.284560	0.899700	0.021850
C1961	C196	0.032900	0.123500	0.530300
H1301	H130	0.055100	0.100900	0.510000
C1971	C197	0.320450	0.997600	0.911300
C1981	C198	0.467280	0.075200	0.032530
C1991	C199	0.674140	0.459300	0.525380
H1311	H131	0.632400	0.483600	0.505000
C2001	C200	0.673000	0.297200	0.255200
H1321	H132	0.634500	0.326400	0.232600
C2011	C201	0.313920	0.892000	0.081390
H1331	H133	0.355600	0.915300	0.103500
C2021	C202	0.701450	0.415800	0.494490
H1341	H134	0.679100	0.411600	0.454600
C2031	C203	0.794000	0.327500	0.494160
C2041	C204	0.317900	0.949100	0.992800
C2051	C205	0.192210	0.821600	0.020250
H1351	H135	0.150700	0.797400	0.999200
C2061	C206	0.026730	0.145500	0.615530
H1361	H136	0.044100	0.138000	0.655200
C2071	C207	0.289230	0.051600	0.759220
H1371	H137	0.312200	0.075500	0.740100
C2081	C208	0.497920	0.075300	0.092220
H1381	H138	0.479200	0.046800	0.113100
C2091	C209	0.222630	0.981700	0.816110
H1391	H139	0.198600	0.957500	0.834200
C2101	C210	0.795370	0.388900	0.584380
H1401	H140	0.837400	0.366100	0.605800
C2111	C211	0.557010	0.118700	0.120210
H1411	H141	0.576900	0.119700	0.160300
C2121	C212	0.288800	0.007500	0.847770
C2131	C213	0.763660	0.378100	0.524930
C2141	C214	0.754800	0.206500	0.262180
H1421	H142	0.773400	0.171400	0.244600
C2151	C215	0.784360	0.211600	0.321510
H1431	H143	0.822200	0.180700	0.343200
C2161	C216	0.698540	0.305400	0.314520
H1441	H144	0.677300	0.338200	0.331200
N611	N61	0.060760	0.114600	0.587940
N621	N62	0.703690	0.468920	0.582690
N631	N63	0.700290	0.249900	0.228500
N641	N64	0.851820	0.289200	0.527060
N651	N65	0.761340	0.322830	0.436640
N661	N66	0.846670	0.231700	0.440090
N671	N67	0.587060	0.159600	0.092240
N681	N68	0.219990	0.814700	0.078050
N691	N69	0.225170	0.026900	0.727990
N701	N70	0.373970	0.990100	0.026590
N711	N71	0.289190	0.950900	0.934950
N721	N72	0.378150	0.037600	0.940820
Ag131	Ag13	0.343890	0.542060	0.867960
Ag141	Ag14	0.823010	0.749940	0.367550
C2171	C217	0.624260	0.742700	0.002690
C2181	C218	0.002460	0.617200	0.496850
H1451	H145	0.021800	0.618000	0.536900
C2191	C219	0.533290	0.688400	0.911540
H1461	H146	0.554700	0.710200	0.890400
C2201	C220	0.277670	0.362900	0.509520
H1471	H147	0.298500	0.366100	0.549500
C2211	C221	0.735740	0.933300	0.888820
H1481	H148	0.714000	0.939100	0.849000
C2221	C222	0.560030	0.697500	0.970560
C2231	C223	0.097310	0.530900	0.501600
C2241	C224	0.219650	0.349400	0.392870
H1491	H149	0.199300	0.344200	0.353000
C2251	C225	0.710010	0.773500	0.087940
C2261	C226	0.943360	0.657600	0.465700
H1501	H150	0.923200	0.685100	0.485800
C2271	C227	0.526620	0.664100	0.000490
H1511	H151	0.543900	0.669000	0.040300
C2281	C228	0.743220	0.763200	0.151830
C2291	C229	0.178200	0.542800	0.681880
H1521	H152	0.134100	0.560500	0.662000
C2301	C230	0.306100	0.493200	0.742960
H1531	H153	0.350300	0.476300	0.763800
C2311	C231	0.215440	0.399700	0.478150
C2321	C232	0.467100	0.623500	0.969700
H1541	H154	0.444900	0.600900	0.990000
C2331	C233	0.179550	0.497600	0.588700
C2341	C234	0.032720	0.575200	0.467470
C2351	C235	0.825860	0.959300	0.974620
H1551	H155	0.867600	0.983600	0.995000
C2361	C236	0.827000	0.797200	0.244800
H1561	H156	0.865500	0.826400	0.267400
C2371	C237	0.186080	0.392000	0.418610
H1571	H157	0.144400	0.415300	0.396500
C2381	C238	0.798550	0.915800	0.005510
H1581	H158	0.820900	0.911600	0.045400
C2391	C239	0.706000	0.827500	0.005840
C2401	C240	0.182100	0.449100	0.507200
C2411	C241	0.307790	0.321600	0.479750
H1591	H159	0.349300	0.297400	0.500800
C2421	C242	0.473270	0.645500	0.884470
H1601	H160	0.455900	0.638000	0.844800
C2431	C243	0.210770	0.551600	0.740780
H1611	H161	0.187800	0.575500	0.759900
C2441	C244	0.002080	0.575300	0.407780
H1621	H162	0.020800	0.546800	0.386900
C2451	C245	0.277370	0.481700	0.683890
H1631	H163	0.301400	0.457500	0.665800
C2461	C246	0.704630	0.888900	0.915620
H1641	H164	0.662600	0.866100	0.894200
C2471	C247	0.942990	0.618700	0.379790
H1651	H165	0.923100	0.619700	0.339700
C2481	C248	0.211200	0.507500	0.652230
C2491	C249	0.736340	0.878100	0.975070
C2501	C250	0.745200	0.706500	0.237820
H1661	H166	0.726600	0.671400	0.255400
C2511	C251	0.715640	0.711600	0.178490
H1671	H167	0.677800	0.680700	0.156800
C2521	C252	0.801460	0.805400	0.185480
H1681	H168	0.822700	0.838200	0.168800
N731	N73	0.439240	0.614600	0.912060
N741	N74	0.796310	0.968920	0.917310
N751	N75	0.799710	0.749900	0.271500
N761	N76	0.648180	0.789200	0.972940
N771	N77	0.738660	0.822830	0.063360
N781	N78	0.653330	0.731700	0.059910
N791	N79	0.912940	0.659600	0.407760
N801	N80	0.280010	0.314700	0.421950
N811	N81	0.274830	0.526900	0.772010
N821	N82	0.126030	0.490100	0.473410
N831	N83	0.210810	0.450900	0.565050
N841	N84	0.121850	0.537600	0.559180
Ag151	Ag15	0.843890	0.042060	0.867960
Ag161	Ag16	0.323010	0.249940	0.367550
C2531	C253	0.124260	0.242700	0.002690
C2541	C254	0.502460	0.117200	0.496850
H1691	H169	0.521800	0.118000	0.536900
C2551	C255	0.033290	0.188400	0.911540
H1701	H170	0.054700	0.210200	0.890400
C2561	C256	0.777670	0.862900	0.509520
H1711	H171	0.798500	0.866100	0.549500
C2571	C257	0.235740	0.433300	0.888820
H1721	H172	0.214000	0.439100	0.849000
C2581	C258	0.060030	0.197500	0.970560
C2591	C259	0.597310	0.030900	0.501600
C2601	C260	0.719650	0.849400	0.392870
H1731	H173	0.699300	0.844200	0.353000
C2611	C261	0.210010	0.273500	0.087940
C2621	C262	0.443360	0.157600	0.465700
H1741	H174	0.423200	0.185100	0.485800
C2631	C263	0.026620	0.164100	0.000490
H1751	H175	0.043900	0.169000	0.040300
C2641	C264	0.243220	0.263200	0.151830
C2651	C265	0.678200	0.042800	0.681880
H1761	H176	0.634100	0.060500	0.662000
C2661	C266	0.806100	0.993200	0.742960
H1771	H177	0.850300	0.976300	0.763800
C2671	C267	0.715440	0.899700	0.478150
C2681	C268	0.967100	0.123500	0.969700
H1781	H178	0.944900	0.100900	0.990000
C2691	C269	0.679550	0.997600	0.588700
C2701	C270	0.532720	0.075200	0.467470
C2711	C271	0.325860	0.459300	0.974620
H1791	H179	0.367600	0.483600	0.995000
C2721	C272	0.327000	0.297200	0.244800
H1801	H180	0.365500	0.326400	0.267400
C2731	C273	0.686080	0.892000	0.418610
H1811	H181	0.644400	0.915300	0.396500
C2741	C274	0.298550	0.415800	0.005510
H1821	H182	0.320900	0.411600	0.045400
C2751	C275	0.206000	0.327500	0.005840
C2761	C276	0.682100	0.949100	0.507200
C2771	C277	0.807790	0.821600	0.479750
H1831	H183	0.849300	0.797400	0.500800
C2781	C278	0.973270	0.145500	0.884470
H1841	H184	0.955900	0.138000	0.844800
C2791	C279	0.710770	0.051600	0.740780
H1851	H185	0.687800	0.075500	0.759900
C2801	C280	0.502080	0.075300	0.407780
H1861	H186	0.520800	0.046800	0.386900
C2811	C281	0.777370	0.981700	0.683890
H1871	H187	0.801400	0.957500	0.665800
C2821	C282	0.204630	0.388900	0.915620
H1881	H188	0.162600	0.366100	0.894200
C2831	C283	0.442990	0.118700	0.379790
H1891	H189	0.423100	0.119700	0.339700
C2841	C284	0.711200	0.007500	0.652230
C2851	C285	0.236340	0.378100	0.975070
C2861	C286	0.245200	0.206500	0.237820
H1901	H190	0.226600	0.171400	0.255400
C2871	C287	0.215640	0.211600	0.178490
H1911	H191	0.177800	0.180700	0.156800
C2881	C288	0.301460	0.305400	0.185480
H1921	H192	0.322700	0.338200	0.168800
N851	N85	0.939240	0.114600	0.912060
N861	N86	0.296310	0.468920	0.917310
N871	N87	0.299710	0.249900	0.271500
N881	N88	0.148180	0.289200	0.972940
N891	N89	0.238660	0.322830	0.063360
N901	N90	0.153330	0.231700	0.059910
N911	N91	0.412940	0.159600	0.407760
N921	N92	0.780010	0.814700	0.421950
N931	N93	0.774830	0.026900	0.772010
N941	N94	0.626030	0.990100	0.473410
N951	N95	0.710810	0.950900	0.565050
N961	N96	0.621850	0.037600	0.559180
