data_QOFCEV_clean_PM
_symmetry_space_group_name_H-M	'P1'
_cell_length_a	22.036600
_cell_length_b	16.453200
_cell_length_c	25.680500
_cell_angle_alpha	90.000000
_cell_angle_beta	115.397000
_cell_angle_gamma	90.000000
_symmetry_Int_Tables_number 1

loop_
_symmetry_equiv_pos_as_xyz
'x,y,z'

loop_
_atom_site_label
_atom_site_type_symbol
_atom_site_fract_x
_atom_site_fract_y
_atom_site_fract_z
Ag11	Ag1	0.274040	0.708560	0.868200
Ag21	Ag2	0.794650	0.000210	0.367680
C11	C1	0.628360	0.062100	0.911790
H11	H1	0.585800	0.040400	0.890600
C21	C2	0.422950	0.400000	0.392850
H21	H2	0.403300	0.404300	0.352900
C31	C3	0.628420	0.007500	0.002820
C41	C4	0.654120	0.219000	0.501740
C51	C5	0.481630	0.386900	0.509500
H31	H3	0.500600	0.383600	0.549500
C61	C6	0.403110	0.816600	0.888880
H41	H4	0.385000	0.810800	0.849000
C71	C7	0.743880	0.133100	0.496730
H51	H5	0.764700	0.132800	0.536800
C81	C8	0.723180	0.086400	0.000140
H61	H6	0.745500	0.082100	0.040000
C91	C9	0.575230	0.300900	0.507310
C101	C10	0.660410	0.052500	0.970720
C111	C11	0.628100	0.976400	0.088250
C121	C12	0.772120	0.092500	0.465660
H71	H7	0.812500	0.065200	0.485800
C131	C13	0.461130	0.860900	0.915850
H81	H8	0.481800	0.883500	0.894400
C141	C14	0.780000	0.198300	0.740820
H91	H9	0.822100	0.174600	0.759900
C151	C15	0.658530	0.986900	0.151850
C161	C16	0.690900	0.242700	0.652440
C171	C17	0.752540	0.127100	0.969650
H101	H10	0.795100	0.149400	0.989900
C181	C18	0.550140	0.922600	0.006050
C191	C19	0.661060	0.105100	0.884670
H111	H11	0.638700	0.112700	0.845000
C201	C20	0.712180	0.038600	0.178650
H121	H12	0.728000	0.069800	0.156900
C211	C21	0.482360	0.358000	0.419100
H131	H13	0.502100	0.335100	0.397000
C221	C22	0.684250	0.174400	0.467490
C231	C23	0.456880	0.834100	0.005480
H141	H14	0.474400	0.837900	0.045400
C241	C24	0.753430	0.207300	0.681730
H151	H15	0.777500	0.189600	0.661700
C251	C25	0.686900	0.256900	0.743280
H161	H16	0.663900	0.274200	0.764300
C261	C26	0.656300	0.268300	0.683860
H171	H17	0.614100	0.292300	0.665700
C271	C27	0.512780	0.350000	0.478330
C281	C28	0.658930	0.252500	0.588550
C291	C29	0.742100	0.043800	0.237810
H181	H18	0.778300	0.078900	0.255300
C301	C30	0.398940	0.790900	0.974800
H191	H19	0.377600	0.766900	0.995200
C311	C31	0.655630	0.174700	0.408090
H201	H20	0.616300	0.203600	0.387300
C321	C32	0.633760	0.944900	0.185610
H211	H21	0.595700	0.912300	0.168900
C331	C33	0.667400	0.953100	0.244750
H221	H22	0.651400	0.923900	0.267300
C341	C34	0.421930	0.428600	0.479800
H231	H23	0.401700	0.453200	0.500900
C351	C35	0.489050	0.872200	0.975330
C361	C36	0.686720	0.131200	0.380010
H241	H24	0.666500	0.130300	0.339900
N11	N1	0.371170	0.781010	0.917460
N21	N2	0.722460	0.135900	0.912190
N31	N3	0.721270	0.000100	0.271680
N41	N4	0.574800	0.961110	0.973070
N51	N5	0.656270	0.018560	0.059750
N61	N6	0.574850	0.927180	0.063360
N71	N7	0.744590	0.090100	0.407790
N81	N8	0.391800	0.435280	0.422080
N91	N9	0.746910	0.222800	0.772010
N101	N10	0.597470	0.260020	0.473530
N111	N11	0.604220	0.299000	0.564920
N121	N12	0.687240	0.212540	0.559330
Ag31	Ag3	0.774040	0.208560	0.868200
Ag41	Ag4	0.294650	0.500210	0.367680
C371	C37	0.128360	0.562100	0.911790
H251	H25	0.085800	0.540400	0.890600
C381	C38	0.922950	0.900000	0.392850
H261	H26	0.903300	0.904300	0.352900
C391	C39	0.128420	0.507500	0.002820
C401	C40	0.154120	0.719000	0.501740
C411	C41	0.981630	0.886900	0.509500
H271	H27	0.000600	0.883600	0.549500
C421	C42	0.903110	0.316600	0.888880
H281	H28	0.885000	0.310800	0.849000
C431	C43	0.243880	0.633100	0.496730
H291	H29	0.264700	0.632800	0.536800
C441	C44	0.223180	0.586400	0.000140
H301	H30	0.245500	0.582100	0.040000
C451	C45	0.075230	0.800900	0.507310
C461	C46	0.160410	0.552500	0.970720
C471	C47	0.128100	0.476400	0.088250
C481	C48	0.272120	0.592500	0.465660
H311	H31	0.312500	0.565200	0.485800
C491	C49	0.961130	0.360900	0.915850
H321	H32	0.981800	0.383500	0.894400
C501	C50	0.280000	0.698300	0.740820
H331	H33	0.322100	0.674600	0.759900
C511	C51	0.158530	0.486900	0.151850
C521	C52	0.190900	0.742700	0.652440
C531	C53	0.252540	0.627100	0.969650
H341	H34	0.295100	0.649400	0.989900
C541	C54	0.050140	0.422600	0.006050
C551	C55	0.161060	0.605100	0.884670
H351	H35	0.138700	0.612700	0.845000
C561	C56	0.212180	0.538600	0.178650
H361	H36	0.228000	0.569800	0.156900
C571	C57	0.982360	0.858000	0.419100
H371	H37	0.002100	0.835100	0.397000
C581	C58	0.184250	0.674400	0.467490
C591	C59	0.956880	0.334100	0.005480
H381	H38	0.974400	0.337900	0.045400
C601	C60	0.253430	0.707300	0.681730
H391	H39	0.277500	0.689600	0.661700
C611	C61	0.186900	0.756900	0.743280
H401	H40	0.163900	0.774200	0.764300
C621	C62	0.156300	0.768300	0.683860
H411	H41	0.114100	0.792300	0.665700
C631	C63	0.012780	0.850000	0.478330
C641	C64	0.158930	0.752500	0.588550
C651	C65	0.242100	0.543800	0.237810
H421	H42	0.278300	0.578900	0.255300
C661	C66	0.898940	0.290900	0.974800
H431	H43	0.877600	0.266900	0.995200
C671	C67	0.155630	0.674700	0.408090
H441	H44	0.116300	0.703600	0.387300
C681	C68	0.133760	0.444900	0.185610
H451	H45	0.095700	0.412300	0.168900
C691	C69	0.167400	0.453100	0.244750
H461	H46	0.151400	0.423900	0.267300
C701	C70	0.921930	0.928600	0.479800
H471	H47	0.901700	0.953200	0.500900
C711	C71	0.989050	0.372200	0.975330
C721	C72	0.186720	0.631200	0.380010
H481	H48	0.166500	0.630300	0.339900
N131	N13	0.871170	0.281010	0.917460
N141	N14	0.222460	0.635900	0.912190
N151	N15	0.221270	0.500100	0.271680
N161	N16	0.074800	0.461110	0.973070
N171	N17	0.156270	0.518560	0.059750
N181	N18	0.074850	0.427180	0.063360
N191	N19	0.244590	0.590100	0.407790
N201	N20	0.891800	0.935280	0.422080
N211	N21	0.246910	0.722800	0.772010
N221	N22	0.097470	0.760020	0.473530
N231	N23	0.104220	0.799000	0.564920
N241	N24	0.187240	0.712540	0.559330
Ag51	Ag5	0.725960	0.708560	0.631800
Ag61	Ag6	0.205350	0.000210	0.132320
C731	C73	0.371640	0.062100	0.588210
H491	H49	0.414200	0.040400	0.609400
C741	C74	0.577050	0.400000	0.107150
H501	H50	0.596700	0.404300	0.147100
C751	C75	0.371580	0.007500	0.497180
C761	C76	0.345880	0.219000	0.998260
C771	C77	0.518370	0.386900	0.990500
H511	H51	0.499400	0.383600	0.950500
C781	C78	0.596890	0.816600	0.611120
H521	H52	0.615000	0.810800	0.651000
C791	C79	0.256120	0.133100	0.003270
H531	H53	0.235300	0.132800	0.963200
C801	C80	0.276820	0.086400	0.499860
H541	H54	0.254500	0.082100	0.460000
C811	C81	0.424770	0.300900	0.992690
C821	C82	0.339590	0.052500	0.529280
C831	C83	0.371900	0.976400	0.411750
C841	C84	0.227880	0.092500	0.034340
H551	H55	0.187500	0.065200	0.014200
C851	C85	0.538870	0.860900	0.584150
H561	H56	0.518200	0.883500	0.605600
C861	C86	0.220000	0.198300	0.759180
H571	H57	0.177900	0.174600	0.740100
C871	C87	0.341470	0.986900	0.348150
C881	C88	0.309100	0.242700	0.847560
C891	C89	0.247460	0.127100	0.530350
H581	H58	0.204900	0.149400	0.510100
C901	C90	0.449860	0.922600	0.493950
C911	C91	0.338940	0.105100	0.615330
H591	H59	0.361300	0.112700	0.655000
C921	C92	0.287820	0.038600	0.321350
H601	H60	0.272000	0.069800	0.343100
C931	C93	0.517640	0.358000	0.080900
H611	H61	0.497900	0.335100	0.103000
C941	C94	0.315750	0.174400	0.032510
C951	C95	0.543120	0.834100	0.494520
H621	H62	0.525600	0.837900	0.454600
C961	C96	0.246570	0.207300	0.818270
H631	H63	0.222500	0.189600	0.838300
C971	C97	0.313100	0.256900	0.756720
H641	H64	0.336100	0.274200	0.735700
C981	C98	0.343700	0.268300	0.816140
H651	H65	0.385900	0.292300	0.834300
C991	C99	0.487220	0.350000	0.021670
C1001	C100	0.341070	0.252500	0.911450
C1011	C101	0.257900	0.043800	0.262190
H661	H66	0.221700	0.078900	0.244700
C1021	C102	0.601060	0.790900	0.525200
H671	H67	0.622400	0.766900	0.504800
C1031	C103	0.344370	0.174700	0.091910
H681	H68	0.383700	0.203600	0.112700
C1041	C104	0.366240	0.944900	0.314390
H691	H69	0.404300	0.912300	0.331100
C1051	C105	0.332600	0.953100	0.255250
H701	H70	0.348600	0.923900	0.232700
C1061	C106	0.578070	0.428600	0.020200
H711	H71	0.598300	0.453200	0.999100
C1071	C107	0.510950	0.872200	0.524670
C1081	C108	0.313280	0.131200	0.119990
H721	H72	0.333500	0.130300	0.160100
N251	N25	0.628830	0.781010	0.582540
N261	N26	0.277540	0.135900	0.587810
N271	N27	0.278730	0.000100	0.228320
N281	N28	0.425200	0.961110	0.526930
N291	N29	0.343730	0.018560	0.440250
N301	N30	0.425150	0.927180	0.436640
N311	N31	0.255410	0.090100	0.092210
N321	N32	0.608200	0.435280	0.077920
N331	N33	0.253090	0.222800	0.727990
N341	N34	0.402530	0.260020	0.026470
N351	N35	0.395780	0.299000	0.935080
N361	N36	0.312760	0.212540	0.940670
Ag71	Ag7	0.225960	0.208560	0.631800
Ag81	Ag8	0.705350	0.500210	0.132320
C1091	C109	0.871640	0.562100	0.588210
H731	H73	0.914200	0.540400	0.609400
C1101	C110	0.077050	0.900000	0.107150
H741	H74	0.096700	0.904300	0.147100
C1111	C111	0.871580	0.507500	0.497180
C1121	C112	0.845880	0.719000	0.998260
C1131	C113	0.018370	0.886900	0.990500
H751	H75	0.999400	0.883600	0.950500
C1141	C114	0.096890	0.316600	0.611120
H761	H76	0.115000	0.310800	0.651000
C1151	C115	0.756120	0.633100	0.003270
H771	H77	0.735300	0.632800	0.963200
C1161	C116	0.776820	0.586400	0.499860
H781	H78	0.754500	0.582100	0.460000
C1171	C117	0.924770	0.800900	0.992690
C1181	C118	0.839590	0.552500	0.529280
C1191	C119	0.871900	0.476400	0.411750
C1201	C120	0.727880	0.592500	0.034340
H791	H79	0.687500	0.565200	0.014200
C1211	C121	0.038870	0.360900	0.584150
H801	H80	0.018200	0.383500	0.605600
C1221	C122	0.720000	0.698300	0.759180
H811	H81	0.677900	0.674600	0.740100
C1231	C123	0.841470	0.486900	0.348150
C1241	C124	0.809100	0.742700	0.847560
C1251	C125	0.747460	0.627100	0.530350
H821	H82	0.704900	0.649400	0.510100
C1261	C126	0.949860	0.422600	0.493950
C1271	C127	0.838940	0.605100	0.615330
H831	H83	0.861300	0.612700	0.655000
C1281	C128	0.787820	0.538600	0.321350
H841	H84	0.772000	0.569800	0.343100
C1291	C129	0.017640	0.858000	0.080900
H851	H85	0.997900	0.835100	0.103000
C1301	C130	0.815750	0.674400	0.032510
C1311	C131	0.043120	0.334100	0.494520
H861	H86	0.025600	0.337900	0.454600
C1321	C132	0.746570	0.707300	0.818270
H871	H87	0.722500	0.689600	0.838300
C1331	C133	0.813100	0.756900	0.756720
H881	H88	0.836100	0.774200	0.735700
C1341	C134	0.843700	0.768300	0.816140
H891	H89	0.885900	0.792300	0.834300
C1351	C135	0.987220	0.850000	0.021670
C1361	C136	0.841070	0.752500	0.911450
C1371	C137	0.757900	0.543800	0.262190
H901	H90	0.721700	0.578900	0.244700
C1381	C138	0.101060	0.290900	0.525200
H911	H91	0.122400	0.266900	0.504800
C1391	C139	0.844370	0.674700	0.091910
H921	H92	0.883700	0.703600	0.112700
C1401	C140	0.866240	0.444900	0.314390
H931	H93	0.904300	0.412300	0.331100
C1411	C141	0.832600	0.453100	0.255250
H941	H94	0.848600	0.423900	0.232700
C1421	C142	0.078070	0.928600	0.020200
H951	H95	0.098300	0.953200	0.999100
C1431	C143	0.010950	0.372200	0.524670
C1441	C144	0.813280	0.631200	0.119990
H961	H96	0.833500	0.630300	0.160100
N371	N37	0.128830	0.281010	0.582540
N381	N38	0.777540	0.635900	0.587810
N391	N39	0.778730	0.500100	0.228320
N401	N40	0.925200	0.461110	0.526930
N411	N41	0.843730	0.518560	0.440250
N421	N42	0.925150	0.427180	0.436640
N431	N43	0.755410	0.590100	0.092210
N441	N44	0.108200	0.935280	0.077920
N451	N45	0.753090	0.722800	0.727990
N461	N46	0.902530	0.760020	0.026470
N471	N47	0.895780	0.799000	0.935080
N481	N48	0.812760	0.712540	0.940670
Ag91	Ag9	0.725960	0.291440	0.131800
Ag101	Ag10	0.205350	0.999790	0.632320
C1451	C145	0.371640	0.937900	0.088210
H971	H97	0.414200	0.959600	0.109400
C1461	C146	0.577050	0.600000	0.607150
H981	H98	0.596700	0.595700	0.647100
C1471	C147	0.371580	0.992500	0.997180
C1481	C148	0.345880	0.781000	0.498260
C1491	C149	0.518370	0.613100	0.490500
H991	H99	0.499400	0.616400	0.450500
C1501	C150	0.596890	0.183400	0.111120
H1001	H100	0.615000	0.189200	0.151000
C1511	C151	0.256120	0.866900	0.503270
H1011	H101	0.235300	0.867200	0.463200
C1521	C152	0.276820	0.913600	0.999860
H1021	H102	0.254500	0.917900	0.960000
C1531	C153	0.424770	0.699100	0.492690
C1541	C154	0.339590	0.947500	0.029280
C1551	C155	0.371900	0.023600	0.911750
C1561	C156	0.227880	0.907500	0.534340
H1031	H103	0.187500	0.934800	0.514200
C1571	C157	0.538870	0.139100	0.084150
H1041	H104	0.518200	0.116500	0.105600
C1581	C158	0.220000	0.801700	0.259180
H1051	H105	0.177900	0.825400	0.240100
C1591	C159	0.341470	0.013100	0.848150
C1601	C160	0.309100	0.757300	0.347560
C1611	C161	0.247460	0.872900	0.030350
H1061	H106	0.204900	0.850600	0.010100
C1621	C162	0.449860	0.077400	0.993950
C1631	C163	0.338940	0.894900	0.115330
H1071	H107	0.361300	0.887300	0.155000
C1641	C164	0.287820	0.961400	0.821350
H1081	H108	0.272000	0.930200	0.843100
C1651	C165	0.517640	0.642000	0.580900
H1091	H109	0.497900	0.664900	0.603000
C1661	C166	0.315750	0.825600	0.532510
C1671	C167	0.543120	0.165900	0.994520
H1101	H110	0.525600	0.162100	0.954600
C1681	C168	0.246570	0.792700	0.318270
H1111	H111	0.222500	0.810400	0.338300
C1691	C169	0.313100	0.743100	0.256720
H1121	H112	0.336100	0.725800	0.235700
C1701	C170	0.343700	0.731700	0.316140
H1131	H113	0.385900	0.707700	0.334300
C1711	C171	0.487220	0.650000	0.521670
C1721	C172	0.341070	0.747500	0.411450
C1731	C173	0.257900	0.956200	0.762190
H1141	H114	0.221700	0.921100	0.744700
C1741	C174	0.601060	0.209100	0.025200
H1151	H115	0.622400	0.233100	0.004800
C1751	C175	0.344370	0.825300	0.591910
H1161	H116	0.383700	0.796400	0.612700
C1761	C176	0.366240	0.055100	0.814390
H1171	H117	0.404300	0.087700	0.831100
C1771	C177	0.332600	0.046900	0.755250
H1181	H118	0.348600	0.076100	0.732700
C1781	C178	0.578070	0.571400	0.520200
H1191	H119	0.598300	0.546800	0.499100
C1791	C179	0.510950	0.127800	0.024670
C1801	C180	0.313280	0.868800	0.619990
H1201	H120	0.333500	0.869700	0.660100
N491	N49	0.628830	0.218990	0.082540
N501	N50	0.277540	0.864100	0.087810
N511	N51	0.278730	0.999900	0.728320
N521	N52	0.425200	0.038890	0.026930
N531	N53	0.343730	0.981440	0.940250
N541	N54	0.425150	0.072820	0.936640
N551	N55	0.255410	0.909900	0.592210
N561	N56	0.608200	0.564720	0.577920
N571	N57	0.253090	0.777200	0.227990
N581	N58	0.402530	0.739980	0.526470
N591	N59	0.395780	0.701000	0.435080
N601	N60	0.312760	0.787460	0.440670
Ag111	Ag11	0.225960	0.791440	0.131800
Ag121	Ag12	0.705350	0.499790	0.632320
C1811	C181	0.871640	0.437900	0.088210
H1211	H121	0.914200	0.459600	0.109400
C1821	C182	0.077050	0.100000	0.607150
H1221	H122	0.096700	0.095700	0.647100
C1831	C183	0.871580	0.492500	0.997180
C1841	C184	0.845880	0.281000	0.498260
C1851	C185	0.018370	0.113100	0.490500
H1231	H123	0.999400	0.116400	0.450500
C1861	C186	0.096890	0.683400	0.111120
H1241	H124	0.115000	0.689200	0.151000
C1871	C187	0.756120	0.366900	0.503270
H1251	H125	0.735300	0.367200	0.463200
C1881	C188	0.776820	0.413600	0.999860
H1261	H126	0.754500	0.417900	0.960000
C1891	C189	0.924770	0.199100	0.492690
C1901	C190	0.839590	0.447500	0.029280
C1911	C191	0.871900	0.523600	0.911750
C1921	C192	0.727880	0.407500	0.534340
H1271	H127	0.687500	0.434800	0.514200
C1931	C193	0.038870	0.639100	0.084150
H1281	H128	0.018200	0.616500	0.105600
C1941	C194	0.720000	0.301700	0.259180
H1291	H129	0.677900	0.325400	0.240100
C1951	C195	0.841470	0.513100	0.848150
C1961	C196	0.809100	0.257300	0.347560
C1971	C197	0.747460	0.372900	0.030350
H1301	H130	0.704900	0.350600	0.010100
C1981	C198	0.949860	0.577400	0.993950
C1991	C199	0.838940	0.394900	0.115330
H1311	H131	0.861300	0.387300	0.155000
C2001	C200	0.787820	0.461400	0.821350
H1321	H132	0.772000	0.430200	0.843100
C2011	C201	0.017640	0.142000	0.580900
H1331	H133	0.997900	0.164900	0.603000
C2021	C202	0.815750	0.325600	0.532510
C2031	C203	0.043120	0.665900	0.994520
H1341	H134	0.025600	0.662100	0.954600
C2041	C204	0.746570	0.292700	0.318270
H1351	H135	0.722500	0.310400	0.338300
C2051	C205	0.813100	0.243100	0.256720
H1361	H136	0.836100	0.225800	0.235700
C2061	C206	0.843700	0.231700	0.316140
H1371	H137	0.885900	0.207700	0.334300
C2071	C207	0.987220	0.150000	0.521670
C2081	C208	0.841070	0.247500	0.411450
C2091	C209	0.757900	0.456200	0.762190
H1381	H138	0.721700	0.421100	0.744700
C2101	C210	0.101060	0.709100	0.025200
H1391	H139	0.122400	0.733100	0.004800
C2111	C211	0.844370	0.325300	0.591910
H1401	H140	0.883700	0.296400	0.612700
C2121	C212	0.866240	0.555100	0.814390
H1411	H141	0.904300	0.587700	0.831100
C2131	C213	0.832600	0.546900	0.755250
H1421	H142	0.848600	0.576100	0.732700
C2141	C214	0.078070	0.071400	0.520200
H1431	H143	0.098300	0.046800	0.499100
C2151	C215	0.010950	0.627800	0.024670
C2161	C216	0.813280	0.368800	0.619990
H1441	H144	0.833500	0.369700	0.660100
N611	N61	0.128830	0.718990	0.082540
N621	N62	0.777540	0.364100	0.087810
N631	N63	0.778730	0.499900	0.728320
N641	N64	0.925200	0.538890	0.026930
N651	N65	0.843730	0.481440	0.940250
N661	N66	0.925150	0.572820	0.936640
N671	N67	0.755410	0.409900	0.592210
N681	N68	0.108200	0.064720	0.577920
N691	N69	0.753090	0.277200	0.227990
N701	N70	0.902530	0.239980	0.526470
N711	N71	0.895780	0.201000	0.435080
N721	N72	0.812760	0.287460	0.440670
Ag131	Ag13	0.274040	0.291440	0.368200
Ag141	Ag14	0.794650	0.999790	0.867680
C2171	C217	0.628360	0.937900	0.411790
H1451	H145	0.585800	0.959600	0.390600
C2181	C218	0.422950	0.600000	0.892850
H1461	H146	0.403300	0.595700	0.852900
C2191	C219	0.628420	0.992500	0.502820
C2201	C220	0.654120	0.781000	0.001740
C2211	C221	0.481630	0.613100	0.009500
H1471	H147	0.500600	0.616400	0.049500
C2221	C222	0.403110	0.183400	0.388880
H1481	H148	0.385000	0.189200	0.349000
C2231	C223	0.743880	0.866900	0.996730
H1491	H149	0.764700	0.867200	0.036800
C2241	C224	0.723180	0.913600	0.500140
H1501	H150	0.745500	0.917900	0.540000
C2251	C225	0.575230	0.699100	0.007310
C2261	C226	0.660410	0.947500	0.470720
C2271	C227	0.628100	0.023600	0.588250
C2281	C228	0.772120	0.907500	0.965660
H1511	H151	0.812500	0.934800	0.985800
C2291	C229	0.461130	0.139100	0.415850
H1521	H152	0.481800	0.116500	0.394400
C2301	C230	0.780000	0.801700	0.240820
H1531	H153	0.822100	0.825400	0.259900
C2311	C231	0.658530	0.013100	0.651850
C2321	C232	0.690900	0.757300	0.152440
C2331	C233	0.752540	0.872900	0.469650
H1541	H154	0.795100	0.850600	0.489900
C2341	C234	0.550140	0.077400	0.506050
C2351	C235	0.661060	0.894900	0.384670
H1551	H155	0.638700	0.887300	0.345000
C2361	C236	0.712180	0.961400	0.678650
H1561	H156	0.728000	0.930200	0.656900
C2371	C237	0.482360	0.642000	0.919100
H1571	H157	0.502100	0.664900	0.897000
C2381	C238	0.684250	0.825600	0.967490
C2391	C239	0.456880	0.165900	0.505480
H1581	H158	0.474400	0.162100	0.545400
C2401	C240	0.753430	0.792700	0.181730
H1591	H159	0.777500	0.810400	0.161700
C2411	C241	0.686900	0.743100	0.243280
H1601	H160	0.663900	0.725800	0.264300
C2421	C242	0.656300	0.731700	0.183860
H1611	H161	0.614100	0.707700	0.165700
C2431	C243	0.512780	0.650000	0.978330
C2441	C244	0.658930	0.747500	0.088550
C2451	C245	0.742100	0.956200	0.737810
H1621	H162	0.778300	0.921100	0.755300
C2461	C246	0.398940	0.209100	0.474800
H1631	H163	0.377600	0.233100	0.495200
C2471	C247	0.655630	0.825300	0.908090
H1641	H164	0.616300	0.796400	0.887300
C2481	C248	0.633760	0.055100	0.685610
H1651	H165	0.595700	0.087700	0.668900
C2491	C249	0.667400	0.046900	0.744750
H1661	H166	0.651400	0.076100	0.767300
C2501	C250	0.421930	0.571400	0.979800
H1671	H167	0.401700	0.546800	0.000900
C2511	C251	0.489050	0.127800	0.475330
C2521	C252	0.686720	0.868800	0.880010
H1681	H168	0.666500	0.869700	0.839900
N731	N73	0.371170	0.218990	0.417460
N741	N74	0.722460	0.864100	0.412190
N751	N75	0.721270	0.999900	0.771680
N761	N76	0.574800	0.038890	0.473070
N771	N77	0.656270	0.981440	0.559750
N781	N78	0.574850	0.072820	0.563360
N791	N79	0.744590	0.909900	0.907790
N801	N80	0.391800	0.564720	0.922080
N811	N81	0.746910	0.777200	0.272010
N821	N82	0.597470	0.739980	0.973530
N831	N83	0.604220	0.701000	0.064920
N841	N84	0.687240	0.787460	0.059330
Ag151	Ag15	0.774040	0.791440	0.368200
Ag161	Ag16	0.294650	0.499790	0.867680
C2531	C253	0.128360	0.437900	0.411790
H1691	H169	0.085800	0.459600	0.390600
C2541	C254	0.922950	0.100000	0.892850
H1701	H170	0.903300	0.095700	0.852900
C2551	C255	0.128420	0.492500	0.502820
C2561	C256	0.154120	0.281000	0.001740
C2571	C257	0.981630	0.113100	0.009500
H1711	H171	0.000600	0.116400	0.049500
C2581	C258	0.903110	0.683400	0.388880
H1721	H172	0.885000	0.689200	0.349000
C2591	C259	0.243880	0.366900	0.996730
H1731	H173	0.264700	0.367200	0.036800
C2601	C260	0.223180	0.413600	0.500140
H1741	H174	0.245500	0.417900	0.540000
C2611	C261	0.075230	0.199100	0.007310
C2621	C262	0.160410	0.447500	0.470720
C2631	C263	0.128100	0.523600	0.588250
C2641	C264	0.272120	0.407500	0.965660
H1751	H175	0.312500	0.434800	0.985800
C2651	C265	0.961130	0.639100	0.415850
H1761	H176	0.981800	0.616500	0.394400
C2661	C266	0.280000	0.301700	0.240820
H1771	H177	0.322100	0.325400	0.259900
C2671	C267	0.158530	0.513100	0.651850
C2681	C268	0.190900	0.257300	0.152440
C2691	C269	0.252540	0.372900	0.469650
H1781	H178	0.295100	0.350600	0.489900
C2701	C270	0.050140	0.577400	0.506050
C2711	C271	0.161060	0.394900	0.384670
H1791	H179	0.138700	0.387300	0.345000
C2721	C272	0.212180	0.461400	0.678650
H1801	H180	0.228000	0.430200	0.656900
C2731	C273	0.982360	0.142000	0.919100
H1811	H181	0.002100	0.164900	0.897000
C2741	C274	0.184250	0.325600	0.967490
C2751	C275	0.956880	0.665900	0.505480
H1821	H182	0.974400	0.662100	0.545400
C2761	C276	0.253430	0.292700	0.181730
H1831	H183	0.277500	0.310400	0.161700
C2771	C277	0.186900	0.243100	0.243280
H1841	H184	0.163900	0.225800	0.264300
C2781	C278	0.156300	0.231700	0.183860
H1851	H185	0.114100	0.207700	0.165700
C2791	C279	0.012780	0.150000	0.978330
C2801	C280	0.158930	0.247500	0.088550
C2811	C281	0.242100	0.456200	0.737810
H1861	H186	0.278300	0.421100	0.755300
C2821	C282	0.898940	0.709100	0.474800
H1871	H187	0.877600	0.733100	0.495200
C2831	C283	0.155630	0.325300	0.908090
H1881	H188	0.116300	0.296400	0.887300
C2841	C284	0.133760	0.555100	0.685610
H1891	H189	0.095700	0.587700	0.668900
C2851	C285	0.167400	0.546900	0.744750
H1901	H190	0.151400	0.576100	0.767300
C2861	C286	0.921930	0.071400	0.979800
H1911	H191	0.901700	0.046800	0.000900
C2871	C287	0.989050	0.627800	0.475330
C2881	C288	0.186720	0.368800	0.880010
H1921	H192	0.166500	0.369700	0.839900
N851	N85	0.871170	0.718990	0.417460
N861	N86	0.222460	0.364100	0.412190
N871	N87	0.221270	0.499900	0.771680
N881	N88	0.074800	0.538890	0.473070
N891	N89	0.156270	0.481440	0.559750
N901	N90	0.074850	0.572820	0.563360
N911	N91	0.244590	0.409900	0.907790
N921	N92	0.891800	0.064720	0.922080
N931	N93	0.246910	0.277200	0.272010
N941	N94	0.097470	0.239980	0.973530
N951	N95	0.104220	0.201000	0.064920
N961	N96	0.187240	0.287460	0.059330
