data_QOFCOF_clean_PM
_symmetry_space_group_name_H-M	'P1'
_cell_length_a	22.012100
_cell_length_b	16.530100
_cell_length_c	25.664100
_cell_angle_alpha	90.000000
_cell_angle_beta	115.386000
_cell_angle_gamma	90.000000
_symmetry_Int_Tables_number 1

loop_
_symmetry_equiv_pos_as_xyz
'x,y,z'

loop_
_atom_site_label
_atom_site_type_symbol
_atom_site_fract_x
_atom_site_fract_y
_atom_site_fract_z
Ag11	Ag1	0.773920	0.708830	0.368250
Ag21	Ag2	0.294820	0.000960	0.867690
C11	C1	0.923140	0.400500	0.892640
H11	H1	0.903800	0.405600	0.852700
C21	C2	0.128000	0.061800	0.411270
H21	H2	0.085600	0.039800	0.390000
C31	C3	0.153990	0.219300	0.001360
C41	C4	0.128250	0.007200	0.502560
C51	C5	0.903200	0.816700	0.389080
H31	H3	0.885100	0.810600	0.349200
C61	C6	0.981600	0.387200	0.009480
H41	H4	0.000700	0.384200	0.049500
C71	C7	0.075210	0.300800	0.007260
C81	C8	0.159950	0.052600	0.470420
C91	C9	0.243550	0.133500	0.996780
H51	H5	0.264200	0.133200	0.036900
C101	C10	0.223300	0.086300	0.499840
H61	H6	0.246100	0.081700	0.539700
C111	C11	0.158210	0.986700	0.651630
C121	C12	0.960900	0.861600	0.415880
H71	H7	0.981000	0.885100	0.394200
C131	C13	0.128060	0.976300	0.588260
C141	C14	0.271900	0.092600	0.965670
H81	H8	0.312100	0.065100	0.985900
C151	C15	0.252000	0.126400	0.469500
H91	H9	0.294500	0.148700	0.489800
C161	C16	0.050100	0.922700	0.505870
C171	C17	0.279600	0.198300	0.240600
H101	H10	0.321600	0.174300	0.259700
C181	C18	0.184030	0.174900	0.967270
C191	C19	0.190400	0.242600	0.151930
C201	C20	0.982060	0.358200	0.918840
H111	H11	0.001500	0.334900	0.896700
C211	C21	0.158970	0.252500	0.088510
C221	C22	0.160700	0.104800	0.384330
H121	H12	0.138300	0.112700	0.344700
C231	C23	0.186700	0.257300	0.242800
H131	H13	0.163700	0.274800	0.263800
C241	C24	0.957100	0.833900	0.505360
H141	H14	0.974700	0.837800	0.545300
C251	C25	0.252900	0.207200	0.181240
H151	H15	0.276900	0.189400	0.161200
C261	C26	0.212100	0.037900	0.678400
H161	H16	0.228400	0.068300	0.656600
C271	C27	0.012590	0.350100	0.978030
C281	C28	0.241700	0.043700	0.737600
H171	H17	0.277500	0.079300	0.754900
C291	C29	0.156500	0.268300	0.184100
H181	H18	0.114300	0.292300	0.166200
C301	C30	0.899000	0.790700	0.474710
H191	H19	0.877600	0.766900	0.495200
C311	C31	0.922100	0.428400	0.979700
H201	H20	0.901900	0.452900	0.000900
C321	C32	0.133700	0.945000	0.685500
H211	H21	0.095900	0.912100	0.668900
C331	C33	0.989140	0.872000	0.474830
C341	C34	0.155300	0.174600	0.907760
H221	H22	0.115900	0.203100	0.886800
C351	C35	0.166800	0.953500	0.744200
H231	H23	0.150400	0.924800	0.766600
C361	C36	0.186400	0.131000	0.879990
H241	H24	0.165900	0.129600	0.839900
N11	N1	0.871410	0.780900	0.417690
N21	N2	0.222230	0.135400	0.411980
N31	N3	0.221100	0.000200	0.771750
N41	N4	0.074570	0.960800	0.472770
N51	N5	0.155900	0.018400	0.559420
N61	N6	0.074920	0.927600	0.563120
N71	N7	0.244520	0.090500	0.907710
N81	N8	0.246950	0.223200	0.271810
N91	N9	0.891690	0.435400	0.922070
N101	N10	0.097570	0.260500	0.973380
N111	N11	0.186860	0.212700	0.058970
N121	N12	0.103920	0.299000	0.064580
Ag31	Ag3	0.273920	0.208830	0.368250
Ag41	Ag4	0.794820	0.500960	0.867690
C371	C37	0.423140	0.900500	0.892640
H251	H25	0.403800	0.905600	0.852700
C381	C38	0.628000	0.561800	0.411270
H261	H26	0.585600	0.539800	0.390000
C391	C39	0.653990	0.719300	0.001360
C401	C40	0.628250	0.507200	0.502560
C411	C41	0.403200	0.316700	0.389080
H271	H27	0.385100	0.310600	0.349200
C421	C42	0.481600	0.887200	0.009480
H281	H28	0.500700	0.884200	0.049500
C431	C43	0.575210	0.800800	0.007260
C441	C44	0.659950	0.552600	0.470420
C451	C45	0.743550	0.633500	0.996780
H291	H29	0.764200	0.633200	0.036900
C461	C46	0.723300	0.586300	0.499840
H301	H30	0.746100	0.581700	0.539700
C471	C47	0.658210	0.486700	0.651630
C481	C48	0.460900	0.361600	0.415880
H311	H31	0.481000	0.385100	0.394200
C491	C49	0.628060	0.476300	0.588260
C501	C50	0.771900	0.592600	0.965670
H321	H32	0.812100	0.565100	0.985900
C511	C51	0.752000	0.626400	0.469500
H331	H33	0.794500	0.648700	0.489800
C521	C52	0.550100	0.422700	0.505870
C531	C53	0.779600	0.698300	0.240600
H341	H34	0.821600	0.674300	0.259700
C541	C54	0.684030	0.674900	0.967270
C551	C55	0.690400	0.742600	0.151930
C561	C56	0.482060	0.858200	0.918840
H351	H35	0.501500	0.834900	0.896700
C571	C57	0.658970	0.752500	0.088510
C581	C58	0.660700	0.604800	0.384330
H361	H36	0.638300	0.612700	0.344700
C591	C59	0.686700	0.757300	0.242800
H371	H37	0.663700	0.774800	0.263800
C601	C60	0.457100	0.333900	0.505360
H381	H38	0.474700	0.337800	0.545300
C611	C61	0.752900	0.707200	0.181240
H391	H39	0.776900	0.689400	0.161200
C621	C62	0.712100	0.537900	0.678400
H401	H40	0.728400	0.568300	0.656600
C631	C63	0.512590	0.850100	0.978030
C641	C64	0.741700	0.543700	0.737600
H411	H41	0.777500	0.579300	0.754900
C651	C65	0.656500	0.768300	0.184100
H421	H42	0.614300	0.792300	0.166200
C661	C66	0.399000	0.290700	0.474710
H431	H43	0.377600	0.266900	0.495200
C671	C67	0.422100	0.928400	0.979700
H441	H44	0.401900	0.952900	0.000900
C681	C68	0.633700	0.445000	0.685500
H451	H45	0.595900	0.412100	0.668900
C691	C69	0.489140	0.372000	0.474830
C701	C70	0.655300	0.674600	0.907760
H461	H46	0.615900	0.703100	0.886800
C711	C71	0.666800	0.453500	0.744200
H471	H47	0.650400	0.424800	0.766600
C721	C72	0.686400	0.631000	0.879990
H481	H48	0.665900	0.629600	0.839900
N131	N13	0.371410	0.280900	0.417690
N141	N14	0.722230	0.635400	0.411980
N151	N15	0.721100	0.500200	0.771750
N161	N16	0.574570	0.460800	0.472770
N171	N17	0.655900	0.518400	0.559420
N181	N18	0.574920	0.427600	0.563120
N191	N19	0.744520	0.590500	0.907710
N201	N20	0.746950	0.723200	0.271810
N211	N21	0.391690	0.935400	0.922070
N221	N22	0.597570	0.760500	0.973380
N231	N23	0.686860	0.712700	0.058970
N241	N24	0.603920	0.799000	0.064580
Ag51	Ag5	0.226080	0.708830	0.131750
Ag61	Ag6	0.705180	0.000960	0.632310
C731	C73	0.076860	0.400500	0.607360
H491	H49	0.096200	0.405600	0.647300
C741	C74	0.872000	0.061800	0.088730
H501	H50	0.914400	0.039800	0.110000
C751	C75	0.846010	0.219300	0.498640
C761	C76	0.871750	0.007200	0.997440
C771	C77	0.096800	0.816700	0.110920
H511	H51	0.114900	0.810600	0.150800
C781	C78	0.018400	0.387200	0.490520
H521	H52	0.999300	0.384200	0.450500
C791	C79	0.924790	0.300800	0.492740
C801	C80	0.840050	0.052600	0.029580
C811	C81	0.756450	0.133500	0.503220
H531	H53	0.735800	0.133200	0.463100
C821	C82	0.776700	0.086300	0.000160
H541	H54	0.753900	0.081700	0.960300
C831	C83	0.841790	0.986700	0.848370
C841	C84	0.039100	0.861600	0.084120
H551	H55	0.019000	0.885100	0.105800
C851	C85	0.871940	0.976300	0.911740
C861	C86	0.728100	0.092600	0.534330
H561	H56	0.687900	0.065100	0.514100
C871	C87	0.748000	0.126400	0.030500
H571	H57	0.705500	0.148700	0.010200
C881	C88	0.949900	0.922700	0.994130
C891	C89	0.720400	0.198300	0.259400
H581	H58	0.678400	0.174300	0.240300
C901	C90	0.815970	0.174900	0.532730
C911	C91	0.809600	0.242600	0.348070
C921	C92	0.017940	0.358200	0.581160
H591	H59	0.998500	0.334900	0.603300
C931	C93	0.841030	0.252500	0.411490
C941	C94	0.839300	0.104800	0.115670
H601	H60	0.861700	0.112700	0.155300
C951	C95	0.813300	0.257300	0.257200
H611	H61	0.836300	0.274800	0.236200
C961	C96	0.042900	0.833900	0.994640
H621	H62	0.025300	0.837800	0.954700
C971	C97	0.747100	0.207200	0.318760
H631	H63	0.723100	0.189400	0.338800
C981	C98	0.787900	0.037900	0.821600
H641	H64	0.771600	0.068300	0.843400
C991	C99	0.987410	0.350100	0.521970
C1001	C100	0.758300	0.043700	0.762400
H651	H65	0.722500	0.079300	0.745100
C1011	C101	0.843500	0.268300	0.315900
H661	H66	0.885700	0.292300	0.333800
C1021	C102	0.101000	0.790700	0.025290
H671	H67	0.122400	0.766900	0.004800
C1031	C103	0.077900	0.428400	0.520300
H681	H68	0.098100	0.452900	0.499100
C1041	C104	0.866300	0.945000	0.814500
H691	H69	0.904100	0.912100	0.831100
C1051	C105	0.010860	0.872000	0.025170
C1061	C106	0.844700	0.174600	0.592240
H701	H70	0.884100	0.203100	0.613200
C1071	C107	0.833200	0.953500	0.755800
H711	H71	0.849600	0.924800	0.733400
C1081	C108	0.813600	0.131000	0.620010
H721	H72	0.834100	0.129600	0.660100
N251	N25	0.128590	0.780900	0.082310
N261	N26	0.777770	0.135400	0.088020
N271	N27	0.778900	0.000200	0.728250
N281	N28	0.925430	0.960800	0.027230
N291	N29	0.844100	0.018400	0.940580
N301	N30	0.925080	0.927600	0.936880
N311	N31	0.755480	0.090500	0.592290
N321	N32	0.753050	0.223200	0.228190
N331	N33	0.108310	0.435400	0.577930
N341	N34	0.902430	0.260500	0.526620
N351	N35	0.813140	0.212700	0.441030
N361	N36	0.896080	0.299000	0.435420
Ag71	Ag7	0.726080	0.208830	0.131750
Ag81	Ag8	0.205180	0.500960	0.632310
C1091	C109	0.576860	0.900500	0.607360
H731	H73	0.596200	0.905600	0.647300
C1101	C110	0.372000	0.561800	0.088730
H741	H74	0.414400	0.539800	0.110000
C1111	C111	0.346010	0.719300	0.498640
C1121	C112	0.371750	0.507200	0.997440
C1131	C113	0.596800	0.316700	0.110920
H751	H75	0.614900	0.310600	0.150800
C1141	C114	0.518400	0.887200	0.490520
H761	H76	0.499300	0.884200	0.450500
C1151	C115	0.424790	0.800800	0.492740
C1161	C116	0.340050	0.552600	0.029580
C1171	C117	0.256450	0.633500	0.503220
H771	H77	0.235800	0.633200	0.463100
C1181	C118	0.276700	0.586300	0.000160
H781	H78	0.253900	0.581700	0.960300
C1191	C119	0.341790	0.486700	0.848370
C1201	C120	0.539100	0.361600	0.084120
H791	H79	0.519000	0.385100	0.105800
C1211	C121	0.371940	0.476300	0.911740
C1221	C122	0.228100	0.592600	0.534330
H801	H80	0.187900	0.565100	0.514100
C1231	C123	0.248000	0.626400	0.030500
H811	H81	0.205500	0.648700	0.010200
C1241	C124	0.449900	0.422700	0.994130
C1251	C125	0.220400	0.698300	0.259400
H821	H82	0.178400	0.674300	0.240300
C1261	C126	0.315970	0.674900	0.532730
C1271	C127	0.309600	0.742600	0.348070
C1281	C128	0.517940	0.858200	0.581160
H831	H83	0.498500	0.834900	0.603300
C1291	C129	0.341030	0.752500	0.411490
C1301	C130	0.339300	0.604800	0.115670
H841	H84	0.361700	0.612700	0.155300
C1311	C131	0.313300	0.757300	0.257200
H851	H85	0.336300	0.774800	0.236200
C1321	C132	0.542900	0.333900	0.994640
H861	H86	0.525300	0.337800	0.954700
C1331	C133	0.247100	0.707200	0.318760
H871	H87	0.223100	0.689400	0.338800
C1341	C134	0.287900	0.537900	0.821600
H881	H88	0.271600	0.568300	0.843400
C1351	C135	0.487410	0.850100	0.521970
C1361	C136	0.258300	0.543700	0.762400
H891	H89	0.222500	0.579300	0.745100
C1371	C137	0.343500	0.768300	0.315900
H901	H90	0.385700	0.792300	0.333800
C1381	C138	0.601000	0.290700	0.025290
H911	H91	0.622400	0.266900	0.004800
C1391	C139	0.577900	0.928400	0.520300
H921	H92	0.598100	0.952900	0.499100
C1401	C140	0.366300	0.445000	0.814500
H931	H93	0.404100	0.412100	0.831100
C1411	C141	0.510860	0.372000	0.025170
C1421	C142	0.344700	0.674600	0.592240
H941	H94	0.384100	0.703100	0.613200
C1431	C143	0.333200	0.453500	0.755800
H951	H95	0.349600	0.424800	0.733400
C1441	C144	0.313600	0.631000	0.620010
H961	H96	0.334100	0.629600	0.660100
N371	N37	0.628590	0.280900	0.082310
N381	N38	0.277770	0.635400	0.088020
N391	N39	0.278900	0.500200	0.728250
N401	N40	0.425430	0.460800	0.027230
N411	N41	0.344100	0.518400	0.940580
N421	N42	0.425080	0.427600	0.936880
N431	N43	0.255480	0.590500	0.592290
N441	N44	0.253050	0.723200	0.228190
N451	N45	0.608310	0.935400	0.577930
N461	N46	0.402430	0.760500	0.526620
N471	N47	0.313140	0.712700	0.441030
N481	N48	0.396080	0.799000	0.435420
Ag91	Ag9	0.226080	0.291170	0.631750
Ag101	Ag10	0.705180	0.999040	0.132310
C1451	C145	0.076860	0.599500	0.107360
H971	H97	0.096200	0.594400	0.147300
C1461	C146	0.872000	0.938200	0.588730
H981	H98	0.914400	0.960200	0.610000
C1471	C147	0.846010	0.780700	0.998640
C1481	C148	0.871750	0.992800	0.497440
C1491	C149	0.096800	0.183300	0.610920
H991	H99	0.114900	0.189400	0.650800
C1501	C150	0.018400	0.612800	0.990520
H1001	H100	0.999300	0.615800	0.950500
C1511	C151	0.924790	0.699200	0.992740
C1521	C152	0.840050	0.947400	0.529580
C1531	C153	0.756450	0.866500	0.003220
H1011	H101	0.735800	0.866800	0.963100
C1541	C154	0.776700	0.913700	0.500160
H1021	H102	0.753900	0.918300	0.460300
C1551	C155	0.841790	0.013300	0.348370
C1561	C156	0.039100	0.138400	0.584120
H1031	H103	0.019000	0.114900	0.605800
C1571	C157	0.871940	0.023700	0.411740
C1581	C158	0.728100	0.907400	0.034330
H1041	H104	0.687900	0.934900	0.014100
C1591	C159	0.748000	0.873600	0.530500
H1051	H105	0.705500	0.851300	0.510200
C1601	C160	0.949900	0.077300	0.494130
C1611	C161	0.720400	0.801700	0.759400
H1061	H106	0.678400	0.825700	0.740300
C1621	C162	0.815970	0.825100	0.032730
C1631	C163	0.809600	0.757400	0.848070
C1641	C164	0.017940	0.641800	0.081160
H1071	H107	0.998500	0.665100	0.103300
C1651	C165	0.841030	0.747500	0.911490
C1661	C166	0.839300	0.895200	0.615670
H1081	H108	0.861700	0.887300	0.655300
C1671	C167	0.813300	0.742700	0.757200
H1091	H109	0.836300	0.725200	0.736200
C1681	C168	0.042900	0.166100	0.494640
H1101	H110	0.025300	0.162200	0.454700
C1691	C169	0.747100	0.792800	0.818760
H1111	H111	0.723100	0.810600	0.838800
C1701	C170	0.787900	0.962100	0.321600
H1121	H112	0.771600	0.931700	0.343400
C1711	C171	0.987410	0.649900	0.021970
C1721	C172	0.758300	0.956300	0.262400
H1131	H113	0.722500	0.920700	0.245100
C1731	C173	0.843500	0.731700	0.815900
H1141	H114	0.885700	0.707700	0.833800
C1741	C174	0.101000	0.209300	0.525290
H1151	H115	0.122400	0.233100	0.504800
C1751	C175	0.077900	0.571600	0.020300
H1161	H116	0.098100	0.547100	0.999100
C1761	C176	0.866300	0.055000	0.314500
H1171	H117	0.904100	0.087900	0.331100
C1771	C177	0.010860	0.128000	0.525170
C1781	C178	0.844700	0.825400	0.092240
H1181	H118	0.884100	0.796900	0.113200
C1791	C179	0.833200	0.046500	0.255800
H1191	H119	0.849600	0.075200	0.233400
C1801	C180	0.813600	0.869000	0.120010
H1201	H120	0.834100	0.870400	0.160100
N491	N49	0.128590	0.219100	0.582310
N501	N50	0.777770	0.864600	0.588020
N511	N51	0.778900	0.999800	0.228250
N521	N52	0.925430	0.039200	0.527230
N531	N53	0.844100	0.981600	0.440580
N541	N54	0.925080	0.072400	0.436880
N551	N55	0.755480	0.909500	0.092290
N561	N56	0.753050	0.776800	0.728190
N571	N57	0.108310	0.564600	0.077930
N581	N58	0.902430	0.739500	0.026620
N591	N59	0.813140	0.787300	0.941030
N601	N60	0.896080	0.701000	0.935420
Ag111	Ag11	0.726080	0.791170	0.631750
Ag121	Ag12	0.205180	0.499040	0.132310
C1811	C181	0.576860	0.099500	0.107360
H1211	H121	0.596200	0.094400	0.147300
C1821	C182	0.372000	0.438200	0.588730
H1221	H122	0.414400	0.460200	0.610000
C1831	C183	0.346010	0.280700	0.998640
C1841	C184	0.371750	0.492800	0.497440
C1851	C185	0.596800	0.683300	0.610920
H1231	H123	0.614900	0.689400	0.650800
C1861	C186	0.518400	0.112800	0.990520
H1241	H124	0.499300	0.115800	0.950500
C1871	C187	0.424790	0.199200	0.992740
C1881	C188	0.340050	0.447400	0.529580
C1891	C189	0.256450	0.366500	0.003220
H1251	H125	0.235800	0.366800	0.963100
C1901	C190	0.276700	0.413700	0.500160
H1261	H126	0.253900	0.418300	0.460300
C1911	C191	0.341790	0.513300	0.348370
C1921	C192	0.539100	0.638400	0.584120
H1271	H127	0.519000	0.614900	0.605800
C1931	C193	0.371940	0.523700	0.411740
C1941	C194	0.228100	0.407400	0.034330
H1281	H128	0.187900	0.434900	0.014100
C1951	C195	0.248000	0.373600	0.530500
H1291	H129	0.205500	0.351300	0.510200
C1961	C196	0.449900	0.577300	0.494130
C1971	C197	0.220400	0.301700	0.759400
H1301	H130	0.178400	0.325700	0.740300
C1981	C198	0.315970	0.325100	0.032730
C1991	C199	0.309600	0.257400	0.848070
C2001	C200	0.517940	0.141800	0.081160
H1311	H131	0.498500	0.165100	0.103300
C2011	C201	0.341030	0.247500	0.911490
C2021	C202	0.339300	0.395200	0.615670
H1321	H132	0.361700	0.387300	0.655300
C2031	C203	0.313300	0.242700	0.757200
H1331	H133	0.336300	0.225200	0.736200
C2041	C204	0.542900	0.666100	0.494640
H1341	H134	0.525300	0.662200	0.454700
C2051	C205	0.247100	0.292800	0.818760
H1351	H135	0.223100	0.310600	0.838800
C2061	C206	0.287900	0.462100	0.321600
H1361	H136	0.271600	0.431700	0.343400
C2071	C207	0.487410	0.149900	0.021970
C2081	C208	0.258300	0.456300	0.262400
H1371	H137	0.222500	0.420700	0.245100
C2091	C209	0.343500	0.231700	0.815900
H1381	H138	0.385700	0.207700	0.833800
C2101	C210	0.601000	0.709300	0.525290
H1391	H139	0.622400	0.733100	0.504800
C2111	C211	0.577900	0.071600	0.020300
H1401	H140	0.598100	0.047100	0.999100
C2121	C212	0.366300	0.555000	0.314500
H1411	H141	0.404100	0.587900	0.331100
C2131	C213	0.510860	0.628000	0.525170
C2141	C214	0.344700	0.325400	0.092240
H1421	H142	0.384100	0.296900	0.113200
C2151	C215	0.333200	0.546500	0.255800
H1431	H143	0.349600	0.575200	0.233400
C2161	C216	0.313600	0.369000	0.120010
H1441	H144	0.334100	0.370400	0.160100
N611	N61	0.628590	0.719100	0.582310
N621	N62	0.277770	0.364600	0.588020
N631	N63	0.278900	0.499800	0.228250
N641	N64	0.425430	0.539200	0.527230
N651	N65	0.344100	0.481600	0.440580
N661	N66	0.425080	0.572400	0.436880
N671	N67	0.255480	0.409500	0.092290
N681	N68	0.253050	0.276800	0.728190
N691	N69	0.608310	0.064600	0.077930
N701	N70	0.402430	0.239500	0.026620
N711	N71	0.313140	0.287300	0.941030
N721	N72	0.396080	0.201000	0.935420
Ag131	Ag13	0.773920	0.291170	0.868250
Ag141	Ag14	0.294820	0.999040	0.367690
C2171	C217	0.923140	0.599500	0.392640
H1451	H145	0.903800	0.594400	0.352700
C2181	C218	0.128000	0.938200	0.911270
H1461	H146	0.085600	0.960200	0.890000
C2191	C219	0.153990	0.780700	0.501360
C2201	C220	0.128250	0.992800	0.002560
C2211	C221	0.903200	0.183300	0.889080
H1471	H147	0.885100	0.189400	0.849200
C2221	C222	0.981600	0.612800	0.509480
H1481	H148	0.000700	0.615800	0.549500
C2231	C223	0.075210	0.699200	0.507260
C2241	C224	0.159950	0.947400	0.970420
C2251	C225	0.243550	0.866500	0.496780
H1491	H149	0.264200	0.866800	0.536900
C2261	C226	0.223300	0.913700	0.999840
H1501	H150	0.246100	0.918300	0.039700
C2271	C227	0.158210	0.013300	0.151630
C2281	C228	0.960900	0.138400	0.915880
H1511	H151	0.981000	0.114900	0.894200
C2291	C229	0.128060	0.023700	0.088260
C2301	C230	0.271900	0.907400	0.465670
H1521	H152	0.312100	0.934900	0.485900
C2311	C231	0.252000	0.873600	0.969500
H1531	H153	0.294500	0.851300	0.989800
C2321	C232	0.050100	0.077300	0.005870
C2331	C233	0.279600	0.801700	0.740600
H1541	H154	0.321600	0.825700	0.759700
C2341	C234	0.184030	0.825100	0.467270
C2351	C235	0.190400	0.757400	0.651930
C2361	C236	0.982060	0.641800	0.418840
H1551	H155	0.001500	0.665100	0.396700
C2371	C237	0.158970	0.747500	0.588510
C2381	C238	0.160700	0.895200	0.884330
H1561	H156	0.138300	0.887300	0.844700
C2391	C239	0.186700	0.742700	0.742800
H1571	H157	0.163700	0.725200	0.763800
C2401	C240	0.957100	0.166100	0.005360
H1581	H158	0.974700	0.162200	0.045300
C2411	C241	0.252900	0.792800	0.681240
H1591	H159	0.276900	0.810600	0.661200
C2421	C242	0.212100	0.962100	0.178400
H1601	H160	0.228400	0.931700	0.156600
C2431	C243	0.012590	0.649900	0.478030
C2441	C244	0.241700	0.956300	0.237600
H1611	H161	0.277500	0.920700	0.254900
C2451	C245	0.156500	0.731700	0.684100
H1621	H162	0.114300	0.707700	0.666200
C2461	C246	0.899000	0.209300	0.974710
H1631	H163	0.877600	0.233100	0.995200
C2471	C247	0.922100	0.571600	0.479700
H1641	H164	0.901900	0.547100	0.500900
C2481	C248	0.133700	0.055000	0.185500
H1651	H165	0.095900	0.087900	0.168900
C2491	C249	0.989140	0.128000	0.974830
C2501	C250	0.155300	0.825400	0.407760
H1661	H166	0.115900	0.796900	0.386800
C2511	C251	0.166800	0.046500	0.244200
H1671	H167	0.150400	0.075200	0.266600
C2521	C252	0.186400	0.869000	0.379990
H1681	H168	0.165900	0.870400	0.339900
N731	N73	0.871410	0.219100	0.917690
N741	N74	0.222230	0.864600	0.911980
N751	N75	0.221100	0.999800	0.271750
N761	N76	0.074570	0.039200	0.972770
N771	N77	0.155900	0.981600	0.059420
N781	N78	0.074920	0.072400	0.063120
N791	N79	0.244520	0.909500	0.407710
N801	N80	0.246950	0.776800	0.771810
N811	N81	0.891690	0.564600	0.422070
N821	N82	0.097570	0.739500	0.473380
N831	N83	0.186860	0.787300	0.558970
N841	N84	0.103920	0.701000	0.564580
Ag151	Ag15	0.273920	0.791170	0.868250
Ag161	Ag16	0.794820	0.499040	0.367690
C2531	C253	0.423140	0.099500	0.392640
H1691	H169	0.403800	0.094400	0.352700
C2541	C254	0.628000	0.438200	0.911270
H1701	H170	0.585600	0.460200	0.890000
C2551	C255	0.653990	0.280700	0.501360
C2561	C256	0.628250	0.492800	0.002560
C2571	C257	0.403200	0.683300	0.889080
H1711	H171	0.385100	0.689400	0.849200
C2581	C258	0.481600	0.112800	0.509480
H1721	H172	0.500700	0.115800	0.549500
C2591	C259	0.575210	0.199200	0.507260
C2601	C260	0.659950	0.447400	0.970420
C2611	C261	0.743550	0.366500	0.496780
H1731	H173	0.764200	0.366800	0.536900
C2621	C262	0.723300	0.413700	0.999840
H1741	H174	0.746100	0.418300	0.039700
C2631	C263	0.658210	0.513300	0.151630
C2641	C264	0.460900	0.638400	0.915880
H1751	H175	0.481000	0.614900	0.894200
C2651	C265	0.628060	0.523700	0.088260
C2661	C266	0.771900	0.407400	0.465670
H1761	H176	0.812100	0.434900	0.485900
C2671	C267	0.752000	0.373600	0.969500
H1771	H177	0.794500	0.351300	0.989800
C2681	C268	0.550100	0.577300	0.005870
C2691	C269	0.779600	0.301700	0.740600
H1781	H178	0.821600	0.325700	0.759700
C2701	C270	0.684030	0.325100	0.467270
C2711	C271	0.690400	0.257400	0.651930
C2721	C272	0.482060	0.141800	0.418840
H1791	H179	0.501500	0.165100	0.396700
C2731	C273	0.658970	0.247500	0.588510
C2741	C274	0.660700	0.395200	0.884330
H1801	H180	0.638300	0.387300	0.844700
C2751	C275	0.686700	0.242700	0.742800
H1811	H181	0.663700	0.225200	0.763800
C2761	C276	0.457100	0.666100	0.005360
H1821	H182	0.474700	0.662200	0.045300
C2771	C277	0.752900	0.292800	0.681240
H1831	H183	0.776900	0.310600	0.661200
C2781	C278	0.712100	0.462100	0.178400
H1841	H184	0.728400	0.431700	0.156600
C2791	C279	0.512590	0.149900	0.478030
C2801	C280	0.741700	0.456300	0.237600
H1851	H185	0.777500	0.420700	0.254900
C2811	C281	0.656500	0.231700	0.684100
H1861	H186	0.614300	0.207700	0.666200
C2821	C282	0.399000	0.709300	0.974710
H1871	H187	0.377600	0.733100	0.995200
C2831	C283	0.422100	0.071600	0.479700
H1881	H188	0.401900	0.047100	0.500900
C2841	C284	0.633700	0.555000	0.185500
H1891	H189	0.595900	0.587900	0.168900
C2851	C285	0.489140	0.628000	0.974830
C2861	C286	0.655300	0.325400	0.407760
H1901	H190	0.615900	0.296900	0.386800
C2871	C287	0.666800	0.546500	0.244200
H1911	H191	0.650400	0.575200	0.266600
C2881	C288	0.686400	0.369000	0.379990
H1921	H192	0.665900	0.370400	0.339900
N851	N85	0.371410	0.719100	0.917690
N861	N86	0.722230	0.364600	0.911980
N871	N87	0.721100	0.499800	0.271750
N881	N88	0.574570	0.539200	0.972770
N891	N89	0.655900	0.481600	0.059420
N901	N90	0.574920	0.572400	0.063120
N911	N91	0.744520	0.409500	0.407710
N921	N92	0.746950	0.276800	0.771810
N931	N93	0.391690	0.064600	0.422070
N941	N94	0.597570	0.239500	0.473380
N951	N95	0.686860	0.287300	0.558970
N961	N96	0.603920	0.201000	0.564580
