data_QOFKUT_clean_PM
_symmetry_space_group_name_H-M	'P1'
_cell_length_a	14.331900
_cell_length_b	14.331900
_cell_length_c	14.331900
_cell_angle_alpha	108.954000
_cell_angle_beta	108.954000
_cell_angle_gamma	110.510000
_symmetry_Int_Tables_number 1

loop_
_symmetry_equiv_pos_as_xyz
'x,y,z'

loop_
_atom_site_label
_atom_site_type_symbol
_atom_site_fract_x
_atom_site_fract_y
_atom_site_fract_z
Cu11	Cu1	0.048510	0.564800	0.411970
Cu21	Cu2	0.863460	0.451490	0.016290
Cu31	Cu3	0.136540	0.548510	0.983710
Cu41	Cu4	0.935200	0.847170	0.483710
Cu51	Cu5	0.347170	0.363460	0.911970
Cu61	Cu6	0.951490	0.435200	0.588030
Cu71	Cu7	0.064800	0.152830	0.516290
Cu81	Cu8	0.652830	0.636540	0.088030
H11	H1	0.732600	0.798200	0.552000
H21	H2	0.135200	0.036800	0.118600
H31	H3	0.680600	0.232600	0.434400
H41	H4	0.536800	0.918200	0.901600
H51	H5	0.746200	0.180600	0.948000
H61	H6	0.700300	0.124400	0.599700
H71	H7	0.701800	0.753800	0.934400
H81	H8	0.975300	0.899400	0.099700
H91	H9	0.024700	0.100600	0.900300
H101	H10	0.399400	0.799700	0.924100
H111	H11	0.483400	0.364800	0.401600
H121	H12	0.273300	0.996300	0.096400
H131	H13	0.864800	0.963200	0.881400
H141	H14	0.624400	0.524700	0.424100
H151	H15	0.399900	0.176900	0.403600
H161	H16	0.463200	0.081800	0.098400
H171	H17	0.299700	0.875600	0.400300
H181	H18	0.418200	0.016600	0.381400
H191	H19	0.323100	0.226700	0.223000
H201	H20	0.298200	0.246200	0.065600
H211	H21	0.516600	0.635200	0.598400
H221	H22	0.267400	0.201800	0.448000
H231	H23	0.600600	0.200300	0.075900
H241	H24	0.726700	0.003700	0.903600
H251	H25	0.676900	0.773300	0.777000
H261	H26	0.496300	0.899900	0.723000
H271	H27	0.375600	0.475300	0.575900
H281	H28	0.319400	0.767400	0.565600
H291	H29	0.600100	0.823100	0.596400
H301	H30	0.503700	0.100100	0.277000
H311	H31	0.253800	0.819400	0.052000
H321	H32	0.581800	0.983400	0.618600
C11	C1	0.864300	0.421100	0.196200
C21	C2	0.476500	0.375000	0.339300
C31	C3	0.621500	0.708800	0.769700
C41	C4	0.921100	0.224900	0.556800
C51	C5	0.135700	0.578900	0.803800
C61	C6	0.273100	0.709700	0.756800
C71	C7	0.464300	0.862800	0.839300
C81	C8	0.547100	0.483700	0.256800
C91	C9	0.099500	0.749100	0.047800
C101	C10	0.378500	0.291200	0.230300
C111	C11	0.387900	0.436400	0.764700
C121	C12	0.726900	0.290300	0.243200
C131	C13	0.030000	0.883100	0.090100
C141	C14	0.063600	0.328300	0.951500
C151	C15	0.016300	0.773100	0.063400
C161	C16	0.612100	0.563600	0.235300
C171	C17	0.560900	0.148200	0.269700
C181	C18	0.936400	0.671700	0.048500
C191	C19	0.875000	0.035700	0.898500
C201	C20	0.452900	0.516300	0.743200
C211	C21	0.726700	0.862900	0.561000
C221	C22	0.551700	0.599500	0.850400
C231	C23	0.791200	0.060900	0.912700
C241	C24	0.125000	0.964300	0.101500
C251	C25	0.831900	0.635700	0.056800
C261	C26	0.168100	0.364300	0.943200
C271	C27	0.208800	0.939100	0.087300
C281	C28	0.750900	0.298700	0.350400
C291	C29	0.637200	0.976500	0.601500
C301	C30	0.665700	0.226700	0.363800
C311	C31	0.293000	0.939900	0.409900
C321	C32	0.362900	0.301900	0.136200
C331	C33	0.439900	0.530000	0.646900
C341	C34	0.275100	0.331900	0.696200
C351	C35	0.798700	0.948300	0.547800
C361	C36	0.523500	0.625000	0.660700
C371	C37	0.351800	0.121500	0.412700
C381	C38	0.983700	0.226900	0.936600
C391	C39	0.334300	0.773300	0.636200
C401	C40	0.078900	0.775100	0.443200
C411	C41	0.273300	0.137100	0.439000
C421	C42	0.198100	0.834300	0.061000
C431	C43	0.362800	0.023500	0.398500
C441	C44	0.637100	0.698100	0.863800
C451	C45	0.648200	0.878500	0.587300
C461	C46	0.209700	0.952900	0.436600
C471	C47	0.724900	0.668100	0.303800
C481	C48	0.535700	0.137200	0.160700
C491	C49	0.828300	0.376800	0.264700
C501	C50	0.249100	0.701300	0.649600
C511	C51	0.560100	0.470000	0.353100
C521	C52	0.801900	0.165700	0.939000
C531	C53	0.790300	0.047100	0.563400
C541	C54	0.876800	0.112100	0.548500
C551	C55	0.616900	0.207000	0.146900
C561	C56	0.201300	0.051700	0.452200
C571	C57	0.171700	0.623200	0.735300
C581	C58	0.448300	0.400500	0.149600
C591	C59	0.707000	0.060100	0.590100
C601	C60	0.383100	0.793000	0.853100
C611	C61	0.970000	0.116900	0.909900
C621	C62	0.900500	0.250900	0.952200
C631	C63	0.439100	0.851800	0.730300
C641	C64	0.123200	0.887900	0.451500
N11	N1	0.930100	0.056600	0.523500
N21	N2	0.556600	0.533100	0.126500
N31	N3	0.069900	0.943400	0.476500
N41	N4	0.138000	0.615700	0.570700
N51	N5	0.932700	0.362000	0.977700
N61	N6	0.966900	0.593400	0.023500
N71	N7	0.093400	0.569900	0.626500
N81	N8	0.115700	0.045000	0.477700
N91	N9	0.067300	0.638000	0.022300
N101	N10	0.884300	0.955000	0.522300
N111	N11	0.862000	0.384300	0.429300
N121	N12	0.455000	0.432700	0.070700
N131	N13	0.545000	0.567300	0.929300
N141	N14	0.033100	0.406600	0.976500
N151	N15	0.443400	0.466900	0.873500
N161	N16	0.906600	0.430100	0.373500
O11	O1	0.129620	0.720670	0.428670
O21	O2	0.870380	0.279330	0.571330
O31	O3	0.990590	0.738620	0.452830
O41	O4	0.238620	0.285790	0.748030
O51	O5	0.779330	0.708000	0.408950
O61	O6	0.792000	0.700950	0.071330
O71	O7	0.208000	0.299050	0.928670
O81	O8	0.785790	0.537760	0.047170
O91	O9	0.200950	0.629620	0.908950
O101	O10	0.220670	0.292000	0.591050
O111	O11	0.761380	0.714210	0.251970
O121	O12	0.009410	0.261380	0.547170
O131	O13	0.037760	0.490590	0.751970
O141	O14	0.799050	0.370380	0.091050
O151	O15	0.214210	0.462240	0.952830
O161	O16	0.962240	0.509410	0.248030
