data_QOFPAE_clean_PM
_symmetry_space_group_name_H-M	'P1'
_cell_length_a	9.515200
_cell_length_b	33.144000
_cell_length_c	9.656900
_cell_angle_alpha	90.000000
_cell_angle_beta	93.211000
_cell_angle_gamma	90.000000
_symmetry_Int_Tables_number 1

loop_
_symmetry_equiv_pos_as_xyz
'x,y,z'

loop_
_atom_site_label
_atom_site_type_symbol
_atom_site_fract_x
_atom_site_fract_y
_atom_site_fract_z
U11	U1	0.080500	0.240210	0.663360
U21	U2	0.181490	0.240600	0.266700
U31	U3	0.549400	0.007360	0.799800
U41	U4	0.949240	0.007630	0.695370
U51	U5	0.644020	0.130480	0.442880
P11	P1	0.711600	0.020240	0.458700
P21	P2	0.428200	0.221730	0.494900
P31	P3	0.785000	0.021180	0.038700
P41	P4	0.831900	0.230740	0.432900
O11	O1	0.759000	0.259200	0.331300
O21	O2	0.616100	0.989800	0.384400
O31	O3	0.699100	0.017800	0.617900
O41	O4	0.883000	0.994800	0.126600
O51	O5	0.435800	0.236900	0.344900
O61	O6	0.802000	0.016900	0.882800
O71	O7	0.828100	0.247000	0.583900
O81	O8	0.994400	0.230300	0.415000
O91	O9	0.503100	0.251000	0.593900
O101	O10	0.265400	0.223800	0.512600
O111	O11	0.868100	0.007500	0.448400
O121	O12	0.480300	0.179600	0.512100
O131	O13	0.631700	0.008800	0.052000
O141	O14	0.685400	0.061400	0.405000
O151	O15	0.808000	0.065900	0.080400
O161	O16	0.770800	0.189400	0.421200
U61	U6	0.419500	0.740210	0.836640
U71	U7	0.318510	0.740600	0.233300
U81	U8	0.950600	0.507360	0.700200
U91	U9	0.550760	0.507630	0.804630
U101	U10	0.855980	0.630480	0.057120
P51	P5	0.788400	0.520240	0.041300
P61	P6	0.071800	0.721730	0.005100
P71	P7	0.715000	0.521180	0.461300
P81	P8	0.668100	0.730740	0.067100
O171	O17	0.741000	0.759200	0.168700
O181	O18	0.883900	0.489800	0.115600
O191	O19	0.800900	0.517800	0.882100
O201	O20	0.617000	0.494800	0.373400
O211	O21	0.064200	0.736900	0.155100
O221	O22	0.698000	0.516900	0.617200
O231	O23	0.671900	0.747000	0.916100
O241	O24	0.505600	0.730300	0.085000
O251	O25	0.996900	0.751000	0.906100
O261	O26	0.234600	0.723800	0.987400
O271	O27	0.631900	0.507500	0.051600
O281	O28	0.019700	0.679600	0.987900
O291	O29	0.868300	0.508800	0.448000
O301	O30	0.814600	0.561400	0.095000
O311	O31	0.692000	0.565900	0.419600
O321	O32	0.729200	0.689400	0.078800
U111	U11	0.919500	0.759790	0.336640
U121	U12	0.818510	0.759400	0.733300
U131	U13	0.450600	0.992640	0.200200
U141	U14	0.050760	0.992370	0.304630
U151	U15	0.355980	0.869520	0.557120
P91	P9	0.288400	0.979760	0.541300
P101	P10	0.571800	0.778270	0.505100
P111	P11	0.215000	0.978820	0.961300
P121	P12	0.168100	0.769260	0.567100
O331	O33	0.241000	0.740800	0.668700
O341	O34	0.383900	0.010200	0.615600
O351	O35	0.300900	0.982200	0.382100
O361	O36	0.117000	0.005200	0.873400
O371	O37	0.564200	0.763100	0.655100
O381	O38	0.198000	0.983100	0.117200
O391	O39	0.171900	0.753000	0.416100
O401	O40	0.005600	0.769700	0.585000
O411	O41	0.496900	0.749000	0.406100
O421	O42	0.734600	0.776200	0.487400
O431	O43	0.131900	0.992500	0.551600
O441	O44	0.519700	0.820400	0.487900
O451	O45	0.368300	0.991200	0.948000
O461	O46	0.314600	0.938600	0.595000
O471	O47	0.192000	0.934100	0.919600
O481	O48	0.229200	0.810600	0.578800
U161	U16	0.580500	0.259790	0.163360
U171	U17	0.681490	0.259400	0.766700
U181	U18	0.049400	0.492640	0.299800
U191	U19	0.449240	0.492370	0.195370
U201	U20	0.144020	0.369520	0.942880
P131	P13	0.211600	0.479760	0.958700
P141	P14	0.928200	0.278270	0.994900
P151	P15	0.285000	0.478820	0.538700
P161	P16	0.331900	0.269260	0.932900
O491	O49	0.259000	0.240800	0.831300
O501	O50	0.116100	0.510200	0.884400
O511	O51	0.199100	0.482200	0.117900
O521	O52	0.383000	0.505200	0.626600
O531	O53	0.935800	0.263100	0.844900
O541	O54	0.302000	0.483100	0.382800
O551	O55	0.328100	0.253000	0.083900
O561	O56	0.494400	0.269700	0.915000
O571	O57	0.003100	0.249000	0.093900
O581	O58	0.765400	0.276200	0.012600
O591	O59	0.368100	0.492500	0.948400
O601	O60	0.980300	0.320400	0.012100
O611	O61	0.131700	0.491200	0.552000
O621	O62	0.185400	0.438600	0.905000
O631	O63	0.308000	0.434100	0.580400
O641	O64	0.270800	0.310600	0.921200
