data_QOHYET_clean_PM
_symmetry_space_group_name_H-M	'P1'
_cell_length_a	12.481800
_cell_length_b	21.763000
_cell_length_c	16.509000
_cell_angle_alpha	90.000000
_cell_angle_beta	103.577000
_cell_angle_gamma	90.000000
_symmetry_Int_Tables_number 1

loop_
_symmetry_equiv_pos_as_xyz
'x,y,z'

loop_
_atom_site_label
_atom_site_type_symbol
_atom_site_fract_x
_atom_site_fract_y
_atom_site_fract_z
Ce11	Ce1	0.971060	0.952620	0.099790
O11	O1	0.821800	0.941600	0.977000
O21	O2	0.869300	0.976600	0.862500
O31	O3	0.843100	0.044500	0.108900
O41	O4	0.925500	0.062100	0.008200
O51	O5	0.846700	0.912100	0.175300
O61	O6	0.879100	0.893400	0.310300
H11	H1	0.942500	0.026200	0.234200
C11	C1	0.799800	0.956700	0.901900
C21	C2	0.680900	0.953500	0.854900
C31	C3	0.598600	0.951500	0.900700
H21	H2	0.618200	0.950700	0.958600
C41	C4	0.489800	0.950800	0.859300
H31	H3	0.435800	0.950000	0.889600
C51	C5	0.458700	0.951200	0.772700
C61	C6	0.653300	0.952600	0.771700
H41	H4	0.708500	0.952800	0.742300
C71	C7	0.863700	0.079000	0.055600
C81	C8	0.813800	0.142500	0.043500
C91	C9	0.824400	0.179800	0.979900
H51	H5	0.863200	0.165700	0.941900
C101	C10	0.778800	0.238700	0.970100
C111	C11	0.709300	0.221000	0.094300
H61	H6	0.669600	0.234100	0.132300
C121	C12	0.754300	0.163100	0.102600
H71	H7	0.746200	0.137700	0.146000
C131	C13	0.816100	0.900600	0.240800
C141	C14	0.649400	0.893000	0.297800
H81	H8	0.695700	0.892000	0.350900
C151	C15	0.693800	0.894900	0.231100
C161	C16	0.624300	0.895600	0.151500
H91	H9	0.653900	0.898000	0.105000
C171	C17	0.513100	0.892700	0.141900
H101	H10	0.467600	0.890900	0.088600
C181	C18	0.465900	0.892500	0.210600
Ce21	Ce2	0.471060	0.452620	0.099790
O71	O7	0.321800	0.441600	0.977000
O81	O8	0.369300	0.476600	0.862500
O91	O9	0.343100	0.544500	0.108900
O101	O10	0.425500	0.562100	0.008200
O111	O11	0.346700	0.412100	0.175300
O121	O12	0.379100	0.393400	0.310300
H111	H11	0.442500	0.526200	0.234200
C191	C19	0.299800	0.456700	0.901900
C201	C20	0.180900	0.453500	0.854900
C211	C21	0.098600	0.451500	0.900700
H121	H12	0.118200	0.450700	0.958600
C221	C22	0.989800	0.450800	0.859300
H131	H13	0.935800	0.450000	0.889600
C231	C23	0.958700	0.451200	0.772700
C241	C24	0.153300	0.452600	0.771700
H141	H14	0.208500	0.452800	0.742300
C251	C25	0.363700	0.579000	0.055600
C261	C26	0.313800	0.642500	0.043500
C271	C27	0.324400	0.679800	0.979900
H151	H15	0.363200	0.665700	0.941900
C281	C28	0.278800	0.738700	0.970100
C291	C29	0.209300	0.721000	0.094300
H161	H16	0.169600	0.734100	0.132300
C301	C30	0.254300	0.663100	0.102600
H171	H17	0.246200	0.637700	0.146000
C311	C31	0.316100	0.400600	0.240800
C321	C32	0.149400	0.393000	0.297800
H181	H18	0.195700	0.392000	0.350900
C331	C33	0.193800	0.394900	0.231100
C341	C34	0.124300	0.395600	0.151500
H191	H19	0.153900	0.398000	0.105000
C351	C35	0.013100	0.392700	0.141900
H201	H20	0.967600	0.390900	0.088600
C361	C36	0.965900	0.392500	0.210600
Ce31	Ce3	0.028940	0.952620	0.400210
O131	O13	0.178200	0.941600	0.523000
O141	O14	0.130700	0.976600	0.637500
O151	O15	0.156900	0.044500	0.391100
O161	O16	0.074500	0.062100	0.491800
O171	O17	0.153300	0.912100	0.324700
O181	O18	0.120900	0.893400	0.189700
H211	H21	0.057500	0.026200	0.265800
C371	C37	0.200200	0.956700	0.598100
C381	C38	0.319100	0.953500	0.645100
C391	C39	0.401400	0.951500	0.599300
H221	H22	0.381800	0.950700	0.541400
C401	C40	0.510200	0.950800	0.640700
H231	H23	0.564200	0.950000	0.610400
C411	C41	0.541300	0.951200	0.727300
C421	C42	0.346700	0.952600	0.728300
H241	H24	0.291500	0.952800	0.757700
C431	C43	0.136300	0.079000	0.444400
C441	C44	0.186200	0.142500	0.456500
C451	C45	0.175600	0.179800	0.520100
H251	H25	0.136800	0.165700	0.558100
C461	C46	0.221200	0.238700	0.529900
C471	C47	0.290700	0.221000	0.405700
H261	H26	0.330400	0.234100	0.367700
C481	C48	0.245700	0.163100	0.397400
H271	H27	0.253800	0.137700	0.354000
C491	C49	0.183900	0.900600	0.259200
C501	C50	0.350600	0.893000	0.202200
H281	H28	0.304300	0.892000	0.149100
C511	C51	0.306200	0.894900	0.268900
C521	C52	0.375700	0.895600	0.348500
H291	H29	0.346100	0.898000	0.395000
C531	C53	0.486900	0.892700	0.358100
H301	H30	0.532400	0.890900	0.411400
C541	C54	0.534100	0.892500	0.289400
Ce41	Ce4	0.528940	0.452620	0.400210
O191	O19	0.678200	0.441600	0.523000
O201	O20	0.630700	0.476600	0.637500
O211	O21	0.656900	0.544500	0.391100
O221	O22	0.574500	0.562100	0.491800
O231	O23	0.653300	0.412100	0.324700
O241	O24	0.620900	0.393400	0.189700
H311	H31	0.557500	0.526200	0.265800
C551	C55	0.700200	0.456700	0.598100
C561	C56	0.819100	0.453500	0.645100
C571	C57	0.901400	0.451500	0.599300
H321	H32	0.881800	0.450700	0.541400
C581	C58	0.010200	0.450800	0.640700
H331	H33	0.064200	0.450000	0.610400
C591	C59	0.041300	0.451200	0.727300
C601	C60	0.846700	0.452600	0.728300
H341	H34	0.791500	0.452800	0.757700
C611	C61	0.636300	0.579000	0.444400
C621	C62	0.686200	0.642500	0.456500
C631	C63	0.675600	0.679800	0.520100
H351	H35	0.636800	0.665700	0.558100
C641	C64	0.721200	0.738700	0.529900
C651	C65	0.790700	0.721000	0.405700
H361	H36	0.830400	0.734100	0.367700
C661	C66	0.745700	0.663100	0.397400
H371	H37	0.753800	0.637700	0.354000
C671	C67	0.683900	0.400600	0.259200
C681	C68	0.850600	0.393000	0.202200
H381	H38	0.804300	0.392000	0.149100
C691	C69	0.806200	0.394900	0.268900
C701	C70	0.875700	0.395600	0.348500
H391	H39	0.846100	0.398000	0.395000
C711	C71	0.986900	0.392700	0.358100
H401	H40	0.032400	0.390900	0.411400
C721	C72	0.034100	0.392500	0.289400
Ce51	Ce5	0.028940	0.047380	0.900210
O251	O25	0.178200	0.058400	0.023000
O261	O26	0.130700	0.023400	0.137500
O271	O27	0.156900	0.955500	0.891100
O281	O28	0.074500	0.937900	0.991800
O291	O29	0.153300	0.087900	0.824700
O301	O30	0.120900	0.106600	0.689700
H411	H41	0.057500	0.973800	0.765800
C731	C73	0.200200	0.043300	0.098100
C741	C74	0.319100	0.046500	0.145100
C751	C75	0.401400	0.048500	0.099300
H421	H42	0.381800	0.049300	0.041400
C761	C76	0.510200	0.049200	0.140700
H431	H43	0.564200	0.050000	0.110400
C771	C77	0.541300	0.048800	0.227300
C781	C78	0.346700	0.047400	0.228300
H441	H44	0.291500	0.047200	0.257700
C791	C79	0.136300	0.921000	0.944400
C801	C80	0.186200	0.857500	0.956500
C811	C81	0.175600	0.820200	0.020100
H451	H45	0.136800	0.834300	0.058100
C821	C82	0.221200	0.761300	0.029900
C831	C83	0.290700	0.779000	0.905700
H461	H46	0.330400	0.765900	0.867700
C841	C84	0.245700	0.836900	0.897400
H471	H47	0.253800	0.862300	0.854000
C851	C85	0.183900	0.099400	0.759200
C861	C86	0.350600	0.107000	0.702200
H481	H48	0.304300	0.108000	0.649100
C871	C87	0.306200	0.105100	0.768900
C881	C88	0.375700	0.104400	0.848500
H491	H49	0.346100	0.102000	0.895000
C891	C89	0.486900	0.107300	0.858100
H501	H50	0.532400	0.109100	0.911400
C901	C90	0.534100	0.107500	0.789400
Ce61	Ce6	0.528940	0.547380	0.900210
O311	O31	0.678200	0.558400	0.023000
O321	O32	0.630700	0.523400	0.137500
O331	O33	0.656900	0.455500	0.891100
O341	O34	0.574500	0.437900	0.991800
O351	O35	0.653300	0.587900	0.824700
O361	O36	0.620900	0.606600	0.689700
H511	H51	0.557500	0.473800	0.765800
C911	C91	0.700200	0.543300	0.098100
C921	C92	0.819100	0.546500	0.145100
C931	C93	0.901400	0.548500	0.099300
H521	H52	0.881800	0.549300	0.041400
C941	C94	0.010200	0.549200	0.140700
H531	H53	0.064200	0.550000	0.110400
C951	C95	0.041300	0.548800	0.227300
C961	C96	0.846700	0.547400	0.228300
H541	H54	0.791500	0.547200	0.257700
C971	C97	0.636300	0.421000	0.944400
C981	C98	0.686200	0.357500	0.956500
C991	C99	0.675600	0.320200	0.020100
H551	H55	0.636800	0.334300	0.058100
C1001	C100	0.721200	0.261300	0.029900
C1011	C101	0.790700	0.279000	0.905700
H561	H56	0.830400	0.265900	0.867700
C1021	C102	0.745700	0.336900	0.897400
H571	H57	0.753800	0.362300	0.854000
C1031	C103	0.683900	0.599400	0.759200
C1041	C104	0.850600	0.607000	0.702200
H581	H58	0.804300	0.608000	0.649100
C1051	C105	0.806200	0.605100	0.768900
C1061	C106	0.875700	0.604400	0.848500
H591	H59	0.846100	0.602000	0.895000
C1071	C107	0.986900	0.607300	0.858100
H601	H60	0.032400	0.609100	0.911400
C1081	C108	0.034100	0.607500	0.789400
Ce71	Ce7	0.971060	0.047380	0.599790
O371	O37	0.821800	0.058400	0.477000
O381	O38	0.869300	0.023400	0.362500
O391	O39	0.843100	0.955500	0.608900
O401	O40	0.925500	0.937900	0.508200
O411	O41	0.846700	0.087900	0.675300
O421	O42	0.879100	0.106600	0.810300
H611	H61	0.942500	0.973800	0.734200
C1091	C109	0.799800	0.043300	0.401900
C1101	C110	0.680900	0.046500	0.354900
C1111	C111	0.598600	0.048500	0.400700
H621	H62	0.618200	0.049300	0.458600
C1121	C112	0.489800	0.049200	0.359300
H631	H63	0.435800	0.050000	0.389600
C1131	C113	0.458700	0.048800	0.272700
C1141	C114	0.653300	0.047400	0.271700
H641	H64	0.708500	0.047200	0.242300
C1151	C115	0.863700	0.921000	0.555600
C1161	C116	0.813800	0.857500	0.543500
C1171	C117	0.824400	0.820200	0.479900
H651	H65	0.863200	0.834300	0.441900
C1181	C118	0.778800	0.761300	0.470100
C1191	C119	0.709300	0.779000	0.594300
H661	H66	0.669600	0.765900	0.632300
C1201	C120	0.754300	0.836900	0.602600
H671	H67	0.746200	0.862300	0.646000
C1211	C121	0.816100	0.099400	0.740800
C1221	C122	0.649400	0.107000	0.797800
H681	H68	0.695700	0.108000	0.850900
C1231	C123	0.693800	0.105100	0.731100
C1241	C124	0.624300	0.104400	0.651500
H691	H69	0.653900	0.102000	0.605000
C1251	C125	0.513100	0.107300	0.641900
H701	H70	0.467600	0.109100	0.588600
C1261	C126	0.465900	0.107500	0.710600
Ce81	Ce8	0.471060	0.547380	0.599790
O431	O43	0.321800	0.558400	0.477000
O441	O44	0.369300	0.523400	0.362500
O451	O45	0.343100	0.455500	0.608900
O461	O46	0.425500	0.437900	0.508200
O471	O47	0.346700	0.587900	0.675300
O481	O48	0.379100	0.606600	0.810300
H711	H71	0.442500	0.473800	0.734200
C1271	C127	0.299800	0.543300	0.401900
C1281	C128	0.180900	0.546500	0.354900
C1291	C129	0.098600	0.548500	0.400700
H721	H72	0.118200	0.549300	0.458600
C1301	C130	0.989800	0.549200	0.359300
H731	H73	0.935800	0.550000	0.389600
C1311	C131	0.958700	0.548800	0.272700
C1321	C132	0.153300	0.547400	0.271700
H741	H74	0.208500	0.547200	0.242300
C1331	C133	0.363700	0.421000	0.555600
C1341	C134	0.313800	0.357500	0.543500
C1351	C135	0.324400	0.320200	0.479900
H751	H75	0.363200	0.334300	0.441900
C1361	C136	0.278800	0.261300	0.470100
C1371	C137	0.209300	0.279000	0.594300
H761	H76	0.169600	0.265900	0.632300
C1381	C138	0.254300	0.336900	0.602600
H771	H77	0.246200	0.362300	0.646000
C1391	C139	0.316100	0.599400	0.740800
C1401	C140	0.149400	0.607000	0.797800
H781	H78	0.195700	0.608000	0.850900
C1411	C141	0.193800	0.605100	0.731100
C1421	C142	0.124300	0.604400	0.651500
H791	H79	0.153900	0.602000	0.605000
C1431	C143	0.013100	0.607300	0.641900
H801	H80	0.967600	0.609100	0.588600
C1441	C144	0.965900	0.607500	0.710600
O491	O49	0.000000	0.004300	0.250000
O501	O50	0.500000	0.504300	0.250000
O511	O51	0.000000	0.995700	0.750000
O521	O52	0.500000	0.495700	0.750000
