data_QOJTUE_clean_PM
_symmetry_space_group_name_H-M	'P1'
_cell_length_a	14.081000
_cell_length_b	14.413000
_cell_length_c	16.420000
_cell_angle_alpha	90.000000
_cell_angle_beta	97.814000
_cell_angle_gamma	90.000000
_symmetry_Int_Tables_number 1

loop_
_symmetry_equiv_pos_as_xyz
'x,y,z'

loop_
_atom_site_label
_atom_site_type_symbol
_atom_site_fract_x
_atom_site_fract_y
_atom_site_fract_z
I11	I1	0.103630	0.238490	0.548640
Cu11	Cu1	0.247710	0.161150	0.480690
N11	N1	0.188500	0.120900	0.365100
C11	C1	0.244700	0.097400	0.309600
H11	H1	0.311900	0.095800	0.326600
C21	C2	0.211700	0.075100	0.228500
C31	C3	0.112200	0.078300	0.204100
H21	H2	0.085800	0.064900	0.149000
C41	C4	0.053600	0.101400	0.261600
C51	C5	0.094300	0.123800	0.340300
H31	H3	0.053200	0.142100	0.378800
N21	N2	0.303400	0.940100	0.059500
C61	C6	0.247600	0.976200	0.113000
H41	H4	0.184000	0.953700	0.111000
C71	C7	0.278900	0.044400	0.170400
C81	C8	0.370500	0.077900	0.172600
H51	H5	0.394200	0.124700	0.210700
C91	C9	0.427400	0.041900	0.118300
H61	H6	0.490900	0.064100	0.118200
C101	C10	0.391400	0.973600	0.064200
H71	H7	0.432300	0.948900	0.028000
I21	I2	0.603630	0.738490	0.548640
Cu21	Cu2	0.747710	0.661150	0.480690
N31	N3	0.688500	0.620900	0.365100
C111	C11	0.744700	0.597400	0.309600
H81	H8	0.811900	0.595800	0.326600
C121	C12	0.711700	0.575100	0.228500
C131	C13	0.612200	0.578300	0.204100
H91	H9	0.585800	0.564900	0.149000
C141	C14	0.553600	0.601400	0.261600
C151	C15	0.594300	0.623800	0.340300
H101	H10	0.553200	0.642100	0.378800
N41	N4	0.803400	0.440100	0.059500
C161	C16	0.747600	0.476200	0.113000
H111	H11	0.684000	0.453700	0.111000
C171	C17	0.778900	0.544400	0.170400
C181	C18	0.870500	0.577900	0.172600
H121	H12	0.894200	0.624700	0.210700
C191	C19	0.927400	0.541900	0.118300
H131	H13	0.990900	0.564100	0.118200
C201	C20	0.891400	0.473600	0.064200
H141	H14	0.932300	0.448900	0.028000
I31	I3	0.896370	0.238490	0.951360
Cu31	Cu3	0.752290	0.161150	0.019310
N51	N5	0.811500	0.120900	0.134900
C211	C21	0.755300	0.097400	0.190400
H151	H15	0.688100	0.095800	0.173400
C221	C22	0.788300	0.075100	0.271500
C231	C23	0.887800	0.078300	0.295900
H161	H16	0.914200	0.064900	0.351000
C241	C24	0.946400	0.101400	0.238400
C251	C25	0.905700	0.123800	0.159700
H171	H17	0.946800	0.142100	0.121200
N61	N6	0.696600	0.940100	0.440500
C261	C26	0.752400	0.976200	0.387000
H181	H18	0.816000	0.953700	0.389000
C271	C27	0.721100	0.044400	0.329600
C281	C28	0.629500	0.077900	0.327400
H191	H19	0.605800	0.124700	0.289300
C291	C29	0.572600	0.041900	0.381700
H201	H20	0.509100	0.064100	0.381800
C301	C30	0.608600	0.973600	0.435800
H211	H21	0.567700	0.948900	0.472000
I41	I4	0.396370	0.738490	0.951360
Cu41	Cu4	0.252290	0.661150	0.019310
N71	N7	0.311500	0.620900	0.134900
C311	C31	0.255300	0.597400	0.190400
H221	H22	0.188100	0.595800	0.173400
C321	C32	0.288300	0.575100	0.271500
C331	C33	0.387800	0.578300	0.295900
H231	H23	0.414200	0.564900	0.351000
C341	C34	0.446400	0.601400	0.238400
C351	C35	0.405700	0.623800	0.159700
H241	H24	0.446800	0.642100	0.121200
N81	N8	0.196600	0.440100	0.440500
C361	C36	0.252400	0.476200	0.387000
H251	H25	0.316000	0.453700	0.389000
C371	C37	0.221100	0.544400	0.329600
C381	C38	0.129500	0.577900	0.327400
H261	H26	0.105800	0.624700	0.289300
C391	C39	0.072600	0.541900	0.381700
H271	H27	0.009100	0.564100	0.381800
C401	C40	0.108600	0.473600	0.435800
H281	H28	0.067700	0.448900	0.472000
I51	I5	0.896370	0.761510	0.451360
Cu51	Cu5	0.752290	0.838850	0.519310
N91	N9	0.811500	0.879100	0.634900
C411	C41	0.755300	0.902600	0.690400
H291	H29	0.688100	0.904200	0.673400
C421	C42	0.788300	0.924900	0.771500
C431	C43	0.887800	0.921700	0.795900
H301	H30	0.914200	0.935100	0.851000
C441	C44	0.946400	0.898600	0.738400
C451	C45	0.905700	0.876200	0.659700
H311	H31	0.946800	0.857900	0.621200
N101	N10	0.696600	0.059900	0.940500
C461	C46	0.752400	0.023800	0.887000
H321	H32	0.816000	0.046300	0.889000
C471	C47	0.721100	0.955600	0.829600
C481	C48	0.629500	0.922100	0.827400
H331	H33	0.605800	0.875300	0.789300
C491	C49	0.572600	0.958100	0.881700
H341	H34	0.509100	0.935900	0.881800
C501	C50	0.608600	0.026400	0.935800
H351	H35	0.567700	0.051100	0.972000
I61	I6	0.396370	0.261510	0.451360
Cu61	Cu6	0.252290	0.338850	0.519310
N111	N11	0.311500	0.379100	0.634900
C511	C51	0.255300	0.402600	0.690400
H361	H36	0.188100	0.404200	0.673400
C521	C52	0.288300	0.424900	0.771500
C531	C53	0.387800	0.421700	0.795900
H371	H37	0.414200	0.435100	0.851000
C541	C54	0.446400	0.398600	0.738400
C551	C55	0.405700	0.376200	0.659700
H381	H38	0.446800	0.357900	0.621200
N121	N12	0.196600	0.559900	0.940500
C561	C56	0.252400	0.523800	0.887000
H391	H39	0.316000	0.546300	0.889000
C571	C57	0.221100	0.455600	0.829600
C581	C58	0.129500	0.422100	0.827400
H401	H40	0.105800	0.375300	0.789300
C591	C59	0.072600	0.458100	0.881700
H411	H41	0.009100	0.435900	0.881800
C601	C60	0.108600	0.526400	0.935800
H421	H42	0.067700	0.551100	0.972000
I71	I7	0.103630	0.761510	0.048640
Cu71	Cu7	0.247710	0.838850	0.980690
N131	N13	0.188500	0.879100	0.865100
C611	C61	0.244700	0.902600	0.809600
H431	H43	0.311900	0.904200	0.826600
C621	C62	0.211700	0.924900	0.728500
C631	C63	0.112200	0.921700	0.704100
H441	H44	0.085800	0.935100	0.649000
C641	C64	0.053600	0.898600	0.761600
C651	C65	0.094300	0.876200	0.840300
H451	H45	0.053200	0.857900	0.878800
N141	N14	0.303400	0.059900	0.559500
C661	C66	0.247600	0.023800	0.613000
H461	H46	0.184000	0.046300	0.611000
C671	C67	0.278900	0.955600	0.670400
C681	C68	0.370500	0.922100	0.672600
H471	H47	0.394200	0.875300	0.710700
C691	C69	0.427400	0.958100	0.618300
H481	H48	0.490900	0.935900	0.618200
C701	C70	0.391400	0.026400	0.564200
H491	H49	0.432300	0.051100	0.528000
I81	I8	0.603630	0.261510	0.048640
Cu81	Cu8	0.747710	0.338850	0.980690
N151	N15	0.688500	0.379100	0.865100
C711	C71	0.744700	0.402600	0.809600
H501	H50	0.811900	0.404200	0.826600
C721	C72	0.711700	0.424900	0.728500
C731	C73	0.612200	0.421700	0.704100
H511	H51	0.585800	0.435100	0.649000
C741	C74	0.553600	0.398600	0.761600
C751	C75	0.594300	0.376200	0.840300
H521	H52	0.553200	0.357900	0.878800
N161	N16	0.803400	0.559900	0.559500
C761	C76	0.747600	0.523800	0.613000
H531	H53	0.684000	0.546300	0.611000
C771	C77	0.778900	0.455600	0.670400
C781	C78	0.870500	0.422100	0.672600
H541	H54	0.894200	0.375300	0.710700
C791	C79	0.927400	0.458100	0.618300
H551	H55	0.990900	0.435900	0.618200
C801	C80	0.891400	0.526400	0.564200
H561	H56	0.932300	0.551100	0.528000
