data_QOJVAM_clean_PM
_symmetry_space_group_name_H-M	'P1'
_cell_length_a	10.091600
_cell_length_b	10.091600
_cell_length_c	16.437300
_cell_angle_alpha	95.926300
_cell_angle_beta	95.926300
_cell_angle_gamma	92.361600
_symmetry_Int_Tables_number 1

loop_
_symmetry_equiv_pos_as_xyz
'x,y,z'

loop_
_atom_site_label
_atom_site_type_symbol
_atom_site_fract_x
_atom_site_fract_y
_atom_site_fract_z
Cu11	Cu1	0.739910	0.064510	0.827880
Cu21	Cu2	0.560850	0.237010	0.791300
Cu31	Cu3	0.064510	0.739910	0.327880
Cu41	Cu4	0.237010	0.560850	0.291300
H11	H1	0.900800	0.018600	0.691200
H21	H2	0.876400	0.629800	0.597200
H31	H3	0.726300	0.581500	0.690700
H41	H4	0.663400	0.751600	0.784600
H51	H5	0.921800	0.746200	0.475100
H61	H6	0.112200	0.008200	0.657500
H71	H7	0.244900	0.970100	0.432200
H81	H8	0.342800	0.071200	0.691000
H91	H9	0.285700	0.187300	0.461700
H101	H10	0.570600	0.378400	0.629900
H111	H11	0.274300	0.382300	0.429300
H121	H12	0.661800	0.430800	0.525300
H131	H13	0.698900	0.590300	0.435200
H141	H14	0.523700	0.645700	0.342200
H151	H15	0.018600	0.900800	0.191200
H161	H16	0.629800	0.876400	0.097200
H171	H17	0.581500	0.726300	0.190700
H181	H18	0.751600	0.663400	0.284600
H191	H19	0.746200	0.921800	0.975100
H201	H20	0.008200	0.112200	0.157500
H211	H21	0.970100	0.244900	0.932200
H221	H22	0.071200	0.342800	0.191000
H231	H23	0.187300	0.285700	0.961700
H241	H24	0.378400	0.570600	0.129900
H251	H25	0.382300	0.274300	0.929300
H261	H26	0.430800	0.661800	0.025300
H271	H27	0.590300	0.698900	0.935200
H281	H28	0.645700	0.523700	0.842200
C11	C1	0.865400	0.929800	0.691100
C21	C2	0.902700	0.828700	0.635400
C31	C3	0.850900	0.698900	0.635300
C41	C4	0.761700	0.670300	0.690800
C51	C5	0.724300	0.771300	0.746600
C61	C6	0.991300	0.811900	0.494000
C71	C7	0.002800	0.871400	0.574800
C81	C8	0.104400	0.967600	0.602400
C91	C9	0.194600	0.004400	0.549300
C101	C10	0.183200	0.945000	0.468500
C111	C11	0.365900	0.128500	0.651700
C121	C12	0.298200	0.113600	0.573000
C131	C13	0.332000	0.197400	0.515500
C141	C14	0.433500	0.296100	0.536700
C151	C15	0.501200	0.311000	0.615400
C161	C16	0.360500	0.424500	0.430500
C171	C17	0.464600	0.391600	0.485700
C181	C18	0.590700	0.453300	0.487500
C191	C19	0.612700	0.548100	0.434000
C201	C20	0.508600	0.581000	0.378800
C211	C21	0.929800	0.865400	0.191100
C221	C22	0.828700	0.902700	0.135400
C231	C23	0.698900	0.850900	0.135300
C241	C24	0.670300	0.761700	0.190800
C251	C25	0.771300	0.724300	0.246600
C261	C26	0.811900	0.991300	0.994000
C271	C27	0.871400	0.002800	0.074800
C281	C28	0.967600	0.104400	0.102400
C291	C29	0.004400	0.194600	0.049300
C301	C30	0.945000	0.183200	0.968500
C311	C31	0.128500	0.365900	0.151700
C321	C32	0.113600	0.298200	0.073000
C331	C33	0.197400	0.332000	0.015500
C341	C34	0.296100	0.433500	0.036700
C351	C35	0.311000	0.501200	0.115400
C361	C36	0.424500	0.360500	0.930500
C371	C37	0.391600	0.464600	0.985700
C381	C38	0.453300	0.590700	0.987500
C391	C39	0.548100	0.612700	0.934000
C401	C40	0.581000	0.508600	0.878800
I11	I1	0.810570	0.290110	0.764200
I21	I2	0.490950	0.010510	0.854740
I31	I3	0.290110	0.810570	0.264200
I41	I4	0.010510	0.490950	0.354740
N11	N1	0.776200	0.901200	0.746700
N21	N2	0.081500	0.848700	0.440900
N31	N3	0.467400	0.227200	0.672900
N41	N4	0.382600	0.519200	0.377000
N51	N5	0.901200	0.776200	0.246700
N61	N6	0.848700	0.081500	0.940900
N71	N7	0.227200	0.467400	0.172900
N81	N8	0.519200	0.382600	0.877000
