data_QOKCID_clean_PM
_symmetry_space_group_name_H-M	'P1'
_cell_length_a	7.623800
_cell_length_b	12.341600
_cell_length_c	12.341600
_cell_angle_alpha	96.338900
_cell_angle_beta	94.160000
_cell_angle_gamma	85.840000
_symmetry_Int_Tables_number 1

loop_
_symmetry_equiv_pos_as_xyz
'x,y,z'

loop_
_atom_site_label
_atom_site_type_symbol
_atom_site_fract_x
_atom_site_fract_y
_atom_site_fract_z
Zn11	Zn1	0.436820	0.297220	0.765220
Zn21	Zn2	0.063180	0.765220	0.297220
Zn31	Zn3	0.563180	0.702780	0.234780
Zn41	Zn4	0.936820	0.234780	0.702780
H11	H1	0.710800	0.457100	0.052900
H21	H2	0.196100	0.434900	0.203500
H31	H3	0.066500	0.216800	0.946200
H41	H4	0.484000	0.364200	0.140400
H51	H5	0.413800	0.299000	0.229400
H61	H6	0.512700	0.120900	0.004500
H71	H7	0.789200	0.052900	0.457100
H81	H8	0.303900	0.203500	0.434900
H91	H9	0.433500	0.946200	0.216800
H101	H10	0.016000	0.140400	0.364200
H111	H11	0.086200	0.229400	0.299000
H121	H12	0.987300	0.004500	0.120900
H131	H13	0.289200	0.542900	0.947100
H141	H14	0.803900	0.565100	0.796500
H151	H15	0.933500	0.783200	0.053800
H161	H16	0.516000	0.635800	0.859600
H171	H17	0.586200	0.701000	0.770600
H181	H18	0.487300	0.879100	0.995500
H191	H19	0.210800	0.947100	0.542900
H201	H20	0.696100	0.796500	0.565100
H211	H21	0.566500	0.053800	0.783200
H221	H22	0.984000	0.859600	0.635800
H231	H23	0.913800	0.770600	0.701000
H241	H24	0.012700	0.995500	0.879100
H251	H25	0.750000	0.991200	0.991200
H261	H26	0.750000	0.273300	0.273300
H271	H27	0.250000	0.008800	0.008800
H281	H28	0.250000	0.726700	0.726700
C11	C1	0.870800	0.332300	0.984300
C21	C2	0.823200	0.422700	0.058100
C31	C3	0.946100	0.459000	0.138000
C41	C4	0.114500	0.408300	0.149100
C51	C5	0.158100	0.317500	0.077300
C61	C6	0.036800	0.278000	0.994000
C71	C7	0.743500	0.293700	0.893100
C81	C8	0.451000	0.293100	0.155300
C91	C9	0.605500	0.208800	0.141400
C101	C10	0.607400	0.125300	0.056300
C111	C11	0.896300	0.558800	0.215000
C121	C12	0.629200	0.984300	0.332300
C131	C13	0.676800	0.058100	0.422700
C141	C14	0.553900	0.138000	0.459000
C151	C15	0.385500	0.149100	0.408300
C161	C16	0.341900	0.077300	0.317500
C171	C17	0.463200	0.994000	0.278000
C181	C18	0.756500	0.893100	0.293700
C191	C19	0.049000	0.155300	0.293100
C201	C20	0.894500	0.141400	0.208800
C211	C21	0.892600	0.056300	0.125300
C221	C22	0.603700	0.215000	0.558800
C231	C23	0.129200	0.667700	0.015700
C241	C24	0.176800	0.577300	0.941900
C251	C25	0.053900	0.541000	0.862000
C261	C26	0.885500	0.591700	0.850900
C271	C27	0.841900	0.682500	0.922700
C281	C28	0.963200	0.722000	0.006000
C291	C29	0.256500	0.706300	0.106900
C301	C30	0.549000	0.706900	0.844700
C311	C31	0.394500	0.791200	0.858600
C321	C32	0.392600	0.874700	0.943700
C331	C33	0.103700	0.441200	0.785000
C341	C34	0.370800	0.015700	0.667700
C351	C35	0.323200	0.941900	0.577300
C361	C36	0.446100	0.862000	0.541000
C371	C37	0.614500	0.850900	0.591700
C381	C38	0.658100	0.922700	0.682500
C391	C39	0.536800	0.006000	0.722000
C401	C40	0.243500	0.106900	0.706300
C411	C41	0.951000	0.844700	0.706900
C421	C42	0.105500	0.858600	0.791200
C431	C43	0.107400	0.943700	0.874700
C441	C44	0.396300	0.785000	0.441200
C451	C45	0.750000	0.047700	0.047700
C461	C46	0.750000	0.216800	0.216800
C471	C47	0.250000	0.952300	0.952300
C481	C48	0.250000	0.783200	0.783200
O11	O1	0.590300	0.341340	0.891060
O21	O2	0.787200	0.218120	0.821760
O31	O3	0.736300	0.579000	0.226200
O41	O4	0.019800	0.612300	0.261280
O51	O5	0.313200	0.256440	0.079720
O61	O6	0.909700	0.891060	0.341340
O71	O7	0.712800	0.821760	0.218120
O81	O8	0.763700	0.226200	0.579000
O91	O9	0.480200	0.261280	0.612300
O101	O10	0.186800	0.079720	0.256440
O111	O11	0.409700	0.658660	0.108940
O121	O12	0.212800	0.781880	0.178240
O131	O13	0.263700	0.421000	0.773800
O141	O14	0.980200	0.387700	0.738720
O151	O15	0.686800	0.743560	0.920280
O161	O16	0.090300	0.108940	0.658660
O171	O17	0.287200	0.178240	0.781880
O181	O18	0.236300	0.773800	0.421000
O191	O19	0.519800	0.738720	0.387700
O201	O20	0.813200	0.920280	0.743560
