data_QOKKAE_clean_PM
_symmetry_space_group_name_H-M	'P1'
_cell_length_a	8.669700
_cell_length_b	10.155000
_cell_length_c	13.455000
_cell_angle_alpha	85.390000
_cell_angle_beta	89.000000
_cell_angle_gamma	77.260000
_symmetry_Int_Tables_number 1

loop_
_symmetry_equiv_pos_as_xyz
'x,y,z'

loop_
_atom_site_label
_atom_site_type_symbol
_atom_site_fract_x
_atom_site_fract_y
_atom_site_fract_z
Yb11	Yb1	0.081020	0.193300	0.502640
Yb21	Yb2	0.466990	0.232440	0.922840
O11	O1	0.063200	0.138200	0.335800
O21	O2	0.169900	0.093300	0.187400
O31	O3	0.461500	0.185900	0.090100
O41	O4	0.538100	0.966400	0.134500
O51	O5	0.841200	0.037300	0.492500
O61	O6	0.807400	0.257600	0.460200
O71	O7	0.560700	0.190700	0.613900
O81	O8	0.298200	0.207100	0.598800
O91	O9	0.993400	0.379400	0.596800
O101	O10	0.940300	0.604400	0.595800
O111	O11	0.333600	0.449400	0.957600
O121	O12	0.354600	0.639900	0.024800
N11	N1	0.328100	0.162200	0.410300
C11	C1	0.177000	0.122700	0.273500
C21	C2	0.333100	0.136300	0.314400
C31	C3	0.474000	0.117300	0.260400
C41	C4	0.613800	0.123600	0.309300
H11	H1	0.709800	0.110300	0.275500
C51	C5	0.605800	0.150100	0.409300
C61	C6	0.460400	0.169200	0.457100
C71	C7	0.438400	0.191600	0.566700
C81	C8	0.489000	0.088100	0.152800
C91	C9	0.759600	0.149200	0.459700
C101	C10	0.982100	0.493700	0.556300
C111	C11	0.410700	0.525500	0.995500
Yb31	Yb3	0.918980	0.806700	0.497360
Yb41	Yb4	0.533010	0.767560	0.077160
O131	O13	0.936800	0.861800	0.664200
O141	O14	0.830100	0.906700	0.812600
O151	O15	0.538500	0.814100	0.909900
O161	O16	0.461900	0.033600	0.865500
O171	O17	0.158800	0.962700	0.507500
O181	O18	0.192600	0.742400	0.539800
O191	O19	0.439300	0.809300	0.386100
O201	O20	0.701800	0.792900	0.401200
O211	O21	0.006600	0.620600	0.403200
O221	O22	0.059700	0.395600	0.404200
O231	O23	0.666400	0.550600	0.042400
O241	O24	0.645400	0.360100	0.975200
N21	N2	0.671900	0.837800	0.589700
C121	C12	0.823000	0.877300	0.726500
C131	C13	0.666900	0.863700	0.685600
C141	C14	0.526000	0.882700	0.739600
C151	C15	0.386200	0.876400	0.690700
H21	H2	0.290200	0.889700	0.724500
C161	C16	0.394200	0.849900	0.590700
C171	C17	0.539600	0.830800	0.542900
C181	C18	0.561600	0.808400	0.433300
C191	C19	0.511000	0.911900	0.847200
C201	C20	0.240400	0.850800	0.540300
C211	C21	0.017900	0.506300	0.443700
C221	C22	0.589300	0.474500	0.004500
