data_QOMDUS_clean_PM
_symmetry_space_group_name_H-M	'P1'
_cell_length_a	9.158600
_cell_length_b	9.796900
_cell_length_c	9.873000
_cell_angle_alpha	77.598000
_cell_angle_beta	89.947000
_cell_angle_gamma	88.060000
_symmetry_Int_Tables_number 1

loop_
_symmetry_equiv_pos_as_xyz
'x,y,z'

loop_
_atom_site_label
_atom_site_type_symbol
_atom_site_fract_x
_atom_site_fract_y
_atom_site_fract_z
Zn11	Zn1	0.779800	0.713240	0.808900
Zn21	Zn2	0.697200	0.370240	0.910580
Zn31	Zn3	0.220200	0.286760	0.191100
Zn41	Zn4	0.302800	0.629760	0.089420
Zn51	Zn5	0.000000	0.500000	0.000000
H11	H1	0.728600	0.548300	0.050400
H21	H2	0.900700	0.601400	0.428700
H31	H3	0.896500	0.976800	0.905100
H41	H4	0.489700	0.645200	0.467700
H51	H5	0.386100	0.922500	0.069800
H61	H6	0.271400	0.451700	0.949600
H71	H7	0.099300	0.398600	0.571300
H81	H8	0.103500	0.023200	0.094900
H91	H9	0.510300	0.354800	0.532300
H101	H10	0.613900	0.077500	0.930200
C11	C1	0.015200	0.474300	0.310700
C21	C2	0.971600	0.526900	0.437800
C31	C3	0.050100	0.810900	0.984800
C41	C4	0.977500	0.953400	0.966700
C51	C5	0.593800	0.547400	0.658100
C61	C6	0.516200	0.555700	0.522600
C71	C7	0.548100	0.811800	0.980700
C81	C8	0.474000	0.935300	0.018100
C91	C9	0.984800	0.525700	0.689300
C101	C10	0.028400	0.473100	0.562200
C111	C11	0.949900	0.189100	0.015200
C121	C12	0.022500	0.046600	0.033300
C131	C13	0.406200	0.452600	0.341900
C141	C14	0.483800	0.444300	0.477400
C151	C15	0.451900	0.188200	0.019300
C161	C16	0.526000	0.064700	0.981900
O11	O1	0.778700	0.529800	0.965700
O21	O2	0.967000	0.542900	0.196300
O31	O3	0.097000	0.366400	0.328200
O41	O4	0.994700	0.724200	0.924000
O51	O5	0.165000	0.789100	0.058500
O61	O6	0.601500	0.658200	0.700800
O71	O7	0.645500	0.427200	0.716000
O81	O8	0.671400	0.829200	0.924900
O91	O9	0.486000	0.695500	0.002900
O101	O10	0.221300	0.470200	0.034300
O111	O11	0.033000	0.457100	0.803700
O121	O12	0.903000	0.633600	0.671800
O131	O13	0.005300	0.275800	0.076000
O141	O14	0.835000	0.210900	0.941500
O151	O15	0.398500	0.341800	0.299200
O161	O16	0.354500	0.572800	0.284000
O171	O17	0.328600	0.170800	0.075100
O181	O18	0.514000	0.304500	0.997100
