data_QOMSAO_clean_PM
_symmetry_space_group_name_H-M	'P1'
_cell_length_a	13.598000
_cell_length_b	15.095000
_cell_length_c	15.251000
_cell_angle_alpha	90.000000
_cell_angle_beta	93.613000
_cell_angle_gamma	90.000000
_symmetry_Int_Tables_number 1

loop_
_symmetry_equiv_pos_as_xyz
'x,y,z'

loop_
_atom_site_label
_atom_site_type_symbol
_atom_site_fract_x
_atom_site_fract_y
_atom_site_fract_z
Cu11	Cu1	0.054540	0.813850	0.395890
C11	C1	0.317000	0.158500	0.122100
H11	H1	0.339100	0.142900	0.067700
C21	C2	0.258100	0.099800	0.163900
H21	H2	0.241400	0.045600	0.138100
C31	C3	0.224100	0.122100	0.244300
C41	C4	0.251400	0.202700	0.279400
H31	H3	0.229500	0.220200	0.333300
C51	C5	0.310700	0.257100	0.234900
H41	H4	0.329300	0.311100	0.260100
C61	C6	0.162800	0.061900	0.293500
C71	C7	0.580200	0.186700	0.193000
H51	H5	0.556300	0.150000	0.147600
C81	C8	0.650400	0.153900	0.253000
H61	H6	0.674900	0.096800	0.247100
C91	C9	0.683600	0.206600	0.321800
C101	C10	0.645100	0.289100	0.326500
H71	H7	0.664800	0.325800	0.373300
C111	C11	0.578000	0.318600	0.263500
H81	H8	0.554100	0.376200	0.267400
C121	C12	0.761100	0.172700	0.386500
N11	N1	0.343600	0.236400	0.156000
N21	N2	0.149900	0.976400	0.275300
N31	N3	0.092200	0.947900	0.337500
N41	N4	0.073100	0.014100	0.389800
N51	N5	0.116500	0.086900	0.364300
N61	N6	0.545200	0.268000	0.196700
N71	N7	0.807900	0.096200	0.377800
N81	N8	0.869600	0.091700	0.448200
N91	N9	0.860600	0.164800	0.495000
N101	N10	0.790900	0.217100	0.458000
N111	N11	0.948000	0.882900	0.450300
N121	N12	0.864200	0.863700	0.444900
N131	N13	0.782000	0.843300	0.439100
Cu21	Cu2	0.445460	0.313850	0.104110
C131	C13	0.183000	0.658500	0.377900
H91	H9	0.160900	0.642900	0.432300
C141	C14	0.241900	0.599800	0.336100
H101	H10	0.258600	0.545600	0.361900
C151	C15	0.275900	0.622100	0.255700
C161	C16	0.248600	0.702700	0.220600
H111	H11	0.270500	0.720200	0.166700
C171	C17	0.189300	0.757100	0.265100
H121	H12	0.170700	0.811100	0.239900
C181	C18	0.337200	0.561900	0.206500
C191	C19	0.919800	0.686700	0.307000
H131	H13	0.943700	0.650000	0.352400
C201	C20	0.849600	0.653900	0.247000
H141	H14	0.825100	0.596800	0.252900
C211	C21	0.816400	0.706600	0.178200
C221	C22	0.854900	0.789100	0.173500
H151	H15	0.835200	0.825800	0.126700
C231	C23	0.922000	0.818600	0.236500
H161	H16	0.945900	0.876200	0.232600
C241	C24	0.738900	0.672700	0.113500
N141	N14	0.156400	0.736400	0.344000
N151	N15	0.350100	0.476400	0.224700
N161	N16	0.407800	0.447900	0.162500
N171	N17	0.426900	0.514100	0.110200
N181	N18	0.383500	0.586900	0.135700
N191	N19	0.954800	0.768000	0.303300
N201	N20	0.692100	0.596200	0.122200
N211	N21	0.630400	0.591700	0.051800
N221	N22	0.639400	0.664800	0.005000
N231	N23	0.709100	0.717100	0.042000
N241	N24	0.552000	0.382900	0.049700
N251	N25	0.635800	0.363700	0.055100
N261	N26	0.718000	0.343300	0.060900
Cu31	Cu3	0.945460	0.186150	0.604110
C251	C25	0.683000	0.841500	0.877900
H171	H17	0.660900	0.857100	0.932300
C261	C26	0.741900	0.900200	0.836100
H181	H18	0.758600	0.954400	0.861900
C271	C27	0.775900	0.877900	0.755700
C281	C28	0.748600	0.797300	0.720600
H191	H19	0.770500	0.779800	0.666700
C291	C29	0.689300	0.742900	0.765100
H201	H20	0.670700	0.688900	0.739900
C301	C30	0.837200	0.938100	0.706500
C311	C31	0.419800	0.813300	0.807000
H211	H21	0.443700	0.850000	0.852400
C321	C32	0.349600	0.846100	0.747000
H221	H22	0.325100	0.903200	0.752900
C331	C33	0.316400	0.793400	0.678200
C341	C34	0.354900	0.710900	0.673500
H231	H23	0.335200	0.674200	0.626700
C351	C35	0.422000	0.681400	0.736500
H241	H24	0.445900	0.623800	0.732600
C361	C36	0.238900	0.827300	0.613500
N271	N27	0.656400	0.763600	0.844000
N281	N28	0.850100	0.023600	0.724700
N291	N29	0.907800	0.052100	0.662500
N301	N30	0.926900	0.985900	0.610200
N311	N31	0.883500	0.913100	0.635700
N321	N32	0.454800	0.732000	0.803300
N331	N33	0.192100	0.903800	0.622200
N341	N34	0.130400	0.908300	0.551800
N351	N35	0.139400	0.835200	0.505000
N361	N36	0.209100	0.782900	0.542000
N371	N37	0.052000	0.117100	0.549700
N381	N38	0.135800	0.136300	0.555100
N391	N39	0.218000	0.156700	0.560900
Cu41	Cu4	0.554540	0.686150	0.895890
C371	C37	0.817000	0.341500	0.622100
H251	H25	0.839100	0.357100	0.567700
C381	C38	0.758100	0.400200	0.663900
H261	H26	0.741400	0.454400	0.638100
C391	C39	0.724100	0.377900	0.744300
C401	C40	0.751400	0.297300	0.779400
H271	H27	0.729500	0.279800	0.833300
C411	C41	0.810700	0.242900	0.734900
H281	H28	0.829300	0.188900	0.760100
C421	C42	0.662800	0.438100	0.793500
C431	C43	0.080200	0.313300	0.693000
H291	H29	0.056300	0.350000	0.647600
C441	C44	0.150400	0.346100	0.753000
H301	H30	0.174900	0.403200	0.747100
C451	C45	0.183600	0.293400	0.821800
C461	C46	0.145100	0.210900	0.826500
H311	H31	0.164800	0.174200	0.873300
C471	C47	0.078000	0.181400	0.763500
H321	H32	0.054100	0.123800	0.767400
C481	C48	0.261100	0.327300	0.886500
N401	N40	0.843600	0.263600	0.656000
N411	N41	0.649900	0.523600	0.775300
N421	N42	0.592200	0.552100	0.837500
N431	N43	0.573100	0.485900	0.889800
N441	N44	0.616500	0.413100	0.864300
N451	N45	0.045200	0.232000	0.696700
N461	N46	0.307900	0.403800	0.877800
N471	N47	0.369600	0.408300	0.948200
N481	N48	0.360600	0.335200	0.995000
N491	N49	0.290900	0.282900	0.958000
N501	N50	0.448000	0.617100	0.950300
N511	N51	0.364200	0.636300	0.944900
N521	N52	0.282000	0.656700	0.939100
Cu51	Cu5	0.000000	0.000000	0.500000
Cu61	Cu6	0.500000	0.500000	0.000000
