data_QOMTET_clean_PM
_symmetry_space_group_name_H-M	'P1'
_cell_length_a	8.380000
_cell_length_b	20.966200
_cell_length_c	13.099900
_cell_angle_alpha	90.000000
_cell_angle_beta	95.038000
_cell_angle_gamma	90.000000
_symmetry_Int_Tables_number 1

loop_
_symmetry_equiv_pos_as_xyz
'x,y,z'

loop_
_atom_site_label
_atom_site_type_symbol
_atom_site_fract_x
_atom_site_fract_y
_atom_site_fract_z
Zn11	Zn1	0.637700	0.291060	0.855560
O11	O1	0.342500	0.365700	0.276900
C11	C1	0.501200	0.489200	0.448700
O21	O2	0.690200	0.523600	0.215300
O31	O3	0.734700	0.188000	0.229000
O41	O4	0.664900	0.089500	0.266000
O51	O5	0.752400	0.212700	0.902200
N11	N1	0.521600	0.443000	0.249300
N21	N2	0.617100	0.347500	0.979700
C21	C2	0.555400	0.411800	0.155600
C31	C3	0.610400	0.498100	0.276200
C41	C4	0.795300	0.105400	0.115600
C51	C5	0.422600	0.409100	0.313400
C61	C6	0.598900	0.522900	0.382800
C71	C7	0.678500	0.577300	0.414600
H11	H1	0.736900	0.600000	0.369500
C81	C8	0.414700	0.433900	0.416800
C91	C9	0.671600	0.598500	0.515200
H21	H2	0.726500	0.635400	0.536600
C101	C10	0.722800	0.129300	0.211700
C111	C11	0.672900	0.365000	0.159400
H31	H3	0.732000	0.354900	0.220700
C121	C12	0.504900	0.392700	0.977300
H41	H4	0.447700	0.402200	0.915100
C131	C13	0.699000	0.334400	0.070200
H51	H5	0.777400	0.303000	0.072300
C141	C14	0.470000	0.426400	0.064000
H61	H6	0.391400	0.457900	0.060300
S11	S1	0.899200	0.088770	0.930840
S21	S2	0.905400	0.035280	0.140460
C151	C15	0.791100	0.129100	0.020600
C161	C16	0.960000	0.025600	0.014500
O61	O6	0.575100	0.202800	0.018000
C171	C17	0.696000	0.186300	0.979400
Zn21	Zn2	0.362300	0.791060	0.644440
O71	O7	0.657500	0.865700	0.223100
C181	C18	0.498800	0.989200	0.051300
O81	O8	0.309800	0.023600	0.284700
O91	O9	0.265300	0.688000	0.271000
O101	O10	0.335100	0.589500	0.234000
O111	O11	0.247600	0.712700	0.597800
N31	N3	0.478400	0.943000	0.250700
N41	N4	0.382900	0.847500	0.520300
C191	C19	0.444600	0.911800	0.344400
C201	C20	0.389600	0.998100	0.223800
C211	C21	0.204700	0.605400	0.384400
C221	C22	0.577400	0.909100	0.186600
C231	C23	0.401100	0.022900	0.117200
C241	C24	0.321500	0.077300	0.085400
H71	H7	0.263100	0.100000	0.130500
C251	C25	0.585300	0.933900	0.083200
C261	C26	0.328400	0.098500	0.984800
H81	H8	0.273500	0.135400	0.963400
C271	C27	0.277200	0.629300	0.288300
C281	C28	0.327100	0.865000	0.340600
H91	H9	0.268000	0.854900	0.279300
C291	C29	0.495100	0.892700	0.522700
H101	H10	0.552300	0.902200	0.584900
C301	C30	0.301000	0.834400	0.429800
H111	H11	0.222600	0.803000	0.427700
C311	C31	0.530000	0.926400	0.436000
H121	H12	0.608600	0.957900	0.439700
S31	S3	0.100800	0.588770	0.569160
S41	S4	0.094600	0.535280	0.359540
C321	C32	0.208900	0.629100	0.479400
C331	C33	0.040000	0.525600	0.485500
O121	O12	0.424900	0.702800	0.482000
C341	C34	0.304000	0.686300	0.520600
Zn31	Zn3	0.362300	0.708940	0.144440
O131	O13	0.657500	0.634300	0.723100
C351	C35	0.498800	0.510800	0.551300
O141	O14	0.309800	0.476400	0.784700
O151	O15	0.265300	0.812000	0.771000
O161	O16	0.335100	0.910500	0.734000
O171	O17	0.247600	0.787300	0.097800
N51	N5	0.478400	0.557000	0.750700
N61	N6	0.382900	0.652500	0.020300
C361	C36	0.444600	0.588200	0.844400
C371	C37	0.389600	0.501900	0.723800
C381	C38	0.204700	0.894600	0.884400
C391	C39	0.577400	0.590900	0.686600
C401	C40	0.401100	0.477100	0.617200
C411	C41	0.321500	0.422700	0.585400
H131	H13	0.263100	0.400000	0.630500
C421	C42	0.585300	0.566100	0.583200
C431	C43	0.328400	0.401500	0.484800
H141	H14	0.273500	0.364600	0.463400
C441	C44	0.277200	0.870700	0.788300
C451	C45	0.327100	0.635000	0.840600
H151	H15	0.268000	0.645100	0.779300
C461	C46	0.495100	0.607300	0.022700
H161	H16	0.552300	0.597800	0.084900
C471	C47	0.301000	0.665600	0.929800
H171	H17	0.222600	0.697000	0.927700
C481	C48	0.530000	0.573600	0.936000
H181	H18	0.608600	0.542100	0.939700
S51	S5	0.100800	0.911230	0.069160
S61	S6	0.094600	0.964720	0.859540
C491	C49	0.208900	0.870900	0.979400
C501	C50	0.040000	0.974400	0.985500
O181	O18	0.424900	0.797200	0.982000
C511	C51	0.304000	0.813700	0.020600
Zn41	Zn4	0.637700	0.208940	0.355560
O191	O19	0.342500	0.134300	0.776900
C521	C52	0.501200	0.010800	0.948700
O201	O20	0.690200	0.976400	0.715300
O211	O21	0.734700	0.312000	0.729000
O221	O22	0.664900	0.410500	0.766000
O231	O23	0.752400	0.287300	0.402200
N71	N7	0.521600	0.057000	0.749300
N81	N8	0.617100	0.152500	0.479700
C531	C53	0.555400	0.088200	0.655600
C541	C54	0.610400	0.001900	0.776200
C551	C55	0.795300	0.394600	0.615600
C561	C56	0.422600	0.090900	0.813400
C571	C57	0.598900	0.977100	0.882800
C581	C58	0.678500	0.922700	0.914600
H191	H19	0.736900	0.900000	0.869500
C591	C59	0.414700	0.066100	0.916800
C601	C60	0.671600	0.901500	0.015200
H201	H20	0.726500	0.864600	0.036600
C611	C61	0.722800	0.370700	0.711700
C621	C62	0.672900	0.135000	0.659400
H211	H21	0.732000	0.145100	0.720700
C631	C63	0.504900	0.107300	0.477300
H221	H22	0.447700	0.097800	0.415100
C641	C64	0.699000	0.165600	0.570200
H231	H23	0.777400	0.197000	0.572300
C651	C65	0.470000	0.073600	0.564000
H241	H24	0.391400	0.042100	0.560300
S71	S7	0.899200	0.411230	0.430840
S81	S8	0.905400	0.464720	0.640460
C661	C66	0.791100	0.370900	0.520600
C671	C67	0.960000	0.474400	0.514500
O241	O24	0.575100	0.297200	0.518000
C681	C68	0.696000	0.313700	0.479400
