data_QONQAM_clean_PM
_symmetry_space_group_name_H-M	'P1'
_cell_length_a	6.623000
_cell_length_b	16.893000
_cell_length_c	12.592000
_cell_angle_alpha	90.000000
_cell_angle_beta	90.000000
_cell_angle_gamma	90.000000
_symmetry_Int_Tables_number 1

loop_
_symmetry_equiv_pos_as_xyz
'x,y,z'

loop_
_atom_site_label
_atom_site_type_symbol
_atom_site_fract_x
_atom_site_fract_y
_atom_site_fract_z
O11	O1	0.155900	0.166900	0.841820
C11	C1	0.804200	0.036100	0.974090
O21	O2	0.655900	0.666900	0.341820
C21	C2	0.304200	0.536100	0.474090
O31	O3	0.844100	0.333100	0.841820
C31	C3	0.195800	0.463900	0.974090
O41	O4	0.344100	0.833100	0.341820
C41	C4	0.695800	0.963900	0.474090
O51	O5	0.844100	0.666900	0.158180
C51	C5	0.195800	0.536100	0.025910
O61	O6	0.344100	0.166900	0.658180
C61	C6	0.695800	0.036100	0.525910
O71	O7	0.155900	0.833100	0.158180
C71	C7	0.804200	0.963900	0.025910
O81	O8	0.655900	0.333100	0.658180
C81	C8	0.304200	0.463900	0.525910
O91	O9	0.844100	0.833100	0.158180
C91	C9	0.195800	0.963900	0.025910
O101	O10	0.344100	0.333100	0.658180
C101	C10	0.695800	0.463900	0.525910
O111	O11	0.155900	0.666900	0.158180
C111	C11	0.804200	0.536100	0.025910
O121	O12	0.655900	0.166900	0.658180
C121	C12	0.304200	0.036100	0.525910
O131	O13	0.155900	0.333100	0.841820
C131	C13	0.804200	0.463900	0.974090
O141	O14	0.655900	0.833100	0.341820
C141	C14	0.304200	0.963900	0.474090
O151	O15	0.844100	0.166900	0.841820
C151	C15	0.195800	0.036100	0.974090
O161	O16	0.344100	0.666900	0.341820
C161	C16	0.695800	0.536100	0.474090
Al11	Al1	0.250000	0.250000	0.750000
Al21	Al2	0.750000	0.250000	0.750000
Al31	Al3	0.750000	0.750000	0.250000
Al41	Al4	0.250000	0.750000	0.250000
O171	O17	0.000000	0.250000	0.692970
O181	O18	0.500000	0.750000	0.192970
O191	O19	0.000000	0.750000	0.307030
O201	O20	0.500000	0.250000	0.807030
C171	C17	0.000000	0.059870	0.957110
C181	C18	0.000000	0.129110	0.883110
C191	C19	0.500000	0.559870	0.457110
C201	C20	0.500000	0.629110	0.383110
C211	C21	0.000000	0.440130	0.957110
C221	C22	0.000000	0.370890	0.883110
C231	C23	0.500000	0.940130	0.457110
C241	C24	0.500000	0.870890	0.383110
C251	C25	0.000000	0.559870	0.042890
C261	C26	0.000000	0.629110	0.116890
C271	C27	0.500000	0.059870	0.542890
C281	C28	0.500000	0.129110	0.616890
C291	C29	0.000000	0.940130	0.042890
C301	C30	0.000000	0.870890	0.116890
C311	C31	0.500000	0.440130	0.542890
C321	C32	0.500000	0.370890	0.616890
