data_QOQWOK_clean_PM
_symmetry_space_group_name_H-M	'P1'
_cell_length_a	9.782100
_cell_length_b	19.916000
_cell_length_c	16.104700
_cell_angle_alpha	90.000000
_cell_angle_beta	93.581000
_cell_angle_gamma	90.000000
_symmetry_Int_Tables_number 1

loop_
_symmetry_equiv_pos_as_xyz
'x,y,z'

loop_
_atom_site_label
_atom_site_type_symbol
_atom_site_fract_x
_atom_site_fract_y
_atom_site_fract_z
N11	N1	0.445900	0.089700	0.415500
N21	N2	0.947400	0.412500	0.914300
O11	O1	0.145200	0.430600	0.062200
O21	O2	0.354400	0.474500	0.091300
O31	O3	0.635300	0.068100	0.567800
O41	O4	0.849900	0.030100	0.587400
C11	C1	0.262800	0.430000	0.096900
C21	C2	0.299000	0.370500	0.151400
C31	C3	0.252800	0.306300	0.129000
H11	H1	0.197400	0.300300	0.078900
C41	C4	0.286300	0.251600	0.178200
H21	H2	0.259000	0.208000	0.159800
C51	C5	0.359800	0.259100	0.254600
C61	C6	0.404200	0.322800	0.277000
H31	H3	0.454000	0.329300	0.328900
C71	C7	0.377800	0.377300	0.225400
H41	H4	0.414200	0.420000	0.241000
C81	C8	0.423300	0.082200	0.332900
H51	H5	0.426400	0.038200	0.310400
C91	C9	0.395800	0.135100	0.279200
H61	H6	0.381800	0.126900	0.221200
C101	C10	0.388300	0.200500	0.309700
C111	C11	0.412400	0.207600	0.396200
H71	H7	0.408900	0.250800	0.421000
C121	C12	0.441100	0.152200	0.445200
H81	H8	0.458500	0.158700	0.503300
C131	C13	0.757500	0.072000	0.596100
C141	C14	0.792700	0.133900	0.648300
C151	C15	0.694400	0.182200	0.660700
H91	H9	0.605200	0.177700	0.634400
C161	C16	0.725300	0.237500	0.711700
H101	H10	0.656400	0.270000	0.720000
C171	C17	0.855000	0.245900	0.750300
C181	C18	0.955300	0.197500	0.733800
H111	H11	0.045900	0.202500	0.757900
C191	C19	0.923900	0.143600	0.683500
H121	H12	0.993500	0.112200	0.672600
C201	C20	0.819800	0.392200	0.895500
H131	H13	0.747500	0.415800	0.919200
C211	C21	0.786100	0.339000	0.843600
H141	H14	0.692900	0.326400	0.833300
C221	C22	0.887300	0.303900	0.806800
C231	C23	0.021100	0.325000	0.826800
H151	H15	0.095700	0.302500	0.804100
C241	C24	0.044600	0.378300	0.879200
H161	H16	0.136800	0.391700	0.891300
N31	N3	0.554100	0.589700	0.084500
N41	N4	0.052600	0.912500	0.585700
O51	O5	0.854800	0.930600	0.437800
O61	O6	0.645600	0.974500	0.408700
O71	O7	0.364700	0.568100	0.932200
O81	O8	0.150100	0.530100	0.912600
C251	C25	0.737200	0.930000	0.403100
C261	C26	0.701000	0.870500	0.348600
C271	C27	0.747200	0.806300	0.371000
H171	H17	0.802600	0.800300	0.421100
C281	C28	0.713700	0.751600	0.321800
H181	H18	0.741000	0.708000	0.340200
C291	C29	0.640200	0.759100	0.245400
C301	C30	0.595800	0.822800	0.223000
H191	H19	0.546000	0.829300	0.171100
C311	C31	0.622200	0.877300	0.274600
H201	H20	0.585800	0.920000	0.259000
C321	C32	0.576700	0.582200	0.167100
H211	H21	0.573600	0.538200	0.189600
C331	C33	0.604200	0.635100	0.220800
H221	H22	0.618200	0.626900	0.278800
C341	C34	0.611700	0.700500	0.190300
C351	C35	0.587600	0.707600	0.103800
H231	H23	0.591100	0.750800	0.079000
C361	C36	0.558900	0.652200	0.054800
H241	H24	0.541500	0.658700	0.996700
C371	C37	0.242500	0.572000	0.903900
C381	C38	0.207300	0.633900	0.851700
C391	C39	0.305600	0.682200	0.839300
H251	H25	0.394800	0.677700	0.865600
C401	C40	0.274700	0.737500	0.788300
H261	H26	0.343600	0.770000	0.780000
C411	C41	0.145000	0.745900	0.749700
C421	C42	0.044700	0.697500	0.766200
H271	H27	0.954100	0.702500	0.742100
C431	C43	0.076100	0.643600	0.816500
H281	H28	0.006500	0.612200	0.827400
C441	C44	0.180200	0.892200	0.604500
H291	H29	0.252500	0.915800	0.580800
C451	C45	0.213900	0.839000	0.656400
H301	H30	0.307100	0.826400	0.666700
C461	C46	0.112700	0.803900	0.693200
C471	C47	0.978900	0.825000	0.673200
H311	H31	0.904300	0.802500	0.695900
C481	C48	0.955400	0.878300	0.620800
H321	H32	0.863200	0.891700	0.608700
N51	N5	0.554100	0.910300	0.584500
N61	N6	0.052600	0.587500	0.085700
O91	O9	0.854800	0.569400	0.937800
O101	O10	0.645600	0.525500	0.908700
O111	O11	0.364700	0.931900	0.432200
O121	O12	0.150100	0.969900	0.412600
C491	C49	0.737200	0.570000	0.903100
C501	C50	0.701000	0.629500	0.848600
C511	C51	0.747200	0.693700	0.871000
H331	H33	0.802600	0.699700	0.921100
C521	C52	0.713700	0.748400	0.821800
H341	H34	0.741000	0.792000	0.840200
C531	C53	0.640200	0.740900	0.745400
C541	C54	0.595800	0.677200	0.723000
H351	H35	0.546000	0.670700	0.671100
C551	C55	0.622200	0.622700	0.774600
H361	H36	0.585800	0.580000	0.759000
C561	C56	0.576700	0.917800	0.667100
H371	H37	0.573600	0.961800	0.689600
C571	C57	0.604200	0.864900	0.720800
H381	H38	0.618200	0.873100	0.778800
C581	C58	0.611700	0.799500	0.690300
C591	C59	0.587600	0.792400	0.603800
H391	H39	0.591100	0.749200	0.579000
C601	C60	0.558900	0.847800	0.554800
H401	H40	0.541500	0.841300	0.496700
C611	C61	0.242500	0.928000	0.403900
C621	C62	0.207300	0.866100	0.351700
C631	C63	0.305600	0.817800	0.339300
H411	H41	0.394800	0.822300	0.365600
C641	C64	0.274700	0.762500	0.288300
H421	H42	0.343600	0.730000	0.280000
C651	C65	0.145000	0.754100	0.249700
C661	C66	0.044700	0.802500	0.266200
H431	H43	0.954100	0.797500	0.242100
C671	C67	0.076100	0.856400	0.316500
H441	H44	0.006500	0.887800	0.327400
C681	C68	0.180200	0.607800	0.104500
H451	H45	0.252500	0.584200	0.080800
C691	C69	0.213900	0.661000	0.156400
H461	H46	0.307100	0.673600	0.166700
C701	C70	0.112700	0.696100	0.193200
C711	C71	0.978900	0.675000	0.173200
H471	H47	0.904300	0.697500	0.195900
C721	C72	0.955400	0.621700	0.120800
H481	H48	0.863200	0.608300	0.108700
N71	N7	0.445900	0.410300	0.915500
N81	N8	0.947400	0.087500	0.414300
O131	O13	0.145200	0.069400	0.562200
O141	O14	0.354400	0.025500	0.591300
O151	O15	0.635300	0.431900	0.067800
O161	O16	0.849900	0.469900	0.087400
C731	C73	0.262800	0.070000	0.596900
C741	C74	0.299000	0.129500	0.651400
C751	C75	0.252800	0.193700	0.629000
H491	H49	0.197400	0.199700	0.578900
C761	C76	0.286300	0.248400	0.678200
H501	H50	0.259000	0.292000	0.659800
C771	C77	0.359800	0.240900	0.754600
C781	C78	0.404200	0.177200	0.777000
H511	H51	0.454000	0.170700	0.828900
C791	C79	0.377800	0.122700	0.725400
H521	H52	0.414200	0.080000	0.741000
C801	C80	0.423300	0.417800	0.832900
H531	H53	0.426400	0.461800	0.810400
C811	C81	0.395800	0.364900	0.779200
H541	H54	0.381800	0.373100	0.721200
C821	C82	0.388300	0.299500	0.809700
C831	C83	0.412400	0.292400	0.896200
H551	H55	0.408900	0.249200	0.921000
C841	C84	0.441100	0.347800	0.945200
H561	H56	0.458500	0.341300	0.003300
C851	C85	0.757500	0.428000	0.096100
C861	C86	0.792700	0.366100	0.148300
C871	C87	0.694400	0.317800	0.160700
H571	H57	0.605200	0.322300	0.134400
C881	C88	0.725300	0.262500	0.211700
H581	H58	0.656400	0.230000	0.220000
C891	C89	0.855000	0.254100	0.250300
C901	C90	0.955300	0.302500	0.233800
H591	H59	0.045900	0.297500	0.257900
C911	C91	0.923900	0.356400	0.183500
H601	H60	0.993500	0.387800	0.172600
C921	C92	0.819800	0.107800	0.395500
H611	H61	0.747500	0.084200	0.419200
C931	C93	0.786100	0.161000	0.343600
H621	H62	0.692900	0.173600	0.333300
C941	C94	0.887300	0.196100	0.306800
C951	C95	0.021100	0.175000	0.326800
H631	H63	0.095700	0.197500	0.304100
C961	C96	0.044600	0.121700	0.379200
H641	H64	0.136800	0.108300	0.391300
Mn11	Mn1	0.500000	0.000000	0.500000
Mn21	Mn2	0.500000	0.500000	0.000000
Mn31	Mn3	0.000000	0.500000	0.000000
Mn41	Mn4	0.000000	0.000000	0.500000
