data_QOQWOK01_clean_PM
_symmetry_space_group_name_H-M	'P1'
_cell_length_a	9.845700
_cell_length_b	19.493700
_cell_length_c	16.745500
_cell_angle_alpha	90.000000
_cell_angle_beta	94.348000
_cell_angle_gamma	90.000000
_symmetry_Int_Tables_number 1

loop_
_symmetry_equiv_pos_as_xyz
'x,y,z'

loop_
_atom_site_label
_atom_site_type_symbol
_atom_site_fract_x
_atom_site_fract_y
_atom_site_fract_z
N11	N1	0.445000	0.089050	0.414200
N21	N2	0.945400	0.413400	0.912200
O11	O1	0.144100	0.427450	0.058200
O21	O2	0.352300	0.470940	0.084530
O31	O3	0.635400	0.070370	0.564970
O41	O4	0.849800	0.033410	0.580260
C11	C1	0.262100	0.426700	0.091300
C21	C2	0.296800	0.366700	0.146200
C31	C3	0.255600	0.301000	0.126400
H11	H1	0.205600	0.293200	0.077900
C41	C4	0.286900	0.246400	0.177000
H21	H2	0.260900	0.202300	0.161100
C51	C5	0.356300	0.256200	0.251100
C61	C6	0.396600	0.323100	0.271600
H31	H3	0.441900	0.331500	0.321400
C71	C7	0.370200	0.376600	0.219300
H41	H4	0.402200	0.420300	0.233100
C81	C8	0.426700	0.079400	0.335400
H51	H5	0.433300	0.034900	0.315900
C91	C9	0.398400	0.131600	0.281300
H61	H6	0.387400	0.121900	0.226900
C101	C10	0.386200	0.198400	0.307600
C111	C11	0.403800	0.208400	0.389800
H71	H7	0.395400	0.252100	0.411100
C121	C12	0.433800	0.153200	0.439800
H81	H8	0.447000	0.161400	0.494500
C131	C13	0.756200	0.074600	0.592100
C141	C14	0.791000	0.135600	0.645900
C151	C15	0.692300	0.181700	0.663700
H91	H9	0.603500	0.175800	0.641700
C161	C16	0.723200	0.236700	0.714200
H101	H10	0.654900	0.267500	0.725300
C171	C17	0.853500	0.246600	0.748300
C181	C18	0.952900	0.201700	0.727600
H111	H11	0.042200	0.208500	0.748200
C191	C19	0.923100	0.146600	0.676700
H121	H12	0.992200	0.117200	0.663400
C201	C20	0.818700	0.392200	0.894500
H131	H13	0.748500	0.414500	0.918100
C211	C21	0.786100	0.338800	0.842900
H141	H14	0.695700	0.325300	0.833700
C221	C22	0.885900	0.304900	0.804600
C231	C23	0.017400	0.327400	0.823600
H151	H15	0.089400	0.306500	0.800200
C241	C24	0.042800	0.380600	0.877100
H161	H16	0.132700	0.394000	0.889100
N31	N3	0.555000	0.589050	0.085800
N41	N4	0.054600	0.913400	0.587800
O51	O5	0.855900	0.927450	0.441800
O61	O6	0.647700	0.970940	0.415470
O71	O7	0.364600	0.570370	0.935030
O81	O8	0.150200	0.533410	0.919740
C251	C25	0.737900	0.926700	0.408700
C261	C26	0.703200	0.866700	0.353800
C271	C27	0.744400	0.801000	0.373600
H171	H17	0.794400	0.793200	0.422100
C281	C28	0.713100	0.746400	0.323000
H181	H18	0.739100	0.702300	0.338900
C291	C29	0.643700	0.756200	0.248900
C301	C30	0.603400	0.823100	0.228400
H191	H19	0.558100	0.831500	0.178600
C311	C31	0.629800	0.876600	0.280700
H201	H20	0.597800	0.920300	0.266900
C321	C32	0.573300	0.579400	0.164600
H211	H21	0.566700	0.534900	0.184100
C331	C33	0.601600	0.631600	0.218700
H221	H22	0.612600	0.621900	0.273100
C341	C34	0.613800	0.698400	0.192400
C351	C35	0.596200	0.708400	0.110200
H231	H23	0.604600	0.752100	0.088900
C361	C36	0.566200	0.653200	0.060200
H241	H24	0.553000	0.661400	0.005500
C371	C37	0.243800	0.574600	0.907900
C381	C38	0.209000	0.635600	0.854100
C391	C39	0.307700	0.681700	0.836300
H251	H25	0.396500	0.675800	0.858300
C401	C40	0.276800	0.736700	0.785800
H261	H26	0.345100	0.767500	0.774700
C411	C41	0.146500	0.746600	0.751700
C421	C42	0.047100	0.701700	0.772400
H271	H27	0.957800	0.708500	0.751800
C431	C43	0.076900	0.646600	0.823300
H281	H28	0.007800	0.617200	0.836600
C441	C44	0.181300	0.892200	0.605500
H291	H29	0.251500	0.914500	0.581900
C451	C45	0.213900	0.838800	0.657100
H301	H30	0.304300	0.825300	0.666300
C461	C46	0.114100	0.804900	0.695400
C471	C47	0.982600	0.827400	0.676400
H311	H31	0.910600	0.806500	0.699800
C481	C48	0.957200	0.880600	0.622900
H321	H32	0.867300	0.894000	0.610900
N51	N5	0.555000	0.910950	0.585800
N61	N6	0.054600	0.586600	0.087800
O91	O9	0.855900	0.572550	0.941800
O101	O10	0.647700	0.529060	0.915470
O111	O11	0.364600	0.929630	0.435030
O121	O12	0.150200	0.966590	0.419740
C491	C49	0.737900	0.573300	0.908700
C501	C50	0.703200	0.633300	0.853800
C511	C51	0.744400	0.699000	0.873600
H331	H33	0.794400	0.706800	0.922100
C521	C52	0.713100	0.753600	0.823000
H341	H34	0.739100	0.797700	0.838900
C531	C53	0.643700	0.743800	0.748900
C541	C54	0.603400	0.676900	0.728400
H351	H35	0.558100	0.668500	0.678600
C551	C55	0.629800	0.623400	0.780700
H361	H36	0.597800	0.579700	0.766900
C561	C56	0.573300	0.920600	0.664600
H371	H37	0.566700	0.965100	0.684100
C571	C57	0.601600	0.868400	0.718700
H381	H38	0.612600	0.878100	0.773100
C581	C58	0.613800	0.801600	0.692400
C591	C59	0.596200	0.791600	0.610200
H391	H39	0.604600	0.747900	0.588900
C601	C60	0.566200	0.846800	0.560200
H401	H40	0.553000	0.838600	0.505500
C611	C61	0.243800	0.925400	0.407900
C621	C62	0.209000	0.864400	0.354100
C631	C63	0.307700	0.818300	0.336300
H411	H41	0.396500	0.824200	0.358300
C641	C64	0.276800	0.763300	0.285800
H421	H42	0.345100	0.732500	0.274700
C651	C65	0.146500	0.753400	0.251700
C661	C66	0.047100	0.798300	0.272400
H431	H43	0.957800	0.791500	0.251800
C671	C67	0.076900	0.853400	0.323300
H441	H44	0.007800	0.882800	0.336600
C681	C68	0.181300	0.607800	0.105500
H451	H45	0.251500	0.585500	0.081900
C691	C69	0.213900	0.661200	0.157100
H461	H46	0.304300	0.674700	0.166300
C701	C70	0.114100	0.695100	0.195400
C711	C71	0.982600	0.672600	0.176400
H471	H47	0.910600	0.693500	0.199800
C721	C72	0.957200	0.619400	0.122900
H481	H48	0.867300	0.606000	0.110900
N71	N7	0.445000	0.410950	0.914200
N81	N8	0.945400	0.086600	0.412200
O131	O13	0.144100	0.072550	0.558200
O141	O14	0.352300	0.029060	0.584530
O151	O15	0.635400	0.429630	0.064970
O161	O16	0.849800	0.466590	0.080260
C731	C73	0.262100	0.073300	0.591300
C741	C74	0.296800	0.133300	0.646200
C751	C75	0.255600	0.199000	0.626400
H491	H49	0.205600	0.206800	0.577900
C761	C76	0.286900	0.253600	0.677000
H501	H50	0.260900	0.297700	0.661100
C771	C77	0.356300	0.243800	0.751100
C781	C78	0.396600	0.176900	0.771600
H511	H51	0.441900	0.168500	0.821400
C791	C79	0.370200	0.123400	0.719300
H521	H52	0.402200	0.079700	0.733100
C801	C80	0.426700	0.420600	0.835400
H531	H53	0.433300	0.465100	0.815900
C811	C81	0.398400	0.368400	0.781300
H541	H54	0.387400	0.378100	0.726900
C821	C82	0.386200	0.301600	0.807600
C831	C83	0.403800	0.291600	0.889800
H551	H55	0.395400	0.247900	0.911100
C841	C84	0.433800	0.346800	0.939800
H561	H56	0.447000	0.338600	0.994500
C851	C85	0.756200	0.425400	0.092100
C861	C86	0.791000	0.364400	0.145900
C871	C87	0.692300	0.318300	0.163700
H571	H57	0.603500	0.324200	0.141700
C881	C88	0.723200	0.263300	0.214200
H581	H58	0.654900	0.232500	0.225300
C891	C89	0.853500	0.253400	0.248300
C901	C90	0.952900	0.298300	0.227600
H591	H59	0.042200	0.291500	0.248200
C911	C91	0.923100	0.353400	0.176700
H601	H60	0.992200	0.382800	0.163400
C921	C92	0.818700	0.107800	0.394500
H611	H61	0.748500	0.085500	0.418100
C931	C93	0.786100	0.161200	0.342900
H621	H62	0.695700	0.174700	0.333700
C941	C94	0.885900	0.195100	0.304600
C951	C95	0.017400	0.172600	0.323600
H631	H63	0.089400	0.193500	0.300200
C961	C96	0.042800	0.119400	0.377100
H641	H64	0.132700	0.106000	0.389100
Mn11	Mn1	0.500000	0.000000	0.500000
Mn21	Mn2	0.500000	0.500000	0.000000
Mn31	Mn3	0.000000	0.500000	0.000000
Mn41	Mn4	0.000000	0.000000	0.500000
