data_QOSJUF_clean_PM
_symmetry_space_group_name_H-M	'P1'
_cell_length_a	10.792000
_cell_length_b	13.889000
_cell_length_c	19.739000
_cell_angle_alpha	90.000000
_cell_angle_beta	100.910000
_cell_angle_gamma	90.000000
_symmetry_Int_Tables_number 1

loop_
_symmetry_equiv_pos_as_xyz
'x,y,z'

loop_
_atom_site_label
_atom_site_type_symbol
_atom_site_fract_x
_atom_site_fract_y
_atom_site_fract_z
Ho11	Ho1	0.154320	0.568390	0.057140
Ho21	Ho2	0.845680	0.431610	0.942850
Ho31	Ho3	0.154320	0.931610	0.557140
Ho41	Ho4	0.845680	0.068390	0.442850
Cu11	Cu1	0.757620	0.569940	0.285010
Cu21	Cu2	0.757620	0.930060	0.785010
Cu31	Cu3	0.242380	0.069940	0.214990
Cu41	Cu4	0.242380	0.430060	0.714990
H11	H1	0.217900	0.247200	0.953600
H21	H2	0.782100	0.752800	0.046400
H31	H3	0.104200	0.737400	0.712800
H41	H4	0.782100	0.747200	0.546400
H51	H5	0.895800	0.262600	0.287200
H61	H6	0.786200	0.737600	0.836800
H71	H7	0.233500	0.887100	0.140100
H81	H8	0.732900	0.652900	0.067300
H91	H9	0.500000	0.999000	0.280000
H101	H10	0.786200	0.762400	0.336800
H111	H11	0.271100	0.177200	0.510700
H121	H12	0.233500	0.612900	0.640100
H131	H13	0.213800	0.237600	0.663200
H141	H14	0.271100	0.322800	0.010700
H151	H15	0.766500	0.112900	0.859900
H161	H16	0.766500	0.387100	0.359900
H171	H17	0.213800	0.262400	0.163200
H181	H18	0.500000	0.499000	0.220000
H191	H19	0.973500	0.629800	0.213700
H201	H20	0.500000	0.501000	0.780000
H211	H21	0.732900	0.847100	0.567300
H221	H22	0.973500	0.870200	0.713700
H231	H23	0.728900	0.677200	0.989300
H241	H24	0.026500	0.370200	0.786300
H251	H25	0.026500	0.129800	0.286300
H261	H26	0.104200	0.762600	0.212800
H271	H27	0.385800	0.358900	0.212700
H281	H28	0.267100	0.347100	0.932700
H291	H29	0.500000	0.001000	0.720000
H301	H30	0.217900	0.252800	0.453600
H311	H31	0.385800	0.141100	0.712700
H321	H32	0.614200	0.641100	0.787300
H331	H33	0.614200	0.858900	0.287300
H341	H34	0.728900	0.822800	0.489300
H351	H35	0.895800	0.237400	0.787200
H361	H36	0.267100	0.152900	0.432700
C11	C1	0.961200	0.235300	0.762600
C21	C2	0.151400	0.263200	0.190000
C31	C3	0.690400	0.380300	0.329100
C41	C4	0.467200	0.946800	0.252900
C51	C5	0.490400	0.782600	0.218100
C61	C6	0.903200	0.855500	0.540400
C71	C7	0.017200	0.652200	0.773000
C81	C8	0.890100	0.069100	0.725900
C91	C9	0.536400	0.862300	0.257600
C101	C10	0.463600	0.362300	0.242400
C111	C11	0.309600	0.619700	0.670900
C121	C12	0.119300	0.067500	0.652100
C131	C13	0.690400	0.119700	0.829100
C141	C14	0.109900	0.930900	0.274100
C151	C15	0.038800	0.735300	0.737400
C161	C16	0.903200	0.644500	0.040400
C171	C17	0.509600	0.282600	0.281900
C181	C18	0.096800	0.355500	0.959600
C191	C19	0.039200	0.184100	0.261000
C201	C20	0.509600	0.217400	0.781900
C211	C21	0.432500	0.306600	0.781700
C221	C22	0.109900	0.569100	0.774100
C231	C23	0.038800	0.764700	0.237400
C241	C24	0.039200	0.315900	0.761000
C251	C25	0.467200	0.553200	0.752900
C261	C26	0.960800	0.815900	0.739000
C271	C27	0.693500	0.287600	0.869100
C281	C28	0.916400	0.848300	0.307700
C291	C29	0.536400	0.637700	0.757600
C301	C30	0.119300	0.432500	0.152100
C311	C31	0.532800	0.053200	0.747100
C321	C32	0.627700	0.207500	0.825900
C331	C33	0.083600	0.348300	0.192300
C341	C34	0.567500	0.693400	0.218300
C351	C35	0.775600	0.685400	0.035400
C361	C36	0.083600	0.151700	0.692300
C371	C37	0.880700	0.932500	0.347900
C381	C38	0.880700	0.567500	0.847900
C391	C39	0.372300	0.792500	0.174100
C401	C40	0.309600	0.880300	0.170900
C411	C41	0.982800	0.347800	0.227000
C421	C42	0.960800	0.684100	0.239000
C431	C43	0.306500	0.712400	0.130900
C441	C44	0.693500	0.212400	0.369100
C451	C45	0.775600	0.814600	0.535400
C461	C46	0.532800	0.446800	0.247100
C471	C47	0.627700	0.292500	0.325900
C481	C48	0.224400	0.185400	0.464600
C491	C49	0.224400	0.314600	0.964600
C501	C50	0.463600	0.137700	0.742400
C511	C51	0.017200	0.847800	0.273000
C521	C52	0.961200	0.264700	0.262600
C531	C53	0.151400	0.236800	0.690000
C541	C54	0.982800	0.152200	0.727000
C551	C55	0.096800	0.144500	0.459600
C561	C56	0.567500	0.806600	0.718300
C571	C57	0.306500	0.787600	0.630900
C581	C58	0.848600	0.736800	0.810000
C591	C59	0.372300	0.707500	0.674100
C601	C60	0.890100	0.430900	0.225900
C611	C61	0.848600	0.763200	0.310000
C621	C62	0.432500	0.193400	0.281700
C631	C63	0.916400	0.651700	0.807700
C641	C64	0.490400	0.717400	0.718100
N11	N1	0.867800	0.683000	0.276200
N21	N2	0.645100	0.456200	0.289200
N31	N3	0.354900	0.543800	0.710800
N41	N4	0.867800	0.817000	0.776200
N51	N5	0.645100	0.043800	0.789200
N61	N6	0.132200	0.317000	0.723800
N71	N7	0.354900	0.956200	0.210800
N81	N8	0.132200	0.183000	0.223800
O11	O1	0.942200	0.490900	0.849000
O21	O2	0.285500	0.866300	0.661100
O31	O3	0.900800	0.479800	0.280800
O41	O4	0.787900	0.576400	0.877000
O51	O5	0.080100	0.439100	0.982100
O61	O6	0.057800	0.990900	0.651000
O71	O7	0.613100	0.840500	0.779200
O81	O8	0.264900	0.774400	0.568400
O91	O9	0.000700	0.691200	0.069800
O101	O10	0.415700	0.160000	0.336300
O111	O11	0.807700	0.440900	0.174600
O121	O12	0.415700	0.340000	0.836300
O131	O13	0.714500	0.133700	0.338900
O141	O14	0.942200	0.009100	0.349000
O151	O15	0.613100	0.659500	0.279200
O161	O16	0.807700	0.059100	0.674600
O171	O17	0.919900	0.560900	0.017900
O181	O18	0.080100	0.060900	0.482100
O191	O19	0.735100	0.225600	0.431600
O201	O20	0.735100	0.274400	0.931600
O211	O21	0.212100	0.076400	0.623000
O221	O22	0.999300	0.308800	0.930200
O231	O23	0.000700	0.808800	0.569800
O241	O24	0.264900	0.725600	0.068400
O251	O25	0.099200	0.979800	0.219200
O261	O26	0.919900	0.939100	0.517900
O271	O27	0.099200	0.520200	0.719200
O281	O28	0.192300	0.559100	0.825400
O291	O29	0.900800	0.020200	0.780800
O301	O30	0.057800	0.509100	0.151000
O311	O31	0.192300	0.940900	0.325400
O321	O32	0.714500	0.366300	0.838900
O331	O33	0.584300	0.840000	0.663700
O341	O34	0.787900	0.923600	0.377000
O351	O35	0.386900	0.159500	0.220800
O361	O36	0.386900	0.340500	0.720800
O371	O37	0.999300	0.191200	0.430200
O381	O38	0.285500	0.633700	0.161100
O391	O39	0.584300	0.660000	0.163700
O401	O40	0.212100	0.423600	0.123000
