data_QOTZEG_clean_PM
_symmetry_space_group_name_H-M	'P1'
_cell_length_a	10.438000
_cell_length_b	10.438000
_cell_length_c	13.853000
_cell_angle_alpha	90.000000
_cell_angle_beta	90.000000
_cell_angle_gamma	90.000000
_symmetry_Int_Tables_number 1

loop_
_symmetry_equiv_pos_as_xyz
'x,y,z'

loop_
_atom_site_label
_atom_site_type_symbol
_atom_site_fract_x
_atom_site_fract_y
_atom_site_fract_z
La11	La1	0.393170	0.633190	0.810870
La21	La2	0.633190	0.606830	0.560870
La31	La3	0.606830	0.366810	0.310870
La41	La4	0.366810	0.393170	0.060870
H11	H1	0.610300	0.030100	0.566000
H21	H2	0.508800	0.046100	0.847400
H31	H3	0.634300	0.508300	0.934400
H41	H4	0.046100	0.491200	0.597400
H51	H5	0.491700	0.634300	0.184400
H61	H6	0.969900	0.610300	0.816000
H71	H7	0.030100	0.389700	0.316000
H81	H8	0.365700	0.491700	0.434400
H91	H9	0.508300	0.365700	0.684400
H101	H10	0.491200	0.953900	0.347400
H111	H11	0.953900	0.508800	0.097400
H121	H12	0.389700	0.969900	0.066000
C11	C1	0.411700	0.732600	0.015700
C21	C2	0.588300	0.267400	0.515700
C31	C3	0.077600	0.416500	0.370000
C41	C4	0.912800	0.524200	0.038200
C51	C5	0.566300	0.206200	0.612700
C61	C6	0.509900	0.219400	0.781200
C71	C7	0.707900	0.472300	0.117900
C81	C8	0.722200	0.525400	0.941600
C91	C9	0.438800	0.984300	0.208400
C101	C10	0.561200	0.015700	0.708400
C111	C11	0.292100	0.527700	0.617900
C121	C12	0.267400	0.411700	0.265700
C131	C13	0.433700	0.793800	0.112700
C141	C14	0.525400	0.277800	0.691600
C151	C15	0.475800	0.912800	0.288200
C161	C16	0.568900	0.870700	0.714100
C171	C17	0.527700	0.707900	0.367900
C181	C18	0.870700	0.431100	0.464100
C191	C19	0.490100	0.780600	0.281200
C201	C20	0.129300	0.568900	0.964100
C211	C21	0.474600	0.722200	0.191600
C221	C22	0.583500	0.077600	0.620000
C231	C23	0.206200	0.433700	0.362700
C241	C24	0.277800	0.474600	0.441600
C251	C25	0.732600	0.588300	0.765700
C261	C26	0.015700	0.438800	0.458400
C271	C27	0.431100	0.129300	0.214100
C281	C28	0.793800	0.566300	0.862700
C291	C29	0.472300	0.292100	0.867900
C301	C30	0.219400	0.490100	0.531200
C311	C31	0.984300	0.561200	0.958400
C321	C32	0.922400	0.583500	0.870000
C331	C33	0.524200	0.087200	0.788200
C341	C34	0.416500	0.922400	0.120000
C351	C35	0.087200	0.475800	0.538200
C361	C36	0.780600	0.509900	0.031200
O11	O1	0.612600	0.557500	0.753200
O21	O2	0.180800	0.540300	0.044500
O31	O3	0.507800	0.756500	0.450600
O41	O4	0.540300	0.819200	0.794500
O51	O5	0.579400	0.595600	0.361600
O61	O6	0.756500	0.492200	0.200600
O71	O7	0.442500	0.612600	0.003200
O81	O8	0.420600	0.404400	0.861600
O91	O9	0.403900	0.188800	0.139600
O101	O10	0.188800	0.596100	0.889600
O111	O11	0.557500	0.387400	0.503200
O121	O12	0.798000	0.631800	0.698300
O131	O13	0.811200	0.403900	0.389600
O141	O14	0.404400	0.579400	0.611600
O151	O15	0.631800	0.202000	0.448300
O161	O16	0.368200	0.798000	0.948300
O171	O17	0.387400	0.442500	0.253200
O181	O18	0.492200	0.243500	0.950600
O191	O19	0.459700	0.180800	0.294500
O201	O20	0.243500	0.507800	0.700600
O211	O21	0.819200	0.459700	0.544500
O221	O22	0.595600	0.420600	0.111600
O231	O23	0.596100	0.811200	0.639600
O241	O24	0.202000	0.368200	0.198300
