data_QOVGOY01_clean_PM
_symmetry_space_group_name_H-M	'P1'
_cell_length_a	10.722000
_cell_length_b	10.722000
_cell_length_c	10.722000
_cell_angle_alpha	67.508500
_cell_angle_beta	76.413800
_cell_angle_gamma	112.491000
_symmetry_Int_Tables_number 1

loop_
_symmetry_equiv_pos_as_xyz
'x,y,z'

loop_
_atom_site_label
_atom_site_type_symbol
_atom_site_fract_x
_atom_site_fract_y
_atom_site_fract_z
Mn11	Mn1	0.694130	0.891150	0.802980
Mn21	Mn2	0.305870	0.108850	0.197020
Mn31	Mn3	0.802980	0.497110	0.305870
Mn41	Mn4	0.197020	0.502890	0.694130
Mo11	Mo1	0.748300	0.000000	0.251700
Mo21	Mo2	0.251700	0.000000	0.748300
C11	C1	0.706000	0.946400	0.086000
C21	C2	0.610800	0.094500	0.196900
C31	C3	0.967600	0.053600	0.240400
C41	C4	0.708600	0.905500	0.483700
C51	C5	0.759600	0.792000	0.294000
C61	C6	0.516300	0.807700	0.389200
C71	C7	0.914000	0.208000	0.032400
C81	C8	0.803100	0.192300	0.291400
C91	C9	0.294000	0.053600	0.914000
C101	C10	0.389200	0.905500	0.803100
C111	C11	0.032400	0.946400	0.759600
C121	C12	0.291400	0.094500	0.516300
C131	C13	0.240400	0.208000	0.706000
C141	C14	0.483700	0.192300	0.610800
C151	C15	0.086000	0.792000	0.967600
C161	C16	0.196900	0.807700	0.708600
N11	N1	0.683500	0.925300	0.994400
N21	N2	0.531500	0.137200	0.167100
N31	N3	0.080300	0.074700	0.241800
N41	N4	0.695700	0.862800	0.605700
N51	N5	0.758200	0.677900	0.316500
N61	N6	0.394300	0.698600	0.468500
N71	N7	0.005600	0.322100	0.919700
N81	N8	0.832900	0.301400	0.304300
N91	N9	0.316500	0.074700	0.005600
N101	N10	0.468500	0.862800	0.832900
N111	N11	0.919700	0.925300	0.758200
N121	N12	0.304300	0.137200	0.394300
N131	N13	0.241800	0.322100	0.683500
N141	N14	0.605700	0.301400	0.531500
N151	N15	0.994400	0.677900	0.080300
N161	N16	0.167100	0.698600	0.695700
