data_QOVSOL_clean_PM
_symmetry_space_group_name_H-M	'P1'
_cell_length_a	11.328000
_cell_length_b	13.624000
_cell_length_c	24.951000
_cell_angle_alpha	90.000000
_cell_angle_beta	90.000000
_cell_angle_gamma	114.073000
_symmetry_Int_Tables_number 1

loop_
_symmetry_equiv_pos_as_xyz
'x,y,z'

loop_
_atom_site_label
_atom_site_type_symbol
_atom_site_fract_x
_atom_site_fract_y
_atom_site_fract_z
Cd11	Cd1	0.352460	0.174730	0.840230
Cd21	Cd2	0.852460	0.674730	0.659770
Cd31	Cd3	0.647540	0.825270	0.159770
Cd41	Cd4	0.147540	0.325270	0.340230
H11	H1	0.182500	0.791500	0.697300
H21	H2	0.438700	0.614700	0.848200
H31	H3	0.366300	0.876700	0.845200
H41	H4	0.396000	0.432500	0.060100
H51	H5	0.048200	0.158400	0.229600
H61	H6	0.133700	0.623300	0.345200
H71	H7	0.990800	0.936000	0.625600
H81	H8	0.890000	0.419400	0.203300
H91	H9	0.661700	0.025300	0.324000
H101	H10	0.894900	0.042100	0.088100
H111	H11	0.375200	0.167000	0.675700
H121	H12	0.830300	0.212500	0.619800
H131	H13	0.169700	0.787500	0.380200
H141	H14	0.866300	0.376700	0.654800
H151	H15	0.806000	0.827200	0.040900
H161	H16	0.605100	0.457900	0.588100
H171	H17	0.076600	0.175000	0.722500
H181	H18	0.532500	0.312900	0.031300
H191	H19	0.700100	0.972400	0.664700
H201	H20	0.562500	0.243600	0.944800
H211	H21	0.437500	0.756400	0.055200
H221	H22	0.490800	0.436000	0.874400
H231	H23	0.624800	0.833000	0.324300
H241	H24	0.548200	0.658400	0.270400
H251	H25	0.134500	0.124700	0.063000
H261	H26	0.394900	0.542100	0.411900
H271	H27	0.062500	0.743600	0.555200
H281	H28	0.200100	0.472400	0.835300
H291	H29	0.799900	0.527600	0.164700
H301	H30	0.642900	0.509400	0.742100
H311	H31	0.923400	0.825000	0.277500
H321	H32	0.110000	0.580600	0.796700
H331	H33	0.194000	0.172800	0.959100
H341	H34	0.104000	0.067500	0.560100
H351	H35	0.306000	0.327200	0.459100
H361	H36	0.634500	0.624700	0.437000
H371	H37	0.604000	0.567500	0.939900
H381	H38	0.390000	0.919400	0.296700
H391	H39	0.896000	0.932500	0.439900
H401	H40	0.009200	0.064000	0.374400
H411	H41	0.937500	0.256400	0.444800
H421	H42	0.330300	0.712500	0.880200
H431	H43	0.467500	0.687100	0.968700
H441	H44	0.105100	0.957900	0.911900
H451	H45	0.561300	0.385300	0.151800
H461	H46	0.142900	0.009400	0.757900
H471	H47	0.423400	0.325000	0.222500
H481	H48	0.161700	0.525300	0.176000
H491	H49	0.357100	0.490600	0.257900
H501	H50	0.576600	0.675000	0.777500
H511	H51	0.032500	0.812900	0.468700
H521	H52	0.124800	0.333000	0.175700
H531	H53	0.338300	0.974700	0.676000
H541	H54	0.451800	0.341600	0.729600
H551	H55	0.365500	0.375300	0.563000
H561	H56	0.817500	0.208500	0.302700
H571	H57	0.967500	0.187100	0.531300
H581	H58	0.317500	0.708500	0.197300
H591	H59	0.669700	0.287500	0.119800
H601	H60	0.875200	0.667000	0.824300
H611	H61	0.061300	0.885300	0.348200
H621	H62	0.694000	0.672800	0.540900
H631	H63	0.857100	0.990600	0.242100
H641	H64	0.509200	0.564000	0.125600
H651	H65	0.951800	0.841600	0.770400
H661	H66	0.633700	0.123300	0.154800
H671	H67	0.938700	0.114700	0.651800
H681	H68	0.682500	0.291500	0.802700
H691	H69	0.838300	0.474700	0.824000
H701	H70	0.865500	0.875300	0.937000
H711	H71	0.610000	0.080600	0.703300
H721	H72	0.299900	0.027600	0.335300
C11	C1	0.825400	0.878300	0.423870
C21	C2	0.611100	0.477300	0.709200
C31	C3	0.968300	0.776300	0.493600
C41	C4	0.775100	0.774700	0.444610
C51	C5	0.224900	0.225300	0.555390
C61	C6	0.291200	0.206900	0.307200
C71	C7	0.909100	0.337200	0.669100
C81	C8	0.111900	0.217700	0.122530
C91	C9	0.979600	0.517900	0.264150
C101	C10	0.168100	0.193500	0.077620
C111	C11	0.836700	0.156100	0.319800
C121	C12	0.137300	0.353700	0.781300
C131	C13	0.908600	0.050000	0.124890
C141	C14	0.111600	0.760400	0.352000
C151	C15	0.005000	0.884600	0.797200
C161	C16	0.249700	0.554900	0.168300
C171	C17	0.348000	0.050200	0.304000
C181	C18	0.020400	0.482100	0.735850
C191	C19	0.661800	0.818700	0.355010
C201	C20	0.388400	0.739600	0.852000
C211	C21	0.791200	0.706900	0.192800
C221	C22	0.862700	0.646300	0.218700
C231	C23	0.495000	0.615400	0.297200
C241	C24	0.468300	0.276300	0.006400
C251	C25	0.516200	0.761700	0.041400
C261	C26	0.942800	0.684700	0.265200
C271	C27	0.275100	0.274700	0.055390
C281	C28	0.483800	0.238300	0.958600
C291	C29	0.231600	0.100800	0.621080
C301	C30	0.034400	0.216400	0.709900
C311	C31	0.952100	0.180200	0.667600
C321	C32	0.970200	0.559400	0.711160
C331	C33	0.520400	0.982100	0.764150
C341	C34	0.174600	0.121700	0.576130
C351	C35	0.717700	0.801000	0.034040
C361	C36	0.708800	0.793100	0.692800
C371	C37	0.111100	0.977300	0.790800
C381	C38	0.668100	0.693500	0.422380
C391	C39	0.470200	0.059400	0.788840
C401	C40	0.888400	0.239600	0.648000
C411	C41	0.029800	0.440600	0.288840
C421	C42	0.750300	0.445100	0.831700
C431	C43	0.547900	0.319800	0.167600
C441	C44	0.090900	0.662800	0.330900
C451	C45	0.505000	0.384600	0.702800
C461	C46	0.888900	0.022700	0.209200
C471	C47	0.362700	0.146300	0.281300
C481	C48	0.152000	0.449800	0.804000
C491	C49	0.557500	0.422400	0.859200
C501	C50	0.611600	0.260400	0.148000
C511	C51	0.325400	0.378300	0.076130
C521	C52	0.965600	0.783600	0.290100
C531	C53	0.529800	0.940600	0.211160
C541	C54	0.282300	0.199000	0.965960
C551	C55	0.452100	0.680200	0.832400
C561	C56	0.504000	0.120200	0.213050
C571	C57	0.465600	0.283600	0.209900
C581	C58	0.250300	0.945100	0.668300
C591	C59	0.663300	0.343900	0.819800
C601	C60	0.336700	0.656100	0.180200
C611	C61	0.217700	0.301000	0.465960
C621	C62	0.596000	0.014700	0.718900
C631	C63	0.442500	0.577600	0.140800
C641	C64	0.057500	0.922400	0.640800
C651	C65	0.479600	0.017900	0.235850
C661	C66	0.749700	0.054900	0.331700
C671	C67	0.338200	0.181300	0.644990
C681	C68	0.590900	0.162800	0.169100
C691	C69	0.674600	0.621700	0.923870
C701	C70	0.047900	0.819800	0.332400
C711	C71	0.534400	0.716400	0.790100
C721	C72	0.557200	0.815300	0.765200
C731	C73	0.004000	0.620200	0.286950
C741	C74	0.995000	0.115400	0.202800
C751	C75	0.388900	0.522700	0.290800
C761	C76	0.442800	0.184700	0.234800
C771	C77	0.091400	0.950000	0.875110
C781	C78	0.409100	0.837200	0.830900
C791	C79	0.331900	0.306500	0.577620
C801	C80	0.161800	0.318700	0.144990
C811	C81	0.031700	0.223700	0.506400
C821	C82	0.724900	0.725300	0.944610
C831	C83	0.388100	0.282300	0.622530
C841	C84	0.831900	0.806500	0.922380
C851	C85	0.408600	0.550000	0.375110
C861	C86	0.496000	0.879800	0.786950
C871	C87	0.404000	0.985300	0.281100
C881	C88	0.996000	0.379800	0.713050
C891	C89	0.163300	0.843900	0.680200
C901	C90	0.637300	0.853700	0.718700
C911	C91	0.731600	0.600800	0.878920
C921	C92	0.838200	0.681300	0.855010
C931	C93	0.016200	0.261700	0.458600
C941	C94	0.782300	0.699000	0.534040
C951	C95	0.768400	0.899200	0.378920
C961	C96	0.208800	0.293100	0.807200
C971	C97	0.611900	0.717700	0.377470
C981	C98	0.057200	0.315300	0.734800
C991	C99	0.531700	0.723700	0.993600
C1001	C100	0.888100	0.782300	0.877470
C1011	C101	0.652000	0.949800	0.696000
C1021	C102	0.983800	0.738300	0.541400
C1031	C103	0.848000	0.550200	0.196000
C1041	C104	0.591400	0.450000	0.624890
C1051	C105	0.268400	0.399200	0.121080
C1061	C106	0.942500	0.077600	0.359200
C1071	C107	0.904000	0.485300	0.218900
C1081	C108	0.096000	0.514700	0.781100
N11	N1	0.132700	0.309500	0.432760
N21	N2	0.182300	0.994700	0.642700
N31	N3	0.682300	0.494700	0.857300
N41	N4	0.835100	0.982800	0.160800
N51	N5	0.817700	0.005300	0.357300
N61	N6	0.867300	0.690500	0.567240
N71	N7	0.839100	0.750400	0.488770
N81	N8	0.042400	0.831100	0.662980
N91	N9	0.457600	0.668900	0.162980
N101	N10	0.164900	0.017200	0.839200
N111	N11	0.339100	0.250400	0.011230
N121	N12	0.335100	0.482800	0.339200
N131	N13	0.660900	0.749600	0.988770
N141	N14	0.160900	0.249600	0.511230
N151	N15	0.317700	0.505300	0.142700
N161	N16	0.542400	0.331100	0.837020
N171	N17	0.957600	0.168900	0.337020
N181	N18	0.492200	0.367100	0.648560
N191	N19	0.007800	0.132900	0.148560
N201	N20	0.664900	0.517200	0.660800
N211	N21	0.992200	0.867100	0.851440
N221	N22	0.507800	0.632900	0.351440
N231	N23	0.632700	0.809500	0.067240
N241	N24	0.367300	0.190500	0.932760
O11	O1	0.754100	0.742300	0.722410
O21	O2	0.245900	0.257700	0.277590
O31	O3	0.745900	0.757700	0.222410
O41	O4	0.254100	0.242300	0.777590
O51	O5	0.975100	0.569800	0.660960
O61	O6	0.779400	0.703500	0.143130
O71	O7	0.475100	0.069800	0.839040
O81	O8	0.524900	0.930200	0.160960
O91	O9	0.927500	0.610200	0.740450
O101	O10	0.024900	0.430200	0.339040
O111	O11	0.720600	0.796500	0.643130
O121	O12	0.427500	0.110200	0.759550
O131	O13	0.279400	0.203500	0.356870
O141	O14	0.072500	0.389800	0.259550
O151	O15	0.572500	0.889800	0.240450
O161	O16	0.220600	0.296500	0.856870
