data_QOVWOP_clean_PM
_symmetry_space_group_name_H-M	'P1'
_cell_length_a	11.141400
_cell_length_b	11.141400
_cell_length_c	18.662000
_cell_angle_alpha	93.485800
_cell_angle_beta	93.485800
_cell_angle_gamma	114.961000
_symmetry_Int_Tables_number 1

loop_
_symmetry_equiv_pos_as_xyz
'x,y,z'

loop_
_atom_site_label
_atom_site_type_symbol
_atom_site_fract_x
_atom_site_fract_y
_atom_site_fract_z
Cd11	Cd1	0.369180	0.135000	0.410170
Cd21	Cd2	0.135000	0.369180	0.910170
Cd31	Cd3	0.865000	0.630820	0.089830
Cd41	Cd4	0.630820	0.865000	0.589830
H11	H1	0.841700	0.011500	0.073200
H21	H2	0.565400	0.398600	0.054300
H31	H3	0.936500	0.848900	0.960300
H41	H4	0.398600	0.565400	0.554300
H51	H5	0.715800	0.247600	0.118900
H61	H6	0.294500	0.585500	0.170700
H71	H7	0.755300	0.572300	0.535600
H81	H8	0.184200	0.738600	0.061000
H91	H9	0.937400	0.820800	0.763800
H101	H10	0.026300	0.390500	0.596300
H111	H11	0.158300	0.988500	0.926800
H121	H12	0.390500	0.026300	0.096300
H131	H13	0.572300	0.755300	0.035600
H141	H14	0.166400	0.437400	0.076700
H151	H15	0.247600	0.715800	0.618900
H161	H16	0.151100	0.063500	0.539700
H171	H17	0.165900	0.621700	0.297300
H181	H18	0.815800	0.261400	0.939000
H191	H19	0.244700	0.427700	0.464400
H201	H20	0.284200	0.752400	0.881100
H211	H21	0.261400	0.815800	0.439000
H221	H22	0.963300	0.284900	0.168400
H231	H23	0.437400	0.166400	0.576700
H241	H24	0.820800	0.937400	0.263800
H251	H25	0.988500	0.158300	0.426800
H261	H26	0.848900	0.936500	0.460300
H271	H27	0.705500	0.414500	0.829300
H281	H28	0.833600	0.562600	0.923300
H291	H29	0.378300	0.834100	0.202700
H301	H30	0.821700	0.408100	0.338000
H311	H31	0.434600	0.601400	0.945700
H321	H32	0.696800	0.119600	0.156500
H331	H33	0.063500	0.151100	0.039700
H341	H34	0.973700	0.609500	0.403700
H351	H35	0.591900	0.178300	0.162000
H361	H36	0.303200	0.880400	0.843500
H371	H37	0.119600	0.696800	0.656500
H381	H38	0.621700	0.165900	0.797300
H391	H39	0.062600	0.179200	0.236200
H401	H40	0.036700	0.715100	0.831600
H411	H41	0.427700	0.244700	0.964400
H421	H42	0.414500	0.705500	0.329300
H431	H43	0.179200	0.062600	0.736200
H441	H44	0.752400	0.284200	0.381100
H451	H45	0.562600	0.833600	0.423300
H461	H46	0.834100	0.378300	0.702700
H471	H47	0.284900	0.963300	0.668400
H481	H48	0.609500	0.973700	0.903700
H491	H49	0.408100	0.821700	0.838000
H501	H50	0.178300	0.591900	0.662000
H511	H51	0.585500	0.294500	0.670700
H521	H52	0.880400	0.303200	0.343500
H531	H53	0.601400	0.434600	0.445700
H541	H54	0.715100	0.036700	0.331600
H551	H55	0.738600	0.184200	0.561000
H561	H56	0.011500	0.841700	0.573200
C11	C1	0.502800	0.248800	0.568300
C21	C2	0.210800	0.471600	0.324660
C31	C3	0.593800	0.401000	0.008400
C41	C4	0.024400	0.331600	0.207700
C51	C5	0.533020	0.146580	0.784540
C61	C6	0.915000	0.731000	0.752100
C71	C7	0.163700	0.651700	0.631500
C81	C8	0.466980	0.853420	0.215460
C91	C9	0.863300	0.078300	0.042200
C101	C10	0.510100	0.308100	0.954700
C111	C11	0.836300	0.348300	0.368500
C121	C12	0.651700	0.163700	0.131500
C131	C13	0.733670	0.750330	0.157490
C141	C14	0.331600	0.024400	0.707700
C151	C15	0.348300	0.836300	0.868500
C161	C16	0.464600	0.055000	0.726240
C171	C17	0.308100	0.510100	0.454700
C181	C18	0.674500	0.408500	0.874800
C191	C19	0.564000	0.983200	0.942200
C201	C20	0.789200	0.528400	0.675340
C211	C21	0.983200	0.564000	0.442200
C221	C22	0.975600	0.668400	0.792300
C231	C23	0.691900	0.489900	0.545300
C241	C24	0.945000	0.535400	0.773760
C251	C25	0.156000	0.985200	0.523500
C261	C26	0.079100	0.574700	0.564400
C271	C27	0.466600	0.006800	0.319200
C281	C28	0.058400	0.634800	0.504600
C291	C29	0.599000	0.406200	0.491600
C301	C30	0.055000	0.464600	0.226240
C311	C31	0.731000	0.915000	0.252100
C321	C32	0.634800	0.058400	0.004600
C331	C33	0.178880	0.337720	0.305320
C341	C34	0.489900	0.691900	0.045300
C351	C35	0.425300	0.920900	0.935600
C361	C36	0.449080	0.689720	0.114800
C371	C37	0.136700	0.921700	0.957800
C381	C38	0.750330	0.733670	0.657490
C391	C39	0.408500	0.674500	0.374800
C401	C40	0.149400	0.783200	0.031800
C411	C41	0.016800	0.436000	0.557800
C421	C42	0.528400	0.789200	0.175340
C431	C43	0.533400	0.993200	0.680800
C441	C44	0.550920	0.310280	0.885200
C451	C45	0.078300	0.863300	0.542200
C461	C46	0.689720	0.449080	0.614800
C471	C47	0.853420	0.466980	0.715460
C481	C48	0.783200	0.149400	0.531800
C491	C49	0.920900	0.425300	0.435600
C501	C50	0.365200	0.941600	0.995400
C511	C51	0.266330	0.249670	0.842510
C521	C52	0.406200	0.599000	0.991600
C531	C53	0.248800	0.502800	0.068300
C541	C54	0.850600	0.216800	0.968200
C551	C55	0.668400	0.975600	0.292300
C561	C56	0.535400	0.945000	0.273760
C571	C57	0.216800	0.850600	0.468200
C581	C58	0.751200	0.497200	0.931700
C591	C59	0.574700	0.079100	0.064400
C601	C60	0.993200	0.533400	0.180800
C611	C61	0.471600	0.210800	0.824660
C621	C62	0.014800	0.844000	0.976500
C631	C63	0.985200	0.156000	0.023500
C641	C64	0.662280	0.821120	0.194680
C651	C65	0.269000	0.085000	0.747900
C661	C66	0.006800	0.466600	0.819200
C671	C67	0.337720	0.178880	0.805320
C681	C68	0.821120	0.662280	0.694680
C691	C69	0.591500	0.325500	0.625200
C701	C70	0.085000	0.269000	0.247900
C711	C71	0.436000	0.016800	0.057800
C721	C72	0.325500	0.591500	0.125200
C731	C73	0.497200	0.751200	0.431700
C741	C74	0.146580	0.533020	0.284540
C751	C75	0.921700	0.136700	0.457800
C761	C76	0.844000	0.014800	0.476500
C771	C77	0.249670	0.266330	0.342510
C781	C78	0.941600	0.365200	0.495400
C791	C79	0.310280	0.550920	0.385200
C801	C80	0.401000	0.593800	0.508400
N11	N1	0.118420	0.777780	0.506110
N21	N2	0.285790	0.505010	0.001870
N31	N3	0.976830	0.243170	0.977090
N41	N4	0.777780	0.118420	0.006110
N51	N5	0.222220	0.881580	0.993890
N61	N6	0.714210	0.494990	0.998130
N71	N7	0.756830	0.023170	0.522910
N81	N8	0.494990	0.714210	0.498130
N91	N9	0.243170	0.976830	0.477090
N101	N10	0.881580	0.222220	0.493890
N111	N11	0.505010	0.285790	0.501870
N121	N12	0.023170	0.756830	0.022910
O11	O1	0.817680	0.835720	0.629370
O21	O2	0.346860	0.980540	0.302910
O31	O3	0.019460	0.653140	0.197090
O41	O4	0.529980	0.080620	0.374390
O51	O5	0.980540	0.346860	0.802910
O61	O6	0.653140	0.019460	0.697090
O71	O7	0.372470	0.309930	0.343480
O81	O8	0.627530	0.690070	0.656520
O91	O9	0.164280	0.182320	0.870630
O101	O10	0.835720	0.817680	0.129370
O111	O11	0.080620	0.529980	0.874390
O121	O12	0.182320	0.164280	0.370630
O131	O13	0.690070	0.627530	0.156520
O141	O14	0.309930	0.372470	0.843480
O151	O15	0.919380	0.470020	0.125610
O161	O16	0.470020	0.919380	0.625610
