data_QOVWOO_SL_PM
_symmetry_space_group_name_H-M	'P1'
_cell_length_a	19.239500
_cell_length_b	15.164200
_cell_length_c	6.681200
_cell_angle_alpha	90.000000
_cell_angle_beta	84.084200
_cell_angle_gamma	90.000000
_symmetry_Int_Tables_number 1

loop_
_symmetry_equiv_pos_as_xyz
'x,y,z'

loop_
_atom_site_label
_atom_site_type_symbol
_atom_site_fract_x
_atom_site_fract_y
_atom_site_fract_z
Ga11	Ga1	0.495680	0.253960	0.519280
H21	H2	0.787320	0.093720	0.581490
H31	H3	0.668810	0.124740	0.557270
H41	H4	0.708240	0.142730	0.948310
H51	H5	0.826760	0.111710	0.972520
H61	H6	0.280820	0.176890	0.560100
H71	H7	0.163200	0.143630	0.527720
H81	H8	0.215990	0.068120	0.947320
H91	H9	0.333610	0.101390	0.979700
C101	C10	0.816870	0.100140	0.279020
C111	C11	0.770830	0.103940	0.449470
C121	C12	0.701740	0.122020	0.435350
C131	C13	0.678690	0.136310	0.250780
C141	C14	0.724730	0.132510	0.080330
C151	C15	0.793820	0.114420	0.094450
C161	C16	0.891510	0.080600	0.294270
C171	C17	0.604050	0.155840	0.235530
C181	C18	0.316970	0.141900	0.272590
C191	C19	0.267300	0.154210	0.432330
C201	C20	0.198730	0.134820	0.413450
C211	C21	0.179840	0.103120	0.234830
C221	C22	0.229510	0.090800	0.075090
C231	C23	0.298080	0.110190	0.093970
C241	C24	0.391040	0.162850	0.292990
C251	C25	0.105770	0.082170	0.214430
O261	O26	0.499000	0.189000	0.771800
O271	O27	0.999900	0.063600	0.746500
O281	O28	0.912680	0.066030	0.465080
O291	O29	0.934390	0.078420	0.136550
O301	O30	0.561030	0.157030	0.393000
O311	O31	0.583030	0.171420	0.064970
O321	O32	0.408550	0.192310	0.458510
O331	O33	0.437100	0.151350	0.144960
O341	O34	0.059260	0.097470	0.359330
O351	O35	0.088710	0.048900	0.052040
H361	H36	0.999900	0.370460	0.246500
H371	H37	0.499000	0.123060	0.771800
Ga381	Ga38	0.504320	0.753960	0.980720
H391	H39	0.212680	0.593720	0.918510
H401	H40	0.331190	0.624740	0.942730
H411	H41	0.291760	0.642730	0.551690
H421	H42	0.173240	0.611710	0.527480
H431	H43	0.719180	0.676890	0.939900
H441	H44	0.836800	0.643630	0.972280
H451	H45	0.784010	0.568120	0.552680
H461	H46	0.666390	0.601390	0.520300
C471	C47	0.183130	0.600140	0.220980
C481	C48	0.229170	0.603940	0.050530
C491	C49	0.298260	0.622020	0.064650
C501	C50	0.321310	0.636310	0.249220
C511	C51	0.275270	0.632510	0.419670
C521	C52	0.206180	0.614420	0.405550
C531	C53	0.108490	0.580600	0.205730
C541	C54	0.395950	0.655840	0.264470
C551	C55	0.683030	0.641900	0.227410
C561	C56	0.732700	0.654210	0.067670
C571	C57	0.801270	0.634820	0.086550
C581	C58	0.820160	0.603120	0.265170
C591	C59	0.770490	0.590800	0.424910
C601	C60	0.701920	0.610190	0.406030
C611	C61	0.608960	0.662850	0.207010
C621	C62	0.894230	0.582170	0.285570
O631	O63	0.501000	0.689000	0.728200
O641	O64	0.000100	0.563600	0.753500
O651	O65	0.087320	0.566030	0.034920
O661	O66	0.065610	0.578420	0.363450
O671	O67	0.438970	0.657030	0.107000
O681	O68	0.416970	0.671420	0.435030
O691	O69	0.591450	0.692310	0.041490
O701	O70	0.562900	0.651350	0.355040
O711	O71	0.940740	0.597470	0.140670
O721	O72	0.911290	0.548900	0.447960
H731	H73	0.000100	0.870460	0.253500
H741	H74	0.501000	0.623060	0.728200
Ga751	Ga75	0.504320	0.746040	0.480720
H761	H76	0.212680	0.906280	0.418510
H771	H77	0.331190	0.875260	0.442730
H781	H78	0.291760	0.857270	0.051690
H791	H79	0.173240	0.888290	0.027480
H801	H80	0.719180	0.823110	0.439900
H811	H81	0.836800	0.856370	0.472280
H821	H82	0.784010	0.931880	0.052680
H831	H83	0.666390	0.898610	0.020300
C841	C84	0.183130	0.899860	0.720980
C851	C85	0.229170	0.896060	0.550530
C861	C86	0.298260	0.877980	0.564650
C871	C87	0.321310	0.863690	0.749220
C881	C88	0.275270	0.867490	0.919670
C891	C89	0.206180	0.885580	0.905550
C901	C90	0.108490	0.919400	0.705730
C911	C91	0.395950	0.844160	0.764470
C921	C92	0.683030	0.858100	0.727410
C931	C93	0.732700	0.845790	0.567670
C941	C94	0.801270	0.865180	0.586550
C951	C95	0.820160	0.896880	0.765170
C961	C96	0.770490	0.909200	0.924910
C971	C97	0.701920	0.889810	0.906030
C981	C98	0.608960	0.837150	0.707010
C991	C99	0.894230	0.917830	0.785570
O1001	O100	0.501000	0.811000	0.228200
O1011	O101	0.000100	0.936400	0.253500
O1021	O102	0.087320	0.933970	0.534920
O1031	O103	0.065610	0.921580	0.863450
O1041	O104	0.438970	0.842970	0.607000
O1051	O105	0.416970	0.828580	0.935030
O1061	O106	0.591450	0.807690	0.541490
O1071	O107	0.562900	0.848650	0.855040
O1081	O108	0.940740	0.902530	0.640670
O1091	O109	0.911290	0.951100	0.947960
H1101	H110	0.000100	0.629540	0.753500
H1111	H111	0.501000	0.876940	0.228200
Ga1121	Ga112	0.495680	0.246040	0.019280
H1131	H113	0.787320	0.406280	0.081490
H1141	H114	0.668810	0.375260	0.057270
H1151	H115	0.708240	0.357270	0.448310
H1161	H116	0.826760	0.388290	0.472520
H1171	H117	0.280820	0.323110	0.060100
H1181	H118	0.163200	0.356370	0.027720
H1191	H119	0.215990	0.431880	0.447320
H1201	H120	0.333610	0.398610	0.479700
C1211	C121	0.816870	0.399860	0.779020
C1221	C122	0.770830	0.396060	0.949470
C1231	C123	0.701740	0.377980	0.935350
C1241	C124	0.678690	0.363690	0.750780
C1251	C125	0.724730	0.367490	0.580330
C1261	C126	0.793820	0.385580	0.594450
C1271	C127	0.891510	0.419400	0.794270
C1281	C128	0.604050	0.344160	0.735530
C1291	C129	0.316970	0.358100	0.772590
C1301	C130	0.267300	0.345790	0.932330
C1311	C131	0.198730	0.365180	0.913450
C1321	C132	0.179840	0.396880	0.734830
C1331	C133	0.229510	0.409200	0.575090
C1341	C134	0.298080	0.389810	0.593970
C1351	C135	0.391040	0.337150	0.792990
C1361	C136	0.105770	0.417830	0.714430
O1371	O137	0.499000	0.311000	0.271800
O1381	O138	0.999900	0.436400	0.246500
O1391	O139	0.912680	0.433970	0.965080
O1401	O140	0.934390	0.421580	0.636550
O1411	O141	0.561030	0.342970	0.893000
O1421	O142	0.583030	0.328580	0.564970
O1431	O143	0.408550	0.307690	0.958510
O1441	O144	0.437100	0.348650	0.644960
O1451	O145	0.059260	0.402530	0.859330
O1461	O146	0.088710	0.451100	0.552040
H1471	H147	0.999900	0.129540	0.746500
H1481	H148	0.499000	0.376940	0.271800
Ga1491	Ga149	0.000000	0.000000	0.000000
Ga1501	Ga150	0.000000	0.500000	0.500000
Ga1511	Ga151	0.000000	0.000000	0.500000
Ga1521	Ga152	0.000000	0.500000	0.000000
