data_QOWLEU_clean_h_PM
_symmetry_space_group_name_H-M	'P1'
_cell_length_a	6.792300
_cell_length_b	15.100300
_cell_length_c	15.100300
_cell_angle_alpha	62.207000
_cell_angle_beta	81.376800
_cell_angle_gamma	98.623200
_symmetry_Int_Tables_number 1

loop_
_symmetry_equiv_pos_as_xyz
'x,y,z'

loop_
_atom_site_label
_atom_site_type_symbol
_atom_site_fract_x
_atom_site_fract_y
_atom_site_fract_z
Co11	Co1	0.298800	0.267500	0.315900
Co21	Co2	0.614700	0.315900	0.416600
Co31	Co3	0.031300	0.416600	0.267500
Co41	Co4	0.701200	0.732500	0.684100
Co51	Co5	0.385300	0.684100	0.583400
Co61	Co6	0.968700	0.583400	0.732500
C11	C1	0.239900	0.387200	0.437400
C21	C2	0.113500	0.447000	0.465700
C31	C3	0.928800	0.467000	0.433800
C41	C4	0.179000	0.481300	0.529100
C51	C5	0.677300	0.437400	0.175400
C61	C6	0.579200	0.465700	0.087300
C71	C7	0.362600	0.433800	0.099200
C81	C8	0.708100	0.529100	0.989600
C91	C9	0.852700	0.175400	0.387200
C101	C10	0.666500	0.087300	0.447000
C111	C11	0.461800	0.099200	0.467000
C121	C12	0.697700	0.989600	0.481300
C131	C13	0.760100	0.612800	0.562600
C141	C14	0.886500	0.553000	0.534300
C151	C15	0.071200	0.533000	0.566200
C161	C16	0.821000	0.518700	0.470900
C171	C17	0.322700	0.562600	0.824600
C181	C18	0.420800	0.534300	0.912700
C191	C19	0.637400	0.566200	0.900800
C201	C20	0.291900	0.470900	0.010400
C211	C21	0.147300	0.824600	0.612800
C221	C22	0.333500	0.912700	0.553000
C231	C23	0.538200	0.900800	0.533000
C241	C24	0.302300	0.010400	0.518700
N11	N1	0.381000	0.176700	0.243700
N21	N2	0.624700	0.243700	0.579600
N31	N3	0.204300	0.579600	0.176700
N41	N4	0.619000	0.823300	0.756300
N51	N5	0.375300	0.756300	0.420400
N61	N6	0.795700	0.420400	0.823300
O11	O1	0.173000	0.348000	0.385000
O21	O2	0.375400	0.358500	0.478300
O31	O3	0.862400	0.452600	0.359400
O41	O4	0.462600	0.189800	0.144000
O51	O5	0.558000	0.385000	0.267000
O61	O6	0.853700	0.478300	0.163200
O71	O7	0.221800	0.359400	0.188000
O81	O8	0.606600	0.144000	0.666200
O91	O9	0.825000	0.267000	0.348000
O101	O10	0.016900	0.163200	0.358500
O111	O11	0.409800	0.188000	0.452600
O121	O12	0.272800	0.666200	0.189800
O131	O13	0.827000	0.652000	0.615000
O141	O14	0.624600	0.641500	0.521700
O151	O15	0.137600	0.547400	0.640600
O161	O16	0.537400	0.810200	0.856000
O171	O17	0.442000	0.615000	0.733000
O181	O18	0.146300	0.521700	0.836800
O191	O19	0.778200	0.640600	0.812000
O201	O20	0.393400	0.856000	0.333800
O211	O21	0.175000	0.733000	0.652000
O221	O22	0.983100	0.836800	0.641500
O231	O23	0.590200	0.812000	0.547400
O241	O24	0.727200	0.333800	0.810200
H11	H1	0.327840	0.467420	0.553080
H21	H2	0.880920	0.553080	0.979500
H31	H3	0.860420	0.979500	0.467420
H41	H4	0.672160	0.532580	0.446920
H51	H5	0.110180	0.825360	0.541320
H61	H6	0.139580	0.020500	0.532580
