data_QOYLOG_clean_PM
_symmetry_space_group_name_H-M	'P1'
_cell_length_a	15.525900
_cell_length_b	11.867000
_cell_length_c	9.412900
_cell_angle_alpha	90.000000
_cell_angle_beta	113.089000
_cell_angle_gamma	90.000000
_symmetry_Int_Tables_number 1

loop_
_symmetry_equiv_pos_as_xyz
'x,y,z'

loop_
_atom_site_label
_atom_site_type_symbol
_atom_site_fract_x
_atom_site_fract_y
_atom_site_fract_z
O11	O1	0.784300	0.874200	0.868600
O21	O2	0.923200	0.879100	0.848500
O31	O3	0.753700	0.616500	0.852800
O41	O4	0.607700	0.671800	0.717200
H11	H1	0.921600	0.057100	0.184100
C11	C1	0.821800	0.827000	0.531500
H21	H2	0.870500	0.878400	0.552800
C21	C2	0.794900	0.793500	0.649300
C31	C3	0.722800	0.715200	0.618900
C41	C4	0.838000	0.853500	0.802800
C51	C5	0.693400	0.666100	0.741400
O51	O5	0.284300	0.374200	0.868600
O61	O6	0.423200	0.379100	0.848500
O71	O7	0.253700	0.116500	0.852800
O81	O8	0.107700	0.171800	0.717200
H31	H3	0.421600	0.557100	0.184100
C61	C6	0.321800	0.327000	0.531500
H41	H4	0.370500	0.378400	0.552800
C71	C7	0.294900	0.293500	0.649300
C81	C8	0.222800	0.215200	0.618900
C91	C9	0.338000	0.353500	0.802800
C101	C10	0.193400	0.166100	0.741400
O91	O9	0.215700	0.874200	0.131400
O101	O10	0.076800	0.879100	0.151500
O111	O11	0.246300	0.616500	0.147200
O121	O12	0.392300	0.671800	0.282800
H51	H5	0.078400	0.057100	0.815900
C111	C11	0.178200	0.827000	0.468500
H61	H6	0.129500	0.878400	0.447200
C121	C12	0.205100	0.793500	0.350700
C131	C13	0.277200	0.715200	0.381100
C141	C14	0.162000	0.853500	0.197200
C151	C15	0.306600	0.666100	0.258600
O131	O13	0.715700	0.374200	0.131400
O141	O14	0.576800	0.379100	0.151500
O151	O15	0.746300	0.116500	0.147200
O161	O16	0.892300	0.171800	0.282800
H71	H7	0.578400	0.557100	0.815900
C161	C16	0.678200	0.327000	0.468500
H81	H8	0.629500	0.378400	0.447200
C171	C17	0.705100	0.293500	0.350700
C181	C18	0.777200	0.215200	0.381100
C191	C19	0.662000	0.353500	0.197200
C201	C20	0.806600	0.166100	0.258600
O171	O17	0.215700	0.125800	0.131400
O181	O18	0.076800	0.120900	0.151500
O191	O19	0.246300	0.383500	0.147200
O201	O20	0.392300	0.328200	0.282800
H91	H9	0.078400	0.942900	0.815900
C211	C21	0.178200	0.173000	0.468500
H101	H10	0.129500	0.121600	0.447200
C221	C22	0.205100	0.206500	0.350700
C231	C23	0.277200	0.284800	0.381100
C241	C24	0.162000	0.146500	0.197200
C251	C25	0.306600	0.333900	0.258600
O211	O21	0.715700	0.625800	0.131400
O221	O22	0.576800	0.620900	0.151500
O231	O23	0.746300	0.883500	0.147200
O241	O24	0.892300	0.828200	0.282800
H111	H11	0.578400	0.442900	0.815900
C261	C26	0.678200	0.673000	0.468500
H121	H12	0.629500	0.621600	0.447200
C271	C27	0.705100	0.706500	0.350700
C281	C28	0.777200	0.784800	0.381100
C291	C29	0.662000	0.646500	0.197200
C301	C30	0.806600	0.833900	0.258600
O251	O25	0.784300	0.125800	0.868600
O261	O26	0.923200	0.120900	0.848500
O271	O27	0.753700	0.383500	0.852800
O281	O28	0.607700	0.328200	0.717200
H131	H13	0.921600	0.942900	0.184100
C311	C31	0.821800	0.173000	0.531500
H141	H14	0.870500	0.121600	0.552800
C321	C32	0.794900	0.206500	0.649300
C331	C33	0.722800	0.284800	0.618900
C341	C34	0.838000	0.146500	0.802800
C351	C35	0.693400	0.333900	0.741400
O291	O29	0.284300	0.625800	0.868600
O301	O30	0.423200	0.620900	0.848500
O311	O31	0.253700	0.883500	0.852800
O321	O32	0.107700	0.828200	0.717200
H151	H15	0.421600	0.442900	0.184100
C361	C36	0.321800	0.673000	0.531500
H161	H16	0.370500	0.621600	0.552800
C371	C37	0.294900	0.706500	0.649300
C381	C38	0.222800	0.784800	0.618900
C391	C39	0.338000	0.646500	0.802800
C401	C40	0.193400	0.833900	0.741400
Ni11	Ni1	0.772960	0.000000	0.005690
O331	O33	0.916900	0.000000	0.130000
Ni21	Ni2	0.272960	0.500000	0.005690
O341	O34	0.416900	0.500000	0.130000
Ni31	Ni3	0.227040	0.000000	0.994310
O351	O35	0.083100	0.000000	0.870000
Ni41	Ni4	0.727040	0.500000	0.994310
O361	O36	0.583100	0.500000	0.870000
Ni51	Ni5	0.000000	0.000000	0.000000
Ni61	Ni6	0.500000	0.500000	0.000000
