data_QOZPOM_clean_PM
_symmetry_space_group_name_H-M	'P1'
_cell_length_a	10.326500
_cell_length_b	14.197600
_cell_length_c	18.247700
_cell_angle_alpha	90.000000
_cell_angle_beta	93.759000
_cell_angle_gamma	90.000000
_symmetry_Int_Tables_number 1

loop_
_symmetry_equiv_pos_as_xyz
'x,y,z'

loop_
_atom_site_label
_atom_site_type_symbol
_atom_site_fract_x
_atom_site_fract_y
_atom_site_fract_z
Zn11	Zn1	0.219480	0.989430	0.239270
Zn21	Zn2	0.719480	0.510570	0.239270
Zn31	Zn3	0.280520	0.489430	0.760730
Zn41	Zn4	0.780520	0.010570	0.760730
H11	H1	0.860500	0.624000	0.025800
H21	H2	0.549400	0.221800	0.577000
H31	H3	0.914400	0.716800	0.242300
H41	H4	0.160100	0.792500	0.789500
H51	H5	0.639500	0.124000	0.974200
H61	H6	0.908000	0.265900	0.051200
H71	H7	0.654300	0.364200	0.108800
H81	H8	0.139500	0.376000	0.974200
H91	H9	0.085600	0.283200	0.757700
H101	H10	0.655500	0.635500	0.377100
H111	H11	0.326400	0.104200	0.479000
H121	H12	0.092000	0.734100	0.948800
H131	H13	0.049400	0.278200	0.577000
H141	H14	0.660100	0.707500	0.789500
H151	H15	0.585600	0.216800	0.757700
H161	H16	0.408000	0.234100	0.051200
H171	H17	0.844500	0.135500	0.622900
H181	H18	0.345700	0.635800	0.891200
H191	H19	0.839900	0.207500	0.210500
H201	H20	0.360500	0.876000	0.025800
H211	H21	0.950600	0.721800	0.423000
H221	H22	0.592000	0.765900	0.948800
H231	H23	0.173600	0.604200	0.521000
H241	H24	0.673600	0.895800	0.521000
H251	H25	0.450600	0.778200	0.423000
H261	H26	0.845700	0.864200	0.891200
H271	H27	0.154300	0.135800	0.108800
H281	H28	0.155500	0.864500	0.377100
H291	H29	0.344500	0.364500	0.622900
H301	H30	0.414400	0.783200	0.242300
H311	H31	0.826400	0.395800	0.479000
H321	H32	0.339900	0.292500	0.210500
C11	C1	0.588200	0.362460	0.142590
C21	C2	0.433500	0.001420	0.064370
C31	C3	0.569000	0.998400	0.568490
C41	C4	0.474500	0.736700	0.260300
C51	C5	0.911800	0.862460	0.857410
C61	C6	0.603000	0.938100	0.512670
C71	C7	0.916900	0.573640	0.015370
C81	C8	0.411800	0.637540	0.857410
C91	C9	0.482800	0.924950	0.951340
C101	C10	0.105500	0.843500	0.334710
C111	C11	0.965600	0.439880	0.554690
C121	C12	0.416500	0.324200	0.198250
C131	C13	0.858900	0.496760	0.132210
C141	C14	0.576200	0.870500	0.388660
C151	C15	0.894500	0.156500	0.665290
C161	C16	0.083500	0.824200	0.801750
C171	C17	0.025500	0.236700	0.739700
C181	C18	0.431000	0.001600	0.431510
C191	C19	0.034400	0.560120	0.445310
C201	C20	0.394500	0.343500	0.665290
C211	C21	0.017200	0.424950	0.048660
C221	C22	0.566500	0.998580	0.935630
C231	C23	0.954100	0.655530	0.898910
C241	C24	0.933500	0.498580	0.064370
C251	C25	0.141100	0.503240	0.867790
C261	C26	0.356300	0.000500	0.357630
C271	C27	0.076200	0.629500	0.388660
C281	C28	0.931000	0.498400	0.431510
C291	C29	0.083100	0.426360	0.984630
C301	C30	0.143700	0.500500	0.642370
C311	C31	0.088200	0.137540	0.142590
C321	C32	0.916500	0.175800	0.198250
C331	C33	0.525500	0.263300	0.739700
C341	C34	0.358900	0.003240	0.132210
C351	C35	0.897000	0.438100	0.487330
C361	C36	0.465600	0.060120	0.554690
C371	C37	0.982800	0.575050	0.951340
C381	C38	0.856300	0.499500	0.357630
C391	C39	0.423800	0.129500	0.611340
C401	C40	0.643700	0.999500	0.642370
C411	C41	0.066500	0.501420	0.935630
C421	C42	0.641100	0.996760	0.867790
C431	C43	0.923800	0.370500	0.611340
C441	C44	0.517200	0.075050	0.048660
C451	C45	0.974500	0.763300	0.260300
C461	C46	0.545900	0.155530	0.101090
C471	C47	0.103000	0.561900	0.512670
C481	C48	0.045900	0.344470	0.101090
C491	C49	0.583500	0.675800	0.801750
C501	C50	0.069000	0.501600	0.568490
C511	C51	0.397000	0.061900	0.487330
C521	C52	0.583100	0.073640	0.984630
C531	C53	0.454100	0.844470	0.898910
C541	C54	0.416900	0.926360	0.015370
C551	C55	0.605500	0.656500	0.334710
C561	C56	0.534400	0.939880	0.445310
N11	N1	0.028000	0.892630	0.763930
N21	N2	0.515500	0.695140	0.861680
N31	N3	0.015500	0.804860	0.861680
N41	N4	0.966500	0.268270	0.088450
N51	N5	0.972000	0.107370	0.236070
N61	N6	0.106700	0.880220	0.268700
N71	N7	0.975600	0.170900	0.779440
N81	N8	0.893300	0.119780	0.731300
N91	N9	0.524400	0.670900	0.220560
N101	N10	0.475600	0.329100	0.779440
N111	N11	0.984500	0.195140	0.138320
N121	N12	0.495400	0.209950	0.611200
N131	N13	0.995400	0.290050	0.611200
N141	N14	0.033500	0.731730	0.911550
N151	N15	0.021800	0.771740	0.331930
N161	N16	0.083300	0.084330	0.200730
N171	N17	0.533500	0.768270	0.911550
N181	N18	0.466500	0.231730	0.088450
N191	N19	0.978200	0.228260	0.668070
N201	N20	0.024400	0.829100	0.220560
N211	N21	0.472000	0.392630	0.236070
N221	N22	0.606700	0.619780	0.268700
N231	N23	0.478200	0.271740	0.668070
N241	N24	0.916700	0.915670	0.799270
N251	N25	0.583300	0.415670	0.200730
N261	N26	0.504600	0.790050	0.388800
N271	N27	0.416700	0.584330	0.799270
N281	N28	0.484500	0.304860	0.138320
N291	N29	0.393300	0.380220	0.731300
N301	N30	0.521800	0.728260	0.331930
N311	N31	0.004600	0.709950	0.388800
N321	N32	0.528000	0.607370	0.763930
O11	O1	0.132370	0.573940	0.826870
O21	O2	0.287300	0.933720	0.144590
O31	O3	0.667700	0.881130	0.351310
O41	O4	0.332300	0.118870	0.648690
O51	O5	0.867630	0.426060	0.173130
O61	O6	0.861110	0.655610	0.854860
O71	O7	0.212700	0.433720	0.855410
O81	O8	0.265800	0.055600	0.346010
O91	O9	0.632370	0.926060	0.826870
O101	O10	0.367630	0.073940	0.173130
O111	O11	0.113800	0.443160	0.689750
O121	O12	0.386200	0.943160	0.310250
O131	O13	0.787300	0.566280	0.144590
O141	O14	0.886200	0.556840	0.310250
O151	O15	0.734200	0.944400	0.653990
O161	O16	0.765800	0.444400	0.346010
O171	O17	0.712700	0.066280	0.855410
O181	O18	0.832300	0.381130	0.648690
O191	O19	0.613800	0.056840	0.689750
O201	O20	0.167700	0.618870	0.351310
O211	O21	0.138890	0.344390	0.145140
O221	O22	0.361110	0.844390	0.854860
O231	O23	0.638890	0.155610	0.145140
O241	O24	0.234200	0.555600	0.653990
