data_QQQGTA02_clean_PM
_symmetry_space_group_name_H-M	'P1'
_cell_length_a	10.667800
_cell_length_b	10.667800
_cell_length_c	10.667800
_cell_angle_alpha	105.965000
_cell_angle_beta	105.965000
_cell_angle_gamma	105.965000
_symmetry_Int_Tables_number 1

loop_
_symmetry_equiv_pos_as_xyz
'x,y,z'

loop_
_atom_site_label
_atom_site_type_symbol
_atom_site_fract_x
_atom_site_fract_y
_atom_site_fract_z
Cd11	Cd1	0.985070	0.250330	0.715440
Cd21	Cd2	0.715440	0.985070	0.250330
Cd31	Cd3	0.250330	0.715440	0.985070
Cd41	Cd4	0.014930	0.749670	0.284560
Cd51	Cd5	0.284560	0.014930	0.749670
Cd61	Cd6	0.749670	0.284560	0.014930
H11	H1	0.301200	0.357900	0.136000
H21	H2	0.136900	0.290800	0.060800
H31	H3	0.136000	0.301200	0.357900
H41	H4	0.060800	0.136900	0.290800
H51	H5	0.357900	0.136000	0.301200
H61	H6	0.290800	0.060800	0.136900
H71	H7	0.698800	0.642100	0.864000
H81	H8	0.863100	0.709200	0.939200
H91	H9	0.864000	0.698800	0.642100
H101	H10	0.939200	0.863100	0.709200
H111	H11	0.642100	0.864000	0.698800
H121	H12	0.709200	0.939200	0.863100
C11	C1	0.235300	0.217700	0.934700
C21	C2	0.223700	0.330700	0.048100
C31	C3	0.225300	0.461200	0.018300
C41	C4	0.934700	0.235300	0.217700
C51	C5	0.048100	0.223700	0.330700
C61	C6	0.018300	0.225300	0.461200
C71	C7	0.217700	0.934700	0.235300
C81	C8	0.330700	0.048100	0.223700
C91	C9	0.461200	0.018300	0.225300
C101	C10	0.764700	0.782300	0.065300
C111	C11	0.776300	0.669300	0.951900
C121	C12	0.774700	0.538800	0.981700
C131	C13	0.065300	0.764700	0.782300
C141	C14	0.951900	0.776300	0.669300
C151	C15	0.981700	0.774700	0.538800
C161	C16	0.782300	0.065300	0.764700
C171	C17	0.669300	0.951900	0.776300
C181	C18	0.538800	0.981700	0.774700
O11	O1	0.144600	0.164200	0.811000
O21	O2	0.333700	0.177100	0.967800
O31	O3	0.134300	0.451400	0.907600
O41	O4	0.316700	0.578100	0.105500
O51	O5	0.811000	0.144600	0.164200
O61	O6	0.967800	0.333700	0.177100
O71	O7	0.907600	0.134300	0.451400
O81	O8	0.105500	0.316700	0.578100
O91	O9	0.164200	0.811000	0.144600
O101	O10	0.177100	0.967800	0.333700
O111	O11	0.451400	0.907600	0.134300
O121	O12	0.578100	0.105500	0.316700
O131	O13	0.855400	0.835800	0.189000
O141	O14	0.666300	0.822900	0.032200
O151	O15	0.865700	0.548600	0.092400
O161	O16	0.683300	0.421900	0.894500
O171	O17	0.189000	0.855400	0.835800
O181	O18	0.032200	0.666300	0.822900
O191	O19	0.092400	0.865700	0.548600
O201	O20	0.894500	0.683300	0.421900
O211	O21	0.835800	0.189000	0.855400
O221	O22	0.822900	0.032200	0.666300
O231	O23	0.548600	0.092400	0.865700
O241	O24	0.421900	0.894500	0.683300
