data_QUDGED_clean_PM
_symmetry_space_group_name_H-M	'P1'
_cell_length_a	26.306000
_cell_length_b	19.939000
_cell_length_c	26.336000
_cell_angle_alpha	90.000000
_cell_angle_beta	100.095000
_cell_angle_gamma	90.000000
_symmetry_Int_Tables_number 1

loop_
_symmetry_equiv_pos_as_xyz
'x,y,z'

loop_
_atom_site_label
_atom_site_type_symbol
_atom_site_fract_x
_atom_site_fract_y
_atom_site_fract_z
Zn11	Zn1	0.095620	0.431640	0.842700
Zn21	Zn2	0.105690	0.182700	0.641300
O11	O1	0.354900	0.398400	0.864300
O21	O2	0.295500	0.314700	0.858800
O31	O3	0.006300	0.735700	0.886200
O41	O4	0.966300	0.642600	0.862800
O51	O5	0.107000	0.489200	0.738900
O61	O6	0.097400	0.390000	0.773000
O71	O7	0.105000	0.156000	0.390000
O81	O8	0.097300	0.070700	0.442300
N11	N1	0.177500	0.453000	0.856200
C11	C1	0.218800	0.409200	0.857300
H11	H1	0.212800	0.362400	0.852900
C21	C2	0.269000	0.433900	0.864600
C31	C3	0.277900	0.502400	0.870900
H21	H2	0.312200	0.519200	0.875900
C41	C4	0.236600	0.546100	0.869900
H31	H3	0.242700	0.592900	0.874200
C51	C5	0.186400	0.521500	0.862500
N21	N2	0.097500	0.533500	0.855600
C61	C6	0.144800	0.565900	0.869000
C71	C7	0.146400	0.633100	0.883200
H41	H4	0.178700	0.655200	0.892300
C81	C8	0.100800	0.668000	0.884000
H51	H5	0.101900	0.713900	0.893700
C91	C9	0.053500	0.635600	0.870600
C101	C10	0.051900	0.568400	0.856400
H61	H6	0.019600	0.546200	0.847300
N31	N3	0.109900	0.283000	0.643800
C111	C11	0.105900	0.317500	0.688800
H71	H7	0.101500	0.293500	0.718900
C121	C12	0.108300	0.387200	0.689800
C131	C13	0.114700	0.422300	0.645800
H81	H8	0.116300	0.469900	0.646400
C141	C14	0.118700	0.387800	0.600800
H91	H9	0.123000	0.411900	0.570700
C151	C15	0.116300	0.318200	0.599800
N41	N4	0.105100	0.204400	0.563500
C161	C16	0.109100	0.272600	0.553800
C171	C17	0.110200	0.294800	0.504000
H101	H10	0.112900	0.341400	0.497300
C181	C18	0.107300	0.248900	0.463900
H111	H11	0.108000	0.264000	0.429800
C191	C19	0.103300	0.180700	0.473600
C201	C20	0.102200	0.158500	0.523400
H121	H12	0.099500	0.111900	0.530100
C211	C21	0.303600	0.368000	0.859500
C221	C22	0.006500	0.680700	0.877900
C231	C23	0.101100	0.430500	0.738700
C241	C24	0.103500	0.127500	0.433400
Zn31	Zn3	0.595620	0.931640	0.342700
Zn41	Zn4	0.605690	0.682700	0.141300
O91	O9	0.854900	0.898400	0.364300
O101	O10	0.795500	0.814700	0.358800
O111	O11	0.506300	0.235700	0.386200
O121	O12	0.466300	0.142600	0.362800
O131	O13	0.607000	0.989200	0.238900
O141	O14	0.597400	0.890000	0.273000
O151	O15	0.605000	0.656000	0.890000
O161	O16	0.597300	0.570700	0.942300
N51	N5	0.677500	0.953000	0.356200
C251	C25	0.718800	0.909200	0.357300
H131	H13	0.712800	0.862400	0.352900
C261	C26	0.769000	0.933900	0.364600
C271	C27	0.777900	0.002400	0.370900
H141	H14	0.812200	0.019200	0.375900
C281	C28	0.736600	0.046100	0.369900
H151	H15	0.742700	0.092900	0.374200
C291	C29	0.686400	0.021500	0.362500
N61	N6	0.597500	0.033500	0.355600
C301	C30	0.644800	0.065900	0.369000
C311	C31	0.646400	0.133100	0.383200
H161	H16	0.678700	0.155200	0.392300
C321	C32	0.600800	0.168000	0.384000
H171	H17	0.601900	0.213900	0.393700
C331	C33	0.553500	0.135600	0.370600
C341	C34	0.551900	0.068400	0.356400
H181	H18	0.519600	0.046200	0.347300
N71	N7	0.609900	0.783000	0.143800
C351	C35	0.605900	0.817500	0.188800
H191	H19	0.601500	0.793500	0.218900
C361	C36	0.608300	0.887200	0.189800
C371	C37	0.614700	0.922300	0.145800
H201	H20	0.616300	0.969900	0.146400
C381	C38	0.618700	0.887800	0.100800
H211	H21	0.623000	0.911900	0.070700
C391	C39	0.616300	0.818200	0.099800
N81	N8	0.605100	0.704400	0.063500
C401	C40	0.609100	0.772600	0.053800
C411	C41	0.610200	0.794800	0.004000
H221	H22	0.612900	0.841400	0.997300
C421	C42	0.607300	0.748900	0.963900
H231	H23	0.608000	0.764000	0.929800
C431	C43	0.603300	0.680700	0.973600
C441	C44	0.602200	0.658500	0.023400
H241	H24	0.599500	0.611900	0.030100
C451	C45	0.803600	0.868000	0.359500
C461	C46	0.506500	0.180700	0.377900
C471	C47	0.601100	0.930500	0.238700
C481	C48	0.603500	0.627500	0.933400
Zn51	Zn5	0.404380	0.431640	0.157300
Zn61	Zn6	0.394310	0.182700	0.358700
O171	O17	0.145100	0.398400	0.135700
O181	O18	0.204500	0.314700	0.141200
O191	O19	0.493700	0.735700	0.113800
O201	O20	0.533700	0.642600	0.137200
O211	O21	0.393000	0.489200	0.261100
O221	O22	0.402600	0.390000	0.227000
O231	O23	0.395000	0.156000	0.610000
O241	O24	0.402700	0.070700	0.557700
N91	N9	0.322500	0.453000	0.143800
C491	C49	0.281200	0.409200	0.142700
H251	H25	0.287200	0.362400	0.147100
C501	C50	0.231000	0.433900	0.135400
C511	C51	0.222100	0.502400	0.129100
H261	H26	0.187800	0.519200	0.124100
C521	C52	0.263400	0.546100	0.130100
H271	H27	0.257300	0.592900	0.125800
C531	C53	0.313600	0.521500	0.137500
N101	N10	0.402500	0.533500	0.144400
C541	C54	0.355200	0.565900	0.131000
C551	C55	0.353600	0.633100	0.116800
H281	H28	0.321300	0.655200	0.107700
C561	C56	0.399200	0.668000	0.116000
H291	H29	0.398100	0.713900	0.106300
C571	C57	0.446500	0.635600	0.129400
C581	C58	0.448100	0.568400	0.143600
H301	H30	0.480400	0.546200	0.152700
N111	N11	0.390100	0.283000	0.356200
C591	C59	0.394100	0.317500	0.311200
H311	H31	0.398500	0.293500	0.281100
C601	C60	0.391700	0.387200	0.310200
C611	C61	0.385300	0.422300	0.354200
H321	H32	0.383700	0.469900	0.353600
C621	C62	0.381300	0.387800	0.399200
H331	H33	0.377000	0.411900	0.429300
C631	C63	0.383700	0.318200	0.400200
N121	N12	0.394900	0.204400	0.436500
C641	C64	0.390900	0.272600	0.446200
C651	C65	0.389800	0.294800	0.496000
H341	H34	0.387100	0.341400	0.502700
C661	C66	0.392700	0.248900	0.536100
H351	H35	0.392000	0.264000	0.570200
C671	C67	0.396700	0.180700	0.526400
C681	C68	0.397800	0.158500	0.476600
H361	H36	0.400500	0.111900	0.469900
C691	C69	0.196400	0.368000	0.140500
C701	C70	0.493500	0.680700	0.122100
C711	C71	0.398900	0.430500	0.261300
C721	C72	0.396500	0.127500	0.566600
Zn71	Zn7	0.904380	0.931640	0.657300
Zn81	Zn8	0.894310	0.682700	0.858700
O251	O25	0.645100	0.898400	0.635700
O261	O26	0.704500	0.814700	0.641200
O271	O27	0.993700	0.235700	0.613800
O281	O28	0.033700	0.142600	0.637200
O291	O29	0.893000	0.989200	0.761100
O301	O30	0.902600	0.890000	0.727000
O311	O31	0.895000	0.656000	0.110000
O321	O32	0.902700	0.570700	0.057700
N131	N13	0.822500	0.953000	0.643800
C731	C73	0.781200	0.909200	0.642700
H371	H37	0.787200	0.862400	0.647100
C741	C74	0.731000	0.933900	0.635400
C751	C75	0.722100	0.002400	0.629100
H381	H38	0.687800	0.019200	0.624100
C761	C76	0.763400	0.046100	0.630100
H391	H39	0.757300	0.092900	0.625800
C771	C77	0.813600	0.021500	0.637500
N141	N14	0.902500	0.033500	0.644400
C781	C78	0.855200	0.065900	0.631000
C791	C79	0.853600	0.133100	0.616800
H401	H40	0.821300	0.155200	0.607700
C801	C80	0.899200	0.168000	0.616000
H411	H41	0.898100	0.213900	0.606300
C811	C81	0.946500	0.135600	0.629400
C821	C82	0.948100	0.068400	0.643600
H421	H42	0.980400	0.046200	0.652700
N151	N15	0.890100	0.783000	0.856200
C831	C83	0.894100	0.817500	0.811200
H431	H43	0.898500	0.793500	0.781100
C841	C84	0.891700	0.887200	0.810200
C851	C85	0.885300	0.922300	0.854200
H441	H44	0.883700	0.969900	0.853600
C861	C86	0.881300	0.887800	0.899200
H451	H45	0.877000	0.911900	0.929300
C871	C87	0.883700	0.818200	0.900200
N161	N16	0.894900	0.704400	0.936500
C881	C88	0.890900	0.772600	0.946200
C891	C89	0.889800	0.794800	0.996000
H461	H46	0.887100	0.841400	0.002700
C901	C90	0.892700	0.748900	0.036100
H471	H47	0.892000	0.764000	0.070200
C911	C91	0.896700	0.680700	0.026400
C921	C92	0.897800	0.658500	0.976600
H481	H48	0.900500	0.611900	0.969900
C931	C93	0.696400	0.868000	0.640500
C941	C94	0.993500	0.180700	0.622100
C951	C95	0.898900	0.930500	0.761300
C961	C96	0.896500	0.627500	0.066600
Zn91	Zn9	0.904380	0.568360	0.157300
Zn101	Zn10	0.894310	0.817300	0.358700
O331	O33	0.645100	0.601600	0.135700
O341	O34	0.704500	0.685300	0.141200
O351	O35	0.993700	0.264300	0.113800
O361	O36	0.033700	0.357400	0.137200
O371	O37	0.893000	0.510800	0.261100
O381	O38	0.902600	0.610000	0.227000
O391	O39	0.895000	0.844000	0.610000
O401	O40	0.902700	0.929300	0.557700
N171	N17	0.822500	0.547000	0.143800
C971	C97	0.781200	0.590800	0.142700
H491	H49	0.787200	0.637600	0.147100
C981	C98	0.731000	0.566100	0.135400
C991	C99	0.722100	0.497600	0.129100
H501	H50	0.687800	0.480800	0.124100
C1001	C100	0.763400	0.453900	0.130100
H511	H51	0.757300	0.407100	0.125800
C1011	C101	0.813600	0.478500	0.137500
N181	N18	0.902500	0.466500	0.144400
C1021	C102	0.855200	0.434100	0.131000
C1031	C103	0.853600	0.366900	0.116800
H521	H52	0.821300	0.344800	0.107700
C1041	C104	0.899200	0.332000	0.116000
H531	H53	0.898100	0.286100	0.106300
C1051	C105	0.946500	0.364400	0.129400
C1061	C106	0.948100	0.431600	0.143600
H541	H54	0.980400	0.453800	0.152700
N191	N19	0.890100	0.717000	0.356200
C1071	C107	0.894100	0.682500	0.311200
H551	H55	0.898500	0.706500	0.281100
C1081	C108	0.891700	0.612800	0.310200
C1091	C109	0.885300	0.577700	0.354200
H561	H56	0.883700	0.530100	0.353600
C1101	C110	0.881300	0.612200	0.399200
H571	H57	0.877000	0.588100	0.429300
C1111	C111	0.883700	0.681800	0.400200
N201	N20	0.894900	0.795600	0.436500
C1121	C112	0.890900	0.727400	0.446200
C1131	C113	0.889800	0.705200	0.496000
H581	H58	0.887100	0.658600	0.502700
C1141	C114	0.892700	0.751100	0.536100
H591	H59	0.892000	0.736000	0.570200
C1151	C115	0.896700	0.819300	0.526400
C1161	C116	0.897800	0.841500	0.476600
H601	H60	0.900500	0.888100	0.469900
C1171	C117	0.696400	0.632000	0.140500
C1181	C118	0.993500	0.319300	0.122100
C1191	C119	0.898900	0.569500	0.261300
C1201	C120	0.896500	0.872500	0.566600
Zn111	Zn11	0.404380	0.068360	0.657300
Zn121	Zn12	0.394310	0.317300	0.858700
O411	O41	0.145100	0.101600	0.635700
O421	O42	0.204500	0.185300	0.641200
O431	O43	0.493700	0.764300	0.613800
O441	O44	0.533700	0.857400	0.637200
O451	O45	0.393000	0.010800	0.761100
O461	O46	0.402600	0.110000	0.727000
O471	O47	0.395000	0.344000	0.110000
O481	O48	0.402700	0.429300	0.057700
N211	N21	0.322500	0.047000	0.643800
C1211	C121	0.281200	0.090800	0.642700
H611	H61	0.287200	0.137600	0.647100
C1221	C122	0.231000	0.066100	0.635400
C1231	C123	0.222100	0.997600	0.629100
H621	H62	0.187800	0.980800	0.624100
C1241	C124	0.263400	0.953900	0.630100
H631	H63	0.257300	0.907100	0.625800
C1251	C125	0.313600	0.978500	0.637500
N221	N22	0.402500	0.966500	0.644400
C1261	C126	0.355200	0.934100	0.631000
C1271	C127	0.353600	0.866900	0.616800
H641	H64	0.321300	0.844800	0.607700
C1281	C128	0.399200	0.832000	0.616000
H651	H65	0.398100	0.786100	0.606300
C1291	C129	0.446500	0.864400	0.629400
C1301	C130	0.448100	0.931600	0.643600
H661	H66	0.480400	0.953800	0.652700
N231	N23	0.390100	0.217000	0.856200
C1311	C131	0.394100	0.182500	0.811200
H671	H67	0.398500	0.206500	0.781100
C1321	C132	0.391700	0.112800	0.810200
C1331	C133	0.385300	0.077700	0.854200
H681	H68	0.383700	0.030100	0.853600
C1341	C134	0.381300	0.112200	0.899200
H691	H69	0.377000	0.088100	0.929300
C1351	C135	0.383700	0.181800	0.900200
N241	N24	0.394900	0.295600	0.936500
C1361	C136	0.390900	0.227400	0.946200
C1371	C137	0.389800	0.205200	0.996000
H701	H70	0.387100	0.158600	0.002700
C1381	C138	0.392700	0.251100	0.036100
H711	H71	0.392000	0.236000	0.070200
C1391	C139	0.396700	0.319300	0.026400
C1401	C140	0.397800	0.341500	0.976600
H721	H72	0.400500	0.388100	0.969900
C1411	C141	0.196400	0.132000	0.640500
C1421	C142	0.493500	0.819300	0.622100
C1431	C143	0.398900	0.069500	0.761300
C1441	C144	0.396500	0.372500	0.066600
Zn131	Zn13	0.595620	0.568360	0.842700
Zn141	Zn14	0.605690	0.817300	0.641300
O491	O49	0.854900	0.601600	0.864300
O501	O50	0.795500	0.685300	0.858800
O511	O51	0.506300	0.264300	0.886200
O521	O52	0.466300	0.357400	0.862800
O531	O53	0.607000	0.510800	0.738900
O541	O54	0.597400	0.610000	0.773000
O551	O55	0.605000	0.844000	0.390000
O561	O56	0.597300	0.929300	0.442300
N251	N25	0.677500	0.547000	0.856200
C1451	C145	0.718800	0.590800	0.857300
H731	H73	0.712800	0.637600	0.852900
C1461	C146	0.769000	0.566100	0.864600
C1471	C147	0.777900	0.497600	0.870900
H741	H74	0.812200	0.480800	0.875900
C1481	C148	0.736600	0.453900	0.869900
H751	H75	0.742700	0.407100	0.874200
C1491	C149	0.686400	0.478500	0.862500
N261	N26	0.597500	0.466500	0.855600
C1501	C150	0.644800	0.434100	0.869000
C1511	C151	0.646400	0.366900	0.883200
H761	H76	0.678700	0.344800	0.892300
C1521	C152	0.600800	0.332000	0.884000
H771	H77	0.601900	0.286100	0.893700
C1531	C153	0.553500	0.364400	0.870600
C1541	C154	0.551900	0.431600	0.856400
H781	H78	0.519600	0.453800	0.847300
N271	N27	0.609900	0.717000	0.643800
C1551	C155	0.605900	0.682500	0.688800
H791	H79	0.601500	0.706500	0.718900
C1561	C156	0.608300	0.612800	0.689800
C1571	C157	0.614700	0.577700	0.645800
H801	H80	0.616300	0.530100	0.646400
C1581	C158	0.618700	0.612200	0.600800
H811	H81	0.623000	0.588100	0.570700
C1591	C159	0.616300	0.681800	0.599800
N281	N28	0.605100	0.795600	0.563500
C1601	C160	0.609100	0.727400	0.553800
C1611	C161	0.610200	0.705200	0.504000
H821	H82	0.612900	0.658600	0.497300
C1621	C162	0.607300	0.751100	0.463900
H831	H83	0.608000	0.736000	0.429800
C1631	C163	0.603300	0.819300	0.473600
C1641	C164	0.602200	0.841500	0.523400
H841	H84	0.599500	0.888100	0.530100
C1651	C165	0.803600	0.632000	0.859500
C1661	C166	0.506500	0.319300	0.877900
C1671	C167	0.601100	0.569500	0.738700
C1681	C168	0.603500	0.872500	0.433400
Zn151	Zn15	0.095620	0.068360	0.342700
Zn161	Zn16	0.105690	0.317300	0.141300
O571	O57	0.354900	0.101600	0.364300
O581	O58	0.295500	0.185300	0.358800
O591	O59	0.006300	0.764300	0.386200
O601	O60	0.966300	0.857400	0.362800
O611	O61	0.107000	0.010800	0.238900
O621	O62	0.097400	0.110000	0.273000
O631	O63	0.105000	0.344000	0.890000
O641	O64	0.097300	0.429300	0.942300
N291	N29	0.177500	0.047000	0.356200
C1691	C169	0.218800	0.090800	0.357300
H851	H85	0.212800	0.137600	0.352900
C1701	C170	0.269000	0.066100	0.364600
C1711	C171	0.277900	0.997600	0.370900
H861	H86	0.312200	0.980800	0.375900
C1721	C172	0.236600	0.953900	0.369900
H871	H87	0.242700	0.907100	0.374200
C1731	C173	0.186400	0.978500	0.362500
N301	N30	0.097500	0.966500	0.355600
C1741	C174	0.144800	0.934100	0.369000
C1751	C175	0.146400	0.866900	0.383200
H881	H88	0.178700	0.844800	0.392300
C1761	C176	0.100800	0.832000	0.384000
H891	H89	0.101900	0.786100	0.393700
C1771	C177	0.053500	0.864400	0.370600
C1781	C178	0.051900	0.931600	0.356400
H901	H90	0.019600	0.953800	0.347300
N311	N31	0.109900	0.217000	0.143800
C1791	C179	0.105900	0.182500	0.188800
H911	H91	0.101500	0.206500	0.218900
C1801	C180	0.108300	0.112800	0.189800
C1811	C181	0.114700	0.077700	0.145800
H921	H92	0.116300	0.030100	0.146400
C1821	C182	0.118700	0.112200	0.100800
H931	H93	0.123000	0.088100	0.070700
C1831	C183	0.116300	0.181800	0.099800
N321	N32	0.105100	0.295600	0.063500
C1841	C184	0.109100	0.227400	0.053800
C1851	C185	0.110200	0.205200	0.004000
H941	H94	0.112900	0.158600	0.997300
C1861	C186	0.107300	0.251100	0.963900
H951	H95	0.108000	0.236000	0.929800
C1871	C187	0.103300	0.319300	0.973600
C1881	C188	0.102200	0.341500	0.023400
H961	H96	0.099500	0.388100	0.030100
C1891	C189	0.303600	0.132000	0.359500
C1901	C190	0.006500	0.819300	0.377900
C1911	C191	0.101100	0.069500	0.238700
C1921	C192	0.103500	0.372500	0.933400
