data_QUDJIJ_clean_PM
_symmetry_space_group_name_H-M	'P1'
_cell_length_a	9.869000
_cell_length_b	11.082000
_cell_length_c	19.785000
_cell_angle_alpha	90.000000
_cell_angle_beta	90.000000
_cell_angle_gamma	111.059000
_symmetry_Int_Tables_number 1

loop_
_symmetry_equiv_pos_as_xyz
'x,y,z'

loop_
_atom_site_label
_atom_site_type_symbol
_atom_site_fract_x
_atom_site_fract_y
_atom_site_fract_z
Zn11	Zn1	0.336810	0.366810	0.184710
Zn21	Zn2	0.163190	0.133190	0.684710
Zn31	Zn3	0.663190	0.633190	0.815290
Zn41	Zn4	0.836810	0.866810	0.315290
H11	H1	0.192300	0.535800	0.354100
H21	H2	0.864600	0.179400	0.463400
H31	H3	0.166200	0.679100	0.445200
H41	H4	0.063800	0.127200	0.182500
H51	H5	0.921300	0.979200	0.107400
H61	H6	0.215000	0.140100	0.964500
H71	H7	0.354900	0.277900	0.044800
H81	H8	0.307700	0.964200	0.854100
H91	H9	0.635400	0.320600	0.963400
H101	H10	0.333800	0.820900	0.945200
H111	H11	0.436200	0.372800	0.682500
H121	H12	0.578700	0.520800	0.607400
H131	H13	0.285000	0.359900	0.464500
H141	H14	0.145100	0.222100	0.544800
H151	H15	0.807700	0.464200	0.645900
H161	H16	0.135400	0.820600	0.536600
H171	H17	0.833800	0.320900	0.554800
H181	H18	0.936200	0.872800	0.817500
H191	H19	0.078700	0.020800	0.892600
H201	H20	0.785000	0.859900	0.035500
H211	H21	0.645100	0.722100	0.955200
H221	H22	0.692300	0.035800	0.145900
H231	H23	0.364600	0.679400	0.036600
H241	H24	0.666200	0.179100	0.054800
H251	H25	0.563800	0.627200	0.317500
H261	H26	0.421300	0.479200	0.392600
H271	H27	0.715000	0.640100	0.535500
H281	H28	0.854900	0.777900	0.455200
C11	C1	0.177700	0.335500	0.287020
C21	C2	0.095800	0.345300	0.349450
C31	C3	0.127400	0.464800	0.376580
C41	C4	0.064300	0.485200	0.438540
C51	C5	0.963200	0.375600	0.472010
C61	C6	0.930400	0.251400	0.441990
C71	C7	0.992500	0.234900	0.383020
C81	C8	0.100000	0.607800	0.466920
C91	C9	0.945200	0.103600	0.351040
C101	C10	0.095300	0.129500	0.138030
C111	C11	0.007800	0.041400	0.092670
C121	C12	0.047200	0.044500	0.025670
C131	C13	0.181300	0.135200	0.008630
C141	C14	0.264800	0.218400	0.057340
C151	C15	0.322300	0.164500	0.787020
C161	C16	0.404200	0.154700	0.849450
C171	C17	0.372600	0.035200	0.876580
C181	C18	0.435700	0.014800	0.938540
C191	C19	0.536800	0.124400	0.972010
C201	C20	0.569600	0.248600	0.941990
C211	C21	0.507500	0.265100	0.883020
C221	C22	0.400000	0.892200	0.966920
C231	C23	0.554800	0.396400	0.851040
C241	C24	0.404700	0.370500	0.638030
C251	C25	0.492200	0.458600	0.592670
C261	C26	0.452800	0.455500	0.525670
C271	C27	0.318700	0.364800	0.508630
C281	C28	0.235200	0.281600	0.557340
C291	C29	0.822300	0.664500	0.712980
C301	C30	0.904200	0.654700	0.650550
C311	C31	0.872600	0.535200	0.623420
C321	C32	0.935700	0.514800	0.561460
C331	C33	0.036800	0.624400	0.527990
C341	C34	0.069600	0.748600	0.558010
C351	C35	0.007500	0.765100	0.616980
C361	C36	0.900000	0.392200	0.533080
C371	C37	0.054800	0.896400	0.648960
C381	C38	0.904700	0.870500	0.861970
C391	C39	0.992200	0.958600	0.907330
C401	C40	0.952800	0.955500	0.974330
C411	C41	0.818700	0.864800	0.991370
C421	C42	0.735200	0.781600	0.942660
C431	C43	0.677700	0.835500	0.212980
C441	C44	0.595800	0.845300	0.150550
C451	C45	0.627400	0.964800	0.123420
C461	C46	0.564300	0.985200	0.061460
C471	C47	0.463200	0.875600	0.027990
C481	C48	0.430400	0.751400	0.058010
C491	C49	0.492500	0.734900	0.116980
C501	C50	0.600000	0.107800	0.033080
C511	C51	0.445200	0.603600	0.148960
C521	C52	0.595300	0.629500	0.361970
C531	C53	0.507800	0.541400	0.407330
C541	C54	0.547200	0.544500	0.474330
C551	C55	0.681300	0.635200	0.491370
C561	C56	0.764800	0.718400	0.442660
N11	N1	0.222400	0.217400	0.121250
N21	N2	0.277600	0.282600	0.621250
N31	N3	0.777600	0.782600	0.878750
N41	N4	0.722400	0.717400	0.378750
O11	O1	0.157400	0.389500	0.233800
O21	O2	0.270800	0.284300	0.290690
O31	O3	0.959600	0.093600	0.288960
O41	O4	0.885900	0.005700	0.388750
O51	O5	0.342600	0.110500	0.733800
O61	O6	0.229200	0.215700	0.790690
O71	O7	0.540400	0.406400	0.788960
O81	O8	0.614100	0.494300	0.888750
O91	O9	0.842600	0.610500	0.766200
O101	O10	0.729200	0.715700	0.709310
O111	O11	0.040400	0.906400	0.711040
O121	O12	0.114100	0.994300	0.611250
O131	O13	0.657400	0.889500	0.266200
O141	O14	0.770800	0.784300	0.209310
O151	O15	0.459600	0.593600	0.211040
O161	O16	0.385900	0.505700	0.111250
