data_QUDJOP_clean_PM
_symmetry_space_group_name_H-M	'P1'
_cell_length_a	10.101000
_cell_length_b	10.218400
_cell_length_c	21.058000
_cell_angle_alpha	90.000000
_cell_angle_beta	90.000000
_cell_angle_gamma	106.098000
_symmetry_Int_Tables_number 1

loop_
_symmetry_equiv_pos_as_xyz
'x,y,z'

loop_
_atom_site_label
_atom_site_type_symbol
_atom_site_fract_x
_atom_site_fract_y
_atom_site_fract_z
Zn11	Zn1	0.899520	0.376890	0.212650
Zn21	Zn2	0.600480	0.123110	0.712650
Zn31	Zn3	0.100480	0.623110	0.787350
Zn41	Zn4	0.399520	0.876890	0.287350
H11	H1	0.934700	0.658800	0.023600
H21	H2	0.209600	0.037100	0.129100
H31	H3	0.861100	0.810600	0.946900
H41	H4	0.891700	0.284600	0.077800
H51	H5	0.742100	0.151900	0.006000
H61	H6	0.466400	0.037600	0.146300
H71	H7	0.620100	0.178200	0.214400
H81	H8	0.565300	0.841200	0.523600
H91	H9	0.290400	0.462900	0.629100
H101	H10	0.638900	0.689400	0.446900
H111	H11	0.608300	0.215400	0.577800
H121	H12	0.757900	0.348100	0.506000
H131	H13	0.033600	0.462400	0.646300
H141	H14	0.879900	0.321800	0.714400
H151	H15	0.065300	0.341200	0.976400
H161	H16	0.790400	0.962900	0.870900
H171	H17	0.138900	0.189400	0.053100
H181	H18	0.108300	0.715400	0.922200
H191	H19	0.257900	0.848100	0.994000
H201	H20	0.533600	0.962400	0.853700
H211	H21	0.379900	0.821800	0.785600
H221	H22	0.434700	0.158800	0.476400
H231	H23	0.709600	0.537100	0.370900
H241	H24	0.361100	0.310600	0.553100
H251	H25	0.391700	0.784600	0.422200
H261	H26	0.242100	0.651900	0.494000
H271	H27	0.966400	0.537600	0.353700
H281	H28	0.120100	0.678200	0.285600
C11	C1	0.038300	0.575400	0.122640
C21	C2	0.062500	0.717100	0.096910
C31	C3	0.988600	0.735000	0.044590
C41	C4	0.992100	0.865800	0.021690
C51	C5	0.076700	0.983800	0.053810
C61	C6	0.154100	0.962100	0.107760
C71	C7	0.148900	0.835800	0.128650
C81	C8	0.916500	0.885800	0.968060
C91	C9	0.240600	0.816600	0.182290
C101	C10	0.804700	0.235000	0.091480
C111	C11	0.716000	0.155200	0.048210
C121	C12	0.587100	0.079900	0.068840
C131	C13	0.552000	0.088000	0.131510
C141	C14	0.645100	0.171700	0.172230
C151	C15	0.461700	0.924600	0.622640
C161	C16	0.437500	0.782900	0.596910
C171	C17	0.511400	0.765000	0.544590
C181	C18	0.507900	0.634200	0.521690
C191	C19	0.423300	0.516200	0.553810
C201	C20	0.345900	0.537900	0.607760
C211	C21	0.351100	0.664200	0.628650
C221	C22	0.583500	0.614200	0.468060
C231	C23	0.259400	0.683400	0.682290
C241	C24	0.695300	0.265000	0.591480
C251	C25	0.784000	0.344800	0.548210
C261	C26	0.912900	0.420100	0.568840
C271	C27	0.948000	0.412000	0.631510
C281	C28	0.854900	0.328300	0.672230
C291	C29	0.961700	0.424600	0.877360
C301	C30	0.937500	0.282900	0.903090
C311	C31	0.011400	0.265000	0.955410
C321	C32	0.007900	0.134200	0.978310
C331	C33	0.923300	0.016200	0.946190
C341	C34	0.845900	0.037900	0.892240
C351	C35	0.851100	0.164200	0.871350
C361	C36	0.083500	0.114200	0.031940
C371	C37	0.759400	0.183400	0.817710
C381	C38	0.195300	0.765000	0.908520
C391	C39	0.284000	0.844800	0.951790
C401	C40	0.412900	0.920100	0.931160
C411	C41	0.448000	0.912000	0.868490
C421	C42	0.354900	0.828300	0.827770
C431	C43	0.538300	0.075400	0.377360
C441	C44	0.562500	0.217100	0.403090
C451	C45	0.488600	0.235000	0.455410
C461	C46	0.492100	0.365800	0.478310
C471	C47	0.576700	0.483800	0.446190
C481	C48	0.654100	0.462100	0.392240
C491	C49	0.648900	0.335800	0.371350
C501	C50	0.416500	0.385800	0.531940
C511	C51	0.740600	0.316600	0.317710
C521	C52	0.304700	0.735000	0.408520
C531	C53	0.216000	0.655200	0.451790
C541	C54	0.087100	0.579900	0.431160
C551	C55	0.052000	0.588000	0.368490
C561	C56	0.145100	0.671700	0.327770
N11	N1	0.770800	0.244100	0.152700
N21	N2	0.486200	0.991300	0.028610
N31	N3	0.729200	0.255900	0.652700
N41	N4	0.013800	0.508700	0.528610
N51	N5	0.229200	0.755900	0.847300
N61	N6	0.513800	0.008700	0.971390
N71	N7	0.270800	0.744100	0.347300
N81	N8	0.986200	0.491300	0.471390
O11	O1	0.975900	0.558100	0.177140
O21	O2	0.067900	0.485000	0.091880
O31	O3	0.275300	0.710600	0.186790
O41	O4	0.282300	0.918000	0.220170
O51	O5	0.524100	0.941900	0.677140
O61	O6	0.432100	0.015000	0.591880
O71	O7	0.224700	0.789400	0.686790
O81	O8	0.217700	0.582000	0.720170
O91	O9	0.024100	0.441900	0.822860
O101	O10	0.932100	0.515000	0.908120
O111	O11	0.724700	0.289400	0.813210
O121	O12	0.717700	0.082000	0.779830
O131	O13	0.475900	0.058100	0.322860
O141	O14	0.567900	0.985000	0.408120
O151	O15	0.775300	0.210600	0.313210
O161	O16	0.782300	0.418000	0.279830
