data_QUFKIN_clean_PM
_symmetry_space_group_name_H-M	'P1'
_cell_length_a	9.465000
_cell_length_b	12.581000
_cell_length_c	18.980000
_cell_angle_alpha	90.000000
_cell_angle_beta	93.548000
_cell_angle_gamma	90.000000
_symmetry_Int_Tables_number 1

loop_
_symmetry_equiv_pos_as_xyz
'x,y,z'

loop_
_atom_site_label
_atom_site_type_symbol
_atom_site_fract_x
_atom_site_fract_y
_atom_site_fract_z
Co11	Co1	0.249360	0.852990	0.241120
Co21	Co2	0.062490	0.820720	0.069140
N11	N1	0.251400	0.873800	0.351590
N21	N2	0.277100	0.687500	0.389400
N31	N3	0.366800	0.712200	0.501700
N41	N4	0.370800	0.943000	0.562200
N51	N5	0.301800	0.995500	0.447300
O11	O1	0.093100	0.970100	0.226070
O21	O2	0.982200	0.955300	0.117870
O31	O3	0.403800	0.972600	0.241610
O41	O4	0.433900	0.998300	0.126960
O51	O5	0.085700	0.238700	0.238750
O61	O6	0.062500	0.174700	0.347460
O71	O7	0.403100	0.231900	0.245450
O81	O8	0.510000	0.221300	0.353550
C11	C1	0.283200	0.796600	0.399500
C21	C2	0.326800	0.642500	0.451000
H11	H1	0.332600	0.569300	0.457500
C31	C3	0.333700	0.811400	0.468600
C41	C4	0.337700	0.917200	0.494800
C51	C5	0.265200	0.970600	0.380200
H21	H2	0.247000	0.027500	0.349700
C61	C6	0.993100	0.988500	0.181800
C71	C7	0.868700	0.050700	0.207100
C81	C8	0.733500	0.016300	0.184800
H31	H3	0.723600	0.962800	0.151100
C91	C9	0.611300	0.060300	0.211800
C101	C10	0.471600	0.008000	0.191200
C111	C11	0.761900	0.177900	0.283200
H41	H4	0.771500	0.232200	0.316400
C121	C12	0.884000	0.133000	0.257000
C131	C13	0.024000	0.183800	0.283600
C141	C14	0.627000	0.143300	0.260700
C151	C15	0.501200	0.201700	0.288700
O91	O9	0.261600	0.835400	0.129230
H51	H5	0.254500	0.656200	0.350200
H61	H6	0.396100	0.014300	0.574400
H71	H7	0.405400	0.872300	0.596000
H81	H8	0.307300	0.780300	0.129100
H91	H9	0.314300	0.887000	0.124400
Co31	Co3	0.250640	0.352990	0.258880
Co41	Co4	0.437510	0.320720	0.430860
N61	N6	0.248600	0.373800	0.148410
N71	N7	0.222900	0.187500	0.110600
N81	N8	0.133200	0.212200	0.998300
N91	N9	0.129200	0.443000	0.937800
N101	N10	0.198200	0.495500	0.052700
O101	O10	0.406900	0.470100	0.273930
O111	O11	0.517800	0.455300	0.382130
O121	O12	0.096200	0.472600	0.258390
O131	O13	0.066100	0.498300	0.373040
O141	O14	0.414300	0.738700	0.261250
O151	O15	0.437500	0.674700	0.152540
O161	O16	0.096900	0.731900	0.254550
O171	O17	0.990000	0.721300	0.146450
C161	C16	0.216800	0.296600	0.100500
C171	C17	0.173200	0.142500	0.049000
H101	H10	0.167400	0.069300	0.042500
C181	C18	0.166300	0.311400	0.031400
C191	C19	0.162300	0.417200	0.005200
C201	C20	0.234800	0.470600	0.119800
H111	H11	0.253000	0.527500	0.150300
C211	C21	0.506900	0.488500	0.318200
C221	C22	0.631300	0.550700	0.292900
C231	C23	0.766500	0.516300	0.315200
H121	H12	0.776400	0.462800	0.348900
C241	C24	0.888700	0.560300	0.288200
C251	C25	0.028400	0.508000	0.308800
C261	C26	0.738100	0.677900	0.216800
H131	H13	0.728500	0.732200	0.183600
C271	C27	0.616000	0.633000	0.243000
C281	C28	0.476000	0.683800	0.216400
C291	C29	0.873000	0.643300	0.239300
C301	C30	0.998800	0.701700	0.211300
O181	O18	0.238400	0.335400	0.370770
H141	H14	0.245500	0.156200	0.149800
H151	H15	0.103900	0.514300	0.925600
H161	H16	0.094600	0.372300	0.904000
H171	H17	0.192700	0.280300	0.370900
H181	H18	0.185700	0.387000	0.375600
Co51	Co5	0.750640	0.147010	0.758880
Co61	Co6	0.937510	0.179280	0.930860
N111	N11	0.748600	0.126200	0.648410
N121	N12	0.722900	0.312500	0.610600
N131	N13	0.633200	0.287800	0.498300
N141	N14	0.629200	0.057000	0.437800
N151	N15	0.698200	0.004500	0.552700
O191	O19	0.906900	0.029900	0.773930
O201	O20	0.017800	0.044700	0.882130
O211	O21	0.596200	0.027400	0.758390
O221	O22	0.566100	0.001700	0.873040
O231	O23	0.914300	0.761300	0.761250
O241	O24	0.937500	0.825300	0.652540
O251	O25	0.596900	0.768100	0.754550
O261	O26	0.490000	0.778700	0.646450
C311	C31	0.716800	0.203400	0.600500
C321	C32	0.673200	0.357500	0.549000
H191	H19	0.667400	0.430700	0.542500
C331	C33	0.666300	0.188600	0.531400
C341	C34	0.662300	0.082800	0.505200
C351	C35	0.734800	0.029400	0.619800
H201	H20	0.753000	0.972500	0.650300
C361	C36	0.006900	0.011500	0.818200
C371	C37	0.131300	0.949300	0.792900
C381	C38	0.266500	0.983700	0.815200
H211	H21	0.276400	0.037200	0.848900
C391	C39	0.388700	0.939700	0.788200
C401	C40	0.528400	0.992000	0.808800
C411	C41	0.238100	0.822100	0.716800
H221	H22	0.228500	0.767800	0.683600
C421	C42	0.116000	0.867000	0.743000
C431	C43	0.976000	0.816200	0.716400
C441	C44	0.373000	0.856700	0.739300
C451	C45	0.498800	0.798300	0.711300
O271	O27	0.738400	0.164600	0.870770
H231	H23	0.745500	0.343800	0.649800
H241	H24	0.603900	0.985700	0.425600
H251	H25	0.594600	0.127700	0.404000
H261	H26	0.692700	0.219700	0.870900
H271	H27	0.685700	0.113000	0.875600
Co71	Co7	0.749360	0.647010	0.741120
Co81	Co8	0.562490	0.679280	0.569140
N161	N16	0.751400	0.626200	0.851590
N171	N17	0.777100	0.812500	0.889400
N181	N18	0.866800	0.787800	0.001700
N191	N19	0.870800	0.557000	0.062200
N201	N20	0.801800	0.504500	0.947300
O281	O28	0.593100	0.529900	0.726070
O291	O29	0.482200	0.544700	0.617870
O301	O30	0.903800	0.527400	0.741610
O311	O31	0.933900	0.501700	0.626960
O321	O32	0.585700	0.261300	0.738750
O331	O33	0.562500	0.325300	0.847460
O341	O34	0.903100	0.268100	0.745450
O351	O35	0.010000	0.278700	0.853550
C461	C46	0.783200	0.703400	0.899500
C471	C47	0.826800	0.857500	0.951000
H281	H28	0.832600	0.930700	0.957500
C481	C48	0.833700	0.688600	0.968600
C491	C49	0.837700	0.582800	0.994800
C501	C50	0.765200	0.529400	0.880200
H291	H29	0.747000	0.472500	0.849700
C511	C51	0.493100	0.511500	0.681800
C521	C52	0.368700	0.449300	0.707100
C531	C53	0.233500	0.483700	0.684800
H301	H30	0.223600	0.537200	0.651100
C541	C54	0.111300	0.439700	0.711800
C551	C55	0.971600	0.492000	0.691200
C561	C56	0.261900	0.322100	0.783200
H311	H31	0.271500	0.267800	0.816400
C571	C57	0.384000	0.367000	0.757000
C581	C58	0.524000	0.316200	0.783600
C591	C59	0.127000	0.356700	0.760700
C601	C60	0.001200	0.298300	0.788700
O361	O36	0.761600	0.664600	0.629230
H321	H32	0.754500	0.843800	0.850200
H331	H33	0.896100	0.485700	0.074400
H341	H34	0.905400	0.627700	0.096000
H351	H35	0.807300	0.719700	0.629100
H361	H36	0.814300	0.613000	0.624400
