data_QUHMOX_clean_PM
_symmetry_space_group_name_H-M	'P1'
_cell_length_a	19.439000
_cell_length_b	12.991000
_cell_length_c	9.716300
_cell_angle_alpha	90.000000
_cell_angle_beta	93.310000
_cell_angle_gamma	90.000000
_symmetry_Int_Tables_number 1

loop_
_symmetry_equiv_pos_as_xyz
'x,y,z'

loop_
_atom_site_label
_atom_site_type_symbol
_atom_site_fract_x
_atom_site_fract_y
_atom_site_fract_z
Gd11	Gd1	0.332550	0.330920	0.097940
Gd21	Gd2	0.122940	0.647390	0.996480
S11	S1	0.310440	0.593110	0.965270
S21	S2	0.349020	0.112840	0.867840
O11	O1	0.373100	0.169300	0.747000
O21	O2	0.242000	0.185500	0.107900
O31	O3	0.371700	0.170000	0.994300
O41	O4	0.339300	0.509200	0.052300
O51	O5	0.234600	0.585000	0.954500
O61	O6	0.317300	0.190300	0.281700
O71	O7	0.339900	0.586700	0.828500
O81	O8	0.330100	0.691900	0.033100
O91	O9	0.537900	0.180100	0.157100
O101	O10	0.381200	0.009000	0.871600
O111	O11	0.451200	0.313500	0.169200
O121	O12	0.274500	0.100800	0.855400
C11	C1	0.267300	0.146000	0.216900
H11	H1	0.249300	0.089200	0.256300
Gd31	Gd3	0.832550	0.830920	0.097940
Gd41	Gd4	0.622940	0.147390	0.996480
S31	S3	0.810440	0.093110	0.965270
S41	S4	0.849020	0.612840	0.867840
O131	O13	0.873100	0.669300	0.747000
O141	O14	0.742000	0.685500	0.107900
O151	O15	0.871700	0.670000	0.994300
O161	O16	0.839300	0.009200	0.052300
O171	O17	0.734600	0.085000	0.954500
O181	O18	0.817300	0.690300	0.281700
O191	O19	0.839900	0.086700	0.828500
O201	O20	0.830100	0.191900	0.033100
O211	O21	0.037900	0.680100	0.157100
O221	O22	0.881200	0.509000	0.871600
O231	O23	0.951200	0.813500	0.169200
O241	O24	0.774500	0.600800	0.855400
C21	C2	0.767300	0.646000	0.216900
H21	H2	0.749300	0.589200	0.256300
Gd51	Gd5	0.667450	0.330920	0.402060
Gd61	Gd6	0.877060	0.647390	0.503520
S51	S5	0.689560	0.593110	0.534730
S61	S6	0.650980	0.112840	0.632160
O251	O25	0.626900	0.169300	0.753000
O261	O26	0.758000	0.185500	0.392100
O271	O27	0.628300	0.170000	0.505700
O281	O28	0.660700	0.509200	0.447700
O291	O29	0.765400	0.585000	0.545500
O301	O30	0.682700	0.190300	0.218300
O311	O31	0.660100	0.586700	0.671500
O321	O32	0.669900	0.691900	0.466900
O331	O33	0.462100	0.180100	0.342900
O341	O34	0.618800	0.009000	0.628400
O351	O35	0.548800	0.313500	0.330800
O361	O36	0.725500	0.100800	0.644600
C31	C3	0.732700	0.146000	0.283100
H31	H3	0.750700	0.089200	0.243700
Gd71	Gd7	0.167450	0.830920	0.402060
Gd81	Gd8	0.377060	0.147390	0.503520
S71	S7	0.189560	0.093110	0.534730
S81	S8	0.150980	0.612840	0.632160
O371	O37	0.126900	0.669300	0.753000
O381	O38	0.258000	0.685500	0.392100
O391	O39	0.128300	0.670000	0.505700
O401	O40	0.160700	0.009200	0.447700
O411	O41	0.265400	0.085000	0.545500
O421	O42	0.182700	0.690300	0.218300
O431	O43	0.160100	0.086700	0.671500
O441	O44	0.169900	0.191900	0.466900
O451	O45	0.962100	0.680100	0.342900
O461	O46	0.118800	0.509000	0.628400
O471	O47	0.048800	0.813500	0.330800
O481	O48	0.225500	0.600800	0.644600
C41	C4	0.232700	0.646000	0.283100
H41	H4	0.250700	0.589200	0.243700
Gd91	Gd9	0.667450	0.669080	0.902060
Gd101	Gd10	0.877060	0.352610	0.003520
S91	S9	0.689560	0.406890	0.034730
S101	S10	0.650980	0.887160	0.132160
O491	O49	0.626900	0.830700	0.253000
O501	O50	0.758000	0.814500	0.892100
O511	O51	0.628300	0.830000	0.005700
O521	O52	0.660700	0.490800	0.947700
O531	O53	0.765400	0.415000	0.045500
O541	O54	0.682700	0.809700	0.718300
O551	O55	0.660100	0.413300	0.171500
O561	O56	0.669900	0.308100	0.966900
O571	O57	0.462100	0.819900	0.842900
O581	O58	0.618800	0.991000	0.128400
O591	O59	0.548800	0.686500	0.830800
O601	O60	0.725500	0.899200	0.144600
C51	C5	0.732700	0.854000	0.783100
H51	H5	0.750700	0.910800	0.743700
Gd111	Gd11	0.167450	0.169080	0.902060
Gd121	Gd12	0.377060	0.852610	0.003520
S111	S11	0.189560	0.906890	0.034730
S121	S12	0.150980	0.387160	0.132160
O611	O61	0.126900	0.330700	0.253000
O621	O62	0.258000	0.314500	0.892100
O631	O63	0.128300	0.330000	0.005700
O641	O64	0.160700	0.990800	0.947700
O651	O65	0.265400	0.915000	0.045500
O661	O66	0.182700	0.309700	0.718300
O671	O67	0.160100	0.913300	0.171500
O681	O68	0.169900	0.808100	0.966900
O691	O69	0.962100	0.319900	0.842900
O701	O70	0.118800	0.491000	0.128400
O711	O71	0.048800	0.186500	0.830800
O721	O72	0.225500	0.399200	0.144600
C61	C6	0.232700	0.354000	0.783100
H61	H6	0.250700	0.410800	0.743700
Gd131	Gd13	0.332550	0.669080	0.597940
Gd141	Gd14	0.122940	0.352610	0.496480
S131	S13	0.310440	0.406890	0.465270
S141	S14	0.349020	0.887160	0.367840
O731	O73	0.373100	0.830700	0.247000
O741	O74	0.242000	0.814500	0.607900
O751	O75	0.371700	0.830000	0.494300
O761	O76	0.339300	0.490800	0.552300
O771	O77	0.234600	0.415000	0.454500
O781	O78	0.317300	0.809700	0.781700
O791	O79	0.339900	0.413300	0.328500
O801	O80	0.330100	0.308100	0.533100
O811	O81	0.537900	0.819900	0.657100
O821	O82	0.381200	0.991000	0.371600
O831	O83	0.451200	0.686500	0.669200
O841	O84	0.274500	0.899200	0.355400
C71	C7	0.267300	0.854000	0.716900
H71	H7	0.249300	0.910800	0.756300
Gd151	Gd15	0.832550	0.169080	0.597940
Gd161	Gd16	0.622940	0.852610	0.496480
S151	S15	0.810440	0.906890	0.465270
S161	S16	0.849020	0.387160	0.367840
O851	O85	0.873100	0.330700	0.247000
O861	O86	0.742000	0.314500	0.607900
O871	O87	0.871700	0.330000	0.494300
O881	O88	0.839300	0.990800	0.552300
O891	O89	0.734600	0.915000	0.454500
O901	O90	0.817300	0.309700	0.781700
O911	O91	0.839900	0.913300	0.328500
O921	O92	0.830100	0.808100	0.533100
O931	O93	0.037900	0.319900	0.657100
O941	O94	0.881200	0.491000	0.371600
O951	O95	0.951200	0.186500	0.669200
O961	O96	0.774500	0.399200	0.355400
C81	C8	0.767300	0.354000	0.716900
H81	H8	0.749300	0.410800	0.756300
S171	S17	0.500000	0.247000	0.250000
S181	S18	0.000000	0.747000	0.250000
S191	S19	0.500000	0.753000	0.750000
S201	S20	0.000000	0.253000	0.750000
