data_QUJKOX_clean_PM
_symmetry_space_group_name_H-M	'P1'
_cell_length_a	12.790500
_cell_length_b	25.915200
_cell_length_c	10.632900
_cell_angle_alpha	90.000000
_cell_angle_beta	92.472000
_cell_angle_gamma	90.000000
_symmetry_Int_Tables_number 1

loop_
_symmetry_equiv_pos_as_xyz
'x,y,z'

loop_
_atom_site_label
_atom_site_type_symbol
_atom_site_fract_x
_atom_site_fract_y
_atom_site_fract_z
Fe11	Fe1	0.814320	0.102550	0.187210
Na11	Na1	0.308660	0.293980	0.316860
Na21	Na2	0.347990	0.311740	0.026110
C11	C1	0.605380	0.220320	0.252300
Cl11	Cl1	0.648440	0.254650	0.383700
C21	C2	0.513680	0.236980	0.183100
O11	O1	0.461830	0.275830	0.205900
C31	C3	0.474370	0.203950	0.068800
O21	O2	0.398160	0.220840	0.006420
C41	C4	0.528970	0.157750	0.041500
Cl21	Cl2	0.486330	0.120870	0.914020
C51	C5	0.622030	0.145600	0.105000
O31	O3	0.683140	0.108700	0.076550
C61	C6	0.658850	0.176990	0.218800
O41	O4	0.740690	0.159230	0.277640
C71	C7	0.044740	0.206700	0.094500
Cl31	Cl3	0.012250	0.235790	0.951970
C81	C8	0.981780	0.168570	0.139500
O51	O5	0.896590	0.151900	0.085070
C91	C9	0.010330	0.142330	0.263700
O61	O6	0.944170	0.108760	0.299160
C101	C10	0.102280	0.154780	0.328600
Cl41	Cl4	0.136110	0.123640	0.468540
C111	C11	0.167620	0.195080	0.288300
O71	O7	0.248370	0.209780	0.345590
C121	C12	0.136460	0.224180	0.164500
O81	O8	0.192980	0.260100	0.134700
C131	C13	0.281100	0.459350	0.180500
Cl51	Cl5	0.350720	0.466920	0.045760
C141	C14	0.238660	0.501920	0.237100
O91	O9	0.244420	0.548280	0.196300
C151	C15	0.180980	0.496120	0.358200
O101	O10	0.148260	0.538710	0.404150
C161	C16	0.167010	0.448140	0.409200
Cl61	Cl6	0.096370	0.442030	0.543400
C171	C17	0.209920	0.402920	0.355200
O111	O11	0.201770	0.359010	0.397320
C181	C18	0.272170	0.409130	0.233200
O121	O12	0.309970	0.369470	0.189110
Fe21	Fe2	0.185680	0.602550	0.312790
Na31	Na3	0.691340	0.793980	0.183140
Na41	Na4	0.652010	0.811740	0.473890
C191	C19	0.394620	0.720320	0.247700
Cl71	Cl7	0.351560	0.754650	0.116300
C201	C20	0.486320	0.736980	0.316900
O131	O13	0.538170	0.775830	0.294100
C211	C21	0.525630	0.703950	0.431200
O141	O14	0.601840	0.720840	0.493580
C221	C22	0.471030	0.657750	0.458500
Cl81	Cl8	0.513670	0.620870	0.585980
C231	C23	0.377970	0.645600	0.395000
O151	O15	0.316860	0.608700	0.423450
C241	C24	0.341150	0.676990	0.281200
O161	O16	0.259310	0.659230	0.222360
C251	C25	0.955260	0.706700	0.405500
Cl91	Cl9	0.987750	0.735790	0.548030
C261	C26	0.018220	0.668570	0.360500
O171	O17	0.103410	0.651900	0.414930
C271	C27	0.989670	0.642330	0.236300
O181	O18	0.055830	0.608760	0.200840
C281	C28	0.897720	0.654780	0.171400
Cl101	Cl10	0.863890	0.623640	0.031460
C291	C29	0.832380	0.695080	0.211700
O191	O19	0.751630	0.709780	0.154410
C301	C30	0.863540	0.724180	0.335500
O201	O20	0.807020	0.760100	0.365300
C311	C31	0.718900	0.959350	0.319500
Cl111	Cl11	0.649280	0.966920	0.454240
C321	C32	0.761340	0.001920	0.262900
O211	O21	0.755580	0.048280	0.303700
C331	C33	0.819020	0.996120	0.141800
O221	O22	0.851740	0.038710	0.095850
C341	C34	0.832990	0.948140	0.090800
Cl121	Cl12	0.903630	0.942030	0.956600
C351	C35	0.790080	0.902920	0.144800
O231	O23	0.798230	0.859010	0.102680
C361	C36	0.727830	0.909130	0.266800
O241	O24	0.690030	0.869470	0.310890
Fe31	Fe3	0.185680	0.897450	0.812790
Na51	Na5	0.691340	0.706020	0.683140
Na61	Na6	0.652010	0.688260	0.973890
C371	C37	0.394620	0.779680	0.747700
Cl131	Cl13	0.351560	0.745350	0.616300
C381	C38	0.486320	0.763020	0.816900
O251	O25	0.538170	0.724170	0.794100
C391	C39	0.525630	0.796050	0.931200
O261	O26	0.601840	0.779160	0.993580
C401	C40	0.471030	0.842250	0.958500
Cl141	Cl14	0.513670	0.879130	0.085980
C411	C41	0.377970	0.854400	0.895000
O271	O27	0.316860	0.891300	0.923450
C421	C42	0.341150	0.823010	0.781200
O281	O28	0.259310	0.840770	0.722360
C431	C43	0.955260	0.793300	0.905500
Cl151	Cl15	0.987750	0.764210	0.048030
C441	C44	0.018220	0.831430	0.860500
O291	O29	0.103410	0.848100	0.914930
C451	C45	0.989670	0.857670	0.736300
O301	O30	0.055830	0.891240	0.700840
C461	C46	0.897720	0.845220	0.671400
Cl161	Cl16	0.863890	0.876360	0.531460
C471	C47	0.832380	0.804920	0.711700
O311	O31	0.751630	0.790220	0.654410
C481	C48	0.863540	0.775820	0.835500
O321	O32	0.807020	0.739900	0.865300
C491	C49	0.718900	0.540650	0.819500
Cl171	Cl17	0.649280	0.533080	0.954240
C501	C50	0.761340	0.498080	0.762900
O331	O33	0.755580	0.451720	0.803700
C511	C51	0.819020	0.503880	0.641800
O341	O34	0.851740	0.461290	0.595850
C521	C52	0.832990	0.551860	0.590800
Cl181	Cl18	0.903630	0.557970	0.456600
C531	C53	0.790080	0.597080	0.644800
O351	O35	0.798230	0.640990	0.602680
C541	C54	0.727830	0.590870	0.766800
O361	O36	0.690030	0.630530	0.810890
Fe41	Fe4	0.814320	0.397450	0.687210
Na71	Na7	0.308660	0.206020	0.816860
Na81	Na8	0.347990	0.188260	0.526110
C551	C55	0.605380	0.279680	0.752300
Cl191	Cl19	0.648440	0.245350	0.883700
C561	C56	0.513680	0.263020	0.683100
O371	O37	0.461830	0.224170	0.705900
C571	C57	0.474370	0.296050	0.568800
O381	O38	0.398160	0.279160	0.506420
C581	C58	0.528970	0.342250	0.541500
Cl201	Cl20	0.486330	0.379130	0.414020
C591	C59	0.622030	0.354400	0.605000
O391	O39	0.683140	0.391300	0.576550
C601	C60	0.658850	0.323010	0.718800
O401	O40	0.740690	0.340770	0.777640
C611	C61	0.044740	0.293300	0.594500
Cl211	Cl21	0.012250	0.264210	0.451970
C621	C62	0.981780	0.331430	0.639500
O411	O41	0.896590	0.348100	0.585070
C631	C63	0.010330	0.357670	0.763700
O421	O42	0.944170	0.391240	0.799160
C641	C64	0.102280	0.345220	0.828600
Cl221	Cl22	0.136110	0.376360	0.968540
C651	C65	0.167620	0.304920	0.788300
O431	O43	0.248370	0.290220	0.845590
C661	C66	0.136460	0.275820	0.664500
O441	O44	0.192980	0.239900	0.634700
C671	C67	0.281100	0.040650	0.680500
Cl231	Cl23	0.350720	0.033080	0.545760
C681	C68	0.238660	0.998080	0.737100
O451	O45	0.244420	0.951720	0.696300
C691	C69	0.180980	0.003880	0.858200
O461	O46	0.148260	0.961290	0.904150
C701	C70	0.167010	0.051860	0.909200
Cl241	Cl24	0.096370	0.057970	0.043400
C711	C71	0.209920	0.097080	0.855200
O471	O47	0.201770	0.140990	0.897320
C721	C72	0.272170	0.090870	0.733200
O481	O48	0.309970	0.130530	0.689110
