data_QUKYUR_clean_PM
_symmetry_space_group_name_H-M	'P1'
_cell_length_a	8.236800
_cell_length_b	9.406300
_cell_length_c	20.366000
_cell_angle_alpha	90.000000
_cell_angle_beta	90.000000
_cell_angle_gamma	110.286000
_symmetry_Int_Tables_number 1

loop_
_symmetry_equiv_pos_as_xyz
'x,y,z'

loop_
_atom_site_label
_atom_site_type_symbol
_atom_site_fract_x
_atom_site_fract_y
_atom_site_fract_z
Nd11	Nd1	0.380680	0.402800	0.648080
Nd21	Nd2	0.619320	0.097200	0.148080
Nd31	Nd3	0.619320	0.597200	0.351920
Nd41	Nd4	0.380680	0.902800	0.851920
Cu11	Cu1	0.039660	0.954090	0.702910
Cu21	Cu2	0.960340	0.545910	0.202910
Cu31	Cu3	0.960340	0.045910	0.297090
Cu41	Cu4	0.039660	0.454090	0.797090
P11	P1	0.217730	0.699640	0.699380
P21	P2	0.782270	0.800360	0.199380
P31	P3	0.782270	0.300360	0.300620
P41	P4	0.217730	0.199640	0.800620
H11	H1	0.782700	0.738200	0.591400
H21	H2	0.873500	0.615000	0.603700
H31	H3	0.110700	0.905100	0.528700
H41	H4	0.947400	0.946700	0.553200
H51	H5	0.152200	0.688400	0.589500
H61	H6	0.286400	0.850400	0.606600
H71	H7	0.217300	0.761800	0.091400
H81	H8	0.126500	0.885000	0.103700
H91	H9	0.889300	0.594900	0.028700
H101	H10	0.052600	0.553300	0.053200
H111	H11	0.847800	0.811600	0.089500
H121	H12	0.713600	0.649600	0.106600
H131	H13	0.217300	0.261800	0.408600
H141	H14	0.126500	0.385000	0.396300
H151	H15	0.889300	0.094900	0.471300
H161	H16	0.052600	0.053300	0.446800
H171	H17	0.847800	0.311600	0.410500
H181	H18	0.713600	0.149600	0.393400
H191	H19	0.782700	0.238200	0.908600
H201	H20	0.873500	0.115000	0.896300
H211	H21	0.110700	0.405100	0.971300
H221	H22	0.947400	0.446700	0.946800
H231	H23	0.152200	0.188400	0.910500
H241	H24	0.286400	0.350400	0.893400
C11	C1	0.782600	0.679600	0.689580
C21	C2	0.861300	0.709100	0.621000
C31	C3	0.060000	0.940400	0.566780
C41	C4	0.180900	0.095700	0.588640
C51	C5	0.179900	0.771600	0.620870
C61	C6	0.569600	0.462000	0.502640
C71	C7	0.217400	0.820400	0.189580
C81	C8	0.138700	0.790900	0.121000
C91	C9	0.940000	0.559600	0.066780
C101	C10	0.819100	0.404300	0.088640
C111	C11	0.820100	0.728400	0.120870
C121	C12	0.430400	0.038000	0.002640
C131	C13	0.217400	0.320400	0.310420
C141	C14	0.138700	0.290900	0.379000
C151	C15	0.940000	0.059600	0.433220
C161	C16	0.819100	0.904300	0.411360
C171	C17	0.820100	0.228400	0.379130
C181	C18	0.430400	0.538000	0.497360
C191	C19	0.782600	0.179600	0.810420
C201	C20	0.861300	0.209100	0.879000
C211	C21	0.060000	0.440400	0.933220
C221	C22	0.180900	0.595700	0.911360
C231	C23	0.179900	0.271600	0.879130
C241	C24	0.569600	0.962000	0.997360
N11	N1	0.034100	0.832100	0.621750
N21	N2	0.965900	0.667900	0.121750
N31	N3	0.965900	0.167900	0.378250
N41	N4	0.034100	0.332100	0.878250
O11	O1	0.844000	0.781200	0.733330
O21	O2	0.658300	0.559000	0.699700
O31	O3	0.204000	0.116800	0.651190
O41	O4	0.248500	0.198300	0.549300
O51	O5	0.362800	0.638100	0.689550
O61	O6	0.047800	0.570800	0.718600
O71	O7	0.261000	0.835400	0.744970
O81	O8	0.593600	0.414600	0.558530
O91	O9	0.648200	0.455000	0.450950
O101	O10	0.156000	0.718800	0.233330
O111	O11	0.341700	0.941000	0.199700
O121	O12	0.796000	0.383200	0.151190
O131	O13	0.751500	0.301700	0.049300
O141	O14	0.637200	0.861900	0.189550
O151	O15	0.952200	0.929200	0.218600
O161	O16	0.739000	0.664600	0.244970
O171	O17	0.406400	0.085400	0.058530
O181	O18	0.351800	0.045000	0.950950
O191	O19	0.156000	0.218800	0.266670
O201	O20	0.341700	0.441000	0.300300
O211	O21	0.796000	0.883200	0.348810
O221	O22	0.751500	0.801700	0.450700
O231	O23	0.637200	0.361900	0.310450
O241	O24	0.952200	0.429200	0.281400
O251	O25	0.739000	0.164600	0.255030
O261	O26	0.406400	0.585400	0.441470
O271	O27	0.351800	0.545000	0.549050
O281	O28	0.844000	0.281200	0.766670
O291	O29	0.658300	0.059000	0.800300
O301	O30	0.204000	0.616800	0.848810
O311	O31	0.248500	0.698300	0.950700
O321	O32	0.362800	0.138100	0.810450
O331	O33	0.047800	0.070800	0.781400
O341	O34	0.261000	0.335400	0.755030
O351	O35	0.593600	0.914600	0.941470
O361	O36	0.648200	0.955000	0.049050
