data_QUKYOL_clean_PM
_symmetry_space_group_name_H-M	'P1'
_cell_length_a	8.302800
_cell_length_b	9.463000
_cell_length_c	20.639800
_cell_angle_alpha	90.000000
_cell_angle_beta	90.000000
_cell_angle_gamma	109.867000
_symmetry_Int_Tables_number 1

loop_
_symmetry_equiv_pos_as_xyz
'x,y,z'

loop_
_atom_site_label
_atom_site_type_symbol
_atom_site_fract_x
_atom_site_fract_y
_atom_site_fract_z
La11	La1	0.376850	0.398930	0.648390
La21	La2	0.623150	0.101070	0.148390
La31	La3	0.623150	0.601070	0.351610
La41	La4	0.376850	0.898930	0.851610
Cu11	Cu1	0.036850	0.948950	0.703210
Cu21	Cu2	0.963150	0.551050	0.203210
Cu31	Cu3	0.963150	0.051050	0.296790
Cu41	Cu4	0.036850	0.448950	0.796790
P11	P1	0.209130	0.694410	0.699820
P21	P2	0.790870	0.805590	0.199820
P31	P3	0.790870	0.305590	0.300180
P41	P4	0.209130	0.194410	0.800180
H11	H1	0.779300	0.739200	0.593000
H21	H2	0.867200	0.614200	0.603500
H31	H3	0.106200	0.901100	0.530200
H41	H4	0.945100	0.944300	0.554200
H51	H5	0.143000	0.680400	0.590400
H61	H6	0.277100	0.842500	0.607400
H71	H7	0.220700	0.760800	0.093000
H81	H8	0.132800	0.885800	0.103500
H91	H9	0.893800	0.598900	0.030200
H101	H10	0.054900	0.555700	0.054200
H111	H11	0.857000	0.819600	0.090400
H121	H12	0.722900	0.657500	0.107400
H131	H13	0.220700	0.260800	0.407000
H141	H14	0.132800	0.385800	0.396500
H151	H15	0.893800	0.098900	0.469800
H161	H16	0.054900	0.055700	0.445800
H171	H17	0.857000	0.319600	0.409600
H181	H18	0.722900	0.157500	0.392600
H191	H19	0.779300	0.239200	0.907000
H201	H20	0.867200	0.114200	0.896500
H211	H21	0.106200	0.401100	0.969800
H221	H22	0.945100	0.444300	0.945800
H231	H23	0.143000	0.180400	0.909600
H241	H24	0.277100	0.342500	0.892600
C11	C1	0.780800	0.677500	0.689520
C21	C2	0.857000	0.707800	0.621460
C31	C3	0.056000	0.936300	0.567770
C41	C4	0.176500	0.089300	0.590030
C51	C5	0.170600	0.763700	0.621770
C61	C6	0.569200	0.461900	0.502430
C71	C7	0.219200	0.822500	0.189520
C81	C8	0.143000	0.792200	0.121460
C91	C9	0.944000	0.563700	0.067770
C101	C10	0.823500	0.410700	0.090030
C111	C11	0.829400	0.736300	0.121770
C121	C12	0.430800	0.038100	0.002430
C131	C13	0.219200	0.322500	0.310480
C141	C14	0.143000	0.292200	0.378540
C151	C15	0.944000	0.063700	0.432230
C161	C16	0.823500	0.910700	0.409970
C171	C17	0.829400	0.236300	0.378230
C181	C18	0.430800	0.538100	0.497570
C191	C19	0.780800	0.177500	0.810480
C201	C20	0.857000	0.207800	0.878540
C211	C21	0.056000	0.436300	0.932230
C221	C22	0.176500	0.589300	0.909970
C231	C23	0.170600	0.263700	0.878230
C241	C24	0.569200	0.961900	0.997570
N11	N1	0.028700	0.827300	0.622130
N21	N2	0.971300	0.672700	0.122130
N31	N3	0.971300	0.172700	0.377870
N41	N4	0.028700	0.327300	0.877870
O11	O1	0.842500	0.778300	0.732910
O21	O2	0.658400	0.558900	0.699290
O31	O3	0.199300	0.108800	0.651760
O41	O4	0.244800	0.190800	0.551100
O51	O5	0.356700	0.636300	0.690510
O61	O6	0.043500	0.564900	0.719060
O71	O7	0.248400	0.830300	0.744200
O81	O8	0.591300	0.412300	0.557380
O91	O9	0.649900	0.456700	0.451980
O101	O10	0.157500	0.721700	0.232910
O111	O11	0.341600	0.941100	0.199290
O121	O12	0.800700	0.391200	0.151760
O131	O13	0.755200	0.309200	0.051100
O141	O14	0.643300	0.863700	0.190510
O151	O15	0.956500	0.935100	0.219060
O161	O16	0.751600	0.669700	0.244200
O171	O17	0.408700	0.087700	0.057380
O181	O18	0.350100	0.043300	0.951980
O191	O19	0.157500	0.221700	0.267090
O201	O20	0.341600	0.441100	0.300710
O211	O21	0.800700	0.891200	0.348240
O221	O22	0.755200	0.809200	0.448900
O231	O23	0.643300	0.363700	0.309490
O241	O24	0.956500	0.435100	0.280940
O251	O25	0.751600	0.169700	0.255800
O261	O26	0.408700	0.587700	0.442620
O271	O27	0.350100	0.543300	0.548020
O281	O28	0.842500	0.278300	0.767090
O291	O29	0.658400	0.058900	0.800710
O301	O30	0.199300	0.608800	0.848240
O311	O31	0.244800	0.690800	0.948900
O321	O32	0.356700	0.136300	0.809490
O331	O33	0.043500	0.064900	0.780940
O341	O34	0.248400	0.330300	0.755800
O351	O35	0.591300	0.912300	0.942620
O361	O36	0.649900	0.956700	0.048020
