data_QUMJEP_clean_PM
_symmetry_space_group_name_H-M	'P1'
_cell_length_a	29.726000
_cell_length_b	9.186000
_cell_length_c	16.198000
_cell_angle_alpha	90.000000
_cell_angle_beta	112.790000
_cell_angle_gamma	90.000000
_symmetry_Int_Tables_number 1

loop_
_symmetry_equiv_pos_as_xyz
'x,y,z'

loop_
_atom_site_label
_atom_site_type_symbol
_atom_site_fract_x
_atom_site_fract_y
_atom_site_fract_z
Dy11	Dy1	0.497200	0.837630	0.403820
C11	C1	0.920300	0.389000	0.506200
C21	C2	0.866100	0.366200	0.478900
C31	C3	0.840400	0.461900	0.510500
H11	H1	0.856500	0.534100	0.551400
C41	C4	0.790100	0.447700	0.479900
C51	C5	0.765700	0.338900	0.421200
H21	H2	0.732200	0.327000	0.403800
C61	C6	0.791980	0.247500	0.388600
C71	C7	0.842000	0.259200	0.418000
H31	H3	0.859400	0.195300	0.397000
C81	C8	0.719200	0.585900	0.458800
C91	C9	0.685700	0.596600	0.497400
H41	H4	0.694300	0.571100	0.557100
C101	C10	0.639100	0.645700	0.447100
H51	H5	0.616600	0.655100	0.473700
C111	C11	0.625700	0.680800	0.358200
C121	C12	0.660400	0.669700	0.320000
H61	H6	0.651900	0.694800	0.260200
C131	C13	0.706900	0.622300	0.369500
H71	H7	0.729900	0.614600	0.343700
C141	C14	0.575540	0.735300	0.305100
C151	C15	0.719400	0.153700	0.276100
C161	C16	0.700000	0.274600	0.224700
H81	H8	0.719800	0.353800	0.226100
C171	C17	0.651200	0.277100	0.171300
H91	H9	0.637800	0.359200	0.136800
C181	C18	0.621600	0.159600	0.167900
C191	C19	0.641600	0.041700	0.220700
H101	H10	0.621800	0.962900	0.219700
C201	C20	0.690500	0.036600	0.275500
H111	H11	0.703600	0.955600	0.311200
C211	C21	0.569300	0.156000	0.102400
O11	O1	0.939380	0.490600	0.558700
O21	O2	0.942390	0.304800	0.473400
O31	O3	0.765770	0.542300	0.513800
O41	O4	0.769440	0.140300	0.327200
O51	O5	0.545470	0.736900	0.342500
O61	O6	0.566130	0.776200	0.226500
O71	O7	0.555290	0.248100	0.041400
O81	O8	0.542700	0.054400	0.108700
Dy21	Dy2	0.997200	0.337630	0.403820
C221	C22	0.420300	0.889000	0.506200
C231	C23	0.366100	0.866200	0.478900
C241	C24	0.340400	0.961900	0.510500
H121	H12	0.356500	0.034100	0.551400
C251	C25	0.290100	0.947700	0.479900
C261	C26	0.265700	0.838900	0.421200
H131	H13	0.232200	0.827000	0.403800
C271	C27	0.291980	0.747500	0.388600
C281	C28	0.342000	0.759200	0.418000
H141	H14	0.359400	0.695300	0.397000
C291	C29	0.219200	0.085900	0.458800
C301	C30	0.185700	0.096600	0.497400
H151	H15	0.194300	0.071100	0.557100
C311	C31	0.139100	0.145700	0.447100
H161	H16	0.116600	0.155100	0.473700
C321	C32	0.125700	0.180800	0.358200
C331	C33	0.160400	0.169700	0.320000
H171	H17	0.151900	0.194800	0.260200
C341	C34	0.206900	0.122300	0.369500
H181	H18	0.229900	0.114600	0.343700
C351	C35	0.075540	0.235300	0.305100
C361	C36	0.219400	0.653700	0.276100
C371	C37	0.200000	0.774600	0.224700
H191	H19	0.219800	0.853800	0.226100
C381	C38	0.151200	0.777100	0.171300
H201	H20	0.137800	0.859200	0.136800
C391	C39	0.121600	0.659600	0.167900
C401	C40	0.141600	0.541700	0.220700
H211	H21	0.121800	0.462900	0.219700
C411	C41	0.190500	0.536600	0.275500
H221	H22	0.203600	0.455600	0.311200
C421	C42	0.069300	0.656000	0.102400
O91	O9	0.439380	0.990600	0.558700
O101	O10	0.442390	0.804800	0.473400
O111	O11	0.265770	0.042300	0.513800
O121	O12	0.269440	0.640300	0.327200
O131	O13	0.045470	0.236900	0.342500
O141	O14	0.066130	0.276200	0.226500
O151	O15	0.055290	0.748100	0.041400
O161	O16	0.042700	0.554400	0.108700
Dy31	Dy3	0.502800	0.837630	0.096180
C431	C43	0.079700	0.389000	0.993800
C441	C44	0.133900	0.366200	0.021100
C451	C45	0.159600	0.461900	0.989500
H231	H23	0.143500	0.534100	0.948600
C461	C46	0.209900	0.447700	0.020100
C471	C47	0.234300	0.338900	0.078800
H241	H24	0.267800	0.327000	0.096200
C481	C48	0.208020	0.247500	0.111400
C491	C49	0.158000	0.259200	0.082000
H251	H25	0.140600	0.195300	0.103000
C501	C50	0.280800	0.585900	0.041200
C511	C51	0.314300	0.596600	0.002600
H261	H26	0.305700	0.571100	0.942900
C521	C52	0.360900	0.645700	0.052900
H271	H27	0.383400	0.655100	0.026300
C531	C53	0.374300	0.680800	0.141800
C541	C54	0.339600	0.669700	0.180000
H281	H28	0.348100	0.694800	0.239800
C551	C55	0.293100	0.622300	0.130500
H291	H29	0.270100	0.614600	0.156300
C561	C56	0.424460	0.735300	0.194900
C571	C57	0.280600	0.153700	0.223900
C581	C58	0.300000	0.274600	0.275300
H301	H30	0.280200	0.353800	0.273900
C591	C59	0.348800	0.277100	0.328700
H311	H31	0.362200	0.359200	0.363200
C601	C60	0.378400	0.159600	0.332100
C611	C61	0.358400	0.041700	0.279300
H321	H32	0.378200	0.962900	0.280300
C621	C62	0.309500	0.036600	0.224500
H331	H33	0.296400	0.955600	0.188800
C631	C63	0.430700	0.156000	0.397600
O171	O17	0.060620	0.490600	0.941300
O181	O18	0.057610	0.304800	0.026600
O191	O19	0.234230	0.542300	0.986200
O201	O20	0.230560	0.140300	0.172800
O211	O21	0.454530	0.736900	0.157500
O221	O22	0.433870	0.776200	0.273500
O231	O23	0.444710	0.248100	0.458600
O241	O24	0.457300	0.054400	0.391300
Dy41	Dy4	0.002800	0.337630	0.096180
C641	C64	0.579700	0.889000	0.993800
C651	C65	0.633900	0.866200	0.021100
C661	C66	0.659600	0.961900	0.989500
H341	H34	0.643500	0.034100	0.948600
C671	C67	0.709900	0.947700	0.020100
C681	C68	0.734300	0.838900	0.078800
H351	H35	0.767800	0.827000	0.096200
C691	C69	0.708020	0.747500	0.111400
C701	C70	0.658000	0.759200	0.082000
H361	H36	0.640600	0.695300	0.103000
C711	C71	0.780800	0.085900	0.041200
C721	C72	0.814300	0.096600	0.002600
H371	H37	0.805700	0.071100	0.942900
C731	C73	0.860900	0.145700	0.052900
H381	H38	0.883400	0.155100	0.026300
C741	C74	0.874300	0.180800	0.141800
C751	C75	0.839600	0.169700	0.180000
H391	H39	0.848100	0.194800	0.239800
C761	C76	0.793100	0.122300	0.130500
H401	H40	0.770100	0.114600	0.156300
C771	C77	0.924460	0.235300	0.194900
C781	C78	0.780600	0.653700	0.223900
C791	C79	0.800000	0.774600	0.275300
H411	H41	0.780200	0.853800	0.273900
C801	C80	0.848800	0.777100	0.328700
H421	H42	0.862200	0.859200	0.363200
C811	C81	0.878400	0.659600	0.332100
C821	C82	0.858400	0.541700	0.279300
H431	H43	0.878200	0.462900	0.280300
C831	C83	0.809500	0.536600	0.224500
H441	H44	0.796400	0.455600	0.188800
C841	C84	0.930700	0.656000	0.397600
O251	O25	0.560620	0.990600	0.941300
O261	O26	0.557610	0.804800	0.026600
O271	O27	0.734230	0.042300	0.986200
O281	O28	0.730560	0.640300	0.172800
O291	O29	0.954530	0.236900	0.157500
O301	O30	0.933870	0.276200	0.273500
O311	O31	0.944710	0.748100	0.458600
O321	O32	0.957300	0.554400	0.391300
Dy51	Dy5	0.502800	0.162370	0.596180
C851	C85	0.079700	0.611000	0.493800
C861	C86	0.133900	0.633800	0.521100
C871	C87	0.159600	0.538100	0.489500
H451	H45	0.143500	0.465900	0.448600
C881	C88	0.209900	0.552300	0.520100
C891	C89	0.234300	0.661100	0.578800
H461	H46	0.267800	0.673000	0.596200
C901	C90	0.208020	0.752500	0.611400
C911	C91	0.158000	0.740800	0.582000
H471	H47	0.140600	0.804700	0.603000
C921	C92	0.280800	0.414100	0.541200
C931	C93	0.314300	0.403400	0.502600
H481	H48	0.305700	0.428900	0.442900
C941	C94	0.360900	0.354300	0.552900
H491	H49	0.383400	0.344900	0.526300
C951	C95	0.374300	0.319200	0.641800
C961	C96	0.339600	0.330300	0.680000
H501	H50	0.348100	0.305200	0.739800
C971	C97	0.293100	0.377700	0.630500
H511	H51	0.270100	0.385400	0.656300
C981	C98	0.424460	0.264700	0.694900
C991	C99	0.280600	0.846300	0.723900
C1001	C100	0.300000	0.725400	0.775300
H521	H52	0.280200	0.646200	0.773900
C1011	C101	0.348800	0.722900	0.828700
H531	H53	0.362200	0.640800	0.863200
C1021	C102	0.378400	0.840400	0.832100
C1031	C103	0.358400	0.958300	0.779300
H541	H54	0.378200	0.037100	0.780300
C1041	C104	0.309500	0.963400	0.724500
H551	H55	0.296400	0.044400	0.688800
C1051	C105	0.430700	0.844000	0.897600
O331	O33	0.060620	0.509400	0.441300
O341	O34	0.057610	0.695200	0.526600
O351	O35	0.234230	0.457700	0.486200
O361	O36	0.230560	0.859700	0.672800
O371	O37	0.454530	0.263100	0.657500
O381	O38	0.433870	0.223800	0.773500
O391	O39	0.444710	0.751900	0.958600
O401	O40	0.457300	0.945600	0.891300
Dy61	Dy6	0.002800	0.662370	0.596180
C1061	C106	0.579700	0.111000	0.493800
C1071	C107	0.633900	0.133800	0.521100
C1081	C108	0.659600	0.038100	0.489500
H561	H56	0.643500	0.965900	0.448600
C1091	C109	0.709900	0.052300	0.520100
C1101	C110	0.734300	0.161100	0.578800
H571	H57	0.767800	0.173000	0.596200
C1111	C111	0.708020	0.252500	0.611400
C1121	C112	0.658000	0.240800	0.582000
H581	H58	0.640600	0.304700	0.603000
C1131	C113	0.780800	0.914100	0.541200
C1141	C114	0.814300	0.903400	0.502600
H591	H59	0.805700	0.928900	0.442900
C1151	C115	0.860900	0.854300	0.552900
H601	H60	0.883400	0.844900	0.526300
C1161	C116	0.874300	0.819200	0.641800
C1171	C117	0.839600	0.830300	0.680000
H611	H61	0.848100	0.805200	0.739800
C1181	C118	0.793100	0.877700	0.630500
H621	H62	0.770100	0.885400	0.656300
C1191	C119	0.924460	0.764700	0.694900
C1201	C120	0.780600	0.346300	0.723900
C1211	C121	0.800000	0.225400	0.775300
H631	H63	0.780200	0.146200	0.773900
C1221	C122	0.848800	0.222900	0.828700
H641	H64	0.862200	0.140800	0.863200
C1231	C123	0.878400	0.340400	0.832100
C1241	C124	0.858400	0.458300	0.779300
H651	H65	0.878200	0.537100	0.780300
C1251	C125	0.809500	0.463400	0.724500
H661	H66	0.796400	0.544400	0.688800
C1261	C126	0.930700	0.344000	0.897600
O411	O41	0.560620	0.009400	0.441300
O421	O42	0.557610	0.195200	0.526600
O431	O43	0.734230	0.957700	0.486200
O441	O44	0.730560	0.359700	0.672800
O451	O45	0.954530	0.763100	0.657500
O461	O46	0.933870	0.723800	0.773500
O471	O47	0.944710	0.251900	0.958600
O481	O48	0.957300	0.445600	0.891300
Dy71	Dy7	0.497200	0.162370	0.903820
C1271	C127	0.920300	0.611000	0.006200
C1281	C128	0.866100	0.633800	0.978900
C1291	C129	0.840400	0.538100	0.010500
H671	H67	0.856500	0.465900	0.051400
C1301	C130	0.790100	0.552300	0.979900
C1311	C131	0.765700	0.661100	0.921200
H681	H68	0.732200	0.673000	0.903800
C1321	C132	0.791980	0.752500	0.888600
C1331	C133	0.842000	0.740800	0.918000
H691	H69	0.859400	0.804700	0.897000
C1341	C134	0.719200	0.414100	0.958800
C1351	C135	0.685700	0.403400	0.997400
H701	H70	0.694300	0.428900	0.057100
C1361	C136	0.639100	0.354300	0.947100
H711	H71	0.616600	0.344900	0.973700
C1371	C137	0.625700	0.319200	0.858200
C1381	C138	0.660400	0.330300	0.820000
H721	H72	0.651900	0.305200	0.760200
C1391	C139	0.706900	0.377700	0.869500
H731	H73	0.729900	0.385400	0.843700
C1401	C140	0.575540	0.264700	0.805100
C1411	C141	0.719400	0.846300	0.776100
C1421	C142	0.700000	0.725400	0.724700
H741	H74	0.719800	0.646200	0.726100
C1431	C143	0.651200	0.722900	0.671300
H751	H75	0.637800	0.640800	0.636800
C1441	C144	0.621600	0.840400	0.667900
C1451	C145	0.641600	0.958300	0.720700
H761	H76	0.621800	0.037100	0.719700
C1461	C146	0.690500	0.963400	0.775500
H771	H77	0.703600	0.044400	0.811200
C1471	C147	0.569300	0.844000	0.602400
O491	O49	0.939380	0.509400	0.058700
O501	O50	0.942390	0.695200	0.973400
O511	O51	0.765770	0.457700	0.013800
O521	O52	0.769440	0.859700	0.827200
O531	O53	0.545470	0.263100	0.842500
O541	O54	0.566130	0.223800	0.726500
O551	O55	0.555290	0.751900	0.541400
O561	O56	0.542700	0.945600	0.608700
Dy81	Dy8	0.997200	0.662370	0.903820
C1481	C148	0.420300	0.111000	0.006200
C1491	C149	0.366100	0.133800	0.978900
C1501	C150	0.340400	0.038100	0.010500
H781	H78	0.356500	0.965900	0.051400
C1511	C151	0.290100	0.052300	0.979900
C1521	C152	0.265700	0.161100	0.921200
H791	H79	0.232200	0.173000	0.903800
C1531	C153	0.291980	0.252500	0.888600
C1541	C154	0.342000	0.240800	0.918000
H801	H80	0.359400	0.304700	0.897000
C1551	C155	0.219200	0.914100	0.958800
C1561	C156	0.185700	0.903400	0.997400
H811	H81	0.194300	0.928900	0.057100
C1571	C157	0.139100	0.854300	0.947100
H821	H82	0.116600	0.844900	0.973700
C1581	C158	0.125700	0.819200	0.858200
C1591	C159	0.160400	0.830300	0.820000
H831	H83	0.151900	0.805200	0.760200
C1601	C160	0.206900	0.877700	0.869500
H841	H84	0.229900	0.885400	0.843700
C1611	C161	0.075540	0.764700	0.805100
C1621	C162	0.219400	0.346300	0.776100
C1631	C163	0.200000	0.225400	0.724700
H851	H85	0.219800	0.146200	0.726100
C1641	C164	0.151200	0.222900	0.671300
H861	H86	0.137800	0.140800	0.636800
C1651	C165	0.121600	0.340400	0.667900
C1661	C166	0.141600	0.458300	0.720700
H871	H87	0.121800	0.537100	0.719700
C1671	C167	0.190500	0.463400	0.775500
H881	H88	0.203600	0.544400	0.811200
C1681	C168	0.069300	0.344000	0.602400
O571	O57	0.439380	0.009400	0.058700
O581	O58	0.442390	0.195200	0.973400
O591	O59	0.265770	0.957700	0.013800
O601	O60	0.269440	0.359700	0.827200
O611	O61	0.045470	0.763100	0.842500
O621	O62	0.066130	0.723800	0.726500
O631	O63	0.055290	0.251900	0.541400
O641	O64	0.042700	0.445600	0.608700
