data_QUMYUT_clean_PM
_symmetry_space_group_name_H-M	'P1'
_cell_length_a	9.174100
_cell_length_b	9.338700
_cell_length_c	17.764200
_cell_angle_alpha	83.750000
_cell_angle_beta	72.724000
_cell_angle_gamma	86.440000
_symmetry_Int_Tables_number 1

loop_
_symmetry_equiv_pos_as_xyz
'x,y,z'

loop_
_atom_site_label
_atom_site_type_symbol
_atom_site_fract_x
_atom_site_fract_y
_atom_site_fract_z
C11	C1	0.669500	0.205400	0.826400
C21	C2	0.565900	0.237100	0.916700
H11	H1	0.522000	0.149000	0.946700
H21	H2	0.627600	0.277400	0.944600
C31	C3	0.340200	0.365900	0.987200
H31	H3	0.286400	0.279500	0.013200
H41	H4	0.395800	0.397500	0.020800
C41	C4	0.229800	0.483600	0.970000
C51	C5	0.711800	0.699800	0.770300
C61	C6	0.611000	0.811000	0.736600
H51	H5	0.583200	0.890500	0.769500
H61	H6	0.667600	0.848900	0.683600
C71	C7	0.395400	0.838000	0.683800
H71	H7	0.465800	0.864000	0.632000
H81	H8	0.355800	0.925900	0.708200
C81	C8	0.265000	0.754700	0.675300
C91	C9	0.243600	0.232700	0.704500
C101	C10	0.371900	0.237100	0.618500
H91	H9	0.426500	0.144900	0.611400
H101	H10	0.324800	0.259700	0.576300
C111	C11	0.602300	0.354500	0.542400
H111	H11	0.661500	0.264500	0.537300
H121	H12	0.564200	0.375200	0.496800
C121	C12	0.697800	0.474900	0.548700
C131	C13	0.157100	0.898300	0.884700
N11	N1	0.065000	0.850500	0.862200
O11	O1	0.638200	0.267800	0.758400
O21	O2	0.449300	0.337700	0.905540
O31	O3	0.244100	0.528200	0.890580
O41	O4	0.780200	0.122600	0.825500
O51	O5	0.133800	0.524100	0.036650
O61	O6	0.658300	0.577100	0.800070
O71	O7	0.477300	0.746400	0.734070
O81	O8	0.257100	0.622700	0.702510
O91	O9	0.842500	0.735300	0.764500
O101	O10	0.173100	0.823300	0.640660
O111	O11	0.257900	0.304100	0.764600
O121	O12	0.471800	0.345900	0.618250
O131	O13	0.653700	0.542000	0.617010
O141	O14	0.133000	0.159900	0.710600
O151	O15	0.813200	0.501700	0.484820
S11	S1	0.284250	0.969400	0.919440
Pr11	Pr1	0.453830	0.473220	0.756330
Na11	Na1	0.020910	0.602330	0.836140
Na21	Na2	0.964430	0.970320	0.735850
Na31	Na3	0.029480	0.627310	0.624840
C141	C14	0.330500	0.794600	0.173600
C151	C15	0.434100	0.762900	0.083300
H131	H13	0.478000	0.851000	0.053300
H141	H14	0.372400	0.722600	0.055400
C161	C16	0.659800	0.634100	0.012800
H151	H15	0.713600	0.720500	0.986800
H161	H16	0.604200	0.602500	0.979200
C171	C17	0.770200	0.516400	0.030000
C181	C18	0.288200	0.300200	0.229700
C191	C19	0.389000	0.189000	0.263400
H171	H17	0.416800	0.109500	0.230500
H181	H18	0.332400	0.151100	0.316400
C201	C20	0.604600	0.162000	0.316200
H191	H19	0.534200	0.136000	0.368000
H201	H20	0.644200	0.074100	0.291800
C211	C21	0.735000	0.245300	0.324700
C221	C22	0.756400	0.767300	0.295500
C231	C23	0.628100	0.762900	0.381500
H211	H21	0.573500	0.855100	0.388600
H221	H22	0.675200	0.740300	0.423700
C241	C24	0.397700	0.645500	0.457600
H231	H23	0.338500	0.735500	0.462700
H241	H24	0.435800	0.624800	0.503200
C251	C25	0.302200	0.525100	0.451300
C261	C26	0.842900	0.101700	0.115300
N21	N2	0.935000	0.149500	0.137800
O161	O16	0.361800	0.732200	0.241600
O171	O17	0.550700	0.662300	0.094460
O181	O18	0.755900	0.471800	0.109420
O191	O19	0.219800	0.877400	0.174500
O201	O20	0.866200	0.475900	0.963350
O211	O21	0.341700	0.422900	0.199930
O221	O22	0.522700	0.253600	0.265930
O231	O23	0.742900	0.377300	0.297490
O241	O24	0.157500	0.264700	0.235500
O251	O25	0.826900	0.176700	0.359340
O261	O26	0.742100	0.695900	0.235400
O271	O27	0.528200	0.654100	0.381750
O281	O28	0.346300	0.458000	0.382990
O291	O29	0.867000	0.840100	0.289400
O301	O30	0.186800	0.498300	0.515180
S21	S2	0.715750	0.030600	0.080560
Pr21	Pr2	0.546170	0.526780	0.243670
Na41	Na4	0.979090	0.397670	0.163860
Na51	Na5	0.035570	0.029680	0.264150
Na61	Na6	0.970520	0.372690	0.375160
