data_QUPDEL_clean_PM
_symmetry_space_group_name_H-M	'P1'
_cell_length_a	9.106000
_cell_length_b	9.106000
_cell_length_c	14.452200
_cell_angle_alpha	79.773700
_cell_angle_beta	79.773700
_cell_angle_gamma	115.878000
_symmetry_Int_Tables_number 1

loop_
_symmetry_equiv_pos_as_xyz
'x,y,z'

loop_
_atom_site_label
_atom_site_type_symbol
_atom_site_fract_x
_atom_site_fract_y
_atom_site_fract_z
Gd11	Gd1	0.509380	0.759380	0.981240
Gd21	Gd2	0.740620	0.990620	0.518760
Gd31	Gd3	0.490620	0.240620	0.018760
Gd41	Gd4	0.259380	0.009380	0.481240
H11	H1	0.095000	0.179000	0.946000
H21	H2	0.959000	0.375000	0.946000
H31	H3	0.321000	0.405000	0.554000
H41	H4	0.125000	0.541000	0.554000
H51	H5	0.905000	0.821000	0.054000
H61	H6	0.041000	0.625000	0.054000
H71	H7	0.679000	0.595000	0.446000
H81	H8	0.875000	0.459000	0.446000
C11	C1	0.253990	0.434390	0.941820
C21	C2	0.103770	0.284970	0.935660
C31	C3	0.804190	0.123790	0.941820
C41	C4	0.960570	0.279370	0.935660
C51	C5	0.065610	0.246010	0.558180
C61	C6	0.215030	0.396230	0.564340
C71	C7	0.376210	0.695810	0.558180
C81	C8	0.220630	0.539430	0.564340
C91	C9	0.746010	0.565610	0.058180
C101	C10	0.896230	0.715030	0.064340
C111	C11	0.195810	0.876210	0.058180
C121	C12	0.039430	0.720630	0.064340
C131	C13	0.934390	0.753990	0.441820
C141	C14	0.784970	0.603770	0.435660
C151	C15	0.623790	0.304190	0.441820
C161	C16	0.779370	0.460570	0.435660
C171	C17	0.674900	0.825100	0.750000
C181	C18	0.575100	0.924900	0.750000
C191	C19	0.325100	0.174900	0.250000
C201	C20	0.424900	0.075100	0.250000
O11	O1	0.366560	0.406240	0.967200
O21	O2	0.269260	0.580680	0.924260
O31	O3	0.659940	0.737760	0.831700
O41	O4	0.666240	0.126560	0.967200
O51	O5	0.806480	0.995060	0.924260
O61	O6	0.508360	0.930540	0.831700
O71	O7	0.093760	0.133440	0.532800
O81	O8	0.919320	0.230740	0.575740
O91	O9	0.762240	0.840060	0.668300
O101	O10	0.373440	0.833760	0.532800
O111	O11	0.504940	0.693520	0.575740
O121	O12	0.569460	0.991640	0.668300
O131	O13	0.633440	0.593760	0.032800
O141	O14	0.730740	0.419320	0.075740
O151	O15	0.340060	0.262240	0.168300
O161	O16	0.333760	0.873440	0.032800
O171	O17	0.193520	0.004940	0.075740
O181	O18	0.491640	0.069460	0.168300
O191	O19	0.906240	0.866560	0.467200
O201	O20	0.080680	0.769260	0.424260
O211	O21	0.237760	0.159940	0.331700
O221	O22	0.626560	0.166240	0.467200
O231	O23	0.495060	0.306480	0.424260
O241	O24	0.430540	0.008360	0.331700
