data_QUPDEL01_clean_PM
_symmetry_space_group_name_H-M	'P1'
_cell_length_a	9.686700
_cell_length_b	15.449000
_cell_length_c	27.303000
_cell_angle_alpha	90.000000
_cell_angle_beta	90.000000
_cell_angle_gamma	90.000000
_symmetry_Int_Tables_number 1

loop_
_symmetry_equiv_pos_as_xyz
'x,y,z'

loop_
_atom_site_label
_atom_site_type_symbol
_atom_site_fract_x
_atom_site_fract_y
_atom_site_fract_z
O11	O1	0.379800	0.729870	0.516460
O21	O2	0.362500	0.594020	0.538060
C11	C1	0.434700	0.659800	0.529240
C21	C2	0.587800	0.659700	0.532080
H11	H1	0.632700	0.712800	0.534000
O31	O3	0.114400	0.538560	0.584260
O41	O4	0.379800	0.229870	0.016460
O51	O5	0.362500	0.094020	0.038060
C31	C3	0.434700	0.159800	0.029240
C41	C4	0.587800	0.159700	0.032080
H21	H2	0.632700	0.212800	0.034000
O61	O6	0.114400	0.038560	0.084260
O71	O7	0.879800	0.729870	0.016460
O81	O8	0.862500	0.594020	0.038060
C51	C5	0.934700	0.659800	0.029240
C61	C6	0.087800	0.659700	0.032080
H31	H3	0.132700	0.712800	0.034000
O91	O9	0.614400	0.538560	0.084260
O101	O10	0.879800	0.229870	0.516460
O111	O11	0.862500	0.094020	0.538060
C71	C7	0.934700	0.159800	0.529240
C81	C8	0.087800	0.159700	0.532080
H41	H4	0.132700	0.212800	0.534000
O121	O12	0.614400	0.038560	0.584260
O131	O13	0.370200	0.020130	0.516460
O141	O14	0.387500	0.155980	0.538060
C91	C9	0.315300	0.090200	0.529240
C101	C10	0.162200	0.090300	0.532080
H51	H5	0.117300	0.037200	0.534000
O151	O15	0.635600	0.211440	0.584260
O161	O16	0.370200	0.520130	0.016460
O171	O17	0.387500	0.655980	0.038060
C111	C11	0.315300	0.590200	0.029240
C121	C12	0.162200	0.590300	0.032080
H61	H6	0.117300	0.537200	0.034000
O181	O18	0.635600	0.711440	0.084260
O191	O19	0.870200	0.020130	0.016460
O201	O20	0.887500	0.155980	0.038060
C131	C13	0.815300	0.090200	0.029240
C141	C14	0.662200	0.090300	0.032080
H71	H7	0.617300	0.037200	0.034000
O211	O21	0.135600	0.211440	0.084260
O221	O22	0.870200	0.520130	0.516460
O231	O23	0.887500	0.655980	0.538060
C151	C15	0.815300	0.590200	0.529240
C161	C16	0.662200	0.590300	0.532080
H81	H8	0.617300	0.537200	0.534000
O241	O24	0.135600	0.711440	0.584260
O251	O25	0.370200	0.729870	0.233540
O261	O26	0.387500	0.594020	0.211940
C171	C17	0.315300	0.659800	0.220760
C181	C18	0.162200	0.659700	0.217920
H91	H9	0.117300	0.712800	0.216000
O271	O27	0.635600	0.538560	0.165740
O281	O28	0.370200	0.229870	0.733540
O291	O29	0.387500	0.094020	0.711940
C191	C19	0.315300	0.159800	0.720760
C201	C20	0.162200	0.159700	0.717920
H101	H10	0.117300	0.212800	0.716000
O301	O30	0.635600	0.038560	0.665740
O311	O31	0.870200	0.729870	0.733540
O321	O32	0.887500	0.594020	0.711940
C211	C21	0.815300	0.659800	0.720760
C221	C22	0.662200	0.659700	0.717920
H111	H11	0.617300	0.712800	0.716000
O331	O33	0.135600	0.538560	0.665740
O341	O34	0.870200	0.229870	0.233540
O351	O35	0.887500	0.094020	0.211940
C231	C23	0.815300	0.159800	0.220760
C241	C24	0.662200	0.159700	0.217920
H121	H12	0.617300	0.212800	0.216000
O361	O36	0.135600	0.038560	0.165740
O371	O37	0.379800	0.020130	0.233540
O381	O38	0.362500	0.155980	0.211940
C251	C25	0.434700	0.090200	0.220760
C261	C26	0.587800	0.090300	0.217920
H131	H13	0.632700	0.037200	0.216000
O391	O39	0.114400	0.211440	0.165740
O401	O40	0.379800	0.520130	0.733540
O411	O41	0.362500	0.655980	0.711940
C271	C27	0.434700	0.590200	0.720760
C281	C28	0.587800	0.590300	0.717920
H141	H14	0.632700	0.537200	0.716000
O421	O42	0.114400	0.711440	0.665740
O431	O43	0.879800	0.020130	0.733540
O441	O44	0.862500	0.155980	0.711940
C291	C29	0.934700	0.090200	0.720760
C301	C30	0.087800	0.090300	0.717920
H151	H15	0.132700	0.037200	0.716000
O451	O45	0.614400	0.211440	0.665740
O461	O46	0.879800	0.520130	0.233540
O471	O47	0.862500	0.655980	0.211940
C311	C31	0.934700	0.590200	0.220760
C321	C32	0.087800	0.590300	0.217920
H161	H16	0.132700	0.537200	0.216000
O481	O48	0.614400	0.711440	0.165740
O491	O49	0.620200	0.270130	0.483540
O501	O50	0.637500	0.405980	0.461940
C331	C33	0.565300	0.340200	0.470760
C341	C34	0.412200	0.340300	0.467920
H171	H17	0.367300	0.287200	0.466000
O511	O51	0.885600	0.461440	0.415740
O521	O52	0.620200	0.770130	0.983540
O531	O53	0.637500	0.905980	0.961940
C351	C35	0.565300	0.840200	0.970760
C361	C36	0.412200	0.840300	0.967920
H181	H18	0.367300	0.787200	0.966000
O541	O54	0.885600	0.961440	0.915740
O551	O55	0.120200	0.270130	0.983540
O561	O56	0.137500	0.405980	0.961940
C371	C37	0.065300	0.340200	0.970760
C381	C38	0.912200	0.340300	0.967920
H191	H19	0.867300	0.287200	0.966000
O571	O57	0.385600	0.461440	0.915740
O581	O58	0.120200	0.770130	0.483540
O591	O59	0.137500	0.905980	0.461940
C391	C39	0.065300	0.840200	0.470760
C401	C40	0.912200	0.840300	0.467920
H201	H20	0.867300	0.787200	0.466000
O601	O60	0.385600	0.961440	0.415740
O611	O61	0.629800	0.979870	0.483540
O621	O62	0.612500	0.844020	0.461940
C411	C41	0.684700	0.909800	0.470760
C421	C42	0.837800	0.909700	0.467920
H211	H21	0.882700	0.962800	0.466000
O631	O63	0.364400	0.788560	0.415740
O641	O64	0.629800	0.479870	0.983540
O651	O65	0.612500	0.344020	0.961940
C431	C43	0.684700	0.409800	0.970760
C441	C44	0.837800	0.409700	0.967920
H221	H22	0.882700	0.462800	0.966000
O661	O66	0.364400	0.288560	0.915740
O671	O67	0.129800	0.979870	0.983540
O681	O68	0.112500	0.844020	0.961940
C451	C45	0.184700	0.909800	0.970760
C461	C46	0.337800	0.909700	0.967920
H231	H23	0.382700	0.962800	0.966000
O691	O69	0.864400	0.788560	0.915740
O701	O70	0.129800	0.479870	0.483540
O711	O71	0.112500	0.344020	0.461940
C471	C47	0.184700	0.409800	0.470760
C481	C48	0.337800	0.409700	0.467920
H241	H24	0.382700	0.462800	0.466000
O721	O72	0.864400	0.288560	0.415740
O731	O73	0.629800	0.270130	0.766460
O741	O74	0.612500	0.405980	0.788060
C491	C49	0.684700	0.340200	0.779240
C501	C50	0.837800	0.340300	0.782080
H251	H25	0.882700	0.287200	0.784000
O751	O75	0.364400	0.461440	0.834260
O761	O76	0.629800	0.770130	0.266460
O771	O77	0.612500	0.905980	0.288060
C511	C51	0.684700	0.840200	0.279240
C521	C52	0.837800	0.840300	0.282080
H261	H26	0.882700	0.787200	0.284000
O781	O78	0.364400	0.961440	0.334260
O791	O79	0.129800	0.270130	0.266460
O801	O80	0.112500	0.405980	0.288060
C531	C53	0.184700	0.340200	0.279240
C541	C54	0.337800	0.340300	0.282080
H271	H27	0.382700	0.287200	0.284000
O811	O81	0.864400	0.461440	0.334260
O821	O82	0.129800	0.770130	0.766460
O831	O83	0.112500	0.905980	0.788060
C551	C55	0.184700	0.840200	0.779240
C561	C56	0.337800	0.840300	0.782080
H281	H28	0.382700	0.787200	0.784000
O841	O84	0.864400	0.961440	0.834260
O851	O85	0.620200	0.979870	0.766460
O861	O86	0.637500	0.844020	0.788060
C571	C57	0.565300	0.909800	0.779240
C581	C58	0.412200	0.909700	0.782080
H291	H29	0.367300	0.962800	0.784000
O871	O87	0.885600	0.788560	0.834260
O881	O88	0.620200	0.479870	0.266460
O891	O89	0.637500	0.344020	0.288060
C591	C59	0.565300	0.409800	0.279240
C601	C60	0.412200	0.409700	0.282080
H301	H30	0.367300	0.462800	0.284000
O901	O90	0.885600	0.288560	0.334260
O911	O91	0.120200	0.979870	0.266460
O921	O92	0.137500	0.844020	0.288060
C611	C61	0.065300	0.909800	0.279240
C621	C62	0.912200	0.909700	0.282080
H311	H31	0.867300	0.962800	0.284000
O931	O93	0.385600	0.788560	0.334260
O941	O94	0.120200	0.479870	0.766460
O951	O95	0.137500	0.344020	0.788060
C631	C63	0.065300	0.409800	0.779240
C641	C64	0.912200	0.409700	0.782080
H321	H32	0.867300	0.462800	0.784000
O961	O96	0.385600	0.288560	0.834260
Gd11	Gd1	0.125000	0.625000	0.509440
Gd21	Gd2	0.125000	0.125000	0.009440
Gd31	Gd3	0.625000	0.625000	0.009440
Gd41	Gd4	0.625000	0.125000	0.509440
Gd51	Gd5	0.625000	0.625000	0.240560
Gd61	Gd6	0.625000	0.125000	0.740560
Gd71	Gd7	0.125000	0.125000	0.240560
Gd81	Gd8	0.125000	0.625000	0.740560
Gd91	Gd9	0.875000	0.375000	0.490560
Gd101	Gd10	0.875000	0.875000	0.990560
Gd111	Gd11	0.375000	0.875000	0.490560
Gd121	Gd12	0.375000	0.375000	0.990560
Gd131	Gd13	0.375000	0.375000	0.759440
Gd141	Gd14	0.375000	0.875000	0.259440
Gd151	Gd15	0.875000	0.875000	0.759440
Gd161	Gd16	0.875000	0.375000	0.259440
C651	C65	0.125000	0.574500	0.625000
C661	C66	0.125000	0.074500	0.125000
C671	C67	0.625000	0.074500	0.625000
C681	C68	0.625000	0.175500	0.625000
C691	C69	0.625000	0.675500	0.125000
C701	C70	0.625000	0.574500	0.125000
C711	C71	0.125000	0.175500	0.125000
C721	C72	0.125000	0.675500	0.625000
C731	C73	0.875000	0.425500	0.375000
C741	C74	0.875000	0.925500	0.875000
C751	C75	0.375000	0.824500	0.375000
C761	C76	0.375000	0.324500	0.875000
C771	C77	0.375000	0.425500	0.875000
C781	C78	0.375000	0.925500	0.375000
C791	C79	0.875000	0.824500	0.875000
C801	C80	0.875000	0.324500	0.375000
