data_QUPHIT_clean_PM
_symmetry_space_group_name_H-M	'P1'
_cell_length_a	9.409200
_cell_length_b	10.337600
_cell_length_c	24.353000
_cell_angle_alpha	93.978000
_cell_angle_beta	90.000000
_cell_angle_gamma	90.000000
_symmetry_Int_Tables_number 1

loop_
_symmetry_equiv_pos_as_xyz
'x,y,z'

loop_
_atom_site_label
_atom_site_type_symbol
_atom_site_fract_x
_atom_site_fract_y
_atom_site_fract_z
Co11	Co1	0.500000	0.500000	0.500000
Co21	Co2	0.500000	0.500000	0.000000
Co31	Co3	0.163510	0.000000	0.250000
Co41	Co4	0.836490	0.000000	0.750000
H11	H1	0.539700	0.102000	0.450900
H21	H2	0.766300	0.828200	0.366800
H31	H3	0.886800	0.200400	0.368600
H41	H4	0.375300	0.302400	0.413500
H51	H5	0.198000	0.273500	0.350500
H61	H6	0.096700	0.646400	0.379400
H71	H7	0.274400	0.661000	0.443500
H81	H8	0.017000	0.614200	0.290300
H91	H9	0.894300	0.575100	0.329900
H101	H10	0.829900	0.692100	0.234100
H111	H11	0.728800	0.596300	0.199500
H121	H12	0.616900	0.785500	0.197500
H131	H13	0.418500	0.909500	0.189800
H141	H14	0.250200	0.778100	0.319900
H151	H15	0.445600	0.654500	0.333300
H161	H16	0.575600	0.828100	0.461800
H171	H17	0.539700	0.898000	0.049100
H181	H18	0.766300	0.171800	0.133200
H191	H19	0.886800	0.799600	0.131400
H201	H20	0.375300	0.697600	0.086500
H211	H21	0.198000	0.726500	0.149500
H221	H22	0.096700	0.353600	0.120600
H231	H23	0.274400	0.339000	0.056500
H241	H24	0.017000	0.385800	0.209700
H251	H25	0.894300	0.424900	0.170100
H261	H26	0.829900	0.307900	0.265900
H271	H27	0.728800	0.403700	0.300500
H281	H28	0.616900	0.214500	0.302500
H291	H29	0.418500	0.090500	0.310200
H301	H30	0.250200	0.221900	0.180100
H311	H31	0.445600	0.345500	0.166700
H321	H32	0.575600	0.171900	0.038200
H331	H33	0.460300	0.898000	0.549100
H341	H34	0.233700	0.171800	0.633200
H351	H35	0.113200	0.799600	0.631400
H361	H36	0.624700	0.697600	0.586500
H371	H37	0.802000	0.726500	0.649500
H381	H38	0.903300	0.353600	0.620600
H391	H39	0.725600	0.339000	0.556500
H401	H40	0.983000	0.385800	0.709700
H411	H41	0.105700	0.424900	0.670100
H421	H42	0.170100	0.307900	0.765900
H431	H43	0.271200	0.403700	0.800500
H441	H44	0.383100	0.214500	0.802500
H451	H45	0.581500	0.090500	0.810200
H461	H46	0.749800	0.221900	0.680100
H471	H47	0.554400	0.345500	0.666700
H481	H48	0.424400	0.171900	0.538200
H491	H49	0.460300	0.102000	0.950900
H501	H50	0.233700	0.828200	0.866800
H511	H51	0.113200	0.200400	0.868600
H521	H52	0.624700	0.302400	0.913500
H531	H53	0.802000	0.273500	0.850500
H541	H54	0.903300	0.646400	0.879400
H551	H55	0.725600	0.661000	0.943500
H561	H56	0.983000	0.614200	0.790300
H571	H57	0.105700	0.575100	0.829900
H581	H58	0.170100	0.692100	0.734100
H591	H59	0.271200	0.596300	0.699500
H601	H60	0.383100	0.785500	0.697500
H611	H61	0.581500	0.909500	0.689800
H621	H62	0.749800	0.778100	0.819900
H631	H63	0.554400	0.654500	0.833300
H641	H64	0.424400	0.828100	0.961800
C11	C1	0.681000	0.312100	0.430690
C21	C2	0.709900	0.171600	0.412340
C31	C3	0.616600	0.078300	0.428360
C41	C4	0.637500	0.949500	0.410900
C51	C5	0.752600	0.914800	0.378610
C61	C6	0.848600	0.007300	0.363420
C71	C7	0.824900	0.137100	0.379740
C81	C8	0.973000	0.967300	0.327520
C91	C9	0.318400	0.373000	0.406600
C101	C10	0.213900	0.355100	0.367900
C111	C11	0.133000	0.458600	0.354900
C121	C12	0.153400	0.574800	0.385010
C131	C13	0.260300	0.581800	0.423750
C141	C14	0.954700	0.544000	0.299480
C151	C15	0.772600	0.614400	0.235230
C161	C16	0.553400	0.705600	0.267200
C171	C17	0.544200	0.783400	0.223300
C181	C18	0.424600	0.857000	0.219230
C191	C19	0.325900	0.781200	0.295490
C201	C20	0.442000	0.705700	0.303410
C211	C21	0.681000	0.687900	0.069310
C221	C22	0.709900	0.828400	0.087660
C231	C23	0.616600	0.921700	0.071640
C241	C24	0.637500	0.050500	0.089100
C251	C25	0.752600	0.085200	0.121390
C261	C26	0.848600	0.992700	0.136580
C271	C27	0.824900	0.862900	0.120260
C281	C28	0.973000	0.032700	0.172480
C291	C29	0.318400	0.627000	0.093400
C301	C30	0.213900	0.644900	0.132100
C311	C31	0.133000	0.541400	0.145100
C321	C32	0.153400	0.425200	0.114990
C331	C33	0.260300	0.418200	0.076250
C341	C34	0.954700	0.456000	0.200520
C351	C35	0.772600	0.385600	0.264770
C361	C36	0.553400	0.294400	0.232800
C371	C37	0.544200	0.216600	0.276700
C381	C38	0.424600	0.143000	0.280770
C391	C39	0.325900	0.218800	0.204510
C401	C40	0.442000	0.294300	0.196590
C411	C41	0.319000	0.687900	0.569310
C421	C42	0.290100	0.828400	0.587660
C431	C43	0.383400	0.921700	0.571640
C441	C44	0.362500	0.050500	0.589100
C451	C45	0.247400	0.085200	0.621390
C461	C46	0.151400	0.992700	0.636580
C471	C47	0.175100	0.862900	0.620260
C481	C48	0.027000	0.032700	0.672480
C491	C49	0.681600	0.627000	0.593400
C501	C50	0.786100	0.644900	0.632100
C511	C51	0.867000	0.541400	0.645100
C521	C52	0.846600	0.425200	0.614990
C531	C53	0.739700	0.418200	0.576250
C541	C54	0.045300	0.456000	0.700520
C551	C55	0.227400	0.385600	0.764770
C561	C56	0.446600	0.294400	0.732800
C571	C57	0.455800	0.216600	0.776700
C581	C58	0.575400	0.143000	0.780770
C591	C59	0.674100	0.218800	0.704510
C601	C60	0.558000	0.294300	0.696590
C611	C61	0.319000	0.312100	0.930690
C621	C62	0.290100	0.171600	0.912340
C631	C63	0.383400	0.078300	0.928360
C641	C64	0.362500	0.949500	0.910900
C651	C65	0.247400	0.914800	0.878610
C661	C66	0.151400	0.007300	0.863420
C671	C67	0.175100	0.137100	0.879740
C681	C68	0.027000	0.967300	0.827520
C691	C69	0.681600	0.373000	0.906600
C701	C70	0.786100	0.355100	0.867900
C711	C71	0.867000	0.458600	0.854900
C721	C72	0.846600	0.574800	0.885010
C731	C73	0.739700	0.581800	0.923750
C741	C74	0.045300	0.544000	0.799480
C751	C75	0.227400	0.614400	0.735230
C761	C76	0.446600	0.705600	0.767200
C771	C77	0.455800	0.783400	0.723300
C781	C78	0.575400	0.857000	0.719230
C791	C79	0.674100	0.781200	0.795490
C801	C80	0.558000	0.705700	0.803410
C811	C81	0.864500	0.500000	0.250000
C821	C82	0.135500	0.500000	0.750000
N11	N1	0.343800	0.485600	0.435030
N21	N2	0.316000	0.859000	0.254460
N31	N3	0.343800	0.514400	0.064970
N41	N4	0.316000	0.141000	0.245540
N51	N5	0.656200	0.514400	0.564970
N61	N6	0.684000	0.141000	0.745540
N71	N7	0.656200	0.485600	0.935030
N81	N8	0.684000	0.859000	0.754460
O11	O1	0.742800	0.396600	0.405810
O21	O2	0.592900	0.332700	0.468020
O31	O3	0.060700	0.054000	0.317510
O41	O4	0.984800	0.856900	0.308500
O51	O5	0.542700	0.865700	0.429200
O61	O6	0.036200	0.436600	0.314530
O71	O7	0.665100	0.631500	0.277480
O81	O8	0.742800	0.603400	0.094190
O91	O9	0.592900	0.667300	0.031980
O101	O10	0.060700	0.946000	0.182490
O111	O11	0.984800	0.143100	0.191500
O121	O12	0.542700	0.134300	0.070800
O131	O13	0.036200	0.563400	0.185470
O141	O14	0.665100	0.368500	0.222520
O151	O15	0.257200	0.603400	0.594190
O161	O16	0.407100	0.667300	0.531980
O171	O17	0.939300	0.946000	0.682490
O181	O18	0.015200	0.143100	0.691500
O191	O19	0.457300	0.134300	0.570800
O201	O20	0.963800	0.563400	0.685470
O211	O21	0.334900	0.368500	0.722520
O221	O22	0.257200	0.396600	0.905810
O231	O23	0.407100	0.332700	0.968020
O241	O24	0.939300	0.054000	0.817510
O251	O25	0.015200	0.856900	0.808500
O261	O26	0.457300	0.865700	0.929200
O271	O27	0.963800	0.436600	0.814530
O281	O28	0.334900	0.631500	0.777480
