data_QUQFIS_clean_PM
_symmetry_space_group_name_H-M	'P1'
_cell_length_a	18.590000
_cell_length_b	18.590000
_cell_length_c	18.590000
_cell_angle_alpha	74.876500
_cell_angle_beta	74.876500
_cell_angle_gamma	74.876500
_symmetry_Int_Tables_number 1

loop_
_symmetry_equiv_pos_as_xyz
'x,y,z'

loop_
_atom_site_label
_atom_site_type_symbol
_atom_site_fract_x
_atom_site_fract_y
_atom_site_fract_z
Zn11	Zn1	0.502420	0.298420	0.080570
Zn21	Zn2	0.598890	0.267730	0.909700
Zn31	Zn3	0.080570	0.502420	0.298420
Zn41	Zn4	0.909700	0.598890	0.267730
Zn51	Zn5	0.298420	0.080570	0.502420
Zn61	Zn6	0.267730	0.909700	0.598890
Zn71	Zn7	0.798420	0.002420	0.580570
Zn81	Zn8	0.767730	0.098890	0.409700
Zn91	Zn9	0.002420	0.580570	0.798420
Zn101	Zn10	0.098890	0.409700	0.767730
Zn111	Zn11	0.580570	0.798420	0.002420
Zn121	Zn12	0.409700	0.767730	0.098890
H11	H1	0.498600	0.528600	0.022000
H21	H2	0.566500	0.710700	0.868600
H31	H3	0.630000	0.503000	0.815700
H41	H4	0.561600	0.744500	0.737700
H51	H5	0.686200	0.193500	0.181800
H61	H6	0.875900	0.028300	0.177100
H71	H7	0.802700	0.133600	0.980900
H81	H8	0.933600	0.112200	0.931700
H91	H9	0.022000	0.498600	0.528600
H101	H10	0.868600	0.566500	0.710700
H111	H11	0.815700	0.630000	0.503000
H121	H12	0.737700	0.561600	0.744500
H131	H13	0.181800	0.686200	0.193500
H141	H14	0.177100	0.875900	0.028300
H151	H15	0.980900	0.802700	0.133600
H161	H16	0.931700	0.933600	0.112200
H171	H17	0.528600	0.022000	0.498600
H181	H18	0.710700	0.868600	0.566500
H191	H19	0.503000	0.815700	0.630000
H201	H20	0.744500	0.737700	0.561600
H211	H21	0.193500	0.181800	0.686200
H221	H22	0.028300	0.177100	0.875900
H231	H23	0.133600	0.980900	0.802700
H241	H24	0.112200	0.931700	0.933600
H251	H25	0.028600	0.998600	0.522000
H261	H26	0.210700	0.066500	0.368600
H271	H27	0.003000	0.130000	0.315700
H281	H28	0.244500	0.061600	0.237700
H291	H29	0.693500	0.186200	0.681800
H301	H30	0.528300	0.375900	0.677100
H311	H31	0.633600	0.302700	0.480900
H321	H32	0.612200	0.433600	0.431700
H331	H33	0.998600	0.522000	0.028600
H341	H34	0.066500	0.368600	0.210700
H351	H35	0.130000	0.315700	0.003000
H361	H36	0.061600	0.237700	0.244500
H371	H37	0.186200	0.681800	0.693500
H381	H38	0.375900	0.677100	0.528300
H391	H39	0.302700	0.480900	0.633600
H401	H40	0.433600	0.431700	0.612200
H411	H41	0.522000	0.028600	0.998600
H421	H42	0.368600	0.210700	0.066500
H431	H43	0.315700	0.003000	0.130000
H441	H44	0.237700	0.244500	0.061600
H451	H45	0.681800	0.693500	0.186200
H461	H46	0.677100	0.528300	0.375900
H471	H47	0.480900	0.633600	0.302700
H481	H48	0.431700	0.612200	0.433600
C11	C1	0.559160	0.419660	0.942550
C21	C2	0.563220	0.504000	0.921650
C31	C3	0.525480	0.549970	0.973480
C41	C4	0.526500	0.628010	0.954840
C51	C5	0.565730	0.657940	0.882230
C61	C6	0.603060	0.612640	0.830260
C71	C7	0.602890	0.535030	0.850590
C81	C8	0.484460	0.676220	0.011790
C91	C9	0.642830	0.647670	0.752580
C101	C10	0.610020	0.718610	0.714780
C111	C11	0.673920	0.221010	0.035530
C121	C12	0.735260	0.168140	0.074610
C131	C13	0.727350	0.162230	0.154370
C141	C14	0.780580	0.110440	0.190010
C151	C15	0.841190	0.065690	0.150090
C161	C16	0.852960	0.073620	0.071740
C171	C17	0.796980	0.126840	0.034420
C181	C18	0.922380	0.031100	0.029870
C191	C19	0.958540	0.064940	0.957440
C201	C20	0.775210	0.100310	0.274810
C211	C21	0.942550	0.559160	0.419660
C221	C22	0.921650	0.563220	0.504000
C231	C23	0.973480	0.525480	0.549970
C241	C24	0.954840	0.526500	0.628010
C251	C25	0.882230	0.565730	0.657940
C261	C26	0.830260	0.603060	0.612640
C271	C27	0.850590	0.602890	0.535030
C281	C28	0.011790	0.484460	0.676220
C291	C29	0.752580	0.642830	0.647670
C301	C30	0.714780	0.610020	0.718610
C311	C31	0.035530	0.673920	0.221010
C321	C32	0.074610	0.735260	0.168140
C331	C33	0.154370	0.727350	0.162230
C341	C34	0.190010	0.780580	0.110440
C351	C35	0.150090	0.841190	0.065690
C361	C36	0.071740	0.852960	0.073620
C371	C37	0.034420	0.796980	0.126840
C381	C38	0.029870	0.922380	0.031100
C391	C39	0.957440	0.958540	0.064940
C401	C40	0.274810	0.775210	0.100310
C411	C41	0.419660	0.942550	0.559160
C421	C42	0.504000	0.921650	0.563220
C431	C43	0.549970	0.973480	0.525480
C441	C44	0.628010	0.954840	0.526500
C451	C45	0.657940	0.882230	0.565730
C461	C46	0.612640	0.830260	0.603060
C471	C47	0.535030	0.850590	0.602890
C481	C48	0.676220	0.011790	0.484460
C491	C49	0.647670	0.752580	0.642830
C501	C50	0.718610	0.714780	0.610020
C511	C51	0.221010	0.035530	0.673920
C521	C52	0.168140	0.074610	0.735260
C531	C53	0.162230	0.154370	0.727350
C541	C54	0.110440	0.190010	0.780580
C551	C55	0.065690	0.150090	0.841190
C561	C56	0.073620	0.071740	0.852960
C571	C57	0.126840	0.034420	0.796980
C581	C58	0.031100	0.029870	0.922380
C591	C59	0.064940	0.957440	0.958540
C601	C60	0.100310	0.274810	0.775210
C611	C61	0.919660	0.059160	0.442550
C621	C62	0.004000	0.063220	0.421650
C631	C63	0.049970	0.025480	0.473480
C641	C64	0.128010	0.026500	0.454840
C651	C65	0.157940	0.065730	0.382230
C661	C66	0.112640	0.103060	0.330260
C671	C67	0.035030	0.102890	0.350590
C681	C68	0.176220	0.984460	0.511790
C691	C69	0.147670	0.142830	0.252580
C701	C70	0.218610	0.110020	0.214780
C711	C71	0.721010	0.173920	0.535530
C721	C72	0.668140	0.235260	0.574610
C731	C73	0.662230	0.227350	0.654370
C741	C74	0.610440	0.280580	0.690010
C751	C75	0.565690	0.341190	0.650090
C761	C76	0.573620	0.352960	0.571740
C771	C77	0.626840	0.296980	0.534420
C781	C78	0.531100	0.422380	0.529870
C791	C79	0.564940	0.458540	0.457440
C801	C80	0.600310	0.275210	0.774810
C811	C81	0.059160	0.442550	0.919660
C821	C82	0.063220	0.421650	0.004000
C831	C83	0.025480	0.473480	0.049970
C841	C84	0.026500	0.454840	0.128010
C851	C85	0.065730	0.382230	0.157940
C861	C86	0.103060	0.330260	0.112640
C871	C87	0.102890	0.350590	0.035030
C881	C88	0.984460	0.511790	0.176220
C891	C89	0.142830	0.252580	0.147670
C901	C90	0.110020	0.214780	0.218610
C911	C91	0.173920	0.535530	0.721010
C921	C92	0.235260	0.574610	0.668140
C931	C93	0.227350	0.654370	0.662230
C941	C94	0.280580	0.690010	0.610440
C951	C95	0.341190	0.650090	0.565690
C961	C96	0.352960	0.571740	0.573620
C971	C97	0.296980	0.534420	0.626840
C981	C98	0.422380	0.529870	0.531100
C991	C99	0.458540	0.457440	0.564940
C1001	C100	0.275210	0.774810	0.600310
C1011	C101	0.442550	0.919660	0.059160
C1021	C102	0.421650	0.004000	0.063220
C1031	C103	0.473480	0.049970	0.025480
C1041	C104	0.454840	0.128010	0.026500
C1051	C105	0.382230	0.157940	0.065730
C1061	C106	0.330260	0.112640	0.103060
C1071	C107	0.350590	0.035030	0.102890
C1081	C108	0.511790	0.176220	0.984460
C1091	C109	0.252580	0.147670	0.142830
C1101	C110	0.214780	0.218610	0.110020
C1111	C111	0.535530	0.721010	0.173920
C1121	C112	0.574610	0.668140	0.235260
C1131	C113	0.654370	0.662230	0.227350
C1141	C114	0.690010	0.610440	0.280580
C1151	C115	0.650090	0.565690	0.341190
C1161	C116	0.571740	0.573620	0.352960
C1171	C117	0.534420	0.626840	0.296980
C1181	C118	0.529870	0.531100	0.422380
C1191	C119	0.457440	0.564940	0.458540
C1201	C120	0.774810	0.600310	0.275210
O11	O1	0.599130	0.379080	0.896360
O21	O2	0.514100	0.398930	0.003090
O31	O3	0.441390	0.648700	0.070740
O41	O4	0.491620	0.744900	0.000180
O51	O5	0.744530	0.157910	0.304920
O61	O6	0.802170	0.037390	0.311610
O71	O7	0.682620	0.221050	0.966130
O81	O8	0.619640	0.259530	0.074210
O91	O9	0.896360	0.599130	0.379080
O101	O10	0.003090	0.514100	0.398930
O111	O11	0.070740	0.441390	0.648700
O121	O12	0.000180	0.491620	0.744900
O131	O13	0.304920	0.744530	0.157910
O141	O14	0.311610	0.802170	0.037390
O151	O15	0.966130	0.682620	0.221050
O161	O16	0.074210	0.619640	0.259530
O171	O17	0.379080	0.896360	0.599130
O181	O18	0.398930	0.003090	0.514100
O191	O19	0.648700	0.070740	0.441390
O201	O20	0.744900	0.000180	0.491620
O211	O21	0.157910	0.304920	0.744530
O221	O22	0.037390	0.311610	0.802170
O231	O23	0.221050	0.966130	0.682620
O241	O24	0.259530	0.074210	0.619640
O251	O25	0.879080	0.099130	0.396360
O261	O26	0.898930	0.014100	0.503090
O271	O27	0.148700	0.941390	0.570740
O281	O28	0.244900	0.991620	0.500180
O291	O29	0.657910	0.244530	0.804920
O301	O30	0.537390	0.302170	0.811610
O311	O31	0.721050	0.182620	0.466130
O321	O32	0.759530	0.119640	0.574210
O331	O33	0.099130	0.396360	0.879080
O341	O34	0.014100	0.503090	0.898930
O351	O35	0.941390	0.570740	0.148700
O361	O36	0.991620	0.500180	0.244900
O371	O37	0.244530	0.804920	0.657910
O381	O38	0.302170	0.811610	0.537390
O391	O39	0.182620	0.466130	0.721050
O401	O40	0.119640	0.574210	0.759530
O411	O41	0.396360	0.879080	0.099130
O421	O42	0.503090	0.898930	0.014100
O431	O43	0.570740	0.148700	0.941390
O441	O44	0.500180	0.244900	0.991620
O451	O45	0.804920	0.657910	0.244530
O461	O46	0.811610	0.537390	0.302170
O471	O47	0.466130	0.721050	0.182620
O481	O48	0.574210	0.759530	0.119640
