data_QUQGAL_clean_PM
_symmetry_space_group_name_H-M	'P1'
_cell_length_a	8.595800
_cell_length_b	15.800000
_cell_length_c	18.460000
_cell_angle_alpha	90.000000
_cell_angle_beta	90.000000
_cell_angle_gamma	90.000000
_symmetry_Int_Tables_number 1

loop_
_symmetry_equiv_pos_as_xyz
'x,y,z'

loop_
_atom_site_label
_atom_site_type_symbol
_atom_site_fract_x
_atom_site_fract_y
_atom_site_fract_z
Li11	Li1	0.605600	0.082050	0.672270
Li21	Li2	0.588400	0.955600	0.545400
Li31	Li3	0.894400	0.417950	0.172270
Li41	Li4	0.911600	0.544400	0.045400
Li51	Li5	0.605600	0.917950	0.827730
Li61	Li6	0.588400	0.044400	0.954600
Li71	Li7	0.894400	0.582050	0.327730
Li81	Li8	0.911600	0.455600	0.454600
Li91	Li9	0.394400	0.917950	0.327730
Li101	Li10	0.411600	0.044400	0.454600
Li111	Li11	0.105600	0.582050	0.827730
Li121	Li12	0.088400	0.455600	0.954600
Li131	Li13	0.394400	0.082050	0.172270
Li141	Li14	0.411600	0.955600	0.045400
Li151	Li15	0.105600	0.417950	0.672270
Li161	Li16	0.088400	0.544400	0.545400
H11	H1	0.808600	0.744400	0.700600
H21	H2	0.715500	0.785200	0.459000
H31	H3	0.862600	0.636000	0.619500
H41	H4	0.691400	0.755600	0.200600
H51	H5	0.784500	0.714800	0.959000
H61	H6	0.637400	0.864000	0.119500
H71	H7	0.808600	0.255600	0.799400
H81	H8	0.715500	0.214800	0.041000
H91	H9	0.862600	0.364000	0.880500
H101	H10	0.691400	0.244400	0.299400
H111	H11	0.784500	0.285200	0.541000
H121	H12	0.637400	0.136000	0.380500
H131	H13	0.191400	0.255600	0.299400
H141	H14	0.284500	0.214800	0.541000
H151	H15	0.137400	0.364000	0.380500
H161	H16	0.308600	0.244400	0.799400
H171	H17	0.215500	0.285200	0.041000
H181	H18	0.362600	0.136000	0.880500
H191	H19	0.191400	0.744400	0.200600
H201	H20	0.284500	0.785200	0.959000
H211	H21	0.137400	0.636000	0.119500
H221	H22	0.308600	0.755600	0.700600
H231	H23	0.215500	0.714800	0.459000
H241	H24	0.362600	0.864000	0.619500
C11	C1	0.681970	0.897110	0.676340
C21	C2	0.831870	0.630990	0.474980
C31	C3	0.795550	0.699110	0.529890
C41	C4	0.728090	0.826240	0.625030
C51	C5	0.789700	0.751350	0.651370
C61	C6	0.734400	0.776650	0.508050
C71	C7	0.822500	0.687100	0.602940
C81	C8	0.818030	0.602890	0.176340
C91	C9	0.668130	0.869010	0.974980
C101	C10	0.704450	0.800890	0.029890
C111	C11	0.771910	0.673760	0.125030
C121	C12	0.710300	0.748650	0.151370
C131	C13	0.765600	0.723350	0.008050
C141	C14	0.677500	0.812900	0.102940
C151	C15	0.681970	0.102890	0.823660
C161	C16	0.831870	0.369010	0.025020
C171	C17	0.795550	0.300890	0.970110
C181	C18	0.728090	0.173760	0.874970
C191	C19	0.789700	0.248650	0.848630
C201	C20	0.734400	0.223350	0.991950
C211	C21	0.822500	0.312900	0.897060
C221	C22	0.818030	0.397110	0.323660
C231	C23	0.668130	0.130990	0.525020
C241	C24	0.704450	0.199110	0.470110
C251	C25	0.771910	0.326240	0.374970
C261	C26	0.710300	0.251350	0.348630
C271	C27	0.765600	0.276650	0.491950
C281	C28	0.677500	0.187100	0.397060
C291	C29	0.318030	0.102890	0.323660
C301	C30	0.168130	0.369010	0.525020
C311	C31	0.204450	0.300890	0.470110
C321	C32	0.271910	0.173760	0.374970
C331	C33	0.210300	0.248650	0.348630
C341	C34	0.265600	0.223350	0.491950
C351	C35	0.177500	0.312900	0.397060
C361	C36	0.181970	0.397110	0.823660
C371	C37	0.331870	0.130990	0.025020
C381	C38	0.295550	0.199110	0.970110
C391	C39	0.228090	0.326240	0.874970
C401	C40	0.289700	0.251350	0.848630
C411	C41	0.234400	0.276650	0.991950
C421	C42	0.322500	0.187100	0.897060
C431	C43	0.318030	0.897110	0.176340
C441	C44	0.168130	0.630990	0.974980
C451	C45	0.204450	0.699110	0.029890
C461	C46	0.271910	0.826240	0.125030
C471	C47	0.210300	0.751350	0.151370
C481	C48	0.265600	0.776650	0.008050
C491	C49	0.177500	0.687100	0.102940
C501	C50	0.181970	0.602890	0.676340
C511	C51	0.331870	0.869010	0.474980
C521	C52	0.295550	0.800890	0.529890
C531	C53	0.228090	0.673760	0.625030
C541	C54	0.289700	0.748650	0.651370
C551	C55	0.234400	0.723350	0.508050
C561	C56	0.322500	0.812900	0.602940
N11	N1	0.701640	0.839610	0.554220
N21	N2	0.798360	0.660390	0.054220
N31	N3	0.701640	0.160390	0.945780
N41	N4	0.798360	0.339610	0.445780
N51	N5	0.298360	0.160390	0.445780
N61	N6	0.201640	0.339610	0.945780
N71	N7	0.298360	0.839610	0.054220
N81	N8	0.201640	0.660390	0.554220
O11	O1	0.619700	0.961250	0.647940
O21	O2	0.707670	0.885310	0.741420
O31	O3	0.806670	0.645550	0.410470
O41	O4	0.886780	0.562550	0.500370
O51	O5	0.880300	0.538750	0.147940
O61	O6	0.792330	0.614690	0.241420
O71	O7	0.693330	0.854450	0.910470
O81	O8	0.613220	0.937450	0.000370
O91	O9	0.619700	0.038750	0.852060
O101	O10	0.707670	0.114690	0.758580
O111	O11	0.806670	0.354450	0.089530
O121	O12	0.886780	0.437450	0.999630
O131	O13	0.880300	0.461250	0.352060
O141	O14	0.792330	0.385310	0.258580
O151	O15	0.693330	0.145550	0.589530
O161	O16	0.613220	0.062550	0.499630
O171	O17	0.380300	0.038750	0.352060
O181	O18	0.292330	0.114690	0.258580
O191	O19	0.193330	0.354450	0.589530
O201	O20	0.113220	0.437450	0.499630
O211	O21	0.119700	0.461250	0.852060
O221	O22	0.207670	0.385310	0.758580
O231	O23	0.306670	0.145550	0.089530
O241	O24	0.386780	0.062550	0.999630
O251	O25	0.380300	0.961250	0.147940
O261	O26	0.292330	0.885310	0.241420
O271	O27	0.193330	0.645550	0.910470
O281	O28	0.113220	0.562550	0.000370
O291	O29	0.119700	0.538750	0.647940
O301	O30	0.207670	0.614690	0.741420
O311	O31	0.306670	0.854450	0.410470
O321	O32	0.386780	0.937450	0.500370
