data_QUSBIQ_charged_PM
_symmetry_space_group_name_H-M	'P1'
_cell_length_a	11.989300
_cell_length_b	16.119200
_cell_length_c	16.119200
_cell_angle_alpha	120.000000
_cell_angle_beta	90.000000
_cell_angle_gamma	90.000000
_symmetry_Int_Tables_number 1

loop_
_symmetry_equiv_pos_as_xyz
'x,y,z'

loop_
_atom_site_label
_atom_site_type_symbol
_atom_site_fract_x
_atom_site_fract_y
_atom_site_fract_z
Cd11	Cd1	0.833330	0.000000	0.500000
Cd21	Cd2	0.166670	0.500000	0.000000
Cd31	Cd3	0.500000	0.500000	0.500000
H11	H1	0.569600	0.277800	0.622800
H21	H2	0.573400	0.137500	0.770200
H31	H3	0.902930	0.345000	0.722200
H41	H4	0.906730	0.632700	0.862500
H51	H5	0.236270	0.377200	0.655000
H61	H6	0.240070	0.229800	0.367300
H71	H7	0.569600	0.722200	0.377200
H81	H8	0.573400	0.862500	0.229800
H91	H9	0.902930	0.655000	0.277800
H101	H10	0.906730	0.367300	0.137500
H111	H11	0.236270	0.622800	0.345000
H121	H12	0.240070	0.770200	0.632700
H131	H13	0.763730	0.655000	0.377200
H141	H14	0.759930	0.367300	0.229800
H151	H15	0.430400	0.622800	0.277800
H161	H16	0.426600	0.770200	0.137500
H171	H17	0.097070	0.722200	0.345000
H181	H18	0.093270	0.862500	0.632700
H191	H19	0.763730	0.345000	0.622800
H201	H20	0.759930	0.632700	0.770200
H211	H21	0.430400	0.377200	0.722200
H221	H22	0.426600	0.229800	0.862500
H231	H23	0.097070	0.277800	0.655000
H241	H24	0.093270	0.137500	0.367300
C11	C1	0.677400	0.132400	0.621400
C21	C2	0.586600	0.197700	0.686600
C31	C3	0.542300	0.269300	0.672100
C41	C4	0.543500	0.184500	0.759400
C51	C5	0.010730	0.489000	0.867600
C61	C6	0.919930	0.488900	0.802300
C71	C7	0.875630	0.402800	0.730700
C81	C8	0.876830	0.574900	0.815500
C91	C9	0.344070	0.378600	0.511000
C101	C10	0.253270	0.313400	0.511100
C111	C11	0.208970	0.327900	0.597200
C121	C12	0.210170	0.240600	0.425100
C131	C13	0.677400	0.867600	0.378600
C141	C14	0.586600	0.802300	0.313400
C151	C15	0.542300	0.730700	0.327900
C161	C16	0.543500	0.815500	0.240600
C171	C17	0.010730	0.511000	0.132400
C181	C18	0.919930	0.511100	0.197700
C191	C19	0.875630	0.597200	0.269300
C201	C20	0.876830	0.425100	0.184500
C211	C21	0.344070	0.621400	0.489000
C221	C22	0.253270	0.686600	0.488900
C231	C23	0.208970	0.672100	0.402800
C241	C24	0.210170	0.759400	0.574900
C251	C25	0.655930	0.511000	0.378600
C261	C26	0.746730	0.511100	0.313400
C271	C27	0.791030	0.597200	0.327900
C281	C28	0.789830	0.425100	0.240600
C291	C29	0.322600	0.621400	0.132400
C301	C30	0.413400	0.686600	0.197700
C311	C31	0.457700	0.672100	0.269300
C321	C32	0.456500	0.759400	0.184500
C331	C33	0.989270	0.867600	0.489000
C341	C34	0.080070	0.802300	0.488900
C351	C35	0.124370	0.730700	0.402800
C361	C36	0.123170	0.815500	0.574900
C371	C37	0.655930	0.489000	0.621400
C381	C38	0.746730	0.488900	0.686600
C391	C39	0.791030	0.402800	0.672100
C401	C40	0.789830	0.574900	0.759400
C411	C41	0.322600	0.378600	0.867600
C421	C42	0.413400	0.313400	0.802300
C431	C43	0.457700	0.327900	0.730700
C441	C44	0.456500	0.240600	0.815500
C451	C45	0.989270	0.132400	0.511000
C461	C46	0.080070	0.197700	0.511100
C471	C47	0.124370	0.269300	0.597200
C481	C48	0.123170	0.184500	0.425100
O11	O1	0.697300	0.132400	0.546400
O21	O2	0.723700	0.076100	0.641200
O31	O3	0.030630	0.414000	0.867600
O41	O4	0.057030	0.565100	0.923900
O51	O5	0.363970	0.453600	0.586000
O61	O6	0.390370	0.358800	0.434900
O71	O7	0.697300	0.867600	0.453600
O81	O8	0.723700	0.923900	0.358800
O91	O9	0.030630	0.586000	0.132400
O101	O10	0.057030	0.434900	0.076100
O111	O11	0.363970	0.546400	0.414000
O121	O12	0.390370	0.641200	0.565100
O131	O13	0.636030	0.586000	0.453600
O141	O14	0.609630	0.434900	0.358800
O151	O15	0.302700	0.546400	0.132400
O161	O16	0.276300	0.641200	0.076100
O171	O17	0.969370	0.867600	0.414000
O181	O18	0.942970	0.923900	0.565100
O191	O19	0.636030	0.414000	0.546400
O201	O20	0.609630	0.565100	0.641200
O211	O21	0.302700	0.453600	0.867600
O221	O22	0.276300	0.358800	0.923900
O231	O23	0.969370	0.132400	0.586000
O241	O24	0.942970	0.076100	0.434900
H251	H25	0.951500	0.966200	0.266300
H261	H26	0.913300	0.946100	0.164800
H271	H27	0.037800	0.973000	0.196800
H281	H28	0.048500	0.733700	0.033800
H291	H29	0.086700	0.835200	0.053900
H301	H30	0.962200	0.803200	0.027000
C491	C49	0.973400	0.939600	0.200500
C501	C50	0.026600	0.799500	0.060400
N11	N1	0.000000	0.839250	0.160750
H311	H31	0.284830	0.300100	0.033800
H321	H32	0.246630	0.218700	0.053900
H331	H33	0.371130	0.223800	0.027000
H341	H34	0.381830	0.300100	0.266300
H351	H35	0.420030	0.218700	0.164800
H361	H36	0.295530	0.223800	0.196800
C511	C51	0.306730	0.260900	0.060400
C521	C52	0.359930	0.260900	0.200500
N21	N2	0.333330	0.321500	0.160750
H371	H37	0.618170	0.733700	0.699900
H381	H38	0.579970	0.835200	0.781300
H391	H39	0.704470	0.803200	0.776200
H401	H40	0.715170	0.966200	0.699900
H411	H41	0.753370	0.946100	0.781300
H421	H42	0.628870	0.973000	0.776200
C531	C53	0.640070	0.799500	0.739100
C541	C54	0.693270	0.939600	0.739100
N31	N3	0.666670	0.839250	0.678500
H431	H43	0.951500	0.033800	0.733700
H441	H44	0.913300	0.053900	0.835200
H451	H45	0.037800	0.027000	0.803200
H461	H46	0.048500	0.266300	0.966200
H471	H47	0.086700	0.164800	0.946100
H481	H48	0.962200	0.196800	0.973000
C551	C55	0.973400	0.060400	0.799500
C561	C56	0.026600	0.200500	0.939600
N41	N4	0.000000	0.160750	0.839250
H491	H49	0.284830	0.699900	0.966200
H501	H50	0.246630	0.781300	0.946100
H511	H51	0.371130	0.776200	0.973000
H521	H52	0.381830	0.699900	0.733700
H531	H53	0.420030	0.781300	0.835200
H541	H54	0.295530	0.776200	0.803200
C571	C57	0.306730	0.739100	0.939600
C581	C58	0.359930	0.739100	0.799500
N51	N5	0.333330	0.678500	0.839250
H551	H55	0.618170	0.266300	0.300100
H561	H56	0.579970	0.164800	0.218700
H571	H57	0.704470	0.196800	0.223800
H581	H58	0.715170	0.033800	0.300100
H591	H59	0.753370	0.053900	0.218700
H601	H60	0.628870	0.027000	0.223800
C591	C59	0.640070	0.200500	0.260900
C601	C60	0.693270	0.060400	0.260900
N61	N6	0.666670	0.160750	0.321500
