data_QUSRON_clean_PM
_symmetry_space_group_name_H-M	'P1'
_cell_length_a	12.624000
_cell_length_b	15.891000
_cell_length_c	16.585000
_cell_angle_alpha	90.000000
_cell_angle_beta	105.217000
_cell_angle_gamma	90.000000
_symmetry_Int_Tables_number 1

loop_
_symmetry_equiv_pos_as_xyz
'x,y,z'

loop_
_atom_site_label
_atom_site_type_symbol
_atom_site_fract_x
_atom_site_fract_y
_atom_site_fract_z
U11	U1	0.349270	0.801680	0.107880
U21	U2	0.263930	0.107500	0.237910
U31	U3	0.188950	0.472020	0.246020
C11	C1	0.275500	0.591300	0.101600
C21	C2	0.446400	0.405800	0.238500
C31	C3	0.521600	0.183900	0.222300
C41	C4	0.358300	0.011200	0.075100
C51	C5	0.094400	0.139200	0.845000
C61	C6	0.028200	0.385800	0.814500
C71	C7	0.307600	0.521900	0.047800
H11	H1	0.243800	0.508300	0.002600
H21	H2	0.363300	0.544100	0.023000
C81	C8	0.452300	0.448700	0.156900
H31	H3	0.472700	0.507200	0.168300
H41	H4	0.509200	0.421900	0.136400
C91	C9	0.519500	0.174000	0.130700
H51	H5	0.550800	0.224200	0.113000
H61	H6	0.566200	0.126900	0.125600
C101	C10	0.390500	0.081500	0.028600
H71	H7	0.455400	0.065100	0.011500
H81	H8	0.332000	0.091200	0.978300
C111	C11	0.042300	0.189300	0.903400
H91	H9	0.963800	0.192400	0.878200
H101	H10	0.053200	0.158400	0.955400
C121	C12	0.012900	0.344200	0.894300
H111	H11	0.025000	0.386200	0.938200
H121	H12	0.937500	0.325200	0.883900
C131	C13	0.183900	0.284400	0.976800
C141	C14	0.312500	0.367100	0.060200
C151	C15	0.341500	0.228700	0.053400
N11	N1	0.245600	0.214900	0.999200
N21	N2	0.379500	0.302000	0.089800
N31	N3	0.216200	0.364000	0.003000
N41	N4	0.349000	0.444800	0.092200
N51	N5	0.083700	0.274800	0.923100
N61	N6	0.413400	0.160400	0.075300
O11	O1	0.270800	0.664400	0.073100
O21	O2	0.255500	0.570900	0.169300
O31	O3	0.356700	0.403200	0.257500
O41	O4	0.535700	0.379100	0.282800
O51	O5	0.604400	0.222200	0.266600
O61	O6	0.449300	0.151500	0.251000
O71	O7	0.319900	0.025300	0.137700
O81	O8	0.366300	0.936400	0.047500
O91	O9	0.054000	0.068000	0.822200
O101	O10	0.175700	0.163000	0.820000
O111	O11	0.113100	0.371400	0.792500
O121	O12	0.952200	0.428600	0.774300
U41	U4	0.650730	0.301680	0.392120
U51	U5	0.736070	0.607500	0.262090
U61	U6	0.811050	0.972020	0.253980
C161	C16	0.724500	0.091300	0.398400
C171	C17	0.553600	0.905800	0.261500
C181	C18	0.478400	0.683900	0.277700
C191	C19	0.641700	0.511200	0.424900
C201	C20	0.905600	0.639200	0.655000
C211	C21	0.971800	0.885800	0.685500
C221	C22	0.692400	0.021900	0.452200
H131	H13	0.756200	0.008300	0.497400
H141	H14	0.636700	0.044100	0.477000
C231	C23	0.547700	0.948700	0.343100
H151	H15	0.527300	0.007200	0.331700
H161	H16	0.490800	0.921900	0.363600
C241	C24	0.480500	0.674000	0.369300
H171	H17	0.449200	0.724200	0.387000
H181	H18	0.433800	0.626900	0.374400
C251	C25	0.609500	0.581500	0.471400
H191	H19	0.544600	0.565100	0.488500
H201	H20	0.668000	0.591200	0.521700
C261	C26	0.957700	0.689300	0.596600
H211	H21	0.036200	0.692400	0.621800
H221	H22	0.946800	0.658400	0.544600
C271	C27	0.987100	0.844200	0.605700
H231	H23	0.975000	0.886200	0.561800
H241	H24	0.062500	0.825200	0.616100
C281	C28	0.816100	0.784400	0.523200
C291	C29	0.687500	0.867100	0.439800
C301	C30	0.658500	0.728700	0.446600
N71	N7	0.754400	0.714900	0.500800
N81	N8	0.620500	0.802000	0.410200
N91	N9	0.783800	0.864000	0.497000
N101	N10	0.651000	0.944800	0.407800
N111	N11	0.916300	0.774800	0.576900
N121	N12	0.586600	0.660400	0.424700
O131	O13	0.729200	0.164400	0.426900
O141	O14	0.744500	0.070900	0.330700
O151	O15	0.643300	0.903200	0.242500
O161	O16	0.464300	0.879100	0.217200
O171	O17	0.395600	0.722200	0.233400
O181	O18	0.550700	0.651500	0.249000
O191	O19	0.680100	0.525300	0.362300
O201	O20	0.633700	0.436400	0.452500
O211	O21	0.946000	0.568000	0.677800
O221	O22	0.824300	0.663000	0.680000
O231	O23	0.886900	0.871400	0.707500
O241	O24	0.047800	0.928600	0.725700
U71	U7	0.650730	0.198320	0.892120
U81	U8	0.736070	0.892500	0.762090
U91	U9	0.811050	0.527980	0.753980
C311	C31	0.724500	0.408700	0.898400
C321	C32	0.553600	0.594200	0.761500
C331	C33	0.478400	0.816100	0.777700
C341	C34	0.641700	0.988800	0.924900
C351	C35	0.905600	0.860800	0.155000
C361	C36	0.971800	0.614200	0.185500
C371	C37	0.692400	0.478100	0.952200
H251	H25	0.756200	0.491700	0.997400
H261	H26	0.636700	0.455900	0.977000
C381	C38	0.547700	0.551300	0.843100
H271	H27	0.527300	0.492800	0.831700
H281	H28	0.490800	0.578100	0.863600
C391	C39	0.480500	0.826000	0.869300
H291	H29	0.449200	0.775800	0.887000
H301	H30	0.433800	0.873100	0.874400
C401	C40	0.609500	0.918500	0.971400
H311	H31	0.544600	0.934900	0.988500
H321	H32	0.668000	0.908800	0.021700
C411	C41	0.957700	0.810700	0.096600
H331	H33	0.036200	0.807600	0.121800
H341	H34	0.946800	0.841600	0.044600
C421	C42	0.987100	0.655800	0.105700
H351	H35	0.975000	0.613800	0.061800
H361	H36	0.062500	0.674800	0.116100
C431	C43	0.816100	0.715600	0.023200
C441	C44	0.687500	0.632900	0.939800
C451	C45	0.658500	0.771300	0.946600
N131	N13	0.754400	0.785100	0.000800
N141	N14	0.620500	0.698000	0.910200
N151	N15	0.783800	0.636000	0.997000
N161	N16	0.651000	0.555200	0.907800
N171	N17	0.916300	0.725200	0.076900
N181	N18	0.586600	0.839600	0.924700
O251	O25	0.729200	0.335600	0.926900
O261	O26	0.744500	0.429100	0.830700
O271	O27	0.643300	0.596800	0.742500
O281	O28	0.464300	0.620900	0.717200
O291	O29	0.395600	0.777800	0.733400
O301	O30	0.550700	0.848500	0.749000
O311	O31	0.680100	0.974700	0.862300
O321	O32	0.633700	0.063600	0.952500
O331	O33	0.946000	0.932000	0.177800
O341	O34	0.824300	0.837000	0.180000
O351	O35	0.886900	0.628600	0.207500
O361	O36	0.047800	0.571400	0.225700
U101	U10	0.349270	0.698320	0.607880
U111	U11	0.263930	0.392500	0.737910
U121	U12	0.188950	0.027980	0.746020
C461	C46	0.275500	0.908700	0.601600
C471	C47	0.446400	0.094200	0.738500
C481	C48	0.521600	0.316100	0.722300
C491	C49	0.358300	0.488800	0.575100
C501	C50	0.094400	0.360800	0.345000
C511	C51	0.028200	0.114200	0.314500
C521	C52	0.307600	0.978100	0.547800
H371	H37	0.243800	0.991700	0.502600
H381	H38	0.363300	0.955900	0.523000
C531	C53	0.452300	0.051300	0.656900
H391	H39	0.472700	0.992800	0.668300
H401	H40	0.509200	0.078100	0.636400
C541	C54	0.519500	0.326000	0.630700
H411	H41	0.550800	0.275800	0.613000
H421	H42	0.566200	0.373100	0.625600
C551	C55	0.390500	0.418500	0.528600
H431	H43	0.455400	0.434900	0.511500
H441	H44	0.332000	0.408800	0.478300
C561	C56	0.042300	0.310700	0.403400
H451	H45	0.963800	0.307600	0.378200
H461	H46	0.053200	0.341600	0.455400
C571	C57	0.012900	0.155800	0.394300
H471	H47	0.025000	0.113800	0.438200
H481	H48	0.937500	0.174800	0.383900
C581	C58	0.183900	0.215600	0.476800
C591	C59	0.312500	0.132900	0.560200
C601	C60	0.341500	0.271300	0.553400
N191	N19	0.245600	0.285100	0.499200
N201	N20	0.379500	0.198000	0.589800
N211	N21	0.216200	0.136000	0.503000
N221	N22	0.349000	0.055200	0.592200
N231	N23	0.083700	0.225200	0.423100
N241	N24	0.413400	0.339600	0.575300
O371	O37	0.270800	0.835600	0.573100
O381	O38	0.255500	0.929100	0.669300
O391	O39	0.356700	0.096800	0.757500
O401	O40	0.535700	0.120900	0.782800
O411	O41	0.604400	0.277800	0.766600
O421	O42	0.449300	0.348500	0.751000
O431	O43	0.319900	0.474700	0.637700
O441	O44	0.366300	0.563600	0.547500
O451	O45	0.054000	0.432000	0.322200
O461	O46	0.175700	0.337000	0.320000
O471	O47	0.113100	0.128600	0.292500
O481	O48	0.952200	0.071400	0.274300
