data_QUVDUH_clean_PM
_symmetry_space_group_name_H-M	'P1'
_cell_length_a	11.358000
_cell_length_b	14.829000
_cell_length_c	16.325000
_cell_angle_alpha	90.000000
_cell_angle_beta	90.000000
_cell_angle_gamma	90.000000
_symmetry_Int_Tables_number 1

loop_
_symmetry_equiv_pos_as_xyz
'x,y,z'

loop_
_atom_site_label
_atom_site_type_symbol
_atom_site_fract_x
_atom_site_fract_y
_atom_site_fract_z
Y11	Y1	0.275550	0.744970	0.431340
Y21	Y2	0.232800	0.805030	0.054520
Y31	Y3	0.224450	0.255030	0.931340
Y41	Y4	0.267200	0.194970	0.554520
Y51	Y5	0.724450	0.244970	0.068660
Y61	Y6	0.767200	0.305030	0.445480
Y71	Y7	0.775550	0.755030	0.568660
Y81	Y8	0.732800	0.694970	0.945480
P11	P1	0.256600	0.817740	0.832530
P21	P2	0.321400	0.948200	0.546870
P31	P3	0.243400	0.182260	0.332530
P41	P4	0.178600	0.051800	0.046870
P51	P5	0.743400	0.317740	0.667470
P61	P6	0.678600	0.448200	0.953130
P71	P7	0.756600	0.682260	0.167470
P81	P8	0.821400	0.551800	0.453130
H11	H1	0.397500	0.747400	0.797200
H21	H2	0.476800	0.004700	0.532900
H31	H3	0.236400	0.006700	0.694100
H41	H4	0.870600	0.152900	0.740700
H51	H5	0.333700	0.958300	0.803900
H61	H6	0.200400	0.967200	0.826000
H71	H7	0.390600	0.902400	0.676900
H81	H8	0.291500	0.836200	0.647700
H91	H9	0.091400	0.859100	0.685800
H101	H10	0.089300	0.940300	0.624300
H111	H11	0.997200	0.878200	0.819900
H121	H12	0.870000	0.963700	0.904800
H131	H13	0.800400	0.099100	0.860000
H141	H14	0.005000	0.081000	0.661700
H151	H15	0.102500	0.252600	0.297200
H161	H16	0.023200	0.995300	0.032900
H171	H17	0.263600	0.993300	0.194100
H181	H18	0.629400	0.847100	0.240700
H191	H19	0.166300	0.041700	0.303900
H201	H20	0.299600	0.032800	0.326000
H211	H21	0.109400	0.097600	0.176900
H221	H22	0.208500	0.163800	0.147700
H231	H23	0.408600	0.140900	0.185800
H241	H24	0.410700	0.059700	0.124300
H251	H25	0.502800	0.121800	0.319900
H261	H26	0.630000	0.036300	0.404800
H271	H27	0.699600	0.900900	0.360000
H281	H28	0.495000	0.919000	0.161700
H291	H29	0.602500	0.247400	0.702800
H301	H30	0.523200	0.504700	0.967100
H311	H31	0.763600	0.506700	0.805900
H321	H32	0.129400	0.652900	0.759300
H331	H33	0.666300	0.458300	0.696100
H341	H34	0.799600	0.467200	0.674000
H351	H35	0.609400	0.402400	0.823100
H361	H36	0.708500	0.336200	0.852300
H371	H37	0.908600	0.359100	0.814200
H381	H38	0.910700	0.440300	0.875700
H391	H39	0.002800	0.378200	0.680100
H401	H40	0.130000	0.463700	0.595200
H411	H41	0.199600	0.599100	0.640000
H421	H42	0.995000	0.581000	0.838300
H431	H43	0.897500	0.752600	0.202800
H441	H44	0.976800	0.495300	0.467100
H451	H45	0.736400	0.493300	0.305900
H461	H46	0.370600	0.347100	0.259300
H471	H47	0.833700	0.541700	0.196100
H481	H48	0.700400	0.532800	0.174000
H491	H49	0.890600	0.597600	0.323100
H501	H50	0.791500	0.663800	0.352300
H511	H51	0.591400	0.640900	0.314200
H521	H52	0.589300	0.559700	0.375700
H531	H53	0.497200	0.621800	0.180100
H541	H54	0.370000	0.536300	0.095200
H551	H55	0.300400	0.400900	0.140000
H561	H56	0.505000	0.419000	0.338300
C11	C1	0.256400	0.932700	0.793900
C21	C2	0.313400	0.899200	0.651600
C31	C3	0.102300	0.923800	0.681100
C41	C4	0.012500	0.970200	0.733200
C51	C5	0.973200	0.935400	0.803700
C61	C6	0.894000	0.986500	0.854400
C71	C7	0.854800	0.067000	0.828900
C81	C8	0.975800	0.055100	0.709400
C91	C9	0.501900	0.739700	0.543400
C101	C10	0.550500	0.763200	0.459000
C111	C11	0.261800	0.823900	0.250400
C121	C12	0.246400	0.722600	0.237100
C131	C13	0.458400	0.702600	0.987800
C141	C14	0.505800	0.797400	0.008500
C151	C15	0.243600	0.067300	0.293900
C161	C16	0.186600	0.100800	0.151600
C171	C17	0.397700	0.076200	0.181100
C181	C18	0.487500	0.029800	0.233200
C191	C19	0.526800	0.064600	0.303700
C201	C20	0.606000	0.013500	0.354400
C211	C21	0.645200	0.933000	0.328900
C221	C22	0.524200	0.944900	0.209400
C231	C23	0.998100	0.260300	0.043400
C241	C24	0.949500	0.236800	0.959000
C251	C25	0.238200	0.176100	0.750400
C261	C26	0.253600	0.277400	0.737100
C271	C27	0.041600	0.297400	0.487800
C281	C28	0.994200	0.202600	0.508500
C291	C29	0.743600	0.432700	0.706100
C301	C30	0.686600	0.399200	0.848400
C311	C31	0.897700	0.423800	0.818900
C321	C32	0.987500	0.470200	0.766800
C331	C33	0.026800	0.435400	0.696300
C341	C34	0.106000	0.486500	0.645600
C351	C35	0.145200	0.567000	0.671100
C361	C36	0.024200	0.555100	0.790600
C371	C37	0.498100	0.239700	0.956600
C381	C38	0.449500	0.263200	0.041000
C391	C39	0.738200	0.323900	0.249600
C401	C40	0.753600	0.222600	0.262900
C411	C41	0.541600	0.202600	0.512200
C421	C42	0.494200	0.297400	0.491500
C431	C43	0.756400	0.567300	0.206100
C441	C44	0.813400	0.600800	0.348400
C451	C45	0.602300	0.576200	0.318900
C461	C46	0.512500	0.529800	0.266800
C471	C47	0.473200	0.564600	0.196300
C481	C48	0.394000	0.513500	0.145600
C491	C49	0.354800	0.433000	0.171100
C501	C50	0.475800	0.444900	0.290600
C511	C51	0.001900	0.760300	0.456600
C521	C52	0.050500	0.736800	0.541000
C531	C53	0.761800	0.676100	0.749600
C541	C54	0.746400	0.777400	0.762900
C551	C55	0.958400	0.797400	0.012200
C561	C56	0.005800	0.702600	0.991500
N11	N1	0.227200	0.946800	0.704200
N21	N2	0.895600	0.101100	0.757000
N31	N3	0.272800	0.053200	0.204200
N41	N4	0.604400	0.898900	0.257000
N51	N5	0.772800	0.446800	0.795800
N61	N6	0.104400	0.601100	0.743000
N71	N7	0.727200	0.553200	0.295800
N81	N8	0.395600	0.398900	0.243000
O11	O1	0.177100	0.760700	0.782100
O21	O2	0.227100	0.829200	0.920300
O31	O3	0.389500	0.789600	0.829100
O41	O4	0.264600	0.039700	0.549900
O51	O5	0.268100	0.884300	0.487500
O61	O6	0.454400	0.952300	0.530200
O71	O7	0.393500	0.725600	0.550700
O81	O8	0.577500	0.734800	0.599200
O91	O9	0.654700	0.778300	0.452000
O101	O10	0.474200	0.762800	0.399200
O111	O11	0.277600	0.849900	0.321900
O121	O12	0.259900	0.869500	0.186500
O131	O13	0.226200	0.697000	0.165200
O141	O14	0.249300	0.673200	0.300700
O151	O15	0.530800	0.650600	0.951200
O161	O16	0.357500	0.684400	0.006800
O171	O17	0.434300	0.847100	0.043200
O181	O18	0.606600	0.815900	0.986800
O191	O19	0.322900	0.239300	0.282100
O201	O20	0.272900	0.170800	0.420300
O211	O21	0.110500	0.210400	0.329100
O221	O22	0.235400	0.960300	0.049900
O231	O23	0.231900	0.115700	0.987500
O241	O24	0.045600	0.047700	0.030200
O251	O25	0.106500	0.274400	0.050700
O261	O26	0.922500	0.265200	0.099200
O271	O27	0.845300	0.221700	0.952000
O281	O28	0.025800	0.237200	0.899200
O291	O29	0.222400	0.150100	0.821900
O301	O30	0.240100	0.130500	0.686500
O311	O31	0.273800	0.303000	0.665200
O321	O32	0.250700	0.326800	0.800700
O331	O33	0.969200	0.349400	0.451200
O341	O34	0.142500	0.315600	0.506800
O351	O35	0.065700	0.152900	0.543200
O361	O36	0.893400	0.184100	0.486800
O371	O37	0.822900	0.260700	0.717900
O381	O38	0.772900	0.329200	0.579700
O391	O39	0.610500	0.289600	0.670900
O401	O40	0.735400	0.539700	0.950100
O411	O41	0.731900	0.384300	0.012500
O421	O42	0.545600	0.452300	0.969800
O431	O43	0.606500	0.225600	0.949300
O441	O44	0.422500	0.234800	0.900800
O451	O45	0.345300	0.278300	0.048000
O461	O46	0.525800	0.262800	0.100800
O471	O47	0.722400	0.349900	0.178100
O481	O48	0.740100	0.369500	0.313500
O491	O49	0.773800	0.197000	0.334800
O501	O50	0.750700	0.173200	0.199300
O511	O51	0.469200	0.150600	0.548800
O521	O52	0.642500	0.184400	0.493200
O531	O53	0.565700	0.347100	0.456800
O541	O54	0.393400	0.315900	0.513200
O551	O55	0.677100	0.739300	0.217900
O561	O56	0.727100	0.670800	0.079700
O571	O57	0.889500	0.710400	0.170900
O581	O58	0.764600	0.460300	0.450100
O591	O59	0.768100	0.615700	0.512500
O601	O60	0.954400	0.547700	0.469800
O611	O61	0.893500	0.774400	0.449300
O621	O62	0.077500	0.765200	0.400800
O631	O63	0.154700	0.721700	0.548000
O641	O64	0.974200	0.737200	0.600800
O651	O65	0.777600	0.650100	0.678100
O661	O66	0.759900	0.630500	0.813500
O671	O67	0.726200	0.803000	0.834800
O681	O68	0.749300	0.826800	0.699300
O691	O69	0.030800	0.849400	0.048800
O701	O70	0.857500	0.815600	0.993200
O711	O71	0.934300	0.652900	0.956800
O721	O72	0.106600	0.684100	0.013200
