data_QUVFAP_clean_PM
_symmetry_space_group_name_H-M	'P1'
_cell_length_a	11.365600
_cell_length_b	14.844900
_cell_length_c	16.307100
_cell_angle_alpha	90.000000
_cell_angle_beta	90.000000
_cell_angle_gamma	90.000000
_symmetry_Int_Tables_number 1

loop_
_symmetry_equiv_pos_as_xyz
'x,y,z'

loop_
_atom_site_label
_atom_site_type_symbol
_atom_site_fract_x
_atom_site_fract_y
_atom_site_fract_z
Er11	Er1	0.276450	0.745180	0.431330
Er21	Er2	0.234060	0.804920	0.054900
Er31	Er3	0.223550	0.254820	0.931330
Er41	Er4	0.265940	0.195080	0.554900
Er51	Er5	0.723550	0.245180	0.068670
Er61	Er6	0.765940	0.304920	0.445100
Er71	Er7	0.776450	0.754820	0.568670
Er81	Er8	0.734060	0.695080	0.945100
P11	P1	0.257700	0.817900	0.832810
P21	P2	0.320500	0.948300	0.546720
P31	P3	0.242300	0.182100	0.332810
P41	P4	0.179500	0.051700	0.046720
P51	P5	0.742300	0.317900	0.667190
P61	P6	0.679500	0.448300	0.953280
P71	P7	0.757700	0.682100	0.167190
P81	P8	0.820500	0.551700	0.453280
H11	H1	0.398100	0.747800	0.797200
H21	H2	0.474900	0.009900	0.532600
H31	H3	0.231900	0.006000	0.694800
H41	H4	0.869900	0.152100	0.743100
H51	H5	0.329300	0.959000	0.803900
H61	H6	0.195800	0.964900	0.825600
H71	H7	0.389900	0.905500	0.676800
H81	H8	0.293900	0.836900	0.647500
H91	H9	0.090600	0.937300	0.624900
H101	H10	0.092900	0.857900	0.688400
H111	H11	0.996500	0.880200	0.822500
H121	H12	0.859200	0.959300	0.899300
H131	H13	0.809600	0.098500	0.861400
H141	H14	0.000600	0.080100	0.660300
H151	H15	0.101900	0.252200	0.297200
H161	H16	0.025100	0.990100	0.032600
H171	H17	0.268100	0.994000	0.194800
H181	H18	0.630100	0.847900	0.243100
H191	H19	0.170700	0.041000	0.303900
H201	H20	0.304200	0.035100	0.325600
H211	H21	0.110100	0.094500	0.176800
H221	H22	0.206100	0.163100	0.147500
H231	H23	0.409400	0.062700	0.124900
H241	H24	0.407100	0.142100	0.188400
H251	H25	0.503500	0.119800	0.322500
H261	H26	0.640800	0.040700	0.399300
H271	H27	0.690400	0.901500	0.361400
H281	H28	0.499400	0.919900	0.160300
H291	H29	0.601900	0.247800	0.702800
H301	H30	0.525100	0.509900	0.967400
H311	H31	0.768100	0.506000	0.805200
H321	H32	0.130100	0.652100	0.756900
H331	H33	0.670700	0.459000	0.696100
H341	H34	0.804200	0.464900	0.674400
H351	H35	0.610100	0.405500	0.823200
H361	H36	0.706100	0.336900	0.852500
H371	H37	0.909400	0.437300	0.875100
H381	H38	0.907100	0.357900	0.811600
H391	H39	0.003500	0.380200	0.677500
H401	H40	0.140800	0.459300	0.600700
H411	H41	0.190400	0.598500	0.638600
H421	H42	0.999400	0.580100	0.839700
H431	H43	0.898100	0.752200	0.202800
H441	H44	0.974900	0.490100	0.467400
H451	H45	0.731900	0.494000	0.305200
H461	H46	0.369900	0.347900	0.256900
H471	H47	0.829300	0.541000	0.196100
H481	H48	0.695800	0.535100	0.174400
H491	H49	0.889900	0.594500	0.323200
H501	H50	0.793900	0.663100	0.352500
H511	H51	0.590600	0.562700	0.375100
H521	H52	0.592900	0.642100	0.311600
H531	H53	0.496500	0.619800	0.177500
H541	H54	0.359200	0.540700	0.100700
H551	H55	0.309600	0.401500	0.138600
H561	H56	0.500600	0.419900	0.339700
C11	C1	0.253100	0.931800	0.793600
C21	C2	0.313100	0.900400	0.651300
C31	C3	0.103600	0.922400	0.682100
C41	C4	0.013900	0.971200	0.734300
C51	C5	0.971300	0.936600	0.805000
C61	C6	0.890500	0.984300	0.851800
C71	C7	0.859300	0.064800	0.828000
C81	C8	0.974400	0.055000	0.709300
C91	C9	0.501900	0.740100	0.542500
C101	C10	0.549600	0.762900	0.456100
C111	C11	0.262200	0.822700	0.251200
C121	C12	0.245200	0.722600	0.237600
C131	C13	0.460700	0.700700	0.985700
C141	C14	0.506200	0.796200	0.006600
C151	C15	0.246900	0.068200	0.293600
C161	C16	0.186900	0.099600	0.151300
C171	C17	0.396400	0.077600	0.182100
C181	C18	0.486100	0.028800	0.234300
C191	C19	0.528700	0.063400	0.305000
C201	C20	0.609500	0.015700	0.351800
C211	C21	0.640700	0.935200	0.328000
C221	C22	0.525600	0.945000	0.209300
C231	C23	0.998100	0.259900	0.042500
C241	C24	0.950400	0.237100	0.956100
C251	C25	0.237800	0.177300	0.751200
C261	C26	0.254800	0.277400	0.737600
C271	C27	0.039300	0.299300	0.485700
C281	C28	0.993800	0.203800	0.506600
C291	C29	0.746900	0.431800	0.706400
C301	C30	0.686900	0.400400	0.848700
C311	C31	0.896400	0.422400	0.817900
C321	C32	0.986100	0.471200	0.765700
C331	C33	0.028700	0.436600	0.695000
C341	C34	0.109500	0.484300	0.648200
C351	C35	0.140700	0.564800	0.672000
C361	C36	0.025600	0.555000	0.790700
C371	C37	0.498100	0.240100	0.957500
C381	C38	0.450400	0.262900	0.043900
C391	C39	0.737800	0.322700	0.248800
C401	C40	0.754800	0.222600	0.262400
C411	C41	0.539300	0.200700	0.514300
C421	C42	0.493800	0.296200	0.493400
C431	C43	0.753100	0.568200	0.206400
C441	C44	0.813100	0.599600	0.348700
C451	C45	0.603600	0.577600	0.317900
C461	C46	0.513900	0.528800	0.265700
C471	C47	0.471300	0.563400	0.195000
C481	C48	0.390500	0.515700	0.148200
C491	C49	0.359300	0.435200	0.172000
C501	C50	0.474400	0.445000	0.290700
C511	C51	0.001900	0.759900	0.457500
C521	C52	0.049600	0.737100	0.543900
C531	C53	0.762200	0.677300	0.748800
C541	C54	0.745200	0.777400	0.762400
C551	C55	0.960700	0.799300	0.014300
C561	C56	0.006200	0.703800	0.993400
N11	N1	0.224300	0.945900	0.704400
N21	N2	0.895700	0.100200	0.758100
N31	N3	0.275700	0.054100	0.204400
N41	N4	0.604300	0.899800	0.258100
N51	N5	0.775700	0.445900	0.795600
N61	N6	0.104300	0.600200	0.741900
N71	N7	0.724300	0.554100	0.295600
N81	N8	0.395700	0.399800	0.241900
O11	O1	0.178300	0.761800	0.783100
O21	O2	0.229500	0.829300	0.920500
O31	O3	0.390100	0.790000	0.829100
O41	O4	0.263400	0.039300	0.549800
O51	O5	0.268900	0.884100	0.486900
O61	O6	0.455300	0.956900	0.529400
O71	O7	0.393700	0.726300	0.550000
O81	O8	0.577600	0.735300	0.600300
O91	O9	0.654900	0.777100	0.451900
O101	O10	0.474600	0.763400	0.400600
O111	O11	0.279000	0.850900	0.322500
O121	O12	0.261800	0.869400	0.186200
O131	O13	0.227000	0.696300	0.165400
O141	O14	0.250500	0.673300	0.301200
O151	O15	0.530800	0.650400	0.951300
O161	O16	0.358900	0.683400	0.006800
O171	O17	0.435400	0.848100	0.044100
O181	O18	0.609800	0.815900	0.986800
O191	O19	0.321700	0.238200	0.283100
O201	O20	0.270500	0.170700	0.420500
O211	O21	0.109900	0.210000	0.329100
O221	O22	0.236600	0.960700	0.049800
O231	O23	0.231100	0.115900	0.986900
O241	O24	0.044700	0.043100	0.029400
O251	O25	0.106300	0.273700	0.050000
O261	O26	0.922400	0.264700	0.100300
O271	O27	0.845100	0.222900	0.951900
O281	O28	0.025400	0.236600	0.900600
O291	O29	0.221000	0.149100	0.822500
O301	O30	0.238200	0.130600	0.686200
O311	O31	0.273000	0.303700	0.665400
O321	O32	0.249500	0.326700	0.801200
O331	O33	0.969200	0.349600	0.451300
O341	O34	0.141100	0.316600	0.506800
O351	O35	0.064600	0.151900	0.544100
O361	O36	0.890200	0.184100	0.486800
O371	O37	0.821700	0.261800	0.716900
O381	O38	0.770500	0.329300	0.579500
O391	O39	0.609900	0.290000	0.670900
O401	O40	0.736600	0.539300	0.950200
O411	O41	0.731100	0.384100	0.013100
O421	O42	0.544700	0.456900	0.970600
O431	O43	0.606300	0.226300	0.950000
O441	O44	0.422400	0.235300	0.899700
O451	O45	0.345100	0.277100	0.048100
O461	O46	0.525400	0.263400	0.099400
O471	O47	0.721000	0.350900	0.177500
O481	O48	0.738200	0.369400	0.313800
O491	O49	0.773000	0.196300	0.334600
O501	O50	0.749500	0.173300	0.198800
O511	O51	0.469200	0.150400	0.548700
O521	O52	0.641100	0.183400	0.493200
O531	O53	0.564600	0.348100	0.455900
O541	O54	0.390200	0.315900	0.513200
O551	O55	0.678300	0.738200	0.216900
O561	O56	0.729500	0.670700	0.079500
O571	O57	0.890100	0.710000	0.170900
O581	O58	0.763400	0.460700	0.450200
O591	O59	0.768900	0.615900	0.513100
O601	O60	0.955300	0.543100	0.470600
O611	O61	0.893700	0.773700	0.450000
O621	O62	0.077600	0.764700	0.399700
O631	O63	0.154900	0.722900	0.548100
O641	O64	0.974600	0.736600	0.599400
O651	O65	0.779000	0.649100	0.677500
O661	O66	0.761800	0.630600	0.813800
O671	O67	0.727000	0.803700	0.834600
O681	O68	0.750500	0.826700	0.698800
O691	O69	0.030800	0.849600	0.048700
O701	O70	0.858900	0.816600	0.993200
O711	O71	0.935400	0.651900	0.955900
O721	O72	0.109800	0.684100	0.013200
