data_QUZVEO_clean_PM
_symmetry_space_group_name_H-M	'P1'
_cell_length_a	8.632600
_cell_length_b	28.120600
_cell_length_c	15.346200
_cell_angle_alpha	90.000000
_cell_angle_beta	90.000000
_cell_angle_gamma	90.000000
_symmetry_Int_Tables_number 1

loop_
_symmetry_equiv_pos_as_xyz
'x,y,z'

loop_
_atom_site_label
_atom_site_type_symbol
_atom_site_fract_x
_atom_site_fract_y
_atom_site_fract_z
Dy11	Dy1	0.947610	0.586720	0.202050
O11	O1	0.206700	0.628360	0.304500
O21	O2	0.049000	0.663200	0.210500
O31	O3	0.044100	0.522700	0.282800
O41	O4	0.205100	0.465920	0.467400
O51	O5	0.126400	0.397000	0.655100
C11	C1	0.147200	0.510500	0.335300
C21	C2	0.194600	0.711200	0.303800
C31	C3	0.148800	0.664600	0.270100
O61	O6	0.338400	0.437400	0.619500
O71	O7	0.284600	0.526690	0.338100
C41	C4	0.130800	0.433800	0.522200
C51	C5	0.971900	0.450100	0.412400
H11	H1	0.886100	0.450100	0.375800
C61	C6	0.101300	0.474500	0.401100
C71	C7	0.289400	0.724600	0.368500
H21	H2	0.344200	0.704800	0.406000
C81	C8	0.203600	0.421800	0.605300
C91	C9	0.988400	0.424300	0.489100
H31	H3	0.914800	0.404200	0.513400
Dy21	Dy2	0.552390	0.413280	0.702050
O81	O8	0.293300	0.371640	0.804500
O91	O9	0.451000	0.336800	0.710500
O101	O10	0.455900	0.477300	0.782800
O111	O11	0.294900	0.534080	0.967400
O121	O12	0.373600	0.603000	0.155100
C101	C10	0.352800	0.489500	0.835300
C111	C11	0.305400	0.288800	0.803800
C121	C12	0.351200	0.335400	0.770100
O131	O13	0.161600	0.562600	0.119500
O141	O14	0.215400	0.473310	0.838100
C131	C13	0.369200	0.566200	0.022200
C141	C14	0.528100	0.549900	0.912400
H41	H4	0.613900	0.549900	0.875800
C151	C15	0.398700	0.525500	0.901100
C161	C16	0.210600	0.275400	0.868500
H51	H5	0.155800	0.295200	0.906000
C171	C17	0.296400	0.578200	0.105300
C181	C18	0.511600	0.575700	0.989100
H61	H6	0.585200	0.595800	0.013400
Dy31	Dy3	0.052390	0.086720	0.797950
O151	O15	0.793300	0.128360	0.695500
O161	O16	0.951000	0.163200	0.789500
O171	O17	0.955900	0.022700	0.717200
O181	O18	0.794900	0.965920	0.532600
O191	O19	0.873600	0.897000	0.344900
C191	C19	0.852800	0.010500	0.664700
C201	C20	0.805400	0.211200	0.696200
C211	C21	0.851200	0.164600	0.729900
O201	O20	0.661600	0.937400	0.380500
O211	O21	0.715400	0.026690	0.661900
C221	C22	0.869200	0.933800	0.477800
C231	C23	0.028100	0.950100	0.587600
H71	H7	0.113900	0.950100	0.624200
C241	C24	0.898700	0.974500	0.598900
C251	C25	0.710600	0.224600	0.631500
H81	H8	0.655800	0.204800	0.594000
C261	C26	0.796400	0.921800	0.394700
C271	C27	0.011600	0.924300	0.510900
H91	H9	0.085200	0.904200	0.486600
Dy41	Dy4	0.447610	0.913280	0.297950
O221	O22	0.706700	0.871640	0.195500
O231	O23	0.549000	0.836800	0.289500
O241	O24	0.544100	0.977300	0.217200
O251	O25	0.705100	0.034080	0.032600
O261	O26	0.626400	0.103000	0.844900
C281	C28	0.647200	0.989500	0.164700
C291	C29	0.694600	0.788800	0.196200
C301	C30	0.648800	0.835400	0.229900
O271	O27	0.838400	0.062600	0.880500
O281	O28	0.784600	0.973310	0.161900
C311	C31	0.630800	0.066200	0.977800
C321	C32	0.471900	0.049900	0.087600
H101	H10	0.386100	0.049900	0.124200
C331	C33	0.601300	0.025500	0.098900
C341	C34	0.789400	0.775400	0.131500
H111	H11	0.844200	0.795200	0.094000
C351	C35	0.703600	0.078200	0.894700
C361	C36	0.488400	0.075700	0.010900
H121	H12	0.414800	0.095800	0.986600
Dy51	Dy5	0.052390	0.413280	0.797950
O291	O29	0.793300	0.371640	0.695500
O301	O30	0.951000	0.336800	0.789500
O311	O31	0.955900	0.477300	0.717200
O321	O32	0.794900	0.534080	0.532600
O331	O33	0.873600	0.603000	0.344900
C371	C37	0.852800	0.489500	0.664700
C381	C38	0.805400	0.288800	0.696200
C391	C39	0.851200	0.335400	0.729900
O341	O34	0.661600	0.562600	0.380500
O351	O35	0.715400	0.473310	0.661900
C401	C40	0.869200	0.566200	0.477800
C411	C41	0.028100	0.549900	0.587600
H131	H13	0.113900	0.549900	0.624200
C421	C42	0.898700	0.525500	0.598900
C431	C43	0.710600	0.275400	0.631500
H141	H14	0.655800	0.295200	0.594000
C441	C44	0.796400	0.578200	0.394700
C451	C45	0.011600	0.575700	0.510900
H151	H15	0.085200	0.595800	0.486600
Dy61	Dy6	0.447610	0.586720	0.297950
O361	O36	0.706700	0.628360	0.195500
O371	O37	0.549000	0.663200	0.289500
O381	O38	0.544100	0.522700	0.217200
O391	O39	0.705100	0.465920	0.032600
O401	O40	0.626400	0.397000	0.844900
C461	C46	0.647200	0.510500	0.164700
C471	C47	0.694600	0.711200	0.196200
C481	C48	0.648800	0.664600	0.229900
O411	O41	0.838400	0.437400	0.880500
O421	O42	0.784600	0.526690	0.161900
C491	C49	0.630800	0.433800	0.977800
C501	C50	0.471900	0.450100	0.087600
H161	H16	0.386100	0.450100	0.124200
C511	C51	0.601300	0.474500	0.098900
C521	C52	0.789400	0.724600	0.131500
H171	H17	0.844200	0.704800	0.094000
C531	C53	0.703600	0.421800	0.894700
C541	C54	0.488400	0.424300	0.010900
H181	H18	0.414800	0.404200	0.986600
Dy71	Dy7	0.947610	0.913280	0.202050
O431	O43	0.206700	0.871640	0.304500
O441	O44	0.049000	0.836800	0.210500
O451	O45	0.044100	0.977300	0.282800
O461	O46	0.205100	0.034080	0.467400
O471	O47	0.126400	0.103000	0.655100
C551	C55	0.147200	0.989500	0.335300
C561	C56	0.194600	0.788800	0.303800
C571	C57	0.148800	0.835400	0.270100
O481	O48	0.338400	0.062600	0.619500
O491	O49	0.284600	0.973310	0.338100
C581	C58	0.130800	0.066200	0.522200
C591	C59	0.971900	0.049900	0.412400
H191	H19	0.886100	0.049900	0.375800
C601	C60	0.101300	0.025500	0.401100
C611	C61	0.289400	0.775400	0.368500
H201	H20	0.344200	0.795200	0.406000
C621	C62	0.203600	0.078200	0.605300
C631	C63	0.988400	0.075700	0.489100
H211	H21	0.914800	0.095800	0.513400
Dy81	Dy8	0.552390	0.086720	0.702050
O501	O50	0.293300	0.128360	0.804500
O511	O51	0.451000	0.163200	0.710500
O521	O52	0.455900	0.022700	0.782800
O531	O53	0.294900	0.965920	0.967400
O541	O54	0.373600	0.897000	0.155100
C641	C64	0.352800	0.010500	0.835300
C651	C65	0.305400	0.211200	0.803800
C661	C66	0.351200	0.164600	0.770100
O551	O55	0.161600	0.937400	0.119500
O561	O56	0.215400	0.026690	0.838100
C671	C67	0.369200	0.933800	0.022200
C681	C68	0.528100	0.950100	0.912400
H221	H22	0.613900	0.950100	0.875800
C691	C69	0.398700	0.974500	0.901100
C701	C70	0.210600	0.224600	0.868500
H231	H23	0.155800	0.204800	0.906000
C711	C71	0.296400	0.921800	0.105300
C721	C72	0.511600	0.924300	0.989100
H241	H24	0.585200	0.904200	0.013400
O571	O57	0.134800	0.750000	0.262500
O581	O58	0.365200	0.250000	0.762500
O591	O59	0.865200	0.250000	0.737500
O601	O60	0.634800	0.750000	0.237500
