data_RABHAZ_clean_PM
_symmetry_space_group_name_H-M	'P1'
_cell_length_a	7.762000
_cell_length_b	13.736000
_cell_length_c	22.014000
_cell_angle_alpha	90.000000
_cell_angle_beta	90.000000
_cell_angle_gamma	91.040000
_symmetry_Int_Tables_number 1

loop_
_symmetry_equiv_pos_as_xyz
'x,y,z'

loop_
_atom_site_label
_atom_site_type_symbol
_atom_site_fract_x
_atom_site_fract_y
_atom_site_fract_z
Cd11	Cd1	0.936840	0.828560	0.798040
Cd21	Cd2	0.063160	0.671440	0.298040
Cd31	Cd3	0.063160	0.171440	0.201960
Cd41	Cd4	0.936840	0.328560	0.701960
Ni11	Ni1	0.436350	0.576930	0.767790
Ni21	Ni2	0.563650	0.923070	0.267790
Ni31	Ni3	0.563650	0.423070	0.232210
Ni41	Ni4	0.436350	0.076930	0.732210
H11	H1	0.944480	0.839380	0.672050
H21	H2	0.122700	0.788130	0.693470
H31	H3	0.789790	0.702290	0.668230
H41	H4	0.943510	0.641910	0.715420
H51	H5	0.153060	0.647570	0.631950
H61	H6	0.958960	0.580990	0.613210
H71	H7	0.079270	0.778690	0.566560
H81	H8	0.864520	0.730850	0.555810
H91	H9	0.989600	0.580940	0.509810
H101	H10	0.200410	0.635940	0.516730
H111	H11	0.906370	0.717710	0.440530
H121	H12	0.124080	0.763870	0.444530
H131	H13	0.977510	0.930630	0.903130
H141	H14	0.783060	0.883210	0.903410
H151	H15	0.055520	0.660620	0.172050
H161	H16	0.877300	0.711870	0.193470
H171	H17	0.210210	0.797710	0.168230
H181	H18	0.056490	0.858090	0.215420
H191	H19	0.846940	0.852430	0.131950
H201	H20	0.041040	0.919010	0.113210
H211	H21	0.920730	0.721310	0.066560
H221	H22	0.135480	0.769150	0.055810
H231	H23	0.010400	0.919060	0.009810
H241	H24	0.799590	0.864060	0.016730
H251	H25	0.093630	0.782290	0.940530
H261	H26	0.875920	0.736130	0.944530
H271	H27	0.022490	0.569370	0.403130
H281	H28	0.216940	0.616790	0.403410
H291	H29	0.055520	0.160620	0.327950
H301	H30	0.877300	0.211870	0.306530
H311	H31	0.210210	0.297710	0.331770
H321	H32	0.056490	0.358090	0.284580
H331	H33	0.846940	0.352430	0.368050
H341	H34	0.041040	0.419010	0.386790
H351	H35	0.920730	0.221310	0.433440
H361	H36	0.135480	0.269150	0.444190
H371	H37	0.010400	0.419060	0.490190
H381	H38	0.799590	0.364060	0.483270
H391	H39	0.093630	0.282290	0.559470
H401	H40	0.875920	0.236130	0.555470
H411	H41	0.022490	0.069370	0.096870
H421	H42	0.216940	0.116790	0.096590
H431	H43	0.944480	0.339380	0.827950
H441	H44	0.122700	0.288130	0.806530
H451	H45	0.789790	0.202290	0.831770
H461	H46	0.943510	0.141910	0.784580
H471	H47	0.153060	0.147570	0.868050
H481	H48	0.958960	0.080990	0.886790
H491	H49	0.079270	0.278690	0.933440
H501	H50	0.864520	0.230850	0.944190
H511	H51	0.989600	0.080940	0.990190
H521	H52	0.200410	0.135940	0.983270
H531	H53	0.906370	0.217710	0.059470
H541	H54	0.124080	0.263870	0.055470
H551	H55	0.977510	0.430630	0.596870
H561	H56	0.783060	0.383210	0.596590
C11	C1	0.604800	0.662300	0.793300
C21	C2	0.610600	0.995500	0.762300
C31	C3	0.267200	0.993200	0.761200
C41	C4	0.265500	0.159400	0.700800
C51	C5	0.927700	0.694500	0.678300
C61	C6	0.015000	0.653800	0.621700
C71	C7	0.999900	0.711700	0.563200
C81	C8	0.062800	0.650200	0.509800
C91	C9	0.041900	0.697900	0.446700
C101	C10	0.395200	0.837700	0.293300
C111	C11	0.389400	0.504500	0.262300
C121	C12	0.732800	0.506800	0.261200
C131	C13	0.734500	0.340600	0.200800
C141	C14	0.072300	0.805500	0.178300
C151	C15	0.985000	0.846200	0.121700
C161	C16	0.000100	0.788300	0.063200
C171	C17	0.937200	0.849800	0.009800
C181	C18	0.958100	0.802100	0.946700
C191	C19	0.395200	0.337700	0.206700
C201	C20	0.389400	0.004500	0.237700
C211	C21	0.732800	0.006800	0.238800
C221	C22	0.734500	0.840600	0.299200
C231	C23	0.072300	0.305500	0.321700
C241	C24	0.985000	0.346200	0.378300
C251	C25	0.000100	0.288300	0.436800
C261	C26	0.937200	0.349800	0.490200
C271	C27	0.958100	0.302100	0.553300
C281	C28	0.604800	0.162300	0.706700
C291	C29	0.610600	0.495500	0.737700
C301	C30	0.267200	0.493200	0.738800
C311	C31	0.265500	0.659400	0.799200
C321	C32	0.927700	0.194500	0.821700
C331	C33	0.015000	0.153800	0.878300
C341	C34	0.999900	0.211700	0.936800
C351	C35	0.062800	0.150200	0.990200
C361	C36	0.041900	0.197900	0.053300
N11	N1	0.709300	0.715800	0.807700
N21	N2	0.722700	0.946600	0.778600
N31	N3	0.162200	0.944700	0.781000
N41	N4	0.160200	0.709700	0.817900
N51	N5	0.994700	0.788100	0.698600
N61	N6	0.907900	0.869400	0.897100
N71	N7	0.290700	0.784200	0.307700
N81	N8	0.277300	0.553400	0.278600
N91	N9	0.837800	0.555300	0.281000
N101	N10	0.839800	0.790300	0.317900
N111	N11	0.005300	0.711900	0.198600
N121	N12	0.092100	0.630600	0.397100
N131	N13	0.290700	0.284200	0.192300
N141	N14	0.277300	0.053400	0.221400
N151	N15	0.837800	0.055300	0.219000
N161	N16	0.839800	0.290300	0.182100
N171	N17	0.005300	0.211900	0.301400
N181	N18	0.092100	0.130600	0.102900
N191	N19	0.709300	0.215800	0.692300
N201	N20	0.722700	0.446600	0.721400
N211	N21	0.162200	0.444700	0.719000
N221	N22	0.160200	0.209700	0.682100
N231	N23	0.994700	0.288100	0.801400
N241	N24	0.907900	0.369400	0.602900
