data_RAFNUH01_clean_PM
_symmetry_space_group_name_H-M	'P1'
_cell_length_a	24.860600
_cell_length_b	24.860600
_cell_length_c	4.801600
_cell_angle_alpha	90.000000
_cell_angle_beta	90.000000
_cell_angle_gamma	90.000000
_symmetry_Int_Tables_number 1

loop_
_symmetry_equiv_pos_as_xyz
'x,y,z'

loop_
_atom_site_label
_atom_site_type_symbol
_atom_site_fract_x
_atom_site_fract_y
_atom_site_fract_z
N11	N1	0.031800	0.931800	0.768800
C11	C1	0.036800	0.856000	0.133500
C21	C2	0.085300	0.835400	0.232000
H11	H1	0.118400	0.850200	0.169800
C31	C3	0.085100	0.793900	0.418800
H21	H2	0.118500	0.779400	0.478000
C41	C4	0.038700	0.772400	0.523700
C51	C5	0.991300	0.794400	0.423500
H31	H3	0.958100	0.780800	0.492800
C61	C6	0.989800	0.834400	0.231000
H41	H4	0.956300	0.847300	0.164200
C71	C7	0.035000	0.898100	0.932300
N21	N2	0.531800	0.431800	0.268800
C81	C8	0.536800	0.356000	0.633500
C91	C9	0.585300	0.335400	0.732000
H51	H5	0.618400	0.350200	0.669800
C101	C10	0.585100	0.293900	0.918800
H61	H6	0.618500	0.279400	0.978000
C111	C11	0.538700	0.272400	0.023700
C121	C12	0.491300	0.294400	0.923500
H71	H7	0.458100	0.280800	0.992800
C131	C13	0.489800	0.334400	0.731000
H81	H8	0.456300	0.347300	0.664200
C141	C14	0.535000	0.398100	0.432300
N31	N3	0.968200	0.068200	0.768800
C151	C15	0.963200	0.144000	0.133500
C161	C16	0.914700	0.164600	0.232000
H91	H9	0.881600	0.149800	0.169800
C171	C17	0.914900	0.206100	0.418800
H101	H10	0.881500	0.220600	0.478000
C181	C18	0.961300	0.227600	0.523700
C191	C19	0.008700	0.205600	0.423500
H111	H11	0.041900	0.219200	0.492800
C201	C20	0.010200	0.165600	0.231000
H121	H12	0.043700	0.152700	0.164200
C211	C21	0.965000	0.101900	0.932300
N41	N4	0.468200	0.568200	0.268800
C221	C22	0.463200	0.644000	0.633500
C231	C23	0.414700	0.664600	0.732000
H131	H13	0.381600	0.649800	0.669800
C241	C24	0.414900	0.706100	0.918800
H141	H14	0.381500	0.720600	0.978000
C251	C25	0.461300	0.727600	0.023700
C261	C26	0.508700	0.705600	0.923500
H151	H15	0.541900	0.719200	0.992800
C271	C27	0.510200	0.665600	0.731000
H161	H16	0.543700	0.652700	0.664200
C281	C28	0.465000	0.601900	0.432300
N51	N5	0.931800	0.968200	0.231200
C291	C29	0.856000	0.963200	0.866500
C301	C30	0.835400	0.914700	0.768000
H171	H17	0.850200	0.881600	0.830200
C311	C31	0.793900	0.914900	0.581200
H181	H18	0.779400	0.881500	0.522000
C321	C32	0.772400	0.961300	0.476300
C331	C33	0.794400	0.008700	0.576500
H191	H19	0.780800	0.041900	0.507200
C341	C34	0.834400	0.010200	0.769000
H201	H20	0.847300	0.043700	0.835800
C351	C35	0.898100	0.965000	0.067700
N61	N6	0.431800	0.468200	0.731200
C361	C36	0.356000	0.463200	0.366500
C371	C37	0.335400	0.414700	0.268000
H211	H21	0.350200	0.381600	0.330200
C381	C38	0.293900	0.414900	0.081200
H221	H22	0.279400	0.381500	0.022000
C391	C39	0.272400	0.461300	0.976300
C401	C40	0.294400	0.508700	0.076500
H231	H23	0.280800	0.541900	0.007200
C411	C41	0.334400	0.510200	0.269000
H241	H24	0.347300	0.543700	0.335800
C421	C42	0.398100	0.465000	0.567700
N71	N7	0.068200	0.031800	0.231200
C431	C43	0.144000	0.036800	0.866500
C441	C44	0.164600	0.085300	0.768000
H251	H25	0.149800	0.118400	0.830200
C451	C45	0.206100	0.085100	0.581200
H261	H26	0.220600	0.118500	0.522000
C461	C46	0.227600	0.038700	0.476300
C471	C47	0.205600	0.991300	0.576500
H271	H27	0.219200	0.958100	0.507200
C481	C48	0.165600	0.989800	0.769000
H281	H28	0.152700	0.956300	0.835800
C491	C49	0.101900	0.035000	0.067700
N81	N8	0.568200	0.531800	0.731200
C501	C50	0.644000	0.536800	0.366500
C511	C51	0.664600	0.585300	0.268000
H291	H29	0.649800	0.618400	0.330200
C521	C52	0.706100	0.585100	0.081200
H301	H30	0.720600	0.618500	0.022000
C531	C53	0.727600	0.538700	0.976300
C541	C54	0.705600	0.491300	0.076500
H311	H31	0.719200	0.458100	0.007200
C551	C55	0.665600	0.489800	0.269000
H321	H32	0.652700	0.456300	0.335800
C561	C56	0.601900	0.535000	0.567700
N91	N9	0.468200	0.931800	0.981200
C571	C57	0.463200	0.856000	0.616500
C581	C58	0.414700	0.835400	0.518000
H331	H33	0.381600	0.850200	0.580200
C591	C59	0.414900	0.793900	0.331200
H341	H34	0.381500	0.779400	0.272000
C601	C60	0.461300	0.772400	0.226300
C611	C61	0.508700	0.794400	0.326500
H351	H35	0.541900	0.780800	0.257200
C621	C62	0.510200	0.834400	0.519000
H361	H36	0.543700	0.847300	0.585800
C631	C63	0.465000	0.898100	0.817700
N101	N10	0.968200	0.431800	0.481200
C641	C64	0.963200	0.356000	0.116500
C651	C65	0.914700	0.335400	0.018000
H371	H37	0.881600	0.350200	0.080200
C661	C66	0.914900	0.293900	0.831200
H381	H38	0.881500	0.279400	0.772000
C671	C67	0.961300	0.272400	0.726300
C681	C68	0.008700	0.294400	0.826500
H391	H39	0.041900	0.280800	0.757200
C691	C69	0.010200	0.334400	0.019000
H401	H40	0.043700	0.347300	0.085800
C701	C70	0.965000	0.398100	0.317700
N111	N11	0.531800	0.068200	0.981200
C711	C71	0.536800	0.144000	0.616500
C721	C72	0.585300	0.164600	0.518000
H411	H41	0.618400	0.149800	0.580200
C731	C73	0.585100	0.206100	0.331200
H421	H42	0.618500	0.220600	0.272000
C741	C74	0.538700	0.227600	0.226300
C751	C75	0.491300	0.205600	0.326500
H431	H43	0.458100	0.219200	0.257200
C761	C76	0.489800	0.165600	0.519000
H441	H44	0.456300	0.152700	0.585800
C771	C77	0.535000	0.101900	0.817700
N121	N12	0.031800	0.568200	0.481200
C781	C78	0.036800	0.644000	0.116500
C791	C79	0.085300	0.664600	0.018000
H451	H45	0.118400	0.649800	0.080200
C801	C80	0.085100	0.706100	0.831200
H461	H46	0.118500	0.720600	0.772000
C811	C81	0.038700	0.727600	0.726300
C821	C82	0.991300	0.705600	0.826500
H471	H47	0.958100	0.719200	0.757200
C831	C83	0.989800	0.665600	0.019000
H481	H48	0.956300	0.652700	0.085800
C841	C84	0.035000	0.601900	0.317700
N131	N13	0.568200	0.968200	0.518800
C851	C85	0.644000	0.963200	0.883500
C861	C86	0.664600	0.914700	0.982000
H491	H49	0.649800	0.881600	0.919800
C871	C87	0.706100	0.914900	0.168800
H501	H50	0.720600	0.881500	0.228000
C881	C88	0.727600	0.961300	0.273700
C891	C89	0.705600	0.008700	0.173500
H511	H51	0.719200	0.041900	0.242800
C901	C90	0.665600	0.010200	0.981000
H521	H52	0.652700	0.043700	0.914200
C911	C91	0.601900	0.965000	0.682300
N141	N14	0.068200	0.468200	0.018800
C921	C92	0.144000	0.463200	0.383500
C931	C93	0.164600	0.414700	0.482000
H531	H53	0.149800	0.381600	0.419800
C941	C94	0.206100	0.414900	0.668800
H541	H54	0.220600	0.381500	0.728000
C951	C95	0.227600	0.461300	0.773700
C961	C96	0.205600	0.508700	0.673500
H551	H55	0.219200	0.541900	0.742800
C971	C97	0.165600	0.510200	0.481000
H561	H56	0.152700	0.543700	0.414200
C981	C98	0.101900	0.465000	0.182300
N151	N15	0.431800	0.031800	0.518800
C991	C99	0.356000	0.036800	0.883500
C1001	C100	0.335400	0.085300	0.982000
H571	H57	0.350200	0.118400	0.919800
C1011	C101	0.293900	0.085100	0.168800
H581	H58	0.279400	0.118500	0.228000
C1021	C102	0.272400	0.038700	0.273700
C1031	C103	0.294400	0.991300	0.173500
H591	H59	0.280800	0.958100	0.242800
C1041	C104	0.334400	0.989800	0.981000
H601	H60	0.347300	0.956300	0.914200
C1051	C105	0.398100	0.035000	0.682300
N161	N16	0.931800	0.531800	0.018800
C1061	C106	0.856000	0.536800	0.383500
C1071	C107	0.835400	0.585300	0.482000
H611	H61	0.850200	0.618400	0.419800
C1081	C108	0.793900	0.585100	0.668800
H621	H62	0.779400	0.618500	0.728000
C1091	C109	0.772400	0.538700	0.773700
C1101	C110	0.794400	0.491300	0.673500
H631	H63	0.780800	0.458100	0.742800
C1111	C111	0.834400	0.489800	0.481000
H641	H64	0.847300	0.456300	0.414200
C1121	C112	0.898100	0.535000	0.182300
Ag11	Ag1	0.000000	0.000000	0.500000
Ag21	Ag2	0.500000	0.500000	0.000000
Ag31	Ag3	0.500000	0.000000	0.250000
Ag41	Ag4	0.000000	0.500000	0.750000
