data_RAFNIV_clean_PM
_symmetry_space_group_name_H-M	'P1'
_cell_length_a	5.701800
_cell_length_b	21.661200
_cell_length_c	21.568700
_cell_angle_alpha	89.976000
_cell_angle_beta	89.992000
_cell_angle_gamma	89.989000
_symmetry_Int_Tables_number 1

loop_
_symmetry_equiv_pos_as_xyz
'x,y,z'

loop_
_atom_site_label
_atom_site_type_symbol
_atom_site_fract_x
_atom_site_fract_y
_atom_site_fract_z
Ag11	Ag1	0.869440	0.000600	0.249840
N11	N1	0.595200	0.921600	0.249600
N21	N2	0.608400	0.076600	0.250000
N31	N3	0.141100	0.002700	0.171900
N41	N4	0.140000	0.002900	0.329800
C11	C1	0.230600	0.851600	0.249300
C21	C2	0.131900	0.832200	0.193700
H11	H1	0.194100	0.846500	0.155400
C31	C3	0.942200	0.791900	0.194100
H21	H2	0.874700	0.778700	0.156100
C41	C4	0.851200	0.771000	0.250000
C51	C5	0.949800	0.790400	0.305700
H31	H3	0.887600	0.776100	0.343900
C61	C6	0.139600	0.830700	0.305300
H41	H4	0.207000	0.843900	0.343300
C71	C7	0.431700	0.890400	0.249800
C81	C8	0.236800	0.147600	0.250100
C91	C9	0.141400	0.167700	0.194300
H51	H5	0.207200	0.154200	0.156100
C101	C10	0.949900	0.207400	0.194300
H61	H6	0.884700	0.221100	0.156200
C111	C11	0.853700	0.227000	0.250200
C121	C12	0.949000	0.206900	0.305900
H71	H7	0.883300	0.220300	0.344100
C131	C13	0.140600	0.167200	0.305900
H81	H8	0.205700	0.153500	0.344000
C141	C14	0.449000	0.107000	0.250500
C151	C15	0.514500	0.001900	0.102700
C161	C16	0.609400	0.057100	0.081300
H91	H9	0.543400	0.095300	0.094000
C171	C17	0.800800	0.056200	0.041400
H101	H10	0.865600	0.093900	0.026800
C181	C18	0.897300	0.000300	0.022900
C191	C19	0.802500	0.945100	0.044300
H111	H11	0.868400	0.906900	0.031700
C201	C20	0.611000	0.945900	0.084200
H121	H12	0.546200	0.908300	0.098900
C211	C21	0.313100	0.001600	0.140900
C221	C22	0.516700	0.002100	0.397000
C231	C23	0.611900	0.946200	0.416200
H131	H13	0.546700	0.908500	0.401800
C241	C24	0.802500	0.945500	0.456300
H141	H14	0.867500	0.907300	0.469400
C251	C25	0.897900	0.000700	0.477400
C261	C26	0.802700	0.056600	0.458200
H151	H15	0.867900	0.094300	0.472600
C271	C27	0.612100	0.057300	0.418000
H161	H16	0.547100	0.095600	0.404900
C281	C28	0.308700	0.000900	0.359900
Ag21	Ag2	0.369440	0.500600	0.749840
N51	N5	0.095200	0.421600	0.749600
N61	N6	0.108400	0.576600	0.750000
N71	N7	0.641100	0.502700	0.671900
N81	N8	0.640000	0.502900	0.829800
C291	C29	0.730600	0.351600	0.749300
C301	C30	0.631900	0.332200	0.693700
H171	H17	0.694100	0.346500	0.655400
C311	C31	0.442200	0.291900	0.694100
H181	H18	0.374700	0.278700	0.656100
C321	C32	0.351200	0.271000	0.750000
C331	C33	0.449800	0.290400	0.805700
H191	H19	0.387600	0.276100	0.843900
C341	C34	0.639600	0.330700	0.805300
H201	H20	0.707000	0.343900	0.843300
C351	C35	0.931700	0.390400	0.749800
C361	C36	0.736800	0.647600	0.750100
C371	C37	0.641400	0.667700	0.694300
H211	H21	0.707200	0.654200	0.656100
C381	C38	0.449900	0.707400	0.694300
H221	H22	0.384700	0.721100	0.656200
C391	C39	0.353700	0.727000	0.750200
C401	C40	0.449000	0.706900	0.805900
H231	H23	0.383300	0.720300	0.844100
C411	C41	0.640600	0.667200	0.805900
H241	H24	0.705700	0.653500	0.844000
C421	C42	0.949000	0.607000	0.750500
C431	C43	0.014500	0.501900	0.602700
C441	C44	0.109400	0.557100	0.581300
H251	H25	0.043400	0.595300	0.594000
C451	C45	0.300800	0.556200	0.541400
H261	H26	0.365600	0.593900	0.526800
C461	C46	0.397300	0.500300	0.522900
C471	C47	0.302500	0.445100	0.544300
H271	H27	0.368400	0.406900	0.531700
C481	C48	0.111000	0.445900	0.584200
H281	H28	0.046200	0.408300	0.598900
C491	C49	0.813100	0.501600	0.640900
C501	C50	0.016700	0.502100	0.897000
C511	C51	0.111900	0.446200	0.916200
H291	H29	0.046700	0.408500	0.901800
C521	C52	0.302500	0.445500	0.956300
H301	H30	0.367500	0.407300	0.969400
C531	C53	0.397900	0.500700	0.977400
C541	C54	0.302700	0.556600	0.958200
H311	H31	0.367900	0.594300	0.972600
C551	C55	0.112100	0.557300	0.918000
H321	H32	0.047100	0.595600	0.904900
C561	C56	0.808700	0.500900	0.859900
Ag31	Ag3	0.130560	0.999400	0.750160
N91	N9	0.404800	0.078400	0.750400
N101	N10	0.391600	0.923400	0.750000
N111	N11	0.858900	0.997300	0.828100
N121	N12	0.860000	0.997100	0.670200
C571	C57	0.769400	0.148400	0.750700
C581	C58	0.868100	0.167800	0.806300
H331	H33	0.805900	0.153500	0.844600
C591	C59	0.057800	0.208100	0.805900
H341	H34	0.125300	0.221300	0.843900
C601	C60	0.148800	0.229000	0.750000
C611	C61	0.050200	0.209600	0.694300
H351	H35	0.112400	0.223900	0.656100
C621	C62	0.860400	0.169300	0.694700
H361	H36	0.793000	0.156100	0.656700
C631	C63	0.568300	0.109600	0.750200
C641	C64	0.763200	0.852400	0.749900
C651	C65	0.858600	0.832300	0.805700
H371	H37	0.792800	0.845800	0.843900
C661	C66	0.050100	0.792600	0.805700
H381	H38	0.115300	0.778900	0.843800
C671	C67	0.146300	0.773000	0.749800
C681	C68	0.051000	0.793100	0.694100
H391	H39	0.116700	0.779700	0.655900
C691	C69	0.859400	0.832800	0.694100
H401	H40	0.794300	0.846500	0.656000
C701	C70	0.551000	0.893000	0.749500
C711	C71	0.485500	0.998100	0.897300
C721	C72	0.390600	0.942900	0.918700
H411	H41	0.456600	0.904700	0.906000
C731	C73	0.199200	0.943800	0.958600
H421	H42	0.134400	0.906100	0.973200
C741	C74	0.102700	0.999700	0.977100
C751	C75	0.197500	0.054900	0.955700
H431	H43	0.131600	0.093100	0.968300
C761	C76	0.389000	0.054100	0.915800
H441	H44	0.453800	0.091700	0.901100
C771	C77	0.686900	0.998400	0.859100
C781	C78	0.483300	0.997900	0.603000
C791	C79	0.388100	0.053800	0.583800
H451	H45	0.453300	0.091500	0.598200
C801	C80	0.197500	0.054500	0.543700
H461	H46	0.132500	0.092700	0.530600
C811	C81	0.102100	0.999300	0.522600
C821	C82	0.197300	0.943400	0.541800
H471	H47	0.132100	0.905700	0.527400
C831	C83	0.387900	0.942700	0.582000
H481	H48	0.452900	0.904400	0.595100
C841	C84	0.691300	0.999100	0.640100
Ag41	Ag4	0.630560	0.499400	0.250160
N131	N13	0.904800	0.578400	0.250400
N141	N14	0.891600	0.423400	0.250000
N151	N15	0.358900	0.497300	0.328100
N161	N16	0.360000	0.497100	0.170200
C851	C85	0.269400	0.648400	0.250700
C861	C86	0.368100	0.667800	0.306300
H491	H49	0.305900	0.653500	0.344600
C871	C87	0.557800	0.708100	0.305900
H501	H50	0.625300	0.721300	0.343900
C881	C88	0.648800	0.729000	0.250000
C891	C89	0.550200	0.709600	0.194300
H511	H51	0.612400	0.723900	0.156100
C901	C90	0.360400	0.669300	0.194700
H521	H52	0.293000	0.656100	0.156700
C911	C91	0.068300	0.609600	0.250200
C921	C92	0.263200	0.352400	0.249900
C931	C93	0.358600	0.332300	0.305700
H531	H53	0.292800	0.345800	0.343900
C941	C94	0.550100	0.292600	0.305700
H541	H54	0.615300	0.278900	0.343800
C951	C95	0.646300	0.273000	0.249800
C961	C96	0.551000	0.293100	0.194100
H551	H55	0.616700	0.279700	0.155900
C971	C97	0.359400	0.332800	0.194100
H561	H56	0.294300	0.346500	0.156000
C981	C98	0.051000	0.393000	0.249500
C991	C99	0.985500	0.498100	0.397300
C1001	C100	0.890600	0.442900	0.418700
H571	H57	0.956600	0.404700	0.406000
C1011	C101	0.699200	0.443800	0.458600
H581	H58	0.634400	0.406100	0.473200
C1021	C102	0.602700	0.499700	0.477100
C1031	C103	0.697500	0.554900	0.455700
H591	H59	0.631600	0.593100	0.468300
C1041	C104	0.889000	0.554100	0.415800
H601	H60	0.953800	0.591700	0.401100
C1051	C105	0.186900	0.498400	0.359100
C1061	C106	0.983300	0.497900	0.103000
C1071	C107	0.888100	0.553800	0.083800
H611	H61	0.953300	0.591500	0.098200
C1081	C108	0.697500	0.554500	0.043700
H621	H62	0.632500	0.592700	0.030600
C1091	C109	0.602100	0.499300	0.022600
C1101	C110	0.697300	0.443400	0.041800
H631	H63	0.632100	0.405700	0.027400
C1111	C111	0.887900	0.442700	0.082000
H641	H64	0.952900	0.404400	0.095100
C1121	C112	0.191300	0.499100	0.140100
