data_RAGMOE_clean_PM
_symmetry_space_group_name_H-M	'P1'
_cell_length_a	16.181100
_cell_length_b	16.181100
_cell_length_c	30.477400
_cell_angle_alpha	90.000000
_cell_angle_beta	90.000000
_cell_angle_gamma	120.000000
_symmetry_Int_Tables_number 1

loop_
_symmetry_equiv_pos_as_xyz
'x,y,z'

loop_
_atom_site_label
_atom_site_type_symbol
_atom_site_fract_x
_atom_site_fract_y
_atom_site_fract_z
O11	O1	0.643100	0.123500	0.446780
O21	O2	0.972300	0.699300	0.239850
O31	O3	0.498400	0.102000	0.457730
C11	C1	0.621400	0.257100	0.440270
C21	C2	0.686000	0.449900	0.422620
N11	N1	0.719800	0.547800	0.413580
O41	O4	0.674700	0.789800	0.567720
O51	O5	0.682800	0.874600	0.509100
C31	C3	0.841000	0.597900	0.305930
H11	H1	0.831400	0.569100	0.278600
C41	C4	0.562800	0.296300	0.446750
H21	H2	0.501200	0.257700	0.457300
C51	C5	0.686200	0.586000	0.486790
H31	H3	0.685300	0.532300	0.498300
C61	C6	0.593900	0.390900	0.437870
H41	H4	0.553100	0.415100	0.442100
C71	C7	0.788400	0.594700	0.379990
C81	C8	0.714100	0.317100	0.425480
H51	H5	0.754800	0.292700	0.421200
C91	C9	0.698300	0.603400	0.441910
C101	C10	0.936200	0.728400	0.354490
H61	H6	0.990400	0.786900	0.360000
C111	C11	0.775300	0.552500	0.338520
H71	H7	0.721800	0.493300	0.333100
C121	C12	0.692700	0.680700	0.424870
H81	H8	0.695200	0.690200	0.394700
C131	C13	0.675400	0.647700	0.514340
H91	H9	0.667400	0.635400	0.544300
C141	C14	0.585800	0.154400	0.449130
C151	C15	0.869600	0.682800	0.387390
H101	H10	0.879300	0.711500	0.414800
C161	C16	0.992300	0.731100	0.276460
O61	O6	0.075900	0.799600	0.287130
H111	H11	0.141600	0.813700	0.289300
C171	C17	0.677200	0.803100	0.526610
C181	C18	0.746200	0.411900	0.417140
H121	H12	0.808700	0.451200	0.407800
C191	C19	0.922100	0.686900	0.313130
C201	C20	0.683500	0.742600	0.452490
H131	H13	0.681900	0.794900	0.440800
C211	C21	0.676500	0.728600	0.497560
O71	O7	0.876500	0.519600	0.113450
O81	O8	0.300700	0.273000	0.906520
O91	O9	0.898000	0.396400	0.124400
C221	C22	0.742900	0.364300	0.106940
C231	C23	0.550100	0.236100	0.089290
N21	N2	0.452200	0.172000	0.080250
O101	O10	0.210200	0.884900	0.234390
O111	O11	0.125400	0.808200	0.175770
C241	C24	0.402100	0.243100	0.972600
H141	H14	0.430900	0.262300	0.945270
C251	C25	0.703700	0.266500	0.113420
H151	H15	0.742300	0.243500	0.123970
C261	C26	0.414000	0.100200	0.153460
H161	H16	0.467700	0.153000	0.164970
C271	C27	0.609100	0.203000	0.104540
H171	H17	0.584900	0.138000	0.108770
C281	C28	0.405300	0.193700	0.046660
C291	C29	0.682900	0.397000	0.092150
H181	H18	0.707300	0.462100	0.087870
C301	C30	0.396600	0.094900	0.108580
C311	C31	0.271600	0.207800	0.021160
H191	H19	0.213100	0.203500	0.026670
C321	C32	0.447500	0.222800	0.005190
H201	H20	0.506700	0.228500	0.999770
C331	C33	0.319300	0.012000	0.091540
H211	H21	0.309800	0.005000	0.061370
C341	C34	0.352300	0.027700	0.181010
H221	H22	0.364600	0.032000	0.210970
C351	C35	0.845600	0.431400	0.115800
C361	C36	0.317200	0.186800	0.054060
H231	H23	0.288500	0.167800	0.081470
C371	C37	0.268900	0.261200	0.943130
O121	O12	0.200400	0.276300	0.953800
H241	H24	0.186300	0.327900	0.955970
C381	C38	0.196900	0.874100	0.193280
C391	C39	0.588100	0.334300	0.083810
H251	H25	0.548800	0.357500	0.074470
C401	C40	0.313100	0.235200	0.979800
C411	C41	0.257400	0.940900	0.119160
H261	H26	0.205100	0.887000	0.107470
C421	C42	0.271400	0.947900	0.164230
O131	O13	0.480400	0.356900	0.780110
O141	O14	0.727000	0.027700	0.573180
O151	O15	0.603600	0.501600	0.791060
C431	C43	0.635700	0.378600	0.773600
C441	C44	0.763900	0.314000	0.755950
N31	N3	0.828000	0.280200	0.746910
O161	O16	0.115100	0.325300	0.901050
O171	O17	0.191800	0.317200	0.842430
C451	C45	0.756900	0.159000	0.639260
H271	H27	0.737700	0.168600	0.611930
C461	C46	0.733500	0.437200	0.780080
H281	H28	0.756500	0.498800	0.790630
C471	C47	0.899800	0.313800	0.820120
H291	H29	0.847000	0.314700	0.831630
C481	C48	0.797000	0.406100	0.771200
H301	H30	0.862000	0.446900	0.775430
C491	C49	0.806300	0.211600	0.713320
C501	C50	0.603000	0.285900	0.758810
H311	H31	0.537900	0.245200	0.754530
C511	C51	0.905100	0.301700	0.775240
C521	C52	0.792200	0.063800	0.687820
H321	H32	0.796500	0.009600	0.693330
C531	C53	0.777200	0.224700	0.671850
H331	H33	0.771500	0.278200	0.666430
C541	C54	0.988000	0.307300	0.758200
H341	H34	0.995000	0.304800	0.728030
C551	C55	0.972300	0.324600	0.847670
H351	H35	0.968000	0.332600	0.877630
C561	C56	0.568600	0.414200	0.782460
C571	C57	0.813200	0.130400	0.720720
H361	H36	0.832200	0.120700	0.748130
C581	C58	0.738800	0.007700	0.609790
O181	O18	0.723700	0.924100	0.620460
H371	H37	0.672100	0.858400	0.622630
C591	C59	0.125900	0.322800	0.859940
C601	C60	0.665700	0.253800	0.750470
H381	H38	0.642500	0.191300	0.741130
C611	C61	0.764800	0.077900	0.646460
C621	C62	0.059100	0.316500	0.785820
H391	H39	0.113000	0.318100	0.774130
C631	C63	0.052100	0.323500	0.830890
O191	O19	0.356900	0.876500	0.446780
O201	O20	0.027700	0.300700	0.239850
O211	O21	0.501600	0.898000	0.457730
C641	C64	0.378600	0.742900	0.440270
C651	C65	0.314000	0.550100	0.422620
N41	N4	0.280200	0.452200	0.413580
O221	O22	0.325300	0.210200	0.567720
O231	O23	0.317200	0.125400	0.509100
C661	C66	0.159000	0.402100	0.305930
H401	H40	0.168600	0.430900	0.278600
C671	C67	0.437200	0.703700	0.446750
H411	H41	0.498800	0.742300	0.457300
C681	C68	0.313800	0.414000	0.486790
H421	H42	0.314700	0.467700	0.498300
C691	C69	0.406100	0.609100	0.437870
H431	H43	0.446900	0.584900	0.442100
C701	C70	0.211600	0.405300	0.379990
C711	C71	0.285900	0.682900	0.425480
H441	H44	0.245200	0.707300	0.421200
C721	C72	0.301700	0.396600	0.441910
C731	C73	0.063800	0.271600	0.354490
H451	H45	0.009600	0.213100	0.360000
C741	C74	0.224700	0.447500	0.338520
H461	H46	0.278200	0.506700	0.333100
C751	C75	0.307300	0.319300	0.424870
H471	H47	0.304800	0.309800	0.394700
C761	C76	0.324600	0.352300	0.514340
H481	H48	0.332600	0.364600	0.544300
C771	C77	0.414200	0.845600	0.449130
C781	C78	0.130400	0.317200	0.387390
H491	H49	0.120700	0.288500	0.414800
C791	C79	0.007700	0.268900	0.276460
O241	O24	0.924100	0.200400	0.287130
H501	H50	0.858400	0.186300	0.289300
C801	C80	0.322800	0.196900	0.526610
C811	C81	0.253800	0.588100	0.417140
H511	H51	0.191300	0.548800	0.407800
C821	C82	0.077900	0.313100	0.313130
C831	C83	0.316500	0.257400	0.452490
H521	H52	0.318100	0.205100	0.440800
C841	C84	0.323500	0.271400	0.497560
O251	O25	0.123500	0.480400	0.113450
O261	O26	0.699300	0.727000	0.906520
O271	O27	0.102000	0.603600	0.124400
C851	C85	0.257100	0.635700	0.106940
C861	C86	0.449900	0.763900	0.089290
N51	N5	0.547800	0.828000	0.080250
O281	O28	0.789800	0.115100	0.234390
O291	O29	0.874600	0.191800	0.175770
C871	C87	0.597900	0.756900	0.972600
H531	H53	0.569100	0.737700	0.945270
C881	C88	0.296300	0.733500	0.113420
H541	H54	0.257700	0.756500	0.123970
C891	C89	0.586000	0.899800	0.153460
H551	H55	0.532300	0.847000	0.164970
C901	C90	0.390900	0.797000	0.104540
H561	H56	0.415100	0.862000	0.108770
C911	C91	0.594700	0.806300	0.046660
C921	C92	0.317100	0.603000	0.092150
H571	H57	0.292700	0.537900	0.087870
C931	C93	0.603400	0.905100	0.108580
C941	C94	0.728400	0.792200	0.021160
H581	H58	0.786900	0.796500	0.026670
C951	C95	0.552500	0.777200	0.005190
H591	H59	0.493300	0.771500	0.999770
C961	C96	0.680700	0.988000	0.091540
H601	H60	0.690200	0.995000	0.061370
C971	C97	0.647700	0.972300	0.181010
H611	H61	0.635400	0.968000	0.210970
C981	C98	0.154400	0.568600	0.115800
C991	C99	0.682800	0.813200	0.054060
H621	H62	0.711500	0.832200	0.081470
C1001	C100	0.731100	0.738800	0.943130
O301	O30	0.799600	0.723700	0.953800
H631	H63	0.813700	0.672100	0.955970
C1011	C101	0.803100	0.125900	0.193280
C1021	C102	0.411900	0.665700	0.083810
H641	H64	0.451200	0.642500	0.074470
C1031	C103	0.686900	0.764800	0.979800
C1041	C104	0.742600	0.059100	0.119160
H651	H65	0.794900	0.113000	0.107470
C1051	C105	0.728600	0.052100	0.164230
O311	O31	0.519600	0.643100	0.780110
O321	O32	0.273000	0.972300	0.573180
O331	O33	0.396400	0.498400	0.791060
C1061	C106	0.364300	0.621400	0.773600
C1071	C107	0.236100	0.686000	0.755950
N61	N6	0.172000	0.719800	0.746910
O341	O34	0.884900	0.674700	0.901050
O351	O35	0.808200	0.682800	0.842430
C1081	C108	0.243100	0.841000	0.639260
H661	H66	0.262300	0.831400	0.611930
C1091	C109	0.266500	0.562800	0.780080
H671	H67	0.243500	0.501200	0.790630
C1101	C110	0.100200	0.686200	0.820120
H681	H68	0.153000	0.685300	0.831630
C1111	C111	0.203000	0.593900	0.771200
H691	H69	0.138000	0.553100	0.775430
C1121	C112	0.193700	0.788400	0.713320
C1131	C113	0.397000	0.714100	0.758810
H701	H70	0.462100	0.754800	0.754530
C1141	C114	0.094900	0.698300	0.775240
C1151	C115	0.207800	0.936200	0.687820
H711	H71	0.203500	0.990400	0.693330
C1161	C116	0.222800	0.775300	0.671850
H721	H72	0.228500	0.721800	0.666430
C1171	C117	0.012000	0.692700	0.758200
H731	H73	0.005000	0.695200	0.728030
C1181	C118	0.027700	0.675400	0.847670
H741	H74	0.032000	0.667400	0.877630
C1191	C119	0.431400	0.585800	0.782460
C1201	C120	0.186800	0.869600	0.720720
H751	H75	0.167800	0.879300	0.748130
C1211	C121	0.261200	0.992300	0.609790
O361	O36	0.276300	0.075900	0.620460
H761	H76	0.327900	0.141600	0.622630
C1221	C122	0.874100	0.677200	0.859940
C1231	C123	0.334300	0.746200	0.750470
H771	H77	0.357500	0.808700	0.741130
C1241	C124	0.235200	0.922100	0.646460
C1251	C125	0.940900	0.683500	0.785820
H781	H78	0.887000	0.681900	0.774130
C1261	C126	0.947900	0.676500	0.830890
O371	O37	0.123500	0.643100	0.219890
O381	O38	0.699300	0.972300	0.426820
O391	O39	0.102000	0.498400	0.208940
C1271	C127	0.257100	0.621400	0.226400
C1281	C128	0.449900	0.686000	0.244050
N71	N7	0.547800	0.719800	0.253090
O401	O40	0.789800	0.674700	0.098950
O411	O41	0.874600	0.682800	0.157570
C1291	C129	0.597900	0.841000	0.360740
H791	H79	0.569100	0.831400	0.388070
C1301	C130	0.296300	0.562800	0.219920
H801	H80	0.257700	0.501200	0.209370
C1311	C131	0.586000	0.686200	0.179880
H811	H81	0.532300	0.685300	0.168370
C1321	C132	0.390900	0.593900	0.228800
H821	H82	0.415100	0.553100	0.224570
C1331	C133	0.594700	0.788400	0.286680
C1341	C134	0.317100	0.714100	0.241190
H831	H83	0.292700	0.754800	0.245470
C1351	C135	0.603400	0.698300	0.224760
C1361	C136	0.728400	0.936200	0.312180
H841	H84	0.786900	0.990400	0.306670
C1371	C137	0.552500	0.775300	0.328150
H851	H85	0.493300	0.721800	0.333570
C1381	C138	0.680700	0.692700	0.241800
H861	H86	0.690200	0.695200	0.271970
C1391	C139	0.647700	0.675400	0.152330
H871	H87	0.635400	0.667400	0.122370
C1401	C140	0.154400	0.585800	0.217540
C1411	C141	0.682800	0.869600	0.279280
H881	H88	0.711500	0.879300	0.251870
C1421	C142	0.731100	0.992300	0.390210
O421	O42	0.799600	0.075900	0.379540
H891	H89	0.813700	0.141600	0.377370
C1431	C143	0.803100	0.677200	0.140060
C1441	C144	0.411900	0.746200	0.249530
H901	H90	0.451200	0.808700	0.258870
C1451	C145	0.686900	0.922100	0.353540
C1461	C146	0.742600	0.683500	0.214180
H911	H91	0.794900	0.681900	0.225870
C1471	C147	0.728600	0.676500	0.169110
O431	O43	0.519600	0.876500	0.553220
O441	O44	0.273000	0.300700	0.760150
O451	O45	0.396400	0.898000	0.542270
C1481	C148	0.364300	0.742900	0.559730
C1491	C149	0.236100	0.550100	0.577380
N81	N8	0.172000	0.452200	0.586420
O461	O46	0.884900	0.210200	0.432280
O471	O47	0.808200	0.125400	0.490900
C1501	C150	0.243100	0.402100	0.694070
H921	H92	0.262300	0.430900	0.721400
C1511	C151	0.266500	0.703700	0.553250
H931	H93	0.243500	0.742300	0.542700
C1521	C152	0.100200	0.414000	0.513210
H941	H94	0.153000	0.467700	0.501700
C1531	C153	0.203000	0.609100	0.562130
H951	H95	0.138000	0.584900	0.557900
C1541	C154	0.193700	0.405300	0.620010
C1551	C155	0.397000	0.682900	0.574520
H961	H96	0.462100	0.707300	0.578800
C1561	C156	0.094900	0.396600	0.558090
C1571	C157	0.207800	0.271600	0.645510
H971	H97	0.203500	0.213100	0.640000
C1581	C158	0.222800	0.447500	0.661480
H981	H98	0.228500	0.506700	0.666900
C1591	C159	0.012000	0.319300	0.575130
H991	H99	0.005000	0.309800	0.605300
C1601	C160	0.027700	0.352300	0.485660
H1001	H100	0.032000	0.364600	0.455700
C1611	C161	0.431400	0.845600	0.550870
C1621	C162	0.186800	0.317200	0.612610
H1011	H101	0.167800	0.288500	0.585200
C1631	C163	0.261200	0.268900	0.723540
O481	O48	0.276300	0.200400	0.712870
H1021	H102	0.327900	0.186300	0.710700
C1641	C164	0.874100	0.196900	0.473390
C1651	C165	0.334300	0.588100	0.582860
H1031	H103	0.357500	0.548800	0.592200
C1661	C166	0.235200	0.313100	0.686870
C1671	C167	0.940900	0.257400	0.547510
H1041	H104	0.887000	0.205100	0.559200
C1681	C168	0.947900	0.271400	0.502440
O491	O49	0.356900	0.480400	0.886550
O501	O50	0.027700	0.727000	0.093480
O511	O51	0.501600	0.603600	0.875600
C1691	C169	0.378600	0.635700	0.893060
C1701	C170	0.314000	0.763900	0.910710
N91	N9	0.280200	0.828000	0.919750
O521	O52	0.325300	0.115100	0.765610
O531	O53	0.317200	0.191800	0.824230
C1711	C171	0.159000	0.756900	0.027400
H1051	H105	0.168600	0.737700	0.054730
C1721	C172	0.437200	0.733500	0.886580
H1061	H106	0.498800	0.756500	0.876030
C1731	C173	0.313800	0.899800	0.846540
H1071	H107	0.314700	0.847000	0.835030
C1741	C174	0.406100	0.797000	0.895460
H1081	H108	0.446900	0.862000	0.891230
C1751	C175	0.211600	0.806300	0.953340
C1761	C176	0.285900	0.603000	0.907850
H1091	H109	0.245200	0.537900	0.912130
C1771	C177	0.301700	0.905100	0.891420
C1781	C178	0.063800	0.792200	0.978840
H1101	H110	0.009600	0.796500	0.973330
C1791	C179	0.224700	0.777200	0.994810
H1111	H111	0.278200	0.771500	0.000230
C1801	C180	0.307300	0.988000	0.908460
H1121	H112	0.304800	0.995000	0.938630
C1811	C181	0.324600	0.972300	0.818990
H1131	H113	0.332600	0.968000	0.789030
C1821	C182	0.414200	0.568600	0.884200
C1831	C183	0.130400	0.813200	0.945940
H1141	H114	0.120700	0.832200	0.918530
C1841	C184	0.007700	0.738800	0.056870
O541	O54	0.924100	0.723700	0.046200
H1151	H115	0.858400	0.672100	0.044030
C1851	C185	0.322800	0.125900	0.806720
C1861	C186	0.253800	0.665700	0.916190
H1161	H116	0.191300	0.642500	0.925530
C1871	C187	0.077900	0.764800	0.020200
C1881	C188	0.316500	0.059100	0.880840
H1171	H117	0.318100	0.113000	0.892530
C1891	C189	0.323500	0.052100	0.835770
O551	O55	0.876500	0.356900	0.219890
O561	O56	0.300700	0.027700	0.426820
O571	O57	0.898000	0.501600	0.208940
C1901	C190	0.742900	0.378600	0.226400
C1911	C191	0.550100	0.314000	0.244050
N101	N10	0.452200	0.280200	0.253090
O581	O58	0.210200	0.325300	0.098950
O591	O59	0.125400	0.317200	0.157570
C1921	C192	0.402100	0.159000	0.360740
H1181	H118	0.430900	0.168600	0.388070
C1931	C193	0.703700	0.437200	0.219920
H1191	H119	0.742300	0.498800	0.209370
C1941	C194	0.414000	0.313800	0.179880
H1201	H120	0.467700	0.314700	0.168370
C1951	C195	0.609100	0.406100	0.228800
H1211	H121	0.584900	0.446900	0.224570
C1961	C196	0.405300	0.211600	0.286680
C1971	C197	0.682900	0.285900	0.241190
H1221	H122	0.707300	0.245200	0.245470
C1981	C198	0.396600	0.301700	0.224760
C1991	C199	0.271600	0.063800	0.312180
H1231	H123	0.213100	0.009600	0.306670
C2001	C200	0.447500	0.224700	0.328150
H1241	H124	0.506700	0.278200	0.333570
C2011	C201	0.319300	0.307300	0.241800
H1251	H125	0.309800	0.304800	0.271970
C2021	C202	0.352300	0.324600	0.152330
H1261	H126	0.364600	0.332600	0.122370
C2031	C203	0.845600	0.414200	0.217540
C2041	C204	0.317200	0.130400	0.279280
H1271	H127	0.288500	0.120700	0.251870
C2051	C205	0.268900	0.007700	0.390210
O601	O60	0.200400	0.924100	0.379540
H1281	H128	0.186300	0.858400	0.377370
C2061	C206	0.196900	0.322800	0.140060
C2071	C207	0.588100	0.253800	0.249530
H1291	H129	0.548800	0.191300	0.258870
C2081	C208	0.313100	0.077900	0.353540
C2091	C209	0.257400	0.316500	0.214180
H1301	H130	0.205100	0.318100	0.225870
C2101	C210	0.271400	0.323500	0.169110
O611	O61	0.480400	0.123500	0.553220
O621	O62	0.727000	0.699300	0.760150
O631	O63	0.603600	0.102000	0.542270
C2111	C211	0.635700	0.257100	0.559730
C2121	C212	0.763900	0.449900	0.577380
N111	N11	0.828000	0.547800	0.586420
O641	O64	0.115100	0.789800	0.432280
O651	O65	0.191800	0.874600	0.490900
C2131	C213	0.756900	0.597900	0.694070
H1311	H131	0.737700	0.569100	0.721400
C2141	C214	0.733500	0.296300	0.553250
H1321	H132	0.756500	0.257700	0.542700
C2151	C215	0.899800	0.586000	0.513210
H1331	H133	0.847000	0.532300	0.501700
C2161	C216	0.797000	0.390900	0.562130
H1341	H134	0.862000	0.415100	0.557900
C2171	C217	0.806300	0.594700	0.620010
C2181	C218	0.603000	0.317100	0.574520
H1351	H135	0.537900	0.292700	0.578800
C2191	C219	0.905100	0.603400	0.558090
C2201	C220	0.792200	0.728400	0.645510
H1361	H136	0.796500	0.786900	0.640000
C2211	C221	0.777200	0.552500	0.661480
H1371	H137	0.771500	0.493300	0.666900
C2221	C222	0.988000	0.680700	0.575130
H1381	H138	0.995000	0.690200	0.605300
C2231	C223	0.972300	0.647700	0.485660
H1391	H139	0.968000	0.635400	0.455700
C2241	C224	0.568600	0.154400	0.550870
C2251	C225	0.813200	0.682800	0.612610
H1401	H140	0.832200	0.711500	0.585200
C2261	C226	0.738800	0.731100	0.723540
O661	O66	0.723700	0.799600	0.712870
H1411	H141	0.672100	0.813700	0.710700
C2271	C227	0.125900	0.803100	0.473390
C2281	C228	0.665700	0.411900	0.582860
H1421	H142	0.642500	0.451200	0.592200
C2291	C229	0.764800	0.686900	0.686870
C2301	C230	0.059100	0.742600	0.547510
H1431	H143	0.113000	0.794900	0.559200
C2311	C231	0.052100	0.728600	0.502440
O671	O67	0.643100	0.519600	0.886550
O681	O68	0.972300	0.273000	0.093480
O691	O69	0.498400	0.396400	0.875600
C2321	C232	0.621400	0.364300	0.893060
C2331	C233	0.686000	0.236100	0.910710
N121	N12	0.719800	0.172000	0.919750
O701	O70	0.674700	0.884900	0.765610
O711	O71	0.682800	0.808200	0.824230
C2341	C234	0.841000	0.243100	0.027400
H1441	H144	0.831400	0.262300	0.054730
C2351	C235	0.562800	0.266500	0.886580
H1451	H145	0.501200	0.243500	0.876030
C2361	C236	0.686200	0.100200	0.846540
H1461	H146	0.685300	0.153000	0.835030
C2371	C237	0.593900	0.203000	0.895460
H1471	H147	0.553100	0.138000	0.891230
C2381	C238	0.788400	0.193700	0.953340
C2391	C239	0.714100	0.397000	0.907850
H1481	H148	0.754800	0.462100	0.912130
C2401	C240	0.698300	0.094900	0.891420
C2411	C241	0.936200	0.207800	0.978840
H1491	H149	0.990400	0.203500	0.973330
C2421	C242	0.775300	0.222800	0.994810
H1501	H150	0.721800	0.228500	0.000230
C2431	C243	0.692700	0.012000	0.908460
H1511	H151	0.695200	0.005000	0.938630
C2441	C244	0.675400	0.027700	0.818990
H1521	H152	0.667400	0.032000	0.789030
C2451	C245	0.585800	0.431400	0.884200
C2461	C246	0.869600	0.186800	0.945940
H1531	H153	0.879300	0.167800	0.918530
C2471	C247	0.992300	0.261200	0.056870
O721	O72	0.075900	0.276300	0.046200
H1541	H154	0.141600	0.327900	0.044030
C2481	C248	0.677200	0.874100	0.806720
C2491	C249	0.746200	0.334300	0.916190
H1551	H155	0.808700	0.357500	0.925530
C2501	C250	0.922100	0.235200	0.020200
C2511	C251	0.683500	0.940900	0.880840
H1561	H156	0.681900	0.887000	0.892530
C2521	C252	0.676500	0.947900	0.835770
La11	La1	0.356660	0.000000	0.500000
La21	La2	0.000000	0.356660	0.166670
La31	La3	0.643340	0.643340	0.833330
La41	La4	0.643340	0.000000	0.500000
La51	La5	0.000000	0.643340	0.166670
La61	La6	0.356660	0.356660	0.833330
