data_RAJFAM_clean_PM
_symmetry_space_group_name_H-M	'P1'
_cell_length_a	18.373000
_cell_length_b	11.523000
_cell_length_c	11.034000
_cell_angle_alpha	90.000000
_cell_angle_beta	94.251000
_cell_angle_gamma	90.000000
_symmetry_Int_Tables_number 1

loop_
_symmetry_equiv_pos_as_xyz
'x,y,z'

loop_
_atom_site_label
_atom_site_type_symbol
_atom_site_fract_x
_atom_site_fract_y
_atom_site_fract_z
Co11	Co1	0.075300	0.930220	0.992850
C11	C1	0.128000	0.752200	0.165800
C21	C2	0.195400	0.687600	0.221000
C31	C3	0.200400	0.665100	0.346900
H11	H1	0.161400	0.688100	0.393600
C41	C4	0.259500	0.611400	0.403500
H21	H2	0.263300	0.597300	0.488600
C51	C5	0.313100	0.579100	0.331100
C61	C6	0.310500	0.601900	0.208500
C71	C7	0.249800	0.659100	0.149500
H31	H3	0.247200	0.676500	0.065100
N11	N1	0.377100	0.523800	0.361500
N21	N2	0.411500	0.513100	0.260000
N31	N3	0.372800	0.559500	0.166100
O11	O1	0.979600	0.913600	0.067600
H41	H4	0.957500	0.857200	0.038000
O21	O2	0.077700	0.767200	0.233500
O31	O3	0.130300	0.786200	0.057000
Co21	Co2	0.575300	0.430220	0.992850
C81	C8	0.628000	0.252200	0.165800
C91	C9	0.695400	0.187600	0.221000
C101	C10	0.700400	0.165100	0.346900
H51	H5	0.661400	0.188100	0.393600
C111	C11	0.759500	0.111400	0.403500
H61	H6	0.763300	0.097300	0.488600
C121	C12	0.813100	0.079100	0.331100
C131	C13	0.810500	0.101900	0.208500
C141	C14	0.749800	0.159100	0.149500
H71	H7	0.747200	0.176500	0.065100
N41	N4	0.877100	0.023800	0.361500
N51	N5	0.911500	0.013100	0.260000
N61	N6	0.872800	0.059500	0.166100
O41	O4	0.479600	0.413600	0.067600
H81	H8	0.457500	0.357200	0.038000
O51	O5	0.577700	0.267200	0.233500
O61	O6	0.630300	0.286200	0.057000
Co31	Co3	0.924700	0.930220	0.507150
C151	C15	0.872000	0.752200	0.334200
C161	C16	0.804600	0.687600	0.279000
C171	C17	0.799600	0.665100	0.153100
H91	H9	0.838600	0.688100	0.106400
C181	C18	0.740500	0.611400	0.096500
H101	H10	0.736700	0.597300	0.011400
C191	C19	0.686900	0.579100	0.168900
C201	C20	0.689500	0.601900	0.291500
C211	C21	0.750200	0.659100	0.350500
H111	H11	0.752800	0.676500	0.434900
N71	N7	0.622900	0.523800	0.138500
N81	N8	0.588500	0.513100	0.240000
N91	N9	0.627200	0.559500	0.333900
O71	O7	0.020400	0.913600	0.432400
H121	H12	0.042500	0.857200	0.462000
O81	O8	0.922300	0.767200	0.266500
O91	O9	0.869700	0.786200	0.443000
Co41	Co4	0.424700	0.430220	0.507150
C221	C22	0.372000	0.252200	0.334200
C231	C23	0.304600	0.187600	0.279000
C241	C24	0.299600	0.165100	0.153100
H131	H13	0.338600	0.188100	0.106400
C251	C25	0.240500	0.111400	0.096500
H141	H14	0.236700	0.097300	0.011400
C261	C26	0.186900	0.079100	0.168900
C271	C27	0.189500	0.101900	0.291500
C281	C28	0.250200	0.159100	0.350500
H151	H15	0.252800	0.176500	0.434900
N101	N10	0.122900	0.023800	0.138500
N111	N11	0.088500	0.013100	0.240000
N121	N12	0.127200	0.059500	0.333900
O101	O10	0.520400	0.413600	0.432400
H161	H16	0.542500	0.357200	0.462000
O111	O11	0.422300	0.267200	0.266500
O121	O12	0.369700	0.286200	0.443000
Co51	Co5	0.924700	0.069780	0.007150
C291	C29	0.872000	0.247800	0.834200
C301	C30	0.804600	0.312400	0.779000
C311	C31	0.799600	0.334900	0.653100
H171	H17	0.838600	0.311900	0.606400
C321	C32	0.740500	0.388600	0.596500
H181	H18	0.736700	0.402700	0.511400
C331	C33	0.686900	0.420900	0.668900
C341	C34	0.689500	0.398100	0.791500
C351	C35	0.750200	0.340900	0.850500
H191	H19	0.752800	0.323500	0.934900
N131	N13	0.622900	0.476200	0.638500
N141	N14	0.588500	0.486900	0.740000
N151	N15	0.627200	0.440500	0.833900
O131	O13	0.020400	0.086400	0.932400
H201	H20	0.042500	0.142800	0.962000
O141	O14	0.922300	0.232800	0.766500
O151	O15	0.869700	0.213800	0.943000
Co61	Co6	0.424700	0.569780	0.007150
C361	C36	0.372000	0.747800	0.834200
C371	C37	0.304600	0.812400	0.779000
C381	C38	0.299600	0.834900	0.653100
H211	H21	0.338600	0.811900	0.606400
C391	C39	0.240500	0.888600	0.596500
H221	H22	0.236700	0.902700	0.511400
C401	C40	0.186900	0.920900	0.668900
C411	C41	0.189500	0.898100	0.791500
C421	C42	0.250200	0.840900	0.850500
H231	H23	0.252800	0.823500	0.934900
N161	N16	0.122900	0.976200	0.638500
N171	N17	0.088500	0.986900	0.740000
N181	N18	0.127200	0.940500	0.833900
O161	O16	0.520400	0.586400	0.932400
H241	H24	0.542500	0.642800	0.962000
O171	O17	0.422300	0.732800	0.766500
O181	O18	0.369700	0.713800	0.943000
Co71	Co7	0.075300	0.069780	0.492850
C431	C43	0.128000	0.247800	0.665800
C441	C44	0.195400	0.312400	0.721000
C451	C45	0.200400	0.334900	0.846900
H251	H25	0.161400	0.311900	0.893600
C461	C46	0.259500	0.388600	0.903500
H261	H26	0.263300	0.402700	0.988600
C471	C47	0.313100	0.420900	0.831100
C481	C48	0.310500	0.398100	0.708500
C491	C49	0.249800	0.340900	0.649500
H271	H27	0.247200	0.323500	0.565100
N191	N19	0.377100	0.476200	0.861500
N201	N20	0.411500	0.486900	0.760000
N211	N21	0.372800	0.440500	0.666100
O191	O19	0.979600	0.086400	0.567600
H281	H28	0.957500	0.142800	0.538000
O201	O20	0.077700	0.232800	0.733500
O211	O21	0.130300	0.213800	0.557000
Co81	Co8	0.575300	0.569780	0.492850
C501	C50	0.628000	0.747800	0.665800
C511	C51	0.695400	0.812400	0.721000
C521	C52	0.700400	0.834900	0.846900
H291	H29	0.661400	0.811900	0.893600
C531	C53	0.759500	0.888600	0.903500
H301	H30	0.763300	0.902700	0.988600
C541	C54	0.813100	0.920900	0.831100
C551	C55	0.810500	0.898100	0.708500
C561	C56	0.749800	0.840900	0.649500
H311	H31	0.747200	0.823500	0.565100
N221	N22	0.877100	0.976200	0.861500
N231	N23	0.911500	0.986900	0.760000
N241	N24	0.872800	0.940500	0.666100
O221	O22	0.479600	0.586400	0.567600
H321	H32	0.457500	0.642800	0.538000
O231	O23	0.577700	0.732800	0.733500
O241	O24	0.630300	0.713800	0.557000
Co91	Co9	0.000000	0.895670	0.250000
Co101	Co10	0.500000	0.395670	0.250000
Co111	Co11	0.000000	0.104330	0.750000
Co121	Co12	0.500000	0.604330	0.750000
