data_RAJFAL_clean_PM
_symmetry_space_group_name_H-M	'P1'
_cell_length_a	9.824000
_cell_length_b	9.963000
_cell_length_c	10.150000
_cell_angle_alpha	74.044000
_cell_angle_beta	86.361000
_cell_angle_gamma	78.328000
_symmetry_Int_Tables_number 1

loop_
_symmetry_equiv_pos_as_xyz
'x,y,z'

loop_
_atom_site_label
_atom_site_type_symbol
_atom_site_fract_x
_atom_site_fract_y
_atom_site_fract_z
Ca11	Ca1	0.507840	0.879680	0.883470
Ca21	Ca2	0.492160	0.120320	0.116530
Ca31	Ca3	0.500000	0.000000	0.500000
H11	H1	0.308600	0.721200	0.527000
H21	H2	0.327600	0.314000	0.530400
H31	H3	0.488500	0.407300	0.842100
H41	H4	0.274000	0.416300	0.303600
H51	H5	0.135400	0.417300	0.390400
H61	H6	0.263800	0.535500	0.062400
H71	H7	0.131900	0.656900	0.869900
H81	H8	0.802600	0.740400	0.107700
H91	H9	0.931200	0.615000	0.298800
H101	H10	0.691400	0.278800	0.473000
H111	H11	0.672400	0.686000	0.469600
H121	H12	0.511500	0.592700	0.157900
H131	H13	0.726000	0.583700	0.696400
H141	H14	0.864600	0.582700	0.609600
H151	H15	0.736200	0.464500	0.937600
H161	H16	0.868100	0.343100	0.130100
H171	H17	0.197400	0.259600	0.892300
H181	H18	0.068800	0.385000	0.701200
C11	C1	0.448800	0.687000	0.753080
C21	C2	0.406100	0.580400	0.692180
C31	C3	0.334700	0.624700	0.569950
C41	C4	0.301800	0.524400	0.511150
C51	C5	0.345500	0.381000	0.571860
C61	C6	0.416600	0.337200	0.695930
C71	C7	0.444500	0.436700	0.757640
C81	C8	0.465300	0.182300	0.759240
C91	C9	0.191300	0.476900	0.327500
C101	C10	0.110000	0.560600	0.201200
C111	C11	0.170600	0.575000	0.071700
C121	C12	0.091400	0.648700	0.956400
C131	C13	0.952900	0.710300	0.967900
C141	C14	0.866000	0.785700	0.843000
C151	C15	0.894700	0.697900	0.098000
C161	C16	0.972100	0.623400	0.212500
C171	C17	0.551200	0.313000	0.246920
C181	C18	0.593900	0.419600	0.307820
C191	C19	0.665300	0.375300	0.430050
C201	C20	0.698200	0.475600	0.488850
C211	C21	0.654500	0.619000	0.428140
C221	C22	0.583400	0.662800	0.304070
C231	C23	0.555500	0.563300	0.242360
C241	C24	0.534700	0.817700	0.240760
C251	C25	0.808700	0.523100	0.672500
C261	C26	0.890000	0.439400	0.798800
C271	C27	0.829400	0.425000	0.928300
C281	C28	0.908600	0.351300	0.043600
C291	C29	0.047100	0.289700	0.032100
C301	C30	0.134000	0.214300	0.157000
C311	C31	0.105300	0.302100	0.902000
C321	C32	0.027900	0.376600	0.787500
O11	O1	0.923370	0.800000	0.727950
O21	O2	0.739030	0.831900	0.859160
O31	O3	0.229250	0.578040	0.390440
O41	O4	0.454130	0.810780	0.676150
O51	O5	0.479860	0.651210	0.876260
O61	O6	0.479420	0.096060	0.686080
O71	O7	0.492010	0.137590	0.885440
O81	O8	0.076630	0.200000	0.272050
O91	O9	0.260970	0.168100	0.140840
O101	O10	0.770750	0.421960	0.609560
O111	O11	0.545870	0.189220	0.323850
O121	O12	0.520140	0.348790	0.123740
O131	O13	0.520580	0.903940	0.313920
O141	O14	0.507990	0.862410	0.114560
