data_RAKCUC_clean_PM
_symmetry_space_group_name_H-M	'P1'
_cell_length_a	28.253000
_cell_length_b	13.852400
_cell_length_c	44.966000
_cell_angle_alpha	90.000000
_cell_angle_beta	90.000000
_cell_angle_gamma	90.000000
_symmetry_Int_Tables_number 1

loop_
_symmetry_equiv_pos_as_xyz
'x,y,z'

loop_
_atom_site_label
_atom_site_type_symbol
_atom_site_fract_x
_atom_site_fract_y
_atom_site_fract_z
C11	C1	0.047100	0.009600	0.537900
H11	H1	0.032500	0.043600	0.553800
C21	C2	0.057800	0.059100	0.511800
H21	H2	0.050200	0.125600	0.509900
C31	C3	0.079400	0.011300	0.488900
C41	C4	0.087500	0.914200	0.491800
H31	H3	0.101300	0.878300	0.476000
C51	C5	0.074900	0.868800	0.518600
H41	H4	0.079800	0.801200	0.520400
C61	C6	0.094200	0.063800	0.461900
C71	C7	0.098300	0.200800	0.435000
C81	C8	0.132800	0.066000	0.417500
C91	C9	0.083500	0.302900	0.430100
C101	C10	0.057900	0.349900	0.452200
H51	H5	0.051200	0.318300	0.470500
C111	C11	0.042600	0.442300	0.447300
H61	H6	0.025300	0.474200	0.462600
C121	C12	0.076400	0.444100	0.400800
H71	H7	0.084200	0.477800	0.383100
C131	C13	0.091800	0.350900	0.403900
H81	H8	0.108100	0.319700	0.388100
C141	C14	0.157500	0.013900	0.393500
C151	C15	0.182200	0.058600	0.371200
H91	H9	0.184400	0.127000	0.370800
C161	C16	0.203300	0.005400	0.349900
H101	H10	0.221400	0.037700	0.335100
C171	C17	0.176000	0.864200	0.369500
H111	H11	0.174000	0.795800	0.369000
C181	C18	0.153800	0.912100	0.392000
H121	H12	0.136100	0.877700	0.406500
C191	C19	0.311800	0.083200	0.766200
H131	H13	0.339300	0.098900	0.777400
C201	C20	0.317700	0.050000	0.737400
H141	H14	0.348400	0.043900	0.729100
C211	C21	0.278900	0.026100	0.721100
C221	C22	0.235000	0.032800	0.734600
H151	H15	0.207500	0.013600	0.724000
C231	C23	0.231100	0.067300	0.763300
H161	H16	0.200700	0.072200	0.772200
C241	C24	0.282300	0.995600	0.689300
C251	C25	0.324400	0.959500	0.648400
C261	C26	0.245500	0.959100	0.646500
C271	C27	0.370300	0.946200	0.633200
C281	C28	0.412500	0.957200	0.648400
H171	H17	0.412400	0.976900	0.668700
C291	C29	0.455400	0.939000	0.633800
H181	H18	0.484300	0.946500	0.644300
C301	C30	0.416400	0.904500	0.590600
H191	H19	0.417400	0.888300	0.570100
C311	C31	0.372300	0.920100	0.603800
H201	H20	0.344100	0.912600	0.592600
C321	C32	0.199600	0.942700	0.630200
C331	C33	0.199600	0.910400	0.601000
H211	H21	0.228400	0.901100	0.590500
C341	C34	0.156300	0.892200	0.587500
H221	H22	0.156200	0.869700	0.567500
C351	C35	0.115900	0.938300	0.629500
H231	H23	0.086600	0.949200	0.639300
C361	C36	0.156500	0.956900	0.644100
H241	H24	0.155500	0.979900	0.664000
I11	I1	0.987260	0.944050	0.611150
I21	I2	0.064670	0.674860	0.579990
I31	I3	0.193880	0.668110	0.310700
I41	I4	0.324050	0.824650	0.332410
I51	I5	0.068770	0.706150	0.373240
I61	I6	0.006250	0.700730	0.464570
N11	N1	0.056700	0.916300	0.541300
N21	N2	0.081600	0.156300	0.459700
N31	N3	0.125100	0.158800	0.413300
N41	N4	0.119000	0.014100	0.441000
N51	N5	0.051100	0.490000	0.421400
N61	N6	0.200000	0.908800	0.348600
N71	N7	0.270300	0.094200	0.778900
N81	N8	0.325000	0.983900	0.677600
N91	N9	0.286200	0.946100	0.632200
N101	N10	0.241200	0.983400	0.675200
N111	N11	0.456600	0.911300	0.605200
N121	N12	0.115500	0.904500	0.601100
Zn11	Zn1	0.052300	0.856020	0.583000
Zn21	Zn2	0.237220	0.828650	0.317530
Zn31	Zn3	0.021150	0.623400	0.413550
C371	C37	0.452900	0.990400	0.037900
H251	H25	0.467500	0.956400	0.053800
C381	C38	0.442200	0.940900	0.011800
H261	H26	0.449800	0.874400	0.009900
C391	C39	0.420600	0.988700	0.988900
C401	C40	0.412500	0.085800	0.991800
H271	H27	0.398700	0.121700	0.976000
C411	C41	0.425100	0.131200	0.018600
H281	H28	0.420200	0.198800	0.020400
C421	C42	0.405800	0.936200	0.961900
C431	C43	0.401700	0.799200	0.935000
C441	C44	0.367200	0.934000	0.917500
C451	C45	0.416500	0.697100	0.930100
C461	C46	0.442100	0.650100	0.952200
H291	H29	0.448800	0.681700	0.970500
C471	C47	0.457400	0.557700	0.947300
H301	H30	0.474700	0.525800	0.962600
C481	C48	0.423600	0.555900	0.900800
H311	H31	0.415800	0.522200	0.883100
C491	C49	0.408200	0.649100	0.903900
H321	H32	0.391900	0.680300	0.888100
C501	C50	0.342500	0.986100	0.893500
C511	C51	0.317800	0.941400	0.871200
H331	H33	0.315600	0.873000	0.870800
C521	C52	0.296700	0.994600	0.849900
H341	H34	0.278600	0.962300	0.835100
C531	C53	0.324000	0.135800	0.869500
H351	H35	0.326000	0.204200	0.869000
C541	C54	0.346200	0.087900	0.892000
H361	H36	0.363900	0.122300	0.906500
C551	C55	0.188200	0.916800	0.266200
H371	H37	0.160700	0.901100	0.277400
C561	C56	0.182300	0.950000	0.237400
H381	H38	0.151600	0.956100	0.229100
C571	C57	0.221100	0.973900	0.221100
C581	C58	0.265000	0.967200	0.234600
H391	H39	0.292500	0.986400	0.224000
C591	C59	0.268900	0.932700	0.263300
H401	H40	0.299300	0.927800	0.272200
C601	C60	0.217700	0.004400	0.189300
C611	C61	0.175600	0.040500	0.148400
C621	C62	0.254500	0.040900	0.146500
C631	C63	0.129700	0.053800	0.133200
C641	C64	0.087500	0.042800	0.148400
H411	H41	0.087600	0.023100	0.168700
C651	C65	0.044600	0.061000	0.133800
H421	H42	0.015700	0.053500	0.144300
C661	C66	0.083600	0.095500	0.090600
H431	H43	0.082600	0.111700	0.070100
C671	C67	0.127700	0.079900	0.103800
H441	H44	0.155900	0.087400	0.092600
C681	C68	0.300400	0.057300	0.130200
C691	C69	0.300400	0.089600	0.101000
H451	H45	0.271600	0.098900	0.090500
C701	C70	0.343700	0.107800	0.087500
H461	H46	0.343800	0.130300	0.067500
C711	C71	0.384100	0.061700	0.129500
H471	H47	0.413400	0.050800	0.139300
C721	C72	0.343500	0.043100	0.144100
H481	H48	0.344500	0.020100	0.164000
I71	I7	0.512740	0.055950	0.111150
I81	I8	0.435330	0.325140	0.079990
I91	I9	0.306120	0.331890	0.810700
I101	I10	0.175950	0.175350	0.832410
I111	I11	0.431230	0.293850	0.873240
I121	I12	0.493750	0.299270	0.964570
N131	N13	0.443300	0.083700	0.041300
N141	N14	0.418400	0.843700	0.959700
N151	N15	0.374900	0.841200	0.913300
N161	N16	0.381000	0.985900	0.941000
N171	N17	0.448900	0.510000	0.921400
N181	N18	0.300000	0.091200	0.848600
N191	N19	0.229700	0.905800	0.278900
N201	N20	0.175000	0.016100	0.177600
N211	N21	0.213800	0.053900	0.132200
N221	N22	0.258800	0.016600	0.175200
N231	N23	0.043400	0.088700	0.105200
N241	N24	0.384500	0.095500	0.101100
Zn41	Zn4	0.447700	0.143980	0.083000
Zn51	Zn5	0.262780	0.171350	0.817530
Zn61	Zn6	0.478850	0.376600	0.913550
C731	C73	0.952900	0.509600	0.962100
H491	H49	0.967500	0.543600	0.946200
C741	C74	0.942200	0.559100	0.988200
H501	H50	0.949800	0.625600	0.990100
C751	C75	0.920600	0.511300	0.011100
C761	C76	0.912500	0.414200	0.008200
H511	H51	0.898700	0.378300	0.024000
C771	C77	0.925100	0.368800	0.981400
H521	H52	0.920200	0.301200	0.979600
C781	C78	0.905800	0.563800	0.038100
C791	C79	0.901700	0.700800	0.065000
C801	C80	0.867200	0.566000	0.082500
C811	C81	0.916500	0.802900	0.069900
C821	C82	0.942100	0.849900	0.047800
H531	H53	0.948800	0.818300	0.029500
C831	C83	0.957400	0.942300	0.052700
H541	H54	0.974700	0.974200	0.037400
C841	C84	0.923600	0.944100	0.099200
H551	H55	0.915800	0.977800	0.116900
C851	C85	0.908200	0.850900	0.096100
H561	H56	0.891900	0.819700	0.111900
C861	C86	0.842500	0.513900	0.106500
C871	C87	0.817800	0.558600	0.128800
H571	H57	0.815600	0.627000	0.129200
C881	C88	0.796700	0.505400	0.150100
H581	H58	0.778600	0.537700	0.164900
C891	C89	0.824000	0.364200	0.130500
H591	H59	0.826000	0.295800	0.131000
C901	C90	0.846200	0.412100	0.108000
H601	H60	0.863900	0.377700	0.093500
C911	C91	0.688200	0.583200	0.733800
H611	H61	0.660700	0.598900	0.722600
C921	C92	0.682300	0.550000	0.762600
H621	H62	0.651600	0.543900	0.770900
C931	C93	0.721100	0.526100	0.778900
C941	C94	0.765000	0.532800	0.765400
H631	H63	0.792500	0.513600	0.776000
C951	C95	0.768900	0.567300	0.736700
H641	H64	0.799300	0.572200	0.727800
C961	C96	0.717700	0.495600	0.810700
C971	C97	0.675600	0.459500	0.851600
C981	C98	0.754500	0.459100	0.853500
C991	C99	0.629700	0.446200	0.866800
C1001	C100	0.587500	0.457200	0.851600
H651	H65	0.587600	0.476900	0.831300
C1011	C101	0.544600	0.439000	0.866200
H661	H66	0.515700	0.446500	0.855700
C1021	C102	0.583600	0.404500	0.909400
H671	H67	0.582600	0.388300	0.929900
C1031	C103	0.627700	0.420100	0.896200
H681	H68	0.655900	0.412600	0.907400
C1041	C104	0.800400	0.442700	0.869800
C1051	C105	0.800400	0.410400	0.899000
H691	H69	0.771600	0.401100	0.909500
C1061	C106	0.843700	0.392200	0.912500
H701	H70	0.843800	0.369700	0.932500
C1071	C107	0.884100	0.438300	0.870500
H711	H71	0.913400	0.449200	0.860700
C1081	C108	0.843500	0.456900	0.855900
H721	H72	0.844500	0.479900	0.836000
I131	I13	0.012740	0.444050	0.888850
I141	I14	0.935330	0.174860	0.920010
I151	I15	0.806120	0.168110	0.189300
I161	I16	0.675950	0.324650	0.167590
I171	I17	0.931230	0.206150	0.126760
I181	I18	0.993750	0.200730	0.035430
N251	N25	0.943300	0.416300	0.958700
N261	N26	0.918400	0.656300	0.040300
N271	N27	0.874900	0.658800	0.086700
N281	N28	0.881000	0.514100	0.059000
N291	N29	0.948900	0.990000	0.078600
N301	N30	0.800000	0.408800	0.151400
N311	N31	0.729700	0.594200	0.721100
N321	N32	0.675000	0.483900	0.822400
N331	N33	0.713800	0.446100	0.867800
N341	N34	0.758800	0.483400	0.824800
N351	N35	0.543400	0.411300	0.894800
N361	N36	0.884500	0.404500	0.898900
Zn71	Zn7	0.947700	0.356020	0.917000
Zn81	Zn8	0.762780	0.328650	0.182470
Zn91	Zn9	0.978850	0.123400	0.086450
C1091	C109	0.547100	0.490400	0.462100
H731	H73	0.532500	0.456400	0.446200
C1101	C110	0.557800	0.440900	0.488200
H741	H74	0.550200	0.374400	0.490100
C1111	C111	0.579400	0.488700	0.511100
C1121	C112	0.587500	0.585800	0.508200
H751	H75	0.601300	0.621700	0.524000
C1131	C113	0.574900	0.631200	0.481400
H761	H76	0.579800	0.698800	0.479600
C1141	C114	0.594200	0.436200	0.538100
C1151	C115	0.598300	0.299200	0.565000
C1161	C116	0.632800	0.434000	0.582500
C1171	C117	0.583500	0.197100	0.569900
C1181	C118	0.557900	0.150100	0.547800
H771	H77	0.551200	0.181700	0.529500
C1191	C119	0.542600	0.057700	0.552700
H781	H78	0.525300	0.025800	0.537400
C1201	C120	0.576400	0.055900	0.599200
H791	H79	0.584200	0.022200	0.616900
C1211	C121	0.591800	0.149100	0.596100
H801	H80	0.608100	0.180300	0.611900
C1221	C122	0.657500	0.486100	0.606500
C1231	C123	0.682200	0.441400	0.628800
H811	H81	0.684400	0.373000	0.629200
C1241	C124	0.703300	0.494600	0.650100
H821	H82	0.721400	0.462300	0.664900
C1251	C125	0.676000	0.635800	0.630500
H831	H83	0.674000	0.704200	0.631000
C1261	C126	0.653800	0.587900	0.608000
H841	H84	0.636100	0.622300	0.593500
C1271	C127	0.811800	0.416800	0.233800
H851	H85	0.839300	0.401100	0.222600
C1281	C128	0.817700	0.450000	0.262600
H861	H86	0.848400	0.456100	0.270900
C1291	C129	0.778900	0.473900	0.278900
C1301	C130	0.735000	0.467200	0.265400
H871	H87	0.707500	0.486400	0.276000
C1311	C131	0.731100	0.432700	0.236700
H881	H88	0.700700	0.427800	0.227800
C1321	C132	0.782300	0.504400	0.310700
C1331	C133	0.824400	0.540500	0.351600
C1341	C134	0.745500	0.540900	0.353500
C1351	C135	0.870300	0.553800	0.366800
C1361	C136	0.912500	0.542800	0.351600
H891	H89	0.912400	0.523100	0.331300
C1371	C137	0.955400	0.561000	0.366200
H901	H90	0.984300	0.553500	0.355700
C1381	C138	0.916400	0.595500	0.409400
H911	H91	0.917400	0.611700	0.429900
C1391	C139	0.872300	0.579900	0.396200
H921	H92	0.844100	0.587400	0.407400
C1401	C140	0.699600	0.557300	0.369800
C1411	C141	0.699600	0.589600	0.399000
H931	H93	0.728400	0.598900	0.409500
C1421	C142	0.656300	0.607800	0.412500
H941	H94	0.656200	0.630300	0.432500
C1431	C143	0.615900	0.561700	0.370500
H951	H95	0.586600	0.550800	0.360700
C1441	C144	0.656500	0.543100	0.355900
H961	H96	0.655500	0.520100	0.336000
I191	I19	0.487260	0.555950	0.388850
I201	I20	0.564670	0.825140	0.420010
I211	I21	0.693880	0.831890	0.689300
I221	I22	0.824050	0.675350	0.667590
I231	I23	0.568770	0.793850	0.626760
I241	I24	0.506250	0.799270	0.535430
N371	N37	0.556700	0.583700	0.458700
N381	N38	0.581600	0.343700	0.540300
N391	N39	0.625100	0.341200	0.586700
N401	N40	0.619000	0.485900	0.559000
N411	N41	0.551100	0.010000	0.578600
N421	N42	0.700000	0.591200	0.651400
N431	N43	0.770300	0.405800	0.221100
N441	N44	0.825000	0.516100	0.322400
N451	N45	0.786200	0.553900	0.367800
N461	N46	0.741200	0.516600	0.324800
N471	N47	0.956600	0.588700	0.394800
N481	N48	0.615500	0.595500	0.398900
Zn101	Zn10	0.552300	0.643980	0.417000
Zn111	Zn11	0.737220	0.671350	0.682470
Zn121	Zn12	0.521150	0.876600	0.586450
C1451	C145	0.952900	0.990400	0.462100
H971	H97	0.967500	0.956400	0.446200
C1461	C146	0.942200	0.940900	0.488200
H981	H98	0.949800	0.874400	0.490100
C1471	C147	0.920600	0.988700	0.511100
C1481	C148	0.912500	0.085800	0.508200
H991	H99	0.898700	0.121700	0.524000
C1491	C149	0.925100	0.131200	0.481400
H1001	H100	0.920200	0.198800	0.479600
C1501	C150	0.905800	0.936200	0.538100
C1511	C151	0.901700	0.799200	0.565000
C1521	C152	0.867200	0.934000	0.582500
C1531	C153	0.916500	0.697100	0.569900
C1541	C154	0.942100	0.650100	0.547800
H1011	H101	0.948800	0.681700	0.529500
C1551	C155	0.957400	0.557700	0.552700
H1021	H102	0.974700	0.525800	0.537400
C1561	C156	0.923600	0.555900	0.599200
H1031	H103	0.915800	0.522200	0.616900
C1571	C157	0.908200	0.649100	0.596100
H1041	H104	0.891900	0.680300	0.611900
C1581	C158	0.842500	0.986100	0.606500
C1591	C159	0.817800	0.941400	0.628800
H1051	H105	0.815600	0.873000	0.629200
C1601	C160	0.796700	0.994600	0.650100
H1061	H106	0.778600	0.962300	0.664900
C1611	C161	0.824000	0.135800	0.630500
H1071	H107	0.826000	0.204200	0.631000
C1621	C162	0.846200	0.087900	0.608000
H1081	H108	0.863900	0.122300	0.593500
C1631	C163	0.688200	0.916800	0.233800
H1091	H109	0.660700	0.901100	0.222600
C1641	C164	0.682300	0.950000	0.262600
H1101	H110	0.651600	0.956100	0.270900
C1651	C165	0.721100	0.973900	0.278900
C1661	C166	0.765000	0.967200	0.265400
H1111	H111	0.792500	0.986400	0.276000
C1671	C167	0.768900	0.932700	0.236700
H1121	H112	0.799300	0.927800	0.227800
C1681	C168	0.717700	0.004400	0.310700
C1691	C169	0.675600	0.040500	0.351600
C1701	C170	0.754500	0.040900	0.353500
C1711	C171	0.629700	0.053800	0.366800
C1721	C172	0.587500	0.042800	0.351600
H1131	H113	0.587600	0.023100	0.331300
C1731	C173	0.544600	0.061000	0.366200
H1141	H114	0.515700	0.053500	0.355700
C1741	C174	0.583600	0.095500	0.409400
H1151	H115	0.582600	0.111700	0.429900
C1751	C175	0.627700	0.079900	0.396200
H1161	H116	0.655900	0.087400	0.407400
C1761	C176	0.800400	0.057300	0.369800
C1771	C177	0.800400	0.089600	0.399000
H1171	H117	0.771600	0.098900	0.409500
C1781	C178	0.843700	0.107800	0.412500
H1181	H118	0.843800	0.130300	0.432500
C1791	C179	0.884100	0.061700	0.370500
H1191	H119	0.913400	0.050800	0.360700
C1801	C180	0.843500	0.043100	0.355900
H1201	H120	0.844500	0.020100	0.336000
I251	I25	0.012740	0.055950	0.388850
I261	I26	0.935330	0.325140	0.420010
I271	I27	0.806120	0.331890	0.689300
I281	I28	0.675950	0.175350	0.667590
I291	I29	0.931230	0.293850	0.626760
I301	I30	0.993750	0.299270	0.535430
N491	N49	0.943300	0.083700	0.458700
N501	N50	0.918400	0.843700	0.540300
N511	N51	0.874900	0.841200	0.586700
N521	N52	0.881000	0.985900	0.559000
N531	N53	0.948900	0.510000	0.578600
N541	N54	0.800000	0.091200	0.651400
N551	N55	0.729700	0.905800	0.221100
N561	N56	0.675000	0.016100	0.322400
N571	N57	0.713800	0.053900	0.367800
N581	N58	0.758800	0.016600	0.324800
N591	N59	0.543400	0.088700	0.394800
N601	N60	0.884500	0.095500	0.398900
Zn131	Zn13	0.947700	0.143980	0.417000
Zn141	Zn14	0.762780	0.171350	0.682470
Zn151	Zn15	0.978850	0.376600	0.586450
C1811	C181	0.547100	0.009600	0.962100
H1211	H121	0.532500	0.043600	0.946200
C1821	C182	0.557800	0.059100	0.988200
H1221	H122	0.550200	0.125600	0.990100
C1831	C183	0.579400	0.011300	0.011100
C1841	C184	0.587500	0.914200	0.008200
H1231	H123	0.601300	0.878300	0.024000
C1851	C185	0.574900	0.868800	0.981400
H1241	H124	0.579800	0.801200	0.979600
C1861	C186	0.594200	0.063800	0.038100
C1871	C187	0.598300	0.200800	0.065000
C1881	C188	0.632800	0.066000	0.082500
C1891	C189	0.583500	0.302900	0.069900
C1901	C190	0.557900	0.349900	0.047800
H1251	H125	0.551200	0.318300	0.029500
C1911	C191	0.542600	0.442300	0.052700
H1261	H126	0.525300	0.474200	0.037400
C1921	C192	0.576400	0.444100	0.099200
H1271	H127	0.584200	0.477800	0.116900
C1931	C193	0.591800	0.350900	0.096100
H1281	H128	0.608100	0.319700	0.111900
C1941	C194	0.657500	0.013900	0.106500
C1951	C195	0.682200	0.058600	0.128800
H1291	H129	0.684400	0.127000	0.129200
C1961	C196	0.703300	0.005400	0.150100
H1301	H130	0.721400	0.037700	0.164900
C1971	C197	0.676000	0.864200	0.130500
H1311	H131	0.674000	0.795800	0.131000
C1981	C198	0.653800	0.912100	0.108000
H1321	H132	0.636100	0.877700	0.093500
C1991	C199	0.811800	0.083200	0.733800
H1331	H133	0.839300	0.098900	0.722600
C2001	C200	0.817700	0.050000	0.762600
H1341	H134	0.848400	0.043900	0.770900
C2011	C201	0.778900	0.026100	0.778900
C2021	C202	0.735000	0.032800	0.765400
H1351	H135	0.707500	0.013600	0.776000
C2031	C203	0.731100	0.067300	0.736700
H1361	H136	0.700700	0.072200	0.727800
C2041	C204	0.782300	0.995600	0.810700
C2051	C205	0.824400	0.959500	0.851600
C2061	C206	0.745500	0.959100	0.853500
C2071	C207	0.870300	0.946200	0.866800
C2081	C208	0.912500	0.957200	0.851600
H1371	H137	0.912400	0.976900	0.831300
C2091	C209	0.955400	0.939000	0.866200
H1381	H138	0.984300	0.946500	0.855700
C2101	C210	0.916400	0.904500	0.909400
H1391	H139	0.917400	0.888300	0.929900
C2111	C211	0.872300	0.920100	0.896200
H1401	H140	0.844100	0.912600	0.907400
C2121	C212	0.699600	0.942700	0.869800
C2131	C213	0.699600	0.910400	0.899000
H1411	H141	0.728400	0.901100	0.909500
C2141	C214	0.656300	0.892200	0.912500
H1421	H142	0.656200	0.869700	0.932500
C2151	C215	0.615900	0.938300	0.870500
H1431	H143	0.586600	0.949200	0.860700
C2161	C216	0.656500	0.956900	0.855900
H1441	H144	0.655500	0.979900	0.836000
I311	I31	0.487260	0.944050	0.888850
I321	I32	0.564670	0.674860	0.920010
I331	I33	0.693880	0.668110	0.189300
I341	I34	0.824050	0.824650	0.167590
I351	I35	0.568770	0.706150	0.126760
I361	I36	0.506250	0.700730	0.035430
N611	N61	0.556700	0.916300	0.958700
N621	N62	0.581600	0.156300	0.040300
N631	N63	0.625100	0.158800	0.086700
N641	N64	0.619000	0.014100	0.059000
N651	N65	0.551100	0.490000	0.078600
N661	N66	0.700000	0.908800	0.151400
N671	N67	0.770300	0.094200	0.721100
N681	N68	0.825000	0.983900	0.822400
N691	N69	0.786200	0.946100	0.867800
N701	N70	0.741200	0.983400	0.824800
N711	N71	0.956600	0.911300	0.894800
N721	N72	0.615500	0.904500	0.898900
Zn161	Zn16	0.552300	0.856020	0.917000
Zn171	Zn17	0.737220	0.828650	0.182470
Zn181	Zn18	0.521150	0.623400	0.086450
C2171	C217	0.047100	0.490400	0.037900
H1451	H145	0.032500	0.456400	0.053800
C2181	C218	0.057800	0.440900	0.011800
H1461	H146	0.050200	0.374400	0.009900
C2191	C219	0.079400	0.488700	0.988900
C2201	C220	0.087500	0.585800	0.991800
H1471	H147	0.101300	0.621700	0.976000
C2211	C221	0.074900	0.631200	0.018600
H1481	H148	0.079800	0.698800	0.020400
C2221	C222	0.094200	0.436200	0.961900
C2231	C223	0.098300	0.299200	0.935000
C2241	C224	0.132800	0.434000	0.917500
C2251	C225	0.083500	0.197100	0.930100
C2261	C226	0.057900	0.150100	0.952200
H1491	H149	0.051200	0.181700	0.970500
C2271	C227	0.042600	0.057700	0.947300
H1501	H150	0.025300	0.025800	0.962600
C2281	C228	0.076400	0.055900	0.900800
H1511	H151	0.084200	0.022200	0.883100
C2291	C229	0.091800	0.149100	0.903900
H1521	H152	0.108100	0.180300	0.888100
C2301	C230	0.157500	0.486100	0.893500
C2311	C231	0.182200	0.441400	0.871200
H1531	H153	0.184400	0.373000	0.870800
C2321	C232	0.203300	0.494600	0.849900
H1541	H154	0.221400	0.462300	0.835100
C2331	C233	0.176000	0.635800	0.869500
H1551	H155	0.174000	0.704200	0.869000
C2341	C234	0.153800	0.587900	0.892000
H1561	H156	0.136100	0.622300	0.906500
C2351	C235	0.311800	0.416800	0.266200
H1571	H157	0.339300	0.401100	0.277400
C2361	C236	0.317700	0.450000	0.237400
H1581	H158	0.348400	0.456100	0.229100
C2371	C237	0.278900	0.473900	0.221100
C2381	C238	0.235000	0.467200	0.234600
H1591	H159	0.207500	0.486400	0.224000
C2391	C239	0.231100	0.432700	0.263300
H1601	H160	0.200700	0.427800	0.272200
C2401	C240	0.282300	0.504400	0.189300
C2411	C241	0.324400	0.540500	0.148400
C2421	C242	0.245500	0.540900	0.146500
C2431	C243	0.370300	0.553800	0.133200
C2441	C244	0.412500	0.542800	0.148400
H1611	H161	0.412400	0.523100	0.168700
C2451	C245	0.455400	0.561000	0.133800
H1621	H162	0.484300	0.553500	0.144300
C2461	C246	0.416400	0.595500	0.090600
H1631	H163	0.417400	0.611700	0.070100
C2471	C247	0.372300	0.579900	0.103800
H1641	H164	0.344100	0.587400	0.092600
C2481	C248	0.199600	0.557300	0.130200
C2491	C249	0.199600	0.589600	0.101000
H1651	H165	0.228400	0.598900	0.090500
C2501	C250	0.156300	0.607800	0.087500
H1661	H166	0.156200	0.630300	0.067500
C2511	C251	0.115900	0.561700	0.129500
H1671	H167	0.086600	0.550800	0.139300
C2521	C252	0.156500	0.543100	0.144100
H1681	H168	0.155500	0.520100	0.164000
I371	I37	0.987260	0.555950	0.111150
I381	I38	0.064670	0.825140	0.079990
I391	I39	0.193880	0.831890	0.810700
I401	I40	0.324050	0.675350	0.832410
I411	I41	0.068770	0.793850	0.873240
I421	I42	0.006250	0.799270	0.964570
N731	N73	0.056700	0.583700	0.041300
N741	N74	0.081600	0.343700	0.959700
N751	N75	0.125100	0.341200	0.913300
N761	N76	0.119000	0.485900	0.941000
N771	N77	0.051100	0.010000	0.921400
N781	N78	0.200000	0.591200	0.848600
N791	N79	0.270300	0.405800	0.278900
N801	N80	0.325000	0.516100	0.177600
N811	N81	0.286200	0.553900	0.132200
N821	N82	0.241200	0.516600	0.175200
N831	N83	0.456600	0.588700	0.105200
N841	N84	0.115500	0.595500	0.101100
Zn191	Zn19	0.052300	0.643980	0.083000
Zn201	Zn20	0.237220	0.671350	0.817530
Zn211	Zn21	0.021150	0.876600	0.913550
C2531	C253	0.452900	0.509600	0.537900
H1691	H169	0.467500	0.543600	0.553800
C2541	C254	0.442200	0.559100	0.511800
H1701	H170	0.449800	0.625600	0.509900
C2551	C255	0.420600	0.511300	0.488900
C2561	C256	0.412500	0.414200	0.491800
H1711	H171	0.398700	0.378300	0.476000
C2571	C257	0.425100	0.368800	0.518600
H1721	H172	0.420200	0.301200	0.520400
C2581	C258	0.405800	0.563800	0.461900
C2591	C259	0.401700	0.700800	0.435000
C2601	C260	0.367200	0.566000	0.417500
C2611	C261	0.416500	0.802900	0.430100
C2621	C262	0.442100	0.849900	0.452200
H1731	H173	0.448800	0.818300	0.470500
C2631	C263	0.457400	0.942300	0.447300
H1741	H174	0.474700	0.974200	0.462600
C2641	C264	0.423600	0.944100	0.400800
H1751	H175	0.415800	0.977800	0.383100
C2651	C265	0.408200	0.850900	0.403900
H1761	H176	0.391900	0.819700	0.388100
C2661	C266	0.342500	0.513900	0.393500
C2671	C267	0.317800	0.558600	0.371200
H1771	H177	0.315600	0.627000	0.370800
C2681	C268	0.296700	0.505400	0.349900
H1781	H178	0.278600	0.537700	0.335100
C2691	C269	0.324000	0.364200	0.369500
H1791	H179	0.326000	0.295800	0.369000
C2701	C270	0.346200	0.412100	0.392000
H1801	H180	0.363900	0.377700	0.406500
C2711	C271	0.188200	0.583200	0.766200
H1811	H181	0.160700	0.598900	0.777400
C2721	C272	0.182300	0.550000	0.737400
H1821	H182	0.151600	0.543900	0.729100
C2731	C273	0.221100	0.526100	0.721100
C2741	C274	0.265000	0.532800	0.734600
H1831	H183	0.292500	0.513600	0.724000
C2751	C275	0.268900	0.567300	0.763300
H1841	H184	0.299300	0.572200	0.772200
C2761	C276	0.217700	0.495600	0.689300
C2771	C277	0.175600	0.459500	0.648400
C2781	C278	0.254500	0.459100	0.646500
C2791	C279	0.129700	0.446200	0.633200
C2801	C280	0.087500	0.457200	0.648400
H1851	H185	0.087600	0.476900	0.668700
C2811	C281	0.044600	0.439000	0.633800
H1861	H186	0.015700	0.446500	0.644300
C2821	C282	0.083600	0.404500	0.590600
H1871	H187	0.082600	0.388300	0.570100
C2831	C283	0.127700	0.420100	0.603800
H1881	H188	0.155900	0.412600	0.592600
C2841	C284	0.300400	0.442700	0.630200
C2851	C285	0.300400	0.410400	0.601000
H1891	H189	0.271600	0.401100	0.590500
C2861	C286	0.343700	0.392200	0.587500
H1901	H190	0.343800	0.369700	0.567500
C2871	C287	0.384100	0.438300	0.629500
H1911	H191	0.413400	0.449200	0.639300
C2881	C288	0.343500	0.456900	0.644100
H1921	H192	0.344500	0.479900	0.664000
I431	I43	0.512740	0.444050	0.611150
I441	I44	0.435330	0.174860	0.579990
I451	I45	0.306120	0.168110	0.310700
I461	I46	0.175950	0.324650	0.332410
I471	I47	0.431230	0.206150	0.373240
I481	I48	0.493750	0.200730	0.464570
N851	N85	0.443300	0.416300	0.541300
N861	N86	0.418400	0.656300	0.459700
N871	N87	0.374900	0.658800	0.413300
N881	N88	0.381000	0.514100	0.441000
N891	N89	0.448900	0.990000	0.421400
N901	N90	0.300000	0.408800	0.348600
N911	N91	0.229700	0.594200	0.778900
N921	N92	0.175000	0.483900	0.677600
N931	N93	0.213800	0.446100	0.632200
N941	N94	0.258800	0.483400	0.675200
N951	N95	0.043400	0.411300	0.605200
N961	N96	0.384500	0.404500	0.601100
Zn221	Zn22	0.447700	0.356020	0.583000
Zn231	Zn23	0.262780	0.328650	0.317530
Zn241	Zn24	0.478850	0.123400	0.413550
