data_RAKDEN_clean_PM
_symmetry_space_group_name_H-M	'P1'
_cell_length_a	28.519000
_cell_length_b	13.821900
_cell_length_c	44.097000
_cell_angle_alpha	90.000000
_cell_angle_beta	90.000000
_cell_angle_gamma	90.000000
_symmetry_Int_Tables_number 1

loop_
_symmetry_equiv_pos_as_xyz
'x,y,z'

loop_
_atom_site_label
_atom_site_type_symbol
_atom_site_fract_x
_atom_site_fract_y
_atom_site_fract_z
C11	C1	0.043400	0.017300	0.546100
H11	H1	0.032200	0.056200	0.562300
C21	C2	0.052100	0.060900	0.518700
H21	H2	0.047800	0.128600	0.516300
C31	C3	0.067300	0.004100	0.494400
C41	C4	0.071900	0.904900	0.499100
H31	H3	0.081500	0.863500	0.483100
C51	C5	0.062300	0.867700	0.527400
H41	H4	0.064700	0.799700	0.530200
C61	C6	0.080200	0.049900	0.465400
C71	C7	0.086100	0.182400	0.436400
C81	C8	0.118100	0.043400	0.420700
C91	C9	0.073200	0.285400	0.430700
C101	C10	0.049200	0.339400	0.452600
H51	H5	0.041800	0.312000	0.471800
C111	C11	0.036500	0.434100	0.445700
H61	H6	0.020500	0.471000	0.460700
C121	C12	0.069300	0.423300	0.399000
H71	H7	0.077100	0.453400	0.380300
C131	C13	0.083300	0.329500	0.403200
H81	H8	0.099500	0.295500	0.387600
C141	C14	0.143500	0.987200	0.397200
C151	C15	0.166100	0.031200	0.373600
H91	H9	0.164500	0.099500	0.371300
C161	C16	0.190900	0.977000	0.353300
H101	H10	0.207000	0.009300	0.337400
C171	C17	0.170400	0.836600	0.377100
H111	H11	0.171100	0.768000	0.378100
C181	C18	0.145400	0.887000	0.398900
H121	H12	0.129800	0.853500	0.414800
C191	C19	0.313800	0.112000	0.773200
H131	H13	0.341100	0.130000	0.784100
C201	C20	0.319100	0.076700	0.744100
H141	H14	0.349400	0.070200	0.735400
C211	C21	0.280200	0.051300	0.727920
C221	C22	0.236500	0.058500	0.742030
H151	H15	0.208900	0.040300	0.731500
C231	C23	0.233800	0.092600	0.771500
H161	H16	0.204100	0.095000	0.781300
C241	C24	0.282500	0.020700	0.695890
C251	C25	0.323200	0.982700	0.653960
C261	C26	0.244100	0.984400	0.652150
C271	C27	0.368800	0.967100	0.638390
C281	C28	0.410900	0.978700	0.653700
H171	H17	0.411200	0.000200	0.674100
C291	C29	0.452300	0.958600	0.638800
H181	H18	0.480900	0.965900	0.649600
C301	C30	0.413400	0.920800	0.594800
H191	H19	0.414400	0.901600	0.574100
C311	C31	0.370100	0.938900	0.608110
H201	H20	0.342000	0.932200	0.596800
C321	C32	0.199300	0.967700	0.636100
C331	C33	0.196900	0.936200	0.606700
H211	H21	0.224500	0.928600	0.594900
C341	C34	0.153100	0.915800	0.594800
H221	H22	0.151500	0.892000	0.574600
C351	C35	0.115700	0.963600	0.637900
H231	H23	0.087300	0.976400	0.648400
C361	C36	0.157600	0.983000	0.652100
H241	H24	0.158200	0.006300	0.672400
N11	N1	0.049900	0.922400	0.551070
N21	N2	0.069700	0.143800	0.461810
N31	N3	0.111200	0.137200	0.415420
N41	N4	0.102800	0.995200	0.444990
N51	N5	0.045800	0.475200	0.419150
N61	N6	0.193700	0.880900	0.354900
N71	N7	0.271900	0.122000	0.786620
N81	N8	0.324100	0.007900	0.683280
N91	N9	0.284100	0.970800	0.637000
N101	N10	0.241200	0.010100	0.681340
N111	N11	0.454000	0.929400	0.610120
N121	N12	0.113500	0.927400	0.609840
I11	I1	0.987050	0.961720	0.624800
I21	I2	0.063560	0.691140	0.593800
I31	I3	0.200590	0.633880	0.318670
I41	I4	0.320200	0.814380	0.343740
I51	I5	0.064020	0.683400	0.365930
I61	I6	0.001760	0.694990	0.459220
Zn11	Zn1	0.049500	0.872280	0.595020
Zn21	Zn2	0.235480	0.801570	0.326440
Zn31	Zn3	0.017880	0.608430	0.408900
C371	C37	0.456600	0.982700	0.046100
H251	H25	0.467800	0.943800	0.062300
C381	C38	0.447900	0.939100	0.018700
H261	H26	0.452200	0.871400	0.016300
C391	C39	0.432700	0.995900	0.994400
C401	C40	0.428100	0.095100	0.999100
H271	H27	0.418500	0.136500	0.983100
C411	C41	0.437700	0.132300	0.027400
H281	H28	0.435300	0.200300	0.030200
C421	C42	0.419800	0.950100	0.965400
C431	C43	0.413900	0.817600	0.936400
C441	C44	0.381900	0.956600	0.920700
C451	C45	0.426800	0.714600	0.930700
C461	C46	0.450800	0.660600	0.952600
H291	H29	0.458200	0.688000	0.971800
C471	C47	0.463500	0.565900	0.945700
H301	H30	0.479500	0.529000	0.960700
C481	C48	0.430700	0.576700	0.899000
H311	H31	0.422900	0.546600	0.880300
C491	C49	0.416700	0.670500	0.903200
H321	H32	0.400500	0.704500	0.887600
C501	C50	0.356500	0.012800	0.897200
C511	C51	0.333900	0.968800	0.873600
H331	H33	0.335500	0.900500	0.871300
C521	C52	0.309100	0.023000	0.853300
H341	H34	0.293000	0.990700	0.837400
C531	C53	0.329600	0.163400	0.877100
H351	H35	0.328900	0.232000	0.878100
C541	C54	0.354600	0.113000	0.898900
H361	H36	0.370200	0.146500	0.914800
C551	C55	0.186200	0.888000	0.273200
H371	H37	0.158900	0.870000	0.284100
C561	C56	0.180900	0.923300	0.244100
H381	H38	0.150600	0.929800	0.235400
C571	C57	0.219800	0.948700	0.227920
C581	C58	0.263500	0.941500	0.242030
H391	H39	0.291100	0.959700	0.231500
C591	C59	0.266200	0.907400	0.271500
H401	H40	0.295900	0.905000	0.281300
C601	C60	0.217500	0.979300	0.195890
C611	C61	0.176800	0.017300	0.153960
C621	C62	0.255900	0.015600	0.152150
C631	C63	0.131200	0.032900	0.138390
C641	C64	0.089100	0.021300	0.153700
H411	H41	0.088800	0.999800	0.174100
C651	C65	0.047700	0.041400	0.138800
H421	H42	0.019100	0.034100	0.149600
C661	C66	0.086600	0.079200	0.094800
H431	H43	0.085600	0.098400	0.074100
C671	C67	0.129900	0.061100	0.108110
H441	H44	0.158000	0.067800	0.096800
C681	C68	0.300700	0.032300	0.136100
C691	C69	0.303100	0.063800	0.106700
H451	H45	0.275500	0.071400	0.094900
C701	C70	0.346900	0.084200	0.094800
H461	H46	0.348500	0.108000	0.074600
C711	C71	0.384300	0.036400	0.137900
H471	H47	0.412700	0.023600	0.148400
C721	C72	0.342400	0.017000	0.152100
H481	H48	0.341800	0.993700	0.172400
N131	N13	0.450100	0.077600	0.051070
N141	N14	0.430300	0.856200	0.961810
N151	N15	0.388800	0.862800	0.915420
N161	N16	0.397200	0.004800	0.944990
N171	N17	0.454200	0.524800	0.919150
N181	N18	0.306300	0.119100	0.854900
N191	N19	0.228100	0.878000	0.286620
N201	N20	0.175900	0.992100	0.183280
N211	N21	0.215900	0.029200	0.137000
N221	N22	0.258800	0.989900	0.181340
N231	N23	0.046000	0.070600	0.110120
N241	N24	0.386500	0.072600	0.109840
I71	I7	0.512950	0.038280	0.124800
I81	I8	0.436440	0.308860	0.093800
I91	I9	0.299410	0.366120	0.818670
I101	I10	0.179800	0.185620	0.843740
I111	I11	0.435980	0.316600	0.865930
I121	I12	0.498240	0.305010	0.959220
Zn41	Zn4	0.450500	0.127720	0.095020
Zn51	Zn5	0.264520	0.198430	0.826440
Zn61	Zn6	0.482120	0.391570	0.908900
C731	C73	0.956600	0.517300	0.953900
H491	H49	0.967800	0.556200	0.937700
C741	C74	0.947900	0.560900	0.981300
H501	H50	0.952200	0.628600	0.983700
C751	C75	0.932700	0.504100	0.005600
C761	C76	0.928100	0.404900	0.000900
H511	H51	0.918500	0.363500	0.016900
C771	C77	0.937700	0.367700	0.972600
H521	H52	0.935300	0.299700	0.969800
C781	C78	0.919800	0.549900	0.034600
C791	C79	0.913900	0.682400	0.063600
C801	C80	0.881900	0.543400	0.079300
C811	C81	0.926800	0.785400	0.069300
C821	C82	0.950800	0.839400	0.047400
H531	H53	0.958200	0.812000	0.028200
C831	C83	0.963500	0.934100	0.054300
H541	H54	0.979500	0.971000	0.039300
C841	C84	0.930700	0.923300	0.101000
H551	H55	0.922900	0.953400	0.119700
C851	C85	0.916700	0.829500	0.096800
H561	H56	0.900500	0.795500	0.112400
C861	C86	0.856500	0.487200	0.102800
C871	C87	0.833900	0.531200	0.126400
H571	H57	0.835500	0.599500	0.128700
C881	C88	0.809100	0.477000	0.146700
H581	H58	0.793000	0.509300	0.162600
C891	C89	0.829600	0.336600	0.122900
H591	H59	0.828900	0.268000	0.121900
C901	C90	0.854600	0.387000	0.101100
H601	H60	0.870200	0.353500	0.085200
C911	C91	0.686200	0.612000	0.726800
H611	H61	0.658900	0.630000	0.715900
C921	C92	0.680900	0.576700	0.755900
H621	H62	0.650600	0.570200	0.764600
C931	C93	0.719800	0.551300	0.772080
C941	C94	0.763500	0.558500	0.757970
H631	H63	0.791100	0.540300	0.768500
C951	C95	0.766200	0.592600	0.728500
H641	H64	0.795900	0.595000	0.718700
C961	C96	0.717500	0.520700	0.804110
C971	C97	0.676800	0.482700	0.846040
C981	C98	0.755900	0.484400	0.847850
C991	C99	0.631200	0.467100	0.861610
C1001	C100	0.589100	0.478700	0.846300
H651	H65	0.588800	0.500200	0.825900
C1011	C101	0.547700	0.458600	0.861200
H661	H66	0.519100	0.465900	0.850400
C1021	C102	0.586600	0.420800	0.905200
H671	H67	0.585600	0.401600	0.925900
C1031	C103	0.629900	0.438900	0.891890
H681	H68	0.658000	0.432200	0.903200
C1041	C104	0.800700	0.467700	0.863900
C1051	C105	0.803100	0.436200	0.893300
H691	H69	0.775500	0.428600	0.905100
C1061	C106	0.846900	0.415800	0.905200
H701	H70	0.848500	0.392000	0.925400
C1071	C107	0.884300	0.463600	0.862100
H711	H71	0.912700	0.476400	0.851600
C1081	C108	0.842400	0.483000	0.847900
H721	H72	0.841800	0.506300	0.827600
N251	N25	0.950100	0.422400	0.948930
N261	N26	0.930300	0.643800	0.038190
N271	N27	0.888800	0.637200	0.084580
N281	N28	0.897200	0.495200	0.055010
N291	N29	0.954200	0.975200	0.080850
N301	N30	0.806300	0.380900	0.145100
N311	N31	0.728100	0.622000	0.713380
N321	N32	0.675900	0.507900	0.816720
N331	N33	0.715900	0.470800	0.863000
N341	N34	0.758800	0.510100	0.818660
N351	N35	0.546000	0.429400	0.889880
N361	N36	0.886500	0.427400	0.890160
I131	I13	0.012950	0.461720	0.875200
I141	I14	0.936440	0.191140	0.906200
I151	I15	0.799410	0.133880	0.181330
I161	I16	0.679800	0.314380	0.156260
I171	I17	0.935980	0.183400	0.134070
I181	I18	0.998240	0.194990	0.040780
Zn71	Zn7	0.950500	0.372280	0.904980
Zn81	Zn8	0.764520	0.301570	0.173560
Zn91	Zn9	0.982120	0.108430	0.091100
C1091	C109	0.543400	0.482700	0.453900
H731	H73	0.532200	0.443800	0.437700
C1101	C110	0.552100	0.439100	0.481300
H741	H74	0.547800	0.371400	0.483700
C1111	C111	0.567300	0.495900	0.505600
C1121	C112	0.571900	0.595100	0.500900
H751	H75	0.581500	0.636500	0.516900
C1131	C113	0.562300	0.632300	0.472600
H761	H76	0.564700	0.700300	0.469800
C1141	C114	0.580200	0.450100	0.534600
C1151	C115	0.586100	0.317600	0.563600
C1161	C116	0.618100	0.456600	0.579300
C1171	C117	0.573200	0.214600	0.569300
C1181	C118	0.549200	0.160600	0.547400
H771	H77	0.541800	0.188000	0.528200
C1191	C119	0.536500	0.065900	0.554300
H781	H78	0.520500	0.029000	0.539300
C1201	C120	0.569300	0.076700	0.601000
H791	H79	0.577100	0.046600	0.619700
C1211	C121	0.583300	0.170500	0.596800
H801	H80	0.599500	0.204500	0.612400
C1221	C122	0.643500	0.512800	0.602800
C1231	C123	0.666100	0.468800	0.626400
H811	H81	0.664500	0.400500	0.628700
C1241	C124	0.690900	0.523000	0.646700
H821	H82	0.707000	0.490700	0.662600
C1251	C125	0.670400	0.663400	0.622900
H831	H83	0.671100	0.732000	0.621900
C1261	C126	0.645400	0.613000	0.601100
H841	H84	0.629800	0.646500	0.585200
C1271	C127	0.813800	0.388000	0.226800
H851	H85	0.841100	0.370000	0.215900
C1281	C128	0.819100	0.423300	0.255900
H861	H86	0.849400	0.429800	0.264600
C1291	C129	0.780200	0.448700	0.272080
C1301	C130	0.736500	0.441500	0.257970
H871	H87	0.708900	0.459700	0.268500
C1311	C131	0.733800	0.407400	0.228500
H881	H88	0.704100	0.405000	0.218700
C1321	C132	0.782500	0.479300	0.304110
C1331	C133	0.823200	0.517300	0.346040
C1341	C134	0.744100	0.515600	0.347850
C1351	C135	0.868800	0.532900	0.361610
C1361	C136	0.910900	0.521300	0.346300
H891	H89	0.911200	0.499800	0.325900
C1371	C137	0.952300	0.541400	0.361200
H901	H90	0.980900	0.534100	0.350400
C1381	C138	0.913400	0.579200	0.405200
H911	H91	0.914400	0.598400	0.425900
C1391	C139	0.870100	0.561100	0.391890
H921	H92	0.842000	0.567800	0.403200
C1401	C140	0.699300	0.532300	0.363900
C1411	C141	0.696900	0.563800	0.393300
H931	H93	0.724500	0.571400	0.405100
C1421	C142	0.653100	0.584200	0.405200
H941	H94	0.651500	0.608000	0.425400
C1431	C143	0.615700	0.536400	0.362100
H951	H95	0.587300	0.523600	0.351600
C1441	C144	0.657600	0.517000	0.347900
H961	H96	0.658200	0.493700	0.327600
N371	N37	0.549900	0.577600	0.448930
N381	N38	0.569700	0.356200	0.538190
N391	N39	0.611200	0.362800	0.584580
N401	N40	0.602800	0.504800	0.555010
N411	N41	0.545800	0.024800	0.580850
N421	N42	0.693700	0.619100	0.645100
N431	N43	0.771900	0.378000	0.213380
N441	N44	0.824100	0.492100	0.316720
N451	N45	0.784100	0.529200	0.363000
N461	N46	0.741200	0.489900	0.318660
N471	N47	0.954000	0.570600	0.389880
N481	N48	0.613500	0.572600	0.390160
I191	I19	0.487050	0.538280	0.375200
I201	I20	0.563560	0.808860	0.406200
I211	I21	0.700590	0.866120	0.681330
I221	I22	0.820200	0.685620	0.656260
I231	I23	0.564020	0.816600	0.634070
I241	I24	0.501760	0.805010	0.540780
Zn101	Zn10	0.549500	0.627720	0.404980
Zn111	Zn11	0.735480	0.698430	0.673560
Zn121	Zn12	0.517880	0.891570	0.591100
C1451	C145	0.956600	0.982700	0.453900
H971	H97	0.967800	0.943800	0.437700
C1461	C146	0.947900	0.939100	0.481300
H981	H98	0.952200	0.871400	0.483700
C1471	C147	0.932700	0.995900	0.505600
C1481	C148	0.928100	0.095100	0.500900
H991	H99	0.918500	0.136500	0.516900
C1491	C149	0.937700	0.132300	0.472600
H1001	H100	0.935300	0.200300	0.469800
C1501	C150	0.919800	0.950100	0.534600
C1511	C151	0.913900	0.817600	0.563600
C1521	C152	0.881900	0.956600	0.579300
C1531	C153	0.926800	0.714600	0.569300
C1541	C154	0.950800	0.660600	0.547400
H1011	H101	0.958200	0.688000	0.528200
C1551	C155	0.963500	0.565900	0.554300
H1021	H102	0.979500	0.529000	0.539300
C1561	C156	0.930700	0.576700	0.601000
H1031	H103	0.922900	0.546600	0.619700
C1571	C157	0.916700	0.670500	0.596800
H1041	H104	0.900500	0.704500	0.612400
C1581	C158	0.856500	0.012800	0.602800
C1591	C159	0.833900	0.968800	0.626400
H1051	H105	0.835500	0.900500	0.628700
C1601	C160	0.809100	0.023000	0.646700
H1061	H106	0.793000	0.990700	0.662600
C1611	C161	0.829600	0.163400	0.622900
H1071	H107	0.828900	0.232000	0.621900
C1621	C162	0.854600	0.113000	0.601100
H1081	H108	0.870200	0.146500	0.585200
C1631	C163	0.686200	0.888000	0.226800
H1091	H109	0.658900	0.870000	0.215900
C1641	C164	0.680900	0.923300	0.255900
H1101	H110	0.650600	0.929800	0.264600
C1651	C165	0.719800	0.948700	0.272080
C1661	C166	0.763500	0.941500	0.257970
H1111	H111	0.791100	0.959700	0.268500
C1671	C167	0.766200	0.907400	0.228500
H1121	H112	0.795900	0.905000	0.218700
C1681	C168	0.717500	0.979300	0.304110
C1691	C169	0.676800	0.017300	0.346040
C1701	C170	0.755900	0.015600	0.347850
C1711	C171	0.631200	0.032900	0.361610
C1721	C172	0.589100	0.021300	0.346300
H1131	H113	0.588800	0.999800	0.325900
C1731	C173	0.547700	0.041400	0.361200
H1141	H114	0.519100	0.034100	0.350400
C1741	C174	0.586600	0.079200	0.405200
H1151	H115	0.585600	0.098400	0.425900
C1751	C175	0.629900	0.061100	0.391890
H1161	H116	0.658000	0.067800	0.403200
C1761	C176	0.800700	0.032300	0.363900
C1771	C177	0.803100	0.063800	0.393300
H1171	H117	0.775500	0.071400	0.405100
C1781	C178	0.846900	0.084200	0.405200
H1181	H118	0.848500	0.108000	0.425400
C1791	C179	0.884300	0.036400	0.362100
H1191	H119	0.912700	0.023600	0.351600
C1801	C180	0.842400	0.017000	0.347900
H1201	H120	0.841800	0.993700	0.327600
N491	N49	0.950100	0.077600	0.448930
N501	N50	0.930300	0.856200	0.538190
N511	N51	0.888800	0.862800	0.584580
N521	N52	0.897200	0.004800	0.555010
N531	N53	0.954200	0.524800	0.580850
N541	N54	0.806300	0.119100	0.645100
N551	N55	0.728100	0.878000	0.213380
N561	N56	0.675900	0.992100	0.316720
N571	N57	0.715900	0.029200	0.363000
N581	N58	0.758800	0.989900	0.318660
N591	N59	0.546000	0.070600	0.389880
N601	N60	0.886500	0.072600	0.390160
I251	I25	0.012950	0.038280	0.375200
I261	I26	0.936440	0.308860	0.406200
I271	I27	0.799410	0.366120	0.681330
I281	I28	0.679800	0.185620	0.656260
I291	I29	0.935980	0.316600	0.634070
I301	I30	0.998240	0.305010	0.540780
Zn131	Zn13	0.950500	0.127720	0.404980
Zn141	Zn14	0.764520	0.198430	0.673560
Zn151	Zn15	0.982120	0.391570	0.591100
C1811	C181	0.543400	0.017300	0.953900
H1211	H121	0.532200	0.056200	0.937700
C1821	C182	0.552100	0.060900	0.981300
H1221	H122	0.547800	0.128600	0.983700
C1831	C183	0.567300	0.004100	0.005600
C1841	C184	0.571900	0.904900	0.000900
H1231	H123	0.581500	0.863500	0.016900
C1851	C185	0.562300	0.867700	0.972600
H1241	H124	0.564700	0.799700	0.969800
C1861	C186	0.580200	0.049900	0.034600
C1871	C187	0.586100	0.182400	0.063600
C1881	C188	0.618100	0.043400	0.079300
C1891	C189	0.573200	0.285400	0.069300
C1901	C190	0.549200	0.339400	0.047400
H1251	H125	0.541800	0.312000	0.028200
C1911	C191	0.536500	0.434100	0.054300
H1261	H126	0.520500	0.471000	0.039300
C1921	C192	0.569300	0.423300	0.101000
H1271	H127	0.577100	0.453400	0.119700
C1931	C193	0.583300	0.329500	0.096800
H1281	H128	0.599500	0.295500	0.112400
C1941	C194	0.643500	0.987200	0.102800
C1951	C195	0.666100	0.031200	0.126400
H1291	H129	0.664500	0.099500	0.128700
C1961	C196	0.690900	0.977000	0.146700
H1301	H130	0.707000	0.009300	0.162600
C1971	C197	0.670400	0.836600	0.122900
H1311	H131	0.671100	0.768000	0.121900
C1981	C198	0.645400	0.887000	0.101100
H1321	H132	0.629800	0.853500	0.085200
C1991	C199	0.813800	0.112000	0.726800
H1331	H133	0.841100	0.130000	0.715900
C2001	C200	0.819100	0.076700	0.755900
H1341	H134	0.849400	0.070200	0.764600
C2011	C201	0.780200	0.051300	0.772080
C2021	C202	0.736500	0.058500	0.757970
H1351	H135	0.708900	0.040300	0.768500
C2031	C203	0.733800	0.092600	0.728500
H1361	H136	0.704100	0.095000	0.718700
C2041	C204	0.782500	0.020700	0.804110
C2051	C205	0.823200	0.982700	0.846040
C2061	C206	0.744100	0.984400	0.847850
C2071	C207	0.868800	0.967100	0.861610
C2081	C208	0.910900	0.978700	0.846300
H1371	H137	0.911200	0.000200	0.825900
C2091	C209	0.952300	0.958600	0.861200
H1381	H138	0.980900	0.965900	0.850400
C2101	C210	0.913400	0.920800	0.905200
H1391	H139	0.914400	0.901600	0.925900
C2111	C211	0.870100	0.938900	0.891890
H1401	H140	0.842000	0.932200	0.903200
C2121	C212	0.699300	0.967700	0.863900
C2131	C213	0.696900	0.936200	0.893300
H1411	H141	0.724500	0.928600	0.905100
C2141	C214	0.653100	0.915800	0.905200
H1421	H142	0.651500	0.892000	0.925400
C2151	C215	0.615700	0.963600	0.862100
H1431	H143	0.587300	0.976400	0.851600
C2161	C216	0.657600	0.983000	0.847900
H1441	H144	0.658200	0.006300	0.827600
N611	N61	0.549900	0.922400	0.948930
N621	N62	0.569700	0.143800	0.038190
N631	N63	0.611200	0.137200	0.084580
N641	N64	0.602800	0.995200	0.055010
N651	N65	0.545800	0.475200	0.080850
N661	N66	0.693700	0.880900	0.145100
N671	N67	0.771900	0.122000	0.713380
N681	N68	0.824100	0.007900	0.816720
N691	N69	0.784100	0.970800	0.863000
N701	N70	0.741200	0.010100	0.818660
N711	N71	0.954000	0.929400	0.889880
N721	N72	0.613500	0.927400	0.890160
I311	I31	0.487050	0.961720	0.875200
I321	I32	0.563560	0.691140	0.906200
I331	I33	0.700590	0.633880	0.181330
I341	I34	0.820200	0.814380	0.156260
I351	I35	0.564020	0.683400	0.134070
I361	I36	0.501760	0.694990	0.040780
Zn161	Zn16	0.549500	0.872280	0.904980
Zn171	Zn17	0.735480	0.801570	0.173560
Zn181	Zn18	0.517880	0.608430	0.091100
C2171	C217	0.043400	0.482700	0.046100
H1451	H145	0.032200	0.443800	0.062300
C2181	C218	0.052100	0.439100	0.018700
H1461	H146	0.047800	0.371400	0.016300
C2191	C219	0.067300	0.495900	0.994400
C2201	C220	0.071900	0.595100	0.999100
H1471	H147	0.081500	0.636500	0.983100
C2211	C221	0.062300	0.632300	0.027400
H1481	H148	0.064700	0.700300	0.030200
C2221	C222	0.080200	0.450100	0.965400
C2231	C223	0.086100	0.317600	0.936400
C2241	C224	0.118100	0.456600	0.920700
C2251	C225	0.073200	0.214600	0.930700
C2261	C226	0.049200	0.160600	0.952600
H1491	H149	0.041800	0.188000	0.971800
C2271	C227	0.036500	0.065900	0.945700
H1501	H150	0.020500	0.029000	0.960700
C2281	C228	0.069300	0.076700	0.899000
H1511	H151	0.077100	0.046600	0.880300
C2291	C229	0.083300	0.170500	0.903200
H1521	H152	0.099500	0.204500	0.887600
C2301	C230	0.143500	0.512800	0.897200
C2311	C231	0.166100	0.468800	0.873600
H1531	H153	0.164500	0.400500	0.871300
C2321	C232	0.190900	0.523000	0.853300
H1541	H154	0.207000	0.490700	0.837400
C2331	C233	0.170400	0.663400	0.877100
H1551	H155	0.171100	0.732000	0.878100
C2341	C234	0.145400	0.613000	0.898900
H1561	H156	0.129800	0.646500	0.914800
C2351	C235	0.313800	0.388000	0.273200
H1571	H157	0.341100	0.370000	0.284100
C2361	C236	0.319100	0.423300	0.244100
H1581	H158	0.349400	0.429800	0.235400
C2371	C237	0.280200	0.448700	0.227920
C2381	C238	0.236500	0.441500	0.242030
H1591	H159	0.208900	0.459700	0.231500
C2391	C239	0.233800	0.407400	0.271500
H1601	H160	0.204100	0.405000	0.281300
C2401	C240	0.282500	0.479300	0.195890
C2411	C241	0.323200	0.517300	0.153960
C2421	C242	0.244100	0.515600	0.152150
C2431	C243	0.368800	0.532900	0.138390
C2441	C244	0.410900	0.521300	0.153700
H1611	H161	0.411200	0.499800	0.174100
C2451	C245	0.452300	0.541400	0.138800
H1621	H162	0.480900	0.534100	0.149600
C2461	C246	0.413400	0.579200	0.094800
H1631	H163	0.414400	0.598400	0.074100
C2471	C247	0.370100	0.561100	0.108110
H1641	H164	0.342000	0.567800	0.096800
C2481	C248	0.199300	0.532300	0.136100
C2491	C249	0.196900	0.563800	0.106700
H1651	H165	0.224500	0.571400	0.094900
C2501	C250	0.153100	0.584200	0.094800
H1661	H166	0.151500	0.608000	0.074600
C2511	C251	0.115700	0.536400	0.137900
H1671	H167	0.087300	0.523600	0.148400
C2521	C252	0.157600	0.517000	0.152100
H1681	H168	0.158200	0.493700	0.172400
N731	N73	0.049900	0.577600	0.051070
N741	N74	0.069700	0.356200	0.961810
N751	N75	0.111200	0.362800	0.915420
N761	N76	0.102800	0.504800	0.944990
N771	N77	0.045800	0.024800	0.919150
N781	N78	0.193700	0.619100	0.854900
N791	N79	0.271900	0.378000	0.286620
N801	N80	0.324100	0.492100	0.183280
N811	N81	0.284100	0.529200	0.137000
N821	N82	0.241200	0.489900	0.181340
N831	N83	0.454000	0.570600	0.110120
N841	N84	0.113500	0.572600	0.109840
I371	I37	0.987050	0.538280	0.124800
I381	I38	0.063560	0.808860	0.093800
I391	I39	0.200590	0.866120	0.818670
I401	I40	0.320200	0.685620	0.843740
I411	I41	0.064020	0.816600	0.865930
I421	I42	0.001760	0.805010	0.959220
Zn191	Zn19	0.049500	0.627720	0.095020
Zn201	Zn20	0.235480	0.698430	0.826440
Zn211	Zn21	0.017880	0.891570	0.908900
C2531	C253	0.456600	0.517300	0.546100
H1691	H169	0.467800	0.556200	0.562300
C2541	C254	0.447900	0.560900	0.518700
H1701	H170	0.452200	0.628600	0.516300
C2551	C255	0.432700	0.504100	0.494400
C2561	C256	0.428100	0.404900	0.499100
H1711	H171	0.418500	0.363500	0.483100
C2571	C257	0.437700	0.367700	0.527400
H1721	H172	0.435300	0.299700	0.530200
C2581	C258	0.419800	0.549900	0.465400
C2591	C259	0.413900	0.682400	0.436400
C2601	C260	0.381900	0.543400	0.420700
C2611	C261	0.426800	0.785400	0.430700
C2621	C262	0.450800	0.839400	0.452600
H1731	H173	0.458200	0.812000	0.471800
C2631	C263	0.463500	0.934100	0.445700
H1741	H174	0.479500	0.971000	0.460700
C2641	C264	0.430700	0.923300	0.399000
H1751	H175	0.422900	0.953400	0.380300
C2651	C265	0.416700	0.829500	0.403200
H1761	H176	0.400500	0.795500	0.387600
C2661	C266	0.356500	0.487200	0.397200
C2671	C267	0.333900	0.531200	0.373600
H1771	H177	0.335500	0.599500	0.371300
C2681	C268	0.309100	0.477000	0.353300
H1781	H178	0.293000	0.509300	0.337400
C2691	C269	0.329600	0.336600	0.377100
H1791	H179	0.328900	0.268000	0.378100
C2701	C270	0.354600	0.387000	0.398900
H1801	H180	0.370200	0.353500	0.414800
C2711	C271	0.186200	0.612000	0.773200
H1811	H181	0.158900	0.630000	0.784100
C2721	C272	0.180900	0.576700	0.744100
H1821	H182	0.150600	0.570200	0.735400
C2731	C273	0.219800	0.551300	0.727920
C2741	C274	0.263500	0.558500	0.742030
H1831	H183	0.291100	0.540300	0.731500
C2751	C275	0.266200	0.592600	0.771500
H1841	H184	0.295900	0.595000	0.781300
C2761	C276	0.217500	0.520700	0.695890
C2771	C277	0.176800	0.482700	0.653960
C2781	C278	0.255900	0.484400	0.652150
C2791	C279	0.131200	0.467100	0.638390
C2801	C280	0.089100	0.478700	0.653700
H1851	H185	0.088800	0.500200	0.674100
C2811	C281	0.047700	0.458600	0.638800
H1861	H186	0.019100	0.465900	0.649600
C2821	C282	0.086600	0.420800	0.594800
H1871	H187	0.085600	0.401600	0.574100
C2831	C283	0.129900	0.438900	0.608110
H1881	H188	0.158000	0.432200	0.596800
C2841	C284	0.300700	0.467700	0.636100
C2851	C285	0.303100	0.436200	0.606700
H1891	H189	0.275500	0.428600	0.594900
C2861	C286	0.346900	0.415800	0.594800
H1901	H190	0.348500	0.392000	0.574600
C2871	C287	0.384300	0.463600	0.637900
H1911	H191	0.412700	0.476400	0.648400
C2881	C288	0.342400	0.483000	0.652100
H1921	H192	0.341800	0.506300	0.672400
N851	N85	0.450100	0.422400	0.551070
N861	N86	0.430300	0.643800	0.461810
N871	N87	0.388800	0.637200	0.415420
N881	N88	0.397200	0.495200	0.444990
N891	N89	0.454200	0.975200	0.419150
N901	N90	0.306300	0.380900	0.354900
N911	N91	0.228100	0.622000	0.786620
N921	N92	0.175900	0.507900	0.683280
N931	N93	0.215900	0.470800	0.637000
N941	N94	0.258800	0.510100	0.681340
N951	N95	0.046000	0.429400	0.610120
N961	N96	0.386500	0.427400	0.609840
I431	I43	0.512950	0.461720	0.624800
I441	I44	0.436440	0.191140	0.593800
I451	I45	0.299410	0.133880	0.318670
I461	I46	0.179800	0.314380	0.343740
I471	I47	0.435980	0.183400	0.365930
I481	I48	0.498240	0.194990	0.459220
Zn221	Zn22	0.450500	0.372280	0.595020
Zn231	Zn23	0.264520	0.301570	0.326440
Zn241	Zn24	0.482120	0.108430	0.408900
