data_RAKMOF_clean_PM
_symmetry_space_group_name_H-M	'P1'
_cell_length_a	23.790500
_cell_length_b	8.853500
_cell_length_c	15.552200
_cell_angle_alpha	90.000000
_cell_angle_beta	90.000000
_cell_angle_gamma	90.000000
_symmetry_Int_Tables_number 1

loop_
_symmetry_equiv_pos_as_xyz
'x,y,z'

loop_
_atom_site_label
_atom_site_type_symbol
_atom_site_fract_x
_atom_site_fract_y
_atom_site_fract_z
N11	N1	0.400800	0.554300	0.127500
C11	C1	0.428400	0.453500	0.141000
N21	N2	0.286200	0.559700	0.010700
C21	C2	0.267900	0.458800	0.976700
N31	N3	0.099200	0.445700	0.627500
C31	C3	0.071600	0.546500	0.641000
N41	N4	0.213800	0.440300	0.510700
C41	C4	0.232100	0.541200	0.476700
N51	N5	0.599200	0.054300	0.872500
C51	C5	0.571600	0.953500	0.859000
N61	N6	0.713800	0.059700	0.989300
C61	C6	0.732100	0.958800	0.023300
N71	N7	0.900800	0.945700	0.372500
C71	C7	0.928400	0.046500	0.359000
N81	N8	0.786200	0.940300	0.489300
C81	C8	0.767900	0.041200	0.523300
N91	N9	0.599200	0.445700	0.872500
C91	C9	0.571600	0.546500	0.859000
N101	N10	0.713800	0.440300	0.989300
C101	C10	0.732100	0.541200	0.023300
N111	N11	0.900800	0.554300	0.372500
C111	C11	0.928400	0.453500	0.359000
N121	N12	0.786200	0.559700	0.489300
C121	C12	0.767900	0.458800	0.523300
N131	N13	0.400800	0.945700	0.127500
C131	C13	0.428400	0.046500	0.141000
N141	N14	0.286200	0.940300	0.010700
C141	C14	0.267900	0.041200	0.976700
N151	N15	0.099200	0.054300	0.627500
C151	C15	0.071600	0.953500	0.641000
N161	N16	0.213800	0.059700	0.510700
C161	C16	0.232100	0.958800	0.476700
Cd11	Cd1	0.342360	0.750000	0.071540
Cd21	Cd2	0.518780	0.750000	0.837010
Cd31	Cd3	0.268360	0.750000	0.419880
Cl11	Cl1	0.492500	0.750000	0.682100
Cl21	Cl2	0.371300	0.750000	0.467000
N171	N17	0.402800	0.750000	0.956200
C171	C17	0.442200	0.750000	0.915600
N181	N18	0.298300	0.750000	0.207800
C181	C18	0.284600	0.750000	0.278100
Cd41	Cd4	0.157640	0.250000	0.571540
Cd51	Cd5	0.981220	0.250000	0.337010
Cd61	Cd6	0.231640	0.250000	0.919880
Cl31	Cl3	0.007500	0.250000	0.182100
Cl41	Cl4	0.128700	0.250000	0.967000
N191	N19	0.097200	0.250000	0.456200
C191	C19	0.057800	0.250000	0.415600
N201	N20	0.201700	0.250000	0.707800
C201	C20	0.215400	0.250000	0.778100
Cd71	Cd7	0.657640	0.250000	0.928460
Cd81	Cd8	0.481220	0.250000	0.162990
Cd91	Cd9	0.731640	0.250000	0.580120
Cl51	Cl5	0.507500	0.250000	0.317900
Cl61	Cl6	0.628700	0.250000	0.533000
N211	N21	0.597200	0.250000	0.043800
C211	C21	0.557800	0.250000	0.084400
N221	N22	0.701700	0.250000	0.792200
C221	C22	0.715400	0.250000	0.721900
Cd101	Cd10	0.842360	0.750000	0.428460
Cd111	Cd11	0.018780	0.750000	0.662990
Cd121	Cd12	0.768360	0.750000	0.080120
Cl71	Cl7	0.992500	0.750000	0.817900
Cl81	Cl8	0.871300	0.750000	0.033000
N231	N23	0.902800	0.750000	0.543800
C231	C23	0.942200	0.750000	0.584400
N241	N24	0.798300	0.750000	0.292200
C241	C24	0.784600	0.750000	0.221900
