data_RALZEL_clean_PM
_symmetry_space_group_name_H-M	'P1'
_cell_length_a	15.390400
_cell_length_b	15.390400
_cell_length_c	9.858600
_cell_angle_alpha	90.000000
_cell_angle_beta	90.000000
_cell_angle_gamma	90.000000
_symmetry_Int_Tables_number 1

loop_
_symmetry_equiv_pos_as_xyz
'x,y,z'

loop_
_atom_site_label
_atom_site_type_symbol
_atom_site_fract_x
_atom_site_fract_y
_atom_site_fract_z
C11	C1	0.194800	0.687900	0.120800
H11	H1	0.177700	0.712700	0.204900
C21	C2	0.244400	0.613200	0.119700
H21	H2	0.262000	0.587700	0.203100
O11	O1	0.373600	0.469400	0.122300
C31	C3	0.805200	0.312100	0.120800
H31	H3	0.822300	0.287300	0.204900
C41	C4	0.755600	0.386800	0.119700
H41	H4	0.738000	0.412300	0.203100
O21	O2	0.626400	0.530600	0.122300
C51	C5	0.312100	0.194800	0.120800
H51	H5	0.287300	0.177700	0.204900
C61	C6	0.386800	0.244400	0.119700
H61	H6	0.412300	0.262000	0.203100
O31	O3	0.530600	0.373600	0.122300
C71	C7	0.687900	0.805200	0.120800
H71	H7	0.712700	0.822300	0.204900
C81	C8	0.613200	0.755600	0.119700
H81	H8	0.587700	0.738000	0.203100
O41	O4	0.469400	0.626400	0.122300
C91	C9	0.805200	0.687900	0.379200
H91	H9	0.822300	0.712700	0.295100
C101	C10	0.755600	0.613200	0.380300
H101	H10	0.738000	0.587700	0.296900
O51	O5	0.626400	0.469400	0.377700
C111	C11	0.194800	0.312100	0.379200
H111	H11	0.177700	0.287300	0.295100
C121	C12	0.244400	0.386800	0.380300
H121	H12	0.262000	0.412300	0.296900
O61	O6	0.373600	0.530600	0.377700
C131	C13	0.687900	0.194800	0.379200
H131	H13	0.712700	0.177700	0.295100
C141	C14	0.613200	0.244400	0.380300
H141	H14	0.587700	0.262000	0.296900
O71	O7	0.469400	0.373600	0.377700
C151	C15	0.312100	0.805200	0.379200
H151	H15	0.287300	0.822300	0.295100
C161	C16	0.386800	0.755600	0.380300
H161	H16	0.412300	0.738000	0.296900
O81	O8	0.530600	0.626400	0.377700
C171	C17	0.805200	0.312100	0.879200
H171	H17	0.822300	0.287300	0.795100
C181	C18	0.755600	0.386800	0.880300
H181	H18	0.738000	0.412300	0.796900
O91	O9	0.626400	0.530600	0.877700
C191	C19	0.194800	0.687900	0.879200
H191	H19	0.177700	0.712700	0.795100
C201	C20	0.244400	0.613200	0.880300
H201	H20	0.262000	0.587700	0.796900
O101	O10	0.373600	0.469400	0.877700
C211	C21	0.687900	0.805200	0.879200
H211	H21	0.712700	0.822300	0.795100
C221	C22	0.613200	0.755600	0.880300
H221	H22	0.587700	0.738000	0.796900
O111	O11	0.469400	0.626400	0.877700
C231	C23	0.312100	0.194800	0.879200
H231	H23	0.287300	0.177700	0.795100
C241	C24	0.386800	0.244400	0.880300
H241	H24	0.412300	0.262000	0.796900
O121	O12	0.530600	0.373600	0.877700
C251	C25	0.194800	0.312100	0.620800
H251	H25	0.177700	0.287300	0.704900
C261	C26	0.244400	0.386800	0.619700
H261	H26	0.262000	0.412300	0.703100
O131	O13	0.373600	0.530600	0.622300
C271	C27	0.805200	0.687900	0.620800
H271	H27	0.822300	0.712700	0.704900
C281	C28	0.755600	0.613200	0.619700
H281	H28	0.738000	0.587700	0.703100
O141	O14	0.626400	0.469400	0.622300
C291	C29	0.312100	0.805200	0.620800
H291	H29	0.287300	0.822300	0.704900
C301	C30	0.386800	0.755600	0.619700
H301	H30	0.412300	0.738000	0.703100
O151	O15	0.530600	0.626400	0.622300
C311	C31	0.687900	0.194800	0.620800
H311	H31	0.712700	0.177700	0.704900
C321	C32	0.613200	0.244400	0.619700
H321	H32	0.587700	0.262000	0.703100
O161	O16	0.469400	0.373600	0.622300
Sm11	Sm1	0.500000	0.500000	0.250000
Sm21	Sm2	0.500000	0.500000	0.750000
S11	S1	0.321170	0.473990	0.000000
O171	O17	0.253000	0.410400	0.000000
C331	C33	0.268400	0.575500	0.000000
C341	C34	0.169700	0.727100	0.000000
C351	C35	0.259100	0.894500	0.000000
H331	H33	0.299900	0.848100	0.000000
N11	N1	0.130400	0.970000	0.000000
C361	C36	0.117100	0.809000	0.000000
C371	C37	0.163500	0.886700	0.000000
C381	C38	0.027400	0.803700	0.000000
C391	C39	0.277400	0.979900	0.000000
H341	H34	0.333900	0.004700	0.000000
S21	S2	0.678830	0.526010	0.000000
O181	O18	0.747000	0.589600	0.000000
C401	C40	0.731600	0.424500	0.000000
C411	C41	0.830300	0.272900	0.000000
C421	C42	0.740900	0.105500	0.000000
H351	H35	0.700100	0.151900	0.000000
N21	N2	0.869600	0.030000	0.000000
C431	C43	0.882900	0.191000	0.000000
C441	C44	0.836500	0.113300	0.000000
C451	C45	0.972600	0.196300	0.000000
C461	C46	0.722600	0.020100	0.000000
H361	H36	0.666100	0.995300	0.000000
S31	S3	0.526010	0.321170	0.000000
O191	O19	0.589600	0.253000	0.000000
C471	C47	0.424500	0.268400	0.000000
C481	C48	0.272900	0.169700	0.000000
C491	C49	0.105500	0.259100	0.000000
H371	H37	0.151900	0.299900	0.000000
N31	N3	0.030000	0.130400	0.000000
C501	C50	0.191000	0.117100	0.000000
C511	C51	0.113300	0.163500	0.000000
C521	C52	0.196300	0.027400	0.000000
C531	C53	0.020100	0.277400	0.000000
H381	H38	0.995300	0.333900	0.000000
S41	S4	0.473990	0.678830	0.000000
O201	O20	0.410400	0.747000	0.000000
C541	C54	0.575500	0.731600	0.000000
C551	C55	0.727100	0.830300	0.000000
C561	C56	0.894500	0.740900	0.000000
H391	H39	0.848100	0.700100	0.000000
N41	N4	0.970000	0.869600	0.000000
C571	C57	0.809000	0.882900	0.000000
C581	C58	0.886700	0.836500	0.000000
C591	C59	0.803700	0.972600	0.000000
C601	C60	0.979900	0.722600	0.000000
H401	H40	0.004700	0.666100	0.000000
S51	S5	0.678830	0.473990	0.500000
O211	O21	0.747000	0.410400	0.500000
C611	C61	0.731600	0.575500	0.500000
C621	C62	0.830300	0.727100	0.500000
C631	C63	0.740900	0.894500	0.500000
H411	H41	0.700100	0.848100	0.500000
N51	N5	0.869600	0.970000	0.500000
C641	C64	0.882900	0.809000	0.500000
C651	C65	0.836500	0.886700	0.500000
C661	C66	0.972600	0.803700	0.500000
C671	C67	0.722600	0.979900	0.500000
H421	H42	0.666100	0.004700	0.500000
S61	S6	0.321170	0.526010	0.500000
O221	O22	0.253000	0.589600	0.500000
C681	C68	0.268400	0.424500	0.500000
C691	C69	0.169700	0.272900	0.500000
C701	C70	0.259100	0.105500	0.500000
H431	H43	0.299900	0.151900	0.500000
N61	N6	0.130400	0.030000	0.500000
C711	C71	0.117100	0.191000	0.500000
C721	C72	0.163500	0.113300	0.500000
C731	C73	0.027400	0.196300	0.500000
C741	C74	0.277400	0.020100	0.500000
H441	H44	0.333900	0.995300	0.500000
S71	S7	0.473990	0.321170	0.500000
O231	O23	0.410400	0.253000	0.500000
C751	C75	0.575500	0.268400	0.500000
C761	C76	0.727100	0.169700	0.500000
C771	C77	0.894500	0.259100	0.500000
H451	H45	0.848100	0.299900	0.500000
N71	N7	0.970000	0.130400	0.500000
C781	C78	0.809000	0.117100	0.500000
C791	C79	0.886700	0.163500	0.500000
C801	C80	0.803700	0.027400	0.500000
C811	C81	0.979900	0.277400	0.500000
H461	H46	0.004700	0.333900	0.500000
S81	S8	0.526010	0.678830	0.500000
O241	O24	0.589600	0.747000	0.500000
C821	C82	0.424500	0.731600	0.500000
C831	C83	0.272900	0.830300	0.500000
C841	C84	0.105500	0.740900	0.500000
H471	H47	0.151900	0.700100	0.500000
N81	N8	0.030000	0.869600	0.500000
C851	C85	0.191000	0.882900	0.500000
C861	C86	0.113300	0.836500	0.500000
C871	C87	0.196300	0.972600	0.500000
C881	C88	0.020100	0.722600	0.500000
H481	H48	0.995300	0.666100	0.500000
O251	O25	0.000000	0.000000	0.250000
O261	O26	0.000000	0.000000	0.750000
V11	V1	0.000000	0.000000	0.088000
V21	V2	0.000000	0.000000	0.412000
V31	V3	0.000000	0.000000	0.912000
V41	V4	0.000000	0.000000	0.588000
