data_RANNUS_clean_PM
_symmetry_space_group_name_H-M	'P1'
_cell_length_a	10.391200
_cell_length_b	11.872300
_cell_length_c	11.879000
_cell_angle_alpha	82.379000
_cell_angle_beta	87.725000
_cell_angle_gamma	81.666000
_symmetry_Int_Tables_number 1

loop_
_symmetry_equiv_pos_as_xyz
'x,y,z'

loop_
_atom_site_label
_atom_site_type_symbol
_atom_site_fract_x
_atom_site_fract_y
_atom_site_fract_z
Nd11	Nd1	0.981040	0.077380	0.239290
P11	P1	0.701990	0.316650	0.278060
P21	P2	0.118610	0.116780	0.504620
P31	P3	0.846300	0.107440	0.965360
O11	O1	0.799900	0.215700	0.259100
O21	O2	0.564400	0.301200	0.244700
H11	H1	0.551300	0.330300	0.178800
O31	O3	0.739100	0.429500	0.220100
O41	O4	0.820900	0.330600	0.468300
H21	H2	0.819600	0.328900	0.537500
O51	O5	0.081700	0.073100	0.624000
O61	O6	0.010900	0.153600	0.420800
O71	O7	0.198100	0.219400	0.511500
H31	H3	0.202500	0.256400	0.448400
O81	O8	0.204400	0.009800	0.330000
H41	H4	0.245100	0.946600	0.313100
O91	O9	0.894000	0.070300	0.853400
O101	O10	0.944100	0.141100	0.039700
O111	O11	0.733400	0.209400	0.940000
H51	H5	0.755900	0.268400	0.956800
O121	O12	0.798300	0.990000	0.163800
H61	H6	0.756900	0.948500	0.211300
C11	C1	0.694400	0.319900	0.431400
H71	H7	0.671200	0.246300	0.467900
C21	C2	0.595200	0.414200	0.467900
C31	C3	0.474300	0.388800	0.503100
H81	H8	0.456200	0.314100	0.505200
C41	C4	0.621800	0.526700	0.464200
H91	H9	0.703400	0.545000	0.440000
C51	C5	0.227700	0.999900	0.448800
H101	H10	0.202600	0.926800	0.484600
C61	C6	0.369500	0.000400	0.473900
C71	C7	0.414600	0.958300	0.582200
H111	H11	0.357800	0.930200	0.638000
C81	C8	0.455700	0.042100	0.392600
H121	H12	0.426600	0.070900	0.320000
C91	C9	0.774300	0.987400	0.045900
H131	H13	0.820100	0.915400	0.023500
C101	C10	0.631100	0.992900	0.023800
C111	C11	0.539000	0.063200	0.079200
H141	H14	0.564900	0.105700	0.132500
C121	C12	0.592200	0.929300	0.944600
H151	H15	0.653800	0.881600	0.907400
Nd21	Nd2	0.018960	0.922620	0.760710
P41	P4	0.298010	0.683350	0.721940
P51	P5	0.881390	0.883220	0.495380
P61	P6	0.153700	0.892560	0.034640
O131	O13	0.200100	0.784300	0.740900
O141	O14	0.435600	0.698800	0.755300
H161	H16	0.448700	0.669700	0.821200
O151	O15	0.260900	0.570500	0.779900
O161	O16	0.179100	0.669400	0.531700
H171	H17	0.180400	0.671100	0.462500
O171	O17	0.918300	0.926900	0.376000
O181	O18	0.989100	0.846400	0.579200
O191	O19	0.801900	0.780600	0.488500
H181	H18	0.797500	0.743600	0.551600
O201	O20	0.795600	0.990200	0.670000
H191	H19	0.754900	0.053400	0.686900
O211	O21	0.106000	0.929700	0.146600
O221	O22	0.055900	0.858900	0.960300
O231	O23	0.266600	0.790600	0.060000
H201	H20	0.244100	0.731600	0.043200
O241	O24	0.201700	0.010000	0.836200
H211	H21	0.243100	0.051500	0.788700
C131	C13	0.305600	0.680100	0.568600
H221	H22	0.328800	0.753700	0.532100
C141	C14	0.404800	0.585800	0.532100
C151	C15	0.525700	0.611200	0.496900
H231	H23	0.543800	0.685900	0.494800
C161	C16	0.378200	0.473300	0.535800
H241	H24	0.296600	0.455000	0.560000
C171	C17	0.772300	0.000100	0.551200
H251	H25	0.797400	0.073200	0.515400
C181	C18	0.630500	0.999600	0.526100
C191	C19	0.585400	0.041700	0.417800
H261	H26	0.642200	0.069800	0.362000
C201	C20	0.544300	0.957900	0.607400
H271	H27	0.573400	0.929100	0.680000
C211	C21	0.225700	0.012600	0.954100
H281	H28	0.179900	0.084600	0.976500
C221	C22	0.368900	0.007100	0.976200
C231	C23	0.461000	0.936800	0.920800
H291	H29	0.435100	0.894300	0.867500
C241	C24	0.407800	0.070700	0.055400
H301	H30	0.346200	0.118400	0.092600
