data_RAPMOK_clean_PM
_symmetry_space_group_name_H-M	'P1'
_cell_length_a	15.356000
_cell_length_b	15.356000
_cell_length_c	12.617000
_cell_angle_alpha	90.000000
_cell_angle_beta	90.000000
_cell_angle_gamma	120.000000
_symmetry_Int_Tables_number 1

loop_
_symmetry_equiv_pos_as_xyz
'x,y,z'

loop_
_atom_site_label
_atom_site_type_symbol
_atom_site_fract_x
_atom_site_fract_y
_atom_site_fract_z
Zn11	Zn1	0.647600	0.682800	0.993200
Zn21	Zn2	0.771700	0.931600	0.194400
P11	P1	0.565300	0.739400	0.181300
P21	P2	0.843900	0.774100	0.129900
O11	O1	0.793000	0.752000	0.022000
O21	O2	0.783000	0.690000	0.208000
O31	O3	0.547000	0.655000	0.101000
O41	O4	0.608000	0.726000	0.287000
O51	O5	0.640000	0.840000	0.134000
O61	O6	0.946000	0.785000	0.109000
O71	O7	0.860000	0.871000	0.177000
O81	O8	0.470000	0.741000	0.206000
Zn31	Zn3	0.314270	0.016130	0.326530
Zn41	Zn4	0.438370	0.264930	0.527730
P31	P3	0.231970	0.072730	0.514630
P41	P4	0.510570	0.107430	0.463230
O91	O9	0.459670	0.085330	0.355330
O101	O10	0.449670	0.023330	0.541330
O111	O11	0.213670	0.988330	0.434330
O121	O12	0.274670	0.059330	0.620330
O131	O13	0.306670	0.173330	0.467330
O141	O14	0.612670	0.118330	0.442330
O151	O15	0.526670	0.204330	0.510330
O161	O16	0.136670	0.074330	0.539330
Zn51	Zn5	0.980930	0.349470	0.659870
Zn61	Zn6	0.105030	0.598270	0.861070
P51	P5	0.898630	0.406070	0.847970
P61	P6	0.177230	0.440770	0.796570
O171	O17	0.126330	0.418670	0.688670
O181	O18	0.116330	0.356670	0.874670
O191	O19	0.880330	0.321670	0.767670
O201	O20	0.941330	0.392670	0.953670
O211	O21	0.973330	0.506670	0.800670
O221	O22	0.279330	0.451670	0.775670
O231	O23	0.193330	0.537670	0.843670
O241	O24	0.803330	0.407670	0.872670
Zn71	Zn7	0.317200	0.964800	0.993200
Zn81	Zn8	0.068400	0.840100	0.194400
P71	P7	0.260600	0.825900	0.181300
P81	P8	0.225900	0.069800	0.129900
O251	O25	0.248000	0.041000	0.022000
O261	O26	0.310000	0.093000	0.208000
O271	O27	0.345000	0.892000	0.101000
O281	O28	0.274000	0.882000	0.287000
O291	O29	0.160000	0.800000	0.134000
O301	O30	0.215000	0.161000	0.109000
O311	O31	0.129000	0.989000	0.177000
O321	O32	0.259000	0.729000	0.206000
Zn91	Zn9	0.983870	0.298130	0.326530
Zn101	Zn10	0.735070	0.173430	0.527730
P91	P9	0.927270	0.159230	0.514630
P101	P10	0.892570	0.403130	0.463230
O331	O33	0.914670	0.374330	0.355330
O341	O34	0.976670	0.426330	0.541330
O351	O35	0.011670	0.225330	0.434330
O361	O36	0.940670	0.215330	0.620330
O371	O37	0.826670	0.133330	0.467330
O381	O38	0.881670	0.494330	0.442330
O391	O39	0.795670	0.322330	0.510330
O401	O40	0.925670	0.062330	0.539330
Zn111	Zn11	0.650530	0.631470	0.659870
Zn121	Zn12	0.401730	0.506770	0.861070
P111	P11	0.593930	0.492570	0.847970
P121	P12	0.559230	0.736470	0.796570
O411	O41	0.581330	0.707670	0.688670
O421	O42	0.643330	0.759670	0.874670
O431	O43	0.678330	0.558670	0.767670
O441	O44	0.607330	0.548670	0.953670
O451	O45	0.493330	0.466670	0.800670
O461	O46	0.548330	0.827670	0.775670
O471	O47	0.462330	0.655670	0.843670
O481	O48	0.592330	0.395670	0.872670
Zn131	Zn13	0.035200	0.352400	0.993200
Zn141	Zn14	0.159900	0.228300	0.194400
P131	P13	0.174100	0.434700	0.181300
P141	P14	0.930200	0.156100	0.129900
O491	O49	0.959000	0.207000	0.022000
O501	O50	0.907000	0.217000	0.208000
O511	O51	0.108000	0.453000	0.101000
O521	O52	0.118000	0.392000	0.287000
O531	O53	0.200000	0.360000	0.134000
O541	O54	0.839000	0.054000	0.109000
O551	O55	0.011000	0.140000	0.177000
O561	O56	0.271000	0.530000	0.206000
Zn151	Zn15	0.701870	0.685730	0.326530
Zn161	Zn16	0.826570	0.561630	0.527730
P151	P15	0.840770	0.768030	0.514630
P161	P16	0.596870	0.489430	0.463230
O571	O57	0.625670	0.540330	0.355330
O581	O58	0.573670	0.550330	0.541330
O591	O59	0.774670	0.786330	0.434330
O601	O60	0.784670	0.725330	0.620330
O611	O61	0.866670	0.693330	0.467330
O621	O62	0.505670	0.387330	0.442330
O631	O63	0.677670	0.473330	0.510330
O641	O64	0.937670	0.863330	0.539330
Zn171	Zn17	0.368530	0.019070	0.659870
Zn181	Zn18	0.493230	0.894970	0.861070
P171	P17	0.507430	0.101370	0.847970
P181	P18	0.263530	0.822770	0.796570
O651	O65	0.292330	0.873670	0.688670
O661	O66	0.240330	0.883670	0.874670
O671	O67	0.441330	0.119670	0.767670
O681	O68	0.451330	0.058670	0.953670
O691	O69	0.533330	0.026670	0.800670
O701	O70	0.172330	0.720670	0.775670
O711	O71	0.344330	0.806670	0.843670
O721	O72	0.604330	0.196670	0.872670
Zn191	Zn19	0.333330	0.666670	0.152100
Zn201	Zn20	0.000000	0.000000	0.485430
Zn211	Zn21	0.666670	0.333330	0.818770
