data_RARYOZ_clean_PM
_symmetry_space_group_name_H-M	'P1'
_cell_length_a	12.227500
_cell_length_b	14.432500
_cell_length_c	28.843000
_cell_angle_alpha	90.000000
_cell_angle_beta	90.000000
_cell_angle_gamma	90.000000
_symmetry_Int_Tables_number 1

loop_
_symmetry_equiv_pos_as_xyz
'x,y,z'

loop_
_atom_site_label
_atom_site_type_symbol
_atom_site_fract_x
_atom_site_fract_y
_atom_site_fract_z
Gd11	Gd1	0.126120	0.609660	0.842940
Gd21	Gd2	0.339970	0.926700	0.906700
Gd31	Gd3	0.626120	0.390340	0.157060
Gd41	Gd4	0.839970	0.073300	0.093300
Gd51	Gd5	0.126120	0.890340	0.342940
Gd61	Gd6	0.339970	0.573300	0.406700
Gd71	Gd7	0.626120	0.109660	0.657060
Gd81	Gd8	0.839970	0.426700	0.593300
Co11	Co1	0.325190	0.619660	0.036790
Co21	Co2	0.740120	0.829570	0.797100
Co31	Co3	0.825190	0.380340	0.963210
Co41	Co4	0.240120	0.170430	0.202900
Co51	Co5	0.325190	0.880340	0.536790
Co61	Co6	0.740120	0.670430	0.297100
Co71	Co7	0.825190	0.119660	0.463210
Co81	Co8	0.240120	0.329570	0.702900
H11	H1	0.149600	0.239200	0.895800
H21	H2	0.124000	0.122500	0.838800
H31	H3	0.152700	0.155800	0.762200
H41	H4	0.896800	0.320200	0.766900
H51	H5	0.851000	0.193000	0.814000
H61	H6	0.841200	0.216000	0.891200
H71	H7	0.728900	0.778100	0.964000
H81	H8	0.731300	0.626700	0.983100
H91	H9	0.579000	0.559800	0.017300
H101	H10	0.481500	0.563600	0.896100
H111	H11	0.663400	0.523400	0.876300
H121	H12	0.765400	0.631800	0.834800
H131	H13	0.984500	0.019600	0.942800
H141	H14	0.796600	0.052200	0.932800
H151	H15	0.699300	0.977800	0.880200
H161	H16	0.649600	0.760800	0.104200
H171	H17	0.624000	0.877500	0.161200
H181	H18	0.652700	0.844200	0.237800
H191	H19	0.396800	0.679800	0.233100
H201	H20	0.351000	0.807000	0.186000
H211	H21	0.341200	0.784000	0.108800
H221	H22	0.228900	0.221900	0.036000
H231	H23	0.231300	0.373300	0.016900
H241	H24	0.079000	0.440200	0.982700
H251	H25	0.981500	0.436400	0.103900
H261	H26	0.163400	0.476600	0.123700
H271	H27	0.265400	0.368200	0.165200
H281	H28	0.484500	0.980400	0.057200
H291	H29	0.296600	0.947800	0.067200
H301	H30	0.199300	0.022200	0.119800
H311	H31	0.149600	0.260800	0.395800
H321	H32	0.124000	0.377500	0.338800
H331	H33	0.152700	0.344200	0.262200
H341	H34	0.896800	0.179800	0.266900
H351	H35	0.851000	0.307000	0.314000
H361	H36	0.841200	0.284000	0.391200
H371	H37	0.728900	0.721900	0.464000
H381	H38	0.731300	0.873300	0.483100
H391	H39	0.579000	0.940200	0.517300
H401	H40	0.481500	0.936400	0.396100
H411	H41	0.663400	0.976600	0.376300
H421	H42	0.765400	0.868200	0.334800
H431	H43	0.984500	0.480400	0.442800
H441	H44	0.796600	0.447800	0.432800
H451	H45	0.699300	0.522200	0.380200
H461	H46	0.649600	0.739200	0.604200
H471	H47	0.624000	0.622500	0.661200
H481	H48	0.652700	0.655800	0.737800
H491	H49	0.396800	0.820200	0.733100
H501	H50	0.351000	0.693000	0.686000
H511	H51	0.341200	0.716000	0.608800
H521	H52	0.228900	0.278100	0.536000
H531	H53	0.231300	0.126700	0.516900
H541	H54	0.079000	0.059800	0.482700
H551	H55	0.981500	0.063600	0.603900
H561	H56	0.163400	0.023400	0.623700
H571	H57	0.265400	0.131800	0.665200
H581	H58	0.484500	0.519600	0.557200
H591	H59	0.296600	0.552200	0.567200
H601	H60	0.199300	0.477800	0.619800
C11	C1	0.213800	0.351800	0.803600
C21	C2	0.197400	0.337700	0.851700
C31	C3	0.162800	0.252200	0.864700
C41	C4	0.146700	0.181500	0.830000
C51	C5	0.164700	0.201400	0.784400
C61	C6	0.253900	0.440600	0.783900
C71	C7	0.216500	0.410700	0.886600
C81	C8	0.889900	0.418000	0.867700
C91	C9	0.906600	0.414900	0.819200
C101	C10	0.889700	0.327500	0.798800
C111	C11	0.862100	0.251500	0.826600
C121	C12	0.852600	0.267000	0.872100
C131	C13	0.910500	0.508600	0.895200
C141	C14	0.932200	0.494200	0.786400
C151	C15	0.478600	0.758400	0.995500
C161	C16	0.569000	0.801100	0.977500
C171	C17	0.665400	0.749900	0.974800
C181	C18	0.668000	0.661400	0.987300
C191	C19	0.575500	0.620700	0.006900
C201	C20	0.367200	0.803000	0.001100
C211	C21	0.568300	0.900800	0.962600
C221	C22	0.552300	0.749300	0.846000
C231	C23	0.484300	0.689500	0.868300
C241	C24	0.525200	0.605500	0.880100
C251	C25	0.634100	0.580600	0.868200
C261	C26	0.694500	0.646500	0.843900
C271	C27	0.516100	0.843600	0.830100
C281	C28	0.368900	0.710000	0.879800
C291	C29	0.922800	0.876900	0.860000
C301	C30	0.989400	0.922500	0.889300
C311	C31	0.942900	0.989800	0.920300
C321	C32	0.830400	0.007700	0.914400
C331	C33	0.772900	0.962700	0.883400
C341	C34	0.957600	0.792100	0.832200
C351	C35	0.112400	0.909600	0.892000
C361	C36	0.713800	0.648200	0.196400
C371	C37	0.697400	0.662300	0.148300
C381	C38	0.662800	0.747800	0.135300
C391	C39	0.646700	0.818500	0.170000
C401	C40	0.664700	0.798600	0.215600
C411	C41	0.753900	0.559400	0.216100
C421	C42	0.716500	0.589300	0.113400
C431	C43	0.389900	0.582000	0.132300
C441	C44	0.406600	0.585100	0.180800
C451	C45	0.389700	0.672500	0.201200
C461	C46	0.362100	0.748500	0.173400
C471	C47	0.352600	0.733000	0.127900
C481	C48	0.410500	0.491400	0.104800
C491	C49	0.432200	0.505800	0.213600
C501	C50	0.978600	0.241600	0.004500
C511	C51	0.069000	0.198900	0.022500
C521	C52	0.165400	0.250100	0.025200
C531	C53	0.168000	0.338600	0.012700
C541	C54	0.075500	0.379300	0.993100
C551	C55	0.867200	0.197000	0.998900
C561	C56	0.068300	0.099200	0.037400
C571	C57	0.052300	0.250700	0.154000
C581	C58	0.984300	0.310500	0.131700
C591	C59	0.025200	0.394500	0.119900
C601	C60	0.134100	0.419400	0.131800
C611	C61	0.194500	0.353500	0.156100
C621	C62	0.016100	0.156400	0.169900
C631	C63	0.868900	0.290000	0.120200
C641	C64	0.422800	0.123100	0.140000
C651	C65	0.489400	0.077500	0.110700
C661	C66	0.442900	0.010200	0.079700
C671	C67	0.330400	0.992300	0.085600
C681	C68	0.272900	0.037300	0.116600
C691	C69	0.457600	0.207900	0.167800
C701	C70	0.612400	0.090400	0.108000
C711	C71	0.213800	0.148200	0.303600
C721	C72	0.197400	0.162300	0.351700
C731	C73	0.162800	0.247800	0.364700
C741	C74	0.146700	0.318500	0.330000
C751	C75	0.164700	0.298600	0.284400
C761	C76	0.253900	0.059400	0.283900
C771	C77	0.216500	0.089300	0.386600
C781	C78	0.889900	0.082000	0.367700
C791	C79	0.906600	0.085100	0.319200
C801	C80	0.889700	0.172500	0.298800
C811	C81	0.862100	0.248500	0.326600
C821	C82	0.852600	0.233000	0.372100
C831	C83	0.910500	0.991400	0.395200
C841	C84	0.932200	0.005800	0.286400
C851	C85	0.478600	0.741600	0.495500
C861	C86	0.569000	0.698900	0.477500
C871	C87	0.665400	0.750100	0.474800
C881	C88	0.668000	0.838600	0.487300
C891	C89	0.575500	0.879300	0.506900
C901	C90	0.367200	0.697000	0.501100
C911	C91	0.568300	0.599200	0.462600
C921	C92	0.552300	0.750700	0.346000
C931	C93	0.484300	0.810500	0.368300
C941	C94	0.525200	0.894500	0.380100
C951	C95	0.634100	0.919400	0.368200
C961	C96	0.694500	0.853500	0.343900
C971	C97	0.516100	0.656400	0.330100
C981	C98	0.368900	0.790000	0.379800
C991	C99	0.922800	0.623100	0.360000
C1001	C100	0.989400	0.577500	0.389300
C1011	C101	0.942900	0.510200	0.420300
C1021	C102	0.830400	0.492300	0.414400
C1031	C103	0.772900	0.537300	0.383400
C1041	C104	0.957600	0.707900	0.332200
C1051	C105	0.112400	0.590400	0.392000
C1061	C106	0.713800	0.851800	0.696400
C1071	C107	0.697400	0.837700	0.648300
C1081	C108	0.662800	0.752200	0.635300
C1091	C109	0.646700	0.681500	0.670000
C1101	C110	0.664700	0.701400	0.715600
C1111	C111	0.753900	0.940600	0.716100
C1121	C112	0.716500	0.910700	0.613400
C1131	C113	0.389900	0.918000	0.632300
C1141	C114	0.406600	0.914900	0.680800
C1151	C115	0.389700	0.827500	0.701200
C1161	C116	0.362100	0.751500	0.673400
C1171	C117	0.352600	0.767000	0.627900
C1181	C118	0.410500	0.008600	0.604800
C1191	C119	0.432200	0.994200	0.713600
C1201	C120	0.978600	0.258400	0.504500
C1211	C121	0.069000	0.301100	0.522500
C1221	C122	0.165400	0.249900	0.525200
C1231	C123	0.168000	0.161400	0.512700
C1241	C124	0.075500	0.120700	0.493100
C1251	C125	0.867200	0.303000	0.498900
C1261	C126	0.068300	0.400800	0.537400
C1271	C127	0.052300	0.249300	0.654000
C1281	C128	0.984300	0.189500	0.631700
C1291	C129	0.025200	0.105500	0.619900
C1301	C130	0.134100	0.080600	0.631800
C1311	C131	0.194500	0.146500	0.656100
C1321	C132	0.016100	0.343600	0.669900
C1331	C133	0.868900	0.210000	0.620200
C1341	C134	0.422800	0.376900	0.640000
C1351	C135	0.489400	0.422500	0.610700
C1361	C136	0.442900	0.489800	0.579700
C1371	C137	0.330400	0.507700	0.585600
C1381	C138	0.272900	0.462700	0.616600
C1391	C139	0.457600	0.292100	0.667800
C1401	C140	0.612400	0.409600	0.608000
N11	N1	0.198900	0.284400	0.771000
N21	N2	0.858200	0.348800	0.891800
N31	N3	0.479800	0.668800	0.011000
N41	N4	0.655500	0.727400	0.833600
N51	N5	0.814400	0.895400	0.855600
N61	N6	0.698900	0.715600	0.229000
N71	N7	0.358200	0.651200	0.108200
N81	N8	0.979800	0.331200	0.989000
N91	N9	0.155500	0.272600	0.166400
N101	N10	0.314400	0.104600	0.144400
N111	N11	0.198900	0.215600	0.271000
N121	N12	0.858200	0.151200	0.391800
N131	N13	0.479800	0.831200	0.511000
N141	N14	0.655500	0.772600	0.333600
N151	N15	0.814400	0.604600	0.355600
N161	N16	0.698900	0.784400	0.729000
N171	N17	0.358200	0.848800	0.608200
N181	N18	0.979800	0.168800	0.489000
N191	N19	0.155500	0.227400	0.666400
N201	N20	0.314400	0.395400	0.644400
O11	O1	0.259700	0.511100	0.808700
O21	O2	0.286300	0.440500	0.741800
O31	O3	0.149100	0.477700	0.889500
O41	O4	0.293600	0.402500	0.913600
O51	O5	0.948700	0.580700	0.876200
O61	O6	0.880900	0.503700	0.937200
O71	O7	0.027700	0.528700	0.789000
O81	O8	0.861300	0.519100	0.759800
O91	O9	0.291500	0.755100	0.018800
O101	O10	0.354700	0.885500	0.986700
O111	O11	0.524600	0.922000	0.925800
O121	O12	0.621400	0.957600	0.987500
O131	O13	0.420900	0.870400	0.836900
O141	O14	0.586800	0.890100	0.806700
O151	O15	0.301500	0.662800	0.857600
O161	O16	0.344000	0.765700	0.910800
O171	O17	0.889900	0.763500	0.800800
O181	O18	0.046800	0.759100	0.841400
O191	O19	0.152100	0.880600	0.929600
O201	O20	0.171600	0.938800	0.859900
O211	O21	0.759700	0.488900	0.191300
O221	O22	0.786300	0.559500	0.258200
O231	O23	0.649100	0.522300	0.110500
O241	O24	0.793600	0.597500	0.086400
O251	O25	0.448700	0.419300	0.123800
O261	O26	0.380900	0.496300	0.062800
O271	O27	0.527700	0.471300	0.211000
O281	O28	0.361300	0.480900	0.240200
O291	O29	0.791500	0.244900	0.981200
O301	O30	0.854700	0.114500	0.013300
O311	O31	0.024600	0.078000	0.074200
O321	O32	0.121400	0.042400	0.012500
O331	O33	0.920900	0.129600	0.163100
O341	O34	0.086800	0.109900	0.193300
O351	O35	0.801500	0.337200	0.142400
O361	O36	0.844000	0.234300	0.089200
O371	O37	0.389900	0.236500	0.199200
O381	O38	0.546800	0.240900	0.158600
O391	O39	0.652100	0.119400	0.070400
O401	O40	0.671600	0.061200	0.140100
O411	O41	0.259700	0.988900	0.308700
O421	O42	0.286300	0.059500	0.241800
O431	O43	0.149100	0.022300	0.389500
O441	O44	0.293600	0.097500	0.413600
O451	O45	0.948700	0.919300	0.376200
O461	O46	0.880900	0.996300	0.437200
O471	O47	0.027700	0.971300	0.289000
O481	O48	0.861300	0.980900	0.259800
O491	O49	0.291500	0.744900	0.518800
O501	O50	0.354700	0.614500	0.486700
O511	O51	0.524600	0.578000	0.425800
O521	O52	0.621400	0.542400	0.487500
O531	O53	0.420900	0.629600	0.336900
O541	O54	0.586800	0.609900	0.306700
O551	O55	0.301500	0.837200	0.357600
O561	O56	0.344000	0.734300	0.410800
O571	O57	0.889900	0.736500	0.300800
O581	O58	0.046800	0.740900	0.341400
O591	O59	0.152100	0.619400	0.429600
O601	O60	0.171600	0.561200	0.359900
O611	O61	0.759700	0.011100	0.691300
O621	O62	0.786300	0.940500	0.758200
O631	O63	0.649100	0.977700	0.610500
O641	O64	0.793600	0.902500	0.586400
O651	O65	0.448700	0.080700	0.623800
O661	O66	0.380900	0.003700	0.562800
O671	O67	0.527700	0.028700	0.711000
O681	O68	0.361300	0.019100	0.740200
O691	O69	0.791500	0.255100	0.481200
O701	O70	0.854700	0.385500	0.513300
O711	O71	0.024600	0.422000	0.574200
O721	O72	0.121400	0.457600	0.512500
O731	O73	0.920900	0.370400	0.663100
O741	O74	0.086800	0.390100	0.693300
O751	O75	0.801500	0.162800	0.642400
O761	O76	0.844000	0.265700	0.589200
O771	O77	0.389900	0.263500	0.699200
O781	O78	0.546800	0.259100	0.658600
O791	O79	0.652100	0.380600	0.570400
O801	O80	0.671600	0.438800	0.640100
