data_RASGAT_clean_PM
_symmetry_space_group_name_H-M	'P1'
_cell_length_a	12.057000
_cell_length_b	24.891000
_cell_length_c	12.380000
_cell_angle_alpha	90.000000
_cell_angle_beta	93.040000
_cell_angle_gamma	90.000000
_symmetry_Int_Tables_number 1

loop_
_symmetry_equiv_pos_as_xyz
'x,y,z'

loop_
_atom_site_label
_atom_site_type_symbol
_atom_site_fract_x
_atom_site_fract_y
_atom_site_fract_z
Cu11	Cu1	0.677300	0.673000	0.758800
Cu21	Cu2	0.678500	0.761800	0.893000
Cu31	Cu3	0.851100	0.752300	0.743000
Cu41	Cu4	0.856400	0.678800	0.923000
Cu51	Cu5	0.825500	0.419100	0.388400
Cu61	Cu6	0.648800	0.431200	0.243300
Cu71	Cu7	0.665500	0.502500	0.421900
Cu81	Cu8	0.816600	0.511400	0.260400
I11	I1	0.879100	0.643800	0.717200
I21	I2	0.896800	0.784500	0.946900
I31	I3	0.634000	0.773600	0.684100
I41	I4	0.652900	0.663500	0.981700
I51	I5	0.611100	0.399700	0.445900
I61	I6	0.861000	0.412800	0.180100
I71	I7	0.885400	0.515100	0.471600
I81	I8	0.598300	0.536500	0.223500
S11	S1	0.531000	0.621600	0.683800
S21	S2	0.570100	0.817800	0.994800
S31	S3	0.074000	0.853500	0.512100
S41	S4	0.991900	0.628500	0.020600
N11	N1	0.891000	0.562500	0.171000
N21	N2	0.446000	0.884400	0.848000
N31	N3	0.946000	0.793000	0.653000
N41	N4	0.602000	0.551000	0.530000
C11	C1	0.934000	0.587000	0.108000
C21	C2	0.498000	0.856000	0.906000
C31	C3	0.001000	0.820800	0.597000
C41	C4	0.575000	0.579000	0.593000
Cu91	Cu9	0.322700	0.173000	0.241200
Cu101	Cu10	0.321500	0.261800	0.107000
Cu111	Cu11	0.148900	0.252300	0.257000
Cu121	Cu12	0.143600	0.178800	0.077000
Cu131	Cu13	0.174500	0.919100	0.611600
Cu141	Cu14	0.351200	0.931200	0.756700
Cu151	Cu15	0.334500	0.002500	0.578100
Cu161	Cu16	0.183400	0.011400	0.739600
I91	I9	0.120900	0.143800	0.282800
I101	I10	0.103200	0.284500	0.053100
I111	I11	0.366000	0.273600	0.315900
I121	I12	0.347100	0.163500	0.018300
I131	I13	0.388900	0.899700	0.554100
I141	I14	0.139000	0.912800	0.819900
I151	I15	0.114600	0.015100	0.528400
I161	I16	0.401700	0.036500	0.776500
S51	S5	0.469000	0.121600	0.316200
S61	S6	0.429900	0.317800	0.005200
S71	S7	0.926000	0.353500	0.487900
S81	S8	0.008100	0.128500	0.979400
N51	N5	0.109000	0.062500	0.829000
N61	N6	0.554000	0.384400	0.152000
N71	N7	0.054000	0.293000	0.347000
N81	N8	0.398000	0.051000	0.470000
C51	C5	0.066000	0.087000	0.892000
C61	C6	0.502000	0.356000	0.094000
C71	C7	0.999000	0.320800	0.403000
C81	C8	0.425000	0.079000	0.407000
