data_RASKIH_clean_PM
_symmetry_space_group_name_H-M	'P1'
_cell_length_a	8.869000
_cell_length_b	12.083100
_cell_length_c	19.612900
_cell_angle_alpha	85.240200
_cell_angle_beta	76.932600
_cell_angle_gamma	68.469800
_symmetry_Int_Tables_number 1

loop_
_symmetry_equiv_pos_as_xyz
'x,y,z'

loop_
_atom_site_label
_atom_site_type_symbol
_atom_site_fract_x
_atom_site_fract_y
_atom_site_fract_z
Mg11	Mg1	0.608080	0.528600	0.912220
Mg21	Mg2	0.861810	0.656540	0.975380
Mg31	Mg3	0.048900	0.471400	0.087780
Mg41	Mg4	0.493730	0.343460	0.024620
Mg51	Mg5	0.770300	0.028600	0.587780
Mg61	Mg6	0.087190	0.156540	0.524620
Mg71	Mg7	0.386680	0.971400	0.412220
Mg81	Mg8	0.768350	0.843460	0.475380
H11	H1	0.904700	0.756800	0.738000
H21	H2	0.739800	0.411200	0.091400
H31	H3	0.960800	0.418200	0.784800
H41	H4	0.943600	0.535400	0.589400
H51	H5	0.171300	0.827800	0.974200
H61	H6	0.983600	0.381400	0.668600
H71	H7	0.399500	0.243200	0.262000
H81	H8	0.242400	0.588800	0.908600
H91	H9	0.163800	0.581800	0.215200
H101	H10	0.068400	0.464600	0.410600
H111	H11	0.973300	0.172200	0.025800
H121	H12	0.033600	0.618600	0.331400
H131	H13	0.892700	0.256800	0.762000
H141	H14	0.081200	0.911200	0.408600
H151	H15	0.995600	0.918200	0.715200
H161	H16	0.783000	0.035400	0.910600
H171	H17	0.395500	0.327800	0.525800
H181	H18	0.902200	0.881400	0.831400
H191	H19	0.911500	0.743200	0.238000
H201	H20	0.401000	0.088800	0.591400
H211	H21	0.629000	0.081800	0.284800
H221	H22	0.729000	0.964600	0.089400
H231	H23	0.249100	0.672200	0.474200
H241	H24	0.615000	0.118600	0.168600
H251	H25	0.941000	0.000000	0.000000
H261	H26	0.469500	0.000000	0.000000
H271	H27	0.191000	0.500000	0.500000
H281	H28	0.719500	0.500000	0.500000
C11	C1	0.908400	0.614380	0.848420
C21	C2	0.344960	0.895220	0.984060
C31	C3	0.895000	0.761220	0.603180
C41	C4	0.922320	0.660640	0.655320
C51	C5	0.492190	0.782180	0.968440
C61	C6	0.916870	0.681460	0.724400
C71	C7	0.731330	0.464760	0.054380
C81	C8	0.952300	0.479740	0.752260
C91	C9	0.929250	0.590900	0.773600
C101	C10	0.943010	0.549240	0.635340
C111	C11	0.184290	0.897080	0.984540
C121	C12	0.962910	0.457980	0.683000
C131	C13	0.371200	0.385620	0.151580
C141	C14	0.224240	0.104780	0.015940
C151	C15	0.259400	0.238780	0.396820
C161	C16	0.238280	0.339360	0.344680
C171	C17	0.242810	0.217820	0.031560
C181	C18	0.322730	0.318540	0.275600
C191	C19	0.250470	0.535240	0.945620
C201	C20	0.184300	0.520260	0.247740
C211	C21	0.293750	0.409100	0.226400
C221	C22	0.127590	0.450760	0.364660
C231	C23	0.065910	0.102920	0.015460
C241	C24	0.103890	0.542020	0.317000
C251	C25	0.006820	0.114380	0.651580
C261	C26	0.579020	0.395220	0.515940
C271	C27	0.748180	0.261220	0.896820
C281	C28	0.827640	0.160640	0.844680
C291	C29	0.710630	0.282180	0.531560
C301	C30	0.891270	0.181460	0.775600
C311	C31	0.035710	0.964760	0.445620
C321	C32	0.954560	0.979740	0.747740
C331	C33	0.952850	0.090900	0.726400
C341	C34	0.828350	0.049240	0.864660
C351	C35	0.418830	0.397080	0.515460
C361	C36	0.895910	0.957980	0.817000
C371	C37	0.772780	0.885620	0.348420
C381	C38	0.490180	0.604780	0.484060
C391	C39	0.906220	0.738780	0.103180
C401	C40	0.832960	0.839360	0.155320
C411	C41	0.524370	0.717820	0.468440
C421	C42	0.848330	0.818540	0.224400
C431	C43	0.446090	0.035240	0.554380
C441	C44	0.682040	0.020260	0.252260
C451	C45	0.770150	0.909100	0.273600
C461	C46	0.742250	0.950760	0.135340
C471	C47	0.331370	0.602920	0.484540
C481	C48	0.670890	0.042020	0.183000
C491	C49	0.045900	0.000000	0.000000
C501	C50	0.364700	0.000000	0.000000
C511	C51	0.295900	0.500000	0.500000
C521	C52	0.614700	0.500000	0.500000
O11	O1	0.632450	0.464860	0.016440
O21	O2	0.900710	0.737260	0.541520
O31	O3	0.831030	0.561140	0.894000
O41	O4	0.963760	0.686880	0.868600
O51	O5	0.818790	0.527900	0.048120
O61	O6	0.859980	0.863840	0.626400
O71	O7	0.467570	0.696420	0.946240
O81	O8	0.631340	0.779240	0.978680
O91	O9	0.113750	0.535140	0.983560
O101	O10	0.179490	0.262740	0.458480
O111	O11	0.286170	0.438860	0.106000
O121	O12	0.519240	0.313120	0.131400
O131	O13	0.394810	0.472100	0.951880
O141	O14	0.350220	0.136160	0.373600
O151	O15	0.110230	0.303580	0.053760
O161	O16	0.389260	0.220760	0.021320
O171	O17	0.898890	0.964860	0.483560
O181	O18	0.692230	0.237260	0.958480
O191	O19	0.975030	0.061140	0.606000
O201	O20	0.082360	0.186880	0.631400
O211	O21	0.116910	0.027900	0.451880
O221	O22	0.736380	0.363840	0.873600
O231	O23	0.663810	0.196420	0.553760
O241	O24	0.860020	0.279240	0.521320
O251	O25	0.347310	0.035140	0.516440
O261	O26	0.887970	0.762740	0.041520
O271	O27	0.642170	0.938860	0.394000
O281	O28	0.900640	0.813120	0.368600
O291	O29	0.596690	0.972100	0.548120
O301	O30	0.973820	0.636160	0.126400
O311	O31	0.413990	0.803580	0.446240
O321	O32	0.660580	0.720760	0.478680
