data_RATSAI_clean_PM
_symmetry_space_group_name_H-M	'P1'
_cell_length_a	10.153700
_cell_length_b	17.435600
_cell_length_c	17.659400
_cell_angle_alpha	90.000000
_cell_angle_beta	90.000000
_cell_angle_gamma	90.000000
_symmetry_Int_Tables_number 1

loop_
_symmetry_equiv_pos_as_xyz
'x,y,z'

loop_
_atom_site_label
_atom_site_type_symbol
_atom_site_fract_x
_atom_site_fract_y
_atom_site_fract_z
Dy11	Dy1	0.661040	0.979100	0.220440
Dy21	Dy2	0.881990	0.178860	0.206250
Dy31	Dy3	0.338960	0.020900	0.720440
Dy41	Dy4	0.118010	0.821140	0.706250
Dy51	Dy5	0.838960	0.479100	0.220440
Dy61	Dy6	0.618010	0.678860	0.206250
Dy71	Dy7	0.161040	0.520900	0.720440
Dy81	Dy8	0.381990	0.321140	0.706250
H11	H1	0.633100	0.286900	0.401500
H21	H2	0.980000	0.857500	0.902700
H31	H3	0.622800	0.950000	0.417600
H41	H4	0.880300	0.876200	0.025500
H51	H5	0.536600	0.292700	0.528400
H61	H6	0.520400	0.967200	0.541200
H71	H7	0.366900	0.713100	0.901500
H81	H8	0.020000	0.142500	0.402700
H91	H9	0.377200	0.050000	0.917600
H101	H10	0.119700	0.123800	0.525500
H111	H11	0.463400	0.707300	0.028400
H121	H12	0.479600	0.032800	0.041200
H131	H13	0.866900	0.786900	0.401500
H141	H14	0.520000	0.357500	0.902700
H151	H15	0.877200	0.450000	0.417600
H161	H16	0.619700	0.376200	0.025500
H171	H17	0.963400	0.792700	0.528400
H181	H18	0.979600	0.467200	0.541200
H191	H19	0.133100	0.213100	0.901500
H201	H20	0.480000	0.642500	0.402700
H211	H21	0.122800	0.550000	0.917600
H221	H22	0.380300	0.623800	0.525500
H231	H23	0.036600	0.207300	0.028400
H241	H24	0.020400	0.532800	0.041200
C11	C1	0.109500	0.977100	0.828800
C21	C2	0.951000	0.983600	0.029700
C31	C3	0.597600	0.244800	0.426600
C41	C4	0.562800	0.820600	0.327500
C51	C5	0.984200	0.903300	0.929500
C61	C6	0.636900	0.143600	0.322300
C71	C7	0.045900	0.967900	0.903400
C81	C8	0.423300	0.866200	0.529400
C91	C9	0.563800	0.915400	0.438800
C101	C10	0.524200	0.848900	0.403900
C111	C11	0.501900	0.178600	0.525500
C121	C12	0.591400	0.173100	0.397100
C131	C13	0.928500	0.913900	0.000600
C141	C14	0.347700	0.858100	0.599300
C151	C15	0.543300	0.247800	0.500200
C161	C16	0.505000	0.925000	0.510200
C171	C17	0.904800	0.015700	0.104100
C181	C18	0.441100	0.162100	0.600200
C191	C19	0.890500	0.022900	0.328800
C201	C20	0.049000	0.016400	0.529700
C211	C21	0.402400	0.755200	0.926600
C221	C22	0.437200	0.179400	0.827500
C231	C23	0.015800	0.096700	0.429500
C241	C24	0.363100	0.856400	0.822300
C251	C25	0.954100	0.032100	0.403400
C261	C26	0.576700	0.133800	0.029400
C271	C27	0.436200	0.084600	0.938800
C281	C28	0.475800	0.151100	0.903900
C291	C29	0.498100	0.821400	0.025500
C301	C30	0.408600	0.826900	0.897100
C311	C31	0.071500	0.086100	0.500600
C321	C32	0.652300	0.141900	0.099300
C331	C33	0.456700	0.752200	0.000200
C341	C34	0.495000	0.075000	0.010200
C351	C35	0.095200	0.984300	0.604100
C361	C36	0.558900	0.837900	0.100200
C371	C37	0.390500	0.477100	0.828800
C381	C38	0.549000	0.483600	0.029700
C391	C39	0.902400	0.744800	0.426600
C401	C40	0.937200	0.320600	0.327500
C411	C41	0.515800	0.403300	0.929500
C421	C42	0.863100	0.643600	0.322300
C431	C43	0.454100	0.467900	0.903400
C441	C44	0.076700	0.366200	0.529400
C451	C45	0.936200	0.415400	0.438800
C461	C46	0.975800	0.348900	0.403900
C471	C47	0.998100	0.678600	0.525500
C481	C48	0.908600	0.673100	0.397100
C491	C49	0.571500	0.413900	0.000600
C501	C50	0.152300	0.358100	0.599300
C511	C51	0.956700	0.747800	0.500200
C521	C52	0.995000	0.425000	0.510200
C531	C53	0.595200	0.515700	0.104100
C541	C54	0.058900	0.662100	0.600200
C551	C55	0.609500	0.522900	0.328800
C561	C56	0.451000	0.516400	0.529700
C571	C57	0.097600	0.255200	0.926600
C581	C58	0.062800	0.679400	0.827500
C591	C59	0.484200	0.596700	0.429500
C601	C60	0.136900	0.356400	0.822300
C611	C61	0.545900	0.532100	0.403400
C621	C62	0.923300	0.633800	0.029400
C631	C63	0.063800	0.584600	0.938800
C641	C64	0.024200	0.651100	0.903900
C651	C65	0.001900	0.321400	0.025500
C661	C66	0.091400	0.326900	0.897100
C671	C67	0.428500	0.586100	0.500600
C681	C68	0.847700	0.641900	0.099300
C691	C69	0.043300	0.252200	0.000200
C701	C70	0.005000	0.575000	0.010200
C711	C71	0.404800	0.484300	0.604100
C721	C72	0.941100	0.337900	0.100200
S11	S1	0.038000	0.040520	0.967700
S21	S2	0.418800	0.797630	0.460220
S31	S3	0.517500	0.109830	0.457470
S41	S4	0.962000	0.959480	0.467700
S51	S5	0.581200	0.202370	0.960220
S61	S6	0.482500	0.890170	0.957470
S71	S7	0.462000	0.540520	0.967700
S81	S8	0.081200	0.297630	0.460220
S91	S9	0.982500	0.609830	0.457470
S101	S10	0.538000	0.459480	0.467700
S111	S11	0.918800	0.702370	0.960220
S121	S12	0.017500	0.390170	0.957470
O11	O1	0.175000	0.038100	0.816900
O21	O2	0.349200	0.915400	0.645300
O31	O3	0.847500	0.970100	0.147300
O41	O4	0.105400	0.923600	0.783700
O51	O5	0.618000	0.869300	0.285400
O61	O6	0.546300	0.752000	0.311600
O71	O7	0.410500	0.093000	0.614200
O81	O8	0.278200	0.801700	0.610700
O91	O9	0.932100	0.085700	0.115800
O101	O10	0.691400	0.192300	0.278400
O111	O11	0.442400	0.214000	0.647200
O121	O12	0.618000	0.075300	0.308400
O131	O13	0.825000	0.961900	0.316900
O141	O14	0.650800	0.084600	0.145300
O151	O15	0.152500	0.029900	0.647300
O161	O16	0.894600	0.076400	0.283700
O171	O17	0.382000	0.130700	0.785400
O181	O18	0.453700	0.248000	0.811600
O191	O19	0.589500	0.907000	0.114200
O201	O20	0.721800	0.198300	0.110700
O211	O21	0.067900	0.914300	0.615800
O221	O22	0.308600	0.807700	0.778400
O231	O23	0.557600	0.786000	0.147200
O241	O24	0.382000	0.924700	0.808400
O251	O25	0.325000	0.538100	0.816900
O261	O26	0.150800	0.415400	0.645300
O271	O27	0.652500	0.470100	0.147300
O281	O28	0.394600	0.423600	0.783700
O291	O29	0.882000	0.369300	0.285400
O301	O30	0.953700	0.252000	0.311600
O311	O31	0.089500	0.593000	0.614200
O321	O32	0.221800	0.301700	0.610700
O331	O33	0.567900	0.585700	0.115800
O341	O34	0.808600	0.692300	0.278400
O351	O35	0.057600	0.714000	0.647200
O361	O36	0.882000	0.575300	0.308400
O371	O37	0.675000	0.461900	0.316900
O381	O38	0.849200	0.584600	0.145300
O391	O39	0.347500	0.529900	0.647300
O401	O40	0.605400	0.576400	0.283700
O411	O41	0.118000	0.630700	0.785400
O421	O42	0.046300	0.748000	0.811600
O431	O43	0.910500	0.407000	0.114200
O441	O44	0.778200	0.698300	0.110700
O451	O45	0.432100	0.414300	0.615800
O461	O46	0.191400	0.307700	0.778400
O471	O47	0.942400	0.286000	0.147200
O481	O48	0.118000	0.424700	0.808400
