data_RAVDID_clean_PM
_symmetry_space_group_name_H-M	'P1'
_cell_length_a	9.227500
_cell_length_b	13.505600
_cell_length_c	14.612200
_cell_angle_alpha	90.000000
_cell_angle_beta	90.328000
_cell_angle_gamma	90.000000
_symmetry_Int_Tables_number 1

loop_
_symmetry_equiv_pos_as_xyz
'x,y,z'

loop_
_atom_site_label
_atom_site_type_symbol
_atom_site_fract_x
_atom_site_fract_y
_atom_site_fract_z
Gd11	Gd1	0.251080	0.002900	0.092750
C11	C1	0.003700	0.110700	0.328300
C21	C2	0.028800	0.204800	0.364900
H11	H1	0.094800	0.248700	0.336100
C31	C3	0.955900	0.233800	0.444300
C41	C4	0.865300	0.166700	0.488000
H21	H2	0.816400	0.186400	0.542000
C51	C5	0.844600	0.071300	0.454400
C61	C6	0.912100	0.045200	0.372400
H31	H3	0.894900	0.981700	0.346700
C71	C7	0.760200	0.997100	0.509700
H41	H4	0.830000	0.957200	0.545800
H51	H5	0.699400	0.033900	0.553800
C81	C8	0.664000	0.927400	0.457100
C91	C9	0.590200	0.956200	0.378700
H61	H6	0.607700	0.020100	0.353900
C101	C10	0.491600	0.894300	0.335800
C111	C11	0.465200	0.800100	0.371300
H71	H7	0.394600	0.758400	0.343700
C121	C12	0.543000	0.767700	0.447700
C131	C13	0.642500	0.831800	0.488900
H81	H8	0.697000	0.809300	0.540200
C141	C14	0.083100	0.074400	0.244900
C151	C15	0.976100	0.335700	0.485000
C161	C16	0.412100	0.932400	0.252200
C171	C17	0.524500	0.664500	0.486300
O11	O1	0.026800	0.007300	0.196800
O21	O2	0.205300	0.111900	0.226010
O31	O3	0.066000	0.392500	0.449400
O41	O4	0.898800	0.358100	0.553220
O51	O5	0.470200	0.002400	0.206280
O61	O6	0.292400	0.895300	0.230140
O71	O7	0.417100	0.616200	0.461500
O81	O8	0.619800	0.634500	0.541800
Gd21	Gd2	0.248920	0.502900	0.407250
C181	C18	0.496300	0.610700	0.171700
C191	C19	0.471200	0.704800	0.135100
H91	H9	0.405200	0.748700	0.163900
C201	C20	0.544100	0.733800	0.055700
C211	C21	0.634700	0.666700	0.012000
H101	H10	0.683600	0.686400	0.958000
C221	C22	0.655400	0.571300	0.045600
C231	C23	0.587900	0.545200	0.127600
H111	H11	0.605100	0.481700	0.153300
C241	C24	0.739800	0.497100	0.990300
H121	H12	0.670000	0.457200	0.954200
H131	H13	0.800600	0.533900	0.946200
C251	C25	0.836000	0.427400	0.042900
C261	C26	0.909800	0.456200	0.121300
H141	H14	0.892300	0.520100	0.146100
C271	C27	0.008400	0.394300	0.164200
C281	C28	0.034800	0.300100	0.128700
H151	H15	0.105400	0.258400	0.156300
C291	C29	0.957000	0.267700	0.052300
C301	C30	0.857500	0.331800	0.011100
H161	H16	0.803000	0.309300	0.959800
C311	C31	0.416900	0.574400	0.255100
C321	C32	0.523900	0.835700	0.015000
C331	C33	0.087900	0.432400	0.247800
C341	C34	0.975500	0.164500	0.013700
O91	O9	0.473200	0.507300	0.303200
O101	O10	0.294700	0.611900	0.273990
O111	O11	0.434000	0.892500	0.050600
O121	O12	0.601200	0.858100	0.946780
O131	O13	0.029800	0.502400	0.293720
O141	O14	0.207600	0.395300	0.269860
O151	O15	0.082900	0.116200	0.038500
O161	O16	0.880200	0.134500	0.958200
Gd31	Gd3	0.748920	0.997100	0.907250
C351	C35	0.996300	0.889300	0.671700
C361	C36	0.971200	0.795200	0.635100
H171	H17	0.905200	0.751300	0.663900
C371	C37	0.044100	0.766200	0.555700
C381	C38	0.134700	0.833300	0.512000
H181	H18	0.183600	0.813600	0.458000
C391	C39	0.155400	0.928700	0.545600
C401	C40	0.087900	0.954800	0.627600
H191	H19	0.105100	0.018300	0.653300
C411	C41	0.239800	0.002900	0.490300
H201	H20	0.170000	0.042800	0.454200
H211	H21	0.300600	0.966100	0.446200
C421	C42	0.336000	0.072600	0.542900
C431	C43	0.409800	0.043800	0.621300
H221	H22	0.392300	0.979900	0.646100
C441	C44	0.508400	0.105700	0.664200
C451	C45	0.534800	0.199900	0.628700
H231	H23	0.605400	0.241600	0.656300
C461	C46	0.457000	0.232300	0.552300
C471	C47	0.357500	0.168200	0.511100
H241	H24	0.303000	0.190700	0.459800
C481	C48	0.916900	0.925600	0.755100
C491	C49	0.023900	0.664300	0.515000
C501	C50	0.587900	0.067600	0.747800
C511	C51	0.475500	0.335500	0.513700
O171	O17	0.973200	0.992700	0.803200
O181	O18	0.794700	0.888100	0.773990
O191	O19	0.934000	0.607500	0.550600
O201	O20	0.101200	0.641900	0.446780
O211	O21	0.529800	0.997600	0.793720
O221	O22	0.707600	0.104700	0.769860
O231	O23	0.582900	0.383800	0.538500
O241	O24	0.380200	0.365500	0.458200
Gd41	Gd4	0.751080	0.497100	0.592750
C521	C52	0.503700	0.389300	0.828300
C531	C53	0.528800	0.295200	0.864900
H251	H25	0.594800	0.251300	0.836100
C541	C54	0.455900	0.266200	0.944300
C551	C55	0.365300	0.333300	0.988000
H261	H26	0.316400	0.313600	0.042000
C561	C56	0.344600	0.428700	0.954400
C571	C57	0.412100	0.454800	0.872400
H271	H27	0.394900	0.518300	0.846700
C581	C58	0.260200	0.502900	0.009700
H281	H28	0.330000	0.542800	0.045800
H291	H29	0.199400	0.466100	0.053800
C591	C59	0.164000	0.572600	0.957100
C601	C60	0.090200	0.543800	0.878700
H301	H30	0.107700	0.479900	0.853900
C611	C61	0.991600	0.605700	0.835800
C621	C62	0.965200	0.699900	0.871300
H311	H31	0.894600	0.741600	0.843700
C631	C63	0.043000	0.732300	0.947700
C641	C64	0.142500	0.668200	0.988900
H321	H32	0.197000	0.690700	0.040200
C651	C65	0.583100	0.425600	0.744900
C661	C66	0.476100	0.164300	0.985000
C671	C67	0.912100	0.567600	0.752200
C681	C68	0.024500	0.835500	0.986300
O251	O25	0.526800	0.492700	0.696800
O261	O26	0.705300	0.388100	0.726010
O271	O27	0.566000	0.107500	0.949400
O281	O28	0.398800	0.141900	0.053220
O291	O29	0.970200	0.497600	0.706280
O301	O30	0.792400	0.604700	0.730140
O311	O31	0.917100	0.883800	0.961500
O321	O32	0.119800	0.865500	0.041800
