data_RAVDAV_clean_PM
_symmetry_space_group_name_H-M	'P1'
_cell_length_a	9.216100
_cell_length_b	13.561800
_cell_length_c	14.662300
_cell_angle_alpha	90.000000
_cell_angle_beta	90.209000
_cell_angle_gamma	90.000000
_symmetry_Int_Tables_number 1

loop_
_symmetry_equiv_pos_as_xyz
'x,y,z'

loop_
_atom_site_label
_atom_site_type_symbol
_atom_site_fract_x
_atom_site_fract_y
_atom_site_fract_z
Sm11	Sm1	0.750750	0.997730	0.593060
C11	C1	0.503800	0.889100	0.829400
C21	C2	0.528400	0.795800	0.866000
H11	H1	0.595100	0.752200	0.837600
C31	C3	0.454800	0.766400	0.944700
C41	C4	0.363700	0.833400	0.988600
H21	H2	0.315100	0.813700	0.042700
C51	C5	0.342300	0.928600	0.955000
C61	C6	0.411500	0.954900	0.873800
H31	H3	0.395400	0.018500	0.848400
C71	C7	0.257400	0.002400	0.010000
H41	H4	0.195500	0.965700	0.053400
H51	H5	0.326900	0.041900	0.046400
C81	C8	0.162300	0.072400	0.957000
C91	C9	0.142600	0.167100	0.989700
H61	H6	0.196800	0.188700	0.041200
C101	C10	0.043400	0.231900	0.947700
C111	C11	0.966700	0.200000	0.870900
H71	H7	0.896200	0.241600	0.843300
C121	C12	0.993900	0.106700	0.834900
C131	C13	0.090600	0.043100	0.878500
H81	H8	0.107300	0.979200	0.854100
C141	C14	0.583000	0.925400	0.746000
C151	C15	0.474600	0.665400	0.985700
C161	C16	0.025500	0.334700	0.986000
C171	C17	0.913900	0.068400	0.752100
O11	O1	0.526300	0.992800	0.699300
O21	O2	0.704100	0.888200	0.727800
O31	O3	0.565400	0.608700	0.950300
O41	O4	0.398000	0.642900	0.053200
O51	O5	0.117200	0.362900	0.043200
O61	O6	0.921500	0.383700	0.958800
O71	O7	0.793700	0.106000	0.731000
O81	O8	0.971000	0.999400	0.705800
Sm21	Sm2	0.749250	0.497730	0.906940
C181	C18	0.996200	0.389100	0.670600
C191	C19	0.971600	0.295800	0.634000
H91	H9	0.904900	0.252200	0.662400
C201	C20	0.045200	0.266400	0.555300
C211	C21	0.136300	0.333400	0.511400
H101	H10	0.184900	0.313700	0.457300
C221	C22	0.157700	0.428600	0.545000
C231	C23	0.088500	0.454900	0.626200
H111	H11	0.104600	0.518500	0.651600
C241	C24	0.242600	0.502400	0.490000
H121	H12	0.304500	0.465700	0.446600
H131	H13	0.173100	0.541900	0.453600
C251	C25	0.337700	0.572400	0.543000
C261	C26	0.357400	0.667100	0.510300
H141	H14	0.303200	0.688700	0.458800
C271	C27	0.456600	0.731900	0.552300
C281	C28	0.533300	0.700000	0.629100
H151	H15	0.603800	0.741600	0.656700
C291	C29	0.506100	0.606700	0.665100
C301	C30	0.409400	0.543100	0.621500
H161	H16	0.392700	0.479200	0.645900
C311	C31	0.917000	0.425400	0.754000
C321	C32	0.025400	0.165400	0.514300
C331	C33	0.474500	0.834700	0.514000
C341	C34	0.586100	0.568400	0.747900
O91	O9	0.973700	0.492800	0.800700
O101	O10	0.795900	0.388200	0.772200
O111	O11	0.934600	0.108700	0.549700
O121	O12	0.102000	0.142900	0.446800
O131	O13	0.382800	0.862900	0.456800
O141	O14	0.578500	0.883700	0.541200
O151	O15	0.706300	0.606000	0.769000
O161	O16	0.529000	0.499400	0.794200
Sm31	Sm3	0.249250	0.002270	0.406940
C351	C35	0.496200	0.110900	0.170600
C361	C36	0.471600	0.204200	0.134000
H171	H17	0.404900	0.247800	0.162400
C371	C37	0.545200	0.233600	0.055300
C381	C38	0.636300	0.166600	0.011400
H181	H18	0.684900	0.186300	0.957300
C391	C39	0.657700	0.071400	0.045000
C401	C40	0.588500	0.045100	0.126200
H191	H19	0.604600	0.981500	0.151600
C411	C41	0.742600	0.997600	0.990000
H201	H20	0.804500	0.034300	0.946600
H211	H21	0.673100	0.958100	0.953600
C421	C42	0.837700	0.927600	0.043000
C431	C43	0.857400	0.832900	0.010300
H221	H22	0.803200	0.811300	0.958800
C441	C44	0.956600	0.768100	0.052300
C451	C45	0.033300	0.800000	0.129100
H231	H23	0.103800	0.758400	0.156700
C461	C46	0.006100	0.893300	0.165100
C471	C47	0.909400	0.956900	0.121500
H241	H24	0.892700	0.020800	0.145900
C481	C48	0.417000	0.074600	0.254000
C491	C49	0.525400	0.334600	0.014300
C501	C50	0.974500	0.665300	0.014000
C511	C51	0.086100	0.931600	0.247900
O171	O17	0.473700	0.007200	0.300700
O181	O18	0.295900	0.111800	0.272200
O191	O19	0.434600	0.391300	0.049700
O201	O20	0.602000	0.357100	0.946800
O211	O21	0.882800	0.637100	0.956800
O221	O22	0.078500	0.616300	0.041200
O231	O23	0.206300	0.894000	0.269000
O241	O24	0.029000	0.000600	0.294200
Sm41	Sm4	0.250750	0.502270	0.093060
C521	C52	0.003800	0.610900	0.329400
C531	C53	0.028400	0.704200	0.366000
H251	H25	0.095100	0.747800	0.337600
C541	C54	0.954800	0.733600	0.444700
C551	C55	0.863700	0.666600	0.488600
H261	H26	0.815100	0.686300	0.542700
C561	C56	0.842300	0.571400	0.455000
C571	C57	0.911500	0.545100	0.373800
H271	H27	0.895400	0.481500	0.348400
C581	C58	0.757400	0.497600	0.510000
H281	H28	0.695500	0.534300	0.553400
H291	H29	0.826900	0.458100	0.546400
C591	C59	0.662300	0.427600	0.457000
C601	C60	0.642600	0.332900	0.489700
H301	H30	0.696800	0.311300	0.541200
C611	C61	0.543400	0.268100	0.447700
C621	C62	0.466700	0.300000	0.370900
H311	H31	0.396200	0.258400	0.343300
C631	C63	0.493900	0.393300	0.334900
C641	C64	0.590600	0.456900	0.378500
H321	H32	0.607300	0.520800	0.354100
C651	C65	0.083000	0.574600	0.246000
C661	C66	0.974600	0.834600	0.485700
C671	C67	0.525500	0.165300	0.486000
C681	C68	0.413900	0.431600	0.252100
O251	O25	0.026300	0.507200	0.199300
O261	O26	0.204100	0.611800	0.227800
O271	O27	0.065400	0.891300	0.450300
O281	O28	0.898000	0.857100	0.553200
O291	O29	0.617200	0.137100	0.543200
O301	O30	0.421500	0.116300	0.458800
O311	O31	0.293700	0.394000	0.231000
O321	O32	0.471000	0.500600	0.205800
