data_RAVJOP_clean_PM
_symmetry_space_group_name_H-M	'P1'
_cell_length_a	18.804200
_cell_length_b	22.234000
_cell_length_c	25.964500
_cell_angle_alpha	90.000000
_cell_angle_beta	92.098000
_cell_angle_gamma	90.000000
_symmetry_Int_Tables_number 1

loop_
_symmetry_equiv_pos_as_xyz
'x,y,z'

loop_
_atom_site_label
_atom_site_type_symbol
_atom_site_fract_x
_atom_site_fract_y
_atom_site_fract_z
Cd11	Cd1	0.643590	0.553860	0.404400
Cd21	Cd2	0.744960	0.646040	0.496140
Cd31	Cd3	0.846190	0.567990	0.598660
Cd41	Cd4	0.493230	0.876890	0.745490
Cd51	Cd5	0.855180	0.312370	0.098510
Cd61	Cd6	0.748070	0.396650	0.002630
Cd71	Cd7	0.847230	0.809430	0.095810
Cd81	Cd8	0.856410	0.053860	0.595600
Cd91	Cd9	0.755040	0.146040	0.503860
Cd101	Cd10	0.653810	0.067990	0.401340
Cd111	Cd11	0.006770	0.376890	0.254510
Cd121	Cd12	0.644820	0.812370	0.901490
Cd131	Cd13	0.751930	0.896650	0.997370
Cd141	Cd14	0.652770	0.309430	0.904190
Cd151	Cd15	0.356410	0.446140	0.595600
Cd161	Cd16	0.255040	0.353960	0.503860
Cd171	Cd17	0.153810	0.432010	0.401340
Cd181	Cd18	0.506770	0.123110	0.254510
Cd191	Cd19	0.144820	0.687630	0.901490
Cd201	Cd20	0.251930	0.603350	0.997370
Cd211	Cd21	0.152770	0.190570	0.904190
Cd221	Cd22	0.143590	0.946140	0.404400
Cd231	Cd23	0.244960	0.853960	0.496140
Cd241	Cd24	0.346190	0.932010	0.598660
Cd251	Cd25	0.993230	0.623110	0.745490
Cd261	Cd26	0.355180	0.187630	0.098510
Cd271	Cd27	0.248070	0.103350	0.002630
Cd281	Cd28	0.347230	0.690570	0.095810
H11	H1	0.645300	0.560400	0.216500
H21	H2	0.672900	0.527300	0.135700
H31	H3	0.751900	0.374900	0.199700
H41	H4	0.721600	0.408200	0.279300
H51	H5	0.748100	0.619400	0.297300
H61	H6	0.773500	0.656600	0.218200
H71	H7	0.840600	0.810300	0.282700
H81	H8	0.815800	0.773900	0.362800
H91	H9	0.461000	0.704400	0.418700
H101	H10	0.392200	0.778900	0.454400
H111	H11	0.520200	0.779000	0.581000
H121	H12	0.589900	0.706600	0.544300
H131	H13	0.682700	0.795700	0.616000
H141	H14	0.648300	0.840700	0.691300
H151	H15	0.690800	0.687900	0.768100
H161	H16	0.726400	0.642800	0.693200
H171	H17	0.031900	0.464000	0.081700
H181	H18	0.898000	0.464100	0.957500
H191	H19	0.800800	0.432100	0.728500
H201	H20	0.771400	0.386300	0.804400
H211	H21	0.801600	0.543100	0.879200
H221	H22	0.837500	0.587400	0.803300
H231	H23	0.459100	0.451100	0.925800
H241	H24	0.607500	0.473700	0.038900
H251	H25	0.662600	0.393800	0.442000
H261	H26	0.699300	0.308500	0.485300
H271	H27	0.777000	0.313500	0.556200
H281	H28	0.821200	0.404300	0.585700
H291	H29	0.689600	0.148800	0.923700
H301	H30	0.737400	0.061500	0.956500
H311	H31	0.810400	0.060700	0.029800
H321	H32	0.841900	0.148700	0.071200
H331	H33	0.854700	0.060400	0.783500
H341	H34	0.827100	0.027300	0.864300
H351	H35	0.748100	0.874900	0.800300
H361	H36	0.778400	0.908200	0.720700
H371	H37	0.751900	0.119400	0.702700
H381	H38	0.726500	0.156600	0.781800
H391	H39	0.659400	0.310300	0.717300
H401	H40	0.684200	0.273900	0.637200
H411	H41	0.039000	0.204400	0.581300
H421	H42	0.107800	0.278900	0.545600
H431	H43	0.979800	0.279000	0.419000
H441	H44	0.910100	0.206600	0.455700
H451	H45	0.817300	0.295700	0.384000
H461	H46	0.851700	0.340700	0.308700
H471	H47	0.809200	0.187900	0.231900
H481	H48	0.773600	0.142800	0.306800
H491	H49	0.468100	0.964000	0.918300
H501	H50	0.602000	0.964100	0.042500
H511	H51	0.699200	0.932100	0.271500
H521	H52	0.728600	0.886300	0.195600
H531	H53	0.698400	0.043100	0.120800
H541	H54	0.662500	0.087400	0.196700
H551	H55	0.040900	0.951100	0.074200
H561	H56	0.892500	0.973700	0.961100
H571	H57	0.837400	0.893800	0.558000
H581	H58	0.800700	0.808500	0.514700
H591	H59	0.723000	0.813500	0.443800
H601	H60	0.678800	0.904300	0.414300
H611	H61	0.810400	0.648800	0.076300
H621	H62	0.762600	0.561500	0.043500
H631	H63	0.689600	0.560700	0.970200
H641	H64	0.658100	0.648700	0.928800
H651	H65	0.354700	0.439600	0.783500
H661	H66	0.327100	0.472700	0.864300
H671	H67	0.248100	0.625100	0.800300
H681	H68	0.278400	0.591800	0.720700
H691	H69	0.251900	0.380600	0.702700
H701	H70	0.226500	0.343400	0.781800
H711	H71	0.159400	0.189700	0.717300
H721	H72	0.184200	0.226100	0.637200
H731	H73	0.539000	0.295600	0.581300
H741	H74	0.607800	0.221100	0.545600
H751	H75	0.479800	0.221000	0.419000
H761	H76	0.410100	0.293400	0.455700
H771	H77	0.317300	0.204300	0.384000
H781	H78	0.351700	0.159300	0.308700
H791	H79	0.309200	0.312100	0.231900
H801	H80	0.273600	0.357200	0.306800
H811	H81	0.968100	0.536000	0.918300
H821	H82	0.102000	0.535900	0.042500
H831	H83	0.199200	0.567900	0.271500
H841	H84	0.228600	0.613700	0.195600
H851	H85	0.198400	0.456900	0.120800
H861	H86	0.162500	0.412600	0.196700
H871	H87	0.540900	0.548900	0.074200
H881	H88	0.392500	0.526300	0.961100
H891	H89	0.337400	0.606200	0.558000
H901	H90	0.300700	0.691500	0.514700
H911	H91	0.223000	0.686500	0.443800
H921	H92	0.178800	0.595700	0.414300
H931	H93	0.310400	0.851200	0.076300
H941	H94	0.262600	0.938500	0.043500
H951	H95	0.189600	0.939300	0.970200
H961	H96	0.158100	0.851300	0.928800
H971	H97	0.145300	0.939600	0.216500
H981	H98	0.172900	0.972700	0.135700
H991	H99	0.251900	0.125100	0.199700
H1001	H100	0.221600	0.091800	0.279300
H1011	H101	0.248100	0.880600	0.297300
H1021	H102	0.273500	0.843400	0.218200
H1031	H103	0.340600	0.689700	0.282700
H1041	H104	0.315800	0.726100	0.362800
H1051	H105	0.961000	0.795600	0.418700
H1061	H106	0.892200	0.721100	0.454400
H1071	H107	0.020200	0.721000	0.581000
H1081	H108	0.089900	0.793400	0.544300
H1091	H109	0.182700	0.704300	0.616000
H1101	H110	0.148300	0.659300	0.691300
H1111	H111	0.190800	0.812100	0.768100
H1121	H112	0.226400	0.857200	0.693200
H1131	H113	0.531900	0.036000	0.081700
H1141	H114	0.398000	0.035900	0.957500
H1151	H115	0.300800	0.067900	0.728500
H1161	H116	0.271400	0.113700	0.804400
H1171	H117	0.301600	0.956900	0.879200
H1181	H118	0.337500	0.912600	0.803300
H1191	H119	0.959100	0.048900	0.925800
H1201	H120	0.107500	0.026300	0.038900
H1211	H121	0.162600	0.106200	0.442000
H1221	H122	0.199300	0.191500	0.485300
H1231	H123	0.277000	0.186500	0.556200
H1241	H124	0.321200	0.095700	0.585700
H1251	H125	0.189600	0.351200	0.923700
H1261	H126	0.237400	0.438500	0.956500
H1271	H127	0.310400	0.439300	0.029800
H1281	H128	0.341900	0.351300	0.071200
C11	C1	0.659600	0.509000	0.309200
C21	C2	0.678700	0.487000	0.256200
C31	C3	0.665900	0.522700	0.212700
C41	C4	0.683000	0.503500	0.164500
C51	C5	0.716000	0.447100	0.159400
C61	C6	0.730000	0.412200	0.202900
C71	C7	0.711700	0.432000	0.250400
C81	C8	0.735500	0.424400	0.107200
C91	C9	0.759100	0.669300	0.390900
C101	C10	0.776500	0.692800	0.339000
C111	C11	0.766100	0.658200	0.294700
C121	C12	0.781900	0.680300	0.247300
C131	C13	0.810100	0.737300	0.241800
C141	C14	0.821800	0.771800	0.285700
C151	C15	0.806400	0.750300	0.333700
C161	C16	0.826200	0.761700	0.189200
C171	C17	0.578700	0.651100	0.453700
C181	C18	0.533300	0.699100	0.477300
C191	C19	0.473600	0.720000	0.451000
C201	C20	0.432000	0.764200	0.472600
C211	C21	0.449500	0.786600	0.521000
C221	C22	0.508500	0.764600	0.548100
C231	C23	0.550100	0.721300	0.526100
C241	C24	0.406400	0.837400	0.542900
C251	C25	0.730800	0.685000	0.598100
C261	C26	0.709200	0.714200	0.646700
C271	C27	0.684700	0.774000	0.646600
C281	C28	0.663400	0.800900	0.691600
C291	C29	0.664800	0.768600	0.736900
C301	C30	0.689100	0.709400	0.737400
C311	C31	0.710700	0.682500	0.692500
C321	C32	0.640600	0.797100	0.786700
C331	C33	0.915800	0.407900	0.046400
C341	C34	0.958400	0.456200	0.022900
C351	C35	0.019200	0.478200	0.048900
C361	C36	0.939000	0.478300	0.974600
C371	C37	0.842400	0.543800	0.708100
C381	C38	0.822400	0.514500	0.758400
C391	C39	0.802000	0.454200	0.759000
C401	C40	0.783500	0.426800	0.804300
C411	C41	0.783000	0.459800	0.850000
C421	C42	0.802500	0.520400	0.849200
C431	C43	0.823200	0.547300	0.803400
C441	C44	0.763300	0.430600	0.899800
C451	C45	0.584900	0.405800	0.955700
C461	C46	0.542000	0.455400	0.978200
C471	C47	0.475800	0.470800	0.955400
C481	C48	0.564300	0.484500	0.022900
C491	C49	0.720000	0.451300	0.487400
C501	C50	0.694100	0.396400	0.470400
C511	C51	0.716100	0.345800	0.496400
C521	C52	0.763300	0.348900	0.539500
C531	C53	0.789700	0.402400	0.557300
C541	C54	0.767300	0.454600	0.531000
C551	C55	0.738900	0.203400	0.976900
C561	C56	0.720200	0.149500	0.952600
C571	C57	0.748400	0.097800	0.972800
C581	C58	0.793300	0.097200	0.017100
C591	C59	0.812200	0.149100	0.041700
C601	C60	0.785500	0.203000	0.021300
C611	C61	0.840400	0.009000	0.690800
C621	C62	0.821300	0.987000	0.743800
C631	C63	0.834100	0.022700	0.787300
C641	C64	0.817000	0.003500	0.835500
C651	C65	0.784000	0.947100	0.840600
C661	C66	0.770000	0.912200	0.797100
C671	C67	0.788300	0.932000	0.749600
C681	C68	0.764500	0.924400	0.892800
C691	C69	0.740900	0.169300	0.609100
C701	C70	0.723500	0.192800	0.661000
C711	C71	0.733900	0.158200	0.705300
C721	C72	0.718100	0.180300	0.752700
C731	C73	0.689900	0.237300	0.758200
C741	C74	0.678200	0.271800	0.714300
C751	C75	0.693600	0.250300	0.666300
C761	C76	0.673800	0.261700	0.810800
C771	C77	0.921300	0.151100	0.546300
C781	C78	0.966700	0.199100	0.522700
C791	C79	0.026400	0.220000	0.549000
C801	C80	0.068000	0.264200	0.527400
C811	C81	0.050500	0.286600	0.479000
C821	C82	0.991500	0.264600	0.451900
C831	C83	0.949900	0.221300	0.473900
C841	C84	0.093600	0.337400	0.457100
C851	C85	0.769200	0.185000	0.401900
C861	C86	0.790800	0.214200	0.353300
C871	C87	0.815300	0.274000	0.353400
C881	C88	0.836600	0.300900	0.308400
C891	C89	0.835200	0.268600	0.263100
C901	C90	0.810900	0.209400	0.262600
C911	C91	0.789300	0.182500	0.307500
C921	C92	0.859400	0.297100	0.213300
C931	C93	0.584200	0.907900	0.953600
C941	C94	0.541600	0.956200	0.977100
C951	C95	0.480800	0.978200	0.951100
C961	C96	0.561000	0.978300	0.025400
C971	C97	0.657600	0.043800	0.291900
C981	C98	0.677600	0.014500	0.241600
C991	C99	0.698000	0.954200	0.241000
C1001	C100	0.716500	0.926800	0.195700
C1011	C101	0.717000	0.959800	0.150000
C1021	C102	0.697500	0.020400	0.150800
C1031	C103	0.676800	0.047300	0.196600
C1041	C104	0.736700	0.930600	0.100200
C1051	C105	0.915100	0.905800	0.044300
C1061	C106	0.958000	0.955400	0.021800
C1071	C107	0.024200	0.970800	0.044600
C1081	C108	0.935700	0.984500	0.977100
C1091	C109	0.780000	0.951300	0.512600
C1101	C110	0.805900	0.896400	0.529600
C1111	C111	0.783900	0.845800	0.503600
C1121	C112	0.736700	0.848900	0.460500
C1131	C113	0.710300	0.902400	0.442700
C1141	C114	0.732700	0.954600	0.469000
C1151	C115	0.761100	0.703400	0.023100
C1161	C116	0.779800	0.649500	0.047400
C1171	C117	0.751600	0.597800	0.027200
C1181	C118	0.706700	0.597200	0.982900
C1191	C119	0.687800	0.649100	0.958300
C1201	C120	0.714500	0.703000	0.978700
C1211	C121	0.340400	0.491000	0.690800
C1221	C122	0.321300	0.513000	0.743800
C1231	C123	0.334100	0.477300	0.787300
C1241	C124	0.317000	0.496500	0.835500
C1251	C125	0.284000	0.552900	0.840600
C1261	C126	0.270000	0.587800	0.797100
C1271	C127	0.288300	0.568000	0.749600
C1281	C128	0.264500	0.575600	0.892800
C1291	C129	0.240900	0.330700	0.609100
C1301	C130	0.223500	0.307200	0.661000
C1311	C131	0.233900	0.341800	0.705300
C1321	C132	0.218100	0.319700	0.752700
C1331	C133	0.189900	0.262700	0.758200
C1341	C134	0.178200	0.228200	0.714300
C1351	C135	0.193600	0.249700	0.666300
C1361	C136	0.173800	0.238300	0.810800
C1371	C137	0.421300	0.348900	0.546300
C1381	C138	0.466700	0.300900	0.522700
C1391	C139	0.526400	0.280000	0.549000
C1401	C140	0.568000	0.235800	0.527400
C1411	C141	0.550500	0.213400	0.479000
C1421	C142	0.491500	0.235400	0.451900
C1431	C143	0.449900	0.278700	0.473900
C1441	C144	0.593600	0.162600	0.457100
C1451	C145	0.269200	0.315000	0.401900
C1461	C146	0.290800	0.285800	0.353300
C1471	C147	0.315300	0.226000	0.353400
C1481	C148	0.336600	0.199100	0.308400
C1491	C149	0.335200	0.231400	0.263100
C1501	C150	0.310900	0.290600	0.262600
C1511	C151	0.289300	0.317500	0.307500
C1521	C152	0.359400	0.202900	0.213300
C1531	C153	0.084200	0.592100	0.953600
C1541	C154	0.041600	0.543800	0.977100
C1551	C155	0.980800	0.521800	0.951100
C1561	C156	0.061000	0.521700	0.025400
C1571	C157	0.157600	0.456200	0.291900
C1581	C158	0.177600	0.485500	0.241600
C1591	C159	0.198000	0.545800	0.241000
C1601	C160	0.216500	0.573200	0.195700
C1611	C161	0.217000	0.540200	0.150000
C1621	C162	0.197500	0.479600	0.150800
C1631	C163	0.176800	0.452700	0.196600
C1641	C164	0.236700	0.569400	0.100200
C1651	C165	0.415100	0.594200	0.044300
C1661	C166	0.458000	0.544600	0.021800
C1671	C167	0.524200	0.529200	0.044600
C1681	C168	0.435700	0.515500	0.977100
C1691	C169	0.280000	0.548700	0.512600
C1701	C170	0.305900	0.603600	0.529600
C1711	C171	0.283900	0.654200	0.503600
C1721	C172	0.236700	0.651100	0.460500
C1731	C173	0.210300	0.597600	0.442700
C1741	C174	0.232700	0.545400	0.469000
C1751	C175	0.261100	0.796600	0.023100
C1761	C176	0.279800	0.850500	0.047400
C1771	C177	0.251600	0.902200	0.027200
C1781	C178	0.206700	0.902800	0.982900
C1791	C179	0.187800	0.850900	0.958300
C1801	C180	0.214500	0.797000	0.978700
C1811	C181	0.159600	0.991000	0.309200
C1821	C182	0.178700	0.013000	0.256200
C1831	C183	0.165900	0.977300	0.212700
C1841	C184	0.183000	0.996500	0.164500
C1851	C185	0.216000	0.052900	0.159400
C1861	C186	0.230000	0.087800	0.202900
C1871	C187	0.211700	0.068000	0.250400
C1881	C188	0.235500	0.075600	0.107200
C1891	C189	0.259100	0.830700	0.390900
C1901	C190	0.276500	0.807200	0.339000
C1911	C191	0.266100	0.841800	0.294700
C1921	C192	0.281900	0.819700	0.247300
C1931	C193	0.310100	0.762700	0.241800
C1941	C194	0.321800	0.728200	0.285700
C1951	C195	0.306400	0.749700	0.333700
C1961	C196	0.326200	0.738300	0.189200
C1971	C197	0.078700	0.848900	0.453700
C1981	C198	0.033300	0.800900	0.477300
C1991	C199	0.973600	0.780000	0.451000
C2001	C200	0.932000	0.735800	0.472600
C2011	C201	0.949500	0.713400	0.521000
C2021	C202	0.008500	0.735400	0.548100
C2031	C203	0.050100	0.778700	0.526100
C2041	C204	0.906400	0.662600	0.542900
C2051	C205	0.230800	0.815000	0.598100
C2061	C206	0.209200	0.785800	0.646700
C2071	C207	0.184700	0.726000	0.646600
C2081	C208	0.163400	0.699100	0.691600
C2091	C209	0.164800	0.731400	0.736900
C2101	C210	0.189100	0.790600	0.737400
C2111	C211	0.210700	0.817500	0.692500
C2121	C212	0.140600	0.702900	0.786700
C2131	C213	0.415800	0.092100	0.046400
C2141	C214	0.458400	0.043800	0.022900
C2151	C215	0.519200	0.021800	0.048900
C2161	C216	0.439000	0.021700	0.974600
C2171	C217	0.342400	0.956200	0.708100
C2181	C218	0.322400	0.985500	0.758400
C2191	C219	0.302000	0.045800	0.759000
C2201	C220	0.283500	0.073200	0.804300
C2211	C221	0.283000	0.040200	0.850000
C2221	C222	0.302500	0.979600	0.849200
C2231	C223	0.323200	0.952700	0.803400
C2241	C224	0.263300	0.069400	0.899800
C2251	C225	0.084900	0.094200	0.955700
C2261	C226	0.042000	0.044600	0.978200
C2271	C227	0.975800	0.029200	0.955400
C2281	C228	0.064300	0.015500	0.022900
C2291	C229	0.220000	0.048700	0.487400
C2301	C230	0.194100	0.103600	0.470400
C2311	C231	0.216100	0.154200	0.496400
C2321	C232	0.263300	0.151100	0.539500
C2331	C233	0.289700	0.097600	0.557300
C2341	C234	0.267300	0.045400	0.531000
C2351	C235	0.238900	0.296600	0.976900
C2361	C236	0.220200	0.350500	0.952600
C2371	C237	0.248400	0.402200	0.972800
C2381	C238	0.293300	0.402800	0.017100
C2391	C239	0.312200	0.350900	0.041700
C2401	C240	0.285500	0.297000	0.021300
N11	N1	0.709500	0.508300	0.470380
N21	N2	0.748200	0.544500	0.501480
N31	N3	0.782900	0.513370	0.538350
N41	N4	0.719700	0.260800	0.967540
N51	N5	0.752000	0.294800	0.003370
N61	N6	0.791400	0.261570	0.036670
N71	N7	0.790500	0.008300	0.529620
N81	N8	0.751800	0.044500	0.498520
N91	N9	0.717100	0.013370	0.461650
N101	N10	0.780300	0.760800	0.032460
N111	N11	0.748000	0.794800	0.996630
N121	N12	0.708600	0.761570	0.963330
N131	N13	0.290500	0.491700	0.529620
N141	N14	0.251800	0.455500	0.498520
N151	N15	0.217100	0.486630	0.461650
N161	N16	0.280300	0.739200	0.032460
N171	N17	0.248000	0.705200	0.996630
N181	N18	0.208600	0.738430	0.963330
N191	N19	0.209500	0.991700	0.470380
N201	N20	0.248200	0.955500	0.501480
N211	N21	0.282900	0.986630	0.538350
N221	N22	0.219700	0.239200	0.967540
N231	N23	0.252000	0.205200	0.003370
N241	N24	0.291400	0.238430	0.036670
O11	O1	0.626900	0.558400	0.313300
O21	O2	0.677100	0.477200	0.347420
O31	O3	0.732000	0.459880	0.069210
O41	O4	0.750900	0.369620	0.103090
O51	O5	0.745900	0.614050	0.395630
O61	O6	0.760800	0.705420	0.428540
O71	O7	0.804700	0.732700	0.150640
O81	O8	0.860500	0.810600	0.186080
O91	O9	0.626400	0.626950	0.481280
O101	O10	0.567300	0.636500	0.407450
O111	O11	0.415100	0.849960	0.590640
O121	O12	0.364900	0.866140	0.513990
O131	O13	0.745300	0.629590	0.598420
O141	O14	0.730500	0.716040	0.557200
O151	O15	0.668600	0.773900	0.826700
O161	O16	0.598000	0.839710	0.786170
O171	O17	0.868600	0.382250	0.019340
O181	O18	0.928700	0.392900	0.093060
O191	O19	0.812100	0.521600	0.668320
O201	O20	0.886600	0.585860	0.706740
O211	O21	0.752100	0.374570	0.900200
O221	O22	0.762200	0.462990	0.939300
O231	O23	0.630700	0.379380	0.983720
O241	O24	0.574100	0.391100	0.909360
O251	O25	0.873100	0.058400	0.686700
O261	O26	0.822900	0.977200	0.652580
O271	O27	0.768000	0.959880	0.930790
O281	O28	0.749100	0.869620	0.896910
O291	O29	0.754100	0.114050	0.604370
O301	O30	0.739200	0.205420	0.571460
O311	O31	0.695300	0.232700	0.849360
O321	O32	0.639500	0.310600	0.813920
O331	O33	0.873600	0.126950	0.518720
O341	O34	0.932700	0.136500	0.592550
O351	O35	0.084900	0.349960	0.409360
O361	O36	0.135100	0.366140	0.486010
O371	O37	0.754700	0.129590	0.401580
O381	O38	0.769500	0.216040	0.442800
O391	O39	0.831400	0.273900	0.173300
O401	O40	0.902000	0.339710	0.213830
O411	O41	0.631400	0.882250	0.980660
O421	O42	0.571300	0.892900	0.906940
O431	O43	0.687900	0.021600	0.331680
O441	O44	0.613400	0.085860	0.293260
O451	O45	0.747900	0.874570	0.099800
O461	O46	0.737800	0.962990	0.060700
O471	O47	0.869300	0.879380	0.016280
O481	O48	0.925900	0.891100	0.090640
O491	O49	0.373100	0.441600	0.686700
O501	O50	0.322900	0.522800	0.652580
O511	O51	0.268000	0.540120	0.930790
O521	O52	0.249100	0.630380	0.896910
O531	O53	0.254100	0.385950	0.604370
O541	O54	0.239200	0.294580	0.571460
O551	O55	0.195300	0.267300	0.849360
O561	O56	0.139500	0.189400	0.813920
O571	O57	0.373600	0.373050	0.518720
O581	O58	0.432700	0.363500	0.592550
O591	O59	0.584900	0.150040	0.409360
O601	O60	0.635100	0.133860	0.486010
O611	O61	0.254700	0.370410	0.401580
O621	O62	0.269500	0.283960	0.442800
O631	O63	0.331400	0.226100	0.173300
O641	O64	0.402000	0.160290	0.213830
O651	O65	0.131400	0.617750	0.980660
O661	O66	0.071300	0.607100	0.906940
O671	O67	0.187900	0.478400	0.331680
O681	O68	0.113400	0.414140	0.293260
O691	O69	0.247900	0.625430	0.099800
O701	O70	0.237800	0.537010	0.060700
O711	O71	0.369300	0.620620	0.016280
O721	O72	0.425900	0.608900	0.090640
O731	O73	0.126900	0.941600	0.313300
O741	O74	0.177100	0.022800	0.347420
O751	O75	0.232000	0.040120	0.069210
O761	O76	0.250900	0.130380	0.103090
O771	O77	0.245900	0.885950	0.395630
O781	O78	0.260800	0.794580	0.428540
O791	O79	0.304700	0.767300	0.150640
O801	O80	0.360500	0.689400	0.186080
O811	O81	0.126400	0.873050	0.481280
O821	O82	0.067300	0.863500	0.407450
O831	O83	0.915100	0.650040	0.590640
O841	O84	0.864900	0.633860	0.513990
O851	O85	0.245300	0.870410	0.598420
O861	O86	0.230500	0.783960	0.557200
O871	O87	0.168600	0.726100	0.826700
O881	O88	0.098000	0.660290	0.786170
O891	O89	0.368600	0.117750	0.019340
O901	O90	0.428700	0.107100	0.093060
O911	O91	0.312100	0.978400	0.668320
O921	O92	0.386600	0.914140	0.706740
O931	O93	0.252100	0.125430	0.900200
O941	O94	0.262200	0.037010	0.939300
O951	O95	0.130700	0.120620	0.983720
O961	O96	0.074100	0.108900	0.909360
