data_RAVVUH_clean_PM
_symmetry_space_group_name_H-M	'P1'
_cell_length_a	6.848300
_cell_length_b	21.056100
_cell_length_c	21.056100
_cell_angle_alpha	61.159700
_cell_angle_beta	83.776200
_cell_angle_gamma	96.223800
_symmetry_Int_Tables_number 1

loop_
_symmetry_equiv_pos_as_xyz
'x,y,z'

loop_
_atom_site_label
_atom_site_type_symbol
_atom_site_fract_x
_atom_site_fract_y
_atom_site_fract_z
Mg11	Mg1	0.178280	0.696360	0.618690
Mg21	Mg2	0.796970	0.618690	0.684950
Mg31	Mg3	0.481920	0.684950	0.696360
Mg41	Mg4	0.821720	0.303640	0.381310
Mg51	Mg5	0.203030	0.381310	0.315050
Mg61	Mg6	0.518080	0.315050	0.303640
H11	H1	0.267480	0.885740	0.576380
H21	H2	0.988570	0.907800	0.498240
H31	H3	0.847010	0.016720	0.447170
H41	H4	0.843860	0.576380	0.537880
H51	H5	0.486810	0.498240	0.593960
H61	H6	0.294180	0.447170	0.536110
H71	H7	0.381740	0.537880	0.885740
H81	H8	0.080770	0.593960	0.907800
H91	H9	0.830290	0.536110	0.016720
H101	H10	0.732520	0.114260	0.423620
H111	H11	0.011430	0.092200	0.501760
H121	H12	0.152990	0.983280	0.552830
H131	H13	0.156140	0.423620	0.462120
H141	H14	0.513190	0.501760	0.406040
H151	H15	0.705820	0.552830	0.463890
H161	H16	0.618260	0.462120	0.114260
H171	H17	0.919230	0.406040	0.092200
H181	H18	0.169710	0.463890	0.983280
C11	C1	0.814120	0.758510	0.609290
C21	C2	0.712370	0.823600	0.578980
C31	C3	0.501960	0.818780	0.596930
C41	C4	0.425820	0.893090	0.558530
C51	C5	0.542820	0.964410	0.509760
C61	C6	0.746530	0.966220	0.487780
C71	C7	0.830050	0.902360	0.517340
C81	C8	0.423410	0.609290	0.632200
C91	C9	0.291350	0.578980	0.597420
C101	C10	0.098890	0.596930	0.584290
C111	C11	0.984350	0.558530	0.548380
C121	C12	0.052580	0.509760	0.525830
C131	C13	0.234310	0.487780	0.546000
C141	C14	0.347390	0.517340	0.580300
C151	C15	0.055610	0.632200	0.758510
C161	C16	0.888770	0.597420	0.823600
C171	C17	0.683180	0.584290	0.818780
C181	C18	0.532730	0.548380	0.893090
C191	C19	0.578410	0.525830	0.964410
C201	C20	0.780310	0.546000	0.966220
C211	C21	0.927690	0.580300	0.902360
C221	C22	0.185880	0.241490	0.390710
C231	C23	0.287630	0.176400	0.421020
C241	C24	0.498040	0.181220	0.403070
C251	C25	0.574180	0.106910	0.441470
C261	C26	0.457180	0.035590	0.490240
C271	C27	0.253470	0.033780	0.512220
C281	C28	0.169950	0.097640	0.482660
C291	C29	0.576590	0.390710	0.367800
C301	C30	0.708650	0.421020	0.402580
C311	C31	0.901110	0.403070	0.415710
C321	C32	0.015650	0.441470	0.451620
C331	C33	0.947420	0.490240	0.474170
C341	C34	0.765690	0.512220	0.454000
C351	C35	0.652610	0.482660	0.419700
C361	C36	0.944390	0.367800	0.241490
C371	C37	0.111230	0.402580	0.176400
C381	C38	0.316820	0.415710	0.181220
C391	C39	0.467270	0.451620	0.106910
C401	C40	0.421590	0.474170	0.035590
C411	C41	0.219690	0.454000	0.033780
C421	C42	0.072310	0.419700	0.097640
O11	O1	0.005760	0.769050	0.589290
O21	O2	0.716340	0.694050	0.652830
O31	O3	0.367430	0.752960	0.647870
O41	O4	0.595050	0.589290	0.641660
O51	O5	0.369170	0.652830	0.653120
O61	O6	0.015300	0.647870	0.599170
O71	O7	0.236710	0.641660	0.769050
O81	O8	0.022290	0.653120	0.694050
O91	O9	0.614470	0.599170	0.752960
O101	O10	0.994240	0.230950	0.410710
O111	O11	0.283660	0.305950	0.347170
O121	O12	0.632570	0.247040	0.352130
O131	O13	0.404950	0.410710	0.358340
O141	O14	0.630830	0.347170	0.346880
O151	O15	0.984700	0.352130	0.400830
O161	O16	0.763290	0.358340	0.230950
O171	O17	0.977710	0.346880	0.305950
O181	O18	0.385530	0.400830	0.247040
