data_RAVWIW_clean_PM
_symmetry_space_group_name_H-M	'P1'
_cell_length_a	6.818100
_cell_length_b	38.412200
_cell_length_c	38.412200
_cell_angle_alpha	60.346800
_cell_angle_beta	86.608000
_cell_angle_gamma	93.392000
_symmetry_Int_Tables_number 1

loop_
_symmetry_equiv_pos_as_xyz
'x,y,z'

loop_
_atom_site_label
_atom_site_type_symbol
_atom_site_fract_x
_atom_site_fract_y
_atom_site_fract_z
Mg11	Mg1	0.165800	0.363390	0.328280
Mg21	Mg2	0.837650	0.637240	0.671850
Mg31	Mg3	0.494080	0.328280	0.308330
Mg41	Mg4	0.509500	0.671850	0.690910
Mg51	Mg5	0.802410	0.308330	0.363390
Mg61	Mg6	0.200410	0.690910	0.637240
H11	H1	0.018970	0.450870	0.520760
H21	H2	0.115570	0.434620	0.567330
H31	H3	0.017760	0.481400	0.542020
H41	H4	0.372320	0.538540	0.377040
H51	H5	0.126990	0.544290	0.391880
H61	H6	0.325660	0.543850	0.419490
H71	H7	0.141340	0.346580	0.477310
H81	H8	0.123210	0.348410	0.521830
H91	H9	0.909270	0.354720	0.495560
H101	H10	0.645500	0.501900	0.442190
H111	H11	0.289680	0.405880	0.513150
H121	H12	0.061350	0.485690	0.381760
H131	H13	0.321870	0.560230	0.584640
H141	H14	0.538350	0.586970	0.613930
H151	H15	0.850480	0.621080	0.598060
H161	H16	0.150750	0.376530	0.407540
H171	H17	0.469960	0.413820	0.385820
H181	H18	0.681280	0.440490	0.416000
H191	H19	0.939570	0.513080	0.622360
H201	H20	0.702780	0.592700	0.491740
H211	H21	0.349720	0.496610	0.562660
H221	H22	0.084320	0.644260	0.508290
H231	H23	0.866560	0.650410	0.483060
H241	H24	0.854570	0.651880	0.527790
H251	H25	0.669670	0.454770	0.585410
H261	H26	0.870300	0.454370	0.612610
H271	H27	0.626050	0.460190	0.627850
H281	H28	0.977430	0.517230	0.462680
H291	H29	0.879190	0.563980	0.437490
H301	H30	0.976110	0.547700	0.484030
H311	H31	0.539730	0.520760	0.028370
H321	H32	0.682900	0.567330	0.998050
H331	H33	0.559780	0.542020	0.976580
H341	H34	0.749360	0.377040	0.084420
H351	H35	0.518870	0.391880	0.063830
H361	H36	0.745150	0.419490	0.036660
H371	H37	0.618650	0.477310	0.176110
H381	H38	0.645040	0.521830	0.129760
H391	H39	0.404830	0.495560	0.149720
H401	H40	0.087690	0.442190	0.055910
H411	H41	0.802830	0.513150	0.080970
H421	H42	0.443110	0.381760	0.132550
H431	H43	0.906510	0.584640	0.855130
H441	H44	0.152280	0.613930	0.799100
H451	H45	0.448540	0.598060	0.780860
H461	H46	0.558290	0.407540	0.215930
H471	H47	0.855780	0.385820	0.200360
H481	H48	0.097280	0.416000	0.143510
H491	H49	0.561930	0.622360	0.864560
H501	H50	0.194520	0.491740	0.915560
H511	H51	0.912380	0.562660	0.940730
H521	H52	0.592610	0.508290	0.847450
H531	H53	0.349620	0.483060	0.866530
H541	H54	0.382360	0.527790	0.820330
H551	H55	0.255080	0.585410	0.959820
H561	H56	0.482910	0.612610	0.933020
H571	H57	0.253900	0.627850	0.911960
H581	H58	0.440110	0.462680	0.020090
H591	H59	0.316680	0.437490	0.998530
H601	H60	0.460140	0.484030	0.968270
H611	H61	0.568100	0.028370	0.450870
H621	H62	0.680950	0.998050	0.434620
H631	H63	0.536360	0.976580	0.481400
H641	H64	0.833780	0.084420	0.538540
H651	H65	0.582700	0.063830	0.544290
H661	H66	0.781810	0.036660	0.543850
H671	H67	0.794760	0.176110	0.346580
H681	H68	0.774800	0.129760	0.348410
H691	H69	0.554550	0.149720	0.354720
H701	H70	0.143600	0.055910	0.501900
H711	H71	0.883800	0.080970	0.405880
H721	H72	0.575660	0.132550	0.485690
H731	H73	0.761640	0.855130	0.560230
H741	H74	0.951380	0.799100	0.586970
H751	H75	0.229400	0.780860	0.621080
H761	H76	0.774220	0.215930	0.376530
H771	H77	0.056140	0.200360	0.413820
H781	H78	0.240790	0.143510	0.440490
H791	H79	0.426490	0.864560	0.513080
H801	H80	0.110080	0.915560	0.592700
H811	H81	0.853110	0.940730	0.496610
H821	H82	0.440060	0.847450	0.644260
H831	H83	0.216150	0.866530	0.650410
H841	H84	0.202690	0.820330	0.651880
H851	H85	0.214900	0.959820	0.454770
H861	H86	0.415930	0.933020	0.454370
H871	H87	0.165860	0.911960	0.460190
H881	H88	0.460200	0.020090	0.517230
H891	H89	0.315210	0.998530	0.563980
H901	H90	0.428410	0.968270	0.547700
C11	C1	0.103640	0.460450	0.538140
C21	C2	0.265230	0.530770	0.402660
C31	C3	0.072190	0.361170	0.492110
C41	C4	0.688400	0.518400	0.485870
C51	C5	0.580590	0.500860	0.468450
C61	C6	0.390270	0.481980	0.484340
C71	C7	0.111440	0.468270	0.410480
C81	C8	0.222140	0.486840	0.426560
C91	C9	0.283500	0.464080	0.464460
C101	C10	0.239820	0.423230	0.484390
C111	C11	0.126940	0.404760	0.468440
C121	C12	0.060340	0.427690	0.431190
C131	C13	0.389850	0.595600	0.610500
C141	C14	0.265450	0.579650	0.594070
C151	C15	0.069790	0.588440	0.589990
C161	C16	0.999640	0.613320	0.602510
C171	C17	0.883960	0.368790	0.384800
C181	C18	0.685570	0.378620	0.378640
C191	C19	0.548550	0.365360	0.358240
C201	C20	0.449450	0.632990	0.643510
C211	C21	0.322220	0.620820	0.623540
C221	C22	0.122400	0.629960	0.618760
C231	C23	0.002260	0.384690	0.402320
C241	C24	0.931400	0.410400	0.413690
C251	C25	0.738450	0.420430	0.407520
C261	C26	0.617420	0.404720	0.390400
C271	C27	0.938040	0.571040	0.573010
C281	C28	0.868520	0.593920	0.536070
C291	C29	0.754320	0.575400	0.520340
C301	C30	0.711650	0.534520	0.540300
C311	C31	0.774840	0.511830	0.578030
C321	C32	0.887450	0.530460	0.593810
C331	C33	0.604890	0.516540	0.520490
C341	C34	0.414630	0.497660	0.536380
C351	C35	0.306770	0.480120	0.518960
C361	C36	0.921400	0.637590	0.512450
C371	C37	0.731780	0.467910	0.602060
C381	C38	0.891410	0.538120	0.466650
C391	C39	0.641780	0.538140	0.001410
C401	C40	0.667890	0.402660	0.066570
C411	C41	0.564300	0.492110	0.146720
C421	C42	0.174270	0.485870	0.995730
C431	C43	0.049040	0.468450	0.030690
C441	C44	0.874610	0.484340	0.033680
C451	C45	0.521920	0.410480	0.121250
C461	C46	0.648700	0.426560	0.086600
C471	C47	0.747960	0.464460	0.071460
C481	C48	0.724210	0.484390	0.092380
C491	C49	0.595380	0.468440	0.126800
C501	C50	0.491530	0.431190	0.141120
C511	C51	0.000350	0.610500	0.793900
C521	C52	0.859520	0.594070	0.826280
C531	C53	0.659780	0.589990	0.821570
C541	C54	0.602150	0.602510	0.784170
C551	C55	0.268760	0.384800	0.246410
C561	C56	0.064210	0.378640	0.242740
C571	C57	0.906790	0.358240	0.276400
C581	C58	0.092960	0.643510	0.723500
C591	C59	0.945760	0.623540	0.755640
C601	C60	0.741160	0.618760	0.751280
C611	C61	0.404580	0.402320	0.212990
C621	C62	0.345090	0.413690	0.175910
C631	C63	0.145970	0.407520	0.172050
C641	C64	0.007820	0.390400	0.204880
C651	C65	0.511050	0.573010	0.855950
C661	C66	0.404590	0.536070	0.870010
C671	C67	0.274660	0.520340	0.904260
C681	C68	0.251950	0.540300	0.925180
C691	C69	0.352870	0.578030	0.910140
C701	C70	0.481260	0.593810	0.875730
C711	C71	0.125380	0.520490	0.962970
C721	C72	0.951010	0.536380	0.965960
C731	C73	0.825730	0.518960	0.000920
C741	C74	0.433850	0.512450	0.849960
C751	C75	0.333840	0.602060	0.930030
C761	C76	0.358060	0.466650	0.995230
C771	C77	0.643190	0.001410	0.460450
C781	C78	0.734460	0.066570	0.530770
C791	C79	0.711020	0.146720	0.361170
C801	C80	0.170000	0.995730	0.518400
C811	C81	0.079730	0.030690	0.500860
C821	C82	0.908290	0.033680	0.481980
C831	C83	0.643170	0.121250	0.468270
C841	C84	0.735300	0.086600	0.486840
C851	C85	0.819420	0.071460	0.464080
C861	C86	0.816590	0.092380	0.423230
C871	C87	0.722180	0.126800	0.404760
C881	C88	0.632650	0.141120	0.427690
C891	C89	0.794250	0.793900	0.595600
C901	C90	0.685800	0.826280	0.579650
C911	C91	0.481350	0.821570	0.588440
C921	C92	0.386320	0.784170	0.613320
C931	C93	0.515170	0.246410	0.368790
C941	C94	0.306950	0.242740	0.378620
C951	C95	0.183190	0.276400	0.365360
C961	C96	0.816460	0.723500	0.632990
C971	C97	0.701400	0.755640	0.620820
C981	C98	0.492440	0.751280	0.629960
C991	C99	0.617570	0.212990	0.384690
C1001	C100	0.521000	0.175910	0.410400
C1011	C101	0.318020	0.172050	0.420430
C1021	C102	0.212700	0.204880	0.404720
C1031	C103	0.367000	0.855950	0.571040
C1041	C104	0.274600	0.870010	0.593920
C1051	C105	0.178920	0.904260	0.575400
C1061	C106	0.177130	0.925180	0.534520
C1071	C107	0.263010	0.910140	0.511830
C1081	C108	0.356990	0.875730	0.530460
C1091	C109	0.088350	0.962970	0.516540
C1101	C110	0.916970	0.965960	0.497660
C1111	C111	0.826650	0.000920	0.480120
C1121	C112	0.283810	0.849960	0.637590
C1131	C113	0.263870	0.930030	0.467910
C1141	C114	0.353290	0.995230	0.538120
O11	O1	0.968640	0.342140	0.376270
O21	O2	0.602110	0.343270	0.345120
O31	O3	0.375130	0.376710	0.353930
O41	O4	0.625490	0.623050	0.647130
O51	O5	0.389650	0.653340	0.658220
O61	O6	0.049850	0.653510	0.628270
O71	O7	0.344910	0.376270	0.281590
O81	O8	0.947230	0.345120	0.311610
O91	O9	0.729060	0.353930	0.269360
O101	O10	0.272620	0.647130	0.729820
O111	O11	0.047870	0.658220	0.688440
O121	O12	0.678120	0.628270	0.718220
O131	O13	0.626500	0.281590	0.342140
O141	O14	0.258840	0.311610	0.343270
O151	O15	0.998420	0.269360	0.376710
O161	O16	0.002440	0.729820	0.623050
O171	O17	0.736310	0.688440	0.653340
O181	O18	0.396340	0.718220	0.653510
