data_RAVWES_clean_PM
_symmetry_space_group_name_H-M	'P1'
_cell_length_a	6.694000
_cell_length_b	32.196700
_cell_length_c	32.196700
_cell_angle_alpha	60.475500
_cell_angle_beta	86.026100
_cell_angle_gamma	93.973900
_symmetry_Int_Tables_number 1

loop_
_symmetry_equiv_pos_as_xyz
'x,y,z'

loop_
_atom_site_label
_atom_site_type_symbol
_atom_site_fract_x
_atom_site_fract_y
_atom_site_fract_z
Mg11	Mg1	0.283740	0.370300	0.326280
Mg21	Mg2	0.714950	0.630180	0.672530
Mg31	Mg3	0.610020	0.326280	0.303420
Mg41	Mg4	0.387480	0.672530	0.697290
Mg51	Mg5	0.913440	0.303420	0.370300
Mg61	Mg6	0.084770	0.697290	0.630180
H11	H1	0.627650	0.519360	0.422810
H21	H2	0.967580	0.425300	0.512920
H31	H3	0.202830	0.537310	0.563250
H41	H4	0.423090	0.572140	0.600600
H51	H5	0.728140	0.615260	0.576580
H61	H6	0.272700	0.390300	0.420080
H71	H7	0.572380	0.429400	0.397050
H81	H8	0.789920	0.465580	0.433530
H91	H9	0.736200	0.621490	0.496260
H101	H10	0.645920	0.443900	0.559420
H111	H11	0.299570	0.471920	0.361840
H121	H12	0.558750	0.468470	0.375280
H131	H13	0.459140	0.526480	0.348510
H141	H14	0.270750	0.436050	0.587690
H151	H15	0.013110	0.438780	0.573140
H161	H16	0.169580	0.493860	0.559490
H171	H17	0.571660	0.628660	0.426450
H181	H18	0.348920	0.607510	0.470640
H191	H19	0.398800	0.577520	0.435850
H201	H20	0.791930	0.466150	0.642630
H211	H21	0.035230	0.480800	0.606640
H221	H22	0.857600	0.431520	0.613520
H231	H23	0.050460	0.422810	0.057830
H241	H24	0.480500	0.512920	0.061780
H251	H25	0.766080	0.563250	0.899440
H261	H26	0.023690	0.600600	0.827260
H271	H27	0.304720	0.576580	0.808160
H281	H28	0.692780	0.420080	0.189620
H291	H29	0.969430	0.397050	0.173550
H301	H30	0.223450	0.433530	0.100890
H311	H31	0.232460	0.496260	0.882250
H321	H32	0.205340	0.559420	0.996680
H331	H33	0.661410	0.361840	0.166240
H341	H34	0.934030	0.375280	0.156250
H351	H35	0.807650	0.348510	0.125010
H361	H36	0.858440	0.587690	0.976260
H371	H37	0.586250	0.573140	0.988080
H381	H38	0.729070	0.559490	0.946650
H391	H39	0.998110	0.426450	0.944890
H401	H40	0.819560	0.470640	0.921850
H411	H41	0.834650	0.435850	0.986630
H421	H42	0.434560	0.642630	0.891220
H431	H43	0.641870	0.606640	0.912560
H441	H44	0.471120	0.613520	0.954960
H451	H45	0.108290	0.057830	0.519360
H461	H46	0.542280	0.061780	0.425300
H471	H47	0.665520	0.899440	0.537310
H481	H48	0.850950	0.827260	0.572140
H491	H49	0.112880	0.808160	0.615260
H501	H50	0.882400	0.189620	0.390300
H511	H51	0.142980	0.173550	0.429400
H521	H52	0.324340	0.100890	0.465580
H531	H53	0.114710	0.882250	0.621490
H541	H54	0.202020	0.996680	0.443900
H551	H55	0.827650	0.166240	0.471920
H561	H56	0.090280	0.156250	0.468470
H571	H57	0.932660	0.125010	0.526480
H581	H58	0.834700	0.976260	0.436050
H591	H59	0.574330	0.988080	0.438780
H601	H60	0.675720	0.946650	0.493860
H611	H61	0.943000	0.944890	0.628660
H621	H62	0.741410	0.921850	0.607510
H631	H63	0.821280	0.986630	0.577520
H641	H64	0.325780	0.891220	0.466150
H651	H65	0.554430	0.912560	0.480800
H661	H66	0.426080	0.954960	0.431520
C11	C1	0.357290	0.478540	0.422790
C21	C2	0.479970	0.498220	0.442950
C31	C3	0.422800	0.492160	0.488160
C41	C4	0.238820	0.465660	0.513260
C51	C5	0.116050	0.446120	0.492970
C61	C6	0.174620	0.451980	0.448070
C71	C7	0.266270	0.581370	0.595640
C81	C8	0.144560	0.562050	0.575150
C91	C9	0.950460	0.572970	0.569180
C101	C10	0.882750	0.604710	0.582620
C111	C11	0.997630	0.378570	0.394040
C121	C12	0.799300	0.389500	0.387270
C131	C13	0.663730	0.372920	0.362710
C141	C14	0.334580	0.628320	0.635810
C151	C15	0.198830	0.612540	0.610640
C161	C16	0.001570	0.624190	0.603600
C171	C17	0.115830	0.399140	0.414220
C181	C18	0.044590	0.430650	0.427490
C191	C19	0.850380	0.440880	0.421850
C201	C20	0.729990	0.420770	0.401890
C211	C21	0.817480	0.551750	0.548530
C221	C22	0.714290	0.581600	0.511060
C231	C23	0.583710	0.562840	0.491490
C241	C24	0.557980	0.513380	0.508540
C251	C25	0.662070	0.483600	0.545810
C261	C26	0.786440	0.502160	0.566650
C271	C27	0.422640	0.486850	0.374160
C281	C28	0.168860	0.458140	0.561270
C291	C29	0.468830	0.596150	0.453820
C301	C30	0.873030	0.468110	0.609970
C311	C31	0.780080	0.422790	0.098670
C321	C32	0.922920	0.442950	0.058830
C331	C33	0.910960	0.488160	0.019680
C341	C34	0.752080	0.513260	0.021080
C351	C35	0.609020	0.492970	0.060910
C361	C36	0.622690	0.448070	0.099950
C371	C37	0.861910	0.595640	0.822990
C381	C38	0.719710	0.575150	0.862800
C391	C39	0.519640	0.569180	0.857850
C401	C40	0.465370	0.582620	0.812670
C411	C41	0.391670	0.394040	0.227390
C421	C42	0.186570	0.387270	0.223230
C431	C43	0.026440	0.362710	0.264370
C441	C44	0.970390	0.635810	0.735870
C451	C45	0.809470	0.610640	0.776820
C461	C46	0.605170	0.603600	0.772210
C471	C47	0.530050	0.414220	0.186640
C481	C48	0.472080	0.427490	0.141860
C491	C49	0.272230	0.421850	0.137270
C501	C50	0.131880	0.401890	0.177340
C511	C51	0.366010	0.548530	0.899720
C521	C52	0.225350	0.511060	0.907340
C531	C53	0.075200	0.491490	0.945670
C541	C54	0.066520	0.508540	0.978080
C551	C55	0.207880	0.545810	0.970590
C561	C56	0.353090	0.566650	0.931190
C571	C57	0.796800	0.374160	0.138990
C581	C58	0.730130	0.561270	0.980590
C591	C59	0.922650	0.453820	0.950030
C601	C60	0.483000	0.609970	0.921920
C611	C61	0.878750	0.098670	0.478540
C621	C62	0.981750	0.058830	0.498220
C631	C63	0.930640	0.019680	0.492160
C641	C64	0.773160	0.021080	0.465660
C651	C65	0.669930	0.060910	0.446120
C661	C66	0.722640	0.099950	0.451980
C671	C67	0.684900	0.822990	0.581370
C681	C68	0.582510	0.862800	0.562050
C691	C69	0.377490	0.857850	0.572970
C701	C70	0.278040	0.812670	0.604710
C711	C71	0.619060	0.227390	0.378570
C721	C72	0.409800	0.223230	0.389500
C731	C73	0.290810	0.264370	0.372920
C741	C74	0.706260	0.735870	0.628320
C751	C75	0.586290	0.776820	0.612540
C761	C76	0.377380	0.772210	0.624190
C771	C77	0.716690	0.186640	0.399140
C781	C78	0.613940	0.141860	0.430650
C791	C79	0.409500	0.137270	0.440880
C801	C80	0.309220	0.177340	0.420770
C811	C81	0.265730	0.899720	0.551750
C821	C82	0.132690	0.907340	0.581600
C831	C83	0.020870	0.945670	0.562840
C841	C84	0.044600	0.978080	0.513380
C851	C85	0.178470	0.970590	0.483600
C861	C86	0.284280	0.931190	0.502160
C871	C87	0.935790	0.138990	0.486850
C881	C88	0.710720	0.980590	0.458140
C891	C89	0.872680	0.950030	0.596150
C901	C90	0.404920	0.921920	0.468110
O11	O1	0.081330	0.345800	0.384340
O21	O2	0.717330	0.345840	0.347120
O31	O3	0.491620	0.386620	0.357300
O41	O4	0.507040	0.614760	0.640760
O51	O5	0.280610	0.654580	0.652410
O61	O6	0.918090	0.656250	0.614390
O71	O7	0.465670	0.384340	0.269860
O81	O8	0.064450	0.347120	0.307040
O91	O9	0.848920	0.357300	0.256080
O101	O10	0.147800	0.640760	0.744480
O111	O11	0.933020	0.652410	0.693010
O121	O12	0.532480	0.614390	0.729360
O131	O13	0.735530	0.269860	0.345800
O141	O14	0.371490	0.307040	0.345840
O151	O15	0.105000	0.256080	0.386620
O161	O16	0.892280	0.744480	0.614760
O171	O17	0.626030	0.693010	0.654580
O181	O18	0.261840	0.729360	0.656250
