data_RAVXIX_clean_PM
_symmetry_space_group_name_H-M	'P1'
_cell_length_a	6.944100
_cell_length_b	65.728300
_cell_length_c	65.728300
_cell_angle_alpha	60.123000
_cell_angle_beta	87.981800
_cell_angle_gamma	92.018200
_symmetry_Int_Tables_number 1

loop_
_symmetry_equiv_pos_as_xyz
'x,y,z'

loop_
_atom_site_label
_atom_site_type_symbol
_atom_site_fract_x
_atom_site_fract_y
_atom_site_fract_z
Mg11	Mg1	0.730980	0.351270	0.329570
Mg21	Mg2	0.286110	0.649630	0.669240
Mg31	Mg3	0.060550	0.329570	0.319160
Mg41	Mg4	0.955350	0.669240	0.681130
Mg51	Mg5	0.379710	0.319160	0.351270
Mg61	Mg6	0.636480	0.681130	0.649630
H11	H1	0.262970	0.507680	0.393280
H21	H2	0.353590	0.504250	0.369930
H31	H3	0.441400	0.486960	0.398090
H41	H4	0.497230	0.539970	0.369260
H51	H5	0.670240	0.520800	0.369290
H61	H6	0.772310	0.533070	0.395540
H71	H7	0.689610	0.503430	0.412280
H81	H8	0.372280	0.515050	0.421290
H91	H9	0.453480	0.544950	0.403940
H101	H10	0.721250	0.538820	0.429910
H111	H11	0.652370	0.508870	0.445950
H121	H12	0.300990	0.528890	0.447100
H131	H13	0.475080	0.549280	0.445890
H141	H14	0.877150	0.485810	0.485740
H151	H15	0.073730	0.505110	0.483470
H161	H16	0.953490	0.510840	0.458450
H171	H17	0.587190	0.432830	0.462100
H181	H18	0.466380	0.442960	0.435600
H191	H19	0.648150	0.460960	0.437730
H201	H20	0.056930	0.393940	0.484170
H211	H21	0.300010	0.398850	0.471740
H221	H22	0.210300	0.416400	0.482870
H231	H23	0.648970	0.456630	0.391670
H241	H24	0.792740	0.481930	0.385500
H251	H25	0.866660	0.465270	0.372920
H261	H26	0.458980	0.380360	0.450070
H271	H27	0.707390	0.379950	0.456590
H281	H28	0.581840	0.406160	0.445780
H291	H29	0.720630	0.410740	0.341610
H301	H30	0.773620	0.438010	0.339480
H311	H31	0.961250	0.418380	0.345500
H321	H32	0.392860	0.536130	0.526730
H331	H33	0.077830	0.529850	0.546250
H341	H34	0.559950	0.629190	0.578960
H351	H35	0.020830	0.572030	0.623620
H361	H36	0.599870	0.542890	0.480360
H371	H37	0.002300	0.478490	0.412960
H381	H38	0.027050	0.394520	0.445210
H391	H39	0.789010	0.608440	0.614610
H401	H40	0.999550	0.626270	0.629710
H411	H41	0.302700	0.637940	0.628330
H421	H42	0.773250	0.393410	0.310630
H431	H43	0.208920	0.607840	0.689160
H441	H44	0.714680	0.363400	0.372960
H451	H45	0.024830	0.379260	0.364520
H461	H46	0.229490	0.397680	0.379700
H471	H47	0.969360	0.608920	0.554130
H481	H48	0.992770	0.524850	0.587000
H491	H49	0.395250	0.460010	0.519790
H501	H50	0.985540	0.431910	0.375770
H511	H51	0.444780	0.374400	0.418970
H521	H52	0.917020	0.473160	0.453860
H531	H53	0.602170	0.466840	0.473310
H541	H54	0.059890	0.586830	0.653570
H551	H55	0.229740	0.565310	0.659200
H561	H56	0.308590	0.591720	0.657440
H571	H57	0.407460	0.597680	0.552400
H581	H58	0.285440	0.624070	0.542190
H591	H59	0.535790	0.623240	0.547990
H601	H60	0.132210	0.538410	0.626600
H611	H61	0.205020	0.521630	0.614110
H621	H62	0.348980	0.546980	0.607720
H631	H63	0.785470	0.586630	0.516840
H641	H64	0.696100	0.604380	0.527720
H651	H65	0.939250	0.609130	0.515370
H661	H66	0.347410	0.542270	0.562240
H671	H67	0.528830	0.560580	0.563960
H681	H68	0.407090	0.570250	0.537600
H691	H69	0.040920	0.492020	0.541870
H701	H70	0.921230	0.497690	0.516850
H711	H71	0.117950	0.516980	0.514570
H721	H72	0.519240	0.453630	0.554300
H731	H73	0.693870	0.473960	0.553090
H741	H74	0.342590	0.494100	0.554150
H751	H75	0.273870	0.464160	0.570290
H761	H76	0.541690	0.458140	0.596220
H771	H77	0.623250	0.488020	0.578730
H781	H78	0.306390	0.499790	0.587650
H791	H79	0.223200	0.470170	0.604530
H801	H80	0.325930	0.482630	0.630610
H811	H81	0.498300	0.463340	0.630760
H821	H82	0.555500	0.516330	0.601670
H831	H83	0.643030	0.499140	0.629870
H841	H84	0.733270	0.495490	0.606630
H851	H85	0.656250	0.393280	0.099040
H861	H86	0.723520	0.369930	0.125820
H871	H87	0.839490	0.398090	0.114950
H881	H88	0.866490	0.369260	0.090770
H891	H89	0.039530	0.369290	0.109910
H901	H90	0.167850	0.395540	0.071390
H911	H91	0.101890	0.412280	0.084290
H921	H92	0.793570	0.421290	0.063660
H931	H93	0.857420	0.403940	0.051110
H941	H94	0.151160	0.429910	0.031270
H951	H95	0.098320	0.445950	0.045180
H961	H96	0.748090	0.447100	0.024010
H971	H97	0.920970	0.445890	0.004830
H981	H98	0.362890	0.485740	0.028450
H991	H99	0.557200	0.483470	0.011420
H1001	H100	0.411940	0.458450	0.030710
H1011	H101	0.049290	0.462100	0.105070
H1021	H102	0.901980	0.435600	0.121440
H1031	H103	0.085880	0.437730	0.101310
H1041	H104	0.541100	0.484170	0.121890
H1051	H105	0.771750	0.471740	0.129410
H1061	H106	0.693170	0.482870	0.100730
H1071	H107	0.040640	0.391670	0.151700
H1081	H108	0.178240	0.385500	0.132570
H1091	H109	0.239580	0.372920	0.161810
H1101	H110	0.909050	0.450070	0.169570
H1111	H111	0.163980	0.456590	0.163460
H1121	H112	0.027620	0.445780	0.148060
H1131	H113	0.062240	0.341610	0.247650
H1141	H114	0.113100	0.339480	0.222510
H1151	H115	0.306750	0.345500	0.236120
H1161	H116	0.919590	0.526730	0.937140
H1171	H117	0.624080	0.546250	0.923900
H1181	H118	0.138910	0.578960	0.791850
H1191	H119	0.644450	0.623620	0.804350
H1201	H120	0.080230	0.480360	0.976750
H1211	H121	0.415260	0.412960	0.108550
H1221	H122	0.472260	0.445210	0.160270
H1231	H123	0.403620	0.614610	0.776950
H1241	H124	0.629260	0.629710	0.744020
H1251	H125	0.931030	0.628330	0.733730
H1261	H126	0.083880	0.310630	0.295960
H1271	H127	0.898080	0.689160	0.703000
H1281	H128	0.087640	0.372960	0.263640
H1291	H129	0.389350	0.364520	0.256220
H1301	H130	0.609190	0.379700	0.222620
H1311	H131	0.523490	0.554130	0.836950
H1321	H132	0.579770	0.587000	0.888150
H1331	H133	0.915040	0.519790	0.020200
H1341	H134	0.361310	0.375770	0.192320
H1351	H135	0.863750	0.418970	0.206630
H1361	H136	0.370880	0.453860	0.072980
H1371	H137	0.075480	0.473310	0.059850
H1381	H138	0.713460	0.653570	0.759600
H1391	H139	0.888940	0.659200	0.775490
H1401	H140	0.966030	0.657440	0.750840
H1411	H141	0.959860	0.552400	0.849920
H1421	H142	0.827630	0.542190	0.833740
H1431	H143	0.083780	0.547990	0.828770
H1441	H144	0.758810	0.626600	0.834990
H1451	H145	0.819130	0.614110	0.864260
H1461	H146	0.956700	0.607720	0.845300
H1471	H147	0.302310	0.516840	0.896530
H1481	H148	0.223820	0.527720	0.867900
H1491	H149	0.454620	0.515370	0.875500
H1501	H150	0.909650	0.562240	0.895490
H1511	H151	0.092790	0.563960	0.875460
H1521	H152	0.944690	0.537600	0.892150
H1531	H153	0.582790	0.541870	0.966110
H1541	H154	0.438080	0.516850	0.985460
H1551	H155	0.632520	0.514570	0.968450
H1561	H156	0.073540	0.554300	0.992070
H1571	H157	0.246960	0.553090	0.972950
H1581	H158	0.896740	0.554150	0.951750
H1591	H159	0.844160	0.570290	0.965550
H1601	H160	0.137910	0.596220	0.945640
H1611	H161	0.201980	0.578730	0.933250
H1621	H162	0.894040	0.587650	0.912560
H1631	H163	0.827730	0.604530	0.925300
H1641	H164	0.956540	0.630610	0.886760
H1651	H165	0.129060	0.630760	0.905900
H1661	H166	0.157170	0.601670	0.882000
H1671	H167	0.272900	0.629870	0.870990
H1681	H168	0.339900	0.606630	0.897880
H1691	H169	0.755290	0.099040	0.507680
H1701	H170	0.849340	0.125820	0.504250
H1711	H171	0.954440	0.114950	0.486960
H1721	H172	0.957260	0.090770	0.539970
H1731	H173	0.149440	0.109910	0.520800
H1741	H174	0.239240	0.071390	0.533070
H1751	H175	0.186180	0.084290	0.503430
H1761	H176	0.857230	0.063660	0.515050
H1771	H177	0.908530	0.051110	0.544950
H1781	H178	0.182430	0.031270	0.538820
H1791	H179	0.143500	0.045180	0.508870
H1801	H180	0.772100	0.024010	0.528890
H1811	H181	0.925800	0.004830	0.549280
H1821	H182	0.391340	0.028450	0.485810
H1831	H183	0.568620	0.011420	0.505110
H1841	H184	0.442650	0.030710	0.510840
H1851	H185	0.154360	0.105070	0.432830
H1861	H186	0.023420	0.121440	0.442960
H1871	H187	0.187190	0.101310	0.460960
H1881	H188	0.662990	0.121890	0.393940
H1891	H189	0.901160	0.129410	0.398850
H1901	H190	0.793900	0.100730	0.416400
H1911	H191	0.192340	0.151700	0.456630
H1921	H192	0.310810	0.132570	0.481930
H1931	H193	0.401390	0.161810	0.465270
H1941	H194	0.078620	0.169570	0.380360
H1951	H195	0.327440	0.163460	0.379950
H1961	H196	0.175680	0.148060	0.406160
H1971	H197	0.309890	0.247650	0.410740
H1981	H198	0.335610	0.222510	0.438010
H1991	H199	0.542870	0.236120	0.418380
H2001	H200	0.856730	0.937140	0.536130
H2011	H201	0.547980	0.923900	0.529850
H2021	H202	0.930760	0.791850	0.629190
H2031	H203	0.448800	0.804350	0.572030
H2041	H204	0.056980	0.976750	0.542890
H2051	H205	0.523810	0.108550	0.478490
H2061	H206	0.632530	0.160270	0.394520
H2071	H207	0.180570	0.776950	0.608440
H2081	H208	0.373280	0.744020	0.626270
H2091	H209	0.664760	0.733730	0.637940
H2101	H210	0.379840	0.295960	0.393410
H2111	H211	0.601080	0.703000	0.607840
H2121	H212	0.351280	0.263640	0.363400
H2131	H213	0.645570	0.256220	0.379260
H2141	H214	0.831810	0.222620	0.397680
H2151	H215	0.360440	0.836950	0.608920
H2161	H216	0.467920	0.888150	0.524850
H2171	H217	0.935240	0.020200	0.460010
H2181	H218	0.553630	0.192320	0.431910
H2191	H219	0.070380	0.206630	0.374400
H2201	H220	0.443860	0.072980	0.473160
H2211	H221	0.135330	0.059850	0.466840
H2221	H222	0.473060	0.759600	0.586830
H2231	H223	0.664430	0.775490	0.565310
H2241	H224	0.716870	0.750840	0.591720
H2251	H225	0.809780	0.849920	0.597680
H2261	H226	0.661370	0.833740	0.624070
H2271	H227	0.912550	0.828770	0.623240
H2281	H228	0.593800	0.834990	0.538410
H2291	H229	0.683390	0.864260	0.521630
H2301	H230	0.802000	0.845300	0.546980
H2311	H231	0.198840	0.896530	0.586630
H2321	H232	0.091720	0.867900	0.604380
H2331	H233	0.330120	0.875500	0.609130
H2341	H234	0.805140	0.895490	0.542270
H2351	H235	0.968250	0.875460	0.560580
H2361	H236	0.836840	0.892150	0.570250
H2371	H237	0.548900	0.966110	0.492020
H2381	H238	0.423540	0.985460	0.497690
H2391	H239	0.600970	0.968450	0.516980
H2401	H240	0.065610	0.992070	0.453630
H2411	H241	0.219910	0.972950	0.473960
H2421	H242	0.848490	0.951750	0.494100
H2431	H243	0.809710	0.965550	0.464160
H2441	H244	0.083550	0.945640	0.458140
H2451	H245	0.135230	0.933250	0.488020
H2461	H246	0.806600	0.912560	0.499790
H2471	H247	0.753030	0.925300	0.470170
H2481	H248	0.843300	0.886760	0.482630
H2491	H249	0.034960	0.905900	0.463340
H2501	H250	0.039170	0.882000	0.516330
H2511	H251	0.143890	0.870990	0.499140
H2521	H252	0.237780	0.897880	0.495490
C11	C1	0.393340	0.504190	0.385800
C21	C2	0.554040	0.522750	0.379850
C31	C3	0.641960	0.521060	0.401230
C41	C4	0.500980	0.527310	0.415070
C51	C5	0.595620	0.526090	0.435870
C61	C6	0.452670	0.530930	0.450760
C71	C7	0.003380	0.496870	0.474720
C81	C8	0.528280	0.448030	0.447480
C91	C9	0.171860	0.407360	0.473470
C101	C10	0.799300	0.464160	0.388640
C111	C11	0.599520	0.390520	0.444540
C121	C12	0.805790	0.419610	0.348830
C131	C13	0.610800	0.544730	0.543610
C141	C14	0.542570	0.534760	0.531030
C151	C15	0.856350	0.519970	0.530790
C161	C16	0.927710	0.531130	0.542130
C171	C17	0.442800	0.616540	0.588750
C181	C18	0.336780	0.606580	0.578280
C191	C19	0.251090	0.593670	0.624650
C201	C20	0.139480	0.584410	0.613860
C211	C21	0.661890	0.522110	0.524860
C221	C22	0.808400	0.543860	0.548290
C231	C23	0.183210	0.590180	0.591010
C241	C24	0.403020	0.610280	0.611740
C251	C25	0.554730	0.524800	0.488910
C261	C26	0.476310	0.515400	0.476240
C271	C27	0.417680	0.491750	0.487660
C281	C28	0.914300	0.449670	0.409070
C291	C29	0.007480	0.460130	0.419980
C301	C30	0.099600	0.447160	0.440430
C311	C31	0.099800	0.423040	0.450090
C321	C32	0.020140	0.412850	0.438220
C331	C33	0.922240	0.425700	0.418190
C341	C34	0.848080	0.629080	0.629940
C351	C35	0.727270	0.618580	0.621360
C361	C36	0.528540	0.620880	0.621710
C371	C37	0.453190	0.634670	0.629860
C381	C38	0.450610	0.356620	0.361110
C391	C39	0.249870	0.360890	0.358600
C401	C40	0.114890	0.352320	0.347270
C411	C41	0.900250	0.648960	0.651290
C421	C42	0.774770	0.642140	0.639310
C431	C43	0.572620	0.645580	0.638370
C441	C44	0.565640	0.367490	0.370060
C451	C45	0.488740	0.382640	0.376360
C461	C46	0.292420	0.386390	0.374440
C471	C47	0.175370	0.375660	0.365780
C481	C48	0.075260	0.577850	0.581230
C491	C49	0.976060	0.590560	0.561270
C501	C50	0.895700	0.580230	0.549560
C511	C51	0.895510	0.556100	0.559390
C521	C52	0.987940	0.543230	0.579850
C531	C53	0.082530	0.553840	0.590520
C541	C54	0.577450	0.511120	0.512520
C551	C55	0.518770	0.487490	0.523930
C561	C56	0.440410	0.478090	0.511260
C571	C57	0.609020	0.393260	0.386680
C581	C58	0.817830	0.413540	0.408010
C591	C59	0.186550	0.459250	0.451680
C601	C60	0.333070	0.480780	0.475310
C611	C61	0.866810	0.419400	0.385220
C621	C62	0.760870	0.410000	0.374170
C631	C63	0.663560	0.397100	0.420310
C641	C64	0.562840	0.387040	0.409560
C651	C65	0.067170	0.471880	0.457950
C661	C66	0.138540	0.482940	0.469400
C671	C67	0.452420	0.468220	0.469020
C681	C68	0.384200	0.458370	0.456350
C691	C69	0.210930	0.584070	0.650060
C701	C70	0.394420	0.613240	0.553860
C711	C71	0.198620	0.539440	0.610890
C721	C72	0.824040	0.595790	0.526120
C731	C73	0.466760	0.555220	0.552300
C741	C74	0.991460	0.505960	0.525570
C751	C75	0.542150	0.471980	0.549400
C761	C76	0.399440	0.476880	0.564290
C771	C77	0.494390	0.475770	0.585020
C781	C78	0.353750	0.482150	0.598780
C791	C79	0.441920	0.480580	0.620100
C801	C80	0.603110	0.499090	0.614070
C811	C81	0.779140	0.385800	0.110010
C821	C82	0.933890	0.379850	0.097400
C831	C83	0.043190	0.401230	0.077710
C841	C84	0.916050	0.415070	0.057620
C851	C85	0.031490	0.435870	0.038040
C861	C86	0.903430	0.450760	0.018310
C871	C87	0.478100	0.474720	0.028410
C881	C88	0.975760	0.447480	0.104490
C891	C89	0.645330	0.473470	0.119170
C901	C90	0.187940	0.388640	0.147200
C911	C91	0.044060	0.444540	0.164940
C921	C92	0.154620	0.348830	0.231560
C931	C93	0.154410	0.543610	0.911660
C941	C94	0.073600	0.531030	0.934210
C951	C95	0.387140	0.530790	0.949240
C961	C96	0.469840	0.542130	0.926740
C971	C97	0.031550	0.588750	0.794710
C981	C98	0.915060	0.578280	0.815140
C991	C99	0.875740	0.624650	0.781680
C1001	C100	0.753340	0.613860	0.801730
C1011	C101	0.186750	0.524860	0.953030
C1021	C102	0.356690	0.548290	0.907850
C1031	C103	0.774220	0.591010	0.818810
C1041	C104	0.014760	0.611740	0.777980
C1051	C105	0.043640	0.488910	0.986290
C1061	C106	0.952550	0.476240	0.008360
C1071	C107	0.905340	0.487660	0.020590
C1081	C108	0.323370	0.409070	0.141260
C1091	C109	0.427460	0.419980	0.119890
C1101	C110	0.540030	0.440430	0.112410
C1111	C111	0.549890	0.450090	0.126870
C1121	C112	0.458360	0.438220	0.148930
C1131	C113	0.340430	0.418190	0.156110
C1141	C114	0.478020	0.629940	0.740980
C1151	C115	0.348630	0.621360	0.760060
C1161	C116	0.150250	0.621710	0.757410
C1171	C117	0.083050	0.629860	0.735470
C1181	C118	0.811720	0.361110	0.282270
C1191	C119	0.608470	0.358600	0.280510
C1201	C120	0.462160	0.347270	0.300410
C1211	C121	0.551540	0.651290	0.699750
C1221	C122	0.414080	0.639310	0.718550
C1231	C123	0.210990	0.638370	0.716050
C1241	C124	0.935700	0.370060	0.262450
C1251	C125	0.865100	0.376360	0.241000
C1261	C126	0.666860	0.374440	0.239170
C1271	C127	0.541150	0.365780	0.258560
C1281	C128	0.656490	0.581230	0.840920
C1291	C129	0.537330	0.561270	0.848170
C1301	C130	0.445260	0.549560	0.870210
C1311	C131	0.454900	0.559390	0.884510
C1321	C132	0.567790	0.579850	0.876920
C1331	C133	0.673050	0.590520	0.855640
C1341	C134	0.089970	0.512520	0.976360
C1351	C135	0.042700	0.523930	0.988580
C1361	C136	0.951670	0.511260	0.010650
C1371	C137	0.995700	0.386680	0.220060
C1381	C138	0.225840	0.408010	0.178450
C1391	C139	0.638230	0.451680	0.089070
C1401	C140	0.808380	0.475310	0.043910
C1411	C141	0.252030	0.385220	0.195380
C1421	C142	0.135040	0.374170	0.215830
C1431	C143	0.083870	0.420310	0.182590
C1441	C144	0.972400	0.409560	0.203400
C1451	C145	0.525120	0.457950	0.070170
C1461	C146	0.607940	0.469400	0.047660
C1471	C147	0.921440	0.469020	0.062760
C1481	C148	0.840550	0.456350	0.085280
C1491	C149	0.860990	0.650060	0.765870
C1501	C150	0.948280	0.553860	0.832900
C1511	C151	0.809510	0.610890	0.849670
C1521	C152	0.350160	0.526120	0.878090
C1531	C153	0.019060	0.552300	0.892480
C1541	C154	0.517030	0.525570	0.968470
C1551	C155	0.091550	0.549400	0.978620
C1561	C156	0.963730	0.564290	0.958830
C1571	C157	0.079410	0.585020	0.939210
C1581	C158	0.952530	0.598780	0.919070
C1591	C159	0.062020	0.620100	0.899320
C1601	C160	0.217180	0.614070	0.886840
C1611	C161	0.889150	0.110010	0.504190
C1621	C162	0.031290	0.097400	0.522750
C1631	C163	0.120900	0.077710	0.521060
C1641	C164	0.973670	0.057620	0.527310
C1651	C165	0.069530	0.038040	0.526090
C1661	C166	0.921740	0.018310	0.530930
C1671	C167	0.506510	0.028410	0.496870
C1681	C168	0.080250	0.104490	0.448030
C1691	C169	0.764500	0.119170	0.407360
C1701	C170	0.335140	0.147200	0.464160
C1711	C171	0.209000	0.164940	0.390520
C1721	C172	0.386180	0.231560	0.419610
C1731	C173	0.066070	0.911660	0.544730
C1741	C174	0.007810	0.934210	0.534760
C1751	C175	0.336380	0.949240	0.519970
C1761	C176	0.396580	0.926740	0.531130
C1771	C177	0.826260	0.794710	0.616540
C1781	C178	0.730200	0.815140	0.606580
C1791	C179	0.657420	0.781680	0.593670
C1801	C180	0.555070	0.801730	0.584410
C1811	C181	0.139780	0.953030	0.522110
C1821	C182	0.264540	0.907850	0.543860
C1831	C183	0.593030	0.818810	0.590180
C1841	C184	0.792740	0.777980	0.610280
C1851	C185	0.029930	0.986290	0.524800
C1861	C186	0.960910	0.008360	0.515400
C1871	C187	0.925930	0.020590	0.491750
C1881	C188	0.464630	0.141260	0.449670
C1891	C189	0.547350	0.119890	0.460130
C1901	C190	0.652440	0.112410	0.447160
C1911	C191	0.676760	0.126870	0.423040
C1921	C192	0.607290	0.148930	0.412850
C1931	C193	0.496540	0.156110	0.425700
C1941	C194	0.219000	0.740980	0.629080
C1951	C195	0.108690	0.760060	0.618580
C1961	C196	0.907660	0.757410	0.620880
C1971	C197	0.818520	0.735470	0.634670
C1981	C198	0.093990	0.282270	0.356620
C1991	C199	0.888980	0.280510	0.360890
C2001	C200	0.762570	0.300410	0.352320
C2011	C201	0.251290	0.699750	0.648960
C2021	C202	0.132630	0.718550	0.642140
C2031	C203	0.927040	0.716050	0.645580
C2041	C204	0.198150	0.262450	0.367490
C2051	C205	0.106100	0.241000	0.382640
C2061	C206	0.906030	0.239170	0.386390
C2071	C207	0.799710	0.258560	0.375660
C2081	C208	0.497410	0.840920	0.577850
C2091	C209	0.385500	0.848170	0.590560
C2101	C210	0.315470	0.870210	0.580230
C2111	C211	0.339410	0.884510	0.556100
C2121	C212	0.444710	0.876920	0.543230
C2131	C213	0.528690	0.855640	0.553840
C2141	C214	0.066330	0.976360	0.511120
C2151	C215	0.031280	0.988580	0.487490
C2161	C216	0.962320	0.010650	0.478090
C2171	C217	0.215760	0.220060	0.393260
C2181	C218	0.404290	0.178450	0.413540
C2191	C219	0.727300	0.089070	0.459250
C2201	C220	0.852290	0.043910	0.480780
C2211	C221	0.447410	0.195380	0.419400
C2221	C222	0.350870	0.215830	0.410000
C2231	C223	0.266460	0.182590	0.397100
C2241	C224	0.175800	0.203400	0.387040
C2251	C225	0.595290	0.070170	0.471880
C2261	C226	0.655600	0.047660	0.482940
C2271	C227	0.984200	0.062760	0.468220
C2281	C228	0.925830	0.085280	0.458370
C2291	C229	0.626860	0.765870	0.584070
C2301	C230	0.781180	0.832900	0.613240
C2311	C231	0.659180	0.849670	0.539440
C2321	C232	0.228250	0.878090	0.595790
C2331	C233	0.911540	0.892480	0.555220
C2341	C234	0.485500	0.968470	0.505960
C2351	C235	0.070170	0.978620	0.471980
C2361	C236	0.922560	0.958830	0.476880
C2371	C237	0.018620	0.939210	0.475770
C2381	C238	0.871600	0.919070	0.482150
C2391	C239	0.961340	0.899320	0.480580
C2401	C240	0.104020	0.886840	0.499090
O11	O1	0.658320	0.383960	0.311230
O21	O2	0.539170	0.340460	0.357100
O31	O3	0.171470	0.339240	0.339890
O41	O4	0.941140	0.358680	0.344750
O51	O5	0.076860	0.643730	0.652780
O61	O6	0.837250	0.659730	0.661010
O71	O7	0.496210	0.658860	0.644510
O81	O8	0.335420	0.616070	0.687130
O91	O9	0.969550	0.311230	0.304810
O101	O10	0.896270	0.357100	0.302440
O111	O11	0.511360	0.339890	0.320870
O121	O12	0.285890	0.344750	0.296570
O131	O13	0.729640	0.652780	0.703490
O141	O14	0.498260	0.661010	0.679260
O151	O15	0.140720	0.644510	0.696630
O161	O16	0.022550	0.687130	0.696800
O171	O17	0.274360	0.304810	0.383960
O181	O18	0.198710	0.302440	0.340460
O191	O19	0.832230	0.320870	0.339240
O201	O20	0.582460	0.296570	0.358680
O211	O21	0.433130	0.703490	0.643730
O221	O22	0.177520	0.679260	0.659730
O231	O23	0.837350	0.696630	0.658860
O241	O24	0.719350	0.696800	0.616070
