data_RAWPIP_clean_PM
_symmetry_space_group_name_H-M	'P1'
_cell_length_a	12.602000
_cell_length_b	15.129000
_cell_length_c	18.549000
_cell_angle_alpha	90.000000
_cell_angle_beta	96.599000
_cell_angle_gamma	90.000000
_symmetry_Int_Tables_number 1

loop_
_symmetry_equiv_pos_as_xyz
'x,y,z'

loop_
_atom_site_label
_atom_site_type_symbol
_atom_site_fract_x
_atom_site_fract_y
_atom_site_fract_z
N11	N1	0.430160	0.596570	0.831260
C11	C1	0.397700	0.680170	0.826700
H11	H1	0.408500	0.712600	0.785600
C21	C2	0.348300	0.720740	0.880850
H21	H2	0.327500	0.779600	0.875800
C31	C3	0.329840	0.674300	0.942320
C41	C4	0.365300	0.587830	0.946790
H31	H3	0.356200	0.554100	0.987500
C51	C5	0.413800	0.551860	0.891300
H41	H4	0.436500	0.493400	0.895500
C61	C6	0.272600	0.711050	0.000400
H51	H5	0.268200	0.675900	0.041100
N21	N2	0.569840	0.596570	0.668740
C71	C7	0.602300	0.680170	0.673300
H61	H6	0.591500	0.712600	0.714400
C81	C8	0.651700	0.720740	0.619150
H71	H7	0.672500	0.779600	0.624200
C91	C9	0.670160	0.674300	0.557680
C101	C10	0.634700	0.587830	0.553210
H81	H8	0.643800	0.554100	0.512500
C111	C11	0.586200	0.551860	0.608700
H91	H9	0.563500	0.493400	0.604500
C121	C12	0.727400	0.711050	0.499600
H101	H10	0.731800	0.675900	0.458900
N31	N3	0.069840	0.903430	0.168740
C131	C13	0.102300	0.819830	0.173300
H111	H11	0.091500	0.787400	0.214400
C141	C14	0.151700	0.779260	0.119150
H121	H12	0.172500	0.720400	0.124200
C151	C15	0.170160	0.825700	0.057680
C161	C16	0.134700	0.912170	0.053210
H131	H13	0.143800	0.945900	0.012500
C171	C17	0.086200	0.948140	0.108700
H141	H14	0.063500	0.006600	0.104500
C181	C18	0.227400	0.788950	0.999600
H151	H15	0.231800	0.824100	0.958900
N41	N4	0.930160	0.903430	0.331260
C191	C19	0.897700	0.819830	0.326700
H161	H16	0.908500	0.787400	0.285600
C201	C20	0.848300	0.779260	0.380850
H171	H17	0.827500	0.720400	0.375800
C211	C21	0.829840	0.825700	0.442320
C221	C22	0.865300	0.912170	0.446790
H181	H18	0.856200	0.945900	0.487500
C231	C23	0.913800	0.948140	0.391300
H191	H19	0.936500	0.006600	0.395500
C241	C24	0.772600	0.788950	0.500400
H201	H20	0.768200	0.824100	0.541100
Zn11	Zn1	0.500000	0.537450	0.750000
Zn21	Zn2	0.000000	0.962550	0.250000
N51	N5	0.930160	0.096570	0.831260
C251	C25	0.897700	0.180170	0.826700
H211	H21	0.908500	0.212600	0.785600
C261	C26	0.848300	0.220740	0.880850
H221	H22	0.827500	0.279600	0.875800
C271	C27	0.829840	0.174300	0.942320
C281	C28	0.865300	0.087830	0.946790
H231	H23	0.856200	0.054100	0.987500
C291	C29	0.913800	0.051860	0.891300
H241	H24	0.936500	0.993400	0.895500
C301	C30	0.772600	0.211050	0.000400
H251	H25	0.768200	0.175900	0.041100
N61	N6	0.069840	0.096570	0.668740
C311	C31	0.102300	0.180170	0.673300
H261	H26	0.091500	0.212600	0.714400
C321	C32	0.151700	0.220740	0.619150
H271	H27	0.172500	0.279600	0.624200
C331	C33	0.170160	0.174300	0.557680
C341	C34	0.134700	0.087830	0.553210
H281	H28	0.143800	0.054100	0.512500
C351	C35	0.086200	0.051860	0.608700
H291	H29	0.063500	0.993400	0.604500
C361	C36	0.227400	0.211050	0.499600
H301	H30	0.231800	0.175900	0.458900
N71	N7	0.569840	0.403430	0.168740
C371	C37	0.602300	0.319830	0.173300
H311	H31	0.591500	0.287400	0.214400
C381	C38	0.651700	0.279260	0.119150
H321	H32	0.672500	0.220400	0.124200
C391	C39	0.670160	0.325700	0.057680
C401	C40	0.634700	0.412170	0.053210
H331	H33	0.643800	0.445900	0.012500
C411	C41	0.586200	0.448140	0.108700
H341	H34	0.563500	0.506600	0.104500
C421	C42	0.727400	0.288950	0.999600
H351	H35	0.731800	0.324100	0.958900
N81	N8	0.430160	0.403430	0.331260
C431	C43	0.397700	0.319830	0.326700
H361	H36	0.408500	0.287400	0.285600
C441	C44	0.348300	0.279260	0.380850
H371	H37	0.327500	0.220400	0.375800
C451	C45	0.329840	0.325700	0.442320
C461	C46	0.365300	0.412170	0.446790
H381	H38	0.356200	0.445900	0.487500
C471	C47	0.413800	0.448140	0.391300
H391	H39	0.436500	0.506600	0.395500
C481	C48	0.272600	0.288950	0.500400
H401	H40	0.268200	0.324100	0.541100
Zn31	Zn3	0.000000	0.037450	0.750000
Zn41	Zn4	0.500000	0.462550	0.250000
N91	N9	0.341720	0.533910	0.680190
C491	C49	0.317800	0.571090	0.614800
H411	H41	0.366100	0.611100	0.599000
C501	C50	0.225200	0.553230	0.569420
H421	H42	0.213400	0.580000	0.524100
C511	C51	0.150310	0.495710	0.591600
C521	C52	0.170900	0.462100	0.661750
H431	H43	0.120700	0.426700	0.680800
C531	C53	0.266400	0.481700	0.702620
H441	H44	0.279200	0.457100	0.748700
C541	C54	0.050010	0.467720	0.545720
H451	H45	0.028300	0.409200	0.561300
C551	C55	0.950570	0.531580	0.538360
H461	H46	0.887600	0.499900	0.551300
C561	C56	0.961110	0.618990	0.577790
C571	C57	0.017900	0.689740	0.554970
H471	H47	0.054300	0.684700	0.514300
C581	C58	0.020100	0.768590	0.593730
H481	H48	0.059800	0.815300	0.578300
N101	N10	0.969100	0.780840	0.651060
C591	C59	0.917000	0.711600	0.674290
H491	H49	0.882100	0.718500	0.715500
C601	C60	0.911900	0.629550	0.640170
H501	H50	0.876200	0.582600	0.659000
N111	N11	0.658280	0.466090	0.319810
C611	C61	0.682200	0.428910	0.385200
H511	H51	0.633900	0.388900	0.401000
C621	C62	0.774800	0.446770	0.430580
H521	H52	0.786600	0.420000	0.475900
C631	C63	0.849690	0.504290	0.408400
C641	C64	0.829100	0.537900	0.338250
H531	H53	0.879300	0.573300	0.319200
C651	C65	0.733600	0.518300	0.297380
H541	H54	0.720800	0.542900	0.251300
C661	C66	0.949990	0.532280	0.454280
H551	H55	0.971700	0.590800	0.438700
C671	C67	0.049430	0.468420	0.461640
H561	H56	0.112400	0.500100	0.448700
C681	C68	0.038890	0.381010	0.422210
C691	C69	0.982100	0.310260	0.445030
H571	H57	0.945700	0.315300	0.485700
C701	C70	0.979900	0.231410	0.406270
H581	H58	0.940200	0.184700	0.421700
N121	N12	0.030900	0.219160	0.348940
C711	C71	0.083000	0.288400	0.325710
H591	H59	0.117900	0.281500	0.284500
C721	C72	0.088100	0.370450	0.359830
H601	H60	0.123800	0.417400	0.341000
N131	N13	0.841720	0.033910	0.680190
C731	C73	0.817800	0.071090	0.614800
H611	H61	0.866100	0.111100	0.599000
C741	C74	0.725200	0.053230	0.569420
H621	H62	0.713400	0.080000	0.524100
C751	C75	0.650310	0.995710	0.591600
C761	C76	0.670900	0.962100	0.661750
H631	H63	0.620700	0.926700	0.680800
C771	C77	0.766400	0.981700	0.702620
H641	H64	0.779200	0.957100	0.748700
C781	C78	0.550010	0.967720	0.545720
H651	H65	0.528300	0.909200	0.561300
C791	C79	0.450570	0.031580	0.538360
H661	H66	0.387600	0.999900	0.551300
C801	C80	0.461110	0.118990	0.577790
C811	C81	0.517900	0.189740	0.554970
H671	H67	0.554300	0.184700	0.514300
C821	C82	0.520100	0.268590	0.593730
H681	H68	0.559800	0.315300	0.578300
N141	N14	0.469100	0.280840	0.651060
C831	C83	0.417000	0.211600	0.674290
H691	H69	0.382100	0.218500	0.715500
C841	C84	0.411900	0.129550	0.640170
H701	H70	0.376200	0.082600	0.659000
N151	N15	0.158280	0.966090	0.319810
C851	C85	0.182200	0.928910	0.385200
H711	H71	0.133900	0.888900	0.401000
C861	C86	0.274800	0.946770	0.430580
H721	H72	0.286600	0.920000	0.475900
C871	C87	0.349690	0.004290	0.408400
C881	C88	0.329100	0.037900	0.338250
H731	H73	0.379300	0.073300	0.319200
C891	C89	0.233600	0.018300	0.297380
H741	H74	0.220800	0.042900	0.251300
C901	C90	0.449990	0.032280	0.454280
H751	H75	0.471700	0.090800	0.438700
C911	C91	0.549430	0.968420	0.461640
H761	H76	0.612400	0.000100	0.448700
C921	C92	0.538890	0.881010	0.422210
C931	C93	0.482100	0.810260	0.445030
H771	H77	0.445700	0.815300	0.485700
C941	C94	0.479900	0.731410	0.406270
H781	H78	0.440200	0.684700	0.421700
N161	N16	0.530900	0.719160	0.348940
C951	C95	0.583000	0.788400	0.325710
H791	H79	0.617900	0.781500	0.284500
C961	C96	0.588100	0.870450	0.359830
H801	H80	0.623800	0.917400	0.341000
N171	N17	0.658280	0.533910	0.819810
C971	C97	0.682200	0.571090	0.885200
H811	H81	0.633900	0.611100	0.901000
C981	C98	0.774800	0.553230	0.930580
H821	H82	0.786600	0.580000	0.975900
C991	C99	0.849690	0.495710	0.908400
C1001	C100	0.829100	0.462100	0.838250
H831	H83	0.879300	0.426700	0.819200
C1011	C101	0.733600	0.481700	0.797380
H841	H84	0.720800	0.457100	0.751300
C1021	C102	0.949990	0.467720	0.954280
H851	H85	0.971700	0.409200	0.938700
C1031	C103	0.049430	0.531580	0.961640
H861	H86	0.112400	0.499900	0.948700
C1041	C104	0.038890	0.618990	0.922210
C1051	C105	0.982100	0.689740	0.945030
H871	H87	0.945700	0.684700	0.985700
C1061	C106	0.979900	0.768590	0.906270
H881	H88	0.940200	0.815300	0.921700
N181	N18	0.030900	0.780840	0.848940
C1071	C107	0.083000	0.711600	0.825710
H891	H89	0.117900	0.718500	0.784500
C1081	C108	0.088100	0.629550	0.859830
H901	H90	0.123800	0.582600	0.841000
N191	N19	0.341720	0.466090	0.180190
C1091	C109	0.317800	0.428910	0.114800
H911	H91	0.366100	0.388900	0.099000
C1101	C110	0.225200	0.446770	0.069420
H921	H92	0.213400	0.420000	0.024100
C1111	C111	0.150310	0.504290	0.091600
C1121	C112	0.170900	0.537900	0.161750
H931	H93	0.120700	0.573300	0.180800
C1131	C113	0.266400	0.518300	0.202620
H941	H94	0.279200	0.542900	0.248700
C1141	C114	0.050010	0.532280	0.045720
H951	H95	0.028300	0.590800	0.061300
C1151	C115	0.950570	0.468420	0.038360
H961	H96	0.887600	0.500100	0.051300
C1161	C116	0.961110	0.381010	0.077790
C1171	C117	0.017900	0.310260	0.054970
H971	H97	0.054300	0.315300	0.014300
C1181	C118	0.020100	0.231410	0.093730
H981	H98	0.059800	0.184700	0.078300
N201	N20	0.969100	0.219160	0.151060
C1191	C119	0.917000	0.288400	0.174290
H991	H99	0.882100	0.281500	0.215500
C1201	C120	0.911900	0.370450	0.140170
H1001	H100	0.876200	0.417400	0.159000
N211	N21	0.158280	0.033910	0.819810
C1211	C121	0.182200	0.071090	0.885200
H1011	H101	0.133900	0.111100	0.901000
C1221	C122	0.274800	0.053230	0.930580
H1021	H102	0.286600	0.080000	0.975900
C1231	C123	0.349690	0.995710	0.908400
C1241	C124	0.329100	0.962100	0.838250
H1031	H103	0.379300	0.926700	0.819200
C1251	C125	0.233600	0.981700	0.797380
H1041	H104	0.220800	0.957100	0.751300
C1261	C126	0.449990	0.967720	0.954280
H1051	H105	0.471700	0.909200	0.938700
C1271	C127	0.549430	0.031580	0.961640
H1061	H106	0.612400	0.999900	0.948700
C1281	C128	0.538890	0.118990	0.922210
C1291	C129	0.482100	0.189740	0.945030
H1071	H107	0.445700	0.184700	0.985700
C1301	C130	0.479900	0.268590	0.906270
H1081	H108	0.440200	0.315300	0.921700
N221	N22	0.530900	0.280840	0.848940
C1311	C131	0.583000	0.211600	0.825710
H1091	H109	0.617900	0.218500	0.784500
C1321	C132	0.588100	0.129550	0.859830
H1101	H110	0.623800	0.082600	0.841000
N231	N23	0.841720	0.966090	0.180190
C1331	C133	0.817800	0.928910	0.114800
H1111	H111	0.866100	0.888900	0.099000
C1341	C134	0.725200	0.946770	0.069420
H1121	H112	0.713400	0.920000	0.024100
C1351	C135	0.650310	0.004290	0.091600
C1361	C136	0.670900	0.037900	0.161750
H1131	H113	0.620700	0.073300	0.180800
C1371	C137	0.766400	0.018300	0.202620
H1141	H114	0.779200	0.042900	0.248700
C1381	C138	0.550010	0.032280	0.045720
H1151	H115	0.528300	0.090800	0.061300
C1391	C139	0.450570	0.968420	0.038360
H1161	H116	0.387600	0.000100	0.051300
C1401	C140	0.461110	0.881010	0.077790
C1411	C141	0.517900	0.810260	0.054970
H1171	H117	0.554300	0.815300	0.014300
C1421	C142	0.520100	0.731410	0.093730
H1181	H118	0.559800	0.684700	0.078300
N241	N24	0.469100	0.719160	0.151060
C1431	C143	0.417000	0.788400	0.174290
H1191	H119	0.382100	0.781500	0.215500
C1441	C144	0.411900	0.870450	0.140170
H1201	H120	0.376200	0.917400	0.159000
