data_RAXCEA_charged_PM
_symmetry_space_group_name_H-M	'P1'
_cell_length_a	10.534000
_cell_length_b	13.266400
_cell_length_c	13.266400
_cell_angle_alpha	92.354700
_cell_angle_beta	113.000000
_cell_angle_gamma	113.000000
_symmetry_Int_Tables_number 1

loop_
_symmetry_equiv_pos_as_xyz
'x,y,z'

loop_
_atom_site_label
_atom_site_type_symbol
_atom_site_fract_x
_atom_site_fract_y
_atom_site_fract_z
Zn11	Zn1	0.993050	0.158540	0.056080
Zn21	Zn2	0.506950	0.943920	0.841460
Zn31	Zn3	0.006950	0.841460	0.943920
Zn41	Zn4	0.493050	0.056080	0.158540
P11	P1	0.803950	0.956570	0.829910
P21	P2	0.696050	0.170090	0.043430
P31	P3	0.196050	0.043430	0.170090
P41	P4	0.303950	0.829910	0.956570
H11	H1	0.834300	0.161800	0.764600
H21	H2	0.773800	0.217100	0.598500
H31	H3	0.604300	0.904100	0.432300
H41	H4	0.662900	0.847600	0.598200
H51	H5	0.665700	0.235400	0.838200
H61	H6	0.726200	0.401500	0.782900
H71	H7	0.895700	0.567700	0.095900
H81	H8	0.837100	0.401800	0.152400
H91	H9	0.165700	0.838200	0.235400
H101	H10	0.226200	0.782900	0.401500
H111	H11	0.395700	0.095900	0.567700
H121	H12	0.337100	0.152400	0.401800
H131	H13	0.334300	0.764600	0.161800
H141	H14	0.273800	0.598500	0.217100
H151	H15	0.104300	0.432300	0.904100
H161	H16	0.162900	0.598200	0.847600
C11	C1	0.755900	0.998420	0.698780
C21	C2	0.787900	0.109200	0.697400
C31	C3	0.752300	0.142100	0.598300
C41	C4	0.685200	0.066230	0.498570
C51	C5	0.651700	0.956800	0.499800
C61	C6	0.686700	0.922900	0.598900
C71	C7	0.644300	0.102600	0.390600
C81	C8	0.744100	0.301220	0.001580
C91	C9	0.712100	0.302600	0.890800
C101	C10	0.747700	0.401700	0.857900
C111	C11	0.814800	0.501430	0.933770
C121	C12	0.848300	0.500200	0.043200
C131	C13	0.813300	0.401100	0.077100
C141	C14	0.855700	0.609400	0.897400
C151	C15	0.244100	0.001580	0.301220
C161	C16	0.212100	0.890800	0.302600
C171	C17	0.247700	0.857900	0.401700
C181	C18	0.314800	0.933770	0.501430
C191	C19	0.348300	0.043200	0.500200
C201	C20	0.313300	0.077100	0.401100
C211	C21	0.355700	0.897400	0.609400
C221	C22	0.255900	0.698780	0.998420
C231	C23	0.287900	0.697400	0.109200
C241	C24	0.252300	0.598300	0.142100
C251	C25	0.185200	0.498570	0.066230
C261	C26	0.151700	0.499800	0.956800
C271	C27	0.186700	0.598900	0.922900
C281	C28	0.144300	0.390600	0.102600
O11	O1	0.916100	0.062270	0.917010
O21	O2	0.658300	0.896450	0.842850
O31	O3	0.870600	0.876610	0.822190
O41	O4	0.663100	0.199560	0.388720
O51	O5	0.590500	0.028210	0.304630
O61	O6	0.583900	0.082990	0.937730
O71	O7	0.841700	0.157150	0.103550
O81	O8	0.629400	0.177810	0.123390
O91	O9	0.836900	0.611280	0.800440
O101	O10	0.909500	0.695370	0.971790
O111	O11	0.083900	0.937730	0.082990
O121	O12	0.341700	0.103550	0.157150
O131	O13	0.129400	0.123390	0.177810
O141	O14	0.336900	0.800440	0.611280
O151	O15	0.409500	0.971790	0.695370
O161	O16	0.416100	0.917010	0.062270
O171	O17	0.158300	0.842850	0.896450
O181	O18	0.370600	0.822190	0.876610
O191	O19	0.163100	0.388720	0.199560
O201	O20	0.090500	0.304630	0.028210
H171	H17	0.999800	0.214100	0.259700
H181	H18	0.141800	0.264100	0.363300
H191	H19	0.027500	0.375400	0.337600
H201	H20	0.882600	0.276500	0.335900
H211	H21	0.036900	0.331500	0.446900
H221	H22	0.025300	0.080000	0.348800
H231	H23	0.033600	0.146100	0.453700
H241	H24	0.880300	0.092400	0.342000
C291	C29	0.992700	0.310000	0.366400
C301	C30	0.990400	0.128900	0.373100
N11	N1	0.038600	0.231400	0.335200
H251	H25	0.500200	0.740300	0.785900
H261	H26	0.358200	0.636700	0.735900
H271	H27	0.472500	0.662400	0.624600
H281	H28	0.617400	0.664100	0.723500
H291	H29	0.463100	0.553100	0.668500
H301	H30	0.474700	0.651200	0.920000
H311	H31	0.466400	0.546300	0.853900
H321	H32	0.619700	0.658000	0.907600
C311	C31	0.507300	0.633600	0.690000
C321	C32	0.509600	0.626900	0.871100
N21	N2	0.461400	0.664800	0.768600
H331	H33	0.000200	0.785900	0.740300
H341	H34	0.858200	0.735900	0.636700
H351	H35	0.972500	0.624600	0.662400
H361	H36	0.117400	0.723500	0.664100
H371	H37	0.963100	0.668500	0.553100
H381	H38	0.974700	0.920000	0.651200
H391	H39	0.966400	0.853900	0.546300
H401	H40	0.119700	0.907600	0.658000
C331	C33	0.007300	0.690000	0.633600
C341	C34	0.009600	0.871100	0.626900
N31	N3	0.961400	0.768600	0.664800
H411	H41	0.499800	0.259700	0.214100
H421	H42	0.641800	0.363300	0.264100
H431	H43	0.527500	0.337600	0.375400
H441	H44	0.382600	0.335900	0.276500
H451	H45	0.536900	0.446900	0.331500
H461	H46	0.525300	0.348800	0.080000
H471	H47	0.533600	0.453700	0.146100
H481	H48	0.380300	0.342000	0.092400
C351	C35	0.492700	0.366400	0.310000
C361	C36	0.490400	0.373100	0.128900
N41	N4	0.538600	0.335200	0.231400
