data_RAXQEO_clean_PM
_symmetry_space_group_name_H-M	'P1'
_cell_length_a	11.535900
_cell_length_b	15.094800
_cell_length_c	22.681700
_cell_angle_alpha	90.000000
_cell_angle_beta	91.483000
_cell_angle_gamma	90.000000
_symmetry_Int_Tables_number 1

loop_
_symmetry_equiv_pos_as_xyz
'x,y,z'

loop_
_atom_site_label
_atom_site_type_symbol
_atom_site_fract_x
_atom_site_fract_y
_atom_site_fract_z
Cu11	Cu1	0.884100	0.721400	0.727860
C11	C1	0.057000	0.628000	0.810000
H11	H1	0.041500	0.662500	0.843000
C21	C2	0.057000	0.584000	0.726000
H21	H2	0.042100	0.575800	0.685700
C31	C3	0.209000	0.459000	0.739300
H31	H3	0.234400	0.468700	0.699500
H41	H4	0.277600	0.458200	0.764900
C41	C4	0.160000	0.377000	0.741300
H51	H5	0.116000	0.368800	0.776800
H61	H6	0.218000	0.330300	0.739200
C51	C5	0.084000	0.377000	0.689000
H71	H7	0.011600	0.405100	0.698700
H81	H8	0.120000	0.412500	0.658800
C61	C6	0.059000	0.288000	0.664300
H91	H9	0.129900	0.257700	0.654000
H101	H10	0.018200	0.251500	0.692500
C71	C7	0.984000	0.305000	0.610200
H111	H11	0.029100	0.325100	0.577500
H121	H12	0.923600	0.347900	0.618000
C81	C8	0.930000	0.210000	0.597600
H131	H13	0.993900	0.168900	0.592500
H141	H14	0.886900	0.212700	0.560500
C91	C9	0.719000	0.875000	0.730300
H151	H15	0.740500	0.888200	0.769000
C101	C10	0.704000	0.815000	0.652100
H161	H16	0.712400	0.775000	0.621100
C111	C11	0.554000	0.906000	0.598900
H171	H17	0.492200	0.942000	0.613500
H181	H18	0.519900	0.853100	0.581000
C121	C12	0.617000	0.955000	0.553700
H191	H19	0.685300	0.921500	0.543900
H201	H20	0.643700	0.010400	0.571400
C131	C13	0.549000	0.979000	0.493700
H211	H21	0.597000	0.016600	0.469600
H221	H22	0.531900	0.925200	0.471800
C141	C14	0.161000	0.937000	0.599000
H231	H23	0.157100	0.978600	0.631100
H241	H24	0.242800	0.925000	0.593600
C151	C15	0.126000	0.985000	0.548000
H251	H25	0.134100	0.048000	0.557000
H261	H26	0.178500	0.971900	0.516800
C161	C16	0.007000	0.971000	0.525000
H271	H27	0.951000	0.985200	0.554700
H281	H28	0.996300	0.909700	0.513200
N11	N1	0.007000	0.639000	0.753900
N21	N2	0.137000	0.535000	0.756300
N31	N3	0.130000	0.562000	0.808700
N41	N4	0.851000	0.171700	0.644000
N51	N5	0.878600	0.105700	0.679300
C171	C17	0.804000	0.104400	0.722000
H291	H29	0.803800	0.064300	0.753100
N61	N6	0.731000	0.169500	0.713100
C181	C18	0.760000	0.211100	0.665000
H301	H30	0.721900	0.260000	0.648500
N71	N7	0.764000	0.807200	0.700500
N81	N8	0.631000	0.878900	0.648400
N91	N9	0.638000	0.922100	0.699600
N101	N10	0.988000	0.767100	0.665800
C191	C19	0.057000	0.837000	0.672400
H311	H31	0.068100	0.870100	0.706600
N111	N11	0.109000	0.850400	0.621500
N121	N12	0.072000	0.789000	0.583400
C201	C20	0.996000	0.737700	0.610800
H321	H32	0.957000	0.689600	0.594400
Cu21	Cu2	0.615900	0.221400	0.772140
C211	C21	0.443000	0.128000	0.690000
H331	H33	0.458500	0.162500	0.657000
C221	C22	0.443000	0.084000	0.774000
H341	H34	0.457900	0.075800	0.814300
C231	C23	0.291000	0.959000	0.760700
H351	H35	0.265600	0.968700	0.800500
H361	H36	0.222400	0.958200	0.735100
C241	C24	0.340000	0.877000	0.758700
H371	H37	0.384000	0.868800	0.723200
H381	H38	0.282000	0.830300	0.760800
C251	C25	0.416000	0.877000	0.811000
H391	H39	0.488400	0.905100	0.801300
H401	H40	0.380000	0.912500	0.841200
C261	C26	0.441000	0.788000	0.835700
H411	H41	0.370100	0.757700	0.846000
H421	H42	0.481800	0.751500	0.807500
C271	C27	0.516000	0.805000	0.889800
H431	H43	0.470900	0.825100	0.922500
H441	H44	0.576400	0.847900	0.882000
C281	C28	0.570000	0.710000	0.902400
H451	H45	0.506100	0.668900	0.907500
H461	H46	0.613100	0.712700	0.939500
C291	C29	0.781000	0.375000	0.769700
H471	H47	0.759500	0.388200	0.731000
C301	C30	0.796000	0.315000	0.847900
H481	H48	0.787600	0.275000	0.878900
C311	C31	0.946000	0.406000	0.901100
H491	H49	0.007800	0.442000	0.886500
H501	H50	0.980100	0.353100	0.919000
C321	C32	0.883000	0.455000	0.946300
H511	H51	0.814700	0.421500	0.956100
H521	H52	0.856300	0.510400	0.928600
C331	C33	0.951000	0.479000	0.006300
H531	H53	0.903000	0.516600	0.030400
H541	H54	0.968100	0.425200	0.028200
C341	C34	0.339000	0.437000	0.901000
H551	H55	0.342900	0.478600	0.868900
H561	H56	0.257200	0.425000	0.906400
C351	C35	0.374000	0.485000	0.952000
H571	H57	0.365900	0.548000	0.943000
H581	H58	0.321500	0.471900	0.983200
C361	C36	0.493000	0.471000	0.975000
H591	H59	0.549000	0.485200	0.945300
H601	H60	0.503700	0.409700	0.986800
N131	N13	0.493000	0.139000	0.746100
N141	N14	0.363000	0.035000	0.743700
N151	N15	0.370000	0.062000	0.691300
N161	N16	0.649000	0.671700	0.856000
N171	N17	0.621400	0.605700	0.820700
C371	C37	0.696000	0.604400	0.778000
H611	H61	0.696200	0.564300	0.746900
N181	N18	0.769000	0.669500	0.786900
C381	C38	0.740000	0.711100	0.835000
H621	H62	0.778100	0.760000	0.851500
N191	N19	0.736000	0.307200	0.799500
N201	N20	0.869000	0.378900	0.851600
N211	N21	0.862000	0.422100	0.800400
N221	N22	0.512000	0.267100	0.834200
C391	C39	0.443000	0.337000	0.827600
H631	H63	0.431900	0.370100	0.793400
N231	N23	0.391000	0.350400	0.878500
N241	N24	0.428000	0.289000	0.916600
C401	C40	0.504000	0.237700	0.889200
H641	H64	0.543000	0.189600	0.905600
Cu31	Cu3	0.115900	0.278600	0.272140
C411	C41	0.943000	0.372000	0.190000
H651	H65	0.958500	0.337500	0.157000
C421	C42	0.943000	0.416000	0.274000
H661	H66	0.957900	0.424200	0.314300
C431	C43	0.791000	0.541000	0.260700
H671	H67	0.765600	0.531300	0.300500
H681	H68	0.722400	0.541800	0.235100
C441	C44	0.840000	0.623000	0.258700
H691	H69	0.884000	0.631200	0.223200
H701	H70	0.782000	0.669700	0.260800
C451	C45	0.916000	0.623000	0.311000
H711	H71	0.988400	0.594900	0.301300
H721	H72	0.880000	0.587500	0.341200
C461	C46	0.941000	0.712000	0.335700
H731	H73	0.870100	0.742300	0.346000
H741	H74	0.981800	0.748500	0.307500
C471	C47	0.016000	0.695000	0.389800
H751	H75	0.970900	0.674900	0.422500
H761	H76	0.076400	0.652100	0.382000
C481	C48	0.070000	0.790000	0.402400
H771	H77	0.006100	0.831100	0.407500
H781	H78	0.113100	0.787300	0.439500
C491	C49	0.281000	0.125000	0.269700
H791	H79	0.259500	0.111800	0.231000
C501	C50	0.296000	0.185000	0.347900
H801	H80	0.287600	0.225000	0.378900
C511	C51	0.446000	0.094000	0.401100
H811	H81	0.507800	0.058000	0.386500
H821	H82	0.480100	0.146900	0.419000
C521	C52	0.383000	0.045000	0.446300
H831	H83	0.314700	0.078500	0.456100
H841	H84	0.356300	0.989600	0.428600
C531	C53	0.451000	0.021000	0.506300
H851	H85	0.403000	0.983400	0.530400
H861	H86	0.468100	0.074800	0.528200
C541	C54	0.839000	0.063000	0.401000
H871	H87	0.842900	0.021400	0.368900
H881	H88	0.757200	0.075000	0.406400
C551	C55	0.874000	0.015000	0.452000
H891	H89	0.865900	0.952000	0.443000
H901	H90	0.821500	0.028100	0.483200
C561	C56	0.993000	0.029000	0.475000
H911	H91	0.049000	0.014800	0.445300
H921	H92	0.003700	0.090300	0.486800
N251	N25	0.993000	0.361000	0.246100
N261	N26	0.863000	0.465000	0.243700
N271	N27	0.870000	0.438000	0.191300
N281	N28	0.149000	0.828300	0.356000
N291	N29	0.121400	0.894300	0.320700
C571	C57	0.196000	0.895600	0.278000
H931	H93	0.196200	0.935700	0.246900
N301	N30	0.269000	0.830500	0.286900
C581	C58	0.240000	0.788900	0.335000
H941	H94	0.278100	0.740000	0.351500
N311	N31	0.236000	0.192800	0.299500
N321	N32	0.369000	0.121100	0.351600
N331	N33	0.362000	0.077900	0.300400
N341	N34	0.012000	0.232900	0.334200
C591	C59	0.943000	0.163000	0.327600
H951	H95	0.931900	0.129900	0.293400
N351	N35	0.891000	0.149600	0.378500
N361	N36	0.928000	0.211000	0.416600
C601	C60	0.004000	0.262300	0.389200
H961	H96	0.043000	0.310400	0.405600
Cu41	Cu4	0.384100	0.778600	0.227860
C611	C61	0.557000	0.872000	0.310000
H971	H97	0.541500	0.837500	0.343000
C621	C62	0.557000	0.916000	0.226000
H981	H98	0.542100	0.924200	0.185700
C631	C63	0.709000	0.041000	0.239300
H991	H99	0.734400	0.031300	0.199500
H1001	H100	0.777600	0.041800	0.264900
C641	C64	0.660000	0.123000	0.241300
H1011	H101	0.616000	0.131200	0.276800
H1021	H102	0.718000	0.169700	0.239200
C651	C65	0.584000	0.123000	0.189000
H1031	H103	0.511600	0.094900	0.198700
H1041	H104	0.620000	0.087500	0.158800
C661	C66	0.559000	0.212000	0.164300
H1051	H105	0.629900	0.242300	0.154000
H1061	H106	0.518200	0.248500	0.192500
C671	C67	0.484000	0.195000	0.110200
H1071	H107	0.529100	0.174900	0.077500
H1081	H108	0.423600	0.152100	0.118000
C681	C68	0.430000	0.290000	0.097600
H1091	H109	0.493900	0.331100	0.092500
H1101	H110	0.386900	0.287300	0.060500
C691	C69	0.219000	0.625000	0.230300
H1111	H111	0.240500	0.611800	0.269000
C701	C70	0.204000	0.685000	0.152100
H1121	H112	0.212400	0.725000	0.121100
C711	C71	0.054000	0.594000	0.098900
H1131	H113	0.992200	0.558000	0.113500
H1141	H114	0.019900	0.646900	0.081000
C721	C72	0.117000	0.545000	0.053700
H1151	H115	0.185300	0.578500	0.043900
H1161	H116	0.143700	0.489600	0.071400
C731	C73	0.049000	0.521000	0.993700
H1171	H117	0.097000	0.483400	0.969600
H1181	H118	0.031900	0.574800	0.971800
C741	C74	0.661000	0.563000	0.099000
H1191	H119	0.657100	0.521400	0.131100
H1201	H120	0.742800	0.575000	0.093600
C751	C75	0.626000	0.515000	0.048000
H1211	H121	0.634100	0.452000	0.057000
H1221	H122	0.678500	0.528100	0.016800
C761	C76	0.507000	0.529000	0.025000
H1231	H123	0.451000	0.514800	0.054700
H1241	H124	0.496300	0.590300	0.013200
N371	N37	0.507000	0.861000	0.253900
N381	N38	0.637000	0.965000	0.256300
N391	N39	0.630000	0.938000	0.308700
N401	N40	0.351000	0.328300	0.144000
N411	N41	0.378600	0.394300	0.179300
C771	C77	0.304000	0.395600	0.222000
H1251	H125	0.303800	0.435700	0.253100
N421	N42	0.231000	0.330500	0.213100
C781	C78	0.260000	0.288900	0.165000
H1261	H126	0.221900	0.240000	0.148500
N431	N43	0.264000	0.692800	0.200500
N441	N44	0.131000	0.621100	0.148400
N451	N45	0.138000	0.577900	0.199600
N461	N46	0.488000	0.732900	0.165800
C791	C79	0.557000	0.663000	0.172400
H1271	H127	0.568100	0.629900	0.206600
N471	N47	0.609000	0.649600	0.121500
N481	N48	0.572000	0.711000	0.083400
C801	C80	0.496000	0.762300	0.110800
H1281	H128	0.457000	0.810400	0.094400
