data_RAYFAA_clean_PM
_symmetry_space_group_name_H-M	'P1'
_cell_length_a	18.276600
_cell_length_b	24.640100
_cell_length_c	24.640100
_cell_angle_alpha	65.901700
_cell_angle_beta	75.685300
_cell_angle_gamma	104.315000
_symmetry_Int_Tables_number 1

loop_
_symmetry_equiv_pos_as_xyz
'x,y,z'

loop_
_atom_site_label
_atom_site_type_symbol
_atom_site_fract_x
_atom_site_fract_y
_atom_site_fract_z
Cu11	Cu1	0.867160	0.167110	0.282680
Cu21	Cu2	0.879960	0.350890	0.211760
Cu31	Cu3	0.792460	0.960900	0.398940
Cu41	Cu4	0.960290	0.556940	0.109160
Cu51	Cu5	0.149840	0.282680	0.550210
Cu61	Cu6	0.091720	0.211760	0.437350
Cu71	Cu7	0.191400	0.398940	0.640160
Cu81	Cu8	0.069450	0.109160	0.333900
Cu91	Cu9	0.700050	0.550210	0.167110
Cu101	Cu10	0.529070	0.437350	0.350890
Cu111	Cu11	0.831560	0.640160	0.960900
Cu121	Cu12	0.403350	0.333900	0.556940
Cu131	Cu13	0.132840	0.832890	0.717320
Cu141	Cu14	0.120040	0.649110	0.788240
Cu151	Cu15	0.207540	0.039100	0.601060
Cu161	Cu16	0.039710	0.443060	0.890840
Cu171	Cu17	0.850160	0.717320	0.449790
Cu181	Cu18	0.908280	0.788240	0.562650
Cu191	Cu19	0.808600	0.601060	0.359840
Cu201	Cu20	0.930550	0.890840	0.666100
Cu211	Cu21	0.299950	0.449790	0.832890
Cu221	Cu22	0.470930	0.562650	0.649110
Cu231	Cu23	0.168440	0.359840	0.039100
Cu241	Cu24	0.596650	0.666100	0.443060
H11	H1	0.055200	0.700000	0.993900
H21	H2	0.161900	0.754800	0.893300
H31	H3	0.225600	0.697100	0.859300
H41	H4	0.180100	0.586300	0.924600
H51	H5	0.681300	0.815700	0.510000
H61	H6	0.549100	0.759200	0.586100
H71	H7	0.468100	0.814400	0.599600
H81	H8	0.518500	0.926000	0.530600
H91	H9	0.704000	0.296300	0.317400
H101	H10	0.031800	0.220000	0.159800
H111	H11	0.049100	0.993900	0.306100
H121	H12	0.055200	0.893300	0.351900
H131	H13	0.084900	0.859300	0.443600
H141	H14	0.104700	0.924600	0.489100
H151	H15	0.191300	0.510000	0.674300
H161	H16	0.135200	0.586100	0.654700
H171	H17	0.067700	0.599600	0.586000
H181	H18	0.049100	0.530600	0.543400
H191	H19	0.021400	0.317400	0.386300
H201	H20	0.191600	0.159800	0.620200
H211	H21	0.355200	0.306100	0.700000
H221	H22	0.407100	0.351900	0.754800
H231	H23	0.528500	0.443600	0.697100
H241	H24	0.593800	0.489100	0.586300
H251	H25	0.865600	0.674300	0.815700
H261	H26	0.789900	0.654700	0.759200
H271	H27	0.653700	0.586000	0.814400
H281	H28	0.592500	0.543400	0.926000
H291	H29	0.407700	0.386300	0.296300
H301	H30	0.811800	0.620200	0.220000
H311	H31	0.944800	0.300000	0.006100
H321	H32	0.838100	0.245200	0.106700
H331	H33	0.774400	0.302900	0.140700
H341	H34	0.819900	0.413700	0.075400
H351	H35	0.318700	0.184300	0.490000
H361	H36	0.450900	0.240800	0.413900
H371	H37	0.531900	0.185600	0.400400
H381	H38	0.481500	0.074000	0.469400
H391	H39	0.296000	0.703700	0.682600
H401	H40	0.968200	0.780000	0.840200
H411	H41	0.950900	0.006100	0.693900
H421	H42	0.944800	0.106700	0.648100
H431	H43	0.915100	0.140700	0.556400
H441	H44	0.895300	0.075400	0.510900
H451	H45	0.808700	0.490000	0.325700
H461	H46	0.864800	0.413900	0.345300
H471	H47	0.932300	0.400400	0.414000
H481	H48	0.950900	0.469400	0.456600
H491	H49	0.978600	0.682600	0.613700
H501	H50	0.808400	0.840200	0.379800
H511	H51	0.644800	0.693900	0.300000
H521	H52	0.592900	0.648100	0.245200
H531	H53	0.471500	0.556400	0.302900
H541	H54	0.406200	0.510900	0.413700
H551	H55	0.134400	0.325700	0.184300
H561	H56	0.210100	0.345300	0.240800
H571	H57	0.346300	0.414000	0.185600
H581	H58	0.407500	0.456600	0.074000
H591	H59	0.592300	0.613700	0.703700
H601	H60	0.188200	0.379800	0.780000
C11	C1	0.080050	0.676880	0.979630
C21	C2	0.144470	0.710320	0.919410
C31	C3	0.181970	0.675630	0.899420
C41	C4	0.155570	0.610180	0.937770
C51	C5	0.091190	0.580930	0.996960
C61	C6	0.055880	0.511350	0.044410
C71	C7	0.025900	0.413680	0.097880
C81	C8	0.013000	0.345680	0.127680
C91	C9	0.647760	0.837920	0.514040
C101	C10	0.569200	0.804000	0.560100
C111	C11	0.520900	0.836400	0.567600
C121	C12	0.550900	0.903000	0.526800
C131	C13	0.630130	0.933920	0.480530
C141	C14	0.670640	0.004760	0.435540
C151	C15	0.706930	0.102880	0.382790
C161	C16	0.719820	0.170680	0.352220
C171	C17	0.720030	0.262410	0.320920
C181	C18	0.015710	0.253470	0.157840
C191	C19	0.059680	0.979630	0.343490
C201	C20	0.063880	0.919410	0.370270
C211	C21	0.081390	0.899420	0.424950
C221	C22	0.093340	0.937770	0.452050
C231	C23	0.088150	0.996960	0.422110
C241	C24	0.100290	0.044410	0.444240
C251	C25	0.123780	0.097880	0.488440
C261	C26	0.140680	0.127680	0.526640
C271	C27	0.161800	0.514040	0.648040
C281	C28	0.129300	0.560100	0.635900
C291	C29	0.088500	0.567600	0.596000
C301	C30	0.077700	0.526800	0.570200
C311	C31	0.110660	0.480530	0.585550
C321	C32	0.106180	0.435540	0.559700
C331	C33	0.089720	0.382790	0.514330
C341	C34	0.072040	0.352220	0.477100
C351	C35	0.040950	0.320920	0.416670
C361	C36	0.173550	0.157840	0.588690
C371	C37	0.403170	0.343490	0.676880
C381	C38	0.434150	0.370270	0.710320
C391	C39	0.506340	0.424950	0.675630
C401	C40	0.545390	0.452050	0.610180
C411	C41	0.510260	0.422110	0.580930
C421	C42	0.544530	0.444240	0.511350
C431	C43	0.612220	0.488440	0.413680
C441	C44	0.667320	0.526640	0.345680
C451	C45	0.809840	0.648040	0.837920
C461	C46	0.765200	0.635900	0.804000
C471	C47	0.684500	0.596000	0.836400
C481	C48	0.647900	0.570200	0.903000
C491	C49	0.696210	0.585550	0.933920
C501	C50	0.665880	0.559700	0.004760
C511	C51	0.604050	0.514330	0.102880
C521	C52	0.549140	0.477100	0.170680
C531	C53	0.457620	0.416670	0.262410
C541	C54	0.762240	0.588690	0.253470
C551	C55	0.919950	0.323120	0.020370
C561	C56	0.855530	0.289680	0.080590
C571	C57	0.818030	0.324370	0.100580
C581	C58	0.844430	0.389820	0.062230
C591	C59	0.908810	0.419070	0.003040
C601	C60	0.944120	0.488650	0.955590
C611	C61	0.974100	0.586320	0.902120
C621	C62	0.987000	0.654320	0.872320
C631	C63	0.352240	0.162080	0.485960
C641	C64	0.430800	0.196000	0.439900
C651	C65	0.479100	0.163600	0.432400
C661	C66	0.449100	0.097000	0.473200
C671	C67	0.369870	0.066080	0.519470
C681	C68	0.329360	0.995240	0.564460
C691	C69	0.293070	0.897120	0.617210
C701	C70	0.280180	0.829320	0.647780
C711	C71	0.279970	0.737590	0.679080
C721	C72	0.984290	0.746530	0.842160
C731	C73	0.940320	0.020370	0.656510
C741	C74	0.936120	0.080590	0.629730
C751	C75	0.918610	0.100580	0.575050
C761	C76	0.906660	0.062230	0.547950
C771	C77	0.911850	0.003040	0.577890
C781	C78	0.899710	0.955590	0.555760
C791	C79	0.876220	0.902120	0.511560
C801	C80	0.859320	0.872320	0.473360
C811	C81	0.838200	0.485960	0.351960
C821	C82	0.870700	0.439900	0.364100
C831	C83	0.911500	0.432400	0.404000
C841	C84	0.922300	0.473200	0.429800
C851	C85	0.889340	0.519470	0.414450
C861	C86	0.893820	0.564460	0.440300
C871	C87	0.910280	0.617210	0.485670
C881	C88	0.927960	0.647780	0.522900
C891	C89	0.959050	0.679080	0.583330
C901	C90	0.826450	0.842160	0.411310
C911	C91	0.596830	0.656510	0.323120
C921	C92	0.565850	0.629730	0.289680
C931	C93	0.493660	0.575050	0.324370
C941	C94	0.454610	0.547950	0.389820
C951	C95	0.489740	0.577890	0.419070
C961	C96	0.455470	0.555760	0.488650
C971	C97	0.387780	0.511560	0.586320
C981	C98	0.332680	0.473360	0.654320
C991	C99	0.190160	0.351960	0.162080
C1001	C100	0.234800	0.364100	0.196000
C1011	C101	0.315500	0.404000	0.163600
C1021	C102	0.352100	0.429800	0.097000
C1031	C103	0.303790	0.414450	0.066080
C1041	C104	0.334120	0.440300	0.995240
C1051	C105	0.395950	0.485670	0.897120
C1061	C106	0.450860	0.522900	0.829320
C1071	C107	0.542380	0.583330	0.737590
C1081	C108	0.237760	0.411310	0.746530
S11	S1	0.010160	0.214790	0.336870
S21	S2	0.950060	0.069790	0.276350
S31	S3	0.347030	0.336870	0.448340
S41	S4	0.226410	0.276350	0.653860
S51	S5	0.795370	0.448340	0.214790
S61	S6	0.880270	0.653860	0.069790
S71	S7	0.989840	0.785210	0.663130
S81	S8	0.049940	0.930210	0.723650
S91	S9	0.652970	0.663130	0.551660
S101	S10	0.773590	0.723650	0.346140
S111	S11	0.204630	0.551660	0.785210
S121	S12	0.119730	0.346140	0.930210
N11	N1	0.052510	0.613460	0.017730
N21	N2	0.989840	0.490060	0.096740
N31	N3	0.969580	0.426020	0.132720
N41	N4	0.081830	0.465100	0.042410
N51	N5	0.947160	0.305710	0.181550
N61	N6	0.948820	0.245470	0.201170
N71	N7	0.678520	0.902780	0.474020
N81	N8	0.746020	0.025670	0.392310
N91	N9	0.769790	0.090820	0.357080
N101	N10	0.642310	0.050940	0.431710
N111	N11	0.791820	0.210880	0.302120
N121	N12	0.791810	0.271000	0.281570
N131	N13	0.672790	0.200250	0.366280
N141	N14	0.058210	0.315720	0.110410
N151	N15	0.070240	0.017730	0.368810
N161	N16	0.086580	0.096740	0.413200
N171	N17	0.102300	0.132720	0.441260
N181	N18	0.124240	0.042410	0.492490
N191	N19	0.128710	0.181550	0.512740
N201	N20	0.149990	0.201170	0.553360
N211	N21	0.152540	0.474020	0.623200
N221	N22	0.138330	0.392310	0.582020
N231	N23	0.126870	0.357080	0.552100
N241	N24	0.074020	0.431710	0.517350
N251	N25	0.093940	0.302120	0.487000
N261	N26	0.073380	0.281570	0.447430
N271	N27	0.039070	0.366280	0.433470
N281	N28	0.168620	0.110410	0.573870
N291	N29	0.439050	0.368810	0.613460
N301	N30	0.499780	0.413200	0.490060
N311	N31	0.543560	0.441260	0.426020
N321	N32	0.616730	0.492490	0.465100
N331	N33	0.641450	0.512740	0.305710
N341	N34	0.703350	0.553360	0.245470
N351	N35	0.775740	0.623200	0.902780
N361	N36	0.720350	0.582020	0.025670
N371	N37	0.678970	0.552100	0.090820
N381	N38	0.591370	0.517350	0.050940
N391	N39	0.580940	0.487000	0.210880
N401	N40	0.520810	0.447430	0.271000
N411	N41	0.472540	0.433470	0.200250
N421	N42	0.742490	0.573870	0.315720
N431	N43	0.947490	0.386540	0.982270
N441	N44	0.010160	0.509940	0.903260
N451	N45	0.030420	0.573980	0.867280
N461	N46	0.918170	0.534900	0.957590
N471	N47	0.052840	0.694290	0.818450
N481	N48	0.051180	0.754530	0.798830
N491	N49	0.321480	0.097220	0.525980
N501	N50	0.253980	0.974330	0.607690
N511	N51	0.230210	0.909180	0.642920
N521	N52	0.357690	0.949060	0.568290
N531	N53	0.208180	0.789120	0.697880
N541	N54	0.208190	0.729000	0.718430
N551	N55	0.327210	0.799750	0.633720
N561	N56	0.941790	0.684280	0.889590
N571	N57	0.929760	0.982270	0.631190
N581	N58	0.913420	0.903260	0.586800
N591	N59	0.897700	0.867280	0.558740
N601	N60	0.875760	0.957590	0.507510
N611	N61	0.871290	0.818450	0.487260
N621	N62	0.850010	0.798830	0.446640
N631	N63	0.847460	0.525980	0.376800
N641	N64	0.861670	0.607690	0.417980
N651	N65	0.873130	0.642920	0.447900
N661	N66	0.925980	0.568290	0.482650
N671	N67	0.906060	0.697880	0.513000
N681	N68	0.926620	0.718430	0.552570
N691	N69	0.960930	0.633720	0.566530
N701	N70	0.831380	0.889590	0.426130
N711	N71	0.560950	0.631190	0.386540
N721	N72	0.500220	0.586800	0.509940
N731	N73	0.456440	0.558740	0.573980
N741	N74	0.383270	0.507510	0.534900
N751	N75	0.358550	0.487260	0.694290
N761	N76	0.296650	0.446640	0.754530
N771	N77	0.224260	0.376800	0.097220
N781	N78	0.279650	0.417980	0.974330
N791	N79	0.321030	0.447900	0.909180
N801	N80	0.408630	0.482650	0.949060
N811	N81	0.419060	0.513000	0.789120
N821	N82	0.479190	0.552570	0.729000
N831	N83	0.527460	0.566530	0.799750
N841	N84	0.257510	0.426130	0.684280
O11	O1	0.905690	0.026340	0.346930
O21	O2	0.953550	0.034610	0.242160
O31	O3	0.909220	0.113790	0.251680
O41	O4	0.030010	0.283230	0.294250
O51	O5	0.075790	0.197380	0.307940
O61	O6	0.007830	0.203850	0.401380
O71	O7	0.034140	0.108580	0.265280
O81	O8	0.930230	0.172580	0.347640
O91	O9	0.252620	0.346930	0.626730
O101	O10	0.195710	0.242160	0.723230
O111	O11	0.160900	0.251680	0.634530
O121	O12	0.324260	0.294250	0.422520
O131	O13	0.383730	0.307940	0.494680
O141	O14	0.409210	0.401380	0.394770
O151	O15	0.299420	0.265280	0.626140
O161	O16	0.277870	0.347640	0.479780
O171	O17	0.879350	0.626730	0.026340
O181	O18	0.918940	0.723230	0.034610
O191	O19	0.795430	0.634530	0.113790
O201	O20	0.746780	0.422520	0.283230
O211	O21	0.878410	0.494680	0.197380
O221	O22	0.803980	0.394770	0.203850
O231	O23	0.925560	0.626140	0.108580
O241	O24	0.757650	0.479780	0.172580
O251	O25	0.094310	0.973660	0.653070
O261	O26	0.046450	0.965390	0.757840
O271	O27	0.090780	0.886210	0.748320
O281	O28	0.969990	0.716770	0.705750
O291	O29	0.924210	0.802620	0.692060
O301	O30	0.992170	0.796150	0.598620
O311	O31	0.965860	0.891420	0.734720
O321	O32	0.069770	0.827420	0.652360
O331	O33	0.747380	0.653070	0.373270
O341	O34	0.804290	0.757840	0.276770
O351	O35	0.839100	0.748320	0.365470
O361	O36	0.675740	0.705750	0.577480
O371	O37	0.616270	0.692060	0.505320
O381	O38	0.590790	0.598620	0.605230
O391	O39	0.700580	0.734720	0.373860
O401	O40	0.722130	0.652360	0.520220
O411	O41	0.120650	0.373270	0.973660
O421	O42	0.081060	0.276770	0.965390
O431	O43	0.204570	0.365470	0.886210
O441	O44	0.253220	0.577480	0.716770
O451	O45	0.121590	0.505320	0.802620
O461	O46	0.196020	0.605230	0.796150
O471	O47	0.074440	0.373860	0.891420
O481	O48	0.242350	0.520220	0.827420
