data_RAYLAG_clean_PM
_symmetry_space_group_name_H-M	'P1'
_cell_length_a	16.576400
_cell_length_b	16.576400
_cell_length_c	25.250400
_cell_angle_alpha	90.000000
_cell_angle_beta	90.000000
_cell_angle_gamma	120.000000
_symmetry_Int_Tables_number 1

loop_
_symmetry_equiv_pos_as_xyz
'x,y,z'

loop_
_atom_site_label
_atom_site_type_symbol
_atom_site_fract_x
_atom_site_fract_y
_atom_site_fract_z
Zn11	Zn1	0.714020	0.285970	0.000000
Zn21	Zn2	0.571950	0.285970	0.666670
Zn31	Zn3	0.714020	0.428040	0.333330
Zn41	Zn4	0.285980	0.714030	0.000000
Zn51	Zn5	0.428050	0.714030	0.666670
Zn61	Zn6	0.285980	0.571960	0.333330
H11	H1	0.820400	0.594600	0.910800
H21	H2	0.641700	0.099100	0.053100
H31	H3	0.583000	0.944500	0.031500
H41	H4	0.636700	0.021700	0.879500
H51	H5	0.682300	0.169800	0.905800
H61	H6	0.485200	0.696100	0.958200
H71	H7	0.439500	0.541300	0.952000
H81	H8	0.574200	0.587300	0.823500
H91	H9	0.598600	0.734000	0.823500
H101	H10	0.545200	0.832800	0.966700
H111	H11	0.860300	0.738300	0.804400
H121	H12	0.774200	0.179600	0.577470
H131	H13	0.457400	0.358300	0.719770
H141	H14	0.361500	0.417000	0.698170
H151	H15	0.385000	0.363300	0.546170
H161	H16	0.487500	0.317700	0.572470
H171	H17	0.210900	0.514800	0.624870
H181	H18	0.101800	0.560500	0.618670
H191	H19	0.013100	0.425800	0.490170
H201	H20	0.135400	0.401400	0.490170
H211	H21	0.287600	0.454800	0.633370
H221	H22	0.878000	0.139700	0.471070
H231	H23	0.405400	0.225800	0.244130
H241	H24	0.900900	0.542600	0.386430
H251	H25	0.055500	0.638500	0.364830
H261	H26	0.978300	0.615000	0.212830
H271	H27	0.830200	0.512500	0.239130
H281	H28	0.303900	0.789100	0.291530
H291	H29	0.458700	0.898200	0.285330
H301	H30	0.412700	0.986900	0.156830
H311	H31	0.266000	0.864600	0.156830
H321	H32	0.167200	0.712400	0.300030
H331	H33	0.261700	0.122000	0.137730
H341	H34	0.179600	0.405400	0.910800
H351	H35	0.358300	0.900900	0.053100
H361	H36	0.417000	0.055500	0.031500
H371	H37	0.363300	0.978300	0.879500
H381	H38	0.317700	0.830200	0.905800
H391	H39	0.514800	0.303900	0.958200
H401	H40	0.560500	0.458700	0.952000
H411	H41	0.425800	0.412700	0.823500
H421	H42	0.401400	0.266000	0.823500
H431	H43	0.454800	0.167200	0.966700
H441	H44	0.139700	0.261700	0.804400
H451	H45	0.225800	0.820400	0.577470
H461	H46	0.542600	0.641700	0.719770
H471	H47	0.638500	0.583000	0.698170
H481	H48	0.615000	0.636700	0.546170
H491	H49	0.512500	0.682300	0.572470
H501	H50	0.789100	0.485200	0.624870
H511	H51	0.898200	0.439500	0.618670
H521	H52	0.986900	0.574200	0.490170
H531	H53	0.864600	0.598600	0.490170
H541	H54	0.712400	0.545200	0.633370
H551	H55	0.122000	0.860300	0.471070
H561	H56	0.594600	0.774200	0.244130
H571	H57	0.099100	0.457400	0.386430
H581	H58	0.944500	0.361500	0.364830
H591	H59	0.021700	0.385000	0.212830
H601	H60	0.169800	0.487500	0.239130
H611	H61	0.696100	0.210900	0.291530
H621	H62	0.541300	0.101800	0.285330
H631	H63	0.587300	0.013100	0.156830
H641	H64	0.734000	0.135400	0.156830
H651	H65	0.832800	0.287600	0.300030
H661	H66	0.738300	0.878000	0.137730
H671	H67	0.225800	0.405400	0.755870
H681	H68	0.542600	0.900900	0.613570
H691	H69	0.638500	0.055500	0.635170
H701	H70	0.615000	0.978300	0.787170
H711	H71	0.512500	0.830200	0.760870
H721	H72	0.789100	0.303900	0.708470
H731	H73	0.898200	0.458700	0.714670
H741	H74	0.986900	0.412700	0.843170
H751	H75	0.864600	0.266000	0.843170
H761	H76	0.712400	0.167200	0.699970
H771	H77	0.122000	0.261700	0.862270
H781	H78	0.594600	0.820400	0.089200
H791	H79	0.099100	0.641700	0.946900
H801	H80	0.944500	0.583000	0.968500
H811	H81	0.021700	0.636700	0.120500
H821	H82	0.169800	0.682300	0.094200
H831	H83	0.696100	0.485200	0.041800
H841	H84	0.541300	0.439500	0.048000
H851	H85	0.587300	0.574200	0.176500
H861	H86	0.734000	0.598600	0.176500
H871	H87	0.832800	0.545200	0.033300
H881	H88	0.738300	0.860300	0.195600
H891	H89	0.179600	0.774200	0.422530
H901	H90	0.358300	0.457400	0.280230
H911	H91	0.417000	0.361500	0.301830
H921	H92	0.363300	0.385000	0.453830
H931	H93	0.317700	0.487500	0.427530
H941	H94	0.514800	0.210900	0.375130
H951	H95	0.560500	0.101800	0.381330
H961	H96	0.425800	0.013100	0.509830
H971	H97	0.401400	0.135400	0.509830
H981	H98	0.454800	0.287600	0.366630
H991	H99	0.139700	0.878000	0.528930
H1001	H100	0.774200	0.594600	0.755870
H1011	H101	0.457400	0.099100	0.613570
H1021	H102	0.361500	0.944500	0.635170
H1031	H103	0.385000	0.021700	0.787170
H1041	H104	0.487500	0.169800	0.760870
H1051	H105	0.210900	0.696100	0.708470
H1061	H106	0.101800	0.541300	0.714670
H1071	H107	0.013100	0.587300	0.843170
H1081	H108	0.135400	0.734000	0.843170
H1091	H109	0.287600	0.832800	0.699970
H1101	H110	0.878000	0.738300	0.862270
H1111	H111	0.405400	0.179600	0.089200
H1121	H112	0.900900	0.358300	0.946900
H1131	H113	0.055500	0.417000	0.968500
H1141	H114	0.978300	0.363300	0.120500
H1151	H115	0.830200	0.317700	0.094200
H1161	H116	0.303900	0.514800	0.041800
H1171	H117	0.458700	0.560500	0.048000
H1181	H118	0.412700	0.425800	0.176500
H1191	H119	0.266000	0.401400	0.176500
H1201	H120	0.167200	0.454800	0.033300
H1211	H121	0.261700	0.139700	0.195600
H1221	H122	0.820400	0.225800	0.422530
H1231	H123	0.641700	0.542600	0.280230
H1241	H124	0.583000	0.638500	0.301830
H1251	H125	0.636700	0.615000	0.453830
H1261	H126	0.682300	0.512500	0.427530
H1271	H127	0.485200	0.789100	0.375130
H1281	H128	0.439500	0.898200	0.381330
H1291	H129	0.574200	0.986900	0.509830
H1301	H130	0.598600	0.864600	0.509830
H1311	H131	0.545200	0.712400	0.366630
H1321	H132	0.860300	0.122000	0.528930
H1331	H133	0.676400	0.352800	0.833330
H1341	H134	0.676400	0.323600	0.500000
H1351	H135	0.647200	0.323600	0.166670
H1361	H136	0.323600	0.647200	0.833330
H1371	H137	0.323600	0.676400	0.500000
H1381	H138	0.352800	0.676400	0.166670
C11	C1	0.741500	0.414870	0.930370
C21	C2	0.749060	0.465040	0.879200
C31	C3	0.795720	0.562330	0.879400
C41	C4	0.638410	0.082860	0.017600
C51	C5	0.604860	0.989240	0.004850
C61	C6	0.604230	0.963530	0.953250
C71	C7	0.635260	0.034720	0.915210
C81	C8	0.663410	0.123810	0.931620
C91	C9	0.588240	0.836750	0.897030
C101	C10	0.555860	0.734590	0.894820
C111	C11	0.505800	0.675870	0.929620
C121	C12	0.480300	0.582100	0.926740
C131	C13	0.511620	0.548900	0.889690
C141	C14	0.554500	0.607200	0.852640
C151	C15	0.572900	0.697400	0.853530
C161	C16	0.673370	0.258500	0.597040
C171	C17	0.715980	0.250940	0.545870
C181	C18	0.766610	0.204280	0.546070
C191	C19	0.444450	0.361590	0.684270
C201	C20	0.384380	0.395140	0.671520
C211	C21	0.359300	0.395770	0.619920
C221	C22	0.399460	0.364740	0.581880
C231	C23	0.460400	0.336590	0.598290
C241	C24	0.248510	0.411760	0.563700
C251	C25	0.178730	0.444140	0.561490
C261	C26	0.170070	0.494200	0.596290
C271	C27	0.101800	0.519700	0.593410
C281	C28	0.037280	0.488380	0.556360
C291	C29	0.052700	0.445500	0.519310
C301	C30	0.124500	0.427100	0.520200
C311	C31	0.585130	0.326630	0.263700
C321	C32	0.534960	0.284020	0.212530
C331	C33	0.437670	0.233390	0.212730
C341	C34	0.917140	0.555550	0.350930
C351	C35	0.010760	0.615620	0.338180
C361	C36	0.036470	0.640700	0.286580
C371	C37	0.965280	0.600540	0.248540
C381	C38	0.876190	0.539600	0.264950
C391	C39	0.163250	0.751490	0.230360
C401	C40	0.265410	0.821270	0.228150
C411	C41	0.324130	0.829930	0.262950
C421	C42	0.417900	0.898200	0.260070
C431	C43	0.451100	0.962720	0.223020
C441	C44	0.392800	0.947300	0.185970
C451	C45	0.302600	0.875500	0.186860
C461	C46	0.258500	0.585130	0.930370
C471	C47	0.250940	0.534960	0.879200
C481	C48	0.204280	0.437670	0.879400
C491	C49	0.361590	0.917140	0.017600
C501	C50	0.395140	0.010760	0.004850
C511	C51	0.395770	0.036470	0.953250
C521	C52	0.364740	0.965280	0.915210
C531	C53	0.336590	0.876190	0.931620
C541	C54	0.411760	0.163250	0.897030
C551	C55	0.444140	0.265410	0.894820
C561	C56	0.494200	0.324130	0.929620
C571	C57	0.519700	0.417900	0.926740
C581	C58	0.488380	0.451100	0.889690
C591	C59	0.445500	0.392800	0.852640
C601	C60	0.427100	0.302600	0.853530
C611	C61	0.326630	0.741500	0.597040
C621	C62	0.284020	0.749060	0.545870
C631	C63	0.233390	0.795720	0.546070
C641	C64	0.555550	0.638410	0.684270
C651	C65	0.615620	0.604860	0.671520
C661	C66	0.640700	0.604230	0.619920
C671	C67	0.600540	0.635260	0.581880
C681	C68	0.539600	0.663410	0.598290
C691	C69	0.751490	0.588240	0.563700
C701	C70	0.821270	0.555860	0.561490
C711	C71	0.829930	0.505800	0.596290
C721	C72	0.898200	0.480300	0.593410
C731	C73	0.962720	0.511620	0.556360
C741	C74	0.947300	0.554500	0.519310
C751	C75	0.875500	0.572900	0.520200
C761	C76	0.414870	0.673370	0.263700
C771	C77	0.465040	0.715980	0.212530
C781	C78	0.562330	0.766610	0.212730
C791	C79	0.082860	0.444450	0.350930
C801	C80	0.989240	0.384380	0.338180
C811	C81	0.963530	0.359300	0.286580
C821	C82	0.034720	0.399460	0.248540
C831	C83	0.123810	0.460400	0.264950
C841	C84	0.836750	0.248510	0.230360
C851	C85	0.734590	0.178730	0.228150
C861	C86	0.675870	0.170070	0.262950
C871	C87	0.582100	0.101800	0.260070
C881	C88	0.548900	0.037280	0.223020
C891	C89	0.607200	0.052700	0.185970
C901	C90	0.697400	0.124500	0.186860
C911	C91	0.326630	0.585130	0.736300
C921	C92	0.284020	0.534960	0.787470
C931	C93	0.233390	0.437670	0.787270
C941	C94	0.555550	0.917140	0.649070
C951	C95	0.615620	0.010760	0.661820
C961	C96	0.640700	0.036470	0.713420
C971	C97	0.600540	0.965280	0.751460
C981	C98	0.539600	0.876190	0.735050
C991	C99	0.751490	0.163250	0.769640
C1001	C100	0.821270	0.265410	0.771850
C1011	C101	0.829930	0.324130	0.737050
C1021	C102	0.898200	0.417900	0.739930
C1031	C103	0.962720	0.451100	0.776980
C1041	C104	0.947300	0.392800	0.814030
C1051	C105	0.875500	0.302600	0.813140
C1061	C106	0.414870	0.741500	0.069630
C1071	C107	0.465040	0.749060	0.120800
C1081	C108	0.562330	0.795720	0.120600
C1091	C109	0.082860	0.638410	0.982400
C1101	C110	0.989240	0.604860	0.995150
C1111	C111	0.963530	0.604230	0.046750
C1121	C112	0.034720	0.635260	0.084790
C1131	C113	0.123810	0.663410	0.068380
C1141	C114	0.836750	0.588240	0.102970
C1151	C115	0.734590	0.555860	0.105180
C1161	C116	0.675870	0.505800	0.070380
C1171	C117	0.582100	0.480300	0.073260
C1181	C118	0.548900	0.511620	0.110310
C1191	C119	0.607200	0.554500	0.147360
C1201	C120	0.697400	0.572900	0.146470
C1211	C121	0.258500	0.673370	0.402960
C1221	C122	0.250940	0.715980	0.454130
C1231	C123	0.204280	0.766610	0.453930
C1241	C124	0.361590	0.444450	0.315730
C1251	C125	0.395140	0.384380	0.328480
C1261	C126	0.395770	0.359300	0.380080
C1271	C127	0.364740	0.399460	0.418120
C1281	C128	0.336590	0.460400	0.401710
C1291	C129	0.411760	0.248510	0.436300
C1301	C130	0.444140	0.178730	0.438510
C1311	C131	0.494200	0.170070	0.403710
C1321	C132	0.519700	0.101800	0.406590
C1331	C133	0.488380	0.037280	0.443640
C1341	C134	0.445500	0.052700	0.480690
C1351	C135	0.427100	0.124500	0.479800
C1361	C136	0.673370	0.414870	0.736300
C1371	C137	0.715980	0.465040	0.787470
C1381	C138	0.766610	0.562330	0.787270
C1391	C139	0.444450	0.082860	0.649070
C1401	C140	0.384380	0.989240	0.661820
C1411	C141	0.359300	0.963530	0.713420
C1421	C142	0.399460	0.034720	0.751460
C1431	C143	0.460400	0.123810	0.735050
C1441	C144	0.248510	0.836750	0.769640
C1451	C145	0.178730	0.734590	0.771850
C1461	C146	0.170070	0.675870	0.737050
C1471	C147	0.101800	0.582100	0.739930
C1481	C148	0.037280	0.548900	0.776980
C1491	C149	0.052700	0.607200	0.814030
C1501	C150	0.124500	0.697400	0.813140
C1511	C151	0.585130	0.258500	0.069630
C1521	C152	0.534960	0.250940	0.120800
C1531	C153	0.437670	0.204280	0.120600
C1541	C154	0.917140	0.361590	0.982400
C1551	C155	0.010760	0.395140	0.995150
C1561	C156	0.036470	0.395770	0.046750
C1571	C157	0.965280	0.364740	0.084790
C1581	C158	0.876190	0.336590	0.068380
C1591	C159	0.163250	0.411760	0.102970
C1601	C160	0.265410	0.444140	0.105180
C1611	C161	0.324130	0.494200	0.070380
C1621	C162	0.417900	0.519700	0.073260
C1631	C163	0.451100	0.488380	0.110310
C1641	C164	0.392800	0.445500	0.147360
C1651	C165	0.302600	0.427100	0.146470
C1661	C166	0.741500	0.326630	0.402960
C1671	C167	0.749060	0.284020	0.454130
C1681	C168	0.795720	0.233390	0.453930
C1691	C169	0.638410	0.555550	0.315730
C1701	C170	0.604860	0.615620	0.328480
C1711	C171	0.604230	0.640700	0.380080
C1721	C172	0.635260	0.600540	0.418120
C1731	C173	0.663410	0.539600	0.401710
C1741	C174	0.588240	0.751490	0.436300
C1751	C175	0.555860	0.821270	0.438510
C1761	C176	0.505800	0.829930	0.403710
C1771	C177	0.480300	0.898200	0.406590
C1781	C178	0.511620	0.962720	0.443640
C1791	C179	0.554500	0.947300	0.480690
C1801	C180	0.572900	0.875500	0.479800
C1811	C181	0.708840	0.417680	0.833330
C1821	C182	0.805360	0.610720	0.833330
C1831	C183	0.708840	0.291160	0.500000
C1841	C184	0.805360	0.194640	0.500000
C1851	C185	0.582320	0.291160	0.166670
C1861	C186	0.389280	0.194640	0.166670
C1871	C187	0.291160	0.582320	0.833330
C1881	C188	0.194640	0.389280	0.833330
C1891	C189	0.291160	0.708840	0.500000
C1901	C190	0.194640	0.805360	0.500000
C1911	C191	0.417680	0.708840	0.166670
C1921	C192	0.610720	0.805360	0.166670
N11	N1	0.665550	0.149010	0.981880
N21	N2	0.575310	0.872260	0.941970
N31	N3	0.483460	0.334450	0.648550
N41	N4	0.296950	0.424690	0.608640
N51	N5	0.850990	0.516540	0.315210
N61	N6	0.127740	0.703050	0.275300
N71	N7	0.334450	0.850990	0.981880
N81	N8	0.424690	0.127740	0.941970
N91	N9	0.516540	0.665550	0.648550
N101	N10	0.703050	0.575310	0.608640
N111	N11	0.149010	0.483460	0.315210
N121	N12	0.872260	0.296950	0.275300
N131	N13	0.516540	0.850990	0.684790
N141	N14	0.703050	0.127740	0.724700
N151	N15	0.149010	0.665550	0.018120
N161	N16	0.872260	0.575310	0.058030
N171	N17	0.334450	0.483460	0.351450
N181	N18	0.424690	0.296950	0.391360
N191	N19	0.483460	0.149010	0.684790
N201	N20	0.296950	0.872260	0.724700
N211	N21	0.850990	0.334450	0.018120
N221	N22	0.127740	0.424690	0.058030
N231	N23	0.665550	0.516540	0.351450
N241	N24	0.575310	0.703050	0.391360
N251	N25	0.854130	0.708260	0.833330
N261	N26	0.854130	0.145880	0.500000
N271	N27	0.291750	0.145880	0.166670
N281	N28	0.145870	0.291740	0.833330
N291	N29	0.145870	0.854120	0.500000
N301	N30	0.708250	0.854120	0.166670
O11	O1	0.709290	0.329930	0.928270
O21	O2	0.767610	0.459950	0.972400
O31	O3	0.621250	0.884830	0.858430
O41	O4	0.620640	0.290710	0.594940
O51	O5	0.692340	0.232390	0.639070
O61	O6	0.263580	0.378750	0.525100
O71	O7	0.670070	0.379360	0.261600
O81	O8	0.540050	0.307660	0.305730
O91	O9	0.115170	0.736420	0.191760
O101	O10	0.290710	0.670070	0.928270
O111	O11	0.232390	0.540050	0.972400
O121	O12	0.378750	0.115170	0.858430
O131	O13	0.379360	0.709290	0.594940
O141	O14	0.307660	0.767610	0.639070
O151	O15	0.736420	0.621250	0.525100
O161	O16	0.329930	0.620640	0.261600
O171	O17	0.459950	0.692340	0.305730
O181	O18	0.884830	0.263580	0.191760
O191	O19	0.379360	0.670070	0.738400
O201	O20	0.307660	0.540050	0.694270
O211	O21	0.736420	0.115170	0.808240
O221	O22	0.329930	0.709290	0.071730
O231	O23	0.459950	0.767610	0.027600
O241	O24	0.884830	0.621250	0.141570
O251	O25	0.290710	0.620640	0.405060
O261	O26	0.232390	0.692340	0.360930
O271	O27	0.378750	0.263580	0.474900
O281	O28	0.620640	0.329930	0.738400
O291	O29	0.692340	0.459950	0.694270
O301	O30	0.263580	0.884830	0.808240
O311	O31	0.670070	0.290710	0.071730
O321	O32	0.540050	0.232390	0.027600
O331	O33	0.115170	0.378750	0.141570
O341	O34	0.709290	0.379360	0.405060
O351	O35	0.767610	0.307660	0.360930
O361	O36	0.621250	0.736420	0.474900
