data_RAYMIP_clean_PM
_symmetry_space_group_name_H-M	'P1'
_cell_length_a	19.435600
_cell_length_b	19.435600
_cell_length_c	27.893000
_cell_angle_alpha	90.000000
_cell_angle_beta	90.000000
_cell_angle_gamma	120.000000
_symmetry_Int_Tables_number 1

loop_
_symmetry_equiv_pos_as_xyz
'x,y,z'

loop_
_atom_site_label
_atom_site_type_symbol
_atom_site_fract_x
_atom_site_fract_y
_atom_site_fract_z
In11	In1	0.364010	0.782830	0.250000
In21	In2	0.418820	0.635990	0.250000
In31	In3	0.217170	0.581180	0.250000
In41	In4	0.581180	0.217170	0.750000
In51	In5	0.782830	0.364010	0.750000
In61	In6	0.635990	0.418820	0.750000
H11	H1	0.250000	0.840300	0.366300
H21	H2	0.182800	0.864400	0.424800
H31	H3	0.011800	0.637100	0.420600
H41	H4	0.084300	0.611300	0.364900
H51	H5	0.076600	0.878600	0.444800
H61	H6	0.590300	0.750000	0.366300
H71	H7	0.681600	0.817200	0.424800
H81	H8	0.625300	0.988200	0.420600
H91	H9	0.527000	0.915700	0.364900
H101	H10	0.802000	0.923400	0.444800
H111	H11	0.159700	0.409700	0.366300
H121	H12	0.135600	0.318400	0.424800
H131	H13	0.362900	0.374700	0.420600
H141	H14	0.388700	0.473000	0.364900
H151	H15	0.121400	0.198000	0.444800
H161	H16	0.250000	0.840300	0.133700
H171	H17	0.182800	0.864400	0.075200
H181	H18	0.011800	0.637100	0.079400
H191	H19	0.084300	0.611300	0.135100
H201	H20	0.076600	0.878600	0.055200
H211	H21	0.590300	0.750000	0.133700
H221	H22	0.681600	0.817200	0.075200
H231	H23	0.625300	0.988200	0.079400
H241	H24	0.527000	0.915700	0.135100
H251	H25	0.802000	0.923400	0.055200
H261	H26	0.159700	0.409700	0.133700
H271	H27	0.135600	0.318400	0.075200
H281	H28	0.362900	0.374700	0.079400
H291	H29	0.388700	0.473000	0.135100
H301	H30	0.121400	0.198000	0.055200
H311	H31	0.409700	0.159700	0.633700
H321	H32	0.318400	0.135600	0.575200
H331	H33	0.374700	0.362900	0.579400
H341	H34	0.473000	0.388700	0.635100
H351	H35	0.198000	0.121400	0.555200
H361	H36	0.840300	0.250000	0.633700
H371	H37	0.864400	0.182800	0.575200
H381	H38	0.637100	0.011800	0.579400
H391	H39	0.611300	0.084300	0.635100
H401	H40	0.878600	0.076600	0.555200
H411	H41	0.750000	0.590300	0.633700
H421	H42	0.817200	0.681600	0.575200
H431	H43	0.988200	0.625300	0.579400
H441	H44	0.915700	0.527000	0.635100
H451	H45	0.923400	0.802000	0.555200
H461	H46	0.409700	0.159700	0.866300
H471	H47	0.318400	0.135600	0.924800
H481	H48	0.374700	0.362900	0.920600
H491	H49	0.473000	0.388700	0.864900
H501	H50	0.198000	0.121400	0.944800
H511	H51	0.840300	0.250000	0.866300
H521	H52	0.864400	0.182800	0.924800
H531	H53	0.637100	0.011800	0.920600
H541	H54	0.611300	0.084300	0.864900
H551	H55	0.878600	0.076600	0.944800
H561	H56	0.750000	0.590300	0.866300
H571	H57	0.817200	0.681600	0.924800
H581	H58	0.988200	0.625300	0.920600
H591	H59	0.915700	0.527000	0.864900
H601	H60	0.923400	0.802000	0.944800
H611	H61	0.000000	0.662200	0.500000
H621	H62	0.662200	0.000000	0.500000
H631	H63	0.337800	0.337800	0.500000
H641	H64	0.000000	0.662200	0.000000
H651	H65	0.662200	0.000000	0.000000
H661	H66	0.337800	0.337800	0.000000
H671	H67	0.881800	0.881800	0.500000
H681	H68	0.000000	0.118200	0.500000
H691	H69	0.118200	0.000000	0.500000
H701	H70	0.881800	0.881800	0.000000
H711	H71	0.000000	0.118200	0.000000
H721	H72	0.118200	0.000000	0.000000
C11	C1	0.216330	0.709030	0.319400
C21	C2	0.172970	0.723560	0.358130
C31	C3	0.202100	0.798850	0.377440
C41	C4	0.161950	0.813370	0.412490
C51	C5	0.091240	0.753510	0.429780
C61	C6	0.060890	0.677900	0.410410
C71	C7	0.103290	0.662840	0.375940
C81	C8	0.045250	0.768340	0.466230
C91	C9	0.045550	0.839250	0.466860
C101	C10	0.492700	0.783670	0.319400
C111	C11	0.550590	0.827030	0.358130
C121	C12	0.596750	0.797900	0.377440
C131	C13	0.651420	0.838050	0.412490
C141	C14	0.662270	0.908760	0.429780
C151	C15	0.617010	0.939110	0.410410
C161	C16	0.559550	0.896710	0.375940
C171	C17	0.723090	0.954750	0.466230
C181	C18	0.793700	0.954450	0.466860
C191	C19	0.290970	0.507300	0.319400
C201	C20	0.276440	0.449410	0.358130
C211	C21	0.201150	0.403250	0.377440
C221	C22	0.186630	0.348580	0.412490
C231	C23	0.246490	0.337730	0.429780
C241	C24	0.322100	0.382990	0.410410
C251	C25	0.337160	0.440450	0.375940
C261	C26	0.231660	0.276910	0.466230
C271	C27	0.160750	0.206300	0.466860
C281	C28	0.216330	0.709030	0.180600
C291	C29	0.172970	0.723560	0.141870
C301	C30	0.202100	0.798850	0.122560
C311	C31	0.161950	0.813370	0.087510
C321	C32	0.091240	0.753510	0.070220
C331	C33	0.060890	0.677900	0.089590
C341	C34	0.103290	0.662840	0.124060
C351	C35	0.045250	0.768340	0.033770
C361	C36	0.045550	0.839250	0.033140
C371	C37	0.492700	0.783670	0.180600
C381	C38	0.550590	0.827030	0.141870
C391	C39	0.596750	0.797900	0.122560
C401	C40	0.651420	0.838050	0.087510
C411	C41	0.662270	0.908760	0.070220
C421	C42	0.617010	0.939110	0.089590
C431	C43	0.559550	0.896710	0.124060
C441	C44	0.723090	0.954750	0.033770
C451	C45	0.793700	0.954450	0.033140
C461	C46	0.290970	0.507300	0.180600
C471	C47	0.276440	0.449410	0.141870
C481	C48	0.201150	0.403250	0.122560
C491	C49	0.186630	0.348580	0.087510
C501	C50	0.246490	0.337730	0.070220
C511	C51	0.322100	0.382990	0.089590
C521	C52	0.337160	0.440450	0.124060
C531	C53	0.231660	0.276910	0.033770
C541	C54	0.160750	0.206300	0.033140
C551	C55	0.507300	0.290970	0.680600
C561	C56	0.449410	0.276440	0.641870
C571	C57	0.403250	0.201150	0.622560
C581	C58	0.348580	0.186630	0.587510
C591	C59	0.337730	0.246490	0.570220
C601	C60	0.382990	0.322100	0.589590
C611	C61	0.440450	0.337160	0.624060
C621	C62	0.276910	0.231660	0.533770
C631	C63	0.206300	0.160750	0.533140
C641	C64	0.709030	0.216330	0.680600
C651	C65	0.723560	0.172970	0.641870
C661	C66	0.798850	0.202100	0.622560
C671	C67	0.813370	0.161950	0.587510
C681	C68	0.753510	0.091240	0.570220
C691	C69	0.677900	0.060890	0.589590
C701	C70	0.662840	0.103290	0.624060
C711	C71	0.768340	0.045250	0.533770
C721	C72	0.839250	0.045550	0.533140
C731	C73	0.783670	0.492700	0.680600
C741	C74	0.827030	0.550590	0.641870
C751	C75	0.797900	0.596750	0.622560
C761	C76	0.838050	0.651420	0.587510
C771	C77	0.908760	0.662270	0.570220
C781	C78	0.939110	0.617010	0.589590
C791	C79	0.896710	0.559550	0.624060
C801	C80	0.954750	0.723090	0.533770
C811	C81	0.954450	0.793700	0.533140
C821	C82	0.507300	0.290970	0.819400
C831	C83	0.449410	0.276440	0.858130
C841	C84	0.403250	0.201150	0.877440
C851	C85	0.348580	0.186630	0.912490
C861	C86	0.337730	0.246490	0.929780
C871	C87	0.382990	0.322100	0.910410
C881	C88	0.440450	0.337160	0.875940
C891	C89	0.276910	0.231660	0.966230
C901	C90	0.206300	0.160750	0.966860
C911	C91	0.709030	0.216330	0.819400
C921	C92	0.723560	0.172970	0.858130
C931	C93	0.798850	0.202100	0.877440
C941	C94	0.813370	0.161950	0.912490
C951	C95	0.753510	0.091240	0.929780
C961	C96	0.677900	0.060890	0.910410
C971	C97	0.662840	0.103290	0.875940
C981	C98	0.768340	0.045250	0.966230
C991	C99	0.839250	0.045550	0.966860
C1001	C100	0.783670	0.492700	0.819400
C1011	C101	0.827030	0.550590	0.858130
C1021	C102	0.797900	0.596750	0.877440
C1031	C103	0.838050	0.651420	0.912490
C1041	C104	0.908760	0.662270	0.929780
C1051	C105	0.939110	0.617010	0.910410
C1061	C106	0.896710	0.559550	0.875940
C1071	C107	0.954750	0.723090	0.966230
C1081	C108	0.954450	0.793700	0.966860
C1091	C109	0.000000	0.710070	0.500000
C1101	C110	0.000000	0.853030	0.500000
C1111	C111	0.000000	0.929330	0.500000
C1121	C112	0.710070	0.000000	0.500000
C1131	C113	0.853030	0.000000	0.500000
C1141	C114	0.929330	0.000000	0.500000
C1151	C115	0.289930	0.289930	0.500000
C1161	C116	0.146970	0.146970	0.500000
C1171	C117	0.070670	0.070670	0.500000
C1181	C118	0.000000	0.710070	0.000000
C1191	C119	0.000000	0.853030	0.000000
C1201	C120	0.000000	0.929330	0.000000
C1211	C121	0.710070	0.000000	0.000000
C1221	C122	0.853030	0.000000	0.000000
C1231	C123	0.929330	0.000000	0.000000
C1241	C124	0.289930	0.289930	0.000000
C1251	C125	0.146970	0.146970	0.000000
C1261	C126	0.070670	0.070670	0.000000
C1271	C127	0.929660	0.929660	0.500000
C1281	C128	0.000000	0.070340	0.500000
C1291	C129	0.070340	0.000000	0.500000
C1301	C130	0.929660	0.929660	0.000000
C1311	C131	0.000000	0.070340	0.000000
C1321	C132	0.070340	0.000000	0.000000
O11	O1	0.278910	0.767140	0.304700
O21	O2	0.185790	0.639330	0.304590
O31	O3	0.488230	0.721090	0.304700
O41	O4	0.453540	0.814210	0.304590
O51	O5	0.232860	0.511770	0.304700
O61	O6	0.360670	0.546460	0.304590
O71	O7	0.278910	0.767140	0.195300
O81	O8	0.185790	0.639330	0.195410
O91	O9	0.488230	0.721090	0.195300
O101	O10	0.453540	0.814210	0.195410
O111	O11	0.232860	0.511770	0.195300
O121	O12	0.360670	0.546460	0.195410
O131	O13	0.511770	0.232860	0.695300
O141	O14	0.546460	0.360670	0.695410
O151	O15	0.767140	0.278910	0.695300
O161	O16	0.639330	0.185790	0.695410
O171	O17	0.721090	0.488230	0.695300
O181	O18	0.814210	0.453540	0.695410
O191	O19	0.511770	0.232860	0.804700
O201	O20	0.546460	0.360670	0.804590
O211	O21	0.767140	0.278910	0.804700
O221	O22	0.639330	0.185790	0.804590
O231	O23	0.721090	0.488230	0.804700
O241	O24	0.814210	0.453540	0.804590
O251	O25	0.333330	0.666660	0.250000
O261	O26	0.666670	0.333340	0.750000
