data_RAZGOQ_clean_PM
_symmetry_space_group_name_H-M	'P1'
_cell_length_a	4.761100
_cell_length_b	17.666500
_cell_length_c	17.666500
_cell_angle_alpha	88.959600
_cell_angle_beta	82.255900
_cell_angle_gamma	82.255800
_symmetry_Int_Tables_number 1

loop_
_symmetry_equiv_pos_as_xyz
'x,y,z'

loop_
_atom_site_label
_atom_site_type_symbol
_atom_site_fract_x
_atom_site_fract_y
_atom_site_fract_z
Cu11	Cu1	0.972730	0.964210	0.732650
Cu21	Cu2	0.169590	0.535790	0.767350
Cu31	Cu3	0.705390	0.267340	0.464210
Cu41	Cu4	0.936930	0.232660	0.035790
Cu51	Cu5	0.027270	0.035790	0.267350
Cu61	Cu6	0.830410	0.464210	0.232650
Cu71	Cu7	0.294610	0.732660	0.535790
Cu81	Cu8	0.063070	0.767340	0.964210
H11	H1	0.353000	0.063000	0.928600
H21	H2	0.801600	0.047000	0.026600
H31	H3	0.844600	0.437000	0.571400
H41	H4	0.375200	0.453000	0.473400
H51	H5	0.281600	0.071400	0.563000
H61	H6	0.828200	0.973400	0.547000
H71	H7	0.416000	0.428600	0.937000
H81	H8	0.848600	0.526600	0.953000
H91	H9	0.647000	0.937000	0.071400
H101	H10	0.198400	0.953000	0.973400
H111	H11	0.155400	0.563000	0.428600
H121	H12	0.624800	0.547000	0.526600
H131	H13	0.718400	0.928600	0.437000
H141	H14	0.171800	0.026600	0.453000
H151	H15	0.584000	0.571400	0.063000
H161	H16	0.151400	0.473400	0.047000
C11	C1	0.743030	0.018880	0.875060
C21	C2	0.517100	0.025440	0.943560
C31	C3	0.599500	0.048170	0.021830
C41	C4	0.439750	0.123330	0.053170
C51	C5	0.136970	0.481120	0.624940
C61	C6	0.986100	0.474560	0.556440
C71	C7	0.169500	0.451830	0.478170
C81	C8	0.116250	0.376670	0.446830
C91	C9	0.618090	0.124940	0.518880
C101	C10	0.460660	0.056440	0.525440
C111	C11	0.621330	0.978170	0.548170
C121	C12	0.492920	0.946830	0.623330
C131	C13	0.761910	0.375060	0.981120
C141	C14	0.542540	0.443560	0.974560
C151	C15	0.647670	0.521830	0.951830
C161	C16	0.563080	0.553170	0.876670
C171	C17	0.256970	0.981120	0.124940
C181	C18	0.482900	0.974560	0.056440
C191	C19	0.400500	0.951830	0.978170
C201	C20	0.560250	0.876670	0.946830
C211	C21	0.863030	0.518880	0.375060
C221	C22	0.013900	0.525440	0.443560
C231	C23	0.830500	0.548170	0.521830
C241	C24	0.883750	0.623330	0.553170
C251	C25	0.381910	0.875060	0.481120
C261	C26	0.539340	0.943560	0.474560
C271	C27	0.378670	0.021830	0.451830
C281	C28	0.507080	0.053170	0.376670
C291	C29	0.238090	0.624940	0.018880
C301	C30	0.457460	0.556440	0.025440
C311	C31	0.352330	0.478170	0.048170
C321	C32	0.436920	0.446830	0.123330
O11	O1	0.930800	0.062560	0.867840
O21	O2	0.714800	0.969830	0.825570
O31	O3	0.555970	0.165720	0.092740
O41	O4	0.188740	0.138590	0.035330
O51	O5	0.361200	0.437440	0.632160
O61	O6	0.010200	0.530170	0.674430
O71	O7	0.314430	0.334280	0.407260
O81	O8	0.862660	0.361410	0.464670
O91	O9	0.798640	0.132160	0.562560
O101	O10	0.540370	0.174430	0.469830
O111	O11	0.648710	0.907260	0.665720
O121	O12	0.224070	0.964670	0.638590
O131	O13	0.993360	0.367840	0.937440
O141	O14	0.684630	0.325570	0.030170
O151	O15	0.721690	0.592740	0.834280
O161	O16	0.327330	0.535330	0.861410
O171	O17	0.069200	0.937440	0.132160
O181	O18	0.285200	0.030170	0.174430
O191	O19	0.444030	0.834280	0.907260
O201	O20	0.811260	0.861410	0.964670
O211	O21	0.638800	0.562560	0.367840
O221	O22	0.989800	0.469830	0.325570
O231	O23	0.685570	0.665720	0.592740
O241	O24	0.137340	0.638590	0.535330
O251	O25	0.201360	0.867840	0.437440
O261	O26	0.459630	0.825570	0.530170
O271	O27	0.351290	0.092740	0.334280
O281	O28	0.775930	0.035330	0.361410
O291	O29	0.006640	0.632160	0.062560
O301	O30	0.315370	0.674430	0.969830
O311	O31	0.278310	0.407260	0.165720
O321	O32	0.672670	0.464670	0.138590
