data_RAZYOI_clean_PM
_symmetry_space_group_name_H-M	'P1'
_cell_length_a	12.452200
_cell_length_b	15.932700
_cell_length_c	15.932700
_cell_angle_alpha	90.000000
_cell_angle_beta	90.000000
_cell_angle_gamma	90.000000
_symmetry_Int_Tables_number 1

loop_
_symmetry_equiv_pos_as_xyz
'x,y,z'

loop_
_atom_site_label
_atom_site_type_symbol
_atom_site_fract_x
_atom_site_fract_y
_atom_site_fract_z
Cu11	Cu1	0.623760	0.515650	0.002110
Cu21	Cu2	0.123760	0.484350	0.997890
Cu31	Cu3	0.873760	0.497890	0.015650
Cu41	Cu4	0.373760	0.502110	0.984350
Cu51	Cu5	0.626240	0.984350	0.502110
Cu61	Cu6	0.126240	0.015650	0.497890
Cu71	Cu7	0.376240	0.002110	0.515650
Cu81	Cu8	0.876240	0.997890	0.484350
H11	H1	0.247400	0.602900	0.828800
H21	H2	0.245800	0.629900	0.922600
H31	H3	0.759500	0.719000	0.723000
H41	H4	0.750600	0.649500	0.940100
H51	H5	0.759800	0.609500	0.851500
H61	H6	0.143200	0.721500	0.838700
H71	H7	0.237900	0.765800	0.883500
H81	H8	0.854400	0.728800	0.843700
H91	H9	0.760200	0.778100	0.883600
H101	H10	0.747400	0.397100	0.171200
H111	H11	0.745800	0.370100	0.077400
H121	H12	0.259500	0.281000	0.277000
H131	H13	0.250600	0.350500	0.059900
H141	H14	0.259800	0.390500	0.148500
H151	H15	0.643200	0.278500	0.161300
H161	H16	0.737900	0.234200	0.116500
H171	H17	0.354400	0.271200	0.156300
H181	H18	0.260200	0.221900	0.116400
H191	H19	0.497400	0.671200	0.102900
H201	H20	0.495800	0.577400	0.129900
H211	H21	0.009500	0.777000	0.219000
H221	H22	0.000600	0.559900	0.149500
H231	H23	0.009800	0.648500	0.109500
H241	H24	0.393200	0.661300	0.221500
H251	H25	0.487900	0.616500	0.265800
H261	H26	0.104400	0.656300	0.228800
H271	H27	0.010200	0.616400	0.278100
H281	H28	0.997400	0.328800	0.897100
H291	H29	0.995800	0.422600	0.870100
H301	H30	0.509500	0.223000	0.781000
H311	H31	0.500600	0.440100	0.850500
H321	H32	0.509800	0.351500	0.890500
H331	H33	0.893200	0.338700	0.778500
H341	H34	0.987900	0.383500	0.734200
H351	H35	0.604400	0.343700	0.771200
H361	H36	0.510200	0.383600	0.721900
H371	H37	0.002600	0.897100	0.328800
H381	H38	0.004200	0.870100	0.422600
H391	H39	0.490500	0.781000	0.223000
H401	H40	0.499400	0.850500	0.440100
H411	H41	0.490200	0.890500	0.351500
H421	H42	0.106800	0.778500	0.338700
H431	H43	0.012100	0.734200	0.383500
H441	H44	0.395600	0.771200	0.343700
H451	H45	0.489800	0.721900	0.383600
H461	H46	0.502600	0.102900	0.671200
H471	H47	0.504200	0.129900	0.577400
H481	H48	0.990500	0.219000	0.777000
H491	H49	0.999400	0.149500	0.559900
H501	H50	0.990200	0.109500	0.648500
H511	H51	0.606800	0.221500	0.661300
H521	H52	0.512100	0.265800	0.616500
H531	H53	0.895600	0.228800	0.656300
H541	H54	0.989800	0.278100	0.616400
H551	H55	0.752600	0.828800	0.602900
H561	H56	0.754200	0.922600	0.629900
H571	H57	0.240500	0.723000	0.719000
H581	H58	0.249400	0.940100	0.649500
H591	H59	0.240200	0.851500	0.609500
H601	H60	0.856800	0.838700	0.721500
H611	H61	0.762100	0.883500	0.765800
H621	H62	0.145600	0.843700	0.728800
H631	H63	0.239800	0.883600	0.778100
H641	H64	0.252600	0.171200	0.397100
H651	H65	0.254200	0.077400	0.370100
H661	H66	0.740500	0.277000	0.281000
H671	H67	0.749400	0.059900	0.350500
H681	H68	0.740200	0.148500	0.390500
H691	H69	0.356800	0.161300	0.278500
H701	H70	0.262100	0.116500	0.234200
H711	H71	0.645600	0.156300	0.271200
H721	H72	0.739800	0.116400	0.221900
C11	C1	0.607600	0.655200	0.874600
C21	C2	0.555900	0.710400	0.817600
C31	C3	0.614900	0.763600	0.762400
C41	C4	0.443600	0.710100	0.814900
C51	C5	0.389400	0.649000	0.867900
C61	C6	0.270900	0.645000	0.867700
C71	C7	0.737100	0.761600	0.761800
C81	C8	0.730400	0.655900	0.882300
C91	C9	0.220000	0.725700	0.840800
C101	C10	0.777600	0.733700	0.845100
C111	C11	0.107600	0.344800	0.125400
C121	C12	0.055900	0.289600	0.182400
C131	C13	0.114900	0.236400	0.237600
C141	C14	0.943600	0.289900	0.185100
C151	C15	0.889400	0.351000	0.132100
C161	C16	0.770900	0.355000	0.132300
C171	C17	0.237100	0.238400	0.238200
C181	C18	0.230400	0.344100	0.117700
C191	C19	0.720000	0.274300	0.159200
C201	C20	0.277600	0.266300	0.154900
C211	C21	0.857600	0.625400	0.155200
C221	C22	0.805900	0.682400	0.210400
C231	C23	0.864900	0.737600	0.263600
C241	C24	0.693600	0.685100	0.210100
C251	C25	0.639400	0.632100	0.149000
C261	C26	0.520900	0.632300	0.145000
C271	C27	0.987100	0.738200	0.261600
C281	C28	0.980400	0.617700	0.155900
C291	C29	0.470000	0.659200	0.225700
C301	C30	0.027600	0.654900	0.233700
C311	C31	0.357600	0.374600	0.844800
C321	C32	0.305900	0.317600	0.789600
C331	C33	0.364900	0.262400	0.736400
C341	C34	0.193600	0.314900	0.789900
C351	C35	0.139400	0.367900	0.851000
C361	C36	0.020900	0.367700	0.855000
C371	C37	0.487100	0.261800	0.738400
C381	C38	0.480400	0.382300	0.844100
C391	C39	0.970000	0.340800	0.774300
C401	C40	0.527600	0.345100	0.766300
C411	C41	0.642400	0.844800	0.374600
C421	C42	0.694100	0.789600	0.317600
C431	C43	0.635100	0.736400	0.262400
C441	C44	0.806400	0.789900	0.314900
C451	C45	0.860600	0.851000	0.367900
C461	C46	0.979100	0.855000	0.367700
C471	C47	0.512900	0.738400	0.261800
C481	C48	0.519600	0.844100	0.382300
C491	C49	0.030000	0.774300	0.340800
C501	C50	0.472400	0.766300	0.345100
C511	C51	0.142400	0.155200	0.625400
C521	C52	0.194100	0.210400	0.682400
C531	C53	0.135100	0.263600	0.737600
C541	C54	0.306400	0.210100	0.685100
C551	C55	0.360600	0.149000	0.632100
C561	C56	0.479100	0.145000	0.632300
C571	C57	0.012900	0.261600	0.738200
C581	C58	0.019600	0.155900	0.617700
C591	C59	0.530000	0.225700	0.659200
C601	C60	0.972400	0.233700	0.654900
C611	C61	0.392400	0.874600	0.655200
C621	C62	0.444100	0.817600	0.710400
C631	C63	0.385100	0.762400	0.763600
C641	C64	0.556400	0.814900	0.710100
C651	C65	0.610600	0.867900	0.649000
C661	C66	0.729100	0.867700	0.645000
C671	C67	0.262900	0.761800	0.761600
C681	C68	0.269600	0.882300	0.655900
C691	C69	0.780000	0.840800	0.725700
C701	C70	0.222400	0.845100	0.733700
C711	C71	0.892400	0.125400	0.344800
C721	C72	0.944100	0.182400	0.289600
C731	C73	0.885100	0.237600	0.236400
C741	C74	0.056400	0.185100	0.289900
C751	C75	0.110600	0.132100	0.351000
C761	C76	0.229100	0.132300	0.355000
C771	C77	0.762900	0.238200	0.238400
C781	C78	0.769600	0.117700	0.344100
C791	C79	0.280000	0.159200	0.274300
C801	C80	0.722400	0.154900	0.266300
N11	N1	0.553900	0.600200	0.920900
N21	N2	0.442500	0.597700	0.917400
N31	N3	0.053900	0.399800	0.079100
N41	N4	0.942500	0.402300	0.082600
N51	N5	0.803900	0.579100	0.100200
N61	N6	0.692500	0.582600	0.097700
N71	N7	0.303900	0.420900	0.899800
N81	N8	0.192500	0.417400	0.902300
N91	N9	0.696100	0.899800	0.420900
N101	N10	0.807500	0.902300	0.417400
N111	N11	0.196100	0.100200	0.579100
N121	N12	0.307500	0.097700	0.582600
N131	N13	0.446100	0.920900	0.600200
N141	N14	0.557500	0.917400	0.597700
N151	N15	0.946100	0.079100	0.399800
N161	N16	0.057500	0.082600	0.402300
Cl11	Cl1	0.748200	0.437340	0.922230
Cl21	Cl2	0.248200	0.562660	0.077770
Cl31	Cl3	0.998200	0.577770	0.937340
Cl41	Cl4	0.498200	0.422230	0.062660
Cl51	Cl5	0.501800	0.062660	0.422230
Cl61	Cl6	0.001800	0.937340	0.577770
Cl71	Cl7	0.251800	0.922230	0.437340
Cl81	Cl8	0.751800	0.077770	0.562660
