data_REBROG_clean_PM
_symmetry_space_group_name_H-M	'P1'
_cell_length_a	16.782400
_cell_length_b	16.782400
_cell_length_c	16.782400
_cell_angle_alpha	90.000000
_cell_angle_beta	90.000000
_cell_angle_gamma	90.000000
_symmetry_Int_Tables_number 1

loop_
_symmetry_equiv_pos_as_xyz
'x,y,z'

loop_
_atom_site_label
_atom_site_type_symbol
_atom_site_fract_x
_atom_site_fract_y
_atom_site_fract_z
O11	O1	0.026250	0.592350	0.305150
O21	O2	0.526250	0.092350	0.805150
O31	O3	0.973750	0.407650	0.305150
O41	O4	0.473750	0.907650	0.805150
O51	O5	0.973750	0.592350	0.694850
O61	O6	0.473750	0.092350	0.194850
O71	O7	0.026250	0.407650	0.694850
O81	O8	0.526250	0.907650	0.194850
O91	O9	0.305150	0.026250	0.592350
O101	O10	0.805150	0.526250	0.092350
O111	O11	0.305150	0.973750	0.407650
O121	O12	0.805150	0.473750	0.907650
O131	O13	0.694850	0.973750	0.592350
O141	O14	0.194850	0.473750	0.092350
O151	O15	0.694850	0.026250	0.407650
O161	O16	0.194850	0.526250	0.907650
O171	O17	0.592350	0.305150	0.026250
O181	O18	0.092350	0.805150	0.526250
O191	O19	0.407650	0.305150	0.973750
O201	O20	0.907650	0.805150	0.473750
O211	O21	0.592350	0.694850	0.973750
O221	O22	0.092350	0.194850	0.473750
O231	O23	0.407650	0.694850	0.026250
O241	O24	0.907650	0.194850	0.526250
O251	O25	0.592350	0.026250	0.305150
O261	O26	0.092350	0.526250	0.805150
O271	O27	0.407650	0.973750	0.305150
O281	O28	0.907650	0.473750	0.805150
O291	O29	0.592350	0.973750	0.694850
O301	O30	0.092350	0.473750	0.194850
O311	O31	0.407650	0.026250	0.694850
O321	O32	0.907650	0.526250	0.194850
O331	O33	0.026250	0.305150	0.592350
O341	O34	0.526250	0.805150	0.092350
O351	O35	0.973750	0.305150	0.407650
O361	O36	0.473750	0.805150	0.907650
O371	O37	0.973750	0.694850	0.592350
O381	O38	0.473750	0.194850	0.092350
O391	O39	0.026250	0.694850	0.407650
O401	O40	0.526250	0.194850	0.907650
O411	O41	0.305150	0.592350	0.026250
O421	O42	0.805150	0.092350	0.526250
O431	O43	0.305150	0.407650	0.973750
O441	O44	0.805150	0.907650	0.473750
O451	O45	0.694850	0.592350	0.973750
O461	O46	0.194850	0.092350	0.473750
O471	O47	0.694850	0.407650	0.026250
O481	O48	0.194850	0.907650	0.526250
Al11	Al1	0.000000	0.500000	0.500000
Al21	Al2	0.500000	0.000000	0.000000
Al31	Al3	0.500000	0.000000	0.500000
Al41	Al4	0.000000	0.500000	0.000000
Al51	Al5	0.500000	0.500000	0.000000
Al61	Al6	0.000000	0.000000	0.500000
Mg11	Mg1	0.000000	0.500000	0.250000
Mg21	Mg2	0.000000	0.500000	0.750000
Mg31	Mg3	0.500000	0.000000	0.250000
Mg41	Mg4	0.250000	0.000000	0.500000
Mg51	Mg5	0.750000	0.000000	0.500000
Mg61	Mg6	0.250000	0.500000	0.000000
Mg71	Mg7	0.500000	0.250000	0.000000
Mg81	Mg8	0.500000	0.750000	0.000000
Mg91	Mg9	0.000000	0.250000	0.500000
Mg101	Mg10	0.500000	0.000000	0.750000
Mg111	Mg11	0.000000	0.750000	0.500000
Mg121	Mg12	0.750000	0.500000	0.000000
P11	P1	0.070570	0.621880	0.378120
O491	O49	0.156900	0.640800	0.359200
O501	O50	0.067200	0.556880	0.443120
P21	P2	0.570570	0.121880	0.878120
O511	O51	0.656900	0.140800	0.859200
O521	O52	0.567200	0.056880	0.943120
P31	P3	0.929430	0.378120	0.378120
O531	O53	0.843100	0.359200	0.359200
O541	O54	0.932800	0.443120	0.443120
P41	P4	0.429430	0.878120	0.878120
O551	O55	0.343100	0.859200	0.859200
O561	O56	0.432800	0.943120	0.943120
P51	P5	0.929430	0.621880	0.621880
O571	O57	0.843100	0.640800	0.640800
O581	O58	0.932800	0.556880	0.556880
P61	P6	0.429430	0.121880	0.121880
O591	O59	0.343100	0.140800	0.140800
O601	O60	0.432800	0.056880	0.056880
P71	P7	0.070570	0.378120	0.621880
O611	O61	0.156900	0.359200	0.640800
O621	O62	0.067200	0.443120	0.556880
P81	P8	0.570570	0.878120	0.121880
O631	O63	0.656900	0.859200	0.140800
O641	O64	0.567200	0.943120	0.056880
P91	P9	0.378120	0.070570	0.621880
O651	O65	0.359200	0.156900	0.640800
O661	O66	0.443120	0.067200	0.556880
P101	P10	0.878120	0.570570	0.121880
O671	O67	0.859200	0.656900	0.140800
O681	O68	0.943120	0.567200	0.056880
P111	P11	0.378120	0.929430	0.378120
O691	O69	0.359200	0.843100	0.359200
O701	O70	0.443120	0.932800	0.443120
P121	P12	0.878120	0.429430	0.878120
O711	O71	0.859200	0.343100	0.859200
O721	O72	0.943120	0.432800	0.943120
P131	P13	0.621880	0.929430	0.621880
O731	O73	0.640800	0.843100	0.640800
O741	O74	0.556880	0.932800	0.556880
P141	P14	0.121880	0.429430	0.121880
O751	O75	0.140800	0.343100	0.140800
O761	O76	0.056880	0.432800	0.056880
P151	P15	0.621880	0.070570	0.378120
O771	O77	0.640800	0.156900	0.359200
O781	O78	0.556880	0.067200	0.443120
P161	P16	0.121880	0.570570	0.878120
O791	O79	0.140800	0.656900	0.859200
O801	O80	0.056880	0.567200	0.943120
P171	P17	0.621880	0.378120	0.070570
O811	O81	0.640800	0.359200	0.156900
O821	O82	0.556880	0.443120	0.067200
P181	P18	0.121880	0.878120	0.570570
O831	O83	0.140800	0.859200	0.656900
O841	O84	0.056880	0.943120	0.567200
P191	P19	0.378120	0.378120	0.929430
O851	O85	0.359200	0.359200	0.843100
O861	O86	0.443120	0.443120	0.932800
P201	P20	0.878120	0.878120	0.429430
O871	O87	0.859200	0.859200	0.343100
O881	O88	0.943120	0.943120	0.432800
P211	P21	0.621880	0.621880	0.929430
O891	O89	0.640800	0.640800	0.843100
O901	O90	0.556880	0.556880	0.932800
P221	P22	0.121880	0.121880	0.429430
O911	O91	0.140800	0.140800	0.343100
O921	O92	0.056880	0.056880	0.432800
P231	P23	0.378120	0.621880	0.070570
O931	O93	0.359200	0.640800	0.156900
O941	O94	0.443120	0.556880	0.067200
P241	P24	0.878120	0.121880	0.570570
O951	O95	0.859200	0.140800	0.656900
O961	O96	0.943120	0.056880	0.567200
