data_REBRUM_clean_PM
_symmetry_space_group_name_H-M	'P1'
_cell_length_a	16.830600
_cell_length_b	16.830600
_cell_length_c	16.830600
_cell_angle_alpha	90.000000
_cell_angle_beta	90.000000
_cell_angle_gamma	90.000000
_symmetry_Int_Tables_number 1

loop_
_symmetry_equiv_pos_as_xyz
'x,y,z'

loop_
_atom_site_label
_atom_site_type_symbol
_atom_site_fract_x
_atom_site_fract_y
_atom_site_fract_z
O11	O1	0.975690	0.406910	0.694800
O21	O2	0.475690	0.906910	0.194800
O31	O3	0.024310	0.593090	0.694800
O41	O4	0.524310	0.093090	0.194800
O51	O5	0.024310	0.406910	0.305200
O61	O6	0.524310	0.906910	0.805200
O71	O7	0.975690	0.593090	0.305200
O81	O8	0.475690	0.093090	0.805200
O91	O9	0.694800	0.975690	0.406910
O101	O10	0.194800	0.475690	0.906910
O111	O11	0.694800	0.024310	0.593090
O121	O12	0.194800	0.524310	0.093090
O131	O13	0.305200	0.024310	0.406910
O141	O14	0.805200	0.524310	0.906910
O151	O15	0.305200	0.975690	0.593090
O161	O16	0.805200	0.475690	0.093090
O171	O17	0.406910	0.694800	0.975690
O181	O18	0.906910	0.194800	0.475690
O191	O19	0.593090	0.694800	0.024310
O201	O20	0.093090	0.194800	0.524310
O211	O21	0.406910	0.305200	0.024310
O221	O22	0.906910	0.805200	0.524310
O231	O23	0.593090	0.305200	0.975690
O241	O24	0.093090	0.805200	0.475690
O251	O25	0.406910	0.975690	0.694800
O261	O26	0.906910	0.475690	0.194800
O271	O27	0.593090	0.024310	0.694800
O281	O28	0.093090	0.524310	0.194800
O291	O29	0.406910	0.024310	0.305200
O301	O30	0.906910	0.524310	0.805200
O311	O31	0.593090	0.975690	0.305200
O321	O32	0.093090	0.475690	0.805200
O331	O33	0.975690	0.694800	0.406910
O341	O34	0.475690	0.194800	0.906910
O351	O35	0.024310	0.694800	0.593090
O361	O36	0.524310	0.194800	0.093090
O371	O37	0.024310	0.305200	0.406910
O381	O38	0.524310	0.805200	0.906910
O391	O39	0.975690	0.305200	0.593090
O401	O40	0.475690	0.805200	0.093090
O411	O41	0.694800	0.406910	0.975690
O421	O42	0.194800	0.906910	0.475690
O431	O43	0.694800	0.593090	0.024310
O441	O44	0.194800	0.093090	0.524310
O451	O45	0.305200	0.406910	0.024310
O461	O46	0.805200	0.906910	0.524310
O471	O47	0.305200	0.593090	0.975690
O481	O48	0.805200	0.093090	0.475690
Ga11	Ga1	0.000000	0.500000	0.500000
Ga21	Ga2	0.500000	0.000000	0.000000
Ga31	Ga3	0.500000	0.000000	0.500000
Ga41	Ga4	0.000000	0.500000	0.000000
Ga51	Ga5	0.500000	0.500000	0.000000
Ga61	Ga6	0.000000	0.000000	0.500000
Mg11	Mg1	0.000000	0.500000	0.750000
Mg21	Mg2	0.000000	0.500000	0.250000
Mg31	Mg3	0.750000	0.000000	0.500000
Mg41	Mg4	0.250000	0.000000	0.500000
Mg51	Mg5	0.500000	0.750000	0.000000
Mg61	Mg6	0.500000	0.250000	0.000000
Mg71	Mg7	0.500000	0.000000	0.750000
Mg81	Mg8	0.500000	0.000000	0.250000
Mg91	Mg9	0.000000	0.750000	0.500000
Mg101	Mg10	0.000000	0.250000	0.500000
Mg111	Mg11	0.750000	0.500000	0.000000
Mg121	Mg12	0.250000	0.500000	0.000000
P11	P1	0.929770	0.377680	0.622320
O491	O49	0.844400	0.357380	0.642620
O501	O50	0.929600	0.442120	0.557880
P21	P2	0.429770	0.877680	0.122320
O511	O51	0.344400	0.857380	0.142620
O521	O52	0.429600	0.942120	0.057880
P31	P3	0.070230	0.622320	0.622320
O531	O53	0.155600	0.642620	0.642620
O541	O54	0.070400	0.557880	0.557880
P41	P4	0.570230	0.122320	0.122320
O551	O55	0.655600	0.142620	0.142620
O561	O56	0.570400	0.057880	0.057880
P51	P5	0.070230	0.377680	0.377680
O571	O57	0.155600	0.357380	0.357380
O581	O58	0.070400	0.442120	0.442120
P61	P6	0.570230	0.877680	0.877680
O591	O59	0.655600	0.857380	0.857380
O601	O60	0.570400	0.942120	0.942120
P71	P7	0.929770	0.622320	0.377680
O611	O61	0.844400	0.642620	0.357380
O621	O62	0.929600	0.557880	0.442120
P81	P8	0.429770	0.122320	0.877680
O631	O63	0.344400	0.142620	0.857380
O641	O64	0.429600	0.057880	0.942120
P91	P9	0.622320	0.929770	0.377680
O651	O65	0.642620	0.844400	0.357380
O661	O66	0.557880	0.929600	0.442120
P101	P10	0.122320	0.429770	0.877680
O671	O67	0.142620	0.344400	0.857380
O681	O68	0.057880	0.429600	0.942120
P111	P11	0.622320	0.070230	0.622320
O691	O69	0.642620	0.155600	0.642620
O701	O70	0.557880	0.070400	0.557880
P121	P12	0.122320	0.570230	0.122320
O711	O71	0.142620	0.655600	0.142620
O721	O72	0.057880	0.570400	0.057880
P131	P13	0.377680	0.070230	0.377680
O731	O73	0.357380	0.155600	0.357380
O741	O74	0.442120	0.070400	0.442120
P141	P14	0.877680	0.570230	0.877680
O751	O75	0.857380	0.655600	0.857380
O761	O76	0.942120	0.570400	0.942120
P151	P15	0.377680	0.929770	0.622320
O771	O77	0.357380	0.844400	0.642620
O781	O78	0.442120	0.929600	0.557880
P161	P16	0.877680	0.429770	0.122320
O791	O79	0.857380	0.344400	0.142620
O801	O80	0.942120	0.429600	0.057880
P171	P17	0.377680	0.622320	0.929770
O811	O81	0.357380	0.642620	0.844400
O821	O82	0.442120	0.557880	0.929600
P181	P18	0.877680	0.122320	0.429770
O831	O83	0.857380	0.142620	0.344400
O841	O84	0.942120	0.057880	0.429600
P191	P19	0.622320	0.622320	0.070230
O851	O85	0.642620	0.642620	0.155600
O861	O86	0.557880	0.557880	0.070400
P201	P20	0.122320	0.122320	0.570230
O871	O87	0.142620	0.142620	0.655600
O881	O88	0.057880	0.057880	0.570400
P211	P21	0.377680	0.377680	0.070230
O891	O89	0.357380	0.357380	0.155600
O901	O90	0.442120	0.442120	0.070400
P221	P22	0.877680	0.877680	0.570230
O911	O91	0.857380	0.857380	0.655600
O921	O92	0.942120	0.942120	0.570400
P231	P23	0.622320	0.377680	0.929770
O931	O93	0.642620	0.357380	0.844400
O941	O94	0.557880	0.442120	0.929600
P241	P24	0.122320	0.877680	0.429770
O951	O95	0.142620	0.857380	0.344400
O961	O96	0.057880	0.942120	0.429600
