data_REBRIA_clean_PM
_symmetry_space_group_name_H-M	'P1'
_cell_length_a	16.772700
_cell_length_b	16.772700
_cell_length_c	16.772700
_cell_angle_alpha	90.000000
_cell_angle_beta	90.000000
_cell_angle_gamma	90.000000
_symmetry_Int_Tables_number 1

loop_
_symmetry_equiv_pos_as_xyz
'x,y,z'

loop_
_atom_site_label
_atom_site_type_symbol
_atom_site_fract_x
_atom_site_fract_y
_atom_site_fract_z
O11	O1	0.194500	0.483100	0.092200
O21	O2	0.694500	0.983100	0.592200
O31	O3	0.805500	0.516900	0.092200
O41	O4	0.305500	0.016900	0.592200
O51	O5	0.805500	0.483100	0.907800
O61	O6	0.305500	0.983100	0.407800
O71	O7	0.194500	0.516900	0.907800
O81	O8	0.694500	0.016900	0.407800
O91	O9	0.092200	0.194500	0.483100
O101	O10	0.592200	0.694500	0.983100
O111	O11	0.092200	0.805500	0.516900
O121	O12	0.592200	0.305500	0.016900
O131	O13	0.907800	0.805500	0.483100
O141	O14	0.407800	0.305500	0.983100
O151	O15	0.907800	0.194500	0.516900
O161	O16	0.407800	0.694500	0.016900
O171	O17	0.483100	0.092200	0.194500
O181	O18	0.983100	0.592200	0.694500
O191	O19	0.516900	0.092200	0.805500
O201	O20	0.016900	0.592200	0.305500
O211	O21	0.483100	0.907800	0.805500
O221	O22	0.983100	0.407800	0.305500
O231	O23	0.516900	0.907800	0.194500
O241	O24	0.016900	0.407800	0.694500
O251	O25	0.483100	0.194500	0.092200
O261	O26	0.983100	0.694500	0.592200
O271	O27	0.516900	0.805500	0.092200
O281	O28	0.016900	0.305500	0.592200
O291	O29	0.483100	0.805500	0.907800
O301	O30	0.983100	0.305500	0.407800
O311	O31	0.516900	0.194500	0.907800
O321	O32	0.016900	0.694500	0.407800
O331	O33	0.194500	0.092200	0.483100
O341	O34	0.694500	0.592200	0.983100
O351	O35	0.805500	0.092200	0.516900
O361	O36	0.305500	0.592200	0.016900
O371	O37	0.805500	0.907800	0.483100
O381	O38	0.305500	0.407800	0.983100
O391	O39	0.194500	0.907800	0.516900
O401	O40	0.694500	0.407800	0.016900
O411	O41	0.092200	0.483100	0.194500
O421	O42	0.592200	0.983100	0.694500
O431	O43	0.092200	0.516900	0.805500
O441	O44	0.592200	0.016900	0.305500
O451	O45	0.907800	0.483100	0.805500
O461	O46	0.407800	0.983100	0.305500
O471	O47	0.907800	0.516900	0.194500
O481	O48	0.407800	0.016900	0.694500
Al11	Al1	0.000000	0.500000	0.000000
Al21	Al2	0.500000	0.000000	0.500000
Al31	Al3	0.000000	0.000000	0.500000
Al41	Al4	0.500000	0.500000	0.000000
Al51	Al5	0.500000	0.000000	0.000000
Al61	Al6	0.000000	0.500000	0.500000
Al71	Al7	0.250000	0.500000	0.000000
Al81	Al8	0.750000	0.500000	0.000000
Al91	Al9	0.000000	0.250000	0.500000
Al101	Al10	0.000000	0.750000	0.500000
Al111	Al11	0.500000	0.000000	0.250000
Al121	Al12	0.500000	0.000000	0.750000
Al131	Al13	0.500000	0.250000	0.000000
Al141	Al14	0.500000	0.750000	0.000000
Al151	Al15	0.250000	0.000000	0.500000
Al161	Al16	0.750000	0.000000	0.500000
Al171	Al17	0.000000	0.500000	0.250000
Al181	Al18	0.000000	0.500000	0.750000
P11	P1	0.122540	0.435360	0.122540
O491	O49	0.144000	0.351300	0.144000
O501	O50	0.058100	0.435900	0.058100
P21	P2	0.622540	0.935360	0.622540
O511	O51	0.644000	0.851300	0.644000
O521	O52	0.558100	0.935900	0.558100
P31	P3	0.877460	0.564640	0.122540
O531	O53	0.856000	0.648700	0.144000
O541	O54	0.941900	0.564100	0.058100
P41	P4	0.377460	0.064640	0.622540
O551	O55	0.356000	0.148700	0.644000
O561	O56	0.441900	0.064100	0.558100
P51	P5	0.877460	0.435360	0.877460
O571	O57	0.856000	0.351300	0.856000
O581	O58	0.941900	0.435900	0.941900
P61	P6	0.377460	0.935360	0.377460
O591	O59	0.356000	0.851300	0.356000
O601	O60	0.441900	0.935900	0.441900
P71	P7	0.122540	0.564640	0.877460
O611	O61	0.144000	0.648700	0.856000
O621	O62	0.058100	0.564100	0.941900
P81	P8	0.622540	0.064640	0.377460
O631	O63	0.644000	0.148700	0.356000
O641	O64	0.558100	0.064100	0.441900
P91	P9	0.122540	0.122540	0.435360
O651	O65	0.144000	0.144000	0.351300
O661	O66	0.058100	0.058100	0.435900
P101	P10	0.622540	0.622540	0.935360
O671	O67	0.644000	0.644000	0.851300
O681	O68	0.558100	0.558100	0.935900
P111	P11	0.122540	0.877460	0.564640
O691	O69	0.144000	0.856000	0.648700
O701	O70	0.058100	0.941900	0.564100
P121	P12	0.622540	0.377460	0.064640
O711	O71	0.644000	0.356000	0.148700
O721	O72	0.558100	0.441900	0.064100
P131	P13	0.877460	0.877460	0.435360
O731	O73	0.856000	0.856000	0.351300
O741	O74	0.941900	0.941900	0.435900
P141	P14	0.377460	0.377460	0.935360
O751	O75	0.356000	0.356000	0.851300
O761	O76	0.441900	0.441900	0.935900
P151	P15	0.877460	0.122540	0.564640
O771	O77	0.856000	0.144000	0.648700
O781	O78	0.941900	0.058100	0.564100
P161	P16	0.377460	0.622540	0.064640
O791	O79	0.356000	0.644000	0.148700
O801	O80	0.441900	0.558100	0.064100
P171	P17	0.435360	0.122540	0.122540
O811	O81	0.351300	0.144000	0.144000
O821	O82	0.435900	0.058100	0.058100
P181	P18	0.935360	0.622540	0.622540
O831	O83	0.851300	0.644000	0.644000
O841	O84	0.935900	0.558100	0.558100
P191	P19	0.564640	0.122540	0.877460
O851	O85	0.648700	0.144000	0.856000
O861	O86	0.564100	0.058100	0.941900
P201	P20	0.064640	0.622540	0.377460
O871	O87	0.148700	0.644000	0.356000
O881	O88	0.064100	0.558100	0.441900
P211	P21	0.435360	0.877460	0.877460
O891	O89	0.351300	0.856000	0.856000
O901	O90	0.435900	0.941900	0.941900
P221	P22	0.935360	0.377460	0.377460
O911	O91	0.851300	0.356000	0.356000
O921	O92	0.935900	0.441900	0.441900
P231	P23	0.564640	0.877460	0.122540
O931	O93	0.648700	0.856000	0.144000
O941	O94	0.564100	0.941900	0.058100
P241	P24	0.064640	0.377460	0.622540
O951	O95	0.148700	0.356000	0.644000
O961	O96	0.064100	0.441900	0.558100
