data_REDYEG_clean_PM
_symmetry_space_group_name_H-M	'P1'
_cell_length_a	8.147100
_cell_length_b	11.697700
_cell_length_c	11.697700
_cell_angle_alpha	109.553000
_cell_angle_beta	104.734000
_cell_angle_gamma	75.265800
_symmetry_Int_Tables_number 1

loop_
_symmetry_equiv_pos_as_xyz
'x,y,z'

loop_
_atom_site_label
_atom_site_type_symbol
_atom_site_fract_x
_atom_site_fract_y
_atom_site_fract_z
Zn11	Zn1	0.436870	0.078630	0.900230
Zn21	Zn2	0.063130	0.900230	0.078630
Zn31	Zn3	0.563130	0.921370	0.099770
Zn41	Zn4	0.936870	0.099770	0.921370
Zn51	Zn5	0.750000	0.131980	0.131980
Zn61	Zn6	0.250000	0.868020	0.868020
H11	H1	0.766000	0.689100	0.964900
H21	H2	0.520900	0.742800	0.229600
H31	H3	0.596500	0.537500	0.220100
H41	H4	0.841800	0.482100	0.945100
H51	H5	0.734000	0.964900	0.689100
H61	H6	0.979100	0.229600	0.742800
H71	H7	0.903500	0.220100	0.537500
H81	H8	0.658200	0.945100	0.482100
H91	H9	0.234000	0.310900	0.035100
H101	H10	0.479100	0.257200	0.770400
H111	H11	0.403500	0.462500	0.779900
H121	H12	0.158200	0.517900	0.054900
H131	H13	0.266000	0.035100	0.310900
H141	H14	0.020900	0.770400	0.257200
H151	H15	0.096500	0.779900	0.462500
H161	H16	0.341800	0.054900	0.517900
C11	C1	0.730700	0.658150	0.016450
C21	C2	0.587600	0.689650	0.172350
C31	C3	0.632000	0.566230	0.166970
C41	C4	0.777800	0.533720	0.004680
C51	C5	0.729700	0.485920	0.081680
C61	C6	0.780500	0.348830	0.069770
C71	C7	0.769300	0.016450	0.658150
C81	C8	0.912400	0.172350	0.689650
C91	C9	0.868000	0.166970	0.566230
C101	C10	0.722200	0.004680	0.533720
C111	C11	0.770300	0.081680	0.485920
C121	C12	0.719500	0.069770	0.348830
C131	C13	0.269300	0.341850	0.983550
C141	C14	0.412400	0.310350	0.827650
C151	C15	0.368000	0.433770	0.833030
C161	C16	0.222200	0.466280	0.995320
C171	C17	0.270300	0.514080	0.918320
C181	C18	0.219500	0.651170	0.930230
C191	C19	0.230700	0.983550	0.341850
C201	C20	0.087600	0.827650	0.310350
C211	C21	0.132000	0.833030	0.433770
C221	C22	0.277800	0.995320	0.466280
C231	C23	0.229700	0.918320	0.514080
C241	C24	0.280500	0.930230	0.651170
N11	N1	0.636500	0.736320	0.098740
N21	N2	0.863500	0.098740	0.736320
N31	N3	0.363500	0.263680	0.901260
N41	N4	0.136500	0.901260	0.263680
O11	O1	0.722000	0.311050	0.137330
O21	O2	0.875300	0.286890	0.992130
O31	O3	0.778000	0.137330	0.311050
O41	O4	0.624700	0.992130	0.286890
O51	O5	0.278000	0.688950	0.862670
O61	O6	0.124700	0.713110	0.007870
O71	O7	0.222000	0.862670	0.688950
O81	O8	0.375300	0.007870	0.713110
F11	F1	0.505000	0.108840	0.090520
F21	F2	0.691400	0.085300	0.925560
F31	F3	0.995000	0.090520	0.108840
F41	F4	0.808600	0.925560	0.085300
F51	F5	0.495000	0.891160	0.909480
F61	F6	0.308600	0.914700	0.074440
F71	F7	0.005000	0.909480	0.891160
F81	F8	0.191400	0.074440	0.914700
