data_REGJIW01_clean_PM
_symmetry_space_group_name_H-M	'P1'
_cell_length_a	5.499800
_cell_length_b	7.935700
_cell_length_c	7.935700
_cell_angle_alpha	108.288000
_cell_angle_beta	90.312200
_cell_angle_gamma	90.312200
_symmetry_Int_Tables_number 1

loop_
_symmetry_equiv_pos_as_xyz
'x,y,z'

loop_
_atom_site_label
_atom_site_type_symbol
_atom_site_fract_x
_atom_site_fract_y
_atom_site_fract_z
Co11	Co1	0.500000	0.000000	0.000000
Co21	Co2	0.000000	0.879860	0.120140
Co31	Co3	0.000000	0.120140	0.879860
H11	H1	0.844000	0.182000	0.182000
H21	H2	0.156000	0.818000	0.818000
C11	C1	0.658500	0.947700	0.432700
C21	C2	0.424600	0.008200	0.384000
C31	C3	0.341500	0.567300	0.052300
C41	C4	0.575400	0.616000	0.991800
C51	C5	0.341500	0.052300	0.567300
C61	C6	0.575400	0.991800	0.616000
C71	C7	0.658500	0.432700	0.947700
C81	C8	0.424600	0.384000	0.008200
O11	O1	0.849200	0.881940	0.356660
O21	O2	0.328500	0.019300	0.243100
O31	O3	0.150800	0.643340	0.118060
O41	O4	0.671500	0.756900	0.980700
O51	O5	0.150800	0.118060	0.643340
O61	O6	0.671500	0.980700	0.756900
O71	O7	0.849200	0.356660	0.881940
O81	O8	0.328500	0.243100	0.019300
O91	O9	0.826100	0.102100	0.102100
O101	O10	0.173900	0.897900	0.897900
