data_REGLOG_clean_PM
_symmetry_space_group_name_H-M	'P1'
_cell_length_a	9.441700
_cell_length_b	13.700500
_cell_length_c	15.652300
_cell_angle_alpha	90.000000
_cell_angle_beta	90.000000
_cell_angle_gamma	90.000000
_symmetry_Int_Tables_number 1

loop_
_symmetry_equiv_pos_as_xyz
'x,y,z'

loop_
_atom_site_label
_atom_site_type_symbol
_atom_site_fract_x
_atom_site_fract_y
_atom_site_fract_z
Cd11	Cd1	0.603740	0.867790	0.502670
Cd21	Cd2	0.865870	0.998710	0.387380
Cd31	Cd3	0.791410	0.731670	0.777360
Cd41	Cd4	0.603740	0.132210	0.497330
Cd51	Cd5	0.865870	0.001290	0.612620
Cd61	Cd6	0.791410	0.268330	0.222640
Cd71	Cd7	0.396260	0.632210	0.002670
Cd81	Cd8	0.134130	0.501290	0.887380
Cd91	Cd9	0.208590	0.768330	0.277360
Cd101	Cd10	0.396260	0.367790	0.997330
Cd111	Cd11	0.134130	0.498710	0.112620
Cd121	Cd12	0.208590	0.231670	0.722640
H11	H1	0.666000	0.681000	0.450000
H21	H2	0.809000	0.911000	0.243000
H31	H3	0.891500	0.656300	0.490800
H41	H4	0.006700	0.808000	0.537800
H51	H5	0.566400	0.963500	0.201800
H61	H6	0.474700	0.050700	0.328700
H71	H7	0.666000	0.319000	0.550000
H81	H8	0.809000	0.089000	0.757000
H91	H9	0.891500	0.343700	0.509200
H101	H10	0.006700	0.192000	0.462200
H111	H11	0.566400	0.036500	0.798200
H121	H12	0.474700	0.949300	0.671300
H131	H13	0.334000	0.819000	0.950000
H141	H14	0.191000	0.589000	0.743000
H151	H15	0.108500	0.843700	0.990800
H161	H16	0.993300	0.692000	0.037800
H171	H17	0.433600	0.536500	0.701800
H181	H18	0.525300	0.449300	0.828700
H191	H19	0.334000	0.181000	0.050000
H201	H20	0.191000	0.411000	0.257000
H211	H21	0.108500	0.156300	0.009200
H221	H22	0.993300	0.308000	0.962200
H231	H23	0.433600	0.463500	0.298200
H241	H24	0.525300	0.550700	0.171300
C11	C1	0.788200	0.720700	0.595500
C21	C2	0.838100	0.717800	0.502700
C31	C3	0.934800	0.808300	0.490800
C41	C4	0.012500	0.799500	0.406900
C51	C5	0.695900	0.080800	0.239100
C61	C6	0.626000	0.981500	0.252200
C71	C7	0.534000	0.990600	0.334300
C81	C8	0.434800	0.903500	0.337500
C91	C9	0.788200	0.279300	0.404500
C101	C10	0.838100	0.282200	0.497300
C111	C11	0.934800	0.191700	0.509200
C121	C12	0.012500	0.200500	0.593100
C131	C13	0.695900	0.919200	0.760900
C141	C14	0.626000	0.018500	0.747800
C151	C15	0.534000	0.009400	0.665700
C161	C16	0.434800	0.096500	0.662500
C171	C17	0.211800	0.779300	0.095500
C181	C18	0.161900	0.782200	0.002700
C191	C19	0.065200	0.691700	0.990800
C201	C20	0.987500	0.700500	0.906900
C211	C21	0.304100	0.419200	0.739100
C221	C22	0.374000	0.518500	0.752200
C231	C23	0.466000	0.509400	0.834300
C241	C24	0.565200	0.596500	0.837500
C251	C25	0.211800	0.220700	0.904500
C261	C26	0.161900	0.217800	0.997300
C271	C27	0.065200	0.308300	0.009200
C281	C28	0.987500	0.299500	0.093100
C291	C29	0.304100	0.580800	0.260900
C301	C30	0.374000	0.481500	0.247800
C311	C31	0.466000	0.490600	0.165700
C321	C32	0.565200	0.403500	0.162500
O11	O1	0.674900	0.760300	0.614100
O21	O2	0.876100	0.689600	0.651500
O31	O3	0.723600	0.728100	0.445700
O41	O4	0.853800	0.892600	0.498900
O51	O5	0.003600	0.864400	0.350300
O61	O6	0.091700	0.725000	0.396400
O71	O7	0.818100	0.095600	0.269200
O81	O8	0.626800	0.145500	0.200000
O91	O9	0.729600	0.908500	0.269000
O101	O10	0.616800	0.000800	0.406600
O111	O11	0.441700	0.842100	0.396500
O121	O12	0.344900	0.899300	0.277500
O131	O13	0.674900	0.239700	0.385900
O141	O14	0.876100	0.310400	0.348500
O151	O15	0.723600	0.271900	0.554300
O161	O16	0.853800	0.107400	0.501100
O171	O17	0.003600	0.135600	0.649700
O181	O18	0.091700	0.275000	0.603600
O191	O19	0.818100	0.904400	0.730800
O201	O20	0.626800	0.854500	0.800000
O211	O21	0.729600	0.091500	0.731000
O221	O22	0.616800	0.999200	0.593400
O231	O23	0.441700	0.157900	0.603500
O241	O24	0.344900	0.100700	0.722500
O251	O25	0.325100	0.739700	0.114100
O261	O26	0.123900	0.810400	0.151500
O271	O27	0.276400	0.771900	0.945700
O281	O28	0.146200	0.607400	0.998900
O291	O29	0.996400	0.635600	0.850300
O301	O30	0.908300	0.775000	0.896400
O311	O31	0.181900	0.404400	0.769200
O321	O32	0.373200	0.354500	0.700000
O331	O33	0.270400	0.591500	0.769000
O341	O34	0.383200	0.499200	0.906600
O351	O35	0.558300	0.657900	0.896500
O361	O36	0.655100	0.600700	0.777500
O371	O37	0.325100	0.260300	0.885900
O381	O38	0.123900	0.189600	0.848500
O391	O39	0.276400	0.228100	0.054300
O401	O40	0.146200	0.392600	0.001100
O411	O41	0.996400	0.364400	0.149700
O421	O42	0.908300	0.225000	0.103600
O431	O43	0.181900	0.595600	0.230800
O441	O44	0.373200	0.645500	0.300000
O451	O45	0.270400	0.408500	0.231000
O461	O46	0.383200	0.500800	0.093400
O471	O47	0.558300	0.342100	0.103500
O481	O48	0.655100	0.399300	0.222500
