data_REGMUN_clean_PM
_symmetry_space_group_name_H-M	'P1'
_cell_length_a	13.543000
_cell_length_b	12.338000
_cell_length_c	40.267000
_cell_angle_alpha	90.000000
_cell_angle_beta	108.395000
_cell_angle_gamma	90.000000
_symmetry_Int_Tables_number 1

loop_
_symmetry_equiv_pos_as_xyz
'x,y,z'

loop_
_atom_site_label
_atom_site_type_symbol
_atom_site_fract_x
_atom_site_fract_y
_atom_site_fract_z
Co11	Co1	0.320680	0.387940	0.193180
Co21	Co2	0.127110	0.408860	0.420640
O11	O1	0.060600	0.533100	0.446870
O21	O2	0.079300	0.595400	0.500980
O31	O3	0.223200	0.266300	0.421800
O41	O4	0.327800	0.149400	0.458610
O51	O5	0.261250	0.272300	0.695000
O61	O6	0.202800	0.421200	0.662800
O71	O7	0.365000	0.979400	0.663710
O81	O8	0.402200	0.947300	0.614300
N11	N1	0.290400	0.169600	0.643100
N21	N2	0.177200	0.365100	0.471800
N31	N3	0.645100	0.334600	0.211760
N41	N4	0.477500	0.332300	0.204430
N51	N5	0.945600	0.089200	0.322860
N61	N6	0.828600	0.959600	0.318710
N71	N7	0.968800	0.058200	0.176300
N81	N8	0.910700	0.949600	0.131260
N91	N9	0.465300	0.473500	0.298490
N101	N10	0.360600	0.432800	0.245850
N111	N11	0.418900	0.577500	0.439140
N121	N12	0.261500	0.511900	0.430040
N131	N13	0.834500	0.264600	0.415830
N141	N14	0.988600	0.316900	0.413730
C11	C1	0.089900	0.526500	0.480150
C21	C2	0.264700	0.226200	0.451370
C31	C3	0.235900	0.328200	0.666730
C41	C4	0.363400	0.002300	0.633190
C51	C5	0.147200	0.423100	0.495010
C61	C6	0.171800	0.388800	0.529480
H11	H1	0.149900	0.429900	0.545800
C71	C7	0.228400	0.294000	0.539930
C81	C8	0.263000	0.238300	0.515100
H21	H2	0.305500	0.175700	0.521600
C91	C9	0.234000	0.276400	0.481280
C101	C10	0.253200	0.270000	0.635690
C111	C11	0.233700	0.314300	0.602780
H31	H3	0.208200	0.386300	0.598100
C121	C12	0.252500	0.250700	0.576310
C131	C13	0.294000	0.147700	0.585150
H41	H4	0.309300	0.103500	0.568100
C141	C14	0.312900	0.109800	0.618750
C151	C15	0.836900	0.310600	0.228680
C161	C16	0.873900	0.295300	0.264780
C171	C17	0.956400	0.222800	0.278860
C181	C18	0.005900	0.172600	0.257100
C191	C19	0.971400	0.194900	0.221500
C201	C20	0.885000	0.260100	0.206700
C211	C21	0.746000	0.384900	0.212850
H51	H5	0.755900	0.452600	0.226700
H61	H6	0.743800	0.404100	0.188800
C221	C22	0.554200	0.384100	0.197810
H71	H7	0.545600	0.449200	0.184600
C231	C23	0.522600	0.245300	0.224450
H81	H8	0.487000	0.193300	0.233800
C241	C24	0.626200	0.244700	0.228870
H91	H9	0.675700	0.192600	0.241300
C251	C25	0.824100	0.352200	0.288540
H101	H10	0.769200	0.400700	0.274700
H111	H11	0.876800	0.394500	0.306000
H121	H12	0.793900	0.298400	0.300400
C261	C26	0.990500	0.193800	0.317480
H131	H13	0.067400	0.189500	0.326500
H141	H14	0.967700	0.251100	0.330600
C271	C27	0.848400	0.054400	0.306840
H151	H15	0.798900	0.093700	0.288900
C281	C28	0.919700	0.933800	0.344530
H161	H16	0.930300	0.870500	0.358600
C291	C29	0.992300	0.011900	0.346960
H171	H17	0.061800	0.012700	0.362400
C301	C30	0.093100	0.094300	0.272430
H181	H18	0.159700	0.132700	0.278500
H191	H19	0.091600	0.037400	0.255300
H201	H20	0.084800	0.061400	0.293500
C311	C31	0.028500	0.147000	0.198040
H211	H21	0.041000	0.204500	0.182700
H221	H22	0.097000	0.119100	0.212700
C321	C32	0.973800	0.029300	0.144870
H231	H23	0.018100	0.062900	0.133700
C331	C33	0.862000	0.925200	0.155520
H241	H24	0.810700	0.870500	0.153000
C341	C34	0.898300	0.991000	0.183360
H251	H25	0.878500	0.990600	0.204000
C351	C35	0.842000	0.274700	0.166920
H261	H26	0.890500	0.242900	0.156000
H271	H27	0.833500	0.352100	0.161300
H281	H28	0.774400	0.238400	0.158000
C361	C36	0.577300	0.480800	0.361340
C371	C37	0.540400	0.544400	0.384140
C381	C38	0.565700	0.513500	0.419220
C391	C39	0.625600	0.421200	0.431800
C401	C40	0.666300	0.360900	0.409320
C411	C41	0.637900	0.388500	0.373770
C421	C42	0.560000	0.517900	0.324480
H291	H29	0.555500	0.598000	0.323900
H301	H30	0.621200	0.497000	0.317500
C431	C43	0.454300	0.467200	0.264230
H311	H31	0.507400	0.485300	0.254400
C441	C44	0.309700	0.417700	0.270000
H321	H32	0.239900	0.393200	0.264700
C451	C45	0.372700	0.442400	0.302350
H331	H33	0.356200	0.438900	0.323600
C461	C46	0.475300	0.644300	0.370720
H341	H34	0.418000	0.647400	0.380600
H351	H35	0.447100	0.641100	0.345100
H361	H36	0.518800	0.709100	0.377700
C471	C47	0.530900	0.587100	0.443570
H371	H37	0.571200	0.569300	0.468100
H381	H38	0.546600	0.663200	0.439200
C481	C48	0.359400	0.489000	0.432490
H391	H39	0.383900	0.418400	0.429800
C491	C49	0.260900	0.621000	0.435470
H401	H40	0.201200	0.661700	0.435300
C501	C50	0.356400	0.663100	0.441110
H411	H41	0.376400	0.736800	0.445500
C511	C51	0.643600	0.383400	0.469170
H421	H42	0.593200	0.418500	0.478600
H431	H43	0.714300	0.402800	0.483600
H441	H44	0.635000	0.304600	0.469500
C521	C52	0.734400	0.264000	0.423010
H451	H45	0.748500	0.259800	0.448600
H461	H46	0.695700	0.197800	0.412600
C531	C53	0.901200	0.346200	0.419470
H471	H47	0.887700	0.417800	0.425500
C541	C54	0.977200	0.208900	0.406280
H481	H48	0.027200	0.164200	0.400900
C551	C55	0.882800	0.175100	0.407690
H491	H49	0.855600	0.103500	0.403800
C561	C56	0.673700	0.320300	0.348630
H501	H50	0.740300	0.348000	0.347500
H511	H51	0.621800	0.323500	0.325300
H521	H52	0.682300	0.245000	0.356800
Co31	Co3	0.679320	0.887940	0.306820
Co41	Co4	0.872890	0.908860	0.079360
O91	O9	0.939400	0.033100	0.053130
O101	O10	0.920700	0.095400	0.999020
O111	O11	0.776800	0.766300	0.078200
O121	O12	0.672200	0.649400	0.041390
O131	O13	0.738750	0.772300	0.805000
O141	O14	0.797200	0.921200	0.837200
O151	O15	0.635000	0.479400	0.836290
O161	O16	0.597800	0.447300	0.885700
N151	N15	0.709600	0.669600	0.856900
N161	N16	0.822800	0.865100	0.028200
N171	N17	0.354900	0.834600	0.288240
N181	N18	0.522500	0.832300	0.295570
N191	N19	0.054400	0.589200	0.177140
N201	N20	0.171400	0.459600	0.181290
N211	N21	0.031200	0.558200	0.323700
N221	N22	0.089300	0.449600	0.368740
N231	N23	0.534700	0.973500	0.201510
N241	N24	0.639400	0.932800	0.254150
N251	N25	0.581100	0.077500	0.060860
N261	N26	0.738500	0.011900	0.069960
N271	N27	0.165500	0.764600	0.084170
N281	N28	0.011400	0.816900	0.086270
C571	C57	0.910100	0.026500	0.019850
C581	C58	0.735300	0.726200	0.048630
C591	C59	0.764100	0.828200	0.833270
C601	C60	0.636600	0.502300	0.866810
C611	C61	0.852800	0.923100	0.004990
C621	C62	0.828200	0.888800	0.970520
H531	H53	0.850100	0.929900	0.954200
C631	C63	0.771600	0.794000	0.960070
C641	C64	0.737000	0.738300	0.984900
H541	H54	0.694500	0.675700	0.978400
C651	C65	0.766000	0.776400	0.018720
C661	C66	0.746800	0.770000	0.864310
C671	C67	0.766300	0.814300	0.897220
H551	H55	0.791800	0.886300	0.901900
C681	C68	0.747500	0.750700	0.923690
C691	C69	0.706000	0.647700	0.914850
H561	H56	0.690700	0.603500	0.931900
C701	C70	0.687100	0.609800	0.881250
C711	C71	0.163100	0.810600	0.271320
C721	C72	0.126100	0.795300	0.235220
C731	C73	0.043600	0.722800	0.221140
C741	C74	0.994100	0.672600	0.242900
C751	C75	0.028600	0.694900	0.278500
C761	C76	0.115000	0.760100	0.293300
C771	C77	0.254000	0.884900	0.287150
H571	H57	0.244100	0.952600	0.273300
H581	H58	0.256200	0.904100	0.311200
C781	C78	0.445800	0.884100	0.302190
H591	H59	0.454400	0.949200	0.315400
C791	C79	0.477400	0.745300	0.275550
H601	H60	0.513000	0.693300	0.266200
C801	C80	0.373800	0.744700	0.271130
H611	H61	0.324300	0.692600	0.258700
C811	C81	0.175900	0.852200	0.211460
H621	H62	0.230800	0.900700	0.225300
H631	H63	0.123200	0.894500	0.194000
H641	H64	0.206100	0.798400	0.199600
C821	C82	0.009500	0.693800	0.182520
H651	H65	0.932600	0.689500	0.173500
H661	H66	0.032300	0.751100	0.169400
C831	C83	0.151600	0.554400	0.193160
H671	H67	0.201100	0.593700	0.211100
C841	C84	0.080300	0.433800	0.155470
H681	H68	0.069700	0.370500	0.141400
C851	C85	0.007700	0.511900	0.153040
H691	H69	0.938200	0.512700	0.137600
C861	C86	0.906900	0.594300	0.227570
H701	H70	0.840300	0.632700	0.221500
H711	H71	0.908400	0.537400	0.244700
H721	H72	0.915200	0.561400	0.206500
C871	C87	0.971500	0.647000	0.301960
H731	H73	0.959000	0.704500	0.317300
H741	H74	0.903000	0.619100	0.287300
C881	C88	0.026200	0.529300	0.355130
H751	H75	0.981900	0.562900	0.366300
C891	C89	0.138000	0.425200	0.344480
H761	H76	0.189300	0.370500	0.347000
C901	C90	0.101700	0.491000	0.316640
H771	H77	0.121500	0.490600	0.296000
C911	C91	0.158000	0.774700	0.333080
H781	H78	0.109500	0.742900	0.344000
H791	H79	0.166500	0.852100	0.338700
H801	H80	0.225600	0.738400	0.342000
C921	C92	0.422700	0.980800	0.138660
C931	C93	0.459600	0.044400	0.115860
C941	C94	0.434300	0.013500	0.080780
C951	C95	0.374400	0.921200	0.068200
C961	C96	0.333700	0.860900	0.090680
C971	C97	0.362100	0.888500	0.126230
C981	C98	0.440000	0.017900	0.175520
H811	H81	0.444500	0.098000	0.176100
H821	H82	0.378800	0.997000	0.182500
C991	C99	0.545700	0.967200	0.235770
H831	H83	0.492600	0.985300	0.245600
C1001	C100	0.690300	0.917700	0.230000
H841	H84	0.760100	0.893200	0.235300
C1011	C101	0.627300	0.942400	0.197650
H851	H85	0.643800	0.938900	0.176400
C1021	C102	0.524700	0.144300	0.129280
H861	H86	0.582000	0.147400	0.119400
H871	H87	0.552900	0.141100	0.154900
H881	H88	0.481200	0.209100	0.122300
C1031	C103	0.469100	0.087100	0.056430
H891	H89	0.428800	0.069300	0.031900
H901	H90	0.453400	0.163200	0.060800
C1041	C104	0.640600	0.989000	0.067510
H911	H91	0.616100	0.918400	0.070200
C1051	C105	0.739100	0.121000	0.064530
H921	H92	0.798800	0.161700	0.064700
C1061	C106	0.643600	0.163100	0.058890
H931	H93	0.623600	0.236800	0.054500
C1071	C107	0.356400	0.883400	0.030830
H941	H94	0.406800	0.918500	0.021400
H951	H95	0.285700	0.902800	0.016400
H961	H96	0.365000	0.804600	0.030500
C1081	C108	0.265600	0.764000	0.076990
H971	H97	0.251500	0.759800	0.051400
H981	H98	0.304300	0.697800	0.087400
C1091	C109	0.098800	0.846200	0.080530
H991	H99	0.112300	0.917800	0.074500
C1101	C110	0.022800	0.708900	0.093720
H1001	H100	0.972800	0.664200	0.099100
C1111	C111	0.117200	0.675100	0.092310
H1011	H101	0.144400	0.603500	0.096200
C1121	C112	0.326300	0.820300	0.151370
H1021	H102	0.259700	0.848000	0.152500
H1031	H103	0.378200	0.823500	0.174700
H1041	H104	0.317700	0.745000	0.143200
Co51	Co5	0.679320	0.612060	0.806820
Co61	Co6	0.872890	0.591140	0.579360
O171	O17	0.939400	0.466900	0.553130
O181	O18	0.920700	0.404600	0.499020
O191	O19	0.776800	0.733700	0.578200
O201	O20	0.672200	0.850600	0.541390
O211	O21	0.738750	0.727700	0.305000
O221	O22	0.797200	0.578800	0.337200
O231	O23	0.635000	0.020600	0.336290
O241	O24	0.597800	0.052700	0.385700
N291	N29	0.709600	0.830400	0.356900
N301	N30	0.822800	0.634900	0.528200
N311	N31	0.354900	0.665400	0.788240
N321	N32	0.522500	0.667700	0.795570
N331	N33	0.054400	0.910800	0.677140
N341	N34	0.171400	0.040400	0.681290
N351	N35	0.031200	0.941800	0.823700
N361	N36	0.089300	0.050400	0.868740
N371	N37	0.534700	0.526500	0.701510
N381	N38	0.639400	0.567200	0.754150
N391	N39	0.581100	0.422500	0.560860
N401	N40	0.738500	0.488100	0.569960
N411	N41	0.165500	0.735400	0.584170
N421	N42	0.011400	0.683100	0.586270
C1131	C113	0.910100	0.473500	0.519850
C1141	C114	0.735300	0.773800	0.548630
C1151	C115	0.764100	0.671800	0.333270
C1161	C116	0.636600	0.997700	0.366810
C1171	C117	0.852800	0.576900	0.504990
C1181	C118	0.828200	0.611200	0.470520
H1051	H105	0.850100	0.570100	0.454200
C1191	C119	0.771600	0.706000	0.460070
C1201	C120	0.737000	0.761700	0.484900
H1061	H106	0.694500	0.824300	0.478400
C1211	C121	0.766000	0.723600	0.518720
C1221	C122	0.746800	0.730000	0.364310
C1231	C123	0.766300	0.685700	0.397220
H1071	H107	0.791800	0.613700	0.401900
C1241	C124	0.747500	0.749300	0.423690
C1251	C125	0.706000	0.852300	0.414850
H1081	H108	0.690700	0.896500	0.431900
C1261	C126	0.687100	0.890200	0.381250
C1271	C127	0.163100	0.689400	0.771320
C1281	C128	0.126100	0.704700	0.735220
C1291	C129	0.043600	0.777200	0.721140
C1301	C130	0.994100	0.827400	0.742900
C1311	C131	0.028600	0.805100	0.778500
C1321	C132	0.115000	0.739900	0.793300
C1331	C133	0.254000	0.615100	0.787150
H1091	H109	0.244100	0.547400	0.773300
H1101	H110	0.256200	0.595900	0.811200
C1341	C134	0.445800	0.615900	0.802190
H1111	H111	0.454400	0.550800	0.815400
C1351	C135	0.477400	0.754700	0.775550
H1121	H112	0.513000	0.806700	0.766200
C1361	C136	0.373800	0.755300	0.771130
H1131	H113	0.324300	0.807400	0.758700
C1371	C137	0.175900	0.647800	0.711460
H1141	H114	0.230800	0.599300	0.725300
H1151	H115	0.123200	0.605500	0.694000
H1161	H116	0.206100	0.701600	0.699600
C1381	C138	0.009500	0.806200	0.682520
H1171	H117	0.932600	0.810500	0.673500
H1181	H118	0.032300	0.748900	0.669400
C1391	C139	0.151600	0.945600	0.693160
H1191	H119	0.201100	0.906300	0.711100
C1401	C140	0.080300	0.066200	0.655470
H1201	H120	0.069700	0.129500	0.641400
C1411	C141	0.007700	0.988100	0.653040
H1211	H121	0.938200	0.987300	0.637600
C1421	C142	0.906900	0.905700	0.727570
H1221	H122	0.840300	0.867300	0.721500
H1231	H123	0.908400	0.962600	0.744700
H1241	H124	0.915200	0.938600	0.706500
C1431	C143	0.971500	0.853000	0.801960
H1251	H125	0.959000	0.795500	0.817300
H1261	H126	0.903000	0.880900	0.787300
C1441	C144	0.026200	0.970700	0.855130
H1271	H127	0.981900	0.937100	0.866300
C1451	C145	0.138000	0.074800	0.844480
H1281	H128	0.189300	0.129500	0.847000
C1461	C146	0.101700	0.009000	0.816640
H1291	H129	0.121500	0.009400	0.796000
C1471	C147	0.158000	0.725300	0.833080
H1301	H130	0.109500	0.757100	0.844000
H1311	H131	0.166500	0.647900	0.838700
H1321	H132	0.225600	0.761600	0.842000
C1481	C148	0.422700	0.519200	0.638660
C1491	C149	0.459600	0.455600	0.615860
C1501	C150	0.434300	0.486500	0.580780
C1511	C151	0.374400	0.578800	0.568200
C1521	C152	0.333700	0.639100	0.590680
C1531	C153	0.362100	0.611500	0.626230
C1541	C154	0.440000	0.482100	0.675520
H1331	H133	0.444500	0.402000	0.676100
H1341	H134	0.378800	0.503000	0.682500
C1551	C155	0.545700	0.532800	0.735770
H1351	H135	0.492600	0.514700	0.745600
C1561	C156	0.690300	0.582300	0.730000
H1361	H136	0.760100	0.606800	0.735300
C1571	C157	0.627300	0.557600	0.697650
H1371	H137	0.643800	0.561100	0.676400
C1581	C158	0.524700	0.355700	0.629280
H1381	H138	0.582000	0.352600	0.619400
H1391	H139	0.552900	0.358900	0.654900
H1401	H140	0.481200	0.290900	0.622300
C1591	C159	0.469100	0.412900	0.556430
H1411	H141	0.428800	0.430700	0.531900
H1421	H142	0.453400	0.336800	0.560800
C1601	C160	0.640600	0.511000	0.567510
H1431	H143	0.616100	0.581600	0.570200
C1611	C161	0.739100	0.379000	0.564530
H1441	H144	0.798800	0.338300	0.564700
C1621	C162	0.643600	0.336900	0.558890
H1451	H145	0.623600	0.263200	0.554500
C1631	C163	0.356400	0.616600	0.530830
H1461	H146	0.406800	0.581500	0.521400
H1471	H147	0.285700	0.597200	0.516400
H1481	H148	0.365000	0.695400	0.530500
C1641	C164	0.265600	0.736000	0.576990
H1491	H149	0.251500	0.740200	0.551400
H1501	H150	0.304300	0.802200	0.587400
C1651	C165	0.098800	0.653800	0.580530
H1511	H151	0.112300	0.582200	0.574500
C1661	C166	0.022800	0.791100	0.593720
H1521	H152	0.972800	0.835800	0.599100
C1671	C167	0.117200	0.824900	0.592310
H1531	H153	0.144400	0.896500	0.596200
C1681	C168	0.326300	0.679700	0.651370
H1541	H154	0.259700	0.652000	0.652500
H1551	H155	0.378200	0.676500	0.674700
H1561	H156	0.317700	0.755000	0.643200
Co71	Co7	0.320680	0.112060	0.693180
Co81	Co8	0.127110	0.091140	0.920640
O251	O25	0.060600	0.966900	0.946870
O261	O26	0.079300	0.904600	0.000980
O271	O27	0.223200	0.233700	0.921800
O281	O28	0.327800	0.350600	0.958610
O291	O29	0.261250	0.227700	0.195000
O301	O30	0.202800	0.078800	0.162800
O311	O31	0.365000	0.520600	0.163710
O321	O32	0.402200	0.552700	0.114300
N431	N43	0.290400	0.330400	0.143100
N441	N44	0.177200	0.134900	0.971800
N451	N45	0.645100	0.165400	0.711760
N461	N46	0.477500	0.167700	0.704430
N471	N47	0.945600	0.410800	0.822860
N481	N48	0.828600	0.540400	0.818710
N491	N49	0.968800	0.441800	0.676300
N501	N50	0.910700	0.550400	0.631260
N511	N51	0.465300	0.026500	0.798490
N521	N52	0.360600	0.067200	0.745850
N531	N53	0.418900	0.922500	0.939140
N541	N54	0.261500	0.988100	0.930040
N551	N55	0.834500	0.235400	0.915830
N561	N56	0.988600	0.183100	0.913730
C1691	C169	0.089900	0.973500	0.980150
C1701	C170	0.264700	0.273800	0.951370
C1711	C171	0.235900	0.171800	0.166730
C1721	C172	0.363400	0.497700	0.133190
C1731	C173	0.147200	0.076900	0.995010
C1741	C174	0.171800	0.111200	0.029480
H1571	H157	0.149900	0.070100	0.045800
C1751	C175	0.228400	0.206000	0.039930
C1761	C176	0.263000	0.261700	0.015100
H1581	H158	0.305500	0.324300	0.021600
C1771	C177	0.234000	0.223600	0.981280
C1781	C178	0.253200	0.230000	0.135690
C1791	C179	0.233700	0.185700	0.102780
H1591	H159	0.208200	0.113700	0.098100
C1801	C180	0.252500	0.249300	0.076310
C1811	C181	0.294000	0.352300	0.085150
H1601	H160	0.309300	0.396500	0.068100
C1821	C182	0.312900	0.390200	0.118750
C1831	C183	0.836900	0.189400	0.728680
C1841	C184	0.873900	0.204700	0.764780
C1851	C185	0.956400	0.277200	0.778860
C1861	C186	0.005900	0.327400	0.757100
C1871	C187	0.971400	0.305100	0.721500
C1881	C188	0.885000	0.239900	0.706700
C1891	C189	0.746000	0.115100	0.712850
H1611	H161	0.755900	0.047400	0.726700
H1621	H162	0.743800	0.095900	0.688800
C1901	C190	0.554200	0.115900	0.697810
H1631	H163	0.545600	0.050800	0.684600
C1911	C191	0.522600	0.254700	0.724450
H1641	H164	0.487000	0.306700	0.733800
C1921	C192	0.626200	0.255300	0.728870
H1651	H165	0.675700	0.307400	0.741300
C1931	C193	0.824100	0.147800	0.788540
H1661	H166	0.769200	0.099300	0.774700
H1671	H167	0.876800	0.105500	0.806000
H1681	H168	0.793900	0.201600	0.800400
C1941	C194	0.990500	0.306200	0.817480
H1691	H169	0.067400	0.310500	0.826500
H1701	H170	0.967700	0.248900	0.830600
C1951	C195	0.848400	0.445600	0.806840
H1711	H171	0.798900	0.406300	0.788900
C1961	C196	0.919700	0.566200	0.844530
H1721	H172	0.930300	0.629500	0.858600
C1971	C197	0.992300	0.488100	0.846960
H1731	H173	0.061800	0.487300	0.862400
C1981	C198	0.093100	0.405700	0.772430
H1741	H174	0.159700	0.367300	0.778500
H1751	H175	0.091600	0.462600	0.755300
H1761	H176	0.084800	0.438600	0.793500
C1991	C199	0.028500	0.353000	0.698040
H1771	H177	0.041000	0.295500	0.682700
H1781	H178	0.097000	0.380900	0.712700
C2001	C200	0.973800	0.470700	0.644870
H1791	H179	0.018100	0.437100	0.633700
C2011	C201	0.862000	0.574800	0.655520
H1801	H180	0.810700	0.629500	0.653000
C2021	C202	0.898300	0.509000	0.683360
H1811	H181	0.878500	0.509400	0.704000
C2031	C203	0.842000	0.225300	0.666920
H1821	H182	0.890500	0.257100	0.656000
H1831	H183	0.833500	0.147900	0.661300
H1841	H184	0.774400	0.261600	0.658000
C2041	C204	0.577300	0.019200	0.861340
C2051	C205	0.540400	0.955600	0.884140
C2061	C206	0.565700	0.986500	0.919220
C2071	C207	0.625600	0.078800	0.931800
C2081	C208	0.666300	0.139100	0.909320
C2091	C209	0.637900	0.111500	0.873770
C2101	C210	0.560000	0.982100	0.824480
H1851	H185	0.555500	0.902000	0.823900
H1861	H186	0.621200	0.003000	0.817500
C2111	C211	0.454300	0.032800	0.764230
H1871	H187	0.507400	0.014700	0.754400
C2121	C212	0.309700	0.082300	0.770000
H1881	H188	0.239900	0.106800	0.764700
C2131	C213	0.372700	0.057600	0.802350
H1891	H189	0.356200	0.061100	0.823600
C2141	C214	0.475300	0.855700	0.870720
H1901	H190	0.418000	0.852600	0.880600
H1911	H191	0.447100	0.858900	0.845100
H1921	H192	0.518800	0.790900	0.877700
C2151	C215	0.530900	0.912900	0.943570
H1931	H193	0.571200	0.930700	0.968100
H1941	H194	0.546600	0.836800	0.939200
C2161	C216	0.359400	0.011000	0.932490
H1951	H195	0.383900	0.081600	0.929800
C2171	C217	0.260900	0.879000	0.935470
H1961	H196	0.201200	0.838300	0.935300
C2181	C218	0.356400	0.836900	0.941110
H1971	H197	0.376400	0.763200	0.945500
C2191	C219	0.643600	0.116600	0.969170
H1981	H198	0.593200	0.081500	0.978600
H1991	H199	0.714300	0.097200	0.983600
H2001	H200	0.635000	0.195400	0.969500
C2201	C220	0.734400	0.236000	0.923010
H2011	H201	0.748500	0.240200	0.948600
H2021	H202	0.695700	0.302200	0.912600
C2211	C221	0.901200	0.153800	0.919470
H2031	H203	0.887700	0.082200	0.925500
C2221	C222	0.977200	0.291100	0.906280
H2041	H204	0.027200	0.335800	0.900900
C2231	C223	0.882800	0.324900	0.907690
H2051	H205	0.855600	0.396500	0.903800
C2241	C224	0.673700	0.179700	0.848630
H2061	H206	0.740300	0.152000	0.847500
H2071	H207	0.621800	0.176500	0.825300
H2081	H208	0.682300	0.255000	0.856800
