data_REGRIG_clean_PM
_symmetry_space_group_name_H-M	'P1'
_cell_length_a	12.186000
_cell_length_b	16.734200
_cell_length_c	27.629000
_cell_angle_alpha	106.971000
_cell_angle_beta	90.000000
_cell_angle_gamma	111.353000
_symmetry_Int_Tables_number 1

loop_
_symmetry_equiv_pos_as_xyz
'x,y,z'

loop_
_atom_site_label
_atom_site_type_symbol
_atom_site_fract_x
_atom_site_fract_y
_atom_site_fract_z
Zn11	Zn1	0.158510	0.521020	0.121130
Zn21	Zn2	0.267890	0.359180	0.124600
Zn31	Zn3	0.284850	0.050580	0.820390
Zn41	Zn4	0.637490	0.478980	0.378870
Zn51	Zn5	0.908710	0.640820	0.375400
Zn61	Zn6	0.234270	0.949420	0.679610
Zn71	Zn7	0.841490	0.478980	0.878870
Zn81	Zn8	0.732110	0.640820	0.875400
Zn91	Zn9	0.715150	0.949420	0.179610
Zn101	Zn10	0.362510	0.521020	0.621130
Zn111	Zn11	0.091290	0.359180	0.624600
Zn121	Zn12	0.765730	0.050580	0.320390
H11	H1	0.210900	0.237200	0.961100
H21	H2	0.018500	0.217600	0.835800
H31	H3	0.032600	0.399200	0.971500
H41	H4	0.477800	0.529600	0.260800
H51	H5	0.727700	0.780200	0.320000
H61	H6	0.490000	0.728400	0.202700
H71	H7	0.973700	0.762800	0.538900
H81	H8	0.800900	0.782400	0.664200
H91	H9	0.633400	0.600800	0.528500
H101	H10	0.948200	0.470400	0.239200
H111	H11	0.947500	0.219800	0.180000
H121	H12	0.761600	0.271600	0.297300
H131	H13	0.789100	0.762800	0.038900
H141	H14	0.981500	0.782400	0.164200
H151	H15	0.967400	0.600800	0.028500
H161	H16	0.522200	0.470400	0.739200
H171	H17	0.272300	0.219800	0.680000
H181	H18	0.510000	0.271600	0.797300
H191	H19	0.026300	0.237200	0.461100
H201	H20	0.199100	0.217600	0.335800
H211	H21	0.366600	0.399200	0.471500
H221	H22	0.051800	0.529600	0.760800
H231	H23	0.052500	0.780200	0.820000
H241	H24	0.238400	0.728400	0.702700
C11	C1	0.128740	0.324280	0.974030
C21	C2	0.162860	0.256920	0.945400
C31	C3	0.125830	0.217260	0.892500
C41	C4	0.047380	0.245160	0.870180
C51	C5	0.012890	0.313580	0.899150
C61	C6	0.054800	0.353400	0.951820
C71	C7	0.170150	0.366900	0.030480
C81	C8	0.168950	0.149900	0.861000
C91	C9	0.937200	0.348600	0.873800
C101	C10	0.465600	0.619000	0.225400
C111	C11	0.512450	0.589300	0.260890
C121	C12	0.609980	0.650160	0.295570
C131	C13	0.661880	0.739960	0.296610
C141	C14	0.614200	0.769200	0.262100
C151	C15	0.518990	0.708980	0.226370
C161	C16	0.363350	0.553100	0.186280
C171	C17	0.661950	0.617500	0.331640
C181	C18	0.669520	0.866040	0.261900
C191	C19	0.804460	0.675720	0.525970
C201	C20	0.905940	0.743080	0.554600
C211	C21	0.908570	0.782740	0.607500
C221	C22	0.802220	0.754840	0.629820
C231	C23	0.699310	0.686420	0.600850
C241	C24	0.701400	0.646600	0.548180
C251	C25	0.803250	0.633100	0.469520
C261	C26	0.019050	0.850100	0.639000
C271	C27	0.588600	0.651400	0.626200
C281	C28	0.846600	0.381000	0.274600
C291	C29	0.923150	0.410700	0.239110
C301	C30	0.959820	0.349840	0.204430
C311	C31	0.921920	0.260040	0.203390
C321	C32	0.845000	0.230800	0.237900
C331	C33	0.810010	0.291020	0.273630
C341	C34	0.810250	0.446900	0.313720
C351	C35	0.044450	0.382500	0.168360
C361	C36	0.803480	0.133960	0.238100
C371	C37	0.871260	0.675720	0.025970
C381	C38	0.837140	0.743080	0.054600
C391	C39	0.874170	0.782740	0.107500
C401	C40	0.952620	0.754840	0.129820
C411	C41	0.987110	0.686420	0.100850
C421	C42	0.945200	0.646600	0.048180
C431	C43	0.829850	0.633100	0.969520
C441	C44	0.831050	0.850100	0.139000
C451	C45	0.062800	0.651400	0.126200
C461	C46	0.534400	0.381000	0.774600
C471	C47	0.487550	0.410700	0.739110
C481	C48	0.390020	0.349840	0.704430
C491	C49	0.338120	0.260040	0.703390
C501	C50	0.385800	0.230800	0.737900
C511	C51	0.481010	0.291020	0.773630
C521	C52	0.636650	0.446900	0.813720
C531	C53	0.338050	0.382500	0.668360
C541	C54	0.330480	0.133960	0.738100
C551	C55	0.195540	0.324280	0.474030
C561	C56	0.094060	0.256920	0.445400
C571	C57	0.091430	0.217260	0.392500
C581	C58	0.197780	0.245160	0.370180
C591	C59	0.300690	0.313580	0.399150
C601	C60	0.298600	0.353400	0.451820
C611	C61	0.196750	0.366900	0.530480
C621	C62	0.980950	0.149900	0.361000
C631	C63	0.411400	0.348600	0.373800
C641	C64	0.153400	0.619000	0.725400
C651	C65	0.076850	0.589300	0.760890
C661	C66	0.040180	0.650160	0.795570
C671	C67	0.078080	0.739960	0.796610
C681	C68	0.155000	0.769200	0.762100
C691	C69	0.189990	0.708980	0.726370
C701	C70	0.189750	0.553100	0.686280
C711	C71	0.955550	0.617500	0.831640
C721	C72	0.196520	0.866040	0.761900
O11	O1	0.149790	0.436580	0.052660
O21	O2	0.224040	0.331480	0.050900
O31	O3	0.247140	0.132080	0.880850
O41	O4	0.130440	0.111680	0.813070
O51	O5	0.912000	0.319000	0.828180
O61	O6	0.908470	0.409540	0.904580
O71	O7	0.321790	0.583580	0.156750
O81	O8	0.325840	0.472080	0.185080
O91	O9	0.600270	0.539340	0.333840
O101	O10	0.764000	0.669200	0.356970
O111	O11	0.744770	0.922340	0.299430
O121	O12	0.631460	0.885520	0.225910
O131	O13	0.713210	0.563420	0.447340
O141	O14	0.892560	0.668520	0.449100
O151	O15	0.115060	0.867920	0.619150
O161	O16	0.018760	0.888320	0.686930
O171	O17	0.593000	0.681000	0.671820
O181	O18	0.498930	0.590460	0.595420
O191	O19	0.738210	0.416420	0.343250
O201	O20	0.853760	0.527920	0.314920
O211	O21	0.060930	0.460660	0.166160
O221	O22	0.094800	0.330800	0.143030
O231	O23	0.822430	0.077660	0.200570
O241	O24	0.745940	0.114480	0.274090
O251	O25	0.850210	0.563420	0.947340
O261	O26	0.775960	0.668520	0.949100
O271	O27	0.752860	0.867920	0.119150
O281	O28	0.869560	0.888320	0.186930
O291	O29	0.088000	0.681000	0.171820
O301	O30	0.091530	0.590460	0.095420
O311	O31	0.678210	0.416420	0.843250
O321	O32	0.674160	0.527920	0.814920
O331	O33	0.399730	0.460660	0.666160
O341	O34	0.236000	0.330800	0.643030
O351	O35	0.255230	0.077660	0.700570
O361	O36	0.368540	0.114480	0.774090
O371	O37	0.286790	0.436580	0.552660
O381	O38	0.107440	0.331480	0.550900
O391	O39	0.884940	0.132080	0.380850
O401	O40	0.981240	0.111680	0.313070
O411	O41	0.407000	0.319000	0.328180
O421	O42	0.501070	0.409540	0.404580
O431	O43	0.261790	0.583580	0.656750
O441	O44	0.146240	0.472080	0.685080
O451	O45	0.939070	0.539340	0.833840
O461	O46	0.905200	0.669200	0.856970
O471	O47	0.177570	0.922340	0.799430
O481	O48	0.254060	0.885520	0.725910
