data_REGRAY_clean_PM
_symmetry_space_group_name_H-M	'P1'
_cell_length_a	12.104000
_cell_length_b	18.060000
_cell_length_c	31.650000
_cell_angle_alpha	90.480000
_cell_angle_beta	90.000000
_cell_angle_gamma	90.000000
_symmetry_Int_Tables_number 1

loop_
_symmetry_equiv_pos_as_xyz
'x,y,z'

loop_
_atom_site_label
_atom_site_type_symbol
_atom_site_fract_x
_atom_site_fract_y
_atom_site_fract_z
Zn11	Zn1	0.401120	0.955940	0.486530
Zn21	Zn2	0.599070	0.455020	0.512430
Zn31	Zn3	0.997970	0.665860	0.690050
Zn41	Zn4	0.408180	0.754650	0.268710
Zn51	Zn5	0.031620	0.145370	0.305400
Zn61	Zn6	0.901120	0.044060	0.013470
Zn71	Zn7	0.099070	0.544980	0.987570
Zn81	Zn8	0.497970	0.334140	0.809950
Zn91	Zn9	0.908180	0.245350	0.231290
Zn101	Zn10	0.531620	0.854630	0.194600
Zn111	Zn11	0.598880	0.044060	0.513470
Zn121	Zn12	0.400930	0.544980	0.487570
Zn131	Zn13	0.002030	0.334140	0.309950
Zn141	Zn14	0.591820	0.245350	0.731290
Zn151	Zn15	0.968380	0.854630	0.694600
Zn161	Zn16	0.098880	0.955940	0.986530
Zn171	Zn17	0.900930	0.455020	0.012430
Zn181	Zn18	0.502030	0.665860	0.190050
Zn191	Zn19	0.091820	0.754650	0.768710
Zn201	Zn20	0.468380	0.145370	0.805400
H11	H1	0.743000	0.956600	0.272400
H21	H2	0.537900	0.887400	0.366600
H31	H3	0.771100	0.050400	0.391200
H41	H4	0.730400	0.440000	0.384900
H51	H5	0.507800	0.599900	0.358800
H61	H6	0.704800	0.519000	0.265000
H71	H7	0.778200	0.859100	0.591000
H81	H8	0.761400	0.632400	0.587400
H91	H9	0.555400	0.755400	0.512700
H101	H10	0.243000	0.043400	0.227600
H111	H11	0.037900	0.112600	0.133400
H121	H12	0.271100	0.949600	0.108800
H131	H13	0.230400	0.560000	0.115100
H141	H14	0.007800	0.400100	0.141200
H151	H15	0.204800	0.481000	0.235000
H161	H16	0.278200	0.140900	0.909000
H171	H17	0.261400	0.367600	0.912600
H181	H18	0.055400	0.244600	0.987300
H191	H19	0.257000	0.043400	0.727600
H201	H20	0.462100	0.112600	0.633400
H211	H21	0.228900	0.949600	0.608800
H221	H22	0.269600	0.560000	0.615100
H231	H23	0.492200	0.400100	0.641200
H241	H24	0.295200	0.481000	0.735000
H251	H25	0.221800	0.140900	0.409000
H261	H26	0.238600	0.367600	0.412600
H271	H27	0.444600	0.244600	0.487300
H281	H28	0.757000	0.956600	0.772400
H291	H29	0.962100	0.887400	0.866600
H301	H30	0.728900	0.050400	0.891200
H311	H31	0.769600	0.440000	0.884900
H321	H32	0.992200	0.599900	0.858800
H331	H33	0.795200	0.519000	0.765000
H341	H34	0.721800	0.859100	0.091000
H351	H35	0.738600	0.632400	0.087400
H361	H36	0.944600	0.755400	0.012700
C11	C1	0.774600	0.007600	0.329700
C21	C2	0.720200	0.958700	0.301100
C31	C3	0.631900	0.912700	0.315100
C41	C4	0.595900	0.918200	0.356800
C51	C5	0.648400	0.971700	0.385300
C61	C6	0.737100	0.016000	0.372300
C71	C7	0.865900	0.054100	0.315600
C81	C8	0.575500	0.863800	0.287500
C91	C9	0.603500	0.980100	0.429300
C101	C10	0.731700	0.471300	0.323900
C111	C11	0.696700	0.471900	0.365000
C121	C12	0.609200	0.520500	0.378100
C131	C13	0.565100	0.567300	0.349900
C141	C14	0.601100	0.569700	0.307100
C151	C15	0.682300	0.520300	0.293700
C161	C16	0.824500	0.419300	0.309300
C171	C17	0.566100	0.518200	0.423100
C181	C18	0.548300	0.622100	0.277500
C191	C19	0.655300	0.818000	0.548900
C201	C20	0.742100	0.815400	0.581500
C211	C21	0.768000	0.749500	0.597100
C221	C22	0.732400	0.678600	0.578600
C231	C23	0.650800	0.684600	0.546300
C241	C24	0.612700	0.753300	0.533200
C251	C25	0.613300	0.889800	0.533800
C261	C26	0.853900	0.745700	0.632500
C271	C27	0.602500	0.617000	0.528100
C281	C28	0.274600	0.992400	0.170300
C291	C29	0.220200	0.041300	0.198900
C301	C30	0.131900	0.087300	0.184900
C311	C31	0.095900	0.081800	0.143200
C321	C32	0.148400	0.028300	0.114700
C331	C33	0.237100	0.984000	0.127700
C341	C34	0.365900	0.945900	0.184400
C351	C35	0.075500	0.136200	0.212500
C361	C36	0.103500	0.019900	0.070700
C371	C37	0.231700	0.528700	0.176100
C381	C38	0.196700	0.528100	0.135000
C391	C39	0.109200	0.479500	0.121900
C401	C40	0.065100	0.432700	0.150100
C411	C41	0.101100	0.430300	0.192900
C421	C42	0.182300	0.479700	0.206300
C431	C43	0.324500	0.580700	0.190700
C441	C44	0.066100	0.481800	0.076900
C451	C45	0.048300	0.377900	0.222500
C461	C46	0.155300	0.182000	0.951100
C471	C47	0.242100	0.184600	0.918500
C481	C48	0.268000	0.250500	0.902900
C491	C49	0.232400	0.321400	0.921400
C501	C50	0.150800	0.315400	0.953700
C511	C51	0.112700	0.246700	0.966800
C521	C52	0.113300	0.110200	0.966200
C531	C53	0.353900	0.254300	0.867500
C541	C54	0.102500	0.383000	0.971900
C551	C55	0.225400	0.992400	0.670300
C561	C56	0.279800	0.041300	0.698900
C571	C57	0.368100	0.087300	0.684900
C581	C58	0.404100	0.081800	0.643200
C591	C59	0.351600	0.028300	0.614700
C601	C60	0.262900	0.984000	0.627700
C611	C61	0.134100	0.945900	0.684400
C621	C62	0.424500	0.136200	0.712500
C631	C63	0.396500	0.019900	0.570700
C641	C64	0.268300	0.528700	0.676100
C651	C65	0.303300	0.528100	0.635000
C661	C66	0.390800	0.479500	0.621900
C671	C67	0.434900	0.432700	0.650100
C681	C68	0.398900	0.430300	0.692900
C691	C69	0.317700	0.479700	0.706300
C701	C70	0.175500	0.580700	0.690700
C711	C71	0.433900	0.481800	0.576900
C721	C72	0.451700	0.377900	0.722500
C731	C73	0.344700	0.182000	0.451100
C741	C74	0.257900	0.184600	0.418500
C751	C75	0.232000	0.250500	0.402900
C761	C76	0.267600	0.321400	0.421400
C771	C77	0.349200	0.315400	0.453700
C781	C78	0.387300	0.246700	0.466800
C791	C79	0.386700	0.110200	0.466200
C801	C80	0.146100	0.254300	0.367500
C811	C81	0.397500	0.383000	0.471900
C821	C82	0.725400	0.007600	0.829700
C831	C83	0.779800	0.958700	0.801100
C841	C84	0.868100	0.912700	0.815100
C851	C85	0.904100	0.918200	0.856800
C861	C86	0.851600	0.971700	0.885300
C871	C87	0.762900	0.016000	0.872300
C881	C88	0.634100	0.054100	0.815600
C891	C89	0.924500	0.863800	0.787500
C901	C90	0.896500	0.980100	0.929300
C911	C91	0.768300	0.471300	0.823900
C921	C92	0.803300	0.471900	0.865000
C931	C93	0.890800	0.520500	0.878100
C941	C94	0.934900	0.567300	0.849900
C951	C95	0.898900	0.569700	0.807100
C961	C96	0.817700	0.520300	0.793700
C971	C97	0.675500	0.419300	0.809300
C981	C98	0.933900	0.518200	0.923100
C991	C99	0.951700	0.622100	0.777500
C1001	C100	0.844700	0.818000	0.048900
C1011	C101	0.757900	0.815400	0.081500
C1021	C102	0.732000	0.749500	0.097100
C1031	C103	0.767600	0.678600	0.078600
C1041	C104	0.849200	0.684600	0.046300
C1051	C105	0.887300	0.753300	0.033200
C1061	C106	0.886700	0.889800	0.033800
C1071	C107	0.646100	0.745700	0.132500
C1081	C108	0.897500	0.617000	0.028100
O11	O1	0.918700	0.091400	0.343000
O21	O2	0.884400	0.059800	0.277900
O31	O3	0.612600	0.846800	0.251400
O41	O4	0.486000	0.833800	0.301200
O51	O5	0.510500	0.954200	0.436400
O61	O6	0.655800	0.019400	0.455300
O71	O7	0.825200	0.399300	0.271600
O81	O8	0.892100	0.399100	0.336600
O91	O9	0.627300	0.483800	0.450150
O101	O10	0.478300	0.552400	0.430300
O111	O11	0.480500	0.667800	0.293210
O121	O12	0.579700	0.620400	0.239150
O131	O13	0.517400	0.887500	0.515500
O141	O14	0.669200	0.951600	0.538100
O151	O15	0.883300	0.805400	0.647200
O161	O16	0.885700	0.683000	0.645400
O171	O17	0.656300	0.554500	0.531800
O181	O18	0.509000	0.620400	0.510600
O191	O19	0.064400	0.761200	0.708450
O201	O20	0.418700	0.908600	0.157000
O211	O21	0.384400	0.940200	0.222100
O221	O22	0.112600	0.153200	0.248600
O231	O23	0.986000	0.166200	0.198800
O241	O24	0.010500	0.045800	0.063600
O251	O25	0.155800	0.980600	0.044700
O261	O26	0.325200	0.600700	0.228400
O271	O27	0.392100	0.600900	0.163400
O281	O28	0.127300	0.516200	0.049850
O291	O29	0.978300	0.447600	0.069700
O301	O30	0.980500	0.332200	0.206790
O311	O31	0.079700	0.379600	0.260850
O321	O32	0.017400	0.112500	0.984500
O331	O33	0.169200	0.048400	0.961900
O341	O34	0.383300	0.194600	0.852800
O351	O35	0.385700	0.317000	0.854600
O361	O36	0.156300	0.445500	0.968200
O371	O37	0.009000	0.379600	0.989400
O381	O38	0.564400	0.238800	0.791550
O391	O39	0.081300	0.908600	0.657000
O401	O40	0.115600	0.940200	0.722100
O411	O41	0.387400	0.153200	0.748600
O421	O42	0.514000	0.166200	0.698800
O431	O43	0.489500	0.045800	0.563600
O441	O44	0.344200	0.980600	0.544700
O451	O45	0.174800	0.600700	0.728400
O461	O46	0.107900	0.600900	0.663400
O471	O47	0.372700	0.516200	0.549850
O481	O48	0.521700	0.447600	0.569700
O491	O49	0.519500	0.332200	0.706790
O501	O50	0.420300	0.379600	0.760850
O511	O51	0.482600	0.112500	0.484500
O521	O52	0.330800	0.048400	0.461900
O531	O53	0.116700	0.194600	0.352800
O541	O54	0.114300	0.317000	0.354600
O551	O55	0.343700	0.445500	0.468200
O561	O56	0.491000	0.379600	0.489400
O571	O57	0.935600	0.238800	0.291550
O581	O58	0.581300	0.091400	0.843000
O591	O59	0.615600	0.059800	0.777900
O601	O60	0.887400	0.846800	0.751400
O611	O61	0.014000	0.833800	0.801200
O621	O62	0.989500	0.954200	0.936400
O631	O63	0.844200	0.019400	0.955300
O641	O64	0.674800	0.399300	0.771600
O651	O65	0.607900	0.399100	0.836600
O661	O66	0.872700	0.483800	0.950150
O671	O67	0.021700	0.552400	0.930300
O681	O68	0.019500	0.667800	0.793210
O691	O69	0.920300	0.620400	0.739150
O701	O70	0.982600	0.887500	0.015500
O711	O71	0.830800	0.951600	0.038100
O721	O72	0.616700	0.805400	0.147200
O731	O73	0.614300	0.683000	0.145400
O741	O74	0.843700	0.554500	0.031800
O751	O75	0.991000	0.620400	0.010600
O761	O76	0.435600	0.761200	0.208450
