data_REGREC_clean_PM
_symmetry_space_group_name_H-M	'P1'
_cell_length_a	12.606000
_cell_length_b	12.906000
_cell_length_c	27.737000
_cell_angle_alpha	92.970000
_cell_angle_beta	90.000000
_cell_angle_gamma	90.000000
_symmetry_Int_Tables_number 1

loop_
_symmetry_equiv_pos_as_xyz
'x,y,z'

loop_
_atom_site_label
_atom_site_type_symbol
_atom_site_fract_x
_atom_site_fract_y
_atom_site_fract_z
Zn11	Zn1	0.955150	0.897620	0.865670
Zn21	Zn2	0.799220	0.041820	0.790190
Zn31	Zn3	0.422790	0.428140	0.973920
Zn41	Zn4	0.455150	0.602380	0.634330
Zn51	Zn5	0.299220	0.458180	0.709810
Zn61	Zn6	0.922790	0.071860	0.526080
Zn71	Zn7	0.044850	0.102380	0.134330
Zn81	Zn8	0.200780	0.958180	0.209810
Zn91	Zn9	0.577210	0.571860	0.026080
Zn101	Zn10	0.544850	0.397620	0.365670
Zn111	Zn11	0.700780	0.541820	0.290190
Zn121	Zn12	0.077210	0.928140	0.473920
H11	H1	0.691600	0.703500	0.898500
H21	H2	0.472000	0.525800	0.827000
H31	H3	0.632400	0.744100	0.757300
H41	H4	0.048500	0.912700	0.033600
H51	H5	0.308100	0.766700	0.083200
H61	H6	0.201600	0.703400	0.946400
H71	H7	0.191600	0.796500	0.601500
H81	H8	0.972000	0.974200	0.673000
H91	H9	0.132400	0.755900	0.742700
H101	H10	0.548500	0.587300	0.466400
H111	H11	0.808100	0.733300	0.416800
H121	H12	0.701600	0.796600	0.553600
H131	H13	0.308400	0.296500	0.101500
H141	H14	0.528000	0.474200	0.173000
H151	H15	0.367600	0.255900	0.242700
H161	H16	0.951500	0.087300	0.966400
H171	H17	0.691900	0.233300	0.916800
H181	H18	0.798400	0.296600	0.053600
H191	H19	0.808400	0.203500	0.398500
H201	H20	0.028000	0.025800	0.327000
H211	H21	0.867600	0.244100	0.257300
H221	H22	0.451500	0.412700	0.533600
H231	H23	0.191900	0.266700	0.583200
H241	H24	0.298400	0.203400	0.446400
C11	C1	0.673900	0.737000	0.827640
C21	C2	0.653400	0.685300	0.869820
C31	C3	0.577300	0.607700	0.869860
C41	C4	0.524400	0.578700	0.827120
C51	C5	0.547800	0.626400	0.784830
C61	C6	0.620100	0.708000	0.785750
C71	C7	0.750300	0.824600	0.829030
C81	C8	0.548900	0.559300	0.915930
C91	C9	0.490600	0.590600	0.739470
C101	C10	0.118000	0.815200	0.983560
C111	C11	0.105400	0.865200	0.028330
C121	C12	0.175100	0.846900	0.065820
C131	C13	0.258200	0.776800	0.058210
C141	C14	0.268300	0.721100	0.013620
C151	C15	0.196300	0.741200	0.976580
C161	C16	0.044900	0.843100	0.943700
C171	C17	0.160900	0.904300	0.114370
C181	C18	0.354500	0.639800	0.006950
C191	C19	0.173900	0.763000	0.672360
C201	C20	0.153400	0.814700	0.630180
C211	C21	0.077300	0.892300	0.630140
C221	C22	0.024400	0.921300	0.672880
C231	C23	0.047800	0.873600	0.715170
C241	C24	0.120100	0.792000	0.714250
C251	C25	0.250300	0.675400	0.670970
C261	C26	0.048900	0.940700	0.584070
C271	C27	0.990600	0.909400	0.760530
C281	C28	0.618000	0.684800	0.516440
C291	C29	0.605400	0.634800	0.471670
C301	C30	0.675100	0.653100	0.434180
C311	C31	0.758200	0.723200	0.441790
C321	C32	0.768300	0.778900	0.486380
C331	C33	0.696300	0.758800	0.523420
C341	C34	0.544900	0.656900	0.556300
C351	C35	0.660900	0.595700	0.385630
C361	C36	0.854500	0.860200	0.493050
C371	C37	0.326100	0.263000	0.172360
C381	C38	0.346600	0.314700	0.130180
C391	C39	0.422700	0.392300	0.130140
C401	C40	0.475600	0.421300	0.172880
C411	C41	0.452200	0.373600	0.215170
C421	C42	0.379900	0.292000	0.214250
C431	C43	0.249700	0.175400	0.170970
C441	C44	0.451100	0.440700	0.084070
C451	C45	0.509400	0.409400	0.260530
C461	C46	0.882000	0.184800	0.016440
C471	C47	0.894600	0.134800	0.971670
C481	C48	0.824900	0.153100	0.934180
C491	C49	0.741800	0.223200	0.941790
C501	C50	0.731700	0.278900	0.986380
C511	C51	0.803700	0.258800	0.023420
C521	C52	0.955100	0.156900	0.056300
C531	C53	0.839100	0.095700	0.885630
C541	C54	0.645500	0.360200	0.993050
C551	C55	0.826100	0.237000	0.327640
C561	C56	0.846600	0.185300	0.369820
C571	C57	0.922700	0.107700	0.369860
C581	C58	0.975600	0.078700	0.327120
C591	C59	0.952200	0.126400	0.284830
C601	C60	0.879900	0.208000	0.285750
C611	C61	0.749700	0.324600	0.329030
C621	C62	0.951100	0.059300	0.415930
C631	C63	0.009400	0.090600	0.239470
C641	C64	0.382000	0.315200	0.483560
C651	C65	0.394600	0.365200	0.528330
C661	C66	0.324900	0.346900	0.565820
C671	C67	0.241800	0.276800	0.558210
C681	C68	0.231700	0.221100	0.513620
C691	C69	0.303700	0.241200	0.476580
C701	C70	0.455100	0.343100	0.443700
C711	C71	0.339100	0.404300	0.614370
C721	C72	0.145500	0.139800	0.506950
O11	O1	0.740300	0.893000	0.799460
O21	O2	0.821500	0.822300	0.861550
O31	O3	0.479000	0.488800	0.913570
O41	O4	0.594100	0.593000	0.953820
O51	O5	0.517200	0.628400	0.700560
O61	O6	0.419100	0.526800	0.744850
O71	O7	0.955900	0.883500	0.953930
O81	O8	0.074200	0.832200	0.901350
O91	O9	0.233700	0.898400	0.144590
O101	O10	0.074900	0.953700	0.122410
O111	O11	0.328600	0.559300	0.982740
O121	O12	0.440800	0.660200	0.026010
O131	O13	0.240300	0.607000	0.700540
O141	O14	0.321500	0.677700	0.638450
O151	O15	0.979000	0.011200	0.586430
O161	O16	0.094100	0.907000	0.546180
O171	O17	0.017200	0.871600	0.799440
O181	O18	0.919100	0.973200	0.755150
O191	O19	0.455900	0.616500	0.546070
O201	O20	0.574200	0.667800	0.598650
O211	O21	0.733700	0.601600	0.355410
O221	O22	0.574900	0.546300	0.377590
O231	O23	0.828600	0.940700	0.517260
O241	O24	0.940800	0.839800	0.473990
O251	O25	0.259700	0.107000	0.200540
O261	O26	0.178500	0.177700	0.138450
O271	O27	0.521000	0.511200	0.086430
O281	O28	0.405900	0.407000	0.046180
O291	O29	0.482800	0.371600	0.299440
O301	O30	0.580900	0.473200	0.255150
O311	O31	0.044100	0.116500	0.046070
O321	O32	0.925800	0.167800	0.098650
O331	O33	0.766300	0.101600	0.855410
O341	O34	0.925100	0.046300	0.877590
O351	O35	0.671400	0.440700	0.017260
O361	O36	0.559200	0.339800	0.973990
O371	O37	0.759700	0.393000	0.299460
O381	O38	0.678500	0.322300	0.361550
O391	O39	0.021000	0.988800	0.413570
O401	O40	0.905900	0.093000	0.453820
O411	O41	0.982800	0.128400	0.200560
O421	O42	0.080900	0.026800	0.244850
O431	O43	0.544100	0.383500	0.453930
O441	O44	0.425800	0.332200	0.401350
O451	O45	0.266300	0.398400	0.644590
O461	O46	0.425100	0.453700	0.622410
O471	O47	0.171400	0.059300	0.482740
O481	O48	0.059200	0.160200	0.526010
