data_REHHOD_clean_PM
_symmetry_space_group_name_H-M	'P1'
_cell_length_a	18.466600
_cell_length_b	19.697600
_cell_length_c	23.031000
_cell_angle_alpha	115.174000
_cell_angle_beta	90.000000
_cell_angle_gamma	117.953000
_symmetry_Int_Tables_number 1

loop_
_symmetry_equiv_pos_as_xyz
'x,y,z'

loop_
_atom_site_label
_atom_site_type_symbol
_atom_site_fract_x
_atom_site_fract_y
_atom_site_fract_z
Cd11	Cd1	0.320750	0.420340	0.305730
Cd21	Cd2	0.731040	0.352820	0.035470
Cd31	Cd3	0.198860	0.641640	0.822190
Cd41	Cd4	0.900410	0.579660	0.194270
Cd51	Cd5	0.378220	0.647180	0.464530
Cd61	Cd6	0.557220	0.358360	0.677810
Cd71	Cd7	0.679250	0.579660	0.694270
Cd81	Cd8	0.268960	0.647180	0.964530
Cd91	Cd9	0.801140	0.358360	0.177810
Cd101	Cd10	0.099590	0.420340	0.805730
Cd111	Cd11	0.621780	0.352820	0.535470
Cd121	Cd12	0.442780	0.641640	0.322190
H11	H1	0.221300	0.145800	0.091600
H21	H2	0.156300	0.993800	0.027100
H31	H3	0.109000	0.970800	0.190900
H41	H4	0.175800	0.121000	0.253300
H51	H5	0.940200	0.489200	0.950100
H61	H6	0.112600	0.734600	0.989300
H71	H7	0.943000	0.695600	0.098700
H81	H8	0.531500	0.087200	0.458900
H91	H9	0.445400	0.939800	0.383100
H101	H10	0.258900	0.930600	0.472200
H111	H11	0.344200	0.075800	0.546300
H121	H12	0.077100	0.440600	0.262900
H131	H13	0.060800	0.656200	0.317300
H141	H14	0.285100	0.680400	0.365100
H151	H15	0.075500	0.854200	0.408400
H161	H16	0.162500	0.006200	0.472900
H171	H17	0.138200	0.029200	0.309100
H181	H18	0.054800	0.879000	0.246700
H191	H19	0.451000	0.510800	0.549900
H201	H20	0.378000	0.265400	0.510700
H211	H21	0.247400	0.304400	0.401300
H221	H22	0.444300	0.912800	0.041100
H231	H23	0.505600	0.060200	0.116900
H241	H24	0.328300	0.069400	0.027800
H251	H25	0.268400	0.924200	0.953700
H261	H26	0.636500	0.559400	0.237100
H271	H27	0.404600	0.343800	0.182700
H281	H28	0.604700	0.319600	0.134900
H291	H29	0.778700	0.854200	0.908400
H301	H30	0.843700	0.006200	0.972900
H311	H31	0.891000	0.029200	0.809100
H321	H32	0.824200	0.879000	0.746700
H331	H33	0.059800	0.510800	0.049900
H341	H34	0.887400	0.265400	0.010700
H351	H35	0.057000	0.304400	0.901300
H361	H36	0.468500	0.912800	0.541100
H371	H37	0.554600	0.060200	0.616900
H381	H38	0.741100	0.069400	0.527800
H391	H39	0.655800	0.924200	0.453700
H401	H40	0.922900	0.559400	0.737100
H411	H41	0.939200	0.343800	0.682700
H421	H42	0.714900	0.319600	0.634900
H431	H43	0.924500	0.145800	0.591600
H441	H44	0.837500	0.993800	0.527100
H451	H45	0.861800	0.970800	0.690900
H461	H46	0.945200	0.121000	0.753300
H471	H47	0.549000	0.489200	0.450100
H481	H48	0.622000	0.734600	0.489300
H491	H49	0.752600	0.695600	0.598700
H501	H50	0.555700	0.087200	0.958900
H511	H51	0.494400	0.939800	0.883100
H521	H52	0.671700	0.930600	0.972200
H531	H53	0.731600	0.075800	0.046300
H541	H54	0.363500	0.440600	0.762900
H551	H55	0.595400	0.656200	0.817300
H561	H56	0.395300	0.680400	0.865100
C11	C1	0.246600	0.246400	0.221400
C21	C2	0.205300	0.148000	0.178200
C31	C3	0.199600	0.110400	0.111500
C41	C4	0.161600	0.019200	0.072700
C51	C5	0.131700	0.967200	0.103800
C61	C6	0.133700	0.005800	0.171000
C71	C7	0.172100	0.095400	0.207900
C81	C8	0.092500	0.871600	0.063000
C91	C9	0.855260	0.521520	0.041200
C101	C10	0.928490	0.581980	0.025700
C111	C11	0.963300	0.549400	0.975100
C121	C12	0.032510	0.606020	0.961700
C131	C13	0.066510	0.696620	0.998300
C141	C14	0.031500	0.729400	0.047900
C151	C15	0.964170	0.672940	0.063400
C161	C16	0.073910	0.570620	0.910300
C171	C17	0.503400	0.189200	0.563100
C181	C18	0.447400	0.096000	0.511000
C191	C19	0.476600	0.055600	0.462100
C201	C20	0.424900	0.967000	0.416700
C211	C21	0.343800	0.919200	0.420900
C221	C22	0.314000	0.961200	0.469400
C231	C23	0.365300	0.048200	0.513600
C241	C24	0.293200	0.823000	0.376300
C251	C25	0.239880	0.513560	0.313800
C261	C26	0.189850	0.555100	0.314200
C271	C27	0.102820	0.501240	0.283600
C281	C28	0.055150	0.539900	0.284600
C291	C29	0.092780	0.630760	0.316100
C301	C30	0.180500	0.683600	0.346100
C311	C31	0.227410	0.645020	0.344900
C321	C32	0.962170	0.480340	0.251400
C331	C33	0.000200	0.753600	0.278600
C341	C34	0.057300	0.852000	0.321800
C351	C35	0.089200	0.889600	0.388500
C361	C36	0.142400	0.980800	0.427300
C371	C37	0.164500	0.032800	0.396200
C381	C38	0.127900	0.994200	0.329000
C391	C39	0.076700	0.904600	0.292100
C401	C40	0.220900	0.128400	0.437000
C411	C41	0.333740	0.478480	0.458800
C421	C42	0.346510	0.418020	0.474300
C431	C43	0.413900	0.450600	0.524900
C441	C44	0.426490	0.393980	0.538300
C451	C45	0.369890	0.303380	0.501700
C461	C46	0.302100	0.270600	0.452100
C471	C47	0.291230	0.327060	0.436600
C481	C48	0.503290	0.429380	0.589700
C491	C49	0.314200	0.810800	0.936900
C501	C50	0.351400	0.904000	0.989000
C511	C51	0.421000	0.944400	0.037900
C521	C52	0.457900	0.033000	0.083300
C531	C53	0.424600	0.080800	0.079100
C541	C54	0.352800	0.038800	0.030600
C551	C55	0.317100	0.951800	0.986400
C561	C56	0.470200	0.177000	0.123700
C571	C57	0.726320	0.486440	0.186200
C581	C58	0.634750	0.444900	0.185800
C591	C59	0.601580	0.498760	0.216400
C601	C60	0.515250	0.460100	0.215400
C611	C61	0.462020	0.369240	0.183900
C621	C62	0.496900	0.316400	0.153900
C631	C63	0.582390	0.354980	0.155100
C641	C64	0.481830	0.519660	0.248600
C651	C65	0.753400	0.753600	0.778600
C661	C66	0.794700	0.852000	0.821800
C671	C67	0.800400	0.889600	0.888500
C681	C68	0.838400	0.980800	0.927300
C691	C69	0.868300	0.032800	0.896200
C701	C70	0.866300	0.994200	0.829000
C711	C71	0.827900	0.904600	0.792100
C721	C72	0.907500	0.128400	0.937000
C731	C73	0.144740	0.478480	0.958800
C741	C74	0.071510	0.418020	0.974300
C751	C75	0.036700	0.450600	0.024900
C761	C76	0.967490	0.393980	0.038300
C771	C77	0.933490	0.303380	0.001700
C781	C78	0.968500	0.270600	0.952100
C791	C79	0.035830	0.327060	0.936600
C801	C80	0.926090	0.429380	0.089700
C811	C81	0.496600	0.810800	0.436900
C821	C82	0.552600	0.904000	0.489000
C831	C83	0.523400	0.944400	0.537900
C841	C84	0.575100	0.033000	0.583300
C851	C85	0.656200	0.080800	0.579100
C861	C86	0.686000	0.038800	0.530600
C871	C87	0.634700	0.951800	0.486400
C881	C88	0.706800	0.177000	0.623700
C891	C89	0.760120	0.486440	0.686200
C901	C90	0.810150	0.444900	0.685800
C911	C91	0.897180	0.498760	0.716400
C921	C92	0.944850	0.460100	0.715400
C931	C93	0.907220	0.369240	0.683900
C941	C94	0.819500	0.316400	0.653900
C951	C95	0.772590	0.354980	0.655100
C961	C96	0.037830	0.519660	0.748600
C971	C97	0.999800	0.246400	0.721400
C981	C98	0.942700	0.148000	0.678200
C991	C99	0.910800	0.110400	0.611500
C1001	C100	0.857600	0.019200	0.572700
C1011	C101	0.835500	0.967200	0.603800
C1021	C102	0.872100	0.005800	0.671000
C1031	C103	0.923300	0.095400	0.707900
C1041	C104	0.779100	0.871600	0.563000
C1051	C105	0.666260	0.521520	0.541200
C1061	C106	0.653490	0.581980	0.525700
C1071	C107	0.586100	0.549400	0.475100
C1081	C108	0.573510	0.606020	0.461700
C1091	C109	0.630110	0.696620	0.498300
C1101	C110	0.697900	0.729400	0.547900
C1111	C111	0.708770	0.672940	0.563400
C1121	C112	0.496710	0.570620	0.410300
C1131	C113	0.685800	0.189200	0.063100
C1141	C114	0.648600	0.096000	0.011000
C1151	C115	0.579000	0.055600	0.962100
C1161	C116	0.542100	0.967000	0.916700
C1171	C117	0.575400	0.919200	0.920900
C1181	C118	0.647200	0.961200	0.969400
C1191	C119	0.682900	0.048200	0.013600
C1201	C120	0.529800	0.823000	0.876300
C1211	C121	0.273680	0.513560	0.813800
C1221	C122	0.365250	0.555100	0.814200
C1231	C123	0.398420	0.501240	0.783600
C1241	C124	0.484750	0.539900	0.784600
C1251	C125	0.537980	0.630760	0.816100
C1261	C126	0.503100	0.683600	0.846100
C1271	C127	0.417610	0.645020	0.844900
C1281	C128	0.518170	0.480340	0.751400
N11	N1	0.064030	0.820460	0.089200
N21	N2	0.217730	0.775460	0.380400
N31	N3	0.243570	0.179540	0.410800
N41	N4	0.442270	0.224540	0.119600
N51	N5	0.935970	0.179540	0.910800
N61	N6	0.782270	0.224540	0.619600
N71	N7	0.756430	0.820460	0.589200
N81	N8	0.557730	0.775460	0.880400
O11	O1	0.262450	0.291900	0.191800
O21	O2	0.267580	0.279160	0.281000
O31	O3	0.817110	0.439820	0.997800
O41	O4	0.834330	0.550460	0.094300
O51	O5	0.146830	0.627060	0.910600
O61	O6	0.036020	0.489640	0.871900
O71	O7	0.478370	0.217740	0.613700
O81	O8	0.574350	0.236500	0.556500
O91	O9	0.317870	0.565540	0.348300
O101	O10	0.209550	0.434100	0.278900
O111	O11	0.932590	0.399180	0.224200
O121	O12	0.917370	0.513340	0.252400
O131	O13	0.970550	0.708100	0.308200
O141	O14	0.988420	0.720840	0.219000
O151	O15	0.377290	0.560180	0.502200
O161	O16	0.283870	0.449540	0.405700
O171	O17	0.519770	0.372940	0.589400
O181	O18	0.546380	0.510360	0.628100
O191	O19	0.260630	0.782260	0.886300
O201	O20	0.337850	0.763500	0.943500
O211	O21	0.752330	0.434460	0.151700
O221	O22	0.775450	0.565900	0.221100
O231	O23	0.533410	0.600820	0.275800
O241	O24	0.404030	0.486660	0.247600
O251	O25	0.737550	0.708100	0.808200
O261	O26	0.732420	0.720840	0.719000
O271	O27	0.182890	0.560180	0.002200
O281	O28	0.165670	0.449540	0.905700
O291	O29	0.853170	0.372940	0.089400
O301	O30	0.963980	0.510360	0.128100
O311	O31	0.521630	0.782260	0.386300
O321	O32	0.425650	0.763500	0.443500
O331	O33	0.682130	0.434460	0.651700
O341	O34	0.790450	0.565900	0.721100
O351	O35	0.067410	0.600820	0.775800
O361	O36	0.082630	0.486660	0.747600
O371	O37	0.029450	0.291900	0.691800
O381	O38	0.011580	0.279160	0.781000
O391	O39	0.622710	0.439820	0.497800
O401	O40	0.716130	0.550460	0.594300
O411	O41	0.480230	0.627060	0.410600
O421	O42	0.453620	0.489640	0.371900
O431	O43	0.739370	0.217740	0.113700
O441	O44	0.662150	0.236500	0.056500
O451	O45	0.247670	0.565540	0.848300
O461	O46	0.224550	0.434100	0.778900
O471	O47	0.466590	0.399180	0.724200
O481	O48	0.595970	0.513340	0.752400
