data_REHJIZ_charged_PM
_symmetry_space_group_name_H-M	'P1'
_cell_length_a	10.037200
_cell_length_b	10.037200
_cell_length_c	17.607000
_cell_angle_alpha	90.000000
_cell_angle_beta	90.000000
_cell_angle_gamma	90.000000
_symmetry_Int_Tables_number 1

loop_
_symmetry_equiv_pos_as_xyz
'x,y,z'

loop_
_atom_site_label
_atom_site_type_symbol
_atom_site_fract_x
_atom_site_fract_y
_atom_site_fract_z
Ag11	Ag1	0.702140	0.000000	0.250000
Ag21	Ag2	0.297860	0.000000	0.250000
Ag31	Ag3	0.000000	0.297860	0.750000
Ag41	Ag4	0.000000	0.702140	0.750000
H11	H1	0.654200	0.916900	0.923100
H21	H2	0.610200	0.600200	0.080900
H31	H3	0.458900	0.642200	0.081500
H41	H4	0.744300	0.114100	0.971500
H51	H5	0.598400	0.801400	0.137700
H61	H6	0.759800	0.144700	0.098700
H71	H7	0.345800	0.083100	0.923100
H81	H8	0.389800	0.399800	0.080900
H91	H9	0.541100	0.357800	0.081500
H101	H10	0.255700	0.885900	0.971500
H111	H11	0.401600	0.198600	0.137700
H121	H12	0.240200	0.855300	0.098700
H131	H13	0.916900	0.345800	0.076900
H141	H14	0.600200	0.389800	0.919100
H151	H15	0.642200	0.541100	0.918500
H161	H16	0.114100	0.255700	0.028500
H171	H17	0.801400	0.401600	0.862300
H181	H18	0.144700	0.240200	0.901300
H191	H19	0.083100	0.654200	0.076900
H201	H20	0.399800	0.610200	0.919100
H211	H21	0.357800	0.458900	0.918500
H221	H22	0.885900	0.744300	0.028500
H231	H23	0.198600	0.598400	0.862300
H241	H24	0.855300	0.759800	0.901300
H251	H25	0.345800	0.916900	0.576900
H261	H26	0.389800	0.600200	0.419100
H271	H27	0.541100	0.642200	0.418500
H281	H28	0.255700	0.114100	0.528500
H291	H29	0.401600	0.801400	0.362300
H301	H30	0.240200	0.144700	0.401300
H311	H31	0.654200	0.083100	0.576900
H321	H32	0.610200	0.399800	0.419100
H331	H33	0.458900	0.357800	0.418500
H341	H34	0.744300	0.885900	0.528500
H351	H35	0.598400	0.198600	0.362300
H361	H36	0.759800	0.855300	0.401300
H371	H37	0.083100	0.345800	0.423100
H381	H38	0.399800	0.389800	0.580900
H391	H39	0.357800	0.541100	0.581500
H401	H40	0.885900	0.255700	0.471500
H411	H41	0.198600	0.401600	0.637700
H421	H42	0.855300	0.240200	0.598700
H431	H43	0.916900	0.654200	0.423100
H441	H44	0.600200	0.610200	0.580900
H451	H45	0.642200	0.458900	0.581500
H461	H46	0.114100	0.744300	0.471500
H471	H47	0.801400	0.598400	0.637700
H481	H48	0.144700	0.759800	0.598700
C11	C1	0.615000	0.840700	0.027600
C21	C2	0.660100	0.932100	0.975100
C31	C3	0.533600	0.619300	0.049100
C41	C4	0.714400	0.047800	0.004300
C51	C5	0.629500	0.864500	0.103300
C61	C6	0.724500	0.065000	0.080800
C71	C7	0.385000	0.159300	0.027600
C81	C8	0.339900	0.067900	0.975100
C91	C9	0.466400	0.380700	0.049100
C101	C10	0.285600	0.952200	0.004300
C111	C11	0.370500	0.135500	0.103300
C121	C12	0.275500	0.935000	0.080800
C131	C13	0.840700	0.385000	0.972400
C141	C14	0.932100	0.339900	0.024900
C151	C15	0.619300	0.466400	0.950900
C161	C16	0.047800	0.285600	0.995700
C171	C17	0.864500	0.370500	0.896700
C181	C18	0.065000	0.275500	0.919200
C191	C19	0.159300	0.615000	0.972400
C201	C20	0.067900	0.660100	0.024900
C211	C21	0.380700	0.533600	0.950900
C221	C22	0.952200	0.714400	0.995700
C231	C23	0.135500	0.629500	0.896700
C241	C24	0.935000	0.724500	0.919200
C251	C25	0.385000	0.840700	0.472400
C261	C26	0.339900	0.932100	0.524900
C271	C27	0.466400	0.619300	0.450900
C281	C28	0.285600	0.047800	0.495700
C291	C29	0.370500	0.864500	0.396700
C301	C30	0.275500	0.065000	0.419200
C311	C31	0.615000	0.159300	0.472400
C321	C32	0.660100	0.067900	0.524900
C331	C33	0.533600	0.380700	0.450900
C341	C34	0.714400	0.952200	0.495700
C351	C35	0.629500	0.135500	0.396700
C361	C36	0.724500	0.935000	0.419200
C371	C37	0.159300	0.385000	0.527600
C381	C38	0.067900	0.339900	0.475100
C391	C39	0.380700	0.466400	0.549100
C401	C40	0.952200	0.285600	0.504300
C411	C41	0.135500	0.370500	0.603300
C421	C42	0.935000	0.275500	0.580800
C431	C43	0.840700	0.615000	0.527600
C441	C44	0.932100	0.660100	0.475100
C451	C45	0.619300	0.533600	0.549100
C461	C46	0.047800	0.714400	0.504300
C471	C47	0.864500	0.629500	0.603300
C481	C48	0.065000	0.724500	0.580800
C491	C49	0.500000	0.500000	0.000000
C501	C50	0.500000	0.500000	0.500000
N11	N1	0.687200	0.976000	0.130300
N21	N2	0.312800	0.024000	0.130300
N31	N3	0.976000	0.312800	0.869700
N41	N4	0.024000	0.687200	0.869700
N51	N5	0.312800	0.976000	0.369700
N61	N6	0.687200	0.024000	0.369700
N71	N7	0.024000	0.312800	0.630300
N81	N8	0.976000	0.687200	0.630300
O11	O1	0.562500	0.725400	0.998200
O21	O2	0.437500	0.274600	0.998200
O31	O3	0.725400	0.437500	0.001800
O41	O4	0.274600	0.562500	0.001800
O51	O5	0.437500	0.725400	0.501800
O61	O6	0.562500	0.274600	0.501800
O71	O7	0.274600	0.437500	0.498200
O81	O8	0.725400	0.562500	0.498200
N91	N9	0.000000	0.876100	0.250000
N101	N10	0.000000	0.123900	0.250000
O91	O9	0.908000	0.794000	0.256000
O101	O10	0.092000	0.206000	0.256000
O111	O11	0.092000	0.794000	0.244000
O121	O12	0.908000	0.206000	0.244000
O131	O13	0.000000	0.000000	0.250000
N111	N11	0.876100	0.000000	0.750000
N121	N12	0.123900	0.000000	0.750000
O141	O14	0.794000	0.092000	0.744000
O151	O15	0.206000	0.908000	0.744000
O161	O16	0.206000	0.092000	0.756000
O171	O17	0.794000	0.908000	0.756000
O181	O18	0.000000	0.000000	0.750000
