data_REJVOS_clean_PM
_symmetry_space_group_name_H-M	'P1'
_cell_length_a	9.856800
_cell_length_b	11.307000
_cell_length_c	14.729000
_cell_angle_alpha	91.371000
_cell_angle_beta	90.000000
_cell_angle_gamma	90.000000
_symmetry_Int_Tables_number 1

loop_
_symmetry_equiv_pos_as_xyz
'x,y,z'

loop_
_atom_site_label
_atom_site_type_symbol
_atom_site_fract_x
_atom_site_fract_y
_atom_site_fract_z
Mg11	Mg1	0.577620	0.743570	0.364620
Mg21	Mg2	0.385700	0.760380	0.192670
Mg31	Mg3	0.077620	0.756430	0.135380
Mg41	Mg4	0.885700	0.739620	0.307330
Mg51	Mg5	0.422380	0.256430	0.635380
Mg61	Mg6	0.614300	0.239620	0.807330
Mg71	Mg7	0.922380	0.243570	0.864620
Mg81	Mg8	0.114300	0.260380	0.692670
Mg91	Mg9	0.500000	0.000000	0.500000
Mg101	Mg10	0.000000	0.500000	0.000000
Mg111	Mg11	0.500000	0.500000	0.500000
Mg121	Mg12	0.000000	0.000000	0.000000
H11	H1	0.447600	0.022700	0.242400
H21	H2	0.878900	0.944600	0.448700
H31	H3	0.790900	0.498800	0.473700
H41	H4	0.736800	0.649400	0.130400
H51	H5	0.348100	0.803200	0.570100
H61	H6	0.301500	0.520700	0.275200
H71	H7	0.947600	0.477300	0.257600
H81	H8	0.378900	0.555400	0.051300
H91	H9	0.290900	0.001200	0.026300
H101	H10	0.236800	0.850600	0.369600
H111	H11	0.848100	0.696800	0.929900
H121	H12	0.801500	0.979300	0.224800
H131	H13	0.552400	0.977300	0.757600
H141	H14	0.121100	0.055400	0.551300
H151	H15	0.209100	0.501200	0.526300
H161	H16	0.263200	0.350600	0.869600
H171	H17	0.651900	0.196800	0.429900
H181	H18	0.698500	0.479300	0.724800
H191	H19	0.052400	0.522700	0.742400
H201	H20	0.621100	0.444600	0.948700
H211	H21	0.709100	0.998800	0.973700
H221	H22	0.763200	0.149400	0.630400
H231	H23	0.151900	0.303200	0.070100
H241	H24	0.198500	0.020700	0.775200
C11	C1	0.473270	0.981130	0.293280
C21	C2	0.787310	0.925950	0.443300
C31	C3	0.773000	0.562650	0.436890
C41	C4	0.667780	0.676980	0.168460
C51	C5	0.402750	0.758950	0.530600
C61	C6	0.363660	0.548790	0.318040
C71	C7	0.973270	0.518870	0.206720
C81	C8	0.287310	0.574050	0.056700
C91	C9	0.273000	0.937350	0.063110
C101	C10	0.167780	0.823020	0.331540
C111	C11	0.902750	0.741050	0.969400
C121	C12	0.863660	0.951210	0.181960
C131	C13	0.526730	0.018870	0.706720
C141	C14	0.212690	0.074050	0.556700
C151	C15	0.227000	0.437350	0.563110
C161	C16	0.332220	0.323020	0.831540
C171	C17	0.597250	0.241050	0.469400
C181	C18	0.636340	0.451210	0.681960
C191	C19	0.026730	0.481130	0.793280
C201	C20	0.712690	0.425950	0.943300
C211	C21	0.727000	0.062650	0.936890
C221	C22	0.832220	0.176980	0.668460
C231	C23	0.097250	0.258950	0.030600
C241	C24	0.136340	0.048790	0.818040
O11	O1	0.489250	0.869850	0.282980
O21	O2	0.488840	0.038740	0.364780
O31	O3	0.755100	0.842180	0.387250
O41	O4	0.706960	0.983980	0.490760
O51	O5	0.650110	0.598890	0.433790
O61	O6	0.870260	0.604920	0.395350
O71	O7	0.697340	0.694560	0.252080
O81	O8	0.555190	0.693380	0.133510
O91	O9	0.475680	0.816310	0.474710
O101	O10	0.398340	0.650670	0.536820
O111	O11	0.417720	0.649560	0.303800
O121	O12	0.386380	0.485630	0.383370
O131	O13	0.989250	0.630150	0.217020
O141	O14	0.988840	0.461260	0.135220
O151	O15	0.255100	0.657820	0.112750
O161	O16	0.206960	0.516020	0.009240
O171	O17	0.150110	0.901110	0.066210
O181	O18	0.370260	0.895080	0.104650
O191	O19	0.197340	0.805440	0.247920
O201	O20	0.055190	0.806620	0.366490
O211	O21	0.975680	0.683690	0.025290
O221	O22	0.898340	0.849330	0.963180
O231	O23	0.917720	0.850440	0.196200
O241	O24	0.886380	0.014370	0.116630
O251	O25	0.510750	0.130150	0.717020
O261	O26	0.511160	0.961260	0.635220
O271	O27	0.244900	0.157820	0.612750
O281	O28	0.293040	0.016020	0.509240
O291	O29	0.349890	0.401110	0.566210
O301	O30	0.129740	0.395080	0.604650
O311	O31	0.302660	0.305440	0.747920
O321	O32	0.444810	0.306620	0.866490
O331	O33	0.524320	0.183690	0.525290
O341	O34	0.601660	0.349330	0.463180
O351	O35	0.582280	0.350440	0.696200
O361	O36	0.613620	0.514370	0.616630
O371	O37	0.010750	0.369850	0.782980
O381	O38	0.011160	0.538740	0.864780
O391	O39	0.744900	0.342180	0.887250
O401	O40	0.793040	0.483980	0.990760
O411	O41	0.849890	0.098890	0.933790
O421	O42	0.629740	0.104920	0.895350
O431	O43	0.802660	0.194560	0.752080
O441	O44	0.944810	0.193380	0.633510
O451	O45	0.024320	0.316310	0.974710
O461	O46	0.101660	0.150670	0.036820
O471	O47	0.082280	0.149560	0.803800
O481	O48	0.113620	0.985630	0.883370
