data_REWLEM_clean_h_PM
_symmetry_space_group_name_H-M	'P1'
_cell_length_a	18.583700
_cell_length_b	18.583700
_cell_length_c	53.135000
_cell_angle_alpha	90.000000
_cell_angle_beta	90.000000
_cell_angle_gamma	90.000000
_symmetry_Int_Tables_number 1

loop_
_symmetry_equiv_pos_as_xyz
'x,y,z'

loop_
_atom_site_label
_atom_site_type_symbol
_atom_site_fract_x
_atom_site_fract_y
_atom_site_fract_z
H11	H1	0.277130	0.598360	0.413030
N21	N2	0.220500	0.554500	0.473030
C31	C3	0.222300	0.542100	0.446770
C41	C4	0.212700	0.428400	0.394560
C51	C5	0.211500	0.430100	0.367450
C61	C6	0.217800	0.483800	0.326380
C71	C7	0.225600	0.549400	0.313160
H81	H8	0.223920	0.602680	0.323780
C91	C9	0.235400	0.550500	0.287170
C101	C10	0.235500	0.487100	0.274130
H111	H11	0.246340	0.487040	0.253010
C121	C12	0.222600	0.422700	0.286190
C131	C13	0.216000	0.421100	0.312440
H141	H14	0.209030	0.367520	0.322600
C151	C15	0.223200	0.352800	0.272550
C161	C16	0.245000	0.619300	0.274750
O171	O17	0.251700	0.355550	0.250070
O181	O18	0.195600	0.298600	0.282690
O191	O19	0.222600	0.674800	0.285240
O201	O20	0.275900	0.618900	0.253110
H211	H21	0.100570	0.371000	0.414540
H221	H22	0.132590	0.588850	0.402130
H231	H23	0.149070	0.592020	0.354970
N241	N24	0.136200	0.432000	0.472500
C251	C25	0.184900	0.492500	0.435800
C261	C26	0.147100	0.438400	0.446400
C271	C27	0.104000	0.378600	0.435800
C281	C28	0.077500	0.345100	0.452800
C291	C29	0.086300	0.361400	0.475600
C301	C30	0.194600	0.487300	0.406810
C311	C31	0.162800	0.543400	0.392330
C321	C32	0.267800	0.615800	0.477300
C331	C33	0.292400	0.639800	0.452300
C341	C34	0.269200	0.598900	0.434300
C351	C35	0.168200	0.543400	0.366210
C361	C36	0.195300	0.487800	0.353800
H371	H37	0.229000	0.377030	0.404810
H381	H38	0.225070	0.379550	0.356260
H391	H39	0.722870	0.401640	0.413030
N401	N40	0.779500	0.445500	0.473030
C411	C41	0.777700	0.457900	0.446770
C421	C42	0.787300	0.571600	0.394560
C431	C43	0.788500	0.569900	0.367450
C441	C44	0.782200	0.516200	0.326380
C451	C45	0.774400	0.450600	0.313160
H461	H46	0.776080	0.397320	0.323780
C471	C47	0.764600	0.449500	0.287170
C481	C48	0.764500	0.512900	0.274130
H491	H49	0.753660	0.512960	0.253010
C501	C50	0.777400	0.577300	0.286190
C511	C51	0.784000	0.578900	0.312440
H521	H52	0.790970	0.632480	0.322600
C531	C53	0.776800	0.647200	0.272550
C541	C54	0.755000	0.380700	0.274750
O551	O55	0.748300	0.644450	0.250070
O561	O56	0.804400	0.701400	0.282690
O571	O57	0.777400	0.325200	0.285240
O581	O58	0.724100	0.381100	0.253110
H591	H59	0.899430	0.629000	0.414540
H601	H60	0.867410	0.411150	0.402130
H611	H61	0.850930	0.407980	0.354970
N621	N62	0.863800	0.568000	0.472500
C631	C63	0.815100	0.507500	0.435800
C641	C64	0.852900	0.561600	0.446400
C651	C65	0.896000	0.621400	0.435800
C661	C66	0.922500	0.654900	0.452800
C671	C67	0.913700	0.638600	0.475600
C681	C68	0.805400	0.512700	0.406810
C691	C69	0.837200	0.456600	0.392330
C701	C70	0.732200	0.384200	0.477300
C711	C71	0.707600	0.360200	0.452300
C721	C72	0.730800	0.401100	0.434300
C731	C73	0.831800	0.456600	0.366210
C741	C74	0.804700	0.512200	0.353800
H751	H75	0.771000	0.622970	0.404810
H761	H76	0.774930	0.620450	0.356260
H771	H77	0.901640	0.777130	0.913030
N781	N78	0.945500	0.720500	0.973030
C791	C79	0.957900	0.722300	0.946770
C801	C80	0.071600	0.712700	0.894560
C811	C81	0.069900	0.711500	0.867450
C821	C82	0.016200	0.717800	0.826380
C831	C83	0.950600	0.725600	0.813160
H841	H84	0.897320	0.723920	0.823780
C851	C85	0.949500	0.735400	0.787170
C861	C86	0.012900	0.735500	0.774130
H871	H87	0.012960	0.746340	0.753010
C881	C88	0.077300	0.722600	0.786190
C891	C89	0.078900	0.716000	0.812440
H901	H90	0.132480	0.709030	0.822600
C911	C91	0.147200	0.723200	0.772550
C921	C92	0.880700	0.745000	0.774750
O931	O93	0.144450	0.751700	0.750070
O941	O94	0.201400	0.695600	0.782690
O951	O95	0.825200	0.722600	0.785240
O961	O96	0.881100	0.775900	0.753110
H971	H97	0.129000	0.600570	0.914540
H981	H98	0.911150	0.632590	0.902130
H991	H99	0.907980	0.649070	0.854970
N1001	N100	0.068000	0.636200	0.972500
C1011	C101	0.007500	0.684900	0.935800
C1021	C102	0.061600	0.647100	0.946400
C1031	C103	0.121400	0.604000	0.935800
C1041	C104	0.154900	0.577500	0.952800
C1051	C105	0.138600	0.586300	0.975600
C1061	C106	0.012700	0.694600	0.906810
C1071	C107	0.956600	0.662800	0.892330
C1081	C108	0.884200	0.767800	0.977300
C1091	C109	0.860200	0.792400	0.952300
C1101	C110	0.901100	0.769200	0.934300
C1111	C111	0.956600	0.668200	0.866210
C1121	C112	0.012200	0.695300	0.853800
H1131	H113	0.122970	0.729000	0.904810
H1141	H114	0.120450	0.725070	0.856260
H1151	H115	0.098360	0.222870	0.913030
N1161	N116	0.054500	0.279500	0.973030
C1171	C117	0.042100	0.277700	0.946770
C1181	C118	0.928400	0.287300	0.894560
C1191	C119	0.930100	0.288500	0.867450
C1201	C120	0.983800	0.282200	0.826380
C1211	C121	0.049400	0.274400	0.813160
H1221	H122	0.102680	0.276080	0.823780
C1231	C123	0.050500	0.264600	0.787170
C1241	C124	0.987100	0.264500	0.774130
H1251	H125	0.987040	0.253660	0.753010
C1261	C126	0.922700	0.277400	0.786190
C1271	C127	0.921100	0.284000	0.812440
H1281	H128	0.867520	0.290970	0.822600
C1291	C129	0.852800	0.276800	0.772550
C1301	C130	0.119300	0.255000	0.774750
O1311	O131	0.855550	0.248300	0.750070
O1321	O132	0.798600	0.304400	0.782690
O1331	O133	0.174800	0.277400	0.785240
O1341	O134	0.118900	0.224100	0.753110
H1351	H135	0.871000	0.399430	0.914540
H1361	H136	0.088850	0.367410	0.902130
H1371	H137	0.092020	0.350930	0.854970
N1381	N138	0.932000	0.363800	0.972500
C1391	C139	0.992500	0.315100	0.935800
C1401	C140	0.938400	0.352900	0.946400
C1411	C141	0.878600	0.396000	0.935800
C1421	C142	0.845100	0.422500	0.952800
C1431	C143	0.861400	0.413700	0.975600
C1441	C144	0.987300	0.305400	0.906810
C1451	C145	0.043400	0.337200	0.892330
C1461	C146	0.115800	0.232200	0.977300
C1471	C147	0.139800	0.207600	0.952300
C1481	C148	0.098900	0.230800	0.934300
C1491	C149	0.043400	0.331800	0.866210
C1501	C150	0.987800	0.304700	0.853800
H1511	H151	0.877030	0.271000	0.904810
H1521	H152	0.879550	0.274930	0.856260
H1531	H153	0.222870	0.098360	0.086970
N1541	N154	0.279500	0.054500	0.026970
C1551	C155	0.277700	0.042100	0.053230
C1561	C156	0.287300	0.928400	0.105440
C1571	C157	0.288500	0.930100	0.132550
C1581	C158	0.282200	0.983800	0.173620
C1591	C159	0.274400	0.049400	0.186840
H1601	H160	0.276080	0.102680	0.176220
C1611	C161	0.264600	0.050500	0.212830
C1621	C162	0.264500	0.987100	0.225870
H1631	H163	0.253660	0.987040	0.246990
C1641	C164	0.277400	0.922700	0.213810
C1651	C165	0.284000	0.921100	0.187560
H1661	H166	0.290970	0.867520	0.177400
C1671	C167	0.276800	0.852800	0.227450
C1681	C168	0.255000	0.119300	0.225250
O1691	O169	0.248300	0.855550	0.249930
O1701	O170	0.304400	0.798600	0.217310
O1711	O171	0.277400	0.174800	0.214760
O1721	O172	0.224100	0.118900	0.246890
H1731	H173	0.399430	0.871000	0.085460
H1741	H174	0.367410	0.088850	0.097870
H1751	H175	0.350930	0.092020	0.145030
N1761	N176	0.363800	0.932000	0.027500
C1771	C177	0.315100	0.992500	0.064200
C1781	C178	0.352900	0.938400	0.053600
C1791	C179	0.396000	0.878600	0.064200
C1801	C180	0.422500	0.845100	0.047200
C1811	C181	0.413700	0.861400	0.024400
C1821	C182	0.305400	0.987300	0.093190
C1831	C183	0.337200	0.043400	0.107670
C1841	C184	0.232200	0.115800	0.022700
C1851	C185	0.207600	0.139800	0.047700
C1861	C186	0.230800	0.098900	0.065700
C1871	C187	0.331800	0.043400	0.133790
C1881	C188	0.304700	0.987800	0.146200
H1891	H189	0.271000	0.877030	0.095190
H1901	H190	0.274930	0.879550	0.143740
H1911	H191	0.777130	0.901640	0.086970
N1921	N192	0.720500	0.945500	0.026970
C1931	C193	0.722300	0.957900	0.053230
C1941	C194	0.712700	0.071600	0.105440
C1951	C195	0.711500	0.069900	0.132550
C1961	C196	0.717800	0.016200	0.173620
C1971	C197	0.725600	0.950600	0.186840
H1981	H198	0.723920	0.897320	0.176220
C1991	C199	0.735400	0.949500	0.212830
C2001	C200	0.735500	0.012900	0.225870
H2011	H201	0.746340	0.012960	0.246990
C2021	C202	0.722600	0.077300	0.213810
C2031	C203	0.716000	0.078900	0.187560
H2041	H204	0.709030	0.132480	0.177400
C2051	C205	0.723200	0.147200	0.227450
C2061	C206	0.745000	0.880700	0.225250
O2071	O207	0.751700	0.144450	0.249930
O2081	O208	0.695600	0.201400	0.217310
O2091	O209	0.722600	0.825200	0.214760
O2101	O210	0.775900	0.881100	0.246890
H2111	H211	0.600570	0.129000	0.085460
H2121	H212	0.632590	0.911150	0.097870
H2131	H213	0.649070	0.907980	0.145030
N2141	N214	0.636200	0.068000	0.027500
C2151	C215	0.684900	0.007500	0.064200
C2161	C216	0.647100	0.061600	0.053600
C2171	C217	0.604000	0.121400	0.064200
C2181	C218	0.577500	0.154900	0.047200
C2191	C219	0.586300	0.138600	0.024400
C2201	C220	0.694600	0.012700	0.093190
C2211	C221	0.662800	0.956600	0.107670
C2221	C222	0.767800	0.884200	0.022700
C2231	C223	0.792400	0.860200	0.047700
C2241	C224	0.769200	0.901100	0.065700
C2251	C225	0.668200	0.956600	0.133790
C2261	C226	0.695300	0.012200	0.146200
H2271	H227	0.729000	0.122970	0.095190
H2281	H228	0.725070	0.120450	0.143740
H2291	H229	0.598360	0.277130	0.586970
N2301	N230	0.554500	0.220500	0.526970
C2311	C231	0.542100	0.222300	0.553230
C2321	C232	0.428400	0.212700	0.605440
C2331	C233	0.430100	0.211500	0.632550
C2341	C234	0.483800	0.217800	0.673620
C2351	C235	0.549400	0.225600	0.686840
H2361	H236	0.602680	0.223920	0.676220
C2371	C237	0.550500	0.235400	0.712830
C2381	C238	0.487100	0.235500	0.725870
H2391	H239	0.487040	0.246340	0.746990
C2401	C240	0.422700	0.222600	0.713810
C2411	C241	0.421100	0.216000	0.687560
H2421	H242	0.367520	0.209030	0.677400
C2431	C243	0.352800	0.223200	0.727450
C2441	C244	0.619300	0.245000	0.725250
O2451	O245	0.355550	0.251700	0.749930
O2461	O246	0.298600	0.195600	0.717310
O2471	O247	0.674800	0.222600	0.714760
O2481	O248	0.618900	0.275900	0.746890
H2491	H249	0.371000	0.100570	0.585460
H2501	H250	0.588850	0.132590	0.597870
H2511	H251	0.592020	0.149070	0.645030
N2521	N252	0.432000	0.136200	0.527500
C2531	C253	0.492500	0.184900	0.564200
C2541	C254	0.438400	0.147100	0.553600
C2551	C255	0.378600	0.104000	0.564200
C2561	C256	0.345100	0.077500	0.547200
C2571	C257	0.361400	0.086300	0.524400
C2581	C258	0.487300	0.194600	0.593190
C2591	C259	0.543400	0.162800	0.607670
C2601	C260	0.615800	0.267800	0.522700
C2611	C261	0.639800	0.292400	0.547700
C2621	C262	0.598900	0.269200	0.565700
C2631	C263	0.543400	0.168200	0.633790
C2641	C264	0.487800	0.195300	0.646200
H2651	H265	0.377030	0.229000	0.595190
H2661	H266	0.379550	0.225070	0.643740
H2671	H267	0.401640	0.722870	0.586970
N2681	N268	0.445500	0.779500	0.526970
C2691	C269	0.457900	0.777700	0.553230
C2701	C270	0.571600	0.787300	0.605440
C2711	C271	0.569900	0.788500	0.632550
C2721	C272	0.516200	0.782200	0.673620
C2731	C273	0.450600	0.774400	0.686840
H2741	H274	0.397320	0.776080	0.676220
C2751	C275	0.449500	0.764600	0.712830
C2761	C276	0.512900	0.764500	0.725870
H2771	H277	0.512960	0.753660	0.746990
C2781	C278	0.577300	0.777400	0.713810
C2791	C279	0.578900	0.784000	0.687560
H2801	H280	0.632480	0.790970	0.677400
C2811	C281	0.647200	0.776800	0.727450
C2821	C282	0.380700	0.755000	0.725250
O2831	O283	0.644450	0.748300	0.749930
O2841	O284	0.701400	0.804400	0.717310
O2851	O285	0.325200	0.777400	0.714760
O2861	O286	0.381100	0.724100	0.746890
H2871	H287	0.629000	0.899430	0.585460
H2881	H288	0.411150	0.867410	0.597870
H2891	H289	0.407980	0.850930	0.645030
N2901	N290	0.568000	0.863800	0.527500
C2911	C291	0.507500	0.815100	0.564200
C2921	C292	0.561600	0.852900	0.553600
C2931	C293	0.621400	0.896000	0.564200
C2941	C294	0.654900	0.922500	0.547200
C2951	C295	0.638600	0.913700	0.524400
C2961	C296	0.512700	0.805400	0.593190
C2971	C297	0.456600	0.837200	0.607670
C2981	C298	0.384200	0.732200	0.522700
C2991	C299	0.360200	0.707600	0.547700
C3001	C300	0.401100	0.730800	0.565700
C3011	C301	0.456600	0.831800	0.633790
C3021	C302	0.512200	0.804700	0.646200
H3031	H303	0.622970	0.771000	0.595190
H3041	H304	0.620450	0.774930	0.643740
H3051	H305	0.722870	0.401640	0.586970
N3061	N306	0.779500	0.445500	0.526970
C3071	C307	0.777700	0.457900	0.553230
C3081	C308	0.787300	0.571600	0.605440
C3091	C309	0.788500	0.569900	0.632550
C3101	C310	0.782200	0.516200	0.673620
C3111	C311	0.774400	0.450600	0.686840
H3121	H312	0.776080	0.397320	0.676220
C3131	C313	0.764600	0.449500	0.712830
C3141	C314	0.764500	0.512900	0.725870
H3151	H315	0.753660	0.512960	0.746990
C3161	C316	0.777400	0.577300	0.713810
C3171	C317	0.784000	0.578900	0.687560
H3181	H318	0.790970	0.632480	0.677400
C3191	C319	0.776800	0.647200	0.727450
C3201	C320	0.755000	0.380700	0.725250
O3211	O321	0.748300	0.644450	0.749930
O3221	O322	0.804400	0.701400	0.717310
O3231	O323	0.777400	0.325200	0.714760
O3241	O324	0.724100	0.381100	0.746890
H3251	H325	0.899430	0.629000	0.585460
H3261	H326	0.867410	0.411150	0.597870
H3271	H327	0.850930	0.407980	0.645030
N3281	N328	0.863800	0.568000	0.527500
C3291	C329	0.815100	0.507500	0.564200
C3301	C330	0.852900	0.561600	0.553600
C3311	C331	0.896000	0.621400	0.564200
C3321	C332	0.922500	0.654900	0.547200
C3331	C333	0.913700	0.638600	0.524400
C3341	C334	0.805400	0.512700	0.593190
C3351	C335	0.837200	0.456600	0.607670
C3361	C336	0.732200	0.384200	0.522700
C3371	C337	0.707600	0.360200	0.547700
C3381	C338	0.730800	0.401100	0.565700
C3391	C339	0.831800	0.456600	0.633790
C3401	C340	0.804700	0.512200	0.646200
H3411	H341	0.771000	0.622970	0.595190
H3421	H342	0.774930	0.620450	0.643740
H3431	H343	0.277130	0.598360	0.586970
N3441	N344	0.220500	0.554500	0.526970
C3451	C345	0.222300	0.542100	0.553230
C3461	C346	0.212700	0.428400	0.605440
C3471	C347	0.211500	0.430100	0.632550
C3481	C348	0.217800	0.483800	0.673620
C3491	C349	0.225600	0.549400	0.686840
H3501	H350	0.223920	0.602680	0.676220
C3511	C351	0.235400	0.550500	0.712830
C3521	C352	0.235500	0.487100	0.725870
H3531	H353	0.246340	0.487040	0.746990
C3541	C354	0.222600	0.422700	0.713810
C3551	C355	0.216000	0.421100	0.687560
H3561	H356	0.209030	0.367520	0.677400
C3571	C357	0.223200	0.352800	0.727450
C3581	C358	0.245000	0.619300	0.725250
O3591	O359	0.251700	0.355550	0.749930
O3601	O360	0.195600	0.298600	0.717310
O3611	O361	0.222600	0.674800	0.714760
O3621	O362	0.275900	0.618900	0.746890
H3631	H363	0.100570	0.371000	0.585460
H3641	H364	0.132590	0.588850	0.597870
H3651	H365	0.149070	0.592020	0.645030
N3661	N366	0.136200	0.432000	0.527500
C3671	C367	0.184900	0.492500	0.564200
C3681	C368	0.147100	0.438400	0.553600
C3691	C369	0.104000	0.378600	0.564200
C3701	C370	0.077500	0.345100	0.547200
C3711	C371	0.086300	0.361400	0.524400
C3721	C372	0.194600	0.487300	0.593190
C3731	C373	0.162800	0.543400	0.607670
C3741	C374	0.267800	0.615800	0.522700
C3751	C375	0.292400	0.639800	0.547700
C3761	C376	0.269200	0.598900	0.565700
C3771	C377	0.168200	0.543400	0.633790
C3781	C378	0.195300	0.487800	0.646200
H3791	H379	0.229000	0.377030	0.595190
H3801	H380	0.225070	0.379550	0.643740
H3811	H381	0.098360	0.222870	0.086970
N3821	N382	0.054500	0.279500	0.026970
C3831	C383	0.042100	0.277700	0.053230
C3841	C384	0.928400	0.287300	0.105440
C3851	C385	0.930100	0.288500	0.132550
C3861	C386	0.983800	0.282200	0.173620
C3871	C387	0.049400	0.274400	0.186840
H3881	H388	0.102680	0.276080	0.176220
C3891	C389	0.050500	0.264600	0.212830
C3901	C390	0.987100	0.264500	0.225870
H3911	H391	0.987040	0.253660	0.246990
C3921	C392	0.922700	0.277400	0.213810
C3931	C393	0.921100	0.284000	0.187560
H3941	H394	0.867520	0.290970	0.177400
C3951	C395	0.852800	0.276800	0.227450
C3961	C396	0.119300	0.255000	0.225250
O3971	O397	0.855550	0.248300	0.249930
O3981	O398	0.798600	0.304400	0.217310
O3991	O399	0.174800	0.277400	0.214760
O4001	O400	0.118900	0.224100	0.246890
H4011	H401	0.871000	0.399430	0.085460
H4021	H402	0.088850	0.367410	0.097870
H4031	H403	0.092020	0.350930	0.145030
N4041	N404	0.932000	0.363800	0.027500
C4051	C405	0.992500	0.315100	0.064200
C4061	C406	0.938400	0.352900	0.053600
C4071	C407	0.878600	0.396000	0.064200
C4081	C408	0.845100	0.422500	0.047200
C4091	C409	0.861400	0.413700	0.024400
C4101	C410	0.987300	0.305400	0.093190
C4111	C411	0.043400	0.337200	0.107670
C4121	C412	0.115800	0.232200	0.022700
C4131	C413	0.139800	0.207600	0.047700
C4141	C414	0.098900	0.230800	0.065700
C4151	C415	0.043400	0.331800	0.133790
C4161	C416	0.987800	0.304700	0.146200
H4171	H417	0.877030	0.271000	0.095190
H4181	H418	0.879550	0.274930	0.143740
H4191	H419	0.901640	0.777130	0.086970
N4201	N420	0.945500	0.720500	0.026970
C4211	C421	0.957900	0.722300	0.053230
C4221	C422	0.071600	0.712700	0.105440
C4231	C423	0.069900	0.711500	0.132550
C4241	C424	0.016200	0.717800	0.173620
C4251	C425	0.950600	0.725600	0.186840
H4261	H426	0.897320	0.723920	0.176220
C4271	C427	0.949500	0.735400	0.212830
C4281	C428	0.012900	0.735500	0.225870
H4291	H429	0.012960	0.746340	0.246990
C4301	C430	0.077300	0.722600	0.213810
C4311	C431	0.078900	0.716000	0.187560
H4321	H432	0.132480	0.709030	0.177400
C4331	C433	0.147200	0.723200	0.227450
C4341	C434	0.880700	0.745000	0.225250
O4351	O435	0.144450	0.751700	0.249930
O4361	O436	0.201400	0.695600	0.217310
O4371	O437	0.825200	0.722600	0.214760
O4381	O438	0.881100	0.775900	0.246890
H4391	H439	0.129000	0.600570	0.085460
H4401	H440	0.911150	0.632590	0.097870
H4411	H441	0.907980	0.649070	0.145030
N4421	N442	0.068000	0.636200	0.027500
C4431	C443	0.007500	0.684900	0.064200
C4441	C444	0.061600	0.647100	0.053600
C4451	C445	0.121400	0.604000	0.064200
C4461	C446	0.154900	0.577500	0.047200
C4471	C447	0.138600	0.586300	0.024400
C4481	C448	0.012700	0.694600	0.093190
C4491	C449	0.956600	0.662800	0.107670
C4501	C450	0.884200	0.767800	0.022700
C4511	C451	0.860200	0.792400	0.047700
C4521	C452	0.901100	0.769200	0.065700
C4531	C453	0.956600	0.668200	0.133790
C4541	C454	0.012200	0.695300	0.146200
H4551	H455	0.122970	0.729000	0.095190
H4561	H456	0.120450	0.725070	0.143740
H4571	H457	0.777130	0.901640	0.913030
N4581	N458	0.720500	0.945500	0.973030
C4591	C459	0.722300	0.957900	0.946770
C4601	C460	0.712700	0.071600	0.894560
C4611	C461	0.711500	0.069900	0.867450
C4621	C462	0.717800	0.016200	0.826380
C4631	C463	0.725600	0.950600	0.813160
H4641	H464	0.723920	0.897320	0.823780
C4651	C465	0.735400	0.949500	0.787170
C4661	C466	0.735500	0.012900	0.774130
H4671	H467	0.746340	0.012960	0.753010
C4681	C468	0.722600	0.077300	0.786190
C4691	C469	0.716000	0.078900	0.812440
H4701	H470	0.709030	0.132480	0.822600
C4711	C471	0.723200	0.147200	0.772550
C4721	C472	0.745000	0.880700	0.774750
O4731	O473	0.751700	0.144450	0.750070
O4741	O474	0.695600	0.201400	0.782690
O4751	O475	0.722600	0.825200	0.785240
O4761	O476	0.775900	0.881100	0.753110
H4771	H477	0.600570	0.129000	0.914540
H4781	H478	0.632590	0.911150	0.902130
H4791	H479	0.649070	0.907980	0.854970
N4801	N480	0.636200	0.068000	0.972500
C4811	C481	0.684900	0.007500	0.935800
C4821	C482	0.647100	0.061600	0.946400
C4831	C483	0.604000	0.121400	0.935800
C4841	C484	0.577500	0.154900	0.952800
C4851	C485	0.586300	0.138600	0.975600
C4861	C486	0.694600	0.012700	0.906810
C4871	C487	0.662800	0.956600	0.892330
C4881	C488	0.767800	0.884200	0.977300
C4891	C489	0.792400	0.860200	0.952300
C4901	C490	0.769200	0.901100	0.934300
C4911	C491	0.668200	0.956600	0.866210
C4921	C492	0.695300	0.012200	0.853800
H4931	H493	0.729000	0.122970	0.904810
H4941	H494	0.725070	0.120450	0.856260
H4951	H495	0.222870	0.098360	0.913030
N4961	N496	0.279500	0.054500	0.973030
C4971	C497	0.277700	0.042100	0.946770
C4981	C498	0.287300	0.928400	0.894560
C4991	C499	0.288500	0.930100	0.867450
C5001	C500	0.282200	0.983800	0.826380
C5011	C501	0.274400	0.049400	0.813160
H5021	H502	0.276080	0.102680	0.823780
C5031	C503	0.264600	0.050500	0.787170
C5041	C504	0.264500	0.987100	0.774130
H5051	H505	0.253660	0.987040	0.753010
C5061	C506	0.277400	0.922700	0.786190
C5071	C507	0.284000	0.921100	0.812440
H5081	H508	0.290970	0.867520	0.822600
C5091	C509	0.276800	0.852800	0.772550
C5101	C510	0.255000	0.119300	0.774750
O5111	O511	0.248300	0.855550	0.750070
O5121	O512	0.304400	0.798600	0.782690
O5131	O513	0.277400	0.174800	0.785240
O5141	O514	0.224100	0.118900	0.753110
H5151	H515	0.399430	0.871000	0.914540
H5161	H516	0.367410	0.088850	0.902130
H5171	H517	0.350930	0.092020	0.854970
N5181	N518	0.363800	0.932000	0.972500
C5191	C519	0.315100	0.992500	0.935800
C5201	C520	0.352900	0.938400	0.946400
C5211	C521	0.396000	0.878600	0.935800
C5221	C522	0.422500	0.845100	0.952800
C5231	C523	0.413700	0.861400	0.975600
C5241	C524	0.305400	0.987300	0.906810
C5251	C525	0.337200	0.043400	0.892330
C5261	C526	0.232200	0.115800	0.977300
C5271	C527	0.207600	0.139800	0.952300
C5281	C528	0.230800	0.098900	0.934300
C5291	C529	0.331800	0.043400	0.866210
C5301	C530	0.304700	0.987800	0.853800
H5311	H531	0.271000	0.877030	0.904810
H5321	H532	0.274930	0.879550	0.856260
H5331	H533	0.401640	0.722870	0.413030
N5341	N534	0.445500	0.779500	0.473030
C5351	C535	0.457900	0.777700	0.446770
C5361	C536	0.571600	0.787300	0.394560
C5371	C537	0.569900	0.788500	0.367450
C5381	C538	0.516200	0.782200	0.326380
C5391	C539	0.450600	0.774400	0.313160
H5401	H540	0.397320	0.776080	0.323780
C5411	C541	0.449500	0.764600	0.287170
C5421	C542	0.512900	0.764500	0.274130
H5431	H543	0.512960	0.753660	0.253010
C5441	C544	0.577300	0.777400	0.286190
C5451	C545	0.578900	0.784000	0.312440
H5461	H546	0.632480	0.790970	0.322600
C5471	C547	0.647200	0.776800	0.272550
C5481	C548	0.380700	0.755000	0.274750
O5491	O549	0.644450	0.748300	0.250070
O5501	O550	0.701400	0.804400	0.282690
O5511	O551	0.325200	0.777400	0.285240
O5521	O552	0.381100	0.724100	0.253110
H5531	H553	0.629000	0.899430	0.414540
H5541	H554	0.411150	0.867410	0.402130
H5551	H555	0.407980	0.850930	0.354970
N5561	N556	0.568000	0.863800	0.472500
C5571	C557	0.507500	0.815100	0.435800
C5581	C558	0.561600	0.852900	0.446400
C5591	C559	0.621400	0.896000	0.435800
C5601	C560	0.654900	0.922500	0.452800
C5611	C561	0.638600	0.913700	0.475600
C5621	C562	0.512700	0.805400	0.406810
C5631	C563	0.456600	0.837200	0.392330
C5641	C564	0.384200	0.732200	0.477300
C5651	C565	0.360200	0.707600	0.452300
C5661	C566	0.401100	0.730800	0.434300
C5671	C567	0.456600	0.831800	0.366210
C5681	C568	0.512200	0.804700	0.353800
H5691	H569	0.622970	0.771000	0.404810
H5701	H570	0.620450	0.774930	0.356260
H5711	H571	0.598360	0.277130	0.413030
N5721	N572	0.554500	0.220500	0.473030
C5731	C573	0.542100	0.222300	0.446770
C5741	C574	0.428400	0.212700	0.394560
C5751	C575	0.430100	0.211500	0.367450
C5761	C576	0.483800	0.217800	0.326380
C5771	C577	0.549400	0.225600	0.313160
H5781	H578	0.602680	0.223920	0.323780
C5791	C579	0.550500	0.235400	0.287170
C5801	C580	0.487100	0.235500	0.274130
H5811	H581	0.487040	0.246340	0.253010
C5821	C582	0.422700	0.222600	0.286190
C5831	C583	0.421100	0.216000	0.312440
H5841	H584	0.367520	0.209030	0.322600
C5851	C585	0.352800	0.223200	0.272550
C5861	C586	0.619300	0.245000	0.274750
O5871	O587	0.355550	0.251700	0.250070
O5881	O588	0.298600	0.195600	0.282690
O5891	O589	0.674800	0.222600	0.285240
O5901	O590	0.618900	0.275900	0.253110
H5911	H591	0.371000	0.100570	0.414540
H5921	H592	0.588850	0.132590	0.402130
H5931	H593	0.592020	0.149070	0.354970
N5941	N594	0.432000	0.136200	0.472500
C5951	C595	0.492500	0.184900	0.435800
C5961	C596	0.438400	0.147100	0.446400
C5971	C597	0.378600	0.104000	0.435800
C5981	C598	0.345100	0.077500	0.452800
C5991	C599	0.361400	0.086300	0.475600
C6001	C600	0.487300	0.194600	0.406810
C6011	C601	0.543400	0.162800	0.392330
C6021	C602	0.615800	0.267800	0.477300
C6031	C603	0.639800	0.292400	0.452300
C6041	C604	0.598900	0.269200	0.434300
C6051	C605	0.543400	0.168200	0.366210
C6061	C606	0.487800	0.195300	0.353800
H6071	H607	0.377030	0.229000	0.404810
H6081	H608	0.379550	0.225070	0.356260
Cu6091	Cu609	0.270290	0.270290	0.229590
Cu6101	Cu610	0.203780	0.203780	0.267250
Cu6111	Cu611	0.729710	0.729710	0.229590
Cu6121	Cu612	0.796220	0.796220	0.267250
Cu6131	Cu613	0.229710	0.770290	0.729590
Cu6141	Cu614	0.296220	0.703780	0.767250
Cu6151	Cu615	0.770290	0.229710	0.729590
Cu6161	Cu616	0.703780	0.296220	0.767250
Cu6171	Cu617	0.229710	0.770290	0.270410
Cu6181	Cu618	0.296220	0.703780	0.232750
Cu6191	Cu619	0.770290	0.229710	0.270410
Cu6201	Cu620	0.703780	0.296220	0.232750
Cu6211	Cu621	0.270290	0.270290	0.770410
Cu6221	Cu622	0.203780	0.203780	0.732750
Cu6231	Cu623	0.729710	0.729710	0.770410
Cu6241	Cu624	0.796220	0.796220	0.732750
Zn6251	Zn625	0.171360	0.502130	0.500000
C6261	C626	0.071100	0.346600	0.500000
C6271	C627	0.288800	0.643800	0.500000
Zn6281	Zn628	0.828640	0.497870	0.500000
C6291	C629	0.928900	0.653400	0.500000
C6301	C630	0.711200	0.356200	0.500000
Zn6311	Zn631	0.997870	0.671360	0.000000
C6321	C632	0.153400	0.571100	0.000000
C6331	C633	0.856200	0.788800	0.000000
Zn6341	Zn634	0.002130	0.328640	0.000000
C6351	C635	0.846600	0.428900	0.000000
C6361	C636	0.143800	0.211200	0.000000
Zn6371	Zn637	0.328640	0.002130	0.000000
C6381	C638	0.428900	0.846600	0.000000
C6391	C639	0.211200	0.143800	0.000000
Zn6401	Zn640	0.671360	0.997870	0.000000
C6411	C641	0.571100	0.153400	0.000000
C6421	C642	0.788800	0.856200	0.000000
Zn6431	Zn643	0.502130	0.171360	0.500000
C6441	C644	0.346600	0.071100	0.500000
C6451	C645	0.643800	0.288800	0.500000
Zn6461	Zn646	0.497870	0.828640	0.500000
C6471	C647	0.653400	0.928900	0.500000
C6481	C648	0.356200	0.711200	0.500000
