data_REWNEO01_clean_PM
_symmetry_space_group_name_H-M	'P1'
_cell_length_a	30.799100
_cell_length_b	30.799100
_cell_length_c	31.245600
_cell_angle_alpha	119.528000
_cell_angle_beta	119.528000
_cell_angle_gamma	90.000100
_symmetry_Int_Tables_number 1

loop_
_symmetry_equiv_pos_as_xyz
'x,y,z'

loop_
_atom_site_label
_atom_site_type_symbol
_atom_site_fract_x
_atom_site_fract_y
_atom_site_fract_z
Cu11	Cu1	0.470920	0.522340	0.743540
Cu21	Cu2	0.464680	0.533120	0.661340
Cu31	Cu3	0.272620	0.221200	0.743540
Cu41	Cu4	0.196670	0.128220	0.661350
Cu51	Cu5	0.522340	0.272620	0.743550
Cu61	Cu6	0.533120	0.196670	0.661340
Cu71	Cu7	0.221200	0.470920	0.743530
Cu81	Cu8	0.128220	0.464680	0.661340
Cu91	Cu9	0.529080	0.477660	0.256460
Cu101	Cu10	0.535320	0.466880	0.338660
Cu111	Cu11	0.727380	0.778800	0.256460
Cu121	Cu12	0.803330	0.871780	0.338650
Cu131	Cu13	0.477660	0.727380	0.256450
Cu141	Cu14	0.466880	0.803330	0.338650
Cu151	Cu15	0.778800	0.529080	0.256470
Cu161	Cu16	0.871780	0.535320	0.338650
Cu171	Cu17	0.749410	0.548810	0.000000
Cu181	Cu18	0.834460	0.564870	0.000000
Cu191	Cu19	0.250590	0.451190	0.000000
Cu201	Cu20	0.165540	0.435130	0.000000
Cu211	Cu21	0.548810	0.250590	0.000000
Cu221	Cu22	0.564870	0.165540	0.000000
Cu231	Cu23	0.451190	0.749410	0.000000
Cu241	Cu24	0.435130	0.834460	0.000000
H11	H1	0.769000	0.589600	0.863200
H21	H2	0.628700	0.573000	0.728600
H31	H3	0.636600	0.563800	0.857400
H41	H4	0.790500	0.558100	0.793600
H51	H5	0.865600	0.562000	0.790400
H61	H6	0.915200	0.536300	0.684000
H71	H7	0.783700	0.580100	0.652800
H81	H8	0.982200	0.511700	0.736200
H91	H9	0.054400	0.493500	0.753800
H101	H10	0.179200	0.461700	0.851600
H111	H11	0.064200	0.480200	0.881200
H121	H12	0.762000	0.549700	0.556600
H131	H13	0.704300	0.517700	0.457400
H141	H14	0.690800	0.517000	0.321200
H151	H15	0.834200	0.545500	0.458600
H161	H16	0.094200	0.273600	0.863200
H171	H17	0.099900	0.155600	0.728600
H181	H18	0.220800	0.293600	0.857400
H191	H19	0.003100	0.235500	0.793600
H201	H20	0.924800	0.228400	0.790400
H211	H21	0.768800	0.147700	0.684000
H221	H22	0.869100	0.072700	0.652800
H231	H23	0.754000	0.224500	0.736200
H241	H24	0.699400	0.260300	0.753800
H251	H25	0.672400	0.389900	0.851600
H261	H26	0.817000	0.401000	0.881200
H271	H27	0.794600	0.006900	0.556600
H281	H28	0.753100	0.939700	0.457400
H291	H29	0.630400	0.804200	0.321200
H301	H30	0.624400	0.913100	0.458600
H311	H31	0.589600	0.094200	0.863200
H321	H32	0.573000	0.099900	0.728600
H331	H33	0.563800	0.220800	0.857400
H341	H34	0.558100	0.003100	0.793600
H351	H35	0.562000	0.924800	0.790400
H361	H36	0.536300	0.768800	0.684000
H371	H37	0.580100	0.869100	0.652800
H381	H38	0.511700	0.754000	0.736200
H391	H39	0.493500	0.699400	0.753800
H401	H40	0.461700	0.672400	0.851600
H411	H41	0.480200	0.817000	0.881200
H421	H42	0.549700	0.794600	0.556600
H431	H43	0.517700	0.753100	0.457400
H441	H44	0.517000	0.630400	0.321200
H451	H45	0.545500	0.624400	0.458600
H461	H46	0.273600	0.769000	0.863200
H471	H47	0.155600	0.628700	0.728600
H481	H48	0.293600	0.636600	0.857400
H491	H49	0.235500	0.790500	0.793600
H501	H50	0.228400	0.865600	0.790400
H511	H51	0.147700	0.915200	0.684000
H521	H52	0.072700	0.783700	0.652800
H531	H53	0.224500	0.982200	0.736200
H541	H54	0.260300	0.054400	0.753800
H551	H55	0.389900	0.179200	0.851600
H561	H56	0.401000	0.064200	0.881200
H571	H57	0.006900	0.762000	0.556600
H581	H58	0.939700	0.704300	0.457400
H591	H59	0.804200	0.690800	0.321200
H601	H60	0.913100	0.834200	0.458600
H611	H61	0.231000	0.410400	0.136800
H621	H62	0.371300	0.427000	0.271400
H631	H63	0.363400	0.436200	0.142600
H641	H64	0.209500	0.441900	0.206400
H651	H65	0.134400	0.438000	0.209600
H661	H66	0.084800	0.463700	0.316000
H671	H67	0.216300	0.419900	0.347200
H681	H68	0.017800	0.488300	0.263800
H691	H69	0.945600	0.506500	0.246200
H701	H70	0.820800	0.538300	0.148400
H711	H71	0.935800	0.519800	0.118800
H721	H72	0.238000	0.450300	0.443400
H731	H73	0.295700	0.482300	0.542600
H741	H74	0.309200	0.483000	0.678800
H751	H75	0.165800	0.454500	0.541400
H761	H76	0.905800	0.726400	0.136800
H771	H77	0.900100	0.844400	0.271400
H781	H78	0.779200	0.706400	0.142600
H791	H79	0.996900	0.764500	0.206400
H801	H80	0.075200	0.771600	0.209600
H811	H81	0.231200	0.852300	0.316000
H821	H82	0.130900	0.927300	0.347200
H831	H83	0.246000	0.775500	0.263800
H841	H84	0.300600	0.739700	0.246200
H851	H85	0.327600	0.610100	0.148400
H861	H86	0.183000	0.599000	0.118800
H871	H87	0.205400	0.993100	0.443400
H881	H88	0.246900	0.060300	0.542600
H891	H89	0.369600	0.195800	0.678800
H901	H90	0.375600	0.086900	0.541400
H911	H91	0.410400	0.905800	0.136800
H921	H92	0.427000	0.900100	0.271400
H931	H93	0.436200	0.779200	0.142600
H941	H94	0.441900	0.996900	0.206400
H951	H95	0.438000	0.075200	0.209600
H961	H96	0.463700	0.231200	0.316000
H971	H97	0.419900	0.130900	0.347200
H981	H98	0.488300	0.246000	0.263800
H991	H99	0.506500	0.300600	0.246200
H1001	H100	0.538300	0.327600	0.148400
H1011	H101	0.519800	0.183000	0.118800
H1021	H102	0.450300	0.205400	0.443400
H1031	H103	0.482300	0.246900	0.542600
H1041	H104	0.483000	0.369600	0.678800
H1051	H105	0.454500	0.375600	0.541400
H1061	H106	0.726400	0.231000	0.136800
H1071	H107	0.844400	0.371300	0.271400
H1081	H108	0.706400	0.363400	0.142600
H1091	H109	0.764500	0.209500	0.206400
H1101	H110	0.771600	0.134400	0.209600
H1111	H111	0.852300	0.084800	0.316000
H1121	H112	0.927300	0.216300	0.347200
H1131	H113	0.775500	0.017800	0.263800
H1141	H114	0.739700	0.945600	0.246200
H1151	H115	0.610100	0.820800	0.148400
H1161	H116	0.599000	0.935800	0.118800
H1171	H117	0.993100	0.238000	0.443400
H1181	H118	0.060300	0.295700	0.542600
H1191	H119	0.195800	0.309200	0.678800
H1201	H120	0.086900	0.165800	0.541400
C11	C1	0.706860	0.574980	0.866980
C21	C2	0.732040	0.582890	0.843880
C31	C3	0.701430	0.580820	0.790780
C41	C4	0.648720	0.573790	0.764020
C51	C5	0.624920	0.567820	0.789680
C61	C6	0.653460	0.568190	0.840580
C71	C7	0.566370	0.555560	0.758420
C81	C8	0.738720	0.570350	0.919040
C91	C9	0.769900	0.570800	0.770540
C101	C10	0.777430	0.579170	0.735940
C111	C11	0.817890	0.569650	0.721900
C121	C12	0.860320	0.558900	0.756200
C131	C13	0.895850	0.542840	0.738880
C141	C14	0.889450	0.543250	0.692700
C151	C15	0.846930	0.553560	0.657920
C161	C16	0.811130	0.569750	0.673700
C171	C17	0.939410	0.530310	0.772420
C181	C18	0.977030	0.514390	0.764840
C191	C19	0.052560	0.487420	0.815400
C201	C20	0.072360	0.486580	0.783540
C211	C21	0.119370	0.475250	0.796640
C221	C22	0.146310	0.467710	0.841680
C231	C23	0.125400	0.468820	0.872460
C241	C24	0.078300	0.479020	0.859720
C251	C25	0.139090	0.471710	0.761080
C261	C26	0.155370	0.460380	0.921280
C271	C27	0.838890	0.550690	0.606980
C281	C28	0.794460	0.547790	0.560740
C291	C29	0.773630	0.532780	0.466200
C301	C30	0.719880	0.521540	0.439220
C311	C31	0.689590	0.516070	0.385940
C321	C32	0.712220	0.520650	0.358240
C331	C33	0.765030	0.530370	0.384820
C341	C34	0.797130	0.537540	0.439620
C351	C35	0.630660	0.501620	0.354080
C361	C36	0.788120	0.532860	0.353520
C371	C37	0.160120	0.292000	0.866980
C381	C38	0.111840	0.260990	0.843880
C391	C39	0.089350	0.209960	0.790780
C401	C40	0.115300	0.190230	0.764020
C411	C41	0.164760	0.221860	0.789680
C421	C42	0.187120	0.272390	0.840580
C431	C43	0.192050	0.202860	0.758420
C441	C44	0.180320	0.348690	0.919040
C451	C45	0.000640	0.199740	0.770540
C461	C46	0.958510	0.156770	0.735940
C471	C47	0.904010	0.152250	0.721900
C481	C48	0.895880	0.197300	0.756200
C491	C49	0.843030	0.196040	0.738880
C501	C50	0.803250	0.149450	0.692700
C511	C51	0.810990	0.104360	0.657920
C521	C52	0.862570	0.103950	0.673700
C531	C53	0.833010	0.242110	0.772420
C541	C54	0.787810	0.250450	0.764840
C551	C55	0.762840	0.327980	0.815400
C561	C56	0.711180	0.296960	0.783540
C571	C57	0.677270	0.321390	0.796640
C581	C58	0.695370	0.373970	0.841680
C591	C59	0.747060	0.403640	0.872460
C601	C60	0.781420	0.380700	0.859720
C611	C61	0.621990	0.289370	0.761080
C621	C62	0.765910	0.460900	0.921280
C631	C63	0.768090	0.056290	0.606980
C641	C64	0.766280	0.012950	0.560740
C651	C65	0.692570	0.933420	0.466200
C661	C66	0.719340	0.917680	0.439220
C671	C67	0.696350	0.869870	0.385940
C681	C68	0.646020	0.837590	0.358240
C691	C69	0.619790	0.854450	0.384820
C701	C70	0.642490	0.902080	0.439620
C711	C71	0.723420	0.852460	0.354080
C721	C72	0.565400	0.820660	0.353520
C731	C73	0.574980	0.160120	0.866980
C741	C74	0.582890	0.111840	0.843880
C751	C75	0.580820	0.089350	0.790780
C761	C76	0.573790	0.115300	0.764020
C771	C77	0.567820	0.164760	0.789680
C781	C78	0.568190	0.187120	0.840580
C791	C79	0.555560	0.192050	0.758420
C801	C80	0.570350	0.180320	0.919040
C811	C81	0.570800	0.000640	0.770540
C821	C82	0.579170	0.958510	0.735940
C831	C83	0.569650	0.904010	0.721900
C841	C84	0.558900	0.895880	0.756200
C851	C85	0.542840	0.843030	0.738880
C861	C86	0.543250	0.803250	0.692700
C871	C87	0.553560	0.810990	0.657920
C881	C88	0.569750	0.862570	0.673700
C891	C89	0.530310	0.833010	0.772420
C901	C90	0.514390	0.787810	0.764840
C911	C91	0.487420	0.762840	0.815400
C921	C92	0.486580	0.711180	0.783540
C931	C93	0.475250	0.677270	0.796640
C941	C94	0.467710	0.695370	0.841680
C951	C95	0.468820	0.747060	0.872460
C961	C96	0.479020	0.781420	0.859720
C971	C97	0.471710	0.621990	0.761080
C981	C98	0.460380	0.765910	0.921280
C991	C99	0.550690	0.768090	0.606980
C1001	C100	0.547790	0.766280	0.560740
C1011	C101	0.532780	0.692570	0.466200
C1021	C102	0.521540	0.719340	0.439220
C1031	C103	0.516070	0.696350	0.385940
C1041	C104	0.520650	0.646020	0.358240
C1051	C105	0.530370	0.619790	0.384820
C1061	C106	0.537540	0.642490	0.439620
C1071	C107	0.501620	0.723420	0.354080
C1081	C108	0.532860	0.565400	0.353520
C1091	C109	0.292000	0.706860	0.866980
C1101	C110	0.260990	0.732040	0.843880
C1111	C111	0.209960	0.701430	0.790780
C1121	C112	0.190230	0.648720	0.764020
C1131	C113	0.221860	0.624920	0.789680
C1141	C114	0.272390	0.653460	0.840580
C1151	C115	0.202860	0.566370	0.758420
C1161	C116	0.348690	0.738720	0.919040
C1171	C117	0.199740	0.769900	0.770540
C1181	C118	0.156770	0.777430	0.735940
C1191	C119	0.152250	0.817890	0.721900
C1201	C120	0.197300	0.860320	0.756200
C1211	C121	0.196040	0.895850	0.738880
C1221	C122	0.149450	0.889450	0.692700
C1231	C123	0.104360	0.846930	0.657920
C1241	C124	0.103950	0.811130	0.673700
C1251	C125	0.242110	0.939410	0.772420
C1261	C126	0.250450	0.977030	0.764840
C1271	C127	0.327980	0.052560	0.815400
C1281	C128	0.296960	0.072360	0.783540
C1291	C129	0.321390	0.119370	0.796640
C1301	C130	0.373970	0.146310	0.841680
C1311	C131	0.403640	0.125400	0.872460
C1321	C132	0.380700	0.078300	0.859720
C1331	C133	0.289370	0.139090	0.761080
C1341	C134	0.460900	0.155370	0.921280
C1351	C135	0.056290	0.838890	0.606980
C1361	C136	0.012950	0.794460	0.560740
C1371	C137	0.933420	0.773630	0.466200
C1381	C138	0.917680	0.719880	0.439220
C1391	C139	0.869870	0.689590	0.385940
C1401	C140	0.837590	0.712220	0.358240
C1411	C141	0.854450	0.765030	0.384820
C1421	C142	0.902080	0.797130	0.439620
C1431	C143	0.852460	0.630660	0.354080
C1441	C144	0.820660	0.788120	0.353520
C1451	C145	0.293140	0.425020	0.133020
C1461	C146	0.267960	0.417110	0.156120
C1471	C147	0.298570	0.419180	0.209220
C1481	C148	0.351280	0.426210	0.235980
C1491	C149	0.375080	0.432180	0.210320
C1501	C150	0.346540	0.431810	0.159420
C1511	C151	0.433630	0.444440	0.241580
C1521	C152	0.261280	0.429650	0.080960
C1531	C153	0.230100	0.429200	0.229460
C1541	C154	0.222570	0.420830	0.264060
C1551	C155	0.182110	0.430350	0.278100
C1561	C156	0.139680	0.441100	0.243800
C1571	C157	0.104150	0.457160	0.261120
C1581	C158	0.110550	0.456750	0.307300
C1591	C159	0.153070	0.446440	0.342080
C1601	C160	0.188870	0.430250	0.326300
C1611	C161	0.060590	0.469690	0.227580
C1621	C162	0.022970	0.485610	0.235160
C1631	C163	0.947440	0.512580	0.184600
C1641	C164	0.927640	0.513420	0.216460
C1651	C165	0.880630	0.524750	0.203360
C1661	C166	0.853690	0.532290	0.158320
C1671	C167	0.874600	0.531180	0.127540
C1681	C168	0.921700	0.520980	0.140280
C1691	C169	0.860910	0.528290	0.238920
C1701	C170	0.844630	0.539620	0.078720
C1711	C171	0.161110	0.449310	0.393020
C1721	C172	0.205540	0.452210	0.439260
C1731	C173	0.226370	0.467220	0.533800
C1741	C174	0.280120	0.478460	0.560780
C1751	C175	0.310410	0.483930	0.614060
C1761	C176	0.287780	0.479350	0.641760
C1771	C177	0.234970	0.469630	0.615180
C1781	C178	0.202870	0.462460	0.560380
C1791	C179	0.369340	0.498380	0.645920
C1801	C180	0.211880	0.467140	0.646480
C1811	C181	0.839880	0.708000	0.133020
C1821	C182	0.888160	0.739010	0.156120
C1831	C183	0.910650	0.790040	0.209220
C1841	C184	0.884700	0.809770	0.235980
C1851	C185	0.835240	0.778140	0.210320
C1861	C186	0.812880	0.727610	0.159420
C1871	C187	0.807950	0.797140	0.241580
C1881	C188	0.819680	0.651310	0.080960
C1891	C189	0.999360	0.800260	0.229460
C1901	C190	0.041490	0.843230	0.264060
C1911	C191	0.095990	0.847750	0.278100
C1921	C192	0.104120	0.802700	0.243800
C1931	C193	0.156970	0.803960	0.261120
C1941	C194	0.196750	0.850550	0.307300
C1951	C195	0.189010	0.895640	0.342080
C1961	C196	0.137430	0.896050	0.326300
C1971	C197	0.166990	0.757890	0.227580
C1981	C198	0.212190	0.749550	0.235160
C1991	C199	0.237160	0.672020	0.184600
C2001	C200	0.288820	0.703040	0.216460
C2011	C201	0.322730	0.678610	0.203360
C2021	C202	0.304630	0.626030	0.158320
C2031	C203	0.252940	0.596360	0.127540
C2041	C204	0.218580	0.619300	0.140280
C2051	C205	0.378010	0.710630	0.238920
C2061	C206	0.234090	0.539100	0.078720
C2071	C207	0.231910	0.943710	0.393020
C2081	C208	0.233720	0.987050	0.439260
C2091	C209	0.307430	0.066580	0.533800
C2101	C210	0.280660	0.082320	0.560780
C2111	C211	0.303650	0.130130	0.614060
C2121	C212	0.353980	0.162410	0.641760
C2131	C213	0.380210	0.145550	0.615180
C2141	C214	0.357510	0.097920	0.560380
C2151	C215	0.276580	0.147540	0.645920
C2161	C216	0.434600	0.179340	0.646480
C2171	C217	0.425020	0.839880	0.133020
C2181	C218	0.417110	0.888160	0.156120
C2191	C219	0.419180	0.910650	0.209220
C2201	C220	0.426210	0.884700	0.235980
C2211	C221	0.432180	0.835240	0.210320
C2221	C222	0.431810	0.812880	0.159420
C2231	C223	0.444440	0.807950	0.241580
C2241	C224	0.429650	0.819680	0.080960
C2251	C225	0.429200	0.999360	0.229460
C2261	C226	0.420830	0.041490	0.264060
C2271	C227	0.430350	0.095990	0.278100
C2281	C228	0.441100	0.104120	0.243800
C2291	C229	0.457160	0.156970	0.261120
C2301	C230	0.456750	0.196750	0.307300
C2311	C231	0.446440	0.189010	0.342080
C2321	C232	0.430250	0.137430	0.326300
C2331	C233	0.469690	0.166990	0.227580
C2341	C234	0.485610	0.212190	0.235160
C2351	C235	0.512580	0.237160	0.184600
C2361	C236	0.513420	0.288820	0.216460
C2371	C237	0.524750	0.322730	0.203360
C2381	C238	0.532290	0.304630	0.158320
C2391	C239	0.531180	0.252940	0.127540
C2401	C240	0.520980	0.218580	0.140280
C2411	C241	0.528290	0.378010	0.238920
C2421	C242	0.539620	0.234090	0.078720
C2431	C243	0.449310	0.231910	0.393020
C2441	C244	0.452210	0.233720	0.439260
C2451	C245	0.467220	0.307430	0.533800
C2461	C246	0.478460	0.280660	0.560780
C2471	C247	0.483930	0.303650	0.614060
C2481	C248	0.479350	0.353980	0.641760
C2491	C249	0.469630	0.380210	0.615180
C2501	C250	0.462460	0.357510	0.560380
C2511	C251	0.498380	0.276580	0.645920
C2521	C252	0.467140	0.434600	0.646480
C2531	C253	0.708000	0.293140	0.133020
C2541	C254	0.739010	0.267960	0.156120
C2551	C255	0.790040	0.298570	0.209220
C2561	C256	0.809770	0.351280	0.235980
C2571	C257	0.778140	0.375080	0.210320
C2581	C258	0.727610	0.346540	0.159420
C2591	C259	0.797140	0.433630	0.241580
C2601	C260	0.651310	0.261280	0.080960
C2611	C261	0.800260	0.230100	0.229460
C2621	C262	0.843230	0.222570	0.264060
C2631	C263	0.847750	0.182110	0.278100
C2641	C264	0.802700	0.139680	0.243800
C2651	C265	0.803960	0.104150	0.261120
C2661	C266	0.850550	0.110550	0.307300
C2671	C267	0.895640	0.153070	0.342080
C2681	C268	0.896050	0.188870	0.326300
C2691	C269	0.757890	0.060590	0.227580
C2701	C270	0.749550	0.022970	0.235160
C2711	C271	0.672020	0.947440	0.184600
C2721	C272	0.703040	0.927640	0.216460
C2731	C273	0.678610	0.880630	0.203360
C2741	C274	0.626030	0.853690	0.158320
C2751	C275	0.596360	0.874600	0.127540
C2761	C276	0.619300	0.921700	0.140280
C2771	C277	0.710630	0.860910	0.238920
C2781	C278	0.539100	0.844630	0.078720
C2791	C279	0.943710	0.161110	0.393020
C2801	C280	0.987050	0.205540	0.439260
C2811	C281	0.066580	0.226370	0.533800
C2821	C282	0.082320	0.280120	0.560780
C2831	C283	0.130130	0.310410	0.614060
C2841	C284	0.162410	0.287780	0.641760
C2851	C285	0.145550	0.234970	0.615180
C2861	C286	0.097920	0.202870	0.560380
C2871	C287	0.147540	0.369340	0.645920
C2881	C288	0.179340	0.211880	0.646480
N11	N1	0.726940	0.584190	0.765300
N21	N2	0.708420	0.603050	0.730340
N31	N3	0.739850	0.599720	0.711900
N41	N4	0.947210	0.528970	0.818940
N51	N5	0.986060	0.508000	0.835000
N61	N6	0.005420	0.503320	0.803500
N71	N7	0.859260	0.546460	0.546920
N81	N8	0.806650	0.541810	0.522940
N91	N9	0.878390	0.549340	0.597680
N101	N10	0.038360	0.181110	0.765300
N111	N11	0.021920	0.127290	0.730340
N121	N12	0.972050	0.112180	0.711900
N131	N13	0.871730	0.289970	0.818940
N141	N14	0.848940	0.327000	0.835000
N151	N15	0.798080	0.300180	0.803500
N161	N16	0.687660	0.000460	0.546920
N171	N17	0.716290	0.981130	0.522940
N181	N18	0.719290	0.048340	0.597680
N191	N19	0.584190	0.038360	0.765300
N201	N20	0.603050	0.021920	0.730340
N211	N21	0.599720	0.972050	0.711900
N221	N22	0.528970	0.871730	0.818940
N231	N23	0.508000	0.848940	0.835000
N241	N24	0.503320	0.798080	0.803500
N251	N25	0.546460	0.687660	0.546920
N261	N26	0.541810	0.716290	0.522940
N271	N27	0.549340	0.719290	0.597680
N281	N28	0.181110	0.726940	0.765300
N291	N29	0.127290	0.708420	0.730340
N301	N30	0.112180	0.739850	0.711900
N311	N31	0.289970	0.947210	0.818940
N321	N32	0.327000	0.986060	0.835000
N331	N33	0.300180	0.005420	0.803500
N341	N34	0.000460	0.859260	0.546920
N351	N35	0.981130	0.806650	0.522940
N361	N36	0.048340	0.878390	0.597680
N371	N37	0.273060	0.415810	0.234700
N381	N38	0.291580	0.396950	0.269660
N391	N39	0.260150	0.400280	0.288100
N401	N40	0.052790	0.471030	0.181060
N411	N41	0.013940	0.492000	0.165000
N421	N42	0.994580	0.496680	0.196500
N431	N43	0.140740	0.453540	0.453080
N441	N44	0.193350	0.458190	0.477060
N451	N45	0.121610	0.450660	0.402320
N461	N46	0.961640	0.818890	0.234700
N471	N47	0.978080	0.872710	0.269660
N481	N48	0.027950	0.887820	0.288100
N491	N49	0.128270	0.710030	0.181060
N501	N50	0.151060	0.673000	0.165000
N511	N51	0.201920	0.699820	0.196500
N521	N52	0.312340	0.999540	0.453080
N531	N53	0.283710	0.018870	0.477060
N541	N54	0.280710	0.951660	0.402320
N551	N55	0.415810	0.961640	0.234700
N561	N56	0.396950	0.978080	0.269660
N571	N57	0.400280	0.027950	0.288100
N581	N58	0.471030	0.128270	0.181060
N591	N59	0.492000	0.151060	0.165000
N601	N60	0.496680	0.201920	0.196500
N611	N61	0.453540	0.312340	0.453080
N621	N62	0.458190	0.283710	0.477060
N631	N63	0.450660	0.280710	0.402320
N641	N64	0.818890	0.273060	0.234700
N651	N65	0.872710	0.291580	0.269660
N661	N66	0.887820	0.260150	0.288100
N671	N67	0.710030	0.052790	0.181060
N681	N68	0.673000	0.013940	0.165000
N691	N69	0.699820	0.994580	0.196500
N701	N70	0.999540	0.140740	0.453080
N711	N71	0.018870	0.193350	0.477060
N721	N72	0.951660	0.121610	0.402320
O11	O1	0.547310	0.550810	0.783640
O21	O2	0.541100	0.550900	0.709300
O31	O3	0.714280	0.563080	0.938640
O41	O4	0.786300	0.575190	0.938440
O51	O5	0.130760	0.450350	0.939440
O61	O6	0.202010	0.461480	0.937980
O71	O7	0.184970	0.467960	0.779120
O81	O8	0.109960	0.472430	0.716340
O91	O9	0.837510	0.540640	0.379040
O101	O10	0.757070	0.527530	0.305340
O111	O11	0.610990	0.486990	0.373620
O121	O12	0.605880	0.503930	0.309740
O131	O13	0.236330	0.232830	0.783640
O141	O14	0.168200	0.158400	0.709300
O151	O15	0.224360	0.375560	0.938640
O161	O16	0.152140	0.363250	0.938440
O171	O17	0.808680	0.489090	0.939440
O181	O18	0.735970	0.476500	0.937980
O191	O19	0.594150	0.311160	0.779120
O201	O20	0.606380	0.243910	0.716340
O211	O21	0.541530	0.838400	0.379040
O221	O22	0.548270	0.777810	0.305340
O231	O23	0.762630	0.886630	0.373620
O241	O24	0.703860	0.805810	0.309740
O251	O25	0.550810	0.236330	0.783640
O261	O26	0.550900	0.168200	0.709300
O271	O27	0.563080	0.224360	0.938640
O281	O28	0.575190	0.152140	0.938440
O291	O29	0.450350	0.808680	0.939440
O301	O30	0.461480	0.735970	0.937980
O311	O31	0.467960	0.594150	0.779120
O321	O32	0.472430	0.606380	0.716340
O331	O33	0.540640	0.541530	0.379040
O341	O34	0.527530	0.548270	0.305340
O351	O35	0.486990	0.762630	0.373620
O361	O36	0.503930	0.703860	0.309740
O371	O37	0.232830	0.547310	0.783640
O381	O38	0.158400	0.541100	0.709300
O391	O39	0.375560	0.714280	0.938640
O401	O40	0.363250	0.786300	0.938440
O411	O41	0.489090	0.130760	0.939440
O421	O42	0.476500	0.202010	0.937980
O431	O43	0.311160	0.184970	0.779120
O441	O44	0.243910	0.109960	0.716340
O451	O45	0.838400	0.837510	0.379040
O461	O46	0.777810	0.757070	0.305340
O471	O47	0.886630	0.610990	0.373620
O481	O48	0.805810	0.605880	0.309740
O491	O49	0.452690	0.449190	0.216360
O501	O50	0.458900	0.449100	0.290700
O511	O51	0.285720	0.436920	0.061360
O521	O52	0.213700	0.424810	0.061560
O531	O53	0.869240	0.549650	0.060560
O541	O54	0.797990	0.538520	0.062020
O551	O55	0.815030	0.532040	0.220880
O561	O56	0.890040	0.527570	0.283660
O571	O57	0.162490	0.459360	0.620960
O581	O58	0.242930	0.472470	0.694660
O591	O59	0.389010	0.513010	0.626380
O601	O60	0.394120	0.496070	0.690260
O611	O61	0.763670	0.767170	0.216360
O621	O62	0.831800	0.841600	0.290700
O631	O63	0.775640	0.624440	0.061360
O641	O64	0.847860	0.636750	0.061560
O651	O65	0.191320	0.510910	0.060560
O661	O66	0.264030	0.523500	0.062020
O671	O67	0.405850	0.688840	0.220880
O681	O68	0.393620	0.756090	0.283660
O691	O69	0.458470	0.161600	0.620960
O701	O70	0.451730	0.222190	0.694660
O711	O71	0.237370	0.113370	0.626380
O721	O72	0.296140	0.194190	0.690260
O731	O73	0.449190	0.763670	0.216360
O741	O74	0.449100	0.831800	0.290700
O751	O75	0.436920	0.775640	0.061360
O761	O76	0.424810	0.847860	0.061560
O771	O77	0.549650	0.191320	0.060560
O781	O78	0.538520	0.264030	0.062020
O791	O79	0.532040	0.405850	0.220880
O801	O80	0.527570	0.393620	0.283660
O811	O81	0.459360	0.458470	0.620960
O821	O82	0.472470	0.451730	0.694660
O831	O83	0.513010	0.237370	0.626380
O841	O84	0.496070	0.296140	0.690260
O851	O85	0.767170	0.452690	0.216360
O861	O86	0.841600	0.458900	0.290700
O871	O87	0.624440	0.285720	0.061360
O881	O88	0.636750	0.213700	0.061560
O891	O89	0.510910	0.869240	0.060560
O901	O90	0.523500	0.797990	0.062020
O911	O91	0.688840	0.815030	0.220880
O921	O92	0.756090	0.890040	0.283660
O931	O93	0.161600	0.162490	0.620960
O941	O94	0.222190	0.242930	0.694660
O951	O95	0.113370	0.389010	0.626380
O961	O96	0.194190	0.394120	0.690260
