data_REWSUJ_clean_PM
_symmetry_space_group_name_H-M	'P1'
_cell_length_a	12.374300
_cell_length_b	14.584200
_cell_length_c	21.943500
_cell_angle_alpha	90.000000
_cell_angle_beta	104.821000
_cell_angle_gamma	90.000000
_symmetry_Int_Tables_number 1

loop_
_symmetry_equiv_pos_as_xyz
'x,y,z'

loop_
_atom_site_label
_atom_site_type_symbol
_atom_site_fract_x
_atom_site_fract_y
_atom_site_fract_z
Dy11	Dy1	0.066490	0.385940	0.396470
O11	O1	0.236200	0.476420	0.444230
O21	O2	0.236400	0.400640	0.358030
O31	O3	0.809900	0.262790	0.047300
O41	O4	0.988400	0.231040	0.082950
O51	O5	0.027700	0.296980	0.302780
O61	O6	0.020400	0.479910	0.302840
O71	O7	0.042200	0.385790	0.500400
O81	O8	0.994300	0.467040	0.575850
N11	N1	0.719400	0.643700	0.332390
N21	N2	0.791900	0.778300	0.040630
C11	C1	0.282200	0.457200	0.399750
C21	C2	0.390100	0.501800	0.398460
C31	C3	0.443700	0.479000	0.351880
H11	H1	0.410600	0.434900	0.320900
C41	C4	0.543000	0.518900	0.349800
H21	H2	0.577800	0.501900	0.317600
C51	C5	0.593100	0.583900	0.394200
C61	C6	0.539100	0.609500	0.439400
H31	H3	0.570500	0.655800	0.469100
C71	C7	0.439400	0.568200	0.441660
H41	H4	0.404100	0.585900	0.473600
C81	C8	0.707200	0.621200	0.396600
H51	H5	0.720300	0.677200	0.423000
H61	H6	0.764400	0.575300	0.416400
C91	C9	0.792800	0.598700	0.307970
H71	H7	0.838700	0.552700	0.332200
C101	C10	0.802700	0.617900	0.249500
H81	H8	0.852500	0.582700	0.232400
C111	C11	0.742900	0.686300	0.214540
C121	C12	0.669700	0.735900	0.241800
H91	H9	0.627200	0.785300	0.219600
C131	C13	0.660100	0.712300	0.300900
H101	H10	0.610500	0.745600	0.319300
C141	C14	0.757200	0.714600	0.151930
C151	C15	0.850300	0.686900	0.131640
H111	H11	0.902200	0.644700	0.156100
C161	C16	0.866700	0.720800	0.076340
H121	H12	0.931300	0.703500	0.063300
C171	C17	0.697900	0.801500	0.057110
H131	H13	0.644400	0.839800	0.030000
C181	C18	0.678500	0.771600	0.111280
H141	H14	0.611800	0.788900	0.122200
C191	C19	0.815200	0.823400	0.985180
H151	H15	0.750600	0.816400	0.948100
H161	H16	0.881500	0.795300	0.975300
C201	C20	0.836900	0.925300	0.000960
C211	C21	0.925900	0.951300	0.049740
H171	H17	0.976500	0.906000	0.071500
C221	C22	0.942400	0.040800	0.067210
H181	H18	0.003900	0.057100	0.101300
C231	C23	0.870800	0.108600	0.035960
C241	C24	0.779900	0.084000	0.985840
H191	H19	0.730100	0.129600	0.963900
C251	C25	0.763300	0.991500	0.968310
H201	H20	0.702200	0.974100	0.934400
C261	C26	0.889700	0.206400	0.055570
C271	C27	0.011800	0.458000	0.522230
Dy21	Dy2	0.933510	0.385940	0.103530
O91	O9	0.763800	0.476420	0.055770
O101	O10	0.763600	0.400640	0.141970
O111	O11	0.190100	0.262790	0.452700
O121	O12	0.011600	0.231040	0.417050
O131	O13	0.972300	0.296980	0.197220
O141	O14	0.979600	0.479910	0.197160
O151	O15	0.957800	0.385790	0.999600
O161	O16	0.005700	0.467040	0.924150
N31	N3	0.280600	0.643700	0.167610
N41	N4	0.208100	0.778300	0.459370
C281	C28	0.717800	0.457200	0.100250
C291	C29	0.609900	0.501800	0.101540
C301	C30	0.556300	0.479000	0.148120
H211	H21	0.589400	0.434900	0.179100
C311	C31	0.457000	0.518900	0.150200
H221	H22	0.422200	0.501900	0.182400
C321	C32	0.406900	0.583900	0.105800
C331	C33	0.460900	0.609500	0.060600
H231	H23	0.429500	0.655800	0.030900
C341	C34	0.560600	0.568200	0.058340
H241	H24	0.595900	0.585900	0.026400
C351	C35	0.292800	0.621200	0.103400
H251	H25	0.279700	0.677200	0.077000
H261	H26	0.235600	0.575300	0.083600
C361	C36	0.207200	0.598700	0.192030
H271	H27	0.161300	0.552700	0.167800
C371	C37	0.197300	0.617900	0.250500
H281	H28	0.147500	0.582700	0.267600
C381	C38	0.257100	0.686300	0.285460
C391	C39	0.330300	0.735900	0.258200
H291	H29	0.372800	0.785300	0.280400
C401	C40	0.339900	0.712300	0.199100
H301	H30	0.389500	0.745600	0.180700
C411	C41	0.242800	0.714600	0.348070
C421	C42	0.149700	0.686900	0.368360
H311	H31	0.097800	0.644700	0.343900
C431	C43	0.133300	0.720800	0.423660
H321	H32	0.068700	0.703500	0.436700
C441	C44	0.302100	0.801500	0.442890
H331	H33	0.355600	0.839800	0.470000
C451	C45	0.321500	0.771600	0.388720
H341	H34	0.388200	0.788900	0.377800
C461	C46	0.184800	0.823400	0.514820
H351	H35	0.249400	0.816400	0.551900
H361	H36	0.118500	0.795300	0.524700
C471	C47	0.163100	0.925300	0.499040
C481	C48	0.074100	0.951300	0.450260
H371	H37	0.023500	0.906000	0.428500
C491	C49	0.057600	0.040800	0.432790
H381	H38	0.996100	0.057100	0.398700
C501	C50	0.129200	0.108600	0.464040
C511	C51	0.220100	0.084000	0.514160
H391	H39	0.269900	0.129600	0.536100
C521	C52	0.236700	0.991500	0.531690
H401	H40	0.297800	0.974100	0.565600
C531	C53	0.110300	0.206400	0.444430
C541	C54	0.988200	0.458000	0.977770
Dy31	Dy3	0.933510	0.614060	0.603530
O171	O17	0.763800	0.523580	0.555770
O181	O18	0.763600	0.599360	0.641970
O191	O19	0.190100	0.737210	0.952700
O201	O20	0.011600	0.768960	0.917050
O211	O21	0.972300	0.703020	0.697220
O221	O22	0.979600	0.520090	0.697160
O231	O23	0.957800	0.614210	0.499600
O241	O24	0.005700	0.532960	0.424150
N51	N5	0.280600	0.356300	0.667610
N61	N6	0.208100	0.221700	0.959370
C551	C55	0.717800	0.542800	0.600250
C561	C56	0.609900	0.498200	0.601540
C571	C57	0.556300	0.521000	0.648120
H411	H41	0.589400	0.565100	0.679100
C581	C58	0.457000	0.481100	0.650200
H421	H42	0.422200	0.498100	0.682400
C591	C59	0.406900	0.416100	0.605800
C601	C60	0.460900	0.390500	0.560600
H431	H43	0.429500	0.344200	0.530900
C611	C61	0.560600	0.431800	0.558340
H441	H44	0.595900	0.414100	0.526400
C621	C62	0.292800	0.378800	0.603400
H451	H45	0.279700	0.322800	0.577000
H461	H46	0.235600	0.424700	0.583600
C631	C63	0.207200	0.401300	0.692030
H471	H47	0.161300	0.447300	0.667800
C641	C64	0.197300	0.382100	0.750500
H481	H48	0.147500	0.417300	0.767600
C651	C65	0.257100	0.313700	0.785460
C661	C66	0.330300	0.264100	0.758200
H491	H49	0.372800	0.214700	0.780400
C671	C67	0.339900	0.287700	0.699100
H501	H50	0.389500	0.254400	0.680700
C681	C68	0.242800	0.285400	0.848070
C691	C69	0.149700	0.313100	0.868360
H511	H51	0.097800	0.355300	0.843900
C701	C70	0.133300	0.279200	0.923660
H521	H52	0.068700	0.296500	0.936700
C711	C71	0.302100	0.198500	0.942890
H531	H53	0.355600	0.160200	0.970000
C721	C72	0.321500	0.228400	0.888720
H541	H54	0.388200	0.211100	0.877800
C731	C73	0.184800	0.176600	0.014820
H551	H55	0.249400	0.183600	0.051900
H561	H56	0.118500	0.204700	0.024700
C741	C74	0.163100	0.074700	0.999040
C751	C75	0.074100	0.048700	0.950260
H571	H57	0.023500	0.094000	0.928500
C761	C76	0.057600	0.959200	0.932790
H581	H58	0.996100	0.942900	0.898700
C771	C77	0.129200	0.891400	0.964040
C781	C78	0.220100	0.916000	0.014160
H591	H59	0.269900	0.870400	0.036100
C791	C79	0.236700	0.008500	0.031690
H601	H60	0.297800	0.025900	0.065600
C801	C80	0.110300	0.793600	0.944430
C811	C81	0.988200	0.542000	0.477770
Dy41	Dy4	0.066490	0.614060	0.896470
O251	O25	0.236200	0.523580	0.944230
O261	O26	0.236400	0.599360	0.858030
O271	O27	0.809900	0.737210	0.547300
O281	O28	0.988400	0.768960	0.582950
O291	O29	0.027700	0.703020	0.802780
O301	O30	0.020400	0.520090	0.802840
O311	O31	0.042200	0.614210	0.000400
O321	O32	0.994300	0.532960	0.075850
N71	N7	0.719400	0.356300	0.832390
N81	N8	0.791900	0.221700	0.540630
C821	C82	0.282200	0.542800	0.899750
C831	C83	0.390100	0.498200	0.898460
C841	C84	0.443700	0.521000	0.851880
H611	H61	0.410600	0.565100	0.820900
C851	C85	0.543000	0.481100	0.849800
H621	H62	0.577800	0.498100	0.817600
C861	C86	0.593100	0.416100	0.894200
C871	C87	0.539100	0.390500	0.939400
H631	H63	0.570500	0.344200	0.969100
C881	C88	0.439400	0.431800	0.941660
H641	H64	0.404100	0.414100	0.973600
C891	C89	0.707200	0.378800	0.896600
H651	H65	0.720300	0.322800	0.923000
H661	H66	0.764400	0.424700	0.916400
C901	C90	0.792800	0.401300	0.807970
H671	H67	0.838700	0.447300	0.832200
C911	C91	0.802700	0.382100	0.749500
H681	H68	0.852500	0.417300	0.732400
C921	C92	0.742900	0.313700	0.714540
C931	C93	0.669700	0.264100	0.741800
H691	H69	0.627200	0.214700	0.719600
C941	C94	0.660100	0.287700	0.800900
H701	H70	0.610500	0.254400	0.819300
C951	C95	0.757200	0.285400	0.651930
C961	C96	0.850300	0.313100	0.631640
H711	H71	0.902200	0.355300	0.656100
C971	C97	0.866700	0.279200	0.576340
H721	H72	0.931300	0.296500	0.563300
C981	C98	0.697900	0.198500	0.557110
H731	H73	0.644400	0.160200	0.530000
C991	C99	0.678500	0.228400	0.611280
H741	H74	0.611800	0.211100	0.622200
C1001	C100	0.815200	0.176600	0.485180
H751	H75	0.750600	0.183600	0.448100
H761	H76	0.881500	0.204700	0.475300
C1011	C101	0.836900	0.074700	0.500960
C1021	C102	0.925900	0.048700	0.549740
H771	H77	0.976500	0.094000	0.571500
C1031	C103	0.942400	0.959200	0.567210
H781	H78	0.003900	0.942900	0.601300
C1041	C104	0.870800	0.891400	0.535960
C1051	C105	0.779900	0.916000	0.485840
H791	H79	0.730100	0.870400	0.463900
C1061	C106	0.763300	0.008500	0.468310
H801	H80	0.702200	0.025900	0.434400
C1071	C107	0.889700	0.793600	0.555570
C1081	C108	0.011800	0.542000	0.022230
C1091	C109	0.000000	0.335000	0.250000
C1101	C110	0.000000	0.441400	0.250000
C1111	C111	0.000000	0.665000	0.750000
C1121	C112	0.000000	0.558600	0.750000
