data_REXCOO_clean_PM
_symmetry_space_group_name_H-M	'P1'
_cell_length_a	15.028000
_cell_length_b	18.831100
_cell_length_c	31.197000
_cell_angle_alpha	100.273000
_cell_angle_beta	90.000000
_cell_angle_gamma	113.517000
_symmetry_Int_Tables_number 1

loop_
_symmetry_equiv_pos_as_xyz
'x,y,z'

loop_
_atom_site_label
_atom_site_type_symbol
_atom_site_fract_x
_atom_site_fract_y
_atom_site_fract_z
Zn11	Zn1	0.373580	0.929200	0.264240
Zn21	Zn2	0.305910	0.325500	0.436550
Zn31	Zn3	0.631640	0.504140	0.614060
Zn41	Zn4	0.555620	0.929200	0.764240
Zn51	Zn5	0.019590	0.325500	0.936550
Zn61	Zn6	0.872500	0.504140	0.114060
H11	H1	0.596300	0.011000	0.281500
H21	H2	0.720700	0.115600	0.326300
H31	H3	0.510200	0.148400	0.391700
H41	H4	0.388800	0.031800	0.353100
H51	H5	0.179700	0.397800	0.473900
H61	H6	0.012500	0.375400	0.477900
H71	H7	0.953000	0.187400	0.380500
H81	H8	0.117100	0.211400	0.386800
H91	H9	0.519100	0.349400	0.543100
H101	H10	0.572400	0.299400	0.480900
H111	H11	0.845100	0.404400	0.526900
H121	H12	0.797000	0.468400	0.586700
H131	H13	0.830200	0.630600	0.641600
H141	H14	0.969400	0.660000	0.686800
H151	H15	0.824500	0.458800	0.731000
H161	H16	0.687400	0.439800	0.688200
H171	H17	0.467200	0.798200	0.809900
H181	H18	0.329100	0.683600	0.809000
H191	H19	0.222800	0.728600	0.703200
H201	H20	0.363100	0.843800	0.710600
H211	H21	0.897100	0.343600	0.862300
H221	H22	0.912600	0.414600	0.808700
H231	H23	0.183400	0.551600	0.861600
H241	H24	0.165200	0.462600	0.905800
H251	H25	0.414700	0.011000	0.781500
H261	H26	0.394900	0.115600	0.826300
H271	H27	0.638200	0.148400	0.891700
H281	H28	0.643000	0.031800	0.853100
H291	H29	0.218100	0.397800	0.973900
H301	H30	0.362900	0.375400	0.977900
H311	H31	0.234400	0.187400	0.880500
H321	H32	0.094300	0.211400	0.886800
H331	H33	0.830300	0.349400	0.043100
H341	H34	0.727000	0.299400	0.980900
H351	H35	0.559300	0.404400	0.026900
H361	H36	0.671400	0.468400	0.086700
H371	H37	0.800400	0.630600	0.141600
H381	H38	0.690600	0.660000	0.186800
H391	H39	0.634300	0.458800	0.231000
H401	H40	0.752400	0.439800	0.188200
H411	H41	0.331000	0.798200	0.309900
H421	H42	0.354500	0.683600	0.309000
H431	H43	0.505800	0.728600	0.203200
H441	H44	0.480700	0.843800	0.210600
H451	H45	0.446500	0.343600	0.362300
H461	H46	0.502000	0.414600	0.308700
H471	H47	0.368200	0.551600	0.361600
H481	H48	0.297400	0.462600	0.405800
C11	C1	0.578600	0.038200	0.306400
C21	C2	0.654800	0.097600	0.333300
C31	C3	0.625900	0.127800	0.371100
C41	C4	0.528000	0.112600	0.371900
C51	C5	0.454800	0.049200	0.346300
C61	C6	0.704900	0.193600	0.402400
C71	C7	0.859400	0.259800	0.431200
C81	C8	0.744600	0.293600	0.460100
C91	C9	0.132100	0.352000	0.456000
C101	C10	0.032200	0.340400	0.458500
C111	C11	0.965400	0.273200	0.430100
C121	C12	0.996400	0.229200	0.402100
C131	C13	0.095200	0.246000	0.405300
C141	C14	0.586600	0.364600	0.539500
C151	C15	0.620300	0.331600	0.504000
C161	C16	0.710200	0.338200	0.497300
C171	C17	0.777900	0.393000	0.529200
C181	C18	0.748900	0.431800	0.564600
C191	C19	0.829100	0.596000	0.660600
C201	C20	0.913500	0.612200	0.685300
C211	C21	0.912600	0.555200	0.707900
C221	C22	0.827400	0.493600	0.711900
C231	C23	0.746300	0.484200	0.687300
C241	C24	0.997900	0.570000	0.739200
C251	C25	0.156900	0.635400	0.760900
C261	C26	0.065600	0.534600	0.791400
C271	C27	0.415600	0.784200	0.788200
C281	C28	0.332900	0.717200	0.789100
C291	C29	0.254800	0.701200	0.759200
C301	C30	0.269700	0.743600	0.727200
C311	C31	0.356400	0.810200	0.730900
C321	C32	0.959700	0.383000	0.860000
C331	C33	0.966400	0.427000	0.828900
C341	C34	0.052500	0.489200	0.827700
C351	C35	0.125000	0.505200	0.858800
C361	C36	0.111600	0.452600	0.886000
C371	C37	0.459600	0.038200	0.806400
C381	C38	0.442800	0.097600	0.833300
C391	C39	0.501900	0.127800	0.871100
C401	C40	0.584600	0.112600	0.871900
C411	C41	0.594400	0.049200	0.846300
C421	C42	0.488700	0.193600	0.902400
C431	C43	0.400400	0.259800	0.931200
C441	C44	0.549000	0.293600	0.960100
C451	C45	0.219900	0.352000	0.956000
C461	C46	0.308200	0.340400	0.958500
C471	C47	0.307800	0.273200	0.930100
C481	C48	0.232800	0.229200	0.902100
C491	C49	0.150800	0.246000	0.905300
C501	C50	0.778000	0.364600	0.039500
C511	C51	0.711300	0.331600	0.004000
C521	C52	0.628000	0.338200	0.997300
C531	C53	0.615100	0.393000	0.029200
C541	C54	0.682900	0.431800	0.064600
C551	C55	0.766900	0.596000	0.160600
C561	C56	0.698700	0.612200	0.185300
C571	C57	0.642600	0.555200	0.207900
C581	C58	0.666200	0.493600	0.211900
C591	C59	0.737900	0.484200	0.187300
C601	C60	0.572100	0.570000	0.239200
C611	C61	0.478500	0.635400	0.260900
C621	C62	0.469000	0.534600	0.291400
C631	C63	0.368600	0.784200	0.288200
C641	C64	0.384300	0.717200	0.289100
C651	C65	0.446400	0.701200	0.259200
C661	C66	0.473900	0.743600	0.227200
C671	C67	0.453800	0.810200	0.230900
C681	C68	0.423300	0.383000	0.360000
C691	C69	0.460600	0.427000	0.328900
C701	C70	0.436700	0.489200	0.327700
C711	C71	0.380200	0.505200	0.358800
C721	C72	0.341000	0.452600	0.386000
I11	I1	0.214310	0.895640	0.301390
I21	I2	0.406760	0.975500	0.192790
I31	I3	0.336970	0.202160	0.412440
I41	I4	0.379260	0.417720	0.510870
I51	I5	0.657900	0.621640	0.581210
I61	I6	0.481960	0.426380	0.651570
I71	I7	0.681330	0.895640	0.801390
I81	I8	0.568740	0.975500	0.692790
I91	I9	0.865190	0.202160	0.912440
I101	I10	0.038460	0.417720	0.010870
I111	I11	0.963740	0.621640	0.081210
I121	I12	0.944420	0.426380	0.151570
N11	N1	0.482500	0.013800	0.310900
N21	N2	0.798300	0.205800	0.398500
N31	N3	0.839800	0.309800	0.462400
N41	N4	0.673600	0.231400	0.435100
N51	N5	0.160900	0.306800	0.432300
N61	N6	0.655400	0.419800	0.569000
N71	N7	0.746300	0.534200	0.662300
N81	N8	0.084500	0.623000	0.732200
N91	N9	0.153800	0.590000	0.789400
N101	N10	0.986400	0.521400	0.766600
N111	N11	0.428300	0.830200	0.759300
N121	N12	0.031100	0.389200	0.887400
N131	N13	0.531300	0.013800	0.810900
N141	N14	0.407500	0.205800	0.898500
N151	N15	0.470000	0.309800	0.962400
N161	N16	0.557800	0.231400	0.935100
N171	N17	0.145900	0.306800	0.932300
N181	N18	0.764400	0.419800	0.069000
N191	N19	0.787900	0.534200	0.162300
N201	N20	0.538500	0.623000	0.232200
N211	N21	0.436200	0.590000	0.289400
N221	N22	0.535000	0.521400	0.266600
N231	N23	0.401900	0.830200	0.259300
N241	N24	0.358100	0.389200	0.387400
Zn71	Zn7	0.654790	0.020160	0.483160
Zn81	Zn8	0.041120	0.839360	0.800780
Zn91	Zn9	0.112970	0.410860	0.650360
Zn101	Zn10	0.365370	0.020160	0.983160
Zn111	Zn11	0.798240	0.839360	0.300780
Zn121	Zn12	0.297890	0.410860	0.150360
H491	H49	0.755600	0.015400	0.559600
H501	H50	0.734200	0.951400	0.617100
H511	H51	0.471300	0.814800	0.568900
H521	H52	0.493000	0.873800	0.509200
H531	H53	0.833400	0.704400	0.769700
H541	H54	0.696000	0.697800	0.732700
H551	H55	0.847500	0.898000	0.697400
H561	H56	0.980300	0.913800	0.741000
H571	H57	0.249500	0.495600	0.592000
H581	H58	0.390600	0.603400	0.586700
H591	H59	0.437400	0.619800	0.713700
H601	H60	0.289500	0.519600	0.717900
H611	H61	0.266800	0.355000	0.631800
H621	H62	0.304400	0.267400	0.580400
H631	H63	0.038400	0.203200	0.516100
H641	H64	0.004000	0.278200	0.576700
H651	H65	0.471600	0.980200	0.428700
H661	H66	0.326300	0.990600	0.432400
H671	H67	0.433900	0.150400	0.541700
H681	H68	0.578100	0.134200	0.538800
H691	H69	0.853400	0.983200	0.368600
H701	H70	0.965100	0.074000	0.425500
H711	H71	0.105500	0.920800	0.402800
H721	H72	0.983000	0.837800	0.346700
H731	H73	0.259800	0.015400	0.059600
H741	H74	0.217200	0.951400	0.117100
H751	H75	0.343500	0.814800	0.068900
H761	H76	0.380800	0.873800	0.009200
H771	H77	0.871000	0.704400	0.269700
H781	H78	0.001800	0.697800	0.232700
H791	H79	0.050500	0.898000	0.197400
H801	H80	0.933500	0.913800	0.241000
H811	H81	0.246100	0.495600	0.092000
H821	H82	0.212800	0.603400	0.086700
H831	H83	0.182400	0.619800	0.213700
H841	H84	0.230100	0.519600	0.217900
H851	H85	0.088200	0.355000	0.131800
H861	H86	0.963000	0.267400	0.080400
H871	H87	0.164800	0.203200	0.016100
H881	H88	0.274200	0.278200	0.076700
H891	H89	0.508600	0.980200	0.928700
H901	H90	0.664300	0.990600	0.932400
H911	H91	0.716500	0.150400	0.041700
H921	H92	0.556100	0.134200	0.038800
H931	H93	0.129800	0.983200	0.868600
H941	H94	0.108900	0.074000	0.925500
H951	H95	0.815300	0.920800	0.902800
H961	H96	0.854800	0.837800	0.846700
C731	C73	0.695900	0.971800	0.560400
C741	C74	0.686200	0.930000	0.593100
C751	C75	0.610800	0.859400	0.592400
C761	C76	0.534600	0.850800	0.564600
C771	C77	0.544400	0.890800	0.531400
C781	C78	0.604400	0.806200	0.622200
C791	C79	0.670600	0.775400	0.678100
C801	C80	0.512500	0.705400	0.654800
C811	C81	0.836600	0.745800	0.755300
C821	C82	0.757200	0.738800	0.730300
C831	C83	0.761400	0.787600	0.702100
C841	C84	0.844100	0.855600	0.710800
C851	C85	0.922700	0.866600	0.737700
C861	C86	0.286300	0.526000	0.618600
C871	C87	0.371000	0.590200	0.614300
C881	C88	0.424500	0.633400	0.653100
C891	C89	0.393800	0.598600	0.688100
C901	C90	0.306800	0.536200	0.690900
C911	C91	0.219500	0.321600	0.608600
C921	C92	0.241200	0.267400	0.579800
C931	C93	0.161700	0.208800	0.547600
C941	C94	0.081400	0.226200	0.541800
C951	C95	0.067400	0.278600	0.575300
C961	C96	0.177400	0.151400	0.513400
C971	C97	0.266800	0.079000	0.493100
C981	C98	0.121700	0.054600	0.453200
C991	C99	0.462400	0.012600	0.453800
C1001	C100	0.375000	0.018800	0.455800
C1011	C101	0.355900	0.064000	0.490500
C1021	C102	0.438500	0.110800	0.519400
C1031	C103	0.525500	0.102800	0.517500
C1041	C104	0.907300	0.972600	0.376500
C1051	C105	0.971500	0.028400	0.409900
C1061	C106	0.050000	0.004200	0.417000
C1071	C107	0.054200	0.934800	0.395400
C1081	C108	0.981300	0.885200	0.362400
C1091	C109	0.275900	0.971800	0.060400
C1101	C110	0.243800	0.930000	0.093100
C1111	C111	0.248600	0.859400	0.092400
C1121	C112	0.316200	0.850800	0.064600
C1131	C113	0.346400	0.890800	0.031400
C1141	C114	0.201800	0.806200	0.122200
C1151	C115	0.104800	0.775400	0.178100
C1161	C116	0.192900	0.705400	0.154800
C1171	C117	0.909200	0.745800	0.255300
C1181	C118	0.981600	0.738800	0.230300
C1191	C119	0.026200	0.787600	0.202100
C1201	C120	0.011500	0.855600	0.210800
C1211	C121	0.943900	0.866600	0.237700
C1221	C122	0.239700	0.526000	0.118600
C1231	C123	0.219200	0.590200	0.114300
C1241	C124	0.208900	0.633400	0.153100
C1251	C125	0.204800	0.598600	0.188100
C1261	C126	0.229400	0.536200	0.190900
C1271	C127	0.102100	0.321600	0.108600
C1281	C128	0.026200	0.267400	0.079800
C1291	C129	0.047100	0.208800	0.047600
C1301	C130	0.144800	0.226200	0.041800
C1311	C131	0.211200	0.278600	0.075300
C1321	C132	0.974000	0.151400	0.013400
C1331	C133	0.812200	0.079000	0.993100
C1341	C134	0.932900	0.054600	0.953200
C1351	C135	0.550200	0.012600	0.953800
C1361	C136	0.643800	0.018800	0.955800
C1371	C137	0.708100	0.064000	0.990500
C1381	C138	0.672300	0.110800	0.019400
C1391	C139	0.577300	0.102800	0.017500
C1401	C140	0.065300	0.972600	0.876500
C1411	C141	0.056900	0.028400	0.909900
C1421	C142	0.954200	0.004200	0.917000
C1431	C143	0.880600	0.934800	0.895400
C1441	C144	0.903900	0.885200	0.862400
I131	I13	0.641900	0.934700	0.409540
I141	I14	0.802900	0.148260	0.512380
I151	I15	0.188810	0.916240	0.764670
I161	I16	0.013910	0.718260	0.835330
I171	I17	0.987410	0.445580	0.614500
I181	I18	0.101510	0.365200	0.723290
I191	I19	0.292800	0.934700	0.909540
I201	I20	0.345360	0.148260	0.012380
I211	I21	0.727430	0.916240	0.264670
I221	I22	0.704350	0.718260	0.335330
I231	I23	0.458170	0.445580	0.114500
I241	I24	0.263690	0.365200	0.223290
N251	N25	0.625700	0.953600	0.530200
N261	N26	0.682000	0.820600	0.648400
N271	N27	0.587700	0.714200	0.681300
N281	N28	0.520900	0.745600	0.623100
N291	N29	0.916600	0.810200	0.759000
N301	N30	0.248400	0.500400	0.654900
N311	N31	0.136000	0.329800	0.605800
N321	N32	0.260800	0.140000	0.519500
N331	N33	0.197500	0.035400	0.460500
N341	N34	0.105500	0.106400	0.483400
N351	N35	0.534800	0.048600	0.484200
N361	N36	0.909900	0.906600	0.353800
N371	N37	0.327900	0.953600	0.030200
N381	N38	0.138600	0.820600	0.148400
N391	N39	0.126500	0.714200	0.181300
N401	N40	0.224700	0.745600	0.123100
N411	N41	0.893600	0.810200	0.259000
N421	N42	0.252000	0.500400	0.154900
N431	N43	0.193800	0.329800	0.105800
N441	N44	0.879200	0.140000	0.019500
N451	N45	0.837900	0.035400	0.960500
N461	N46	0.000900	0.106400	0.983400
N471	N47	0.513800	0.048600	0.984200
N481	N48	0.996700	0.906600	0.853800
