data_REXDOP_clean_PM
_symmetry_space_group_name_H-M	'P1'
_cell_length_a	14.907000
_cell_length_b	18.608000
_cell_length_c	32.920000
_cell_angle_alpha	103.269000
_cell_angle_beta	93.089000
_cell_angle_gamma	108.970000
_symmetry_Int_Tables_number 1

loop_
_symmetry_equiv_pos_as_xyz
'x,y,z'

loop_
_atom_site_label
_atom_site_type_symbol
_atom_site_fract_x
_atom_site_fract_y
_atom_site_fract_z
Zn11	Zn1	0.201440	0.735050	0.067100
Zn21	Zn2	0.671970	0.164330	0.221290
Zn31	Zn3	0.299910	0.330120	0.898880
Zn41	Zn4	0.964670	0.144780	0.728960
Zn51	Zn5	0.480760	0.229370	0.428150
Zn61	Zn6	0.044170	0.739260	0.552870
H11	H1	0.318500	0.880500	0.136100
H21	H2	0.301900	0.982200	0.184300
H31	H3	0.027700	0.909500	0.132200
H41	H4	0.056200	0.812200	0.082800
H51	H5	0.278900	0.217400	0.395900
H61	H6	0.175600	0.172300	0.334000
H71	H7	0.388300	0.134700	0.272200
H81	H8	0.491500	0.186600	0.335700
H91	H9	0.755700	0.053200	0.169400
H101	H10	0.892300	0.022800	0.171600
H111	H11	0.015900	0.211300	0.270200
H121	H12	0.865900	0.227000	0.270000
H131	H13	0.799200	0.311700	0.209000
H141	H14	0.823800	0.392500	0.164000
H151	H15	0.583200	0.242700	0.093800
H161	H16	0.570800	0.163400	0.138000
H171	H17	0.032100	0.621200	0.003900
H181	H18	0.884700	0.527100	0.002500
H191	H19	0.942300	0.560400	0.127900
H201	H20	0.089600	0.655900	0.126100
H211	H21	0.358700	0.264600	0.966400
H221	H22	0.491200	0.278800	0.010800
H231	H23	0.630900	0.482600	0.982100
H241	H24	0.499700	0.456100	0.931700
H251	H25	0.462500	0.290700	0.870700
H261	H26	0.507400	0.211800	0.817000
H271	H27	0.226500	0.087500	0.776000
H281	H28	0.191100	0.176300	0.829800
H291	H29	0.781300	0.024100	0.672600
H301	H30	0.617300	0.995900	0.669800
H311	H31	0.663600	0.167200	0.777200
H321	H32	0.823600	0.197300	0.776500
H331	H33	0.061400	0.855400	0.636700
H341	H34	0.172600	0.946400	0.690200
H351	H35	0.379600	0.895400	0.626700
H361	H36	0.256200	0.798800	0.574700
H371	H37	0.082800	0.139600	0.658100
H381	H38	0.150100	0.214900	0.614200
H391	H39	0.006000	0.362700	0.656800
H401	H40	0.949600	0.284200	0.705200
H411	H41	0.450000	0.383900	0.463700
H421	H42	0.358600	0.432600	0.505200
H431	H43	0.247000	0.223100	0.530500
H441	H44	0.346600	0.177800	0.489400
H451	H45	0.031700	0.638100	0.611300
H461	H46	0.058500	0.526200	0.618900
H471	H47	0.150000	0.505600	0.503900
H481	H48	0.109800	0.617300	0.500100
C11	C1	0.257000	0.885300	0.136100
C21	C2	0.248400	0.946700	0.164500
C31	C3	0.162600	0.957000	0.164400
C41	C4	0.089000	0.904400	0.133700
C51	C5	0.105300	0.845100	0.105400
C61	C6	0.148800	0.021100	0.195400
C71	C7	0.202300	0.114300	0.256500
C81	C8	0.061200	0.093600	0.221800
C91	C9	0.302000	0.200800	0.370400
C101	C10	0.239900	0.174000	0.333600
C111	C11	0.271400	0.149500	0.296300
C121	C12	0.365200	0.152700	0.297500
C131	C13	0.426300	0.182500	0.335800
C141	C14	0.807200	0.084100	0.191300
C151	C15	0.890500	0.067800	0.191700
C161	C16	0.970500	0.112900	0.219400
C171	C17	0.963000	0.176300	0.249900
C181	C18	0.872500	0.185600	0.248700
C191	C19	0.754500	0.297000	0.184200
C201	C20	0.769300	0.345700	0.157800
C211	C21	0.704200	0.326100	0.122200
C221	C22	0.631600	0.258800	0.117300
C231	C23	0.622800	0.212000	0.144200
C241	C24	0.715300	0.371800	0.090200
C251	C25	0.807700	0.464600	0.063800
C261	C26	0.656800	0.398800	0.036100
C271	C27	0.013000	0.609600	0.029400
C281	C28	0.926800	0.552100	0.028300
C291	C29	0.900700	0.530100	0.065100
C301	C30	0.959500	0.571100	0.102000
C311	C31	0.046300	0.629600	0.100800
C321	C32	0.415500	0.308300	0.968600
C331	C33	0.492900	0.317900	0.996400
C341	C34	0.572800	0.384200	0.003300
C351	C35	0.575900	0.436900	0.978700
C361	C36	0.496600	0.421100	0.949000
C371	C37	0.413700	0.249700	0.850700
C381	C38	0.441500	0.203100	0.819100
C391	C39	0.370000	0.142500	0.790100
C401	C40	0.276500	0.130300	0.794600
C411	C41	0.256300	0.182900	0.827400
C421	C42	0.398200	0.090600	0.755400
C431	C43	0.516200	0.061400	0.723500
C441	C44	0.363800	0.990300	0.696400
C451	C45	0.757000	0.054500	0.693400
C461	C46	0.659400	0.037400	0.692000
C471	C47	0.621200	0.080100	0.723000
C481	C48	0.686100	0.138500	0.754800
C491	C49	0.780800	0.155300	0.754700
C501	C50	0.127100	0.864500	0.634200
C511	C51	0.192100	0.918700	0.666400
C521	C52	0.289100	0.932100	0.663000
C531	C53	0.314200	0.888200	0.629100
C541	C54	0.239800	0.831400	0.597600
C551	C55	0.067700	0.185400	0.658000
C561	C56	0.106500	0.229500	0.631500
C571	C57	0.083700	0.296300	0.629000
C581	C58	0.023400	0.317800	0.656700
C591	C59	0.988200	0.269400	0.685200
C601	C60	0.125500	0.341400	0.600200
C611	C61	0.223200	0.358700	0.550100
C621	C62	0.140500	0.440800	0.569200
C631	C63	0.407200	0.350300	0.477500
C641	C64	0.354000	0.379300	0.501700
C651	C65	0.288400	0.330100	0.523000
C661	C66	0.288900	0.257500	0.516900
C671	C67	0.347000	0.229800	0.491900
C681	C68	0.055700	0.610200	0.589200
C691	C69	0.073300	0.544800	0.594600
C701	C70	0.112800	0.507400	0.563700
C711	C71	0.126200	0.532200	0.526600
C721	C72	0.102000	0.599400	0.524900
I11	I1	0.328430	0.701500	0.103220
I21	I2	0.212290	0.757120	0.993850
I31	I3	0.530170	0.038920	0.189400
I41	I4	0.678430	0.250350	0.294780
I51	I5	0.155810	0.272970	0.932570
I61	I6	0.327590	0.441720	0.863210
I71	I7	0.035270	0.241130	0.801670
I81	I8	0.013940	0.023450	0.709470
I91	I9	0.639140	0.330260	0.425210
I101	I10	0.469110	0.092260	0.436420
I111	I11	0.882700	0.726570	0.577480
I121	I12	0.079700	0.767530	0.482410
N11	N1	0.187400	0.831900	0.108500
N21	N2	0.218900	0.059000	0.227700
N31	N3	0.126700	0.137300	0.255100
N41	N4	0.068000	0.036800	0.190700
N51	N5	0.396300	0.205200	0.372200
N61	N6	0.796100	0.142000	0.220700
N71	N7	0.681300	0.231000	0.176900
N81	N8	0.804100	0.428000	0.093300
N91	N9	0.738400	0.455000	0.033400
N101	N10	0.642400	0.355300	0.062900
N111	N11	0.070300	0.649600	0.065600
N121	N12	0.415600	0.358100	0.944000
N131	N13	0.323100	0.241500	0.855400
N141	N14	0.493700	0.108800	0.754900
N151	N15	0.454700	0.002800	0.692800
N161	N16	0.329000	0.034600	0.727700
N171	N17	0.818000	0.114200	0.724300
N181	N18	0.147500	0.822600	0.599300
N191	N19	0.009100	0.204800	0.683800
N201	N20	0.187100	0.316800	0.577300
N211	N21	0.200400	0.420500	0.543600
N221	N22	0.103000	0.404400	0.597700
N231	N23	0.404800	0.275300	0.470800
N241	N24	0.070100	0.637300	0.555100
Zn71	Zn7	0.798560	0.264950	0.932900
Zn81	Zn8	0.328030	0.835670	0.778710
Zn91	Zn9	0.700090	0.669880	0.101120
Zn101	Zn10	0.035330	0.855220	0.271040
Zn111	Zn11	0.519240	0.770630	0.571850
Zn121	Zn12	0.955830	0.260740	0.447130
H491	H49	0.681500	0.119500	0.863900
H501	H50	0.698100	0.017800	0.815700
H511	H51	0.972300	0.090500	0.867800
H521	H52	0.943800	0.187800	0.917200
H531	H53	0.721100	0.782600	0.604100
H541	H54	0.824400	0.827700	0.666000
H551	H55	0.611700	0.865300	0.727800
H561	H56	0.508500	0.813400	0.664300
H571	H57	0.244300	0.946800	0.830600
H581	H58	0.107700	0.977200	0.828400
H591	H59	0.984100	0.788700	0.729800
H601	H60	0.134100	0.773000	0.730000
H611	H61	0.200800	0.688300	0.791000
H621	H62	0.176200	0.607500	0.836000
H631	H63	0.416800	0.757300	0.906200
H641	H64	0.429200	0.836600	0.862000
H651	H65	0.967900	0.378800	0.996100
H661	H66	0.115300	0.472900	0.997500
H671	H67	0.057700	0.439600	0.872100
H681	H68	0.910400	0.344100	0.873900
H691	H69	0.641300	0.735400	0.033600
H701	H70	0.508800	0.721200	0.989200
H711	H71	0.369100	0.517400	0.017900
H721	H72	0.500300	0.543900	0.068300
H731	H73	0.537500	0.709300	0.129300
H741	H74	0.492600	0.788200	0.183000
H751	H75	0.773500	0.912500	0.224000
H761	H76	0.808900	0.823700	0.170200
H771	H77	0.218700	0.975900	0.327400
H781	H78	0.382700	0.004100	0.330200
H791	H79	0.336400	0.832800	0.222800
H801	H80	0.176400	0.802700	0.223500
H811	H81	0.938600	0.144600	0.363300
H821	H82	0.827400	0.053600	0.309800
H831	H83	0.620400	0.104600	0.373300
H841	H84	0.743800	0.201200	0.425300
H851	H85	0.917200	0.860400	0.341900
H861	H86	0.849900	0.785100	0.385800
H871	H87	0.994000	0.637300	0.343200
H881	H88	0.050400	0.715800	0.294800
H891	H89	0.550000	0.616100	0.536300
H901	H90	0.641400	0.567400	0.494800
H911	H91	0.753000	0.776900	0.469500
H921	H92	0.653400	0.822200	0.510600
H931	H93	0.968300	0.361900	0.388700
H941	H94	0.941500	0.473800	0.381100
H951	H95	0.850000	0.494400	0.496100
H961	H96	0.890200	0.382700	0.499900
C731	C73	0.743000	0.114700	0.863900
C741	C74	0.751600	0.053300	0.835500
C751	C75	0.837400	0.043000	0.835600
C761	C76	0.911000	0.095600	0.866300
C771	C77	0.894700	0.154900	0.894600
C781	C78	0.851200	0.978900	0.804600
C791	C79	0.797700	0.885700	0.743500
C801	C80	0.938800	0.906400	0.778200
C811	C81	0.698000	0.799200	0.629600
C821	C82	0.760100	0.826000	0.666400
C831	C83	0.728600	0.850500	0.703700
C841	C84	0.634800	0.847300	0.702500
C851	C85	0.573700	0.817500	0.664200
C861	C86	0.192800	0.915900	0.808700
C871	C87	0.109500	0.932200	0.808300
C881	C88	0.029500	0.887100	0.780600
C891	C89	0.037000	0.823700	0.750100
C901	C90	0.127500	0.814400	0.751300
C911	C91	0.245500	0.703000	0.815800
C921	C92	0.230700	0.654300	0.842200
C931	C93	0.295800	0.673900	0.877800
C941	C94	0.368400	0.741200	0.882700
C951	C95	0.377200	0.788000	0.855800
C961	C96	0.284700	0.628200	0.909800
C971	C97	0.192300	0.535400	0.936200
C981	C98	0.343200	0.601200	0.963900
C991	C99	0.987000	0.390400	0.970600
C1001	C100	0.073200	0.447900	0.971700
C1011	C101	0.099300	0.469900	0.934900
C1021	C102	0.040500	0.428900	0.898000
C1031	C103	0.953700	0.370400	0.899200
C1041	C104	0.584500	0.691700	0.031400
C1051	C105	0.507100	0.682100	0.003600
C1061	C106	0.427200	0.615800	0.996700
C1071	C107	0.424100	0.563100	0.021300
C1081	C108	0.503400	0.578900	0.051000
C1091	C109	0.586300	0.750300	0.149300
C1101	C110	0.558500	0.796900	0.180900
C1111	C111	0.630000	0.857500	0.209900
C1121	C112	0.723500	0.869700	0.205400
C1131	C113	0.743700	0.817100	0.172600
C1141	C114	0.601800	0.909400	0.244600
C1151	C115	0.483800	0.938600	0.276500
C1161	C116	0.636200	0.009700	0.303600
C1171	C117	0.243000	0.945500	0.306600
C1181	C118	0.340600	0.962600	0.308000
C1191	C119	0.378800	0.919900	0.277000
C1201	C120	0.313900	0.861500	0.245200
C1211	C121	0.219200	0.844700	0.245300
C1221	C122	0.872900	0.135500	0.365800
C1231	C123	0.807900	0.081300	0.333600
C1241	C124	0.710900	0.067900	0.337000
C1251	C125	0.685800	0.111800	0.370900
C1261	C126	0.760200	0.168600	0.402400
C1271	C127	0.932300	0.814600	0.342000
C1281	C128	0.893500	0.770500	0.368500
C1291	C129	0.916300	0.703700	0.371000
C1301	C130	0.976600	0.682200	0.343300
C1311	C131	0.011800	0.730600	0.314800
C1321	C132	0.874500	0.658600	0.399800
C1331	C133	0.776800	0.641300	0.449900
C1341	C134	0.859500	0.559200	0.430800
C1351	C135	0.592800	0.649700	0.522500
C1361	C136	0.646000	0.620700	0.498300
C1371	C137	0.711600	0.669900	0.477000
C1381	C138	0.711100	0.742500	0.483100
C1391	C139	0.653000	0.770200	0.508100
C1401	C140	0.944300	0.389800	0.410800
C1411	C141	0.926700	0.455200	0.405400
C1421	C142	0.887200	0.492600	0.436300
C1431	C143	0.873800	0.467800	0.473400
C1441	C144	0.898000	0.400600	0.475100
I131	I13	0.671570	0.298500	0.896780
I141	I14	0.787710	0.242880	0.006150
I151	I15	0.469830	0.961080	0.810600
I161	I16	0.321570	0.749650	0.705220
I171	I17	0.844190	0.727030	0.067430
I181	I18	0.672410	0.558280	0.136790
I191	I19	0.964730	0.758870	0.198330
I201	I20	0.986060	0.976550	0.290530
I211	I21	0.360860	0.669740	0.574790
I221	I22	0.530890	0.907740	0.563580
I231	I23	0.117300	0.273430	0.422520
I241	I24	0.920300	0.232470	0.517590
N251	N25	0.812600	0.168100	0.891500
N261	N26	0.781100	0.941000	0.772300
N271	N27	0.873300	0.862700	0.744900
N281	N28	0.932000	0.963200	0.809300
N291	N29	0.603700	0.794800	0.627800
N301	N30	0.203900	0.858000	0.779300
N311	N31	0.318700	0.769000	0.823100
N321	N32	0.195900	0.572000	0.906700
N331	N33	0.261600	0.545000	0.966600
N341	N34	0.357600	0.644700	0.937100
N351	N35	0.929700	0.350400	0.934400
N361	N36	0.584400	0.641900	0.056000
N371	N37	0.676900	0.758500	0.144600
N381	N38	0.506300	0.891200	0.245100
N391	N39	0.545300	0.997200	0.307200
N401	N40	0.671000	0.965400	0.272300
N411	N41	0.182000	0.885800	0.275700
N421	N42	0.852500	0.177400	0.400700
N431	N43	0.990900	0.795200	0.316200
N441	N44	0.812900	0.683200	0.422700
N451	N45	0.799600	0.579500	0.456400
N461	N46	0.897000	0.595600	0.402300
N471	N47	0.595200	0.724700	0.529200
N481	N48	0.929900	0.362700	0.444900
