data_REXFAD_clean_PM
_symmetry_space_group_name_H-M	'P1'
_cell_length_a	14.774000
_cell_length_b	19.342200
_cell_length_c	30.594000
_cell_angle_alpha	100.753000
_cell_angle_beta	90.000000
_cell_angle_gamma	112.452000
_symmetry_Int_Tables_number 1

loop_
_symmetry_equiv_pos_as_xyz
'x,y,z'

loop_
_atom_site_label
_atom_site_type_symbol
_atom_site_fract_x
_atom_site_fract_y
_atom_site_fract_z
Zn11	Zn1	0.190610	0.667260	0.724540
Zn21	Zn2	0.730550	0.250900	0.569680
Zn31	Zn3	0.794410	0.851140	0.400010
Zn41	Zn4	0.476650	0.667260	0.224540
Zn51	Zn5	0.520350	0.250900	0.069680
Zn61	Zn6	0.056730	0.851140	0.900010
H11	H1	0.345600	0.782200	0.685800
H21	H2	0.367300	0.857200	0.634000
H31	H3	0.079700	0.751600	0.595300
H41	H4	0.065800	0.674800	0.647300
H51	H5	0.562600	0.151400	0.494700
H61	H6	0.412100	0.047200	0.487300
H71	H7	0.454000	0.049400	0.619500
H81	H8	0.594700	0.158200	0.622700
H91	H9	0.860600	0.778400	0.463300
H101	H10	0.998000	0.785000	0.503400
H111	H11	0.146000	0.991800	0.472700
H121	H12	0.999900	0.976000	0.433200
H131	H13	0.959700	0.839600	0.351600
H141	H14	0.005300	0.758000	0.299300
H151	H15	0.723200	0.604400	0.287100
H161	H16	0.687000	0.690200	0.341000
H171	H17	0.285800	0.541600	0.177100
H181	H18	0.120700	0.516800	0.172100
H191	H19	0.169900	0.706400	0.264500
H201	H20	0.336100	0.731600	0.265200
H211	H21	0.543500	0.361800	0.157600
H221	H22	0.667100	0.465600	0.201600
H231	H23	0.867400	0.410800	0.130100
H241	H24	0.739400	0.313000	0.083800
H251	H25	0.436600	0.782200	0.185800
H261	H26	0.489900	0.857200	0.134000
H271	H27	0.671900	0.751600	0.095300
H281	H28	0.609000	0.674800	0.147300
H291	H29	0.588800	0.151400	0.994700
H301	H30	0.635100	0.047200	0.987300
H311	H31	0.595400	0.049400	0.119500
H321	H32	0.563500	0.158200	0.122700
H331	H33	0.917800	0.778400	0.963300
H341	H34	0.787000	0.785000	0.003400
H351	H35	0.845800	0.991800	0.972700
H361	H36	0.976100	0.976000	0.933200
H371	H37	0.879900	0.839600	0.851600
H381	H38	0.752700	0.758000	0.799300
H391	H39	0.881200	0.604400	0.787100
H401	H40	0.003200	0.690200	0.841000
H411	H41	0.255800	0.541600	0.677100
H421	H42	0.396100	0.516800	0.672100
H431	H43	0.536500	0.706400	0.764500
H441	H44	0.395500	0.731600	0.765200
H451	H45	0.818300	0.361800	0.657600
H461	H46	0.798500	0.465600	0.701600
H471	H47	0.543400	0.410800	0.630100
H481	H48	0.573600	0.313000	0.583800
C11	C1	0.289800	0.776800	0.667900
C21	C2	0.303300	0.821600	0.637100
C31	C3	0.224900	0.815600	0.610500
C41	C4	0.135400	0.759600	0.614200
C51	C5	0.127000	0.715000	0.645500
C61	C6	0.235300	0.869800	0.579400
C71	C7	0.328000	0.968600	0.549700
C81	C8	0.170400	0.903000	0.523300
C91	C9	0.539100	0.130000	0.520000
C101	C10	0.451100	0.068000	0.514900
C111	C11	0.422800	0.037400	0.553200
C121	C12	0.474900	0.069800	0.593600
C131	C13	0.558500	0.132800	0.594700
C141	C14	0.919800	0.822000	0.464600
C151	C15	0.000300	0.826000	0.490000
C161	C16	0.083800	0.892000	0.494900
C171	C17	0.087500	0.947600	0.472000
C181	C18	0.000000	0.936000	0.447100
C191	C19	0.912100	0.790600	0.338700
C201	C20	0.939500	0.742200	0.307500
C211	C21	0.871600	0.672000	0.288800
C221	C22	0.773200	0.652000	0.300700
C231	C23	0.752200	0.703200	0.332400
C241	C24	0.899600	0.617600	0.255900
C251	C25	0.015600	0.589800	0.219800
C261	C26	0.859700	0.514400	0.200500
C271	C27	0.262200	0.576400	0.194500
C281	C28	0.163800	0.561000	0.192100
C291	C29	0.125500	0.608000	0.218000
C301	C30	0.192300	0.672200	0.245700
C311	C31	0.291100	0.686800	0.246200
C321	C32	0.610000	0.374000	0.151000
C331	C33	0.683000	0.433800	0.177900
C341	C34	0.779600	0.447600	0.170500
C351	C35	0.801100	0.402400	0.135500
C361	C36	0.725300	0.344800	0.108100
C371	C37	0.487000	0.776800	0.167900
C381	C38	0.518300	0.821600	0.137100
C391	C39	0.590700	0.815600	0.110500
C401	C40	0.624200	0.759600	0.114200
C411	C41	0.588000	0.715000	0.145500
C421	C42	0.634500	0.869800	0.079400
C431	C43	0.640600	0.968600	0.049700
C441	C44	0.732600	0.903000	0.023300
C451	C45	0.590900	0.130000	0.020000
C461	C46	0.616900	0.068000	0.014900
C471	C47	0.614600	0.037400	0.053200
C481	C48	0.594900	0.069800	0.093600
C491	C49	0.574300	0.132800	0.094700
C501	C50	0.902200	0.822000	0.964600
C511	C51	0.825700	0.826000	0.990000
C521	C52	0.808200	0.892000	0.994900
C531	C53	0.860100	0.947600	0.972000
C541	C54	0.936000	0.936000	0.947100
C551	C55	0.878500	0.790600	0.838700
C561	C56	0.802700	0.742200	0.807500
C571	C57	0.800400	0.672000	0.788800
C581	C58	0.878800	0.652000	0.800700
C591	C59	0.951000	0.703200	0.832400
C601	C60	0.718000	0.617600	0.755900
C611	C61	0.574200	0.589800	0.719800
C621	C62	0.654700	0.514400	0.700500
C631	C63	0.314200	0.576400	0.694500
C641	C64	0.397200	0.561000	0.692100
C651	C65	0.482500	0.608000	0.718000
C661	C66	0.479900	0.672200	0.745700
C671	C67	0.395700	0.686800	0.746200
C681	C68	0.764000	0.374000	0.651000
C691	C69	0.750800	0.433800	0.677900
C701	C70	0.668000	0.447600	0.670500
C711	C71	0.601300	0.402400	0.635500
C721	C72	0.619500	0.344800	0.608100
I11	I1	0.033790	0.546900	0.706000
I21	I2	0.218000	0.764380	0.797650
I31	I3	0.836980	0.205680	0.613810
I41	I4	0.777330	0.305180	0.500920
I51	I5	0.649880	0.783360	0.442060
I61	I6	0.828250	0.967320	0.366140
I71	I7	0.513110	0.546900	0.206000
I81	I8	0.546380	0.764380	0.297650
I91	I9	0.368700	0.205680	0.113810
I101	I10	0.527850	0.305180	0.000920
I111	I11	0.133480	0.783360	0.942060
I121	I12	0.139070	0.967320	0.866140
N11	N1	0.205900	0.727800	0.674100
N21	N2	0.323600	0.924600	0.579300
N31	N3	0.255200	0.959600	0.520600
N41	N4	0.156800	0.855600	0.552000
N51	N5	0.593000	0.161600	0.558900
N61	N6	0.918600	0.873800	0.442000
N71	N7	0.820800	0.770400	0.351100
N81	N8	0.995500	0.639000	0.251100
N91	N9	0.953200	0.528000	0.192400
N101	N10	0.826800	0.554600	0.233200
N111	N11	0.325500	0.639800	0.220700
N121	N12	0.631300	0.332800	0.115700
N131	N13	0.521900	0.727800	0.174100
N141	N14	0.601000	0.924600	0.079300
N151	N15	0.704400	0.959600	0.020600
N161	N16	0.698800	0.855600	0.052000
N171	N17	0.568600	0.161600	0.058900
N181	N18	0.955200	0.873800	0.942000
N191	N19	0.949600	0.770400	0.851100
N201	N20	0.643500	0.639000	0.751100
N211	N21	0.574800	0.528000	0.692400
N221	N22	0.727800	0.554600	0.733200
N231	N23	0.314300	0.639800	0.720700
N241	N24	0.701500	0.332800	0.615700
Zn71	Zn7	0.523350	0.332740	0.775460
Zn81	Zn8	0.479650	0.749100	0.930320
Zn91	Zn9	0.943270	0.148860	0.099990
Zn101	Zn10	0.809390	0.332740	0.275460
Zn111	Zn11	0.269450	0.749100	0.430320
Zn121	Zn12	0.205590	0.148860	0.599990
H491	H49	0.563400	0.217800	0.814200
H501	H50	0.510100	0.142800	0.866000
H511	H51	0.328100	0.248400	0.904700
H521	H52	0.391000	0.325200	0.852700
H531	H53	0.411200	0.848600	0.005300
H541	H54	0.364900	0.952800	0.012700
H551	H55	0.404600	0.950600	0.880500
H561	H56	0.436500	0.841800	0.877300
H571	H57	0.082200	0.221600	0.036700
H581	H58	0.213000	0.215000	0.996600
H591	H59	0.154200	0.008200	0.027300
H601	H60	0.023900	0.024000	0.066800
H611	H61	0.120100	0.160400	0.148400
H621	H62	0.247300	0.242000	0.200700
H631	H63	0.118800	0.395600	0.212900
H641	H64	0.996800	0.309800	0.159000
H651	H65	0.744200	0.458400	0.322900
H661	H66	0.603900	0.483200	0.327900
H671	H67	0.463500	0.293600	0.235500
H681	H68	0.604500	0.268400	0.234800
H691	H69	0.181700	0.638200	0.342400
H701	H70	0.201500	0.534400	0.298400
H711	H71	0.456600	0.589200	0.369900
H721	H72	0.426400	0.687000	0.416200
H731	H73	0.654400	0.217800	0.314200
H741	H74	0.632700	0.142800	0.366000
H751	H75	0.920300	0.248400	0.404700
H761	H76	0.934200	0.325200	0.352700
H771	H77	0.437400	0.848600	0.505300
H781	H78	0.587900	0.952800	0.512700
H791	H79	0.546000	0.950600	0.380500
H801	H80	0.405300	0.841800	0.377300
H811	H81	0.139400	0.221600	0.536700
H821	H82	0.002000	0.215000	0.496600
H831	H83	0.854000	0.008200	0.527300
H841	H84	0.000100	0.024000	0.566800
H851	H85	0.040300	0.160400	0.648400
H861	H86	0.994700	0.242000	0.700700
H871	H87	0.276800	0.395600	0.712900
H881	H88	0.313000	0.309800	0.659000
H891	H89	0.714200	0.458400	0.822900
H901	H90	0.879300	0.483200	0.827900
H911	H91	0.830100	0.293600	0.735500
H921	H92	0.663900	0.268400	0.734800
H931	H93	0.456500	0.638200	0.842400
H941	H94	0.332900	0.534400	0.798400
H951	H95	0.132600	0.589200	0.869900
H961	H96	0.260600	0.687000	0.916200
C731	C73	0.513000	0.223200	0.832100
C741	C74	0.481700	0.178400	0.862900
C751	C75	0.409300	0.184400	0.889500
C761	C76	0.375800	0.240400	0.885800
C771	C77	0.412000	0.285000	0.854500
C781	C78	0.365500	0.130200	0.920600
C791	C79	0.359400	0.031400	0.950300
C801	C80	0.267400	0.097000	0.976700
C811	C81	0.409100	0.870000	0.980000
C821	C82	0.383100	0.932000	0.985100
C831	C83	0.385400	0.962600	0.946800
C841	C84	0.405100	0.930200	0.906400
C851	C85	0.425700	0.867200	0.905300
C861	C86	0.097800	0.178000	0.035400
C871	C87	0.174300	0.174000	0.010000
C881	C88	0.191800	0.108000	0.005100
C891	C89	0.139900	0.052400	0.028000
C901	C90	0.064000	0.064000	0.052900
C911	C91	0.121500	0.209400	0.161300
C921	C92	0.197300	0.257800	0.192500
C931	C93	0.199600	0.328000	0.211200
C941	C94	0.121200	0.348000	0.199300
C951	C95	0.049000	0.296800	0.167600
C961	C96	0.282000	0.382400	0.244100
C971	C97	0.425800	0.410200	0.280200
C981	C98	0.345300	0.485600	0.299500
C991	C99	0.685800	0.423600	0.305500
C1001	C100	0.602800	0.439000	0.307900
C1011	C101	0.517500	0.392000	0.282000
C1021	C102	0.520100	0.327800	0.254300
C1031	C103	0.604300	0.313200	0.253800
C1041	C104	0.236000	0.626000	0.349000
C1051	C105	0.249200	0.566200	0.322100
C1061	C106	0.332000	0.552400	0.329500
C1071	C107	0.398700	0.597600	0.364500
C1081	C108	0.380500	0.655200	0.391900
C1091	C109	0.710200	0.223200	0.332100
C1101	C110	0.696700	0.178400	0.362900
C1111	C111	0.775100	0.184400	0.389500
C1121	C112	0.864600	0.240400	0.385800
C1131	C113	0.873000	0.285000	0.354500
C1141	C114	0.764700	0.130200	0.420600
C1151	C115	0.672000	0.031400	0.450300
C1161	C116	0.829600	0.097000	0.476700
C1171	C117	0.460900	0.870000	0.480000
C1181	C118	0.548900	0.932000	0.485100
C1191	C119	0.577200	0.962600	0.446800
C1201	C120	0.525100	0.930200	0.406400
C1211	C121	0.441500	0.867200	0.405300
C1221	C122	0.080200	0.178000	0.535400
C1231	C123	0.999700	0.174000	0.510000
C1241	C124	0.916200	0.108000	0.505100
C1251	C125	0.912500	0.052400	0.528000
C1261	C126	0.000000	0.064000	0.552900
C1271	C127	0.087900	0.209400	0.661300
C1281	C128	0.060500	0.257800	0.692500
C1291	C129	0.128400	0.328000	0.711200
C1301	C130	0.226800	0.348000	0.699300
C1311	C131	0.247800	0.296800	0.667600
C1321	C132	0.100400	0.382400	0.744100
C1331	C133	0.984400	0.410200	0.780200
C1341	C134	0.140300	0.485600	0.799500
C1351	C135	0.737800	0.423600	0.805500
C1361	C136	0.836200	0.439000	0.807900
C1371	C137	0.874500	0.392000	0.782000
C1381	C138	0.807700	0.327800	0.754300
C1391	C139	0.708900	0.313200	0.753800
C1401	C140	0.390000	0.626000	0.849000
C1411	C141	0.317000	0.566200	0.822100
C1421	C142	0.220400	0.552400	0.829500
C1431	C143	0.198900	0.597600	0.864500
C1441	C144	0.274700	0.655200	0.891900
I131	I13	0.486890	0.453100	0.794000
I141	I14	0.453620	0.235620	0.702350
I151	I15	0.631300	0.794320	0.886190
I161	I16	0.472150	0.694820	0.999080
I171	I17	0.866520	0.216640	0.057940
I181	I18	0.860930	0.032680	0.133860
I191	I19	0.966210	0.453100	0.294000
I201	I20	0.782000	0.235620	0.202350
I211	I21	0.163020	0.794320	0.386190
I221	I22	0.222670	0.694820	0.499080
I231	I23	0.350120	0.216640	0.557940
I241	I24	0.171750	0.032680	0.633860
N251	N25	0.478100	0.272200	0.825900
N261	N26	0.399000	0.075400	0.920700
N271	N27	0.295600	0.040400	0.979400
N281	N28	0.301200	0.144400	0.948000
N291	N29	0.431400	0.838400	0.941100
N301	N30	0.044800	0.126200	0.058000
N311	N31	0.050400	0.229600	0.148900
N321	N32	0.356500	0.361000	0.248900
N331	N33	0.425200	0.472000	0.307600
N341	N34	0.272200	0.445400	0.266800
N351	N35	0.685700	0.360200	0.279300
N361	N36	0.298500	0.667200	0.384300
N371	N37	0.794100	0.272200	0.325900
N381	N38	0.676400	0.075400	0.420700
N391	N39	0.744800	0.040400	0.479400
N401	N40	0.843200	0.144400	0.448000
N411	N41	0.407000	0.838400	0.441100
N421	N42	0.081400	0.126200	0.558000
N431	N43	0.179200	0.229600	0.648900
N441	N44	0.004500	0.361000	0.748900
N451	N45	0.046800	0.472000	0.807600
N461	N46	0.173200	0.445400	0.766800
N471	N47	0.674500	0.360200	0.779300
N481	N48	0.368700	0.667200	0.884300
