data_REXFUX_clean_PM
_symmetry_space_group_name_H-M	'P1'
_cell_length_a	14.767200
_cell_length_b	19.021500
_cell_length_c	30.527000
_cell_angle_alpha	100.209000
_cell_angle_beta	90.000000
_cell_angle_gamma	112.841000
_symmetry_Int_Tables_number 1

loop_
_symmetry_equiv_pos_as_xyz
'x,y,z'

loop_
_atom_site_label
_atom_site_type_symbol
_atom_site_fract_x
_atom_site_fract_y
_atom_site_fract_z
Zn11	Zn1	0.474230	0.654840	0.227790
Zn21	Zn2	0.052710	0.848480	0.900120
Zn31	Zn3	0.521630	0.250980	0.064390
Zn41	Zn4	0.180610	0.654840	0.727790
Zn51	Zn5	0.795770	0.848480	0.400120
Zn61	Zn6	0.729350	0.250980	0.564390
H11	H1	0.498700	0.808200	0.211200
H21	H2	0.553900	0.887800	0.160100
H31	H3	0.632700	0.723600	0.086800
H41	H4	0.567200	0.645000	0.138600
H51	H5	0.598100	0.152800	0.995100
H61	H6	0.642200	0.047400	0.991300
H71	H7	0.581700	0.042200	0.118900
H81	H8	0.532100	0.143800	0.118900
H91	H9	0.927100	0.776600	0.968600
H101	H10	0.805700	0.788800	0.014500
H111	H11	0.967600	0.971000	0.929400
H121	H12	0.847400	0.989000	0.974500
H131	H13	0.873600	0.839000	0.854400
H141	H14	0.749100	0.760000	0.799200
H151	H15	0.880200	0.606800	0.781300
H161	H16	0.997400	0.688200	0.838800
H171	H17	0.252100	0.533600	0.676800
H181	H18	0.396300	0.511000	0.670600
H191	H19	0.536800	0.712600	0.756900
H201	H20	0.389600	0.728000	0.762600
H211	H21	0.817200	0.363000	0.651500
H221	H22	0.795700	0.462600	0.698600
H231	H23	0.550400	0.420000	0.621300
H241	H24	0.579400	0.319600	0.577000
H251	H25	0.309500	0.808200	0.711200
H261	H26	0.333900	0.887800	0.660100
H271	H27	0.090900	0.723600	0.586800
H281	H28	0.077800	0.645000	0.638600
H291	H29	0.554700	0.152800	0.495100
H301	H30	0.405200	0.047400	0.491300
H311	H31	0.460500	0.042200	0.618900
H321	H32	0.611700	0.143800	0.618900
H331	H33	0.849500	0.776600	0.468600
H341	H34	0.983100	0.788800	0.514500
H351	H35	0.003400	0.971000	0.429400
H361	H36	0.141600	0.989000	0.474500
H371	H37	0.965400	0.839000	0.354400
H381	H38	0.010900	0.760000	0.299200
H391	H39	0.726600	0.606800	0.281300
H401	H40	0.690800	0.688200	0.338800
H411	H41	0.281500	0.533600	0.176800
H421	H42	0.114700	0.511000	0.170600
H431	H43	0.175800	0.712600	0.256900
H441	H44	0.338400	0.728000	0.262600
H451	H45	0.545800	0.363000	0.151500
H461	H46	0.666900	0.462600	0.198600
H471	H47	0.869600	0.420000	0.121300
H481	H48	0.740200	0.319600	0.077000
C11	C1	0.524890	0.790580	0.185100
C21	C2	0.558900	0.838800	0.155200
C31	C3	0.601670	0.815140	0.116950
C41	C4	0.604270	0.741940	0.111900
C51	C5	0.565830	0.695260	0.143000
C61	C6	0.639170	0.865340	0.084540
C71	C7	0.644090	0.966580	0.053760
C81	C8	0.736960	0.899920	0.028700
C91	C9	0.593640	0.129280	0.020400
C101	C10	0.620060	0.066720	0.018200
C111	C11	0.614930	0.032060	0.054330
C121	C12	0.584000	0.063000	0.092600
C131	C13	0.556200	0.124400	0.092600
C141	C14	0.910400	0.820400	0.969800
C151	C15	0.838200	0.827400	0.997400
C161	C16	0.814350	0.891100	0.999730
C171	C17	0.934080	0.933360	0.947000
C181	C18	0.862520	0.944640	0.973970
C191	C19	0.873950	0.790700	0.839700
C201	C20	0.799810	0.744220	0.806700
C211	C21	0.801120	0.674840	0.785230
C221	C22	0.876420	0.653640	0.796360
C231	C23	0.946450	0.703100	0.830300
C241	C24	0.722220	0.623440	0.750280
C251	C25	0.573180	0.593560	0.715280
C261	C26	0.660030	0.519460	0.694120
C271	C27	0.310410	0.569620	0.694000
C281	C28	0.396390	0.555780	0.690200
C291	C29	0.481690	0.607780	0.715000
C301	C30	0.478540	0.673680	0.741000
C311	C31	0.390930	0.683060	0.743700
C321	C32	0.762630	0.375260	0.645400
C331	C33	0.750410	0.434420	0.673400
C341	C34	0.670480	0.453160	0.664650
C351	C35	0.606100	0.409600	0.628200
C361	C36	0.624500	0.350000	0.601900
C371	C37	0.265690	0.790580	0.685100
C381	C38	0.279900	0.838800	0.655200
C391	C39	0.213470	0.815140	0.616950
C401	C40	0.137670	0.741940	0.611900
C411	C41	0.129430	0.695260	0.643000
C421	C42	0.226170	0.865340	0.584540
C431	C43	0.322490	0.966580	0.553760
C441	C44	0.162960	0.899920	0.528700
C451	C45	0.535640	0.129280	0.520400
C461	C46	0.446660	0.066720	0.518200
C471	C47	0.417130	0.032060	0.554330
C481	C48	0.479000	0.063000	0.592600
C491	C49	0.568200	0.124400	0.592600
C501	C50	0.910000	0.820400	0.469800
C511	C51	0.989200	0.827400	0.497400
C521	C52	0.076750	0.891100	0.499730
C531	C53	0.999280	0.933360	0.447000
C541	C54	0.082120	0.944640	0.473970
C551	C55	0.916750	0.790700	0.339700
C561	C56	0.944410	0.744220	0.306700
C571	C57	0.873720	0.674840	0.285230
C581	C58	0.777220	0.653640	0.296360
C591	C59	0.756650	0.703100	0.330300
C601	C60	0.901220	0.623440	0.250280
C611	C61	0.020380	0.593560	0.215280
C621	C62	0.859430	0.519460	0.194120
C631	C63	0.259210	0.569620	0.194000
C641	C64	0.159390	0.555780	0.190200
C651	C65	0.126090	0.607780	0.215000
C661	C66	0.195140	0.673680	0.241000
C671	C67	0.292130	0.683060	0.243700
C681	C68	0.612630	0.375260	0.145400
C691	C69	0.684010	0.434420	0.173400
C701	C70	0.782680	0.453160	0.164650
C711	C71	0.803500	0.409600	0.128200
C721	C72	0.725500	0.350000	0.101900
I11	I1	0.537130	0.746720	0.303050
I21	I2	0.498920	0.529300	0.204290
I31	I3	0.136030	0.965960	0.864290
I41	I4	0.130890	0.776740	0.938960
I51	I5	0.364970	0.215660	0.104830
I61	I6	0.547780	0.300280	0.991860
I71	I7	0.209590	0.746720	0.803050
I81	I8	0.030380	0.529300	0.704290
I91	I9	0.829930	0.965960	0.364290
I101	I10	0.645850	0.776740	0.438960
I111	I11	0.850690	0.215660	0.604830
I121	I12	0.752500	0.300280	0.491860
N11	N1	0.526550	0.719900	0.179550
N21	N2	0.608000	0.921600	0.084400
N31	N3	0.707780	0.956960	0.024700
N41	N4	0.704660	0.851920	0.057000
N51	N5	0.561670	0.157140	0.058040
N61	N6	0.956730	0.872460	0.945080
N71	N7	0.945750	0.770100	0.851470
N81	N8	0.644270	0.643740	0.745680
N91	N9	0.576990	0.532980	0.687600
N101	N10	0.730920	0.561040	0.726520
N111	N11	0.307250	0.631300	0.720840
N121	N12	0.700650	0.333300	0.609230
N131	N13	0.193350	0.719900	0.679550
N141	N14	0.313600	0.921600	0.584400
N151	N15	0.249180	0.956960	0.524700
N161	N16	0.147260	0.851920	0.557000
N171	N17	0.595470	0.157140	0.558040
N181	N18	0.915730	0.872460	0.445080
N191	N19	0.824350	0.770100	0.351470
N201	N20	0.999470	0.643740	0.245680
N211	N21	0.955990	0.532980	0.187600
N221	N22	0.830120	0.561040	0.226520
N231	N23	0.324050	0.631300	0.220840
N241	N24	0.632650	0.333300	0.109230
Zn71	Zn7	0.819390	0.345160	0.272210
Zn81	Zn8	0.204230	0.151520	0.599880
Zn91	Zn9	0.270650	0.749020	0.435610
Zn101	Zn10	0.525770	0.345160	0.772210
Zn111	Zn11	0.947290	0.151520	0.099880
Zn121	Zn12	0.478370	0.749020	0.935610
H491	H49	0.690500	0.191800	0.288800
H501	H50	0.666100	0.112200	0.339900
H511	H51	0.909100	0.276400	0.413200
H521	H52	0.922200	0.355000	0.361400
H531	H53	0.445300	0.847200	0.504900
H541	H54	0.594800	0.952600	0.508700
H551	H55	0.539500	0.957800	0.381100
H561	H56	0.388300	0.856200	0.381100
H571	H57	0.150500	0.223400	0.531400
H581	H58	0.016900	0.211200	0.485500
H591	H59	0.996600	0.029000	0.570600
H601	H60	0.858400	0.011000	0.525500
H611	H61	0.034600	0.161000	0.645600
H621	H62	0.989100	0.240000	0.700800
H631	H63	0.273400	0.393200	0.718700
H641	H64	0.309200	0.311800	0.661200
H651	H65	0.718500	0.466400	0.823200
H661	H66	0.885300	0.489000	0.829400
H671	H67	0.824200	0.287400	0.743100
H681	H68	0.661600	0.272000	0.737400
H691	H69	0.454200	0.637000	0.848500
H701	H70	0.333100	0.537400	0.801400
H711	H71	0.130400	0.580000	0.878700
H721	H72	0.259800	0.680400	0.923000
H731	H73	0.501300	0.191800	0.788800
H741	H74	0.446100	0.112200	0.839900
H751	H75	0.367300	0.276400	0.913200
H761	H76	0.432800	0.355000	0.861400
H771	H77	0.401900	0.847200	0.004900
H781	H78	0.357800	0.952600	0.008700
H791	H79	0.418300	0.957800	0.881100
H801	H80	0.467900	0.856200	0.881100
H811	H81	0.072900	0.223400	0.031400
H821	H82	0.194300	0.211200	0.985500
H831	H83	0.032400	0.029000	0.070600
H841	H84	0.152600	0.011000	0.025500
H851	H85	0.126400	0.161000	0.145600
H861	H86	0.250900	0.240000	0.200800
H871	H87	0.119800	0.393200	0.218700
H881	H88	0.002600	0.311800	0.161200
H891	H89	0.747900	0.466400	0.323200
H901	H90	0.603700	0.489000	0.329400
H911	H91	0.463200	0.287400	0.243100
H921	H92	0.610400	0.272000	0.237400
H931	H93	0.182800	0.637000	0.348500
H941	H94	0.204300	0.537400	0.301400
H951	H95	0.449600	0.580000	0.378700
H961	H96	0.420600	0.680400	0.423000
C731	C73	0.734310	0.209420	0.314900
C741	C74	0.720100	0.161200	0.344800
C751	C75	0.786530	0.184860	0.383050
C761	C76	0.862330	0.258060	0.388100
C771	C77	0.870570	0.304740	0.357000
C781	C78	0.773830	0.134660	0.415460
C791	C79	0.677510	0.033420	0.446240
C801	C80	0.837040	0.100080	0.471300
C811	C81	0.464360	0.870720	0.479600
C821	C82	0.553340	0.933280	0.481800
C831	C83	0.582870	0.967940	0.445670
C841	C84	0.521000	0.937000	0.407400
C851	C85	0.431800	0.875600	0.407400
C861	C86	0.090000	0.179600	0.530200
C871	C87	0.010800	0.172600	0.502600
C881	C88	0.923250	0.108900	0.500270
C891	C89	0.000720	0.066640	0.553000
C901	C90	0.917880	0.055360	0.526030
C911	C91	0.083250	0.209300	0.660300
C921	C92	0.055590	0.255780	0.693300
C931	C93	0.126280	0.325160	0.714770
C941	C94	0.222780	0.346360	0.703640
C951	C95	0.243350	0.296900	0.669700
C961	C96	0.098780	0.376560	0.749720
C971	C97	0.979620	0.406440	0.784720
C981	C98	0.140570	0.480540	0.805880
C991	C99	0.740790	0.430380	0.806000
C1001	C100	0.840610	0.444220	0.809800
C1011	C101	0.873910	0.392220	0.785000
C1021	C102	0.804860	0.326320	0.759000
C1031	C103	0.707870	0.316940	0.756300
C1041	C104	0.387370	0.624740	0.854600
C1051	C105	0.315990	0.565580	0.826600
C1061	C106	0.217320	0.546840	0.835350
C1071	C107	0.196500	0.590400	0.871800
C1081	C108	0.274500	0.650000	0.898100
C1091	C109	0.475110	0.209420	0.814900
C1101	C110	0.441100	0.161200	0.844800
C1111	C111	0.398330	0.184860	0.883050
C1121	C112	0.395730	0.258060	0.888100
C1131	C113	0.434170	0.304740	0.857000
C1141	C114	0.360830	0.134660	0.915460
C1151	C115	0.355910	0.033420	0.946240
C1161	C116	0.263040	0.100080	0.971300
C1171	C117	0.406360	0.870720	0.979600
C1181	C118	0.379940	0.933280	0.981800
C1191	C119	0.385070	0.967940	0.945670
C1201	C120	0.416000	0.937000	0.907400
C1211	C121	0.443800	0.875600	0.907400
C1221	C122	0.089600	0.179600	0.030200
C1231	C123	0.161800	0.172600	0.002600
C1241	C124	0.185650	0.108900	0.000270
C1251	C125	0.065920	0.066640	0.053000
C1261	C126	0.137480	0.055360	0.026030
C1271	C127	0.126050	0.209300	0.160300
C1281	C128	0.200190	0.255780	0.193300
C1291	C129	0.198880	0.325160	0.214770
C1301	C130	0.123580	0.346360	0.203640
C1311	C131	0.053550	0.296900	0.169700
C1321	C132	0.277780	0.376560	0.249720
C1331	C133	0.426820	0.406440	0.284720
C1341	C134	0.339970	0.480540	0.305880
C1351	C135	0.689590	0.430380	0.306000
C1361	C136	0.603610	0.444220	0.309800
C1371	C137	0.518310	0.392220	0.285000
C1381	C138	0.521460	0.326320	0.259000
C1391	C139	0.609070	0.316940	0.256300
C1401	C140	0.237370	0.624740	0.354600
C1411	C141	0.249590	0.565580	0.326600
C1421	C142	0.329520	0.546840	0.335350
C1431	C143	0.393900	0.590400	0.371800
C1441	C144	0.375500	0.650000	0.398100
I131	I13	0.790410	0.253280	0.196950
I141	I14	0.969620	0.470700	0.295710
I151	I15	0.170070	0.034040	0.635710
I161	I16	0.354150	0.223260	0.561040
I171	I17	0.149310	0.784340	0.395170
I181	I18	0.247500	0.699720	0.508140
I191	I19	0.462870	0.253280	0.696950
I201	I20	0.501080	0.470700	0.795710
I211	I21	0.863970	0.034040	0.135710
I221	I22	0.869110	0.223260	0.061040
I231	I23	0.635030	0.784340	0.895170
I241	I24	0.452220	0.699720	0.008140
N251	N25	0.806650	0.280100	0.320450
N261	N26	0.686400	0.078400	0.415600
N271	N27	0.750820	0.043040	0.475300
N281	N28	0.852740	0.148080	0.443000
N291	N29	0.404530	0.842860	0.441960
N301	N30	0.084270	0.127540	0.554920
N311	N31	0.175650	0.229900	0.648530
N321	N32	0.000530	0.356260	0.754320
N331	N33	0.044010	0.467020	0.812400
N341	N34	0.169880	0.438960	0.773480
N351	N35	0.675950	0.368700	0.779160
N361	N36	0.367350	0.666700	0.890770
N371	N37	0.473450	0.280100	0.820450
N381	N38	0.392000	0.078400	0.915600
N391	N39	0.292220	0.043040	0.975300
N401	N40	0.295340	0.148080	0.943000
N411	N41	0.438330	0.842860	0.941960
N421	N42	0.043270	0.127540	0.054920
N431	N43	0.054250	0.229900	0.148530
N441	N44	0.355730	0.356260	0.254320
N451	N45	0.423010	0.467020	0.312400
N461	N46	0.269080	0.438960	0.273480
N471	N47	0.692750	0.368700	0.279160
N481	N48	0.299350	0.666700	0.390770
