data_REYCEF_clean_PM
_symmetry_space_group_name_H-M	'P1'
_cell_length_a	8.006200
_cell_length_b	12.717100
_cell_length_c	12.717100
_cell_angle_alpha	106.160000
_cell_angle_beta	102.608000
_cell_angle_gamma	77.392500
_symmetry_Int_Tables_number 1

loop_
_symmetry_equiv_pos_as_xyz
'x,y,z'

loop_
_atom_site_label
_atom_site_type_symbol
_atom_site_fract_x
_atom_site_fract_y
_atom_site_fract_z
Zn11	Zn1	0.968220	0.457000	0.713940
Zn21	Zn2	0.531780	0.713940	0.457000
Zn31	Zn3	0.031780	0.543000	0.286060
Zn41	Zn4	0.468220	0.286060	0.543000
H11	H1	0.794600	0.554600	0.049400
H21	H2	0.333700	0.720900	0.132300
H31	H3	0.400400	0.636800	0.814000
H41	H4	0.027400	0.727100	0.039100
H51	H5	0.114500	0.834000	0.072200
H61	H6	0.725800	0.788100	0.009300
H71	H7	0.479600	0.879200	0.917400
H81	H8	0.705400	0.049400	0.554600
H91	H9	0.166300	0.132300	0.720900
H101	H10	0.099600	0.814000	0.636800
H111	H11	0.472600	0.039100	0.727100
H121	H12	0.385500	0.072200	0.834000
H131	H13	0.774200	0.009300	0.788100
H141	H14	0.020400	0.917400	0.879200
H151	H15	0.205400	0.445400	0.950600
H161	H16	0.666300	0.279100	0.867700
H171	H17	0.599600	0.363200	0.186000
H181	H18	0.972600	0.272900	0.960900
H191	H19	0.885500	0.166000	0.927800
H201	H20	0.274200	0.211900	0.990700
H211	H21	0.520400	0.120800	0.082600
H221	H22	0.294600	0.950600	0.445400
H231	H23	0.833700	0.867700	0.279100
H241	H24	0.900400	0.186000	0.363200
H251	H25	0.527400	0.960900	0.272900
H261	H26	0.614500	0.927800	0.166000
H271	H27	0.225800	0.990700	0.211900
H281	H28	0.979600	0.082600	0.120800
C11	C1	0.729300	0.546280	0.832720
C21	C2	0.614000	0.590960	0.918040
C31	C3	0.681400	0.589030	0.029570
C41	C4	0.576400	0.639420	0.109380
C51	C5	0.639000	0.640280	0.230120
C61	C6	0.403800	0.687500	0.078500
C71	C7	0.337800	0.685540	0.968260
C81	C8	0.444500	0.637350	0.888050
C91	C9	0.057800	0.782300	0.010500
C101	C10	0.899200	0.842300	0.952300
C111	C11	0.736400	0.832000	0.964200
C121	C12	0.588600	0.886900	0.909100
C131	C13	0.770700	0.832720	0.546280
C141	C14	0.886000	0.918040	0.590960
C151	C15	0.818600	0.029570	0.589030
C161	C16	0.923600	0.109380	0.639420
C171	C17	0.861000	0.230120	0.640280
C181	C18	0.096200	0.078500	0.687500
C191	C19	0.162200	0.968260	0.685540
C201	C20	0.055500	0.888050	0.637350
C211	C21	0.442200	0.010500	0.782300
C221	C22	0.600800	0.952300	0.842300
C231	C23	0.763600	0.964200	0.832000
C241	C24	0.911400	0.909100	0.886900
C251	C25	0.270700	0.453720	0.167280
C261	C26	0.386000	0.409040	0.081960
C271	C27	0.318600	0.410970	0.970430
C281	C28	0.423600	0.360580	0.890620
C291	C29	0.361000	0.359720	0.769880
C301	C30	0.596200	0.312500	0.921500
C311	C31	0.662200	0.314460	0.031740
C321	C32	0.555500	0.362650	0.111950
C331	C33	0.942200	0.217700	0.989500
C341	C34	0.100800	0.157700	0.047700
C351	C35	0.263600	0.168000	0.035800
C361	C36	0.411400	0.113100	0.090900
C371	C37	0.229300	0.167280	0.453720
C381	C38	0.114000	0.081960	0.409040
C391	C39	0.181400	0.970430	0.410970
C401	C40	0.076400	0.890620	0.360580
C411	C41	0.139000	0.769880	0.359720
C421	C42	0.903800	0.921500	0.312500
C431	C43	0.837800	0.031740	0.314460
C441	C44	0.944500	0.111950	0.362650
C451	C45	0.557800	0.989500	0.217700
C461	C46	0.399200	0.047700	0.157700
C471	C47	0.236400	0.035800	0.168000
C481	C48	0.088600	0.090900	0.113100
O11	O1	0.887800	0.514630	0.862870
O21	O2	0.666200	0.541770	0.731050
O31	O3	0.771400	0.573660	0.257100
O41	O4	0.547100	0.705390	0.296410
O51	O5	0.171000	0.729900	0.930520
O61	O6	0.612200	0.862870	0.514630
O71	O7	0.833800	0.731050	0.541770
O81	O8	0.728600	0.257100	0.573660
O91	O9	0.952900	0.296410	0.705390
O101	O10	0.329000	0.930520	0.729900
O111	O11	0.112200	0.485370	0.137130
O121	O12	0.333800	0.458230	0.268950
O131	O13	0.228600	0.426340	0.742900
O141	O14	0.452900	0.294610	0.703590
O151	O15	0.829000	0.270100	0.069480
O161	O16	0.387800	0.137130	0.485370
O171	O17	0.166200	0.268950	0.458230
O181	O18	0.271400	0.742900	0.426340
O191	O19	0.047100	0.703590	0.294610
O201	O20	0.671000	0.069480	0.270100
