data_REYPES_clean_PM
_symmetry_space_group_name_H-M	'P1'
_cell_length_a	39.491200
_cell_length_b	23.798400
_cell_length_c	8.913100
_cell_angle_alpha	90.000000
_cell_angle_beta	90.000000
_cell_angle_gamma	90.000000
_symmetry_Int_Tables_number 1

loop_
_symmetry_equiv_pos_as_xyz
'x,y,z'

loop_
_atom_site_label
_atom_site_type_symbol
_atom_site_fract_x
_atom_site_fract_y
_atom_site_fract_z
Zn11	Zn1	0.021640	0.663730	0.585940
Zn21	Zn2	0.900270	0.832760	0.428460
Zn31	Zn3	0.144280	0.829620	0.419480
C11	C1	0.119320	0.728500	0.577600
N11	N1	0.976160	0.710700	0.531900
N21	N2	0.185840	0.887400	0.392600
N31	N3	0.357080	0.114000	0.106400
N41	N4	0.968410	0.756500	0.457300
N51	N5	0.936450	0.770000	0.489600
N61	N6	0.107470	0.765900	0.477100
N71	N7	0.066160	0.708200	0.526900
N81	N8	0.075510	0.753600	0.447400
C21	C2	0.924520	0.731800	0.589900
C31	C3	0.093490	0.691500	0.611000
C41	C4	0.950050	0.693500	0.616300
C51	C5	0.244600	0.905500	0.413300
H11	H1	0.265500	0.895000	0.452300
C61	C6	0.216190	0.874300	0.444400
H21	H2	0.218400	0.842500	0.504500
C71	C7	0.209900	0.966600	0.268000
H31	H3	0.207100	0.998000	0.207100
N91	N9	0.272260	0.983800	0.297800
C81	C8	0.241740	0.952400	0.323900
C91	C9	0.300400	0.049600	0.169900
C101	C10	0.354900	0.083700	0.230700
H41	H4	0.373000	0.085000	0.297800
C111	C11	0.331600	0.111700	0.013800
H51	H5	0.332800	0.132100	0.925000
C121	C12	0.327600	0.050700	0.266100
H61	H6	0.327500	0.029400	0.353600
N101	N10	0.269830	0.017600	0.193400
C131	C13	0.302600	0.080400	0.041300
H71	H7	0.284800	0.080500	0.972700
C141	C14	0.182700	0.933200	0.304800
H81	H8	0.161400	0.942500	0.267700
O11	O1	0.873200	0.782200	0.584100
O21	O2	0.171850	0.773800	0.556700
O31	O3	0.060570	0.615200	0.688800
C151	C15	0.088380	0.640500	0.705500
C161	C16	0.889040	0.742800	0.647500
C171	C17	0.154990	0.737100	0.627700
O41	O4	0.111590	0.623600	0.792100
O51	O5	0.166810	0.709500	0.734500
O61	O6	0.982480	0.616500	0.689600
O71	O7	0.878050	0.714400	0.753900
C181	C18	0.954650	0.640300	0.704200
O81	O8	0.930460	0.622800	0.783200
N111	N11	0.018900	0.616400	0.386200
C191	C19	0.016040	0.560900	0.392300
H91	H9	0.017200	0.543900	0.486100
C201	C20	0.018100	0.640400	0.250600
H101	H10	0.019800	0.679300	0.245400
N121	N12	0.131530	0.875600	0.627700
C211	C21	0.106700	0.912800	0.629900
H111	H11	0.093600	0.917100	0.544000
C221	C22	0.150200	0.869800	0.751600
H121	H12	0.168000	0.844100	0.750700
N131	N13	0.084260	0.110100	0.388300
C231	C23	0.014900	0.611100	0.118200
H131	H13	0.015800	0.628900	0.025400
C241	C24	0.144300	0.900500	0.882400
H141	H14	0.157600	0.895300	0.967200
C251	C25	0.118600	0.937900	0.882400
N141	N14	0.008100	0.522000	0.992000
C261	C26	0.099200	0.945700	0.753700
H151	H15	0.081800	0.972100	0.751000
C271	C27	0.086600	0.055800	0.403900
H161	H16	0.086700	0.041800	0.501300
C281	C28	0.010100	0.553000	0.131200
C291	C29	0.011400	0.526600	0.269100
H171	H17	0.009300	0.487800	0.278400
C301	C30	0.081000	0.127000	0.249200
H181	H18	0.077700	0.165200	0.233300
N151	N15	0.090710	0.003500	0.013500
N161	N16	0.114630	0.971300	0.017300
C311	C31	0.087900	0.037500	0.146900
C321	C32	0.088700	0.017400	0.289100
H191	H19	0.090700	0.979100	0.308400
C331	C33	0.082000	0.093000	0.125000
H201	H20	0.078700	0.107500	0.029200
Zn41	Zn4	0.478360	0.836270	0.585940
Zn51	Zn5	0.599730	0.667240	0.428460
Zn61	Zn6	0.355720	0.670380	0.419480
C341	C34	0.380680	0.771500	0.577600
N171	N17	0.523840	0.789300	0.531900
N181	N18	0.314160	0.612600	0.392600
N191	N19	0.142920	0.386000	0.106400
N201	N20	0.531590	0.743500	0.457300
N211	N21	0.563550	0.730000	0.489600
N221	N22	0.392530	0.734100	0.477100
N231	N23	0.433840	0.791800	0.526900
N241	N24	0.424490	0.746400	0.447400
C351	C35	0.575480	0.768200	0.589900
C361	C36	0.406510	0.808500	0.611000
C371	C37	0.549950	0.806500	0.616300
C381	C38	0.255400	0.594500	0.413300
H211	H21	0.234500	0.605000	0.452300
C391	C39	0.283810	0.625700	0.444400
H221	H22	0.281600	0.657500	0.504500
C401	C40	0.290100	0.533400	0.268000
H231	H23	0.292900	0.502000	0.207100
N251	N25	0.227740	0.516200	0.297800
C411	C41	0.258260	0.547600	0.323900
C421	C42	0.199600	0.450400	0.169900
C431	C43	0.145100	0.416300	0.230700
H241	H24	0.127000	0.415000	0.297800
C441	C44	0.168400	0.388300	0.013800
H251	H25	0.167200	0.367900	0.925000
C451	C45	0.172400	0.449300	0.266100
H261	H26	0.172500	0.470600	0.353600
N261	N26	0.230170	0.482400	0.193400
C461	C46	0.197400	0.419600	0.041300
H271	H27	0.215200	0.419500	0.972700
C471	C47	0.317300	0.566800	0.304800
H281	H28	0.338600	0.557500	0.267700
O91	O9	0.626800	0.717800	0.584100
O101	O10	0.328150	0.726200	0.556700
O111	O11	0.439430	0.884800	0.688800
C481	C48	0.411620	0.859500	0.705500
C491	C49	0.610960	0.757200	0.647500
C501	C50	0.345010	0.762900	0.627700
O121	O12	0.388410	0.876400	0.792100
O131	O13	0.333190	0.790500	0.734500
O141	O14	0.517520	0.883500	0.689600
O151	O15	0.621950	0.785600	0.753900
C511	C51	0.545350	0.859700	0.704200
O161	O16	0.569540	0.877200	0.783200
N271	N27	0.481100	0.883600	0.386200
C521	C52	0.483960	0.939100	0.392300
H291	H29	0.482800	0.956100	0.486100
C531	C53	0.481900	0.859600	0.250600
H301	H30	0.480200	0.820700	0.245400
N281	N28	0.368470	0.624400	0.627700
C541	C54	0.393300	0.587200	0.629900
H311	H31	0.406400	0.582900	0.544000
C551	C55	0.349800	0.630200	0.751600
H321	H32	0.332000	0.655900	0.750700
N291	N29	0.415740	0.389900	0.388300
C561	C56	0.485100	0.888900	0.118200
H331	H33	0.484200	0.871100	0.025400
C571	C57	0.355700	0.599500	0.882400
H341	H34	0.342400	0.604700	0.967200
C581	C58	0.381400	0.562100	0.882400
N301	N30	0.491900	0.978000	0.992000
C591	C59	0.400800	0.554300	0.753700
H351	H35	0.418200	0.527900	0.751000
C601	C60	0.413400	0.444200	0.403900
H361	H36	0.413300	0.458200	0.501300
C611	C61	0.489900	0.947000	0.131200
C621	C62	0.488600	0.973400	0.269100
H371	H37	0.490700	0.012200	0.278400
C631	C63	0.419000	0.373000	0.249200
H381	H38	0.422300	0.334800	0.233300
N311	N31	0.409290	0.496500	0.013500
N321	N32	0.385370	0.528700	0.017300
C641	C64	0.412100	0.462500	0.146900
C651	C65	0.411300	0.482600	0.289100
H391	H39	0.409300	0.520900	0.308400
C661	C66	0.418000	0.407000	0.125000
H401	H40	0.421300	0.392500	0.029200
Zn71	Zn7	0.978360	0.163730	0.914060
Zn81	Zn8	0.099730	0.332760	0.071540
Zn91	Zn9	0.855720	0.329620	0.080520
C671	C67	0.880680	0.228500	0.922400
N331	N33	0.023840	0.210700	0.968100
N341	N34	0.814160	0.387400	0.107400
N351	N35	0.642920	0.614000	0.393600
N361	N36	0.031590	0.256500	0.042700
N371	N37	0.063550	0.270000	0.010400
N381	N38	0.892530	0.265900	0.022900
N391	N39	0.933840	0.208200	0.973100
N401	N40	0.924490	0.253600	0.052600
C681	C68	0.075480	0.231800	0.910100
C691	C69	0.906510	0.191500	0.889000
C701	C70	0.049950	0.193500	0.883700
C711	C71	0.755400	0.405500	0.086700
H411	H41	0.734500	0.395000	0.047700
C721	C72	0.783810	0.374300	0.055600
H421	H42	0.781600	0.342500	0.995500
C731	C73	0.790100	0.466600	0.232000
H431	H43	0.792900	0.498000	0.292900
N411	N41	0.727740	0.483800	0.202200
C741	C74	0.758260	0.452400	0.176100
C751	C75	0.699600	0.549600	0.330100
C761	C76	0.645100	0.583700	0.269300
H441	H44	0.627000	0.585000	0.202200
C771	C77	0.668400	0.611700	0.486200
H451	H45	0.667200	0.632100	0.575000
C781	C78	0.672400	0.550700	0.233900
H461	H46	0.672500	0.529400	0.146400
N421	N42	0.730170	0.517600	0.306600
C791	C79	0.697400	0.580400	0.458700
H471	H47	0.715200	0.580500	0.527300
C801	C80	0.817300	0.433200	0.195200
H481	H48	0.838600	0.442500	0.232300
O171	O17	0.126800	0.282200	0.915900
O181	O18	0.828150	0.273800	0.943300
O191	O19	0.939430	0.115200	0.811200
C811	C81	0.911620	0.140500	0.794500
C821	C82	0.110960	0.242800	0.852500
C831	C83	0.845010	0.237100	0.872300
O201	O20	0.888410	0.123600	0.707900
O211	O21	0.833190	0.209500	0.765500
O221	O22	0.017520	0.116500	0.810400
O231	O23	0.121950	0.214400	0.746100
C841	C84	0.045350	0.140300	0.795800
O241	O24	0.069540	0.122800	0.716800
N431	N43	0.981100	0.116400	0.113800
C851	C85	0.983960	0.060900	0.107700
H491	H49	0.982800	0.043900	0.013900
C861	C86	0.981900	0.140400	0.249400
H501	H50	0.980200	0.179300	0.254600
N441	N44	0.868470	0.375600	0.872300
C871	C87	0.893300	0.412800	0.870100
H511	H51	0.906400	0.417100	0.956000
C881	C88	0.849800	0.369800	0.748400
H521	H52	0.832000	0.344100	0.749300
N451	N45	0.915740	0.610100	0.111700
C891	C89	0.985100	0.111100	0.381800
H531	H53	0.984200	0.128900	0.474600
C901	C90	0.855700	0.400500	0.617600
H541	H54	0.842400	0.395300	0.532800
C911	C91	0.881400	0.437900	0.617600
N461	N46	0.991900	0.022000	0.508000
C921	C92	0.900800	0.445700	0.746300
H551	H55	0.918200	0.472100	0.749000
C931	C93	0.913400	0.555800	0.096100
H561	H56	0.913300	0.541800	0.998700
C941	C94	0.989900	0.053000	0.368800
C951	C95	0.988600	0.026600	0.230900
H571	H57	0.990700	0.987800	0.221600
C961	C96	0.919000	0.627000	0.250800
H581	H58	0.922300	0.665200	0.266700
N471	N47	0.909290	0.503500	0.486500
N481	N48	0.885370	0.471300	0.482700
C971	C97	0.912100	0.537500	0.353100
C981	C98	0.911300	0.517400	0.210900
H591	H59	0.909300	0.479100	0.191600
C991	C99	0.918000	0.593000	0.375000
H601	H60	0.921300	0.607500	0.470800
Zn101	Zn10	0.521640	0.336270	0.914060
Zn111	Zn11	0.400270	0.167240	0.071540
Zn121	Zn12	0.644280	0.170380	0.080520
C1001	C100	0.619320	0.271500	0.922400
N491	N49	0.476160	0.289300	0.968100
N501	N50	0.685840	0.112600	0.107400
N511	N51	0.857080	0.886000	0.393600
N521	N52	0.468410	0.243500	0.042700
N531	N53	0.436450	0.230000	0.010400
N541	N54	0.607470	0.234100	0.022900
N551	N55	0.566160	0.291800	0.973100
N561	N56	0.575510	0.246400	0.052600
C1011	C101	0.424520	0.268200	0.910100
C1021	C102	0.593490	0.308500	0.889000
C1031	C103	0.450050	0.306500	0.883700
C1041	C104	0.744600	0.094500	0.086700
H611	H61	0.765500	0.105000	0.047700
C1051	C105	0.716190	0.125700	0.055600
H621	H62	0.718400	0.157500	0.995500
C1061	C106	0.709900	0.033400	0.232000
H631	H63	0.707100	0.002000	0.292900
N571	N57	0.772260	0.016200	0.202200
C1071	C107	0.741740	0.047600	0.176100
C1081	C108	0.800400	0.950400	0.330100
C1091	C109	0.854900	0.916300	0.269300
H641	H64	0.873000	0.915000	0.202200
C1101	C110	0.831600	0.888300	0.486200
H651	H65	0.832800	0.867900	0.575000
C1111	C111	0.827600	0.949300	0.233900
H661	H66	0.827500	0.970600	0.146400
N581	N58	0.769830	0.982400	0.306600
C1121	C112	0.802600	0.919600	0.458700
H671	H67	0.784800	0.919500	0.527300
C1131	C113	0.682700	0.066800	0.195200
H681	H68	0.661400	0.057500	0.232300
O251	O25	0.373200	0.217800	0.915900
O261	O26	0.671850	0.226200	0.943300
O271	O27	0.560570	0.384800	0.811200
C1141	C114	0.588380	0.359500	0.794500
C1151	C115	0.389040	0.257200	0.852500
C1161	C116	0.654990	0.262900	0.872300
O281	O28	0.611590	0.376400	0.707900
O291	O29	0.666810	0.290500	0.765500
O301	O30	0.482480	0.383500	0.810400
O311	O31	0.378050	0.285600	0.746100
C1171	C117	0.454650	0.359700	0.795800
O321	O32	0.430460	0.377200	0.716800
N591	N59	0.518900	0.383600	0.113800
C1181	C118	0.516040	0.439100	0.107700
H691	H69	0.517200	0.456100	0.013900
C1191	C119	0.518100	0.359600	0.249400
H701	H70	0.519800	0.320700	0.254600
N601	N60	0.631530	0.124400	0.872300
C1201	C120	0.606700	0.087200	0.870100
H711	H71	0.593600	0.082900	0.956000
C1211	C121	0.650200	0.130200	0.748400
H721	H72	0.668000	0.155900	0.749300
N611	N61	0.584260	0.889900	0.111700
C1221	C122	0.514900	0.388900	0.381800
H731	H73	0.515800	0.371100	0.474600
C1231	C123	0.644300	0.099500	0.617600
H741	H74	0.657600	0.104700	0.532800
C1241	C124	0.618600	0.062100	0.617600
N621	N62	0.508100	0.478000	0.508000
C1251	C125	0.599200	0.054300	0.746300
H751	H75	0.581800	0.027900	0.749000
C1261	C126	0.586600	0.944200	0.096100
H761	H76	0.586700	0.958200	0.998700
C1271	C127	0.510100	0.447000	0.368800
C1281	C128	0.511400	0.473400	0.230900
H771	H77	0.509300	0.512200	0.221600
C1291	C129	0.581000	0.873000	0.250800
H781	H78	0.577700	0.834800	0.266700
N631	N63	0.590710	0.996500	0.486500
N641	N64	0.614630	0.028700	0.482700
C1301	C130	0.587900	0.962500	0.353100
C1311	C131	0.588700	0.982600	0.210900
H791	H79	0.590700	0.020900	0.191600
C1321	C132	0.582000	0.907000	0.375000
H801	H80	0.578700	0.892500	0.470800
Zn131	Zn13	0.978360	0.336270	0.414060
Zn141	Zn14	0.099730	0.167240	0.571540
Zn151	Zn15	0.855720	0.170380	0.580520
C1331	C133	0.880680	0.271500	0.422400
N651	N65	0.023840	0.289300	0.468100
N661	N66	0.814160	0.112600	0.607400
N671	N67	0.642920	0.886000	0.893600
N681	N68	0.031590	0.243500	0.542700
N691	N69	0.063550	0.230000	0.510400
N701	N70	0.892530	0.234100	0.522900
N711	N71	0.933840	0.291800	0.473100
N721	N72	0.924490	0.246400	0.552600
C1341	C134	0.075480	0.268200	0.410100
C1351	C135	0.906510	0.308500	0.389000
C1361	C136	0.049950	0.306500	0.383700
C1371	C137	0.755400	0.094500	0.586700
H811	H81	0.734500	0.105000	0.547700
C1381	C138	0.783810	0.125700	0.555600
H821	H82	0.781600	0.157500	0.495500
C1391	C139	0.790100	0.033400	0.732000
H831	H83	0.792900	0.002000	0.792900
N731	N73	0.727740	0.016200	0.702200
C1401	C140	0.758260	0.047600	0.676100
C1411	C141	0.699600	0.950400	0.830100
C1421	C142	0.645100	0.916300	0.769300
H841	H84	0.627000	0.915000	0.702200
C1431	C143	0.668400	0.888300	0.986200
H851	H85	0.667200	0.867900	0.075000
C1441	C144	0.672400	0.949300	0.733900
H861	H86	0.672500	0.970600	0.646400
N741	N74	0.730170	0.982400	0.806600
C1451	C145	0.697400	0.919600	0.958700
H871	H87	0.715200	0.919500	0.027300
C1461	C146	0.817300	0.066800	0.695200
H881	H88	0.838600	0.057500	0.732300
O331	O33	0.126800	0.217800	0.415900
O341	O34	0.828150	0.226200	0.443300
O351	O35	0.939430	0.384800	0.311200
C1471	C147	0.911620	0.359500	0.294500
C1481	C148	0.110960	0.257200	0.352500
C1491	C149	0.845010	0.262900	0.372300
O361	O36	0.888410	0.376400	0.207900
O371	O37	0.833190	0.290500	0.265500
O381	O38	0.017520	0.383500	0.310400
O391	O39	0.121950	0.285600	0.246100
C1501	C150	0.045350	0.359700	0.295800
O401	O40	0.069540	0.377200	0.216800
N751	N75	0.981100	0.383600	0.613800
C1511	C151	0.983960	0.439100	0.607700
H891	H89	0.982800	0.456100	0.513900
C1521	C152	0.981900	0.359600	0.749400
H901	H90	0.980200	0.320700	0.754600
N761	N76	0.868470	0.124400	0.372300
C1531	C153	0.893300	0.087200	0.370100
H911	H91	0.906400	0.082900	0.456000
C1541	C154	0.849800	0.130200	0.248400
H921	H92	0.832000	0.155900	0.249300
N771	N77	0.915740	0.889900	0.611700
C1551	C155	0.985100	0.388900	0.881800
H931	H93	0.984200	0.371100	0.974600
C1561	C156	0.855700	0.099500	0.117600
H941	H94	0.842400	0.104700	0.032800
C1571	C157	0.881400	0.062100	0.117600
N781	N78	0.991900	0.478000	0.008000
C1581	C158	0.900800	0.054300	0.246300
H951	H95	0.918200	0.027900	0.249000
C1591	C159	0.913400	0.944200	0.596100
H961	H96	0.913300	0.958200	0.498700
C1601	C160	0.989900	0.447000	0.868800
C1611	C161	0.988600	0.473400	0.730900
H971	H97	0.990700	0.512200	0.721600
C1621	C162	0.919000	0.873000	0.750800
H981	H98	0.922300	0.834800	0.766700
N791	N79	0.909290	0.996500	0.986500
N801	N80	0.885370	0.028700	0.982700
C1631	C163	0.912100	0.962500	0.853100
C1641	C164	0.911300	0.982600	0.710900
H991	H99	0.909300	0.020900	0.691600
C1651	C165	0.918000	0.907000	0.875000
H1001	H100	0.921300	0.892500	0.970800
Zn161	Zn16	0.521640	0.163730	0.414060
Zn171	Zn17	0.400270	0.332760	0.571540
Zn181	Zn18	0.644280	0.329620	0.580520
C1661	C166	0.619320	0.228500	0.422400
N811	N81	0.476160	0.210700	0.468100
N821	N82	0.685840	0.387400	0.607400
N831	N83	0.857080	0.614000	0.893600
N841	N84	0.468410	0.256500	0.542700
N851	N85	0.436450	0.270000	0.510400
N861	N86	0.607470	0.265900	0.522900
N871	N87	0.566160	0.208200	0.473100
N881	N88	0.575510	0.253600	0.552600
C1671	C167	0.424520	0.231800	0.410100
C1681	C168	0.593490	0.191500	0.389000
C1691	C169	0.450050	0.193500	0.383700
C1701	C170	0.744600	0.405500	0.586700
H1011	H101	0.765500	0.395000	0.547700
C1711	C171	0.716190	0.374300	0.555600
H1021	H102	0.718400	0.342500	0.495500
C1721	C172	0.709900	0.466600	0.732000
H1031	H103	0.707100	0.498000	0.792900
N891	N89	0.772260	0.483800	0.702200
C1731	C173	0.741740	0.452400	0.676100
C1741	C174	0.800400	0.549600	0.830100
C1751	C175	0.854900	0.583700	0.769300
H1041	H104	0.873000	0.585000	0.702200
C1761	C176	0.831600	0.611700	0.986200
H1051	H105	0.832800	0.632100	0.075000
C1771	C177	0.827600	0.550700	0.733900
H1061	H106	0.827500	0.529400	0.646400
N901	N90	0.769830	0.517600	0.806600
C1781	C178	0.802600	0.580400	0.958700
H1071	H107	0.784800	0.580500	0.027300
C1791	C179	0.682700	0.433200	0.695200
H1081	H108	0.661400	0.442500	0.732300
O411	O41	0.373200	0.282200	0.415900
O421	O42	0.671850	0.273800	0.443300
O431	O43	0.560570	0.115200	0.311200
C1801	C180	0.588380	0.140500	0.294500
C1811	C181	0.389040	0.242800	0.352500
C1821	C182	0.654990	0.237100	0.372300
O441	O44	0.611590	0.123600	0.207900
O451	O45	0.666810	0.209500	0.265500
O461	O46	0.482480	0.116500	0.310400
O471	O47	0.378050	0.214400	0.246100
C1831	C183	0.454650	0.140300	0.295800
O481	O48	0.430460	0.122800	0.216800
N911	N91	0.518900	0.116400	0.613800
C1841	C184	0.516040	0.060900	0.607700
H1091	H109	0.517200	0.043900	0.513900
C1851	C185	0.518100	0.140400	0.749400
H1101	H110	0.519800	0.179300	0.754600
N921	N92	0.631530	0.375600	0.372300
C1861	C186	0.606700	0.412800	0.370100
H1111	H111	0.593600	0.417100	0.456000
C1871	C187	0.650200	0.369800	0.248400
H1121	H112	0.668000	0.344100	0.249300
N931	N93	0.584260	0.610100	0.611700
C1881	C188	0.514900	0.111100	0.881800
H1131	H113	0.515800	0.128900	0.974600
C1891	C189	0.644300	0.400500	0.117600
H1141	H114	0.657600	0.395300	0.032800
C1901	C190	0.618600	0.437900	0.117600
N941	N94	0.508100	0.022000	0.008000
C1911	C191	0.599200	0.445700	0.246300
H1151	H115	0.581800	0.472100	0.249000
C1921	C192	0.586600	0.555800	0.596100
H1161	H116	0.586700	0.541800	0.498700
C1931	C193	0.510100	0.053000	0.868800
C1941	C194	0.511400	0.026600	0.730900
H1171	H117	0.509300	0.987800	0.721600
C1951	C195	0.581000	0.627000	0.750800
H1181	H118	0.577700	0.665200	0.766700
N951	N95	0.590710	0.503500	0.986500
N961	N96	0.614630	0.471300	0.982700
C1961	C196	0.587900	0.537500	0.853100
C1971	C197	0.588700	0.517400	0.710900
H1191	H119	0.590700	0.479100	0.691600
C1981	C198	0.582000	0.593000	0.875000
H1201	H120	0.578700	0.607500	0.970800
Zn191	Zn19	0.021640	0.836270	0.085940
Zn201	Zn20	0.900270	0.667240	0.928460
Zn211	Zn21	0.144280	0.670380	0.919480
C1991	C199	0.119320	0.771500	0.077600
N971	N97	0.976160	0.789300	0.031900
N981	N98	0.185840	0.612600	0.892600
N991	N99	0.357080	0.386000	0.606400
N1001	N100	0.968410	0.743500	0.957300
N1011	N101	0.936450	0.730000	0.989600
N1021	N102	0.107470	0.734100	0.977100
N1031	N103	0.066160	0.791800	0.026900
N1041	N104	0.075510	0.746400	0.947400
C2001	C200	0.924520	0.768200	0.089900
C2011	C201	0.093490	0.808500	0.111000
C2021	C202	0.950050	0.806500	0.116300
C2031	C203	0.244600	0.594500	0.913300
H1211	H121	0.265500	0.605000	0.952300
C2041	C204	0.216190	0.625700	0.944400
H1221	H122	0.218400	0.657500	0.004500
C2051	C205	0.209900	0.533400	0.768000
H1231	H123	0.207100	0.502000	0.707100
N1051	N105	0.272260	0.516200	0.797800
C2061	C206	0.241740	0.547600	0.823900
C2071	C207	0.300400	0.450400	0.669900
C2081	C208	0.354900	0.416300	0.730700
H1241	H124	0.373000	0.415000	0.797800
C2091	C209	0.331600	0.388300	0.513800
H1251	H125	0.332800	0.367900	0.425000
C2101	C210	0.327600	0.449300	0.766100
H1261	H126	0.327500	0.470600	0.853600
N1061	N106	0.269830	0.482400	0.693400
C2111	C211	0.302600	0.419600	0.541300
H1271	H127	0.284800	0.419500	0.472700
C2121	C212	0.182700	0.566800	0.804800
H1281	H128	0.161400	0.557500	0.767700
O491	O49	0.873200	0.717800	0.084100
O501	O50	0.171850	0.726200	0.056700
O511	O51	0.060570	0.884800	0.188800
C2131	C213	0.088380	0.859500	0.205500
C2141	C214	0.889040	0.757200	0.147500
C2151	C215	0.154990	0.762900	0.127700
O521	O52	0.111590	0.876400	0.292100
O531	O53	0.166810	0.790500	0.234500
O541	O54	0.982480	0.883500	0.189600
O551	O55	0.878050	0.785600	0.253900
C2161	C216	0.954650	0.859700	0.204200
O561	O56	0.930460	0.877200	0.283200
N1071	N107	0.018900	0.883600	0.886200
C2171	C217	0.016040	0.939100	0.892300
H1291	H129	0.017200	0.956100	0.986100
C2181	C218	0.018100	0.859600	0.750600
H1301	H130	0.019800	0.820700	0.745400
N1081	N108	0.131530	0.624400	0.127700
C2191	C219	0.106700	0.587200	0.129900
H1311	H131	0.093600	0.582900	0.044000
C2201	C220	0.150200	0.630200	0.251600
H1321	H132	0.168000	0.655900	0.250700
N1091	N109	0.084260	0.389900	0.888300
C2211	C221	0.014900	0.888900	0.618200
H1331	H133	0.015800	0.871100	0.525400
C2221	C222	0.144300	0.599500	0.382400
H1341	H134	0.157600	0.604700	0.467200
C2231	C223	0.118600	0.562100	0.382400
N1101	N110	0.008100	0.978000	0.492000
C2241	C224	0.099200	0.554300	0.253700
H1351	H135	0.081800	0.527900	0.251000
C2251	C225	0.086600	0.444200	0.903900
H1361	H136	0.086700	0.458200	0.001300
C2261	C226	0.010100	0.947000	0.631200
C2271	C227	0.011400	0.973400	0.769100
H1371	H137	0.009300	0.012200	0.778400
C2281	C228	0.081000	0.373000	0.749200
H1381	H138	0.077700	0.334800	0.733300
N1111	N111	0.090710	0.496500	0.513500
N1121	N112	0.114630	0.528700	0.517300
C2291	C229	0.087900	0.462500	0.646900
C2301	C230	0.088700	0.482600	0.789100
H1391	H139	0.090700	0.520900	0.808400
C2311	C231	0.082000	0.407000	0.625000
H1401	H140	0.078700	0.392500	0.529200
Zn221	Zn22	0.478360	0.663730	0.085940
Zn231	Zn23	0.599730	0.832760	0.928460
Zn241	Zn24	0.355720	0.829620	0.919480
C2321	C232	0.380680	0.728500	0.077600
N1131	N113	0.523840	0.710700	0.031900
N1141	N114	0.314160	0.887400	0.892600
N1151	N115	0.142920	0.114000	0.606400
N1161	N116	0.531590	0.756500	0.957300
N1171	N117	0.563550	0.770000	0.989600
N1181	N118	0.392530	0.765900	0.977100
N1191	N119	0.433840	0.708200	0.026900
N1201	N120	0.424490	0.753600	0.947400
C2331	C233	0.575480	0.731800	0.089900
C2341	C234	0.406510	0.691500	0.111000
C2351	C235	0.549950	0.693500	0.116300
C2361	C236	0.255400	0.905500	0.913300
H1411	H141	0.234500	0.895000	0.952300
C2371	C237	0.283810	0.874300	0.944400
H1421	H142	0.281600	0.842500	0.004500
C2381	C238	0.290100	0.966600	0.768000
H1431	H143	0.292900	0.998000	0.707100
N1211	N121	0.227740	0.983800	0.797800
C2391	C239	0.258260	0.952400	0.823900
C2401	C240	0.199600	0.049600	0.669900
C2411	C241	0.145100	0.083700	0.730700
H1441	H144	0.127000	0.085000	0.797800
C2421	C242	0.168400	0.111700	0.513800
H1451	H145	0.167200	0.132100	0.425000
C2431	C243	0.172400	0.050700	0.766100
H1461	H146	0.172500	0.029400	0.853600
N1221	N122	0.230170	0.017600	0.693400
C2441	C244	0.197400	0.080400	0.541300
H1471	H147	0.215200	0.080500	0.472700
C2451	C245	0.317300	0.933200	0.804800
H1481	H148	0.338600	0.942500	0.767700
O571	O57	0.626800	0.782200	0.084100
O581	O58	0.328150	0.773800	0.056700
O591	O59	0.439430	0.615200	0.188800
C2461	C246	0.411620	0.640500	0.205500
C2471	C247	0.610960	0.742800	0.147500
C2481	C248	0.345010	0.737100	0.127700
O601	O60	0.388410	0.623600	0.292100
O611	O61	0.333190	0.709500	0.234500
O621	O62	0.517520	0.616500	0.189600
O631	O63	0.621950	0.714400	0.253900
C2491	C249	0.545350	0.640300	0.204200
O641	O64	0.569540	0.622800	0.283200
N1231	N123	0.481100	0.616400	0.886200
C2501	C250	0.483960	0.560900	0.892300
H1491	H149	0.482800	0.543900	0.986100
C2511	C251	0.481900	0.640400	0.750600
H1501	H150	0.480200	0.679300	0.745400
N1241	N124	0.368470	0.875600	0.127700
C2521	C252	0.393300	0.912800	0.129900
H1511	H151	0.406400	0.917100	0.044000
C2531	C253	0.349800	0.869800	0.251600
H1521	H152	0.332000	0.844100	0.250700
N1251	N125	0.415740	0.110100	0.888300
C2541	C254	0.485100	0.611100	0.618200
H1531	H153	0.484200	0.628900	0.525400
C2551	C255	0.355700	0.900500	0.382400
H1541	H154	0.342400	0.895300	0.467200
C2561	C256	0.381400	0.937900	0.382400
N1261	N126	0.491900	0.522000	0.492000
C2571	C257	0.400800	0.945700	0.253700
H1551	H155	0.418200	0.972100	0.251000
C2581	C258	0.413400	0.055800	0.903900
H1561	H156	0.413300	0.041800	0.001300
C2591	C259	0.489900	0.553000	0.631200
C2601	C260	0.488600	0.526600	0.769100
H1571	H157	0.490700	0.487800	0.778400
C2611	C261	0.419000	0.127000	0.749200
H1581	H158	0.422300	0.165200	0.733300
N1271	N127	0.409290	0.003500	0.513500
N1281	N128	0.385370	0.971300	0.517300
C2621	C262	0.412100	0.037500	0.646900
C2631	C263	0.411300	0.017400	0.789100
H1591	H159	0.409300	0.979100	0.808400
C2641	C264	0.418000	0.093000	0.625000
H1601	H160	0.421300	0.107500	0.529200
