data_REZJIR_clean_PM
_symmetry_space_group_name_H-M	'P1'
_cell_length_a	12.332000
_cell_length_b	12.461000
_cell_length_c	12.850000
_cell_angle_alpha	90.000000
_cell_angle_beta	91.310000
_cell_angle_gamma	90.000000
_symmetry_Int_Tables_number 1

loop_
_symmetry_equiv_pos_as_xyz
'x,y,z'

loop_
_atom_site_label
_atom_site_type_symbol
_atom_site_fract_x
_atom_site_fract_y
_atom_site_fract_z
Mn11	Mn1	0.239490	0.752870	0.008230
Mn21	Mn2	0.739980	0.747680	0.006850
C11	C1	0.488670	0.783330	0.003730
H11	H1	0.490000	0.730800	0.055100
C21	C2	0.991660	0.729880	0.044140
H21	H2	0.994600	0.799300	0.070600
C31	C3	0.247110	0.781000	0.258540
H31	H3	0.199400	0.838800	0.259400
C41	C4	0.735720	0.729350	0.255610
H41	H4	0.788000	0.675500	0.257300
C51	C5	0.781790	0.997220	0.976980
H51	H5	0.729700	0.996800	0.923500
C61	C6	0.724750	0.498820	0.013050
H61	H6	0.785100	0.500600	0.057800
O11	O1	0.077570	0.691950	0.018360
O21	O2	0.279060	0.751590	0.172790
O31	O3	0.398480	0.817630	0.974540
O41	O4	0.577600	0.813450	0.969910
O51	O5	0.799630	0.912190	0.020880
O61	O6	0.681500	0.585610	0.990420
O71	O7	0.701200	0.759070	0.170150
O81	O8	0.272670	0.740940	0.342570
O91	O9	0.900710	0.688300	0.039880
O101	O10	0.693990	0.409180	0.980790
O111	O11	0.705660	0.766260	0.340450
O121	O12	0.826680	0.084930	0.996920
Mn31	Mn3	0.260510	0.252870	0.491770
Mn41	Mn4	0.760020	0.247680	0.493150
C71	C7	0.011330	0.283330	0.496270
H71	H7	0.010000	0.230800	0.444900
C81	C8	0.508340	0.229880	0.455860
H81	H8	0.505400	0.299300	0.429400
C91	C9	0.252890	0.281000	0.241460
H91	H9	0.300600	0.338800	0.240600
C101	C10	0.764280	0.229350	0.244390
H101	H10	0.712000	0.175500	0.242700
C111	C11	0.718210	0.497220	0.523020
H111	H11	0.770300	0.496800	0.576500
C121	C12	0.775250	0.998820	0.486950
H121	H12	0.714900	0.000600	0.442200
O131	O13	0.422430	0.191950	0.481640
O141	O14	0.220940	0.251590	0.327210
O151	O15	0.101520	0.317630	0.525460
O161	O16	0.922400	0.313450	0.530090
O171	O17	0.700370	0.412190	0.479120
O181	O18	0.818500	0.085610	0.509580
O191	O19	0.798800	0.259070	0.329850
O201	O20	0.227330	0.240940	0.157430
O211	O21	0.599290	0.188300	0.460120
O221	O22	0.806010	0.909180	0.519210
O231	O23	0.794340	0.266260	0.159550
O241	O24	0.673320	0.584930	0.503080
Mn51	Mn5	0.760510	0.247130	0.991770
Mn61	Mn6	0.260020	0.252320	0.993150
C131	C13	0.511330	0.216670	0.996270
H131	H13	0.510000	0.269200	0.944900
C141	C14	0.008340	0.270120	0.955860
H141	H14	0.005400	0.200700	0.929400
C151	C15	0.752890	0.219000	0.741460
H151	H15	0.800600	0.161200	0.740600
C161	C16	0.264280	0.270650	0.744390
H161	H16	0.212000	0.324500	0.742700
C171	C17	0.218210	0.002780	0.023020
H171	H17	0.270300	0.003200	0.076500
C181	C18	0.275250	0.501180	0.986950
H181	H18	0.214900	0.499400	0.942200
O251	O25	0.922430	0.308050	0.981640
O261	O26	0.720940	0.248410	0.827210
O271	O27	0.601520	0.182370	0.025460
O281	O28	0.422400	0.186550	0.030090
O291	O29	0.200370	0.087810	0.979120
O301	O30	0.318500	0.414390	0.009580
O311	O31	0.298800	0.240930	0.829850
O321	O32	0.727330	0.259060	0.657430
O331	O33	0.099290	0.311700	0.960120
O341	O34	0.306010	0.590820	0.019210
O351	O35	0.294340	0.233740	0.659550
O361	O36	0.173320	0.915070	0.003080
Mn71	Mn7	0.739490	0.747130	0.508230
Mn81	Mn8	0.239980	0.752320	0.506850
C191	C19	0.988670	0.716670	0.503730
H191	H19	0.990000	0.769200	0.555100
C201	C20	0.491660	0.770120	0.544140
H201	H20	0.494600	0.700700	0.570600
C211	C21	0.747110	0.719000	0.758540
H211	H21	0.699400	0.661200	0.759400
C221	C22	0.235720	0.770650	0.755610
H221	H22	0.288000	0.824500	0.757300
C231	C23	0.281790	0.502780	0.476980
H231	H23	0.229700	0.503200	0.423500
C241	C24	0.224750	0.001180	0.513050
H241	H24	0.285100	0.999400	0.557800
O371	O37	0.577570	0.808050	0.518360
O381	O38	0.779060	0.748410	0.672790
O391	O39	0.898480	0.682370	0.474540
O401	O40	0.077600	0.686550	0.469910
O411	O41	0.299630	0.587810	0.520880
O421	O42	0.181500	0.914390	0.490420
O431	O43	0.201200	0.740930	0.670150
O441	O44	0.772670	0.759060	0.842570
O451	O45	0.400710	0.811700	0.539880
O461	O46	0.193990	0.090820	0.480790
O471	O47	0.205660	0.733740	0.840450
O481	O48	0.326680	0.415070	0.496920
