data_REZJIR03_clean_PM
_symmetry_space_group_name_H-M	'P1'
_cell_length_a	12.196200
_cell_length_b	12.367500
_cell_length_c	12.815500
_cell_angle_alpha	90.000000
_cell_angle_beta	91.428000
_cell_angle_gamma	90.000000
_symmetry_Int_Tables_number 1

loop_
_symmetry_equiv_pos_as_xyz
'x,y,z'

loop_
_atom_site_label
_atom_site_type_symbol
_atom_site_fract_x
_atom_site_fract_y
_atom_site_fract_z
C11	C1	0.245900	0.282450	0.261990
C21	C2	0.724390	0.997670	0.012670
C31	C3	0.230060	0.271290	0.758190
C41	C4	0.784960	0.495480	0.974200
C51	C5	0.986990	0.231160	0.048830
C61	C6	0.483350	0.289290	0.005250
H11	H1	0.489000	0.237000	0.062700
H21	H2	0.989000	0.310000	0.071000
H31	H3	0.189000	0.339000	0.262000
H41	H4	0.288000	0.330000	0.763000
H51	H5	0.731000	0.492000	0.910000
H61	H6	0.788000	0.001000	0.062000
Mn11	Mn1	0.235340	0.254970	0.011770
Mn21	Mn2	0.736020	0.247090	0.010000
O11	O1	0.199090	0.234550	0.844140
O21	O2	0.574430	0.316670	0.969690
O31	O3	0.895820	0.185020	0.048920
O41	O4	0.074550	0.189370	0.023420
O51	O5	0.274570	0.241170	0.347120
O61	O6	0.835120	0.583150	0.992750
O71	O7	0.393120	0.323970	0.973880
O81	O8	0.676470	0.084080	0.990730
O91	O9	0.191940	0.240980	0.672340
O101	O10	0.693130	0.906420	0.978860
O111	O11	0.280810	0.254350	0.175410
O121	O12	0.797310	0.411990	0.025740
C71	C7	0.254100	0.782450	0.238010
C81	C8	0.775610	0.497670	0.487330
C91	C9	0.269940	0.771290	0.741810
C101	C10	0.715040	0.995480	0.525800
C111	C11	0.513010	0.731160	0.451170
C121	C12	0.016650	0.789290	0.494750
H71	H7	0.011000	0.737000	0.437300
H81	H8	0.511000	0.810000	0.429000
H91	H9	0.311000	0.839000	0.238000
H101	H10	0.212000	0.830000	0.737000
H111	H11	0.769000	0.992000	0.590000
H121	H12	0.712000	0.501000	0.438000
Mn31	Mn3	0.264660	0.754970	0.488230
Mn41	Mn4	0.763980	0.747090	0.490000
O131	O13	0.300910	0.734550	0.655860
O141	O14	0.925570	0.816670	0.530310
O151	O15	0.604180	0.685020	0.451080
O161	O16	0.425450	0.689370	0.476580
O171	O17	0.225430	0.741170	0.152880
O181	O18	0.664880	0.083150	0.507250
O191	O19	0.106880	0.823970	0.526120
O201	O20	0.823530	0.584080	0.509270
O211	O21	0.308060	0.740980	0.827660
O221	O22	0.806870	0.406420	0.521140
O231	O23	0.219190	0.754350	0.324590
O241	O24	0.702690	0.911990	0.474260
C131	C13	0.754100	0.717550	0.738010
C141	C14	0.275610	0.002330	0.987330
C151	C15	0.769940	0.728710	0.241810
C161	C16	0.215040	0.504520	0.025800
C171	C17	0.013010	0.768840	0.951170
C181	C18	0.516650	0.710710	0.994750
H131	H13	0.511000	0.763000	0.937300
H141	H14	0.011000	0.690000	0.929000
H151	H15	0.811000	0.661000	0.738000
H161	H16	0.712000	0.670000	0.237000
H171	H17	0.269000	0.508000	0.090000
H181	H18	0.212000	0.999000	0.938000
Mn51	Mn5	0.764660	0.745030	0.988230
Mn61	Mn6	0.263980	0.752910	0.990000
O251	O25	0.800910	0.765450	0.155860
O261	O26	0.425570	0.683330	0.030310
O271	O27	0.104180	0.814980	0.951080
O281	O28	0.925450	0.810630	0.976580
O291	O29	0.725430	0.758830	0.652880
O301	O30	0.164880	0.416850	0.007250
O311	O31	0.606880	0.676030	0.026120
O321	O32	0.323530	0.915920	0.009270
O331	O33	0.808060	0.759020	0.327660
O341	O34	0.306870	0.093580	0.021140
O351	O35	0.719190	0.745650	0.824590
O361	O36	0.202690	0.588010	0.974260
C191	C19	0.745900	0.217550	0.761990
C201	C20	0.224390	0.502330	0.512670
C211	C21	0.730060	0.228710	0.258190
C221	C22	0.284960	0.004520	0.474200
C231	C23	0.486990	0.268840	0.548830
C241	C24	0.983350	0.210710	0.505250
H191	H19	0.989000	0.263000	0.562700
H201	H20	0.489000	0.190000	0.571000
H211	H21	0.689000	0.161000	0.762000
H221	H22	0.788000	0.170000	0.263000
H231	H23	0.231000	0.008000	0.410000
H241	H24	0.288000	0.499000	0.562000
Mn71	Mn7	0.735340	0.245030	0.511770
Mn81	Mn8	0.236020	0.252910	0.510000
O371	O37	0.699090	0.265450	0.344140
O381	O38	0.074430	0.183330	0.469690
O391	O39	0.395820	0.314980	0.548920
O401	O40	0.574550	0.310630	0.523420
O411	O41	0.774570	0.258830	0.847120
O421	O42	0.335120	0.916850	0.492750
O431	O43	0.893120	0.176030	0.473880
O441	O44	0.176470	0.415920	0.490730
O451	O45	0.691940	0.259020	0.172340
O461	O46	0.193130	0.593580	0.478860
O471	O47	0.780810	0.245650	0.675410
O481	O48	0.297310	0.088010	0.525740
