data_REZXUQ_clean_PM
_symmetry_space_group_name_H-M	'P1'
_cell_length_a	20.040500
_cell_length_b	20.040500
_cell_length_c	22.910800
_cell_angle_alpha	90.000000
_cell_angle_beta	90.000000
_cell_angle_gamma	120.000000
_symmetry_Int_Tables_number 1

loop_
_symmetry_equiv_pos_as_xyz
'x,y,z'

loop_
_atom_site_label
_atom_site_type_symbol
_atom_site_fract_x
_atom_site_fract_y
_atom_site_fract_z
O11	O1	0.788100	0.347500	0.187000
O21	O2	0.785700	0.452500	0.187900
C11	C1	0.794700	0.405000	0.159200
C21	C2	0.859700	0.438800	0.114700
C31	C3	0.891000	0.514300	0.095700
C41	C4	0.947700	0.543400	0.049400
C51	C5	0.971800	0.496500	0.023900
C61	C6	0.936300	0.419200	0.040900
C71	C7	0.872700	0.388800	0.080700
O31	O3	0.652500	0.440600	0.187000
O41	O4	0.547500	0.333200	0.187900
C81	C8	0.595000	0.389700	0.159200
C91	C9	0.561200	0.420900	0.114700
C101	C10	0.485700	0.376700	0.095700
C111	C11	0.456600	0.404300	0.049400
C121	C12	0.503500	0.475300	0.023900
C131	C13	0.580800	0.517100	0.040900
C141	C14	0.611200	0.483900	0.080700
O51	O5	0.559400	0.211900	0.187000
O61	O6	0.666800	0.214300	0.187900
C151	C15	0.610300	0.205300	0.159200
C161	C16	0.579100	0.140300	0.114700
C171	C17	0.623300	0.109000	0.095700
C181	C18	0.595700	0.052300	0.049400
C191	C19	0.524700	0.028200	0.023900
C201	C20	0.482900	0.063700	0.040900
C211	C21	0.516100	0.127300	0.080700
O71	O7	0.788100	0.347500	0.313000
O81	O8	0.785700	0.452500	0.312100
C221	C22	0.794700	0.405000	0.340800
C231	C23	0.859700	0.438800	0.385300
C241	C24	0.891000	0.514300	0.404300
C251	C25	0.947700	0.543400	0.450600
C261	C26	0.971800	0.496500	0.476100
C271	C27	0.936300	0.419200	0.459100
C281	C28	0.872700	0.388800	0.419300
O91	O9	0.652500	0.440600	0.313000
O101	O10	0.547500	0.333200	0.312100
C291	C29	0.595000	0.389700	0.340800
C301	C30	0.561200	0.420900	0.385300
C311	C31	0.485700	0.376700	0.404300
C321	C32	0.456600	0.404300	0.450600
C331	C33	0.503500	0.475300	0.476100
C341	C34	0.580800	0.517100	0.459100
C351	C35	0.611200	0.483900	0.419300
O111	O11	0.559400	0.211900	0.313000
O121	O12	0.666800	0.214300	0.312100
C361	C36	0.610300	0.205300	0.340800
C371	C37	0.579100	0.140300	0.385300
C381	C38	0.623300	0.109000	0.404300
C391	C39	0.595700	0.052300	0.450600
C401	C40	0.524700	0.028200	0.476100
C411	C41	0.482900	0.063700	0.459100
C421	C42	0.516100	0.127300	0.419300
O131	O13	0.347500	0.788100	0.813000
O141	O14	0.452500	0.785700	0.812100
C431	C43	0.405000	0.794700	0.840800
C441	C44	0.438800	0.859700	0.885300
C451	C45	0.514300	0.891000	0.904300
C461	C46	0.543400	0.947700	0.950600
C471	C47	0.496500	0.971800	0.976100
C481	C48	0.419200	0.936300	0.959100
C491	C49	0.388800	0.872700	0.919300
O151	O15	0.440600	0.652500	0.813000
O161	O16	0.333200	0.547500	0.812100
C501	C50	0.389700	0.595000	0.840800
C511	C51	0.420900	0.561200	0.885300
C521	C52	0.376700	0.485700	0.904300
C531	C53	0.404300	0.456600	0.950600
C541	C54	0.475300	0.503500	0.976100
C551	C55	0.517100	0.580800	0.959100
C561	C56	0.483900	0.611200	0.919300
O171	O17	0.211900	0.559400	0.813000
O181	O18	0.214300	0.666800	0.812100
C571	C57	0.205300	0.610300	0.840800
C581	C58	0.140300	0.579100	0.885300
C591	C59	0.109000	0.623300	0.904300
C601	C60	0.052300	0.595700	0.950600
C611	C61	0.028200	0.524700	0.976100
C621	C62	0.063700	0.482900	0.959100
C631	C63	0.127300	0.516100	0.919300
O191	O19	0.347500	0.788100	0.687000
O201	O20	0.452500	0.785700	0.687900
C641	C64	0.405000	0.794700	0.659200
C651	C65	0.438800	0.859700	0.614700
C661	C66	0.514300	0.891000	0.595700
C671	C67	0.543400	0.947700	0.549400
C681	C68	0.496500	0.971800	0.523900
C691	C69	0.419200	0.936300	0.540900
C701	C70	0.388800	0.872700	0.580700
O211	O21	0.440600	0.652500	0.687000
O221	O22	0.333200	0.547500	0.687900
C711	C71	0.389700	0.595000	0.659200
C721	C72	0.420900	0.561200	0.614700
C731	C73	0.376700	0.485700	0.595700
C741	C74	0.404300	0.456600	0.549400
C751	C75	0.475300	0.503500	0.523900
C761	C76	0.517100	0.580800	0.540900
C771	C77	0.483900	0.611200	0.580700
O231	O23	0.211900	0.559400	0.687000
O241	O24	0.214300	0.666800	0.687900
C781	C78	0.205300	0.610300	0.659200
C791	C79	0.140300	0.579100	0.614700
C801	C80	0.109000	0.623300	0.595700
C811	C81	0.052300	0.595700	0.549400
C821	C82	0.028200	0.524700	0.523900
C831	C83	0.063700	0.482900	0.540900
C841	C84	0.127300	0.516100	0.580700
Cr11	Cr1	0.727100	0.280000	0.250000
Cr21	Cr2	0.720000	0.447100	0.250000
Cr31	Cr3	0.552900	0.272900	0.250000
Cr41	Cr4	0.280000	0.727100	0.750000
Cr51	Cr5	0.447100	0.720000	0.750000
Cr61	Cr6	0.272900	0.552900	0.750000
O251	O25	0.666670	0.333330	0.250000
O261	O26	0.333330	0.666670	0.750000
