data_REZXOK_clean_PM
_symmetry_space_group_name_H-M	'P1'
_cell_length_a	18.752900
_cell_length_b	18.752900
_cell_length_c	18.742500
_cell_angle_alpha	90.000000
_cell_angle_beta	90.000000
_cell_angle_gamma	120.000000
_symmetry_Int_Tables_number 1

loop_
_symmetry_equiv_pos_as_xyz
'x,y,z'

loop_
_atom_site_label
_atom_site_type_symbol
_atom_site_fract_x
_atom_site_fract_y
_atom_site_fract_z
O11	O1	0.816100	0.367100	0.180600
O21	O2	0.787400	0.460800	0.173400
C11	C1	0.822700	0.428100	0.150900
C21	C2	0.900300	0.478500	0.104100
C31	C3	0.977000	0.520200	0.133800
C41	C4	0.048300	0.547900	0.086600
C51	C5	0.039800	0.562100	0.014600
C61	C6	0.890500	0.475700	0.031500
O31	O3	0.632900	0.449000	0.180600
O41	O4	0.539200	0.326600	0.173400
C71	C7	0.571900	0.394600	0.150900
C81	C8	0.521500	0.421800	0.104100
C91	C9	0.479800	0.456800	0.133800
C101	C10	0.452100	0.500400	0.086600
C111	C11	0.437900	0.477700	0.014600
C121	C12	0.524300	0.414800	0.031500
O51	O5	0.551000	0.183900	0.180600
O61	O6	0.673400	0.212600	0.173400
C131	C13	0.605400	0.177300	0.150900
C141	C14	0.578200	0.099700	0.104100
C151	C15	0.543200	0.023000	0.133800
C161	C16	0.499600	0.951700	0.086600
C171	C17	0.522300	0.960200	0.014600
C181	C18	0.585200	0.109500	0.031500
O71	O7	0.816100	0.367100	0.319400
O81	O8	0.787400	0.460800	0.326600
C191	C19	0.822700	0.428100	0.349100
C201	C20	0.900300	0.478500	0.395900
C211	C21	0.977000	0.520200	0.366200
C221	C22	0.048300	0.547900	0.413400
C231	C23	0.039800	0.562100	0.485400
C241	C24	0.890500	0.475700	0.468500
O91	O9	0.632900	0.449000	0.319400
O101	O10	0.539200	0.326600	0.326600
C251	C25	0.571900	0.394600	0.349100
C261	C26	0.521500	0.421800	0.395900
C271	C27	0.479800	0.456800	0.366200
C281	C28	0.452100	0.500400	0.413400
C291	C29	0.437900	0.477700	0.485400
C301	C30	0.524300	0.414800	0.468500
O111	O11	0.551000	0.183900	0.319400
O121	O12	0.673400	0.212600	0.326600
C311	C31	0.605400	0.177300	0.349100
C321	C32	0.578200	0.099700	0.395900
C331	C33	0.543200	0.023000	0.366200
C341	C34	0.499600	0.951700	0.413400
C351	C35	0.522300	0.960200	0.485400
C361	C36	0.585200	0.109500	0.468500
O131	O13	0.367100	0.816100	0.819400
O141	O14	0.460800	0.787400	0.826600
C371	C37	0.428100	0.822700	0.849100
C381	C38	0.478500	0.900300	0.895900
C391	C39	0.520200	0.977000	0.866200
C401	C40	0.547900	0.048300	0.913400
C411	C41	0.562100	0.039800	0.985400
C421	C42	0.475700	0.890500	0.968500
O151	O15	0.449000	0.632900	0.819400
O161	O16	0.326600	0.539200	0.826600
C431	C43	0.394600	0.571900	0.849100
C441	C44	0.421800	0.521500	0.895900
C451	C45	0.456800	0.479800	0.866200
C461	C46	0.500400	0.452100	0.913400
C471	C47	0.477700	0.437900	0.985400
C481	C48	0.414800	0.524300	0.968500
O171	O17	0.183900	0.551000	0.819400
O181	O18	0.212600	0.673400	0.826600
C491	C49	0.177300	0.605400	0.849100
C501	C50	0.099700	0.578200	0.895900
C511	C51	0.023000	0.543200	0.866200
C521	C52	0.951700	0.499600	0.913400
C531	C53	0.960200	0.522300	0.985400
C541	C54	0.109500	0.585200	0.968500
O191	O19	0.367100	0.816100	0.680600
O201	O20	0.460800	0.787400	0.673400
C551	C55	0.428100	0.822700	0.650900
C561	C56	0.478500	0.900300	0.604100
C571	C57	0.520200	0.977000	0.633800
C581	C58	0.547900	0.048300	0.586600
C591	C59	0.562100	0.039800	0.514600
C601	C60	0.475700	0.890500	0.531500
O211	O21	0.449000	0.632900	0.680600
O221	O22	0.326600	0.539200	0.673400
C611	C61	0.394600	0.571900	0.650900
C621	C62	0.421800	0.521500	0.604100
C631	C63	0.456800	0.479800	0.633800
C641	C64	0.500400	0.452100	0.586600
C651	C65	0.477700	0.437900	0.514600
C661	C66	0.414800	0.524300	0.531500
O231	O23	0.183900	0.551000	0.680600
O241	O24	0.212600	0.673400	0.673400
C671	C67	0.177300	0.605400	0.650900
C681	C68	0.099700	0.578200	0.604100
C691	C69	0.023000	0.543200	0.633800
C701	C70	0.951700	0.499600	0.586600
C711	C71	0.960200	0.522300	0.514600
C721	C72	0.109500	0.585200	0.531500
Fe11	Fe1	0.734500	0.275900	0.250000
Fe21	Fe2	0.724100	0.458600	0.250000
Fe31	Fe3	0.541400	0.265500	0.250000
Fe41	Fe4	0.275900	0.734500	0.750000
Fe51	Fe5	0.458600	0.724100	0.750000
Fe61	Fe6	0.265500	0.541400	0.750000
O251	O25	0.666670	0.333330	0.250000
O261	O26	0.333330	0.666670	0.750000
