data_RIBDEN_clean_PM
_symmetry_space_group_name_H-M	'P1'
_cell_length_a	10.052300
_cell_length_b	10.052300
_cell_length_c	19.328400
_cell_angle_alpha	90.000000
_cell_angle_beta	90.000000
_cell_angle_gamma	103.952000
_symmetry_Int_Tables_number 1

loop_
_symmetry_equiv_pos_as_xyz
'x,y,z'

loop_
_atom_site_label
_atom_site_type_symbol
_atom_site_fract_x
_atom_site_fract_y
_atom_site_fract_z
Co11	Co1	0.807960	0.937200	0.731750
Co21	Co2	0.192040	0.062800	0.231750
Co31	Co3	0.062800	0.192040	0.768250
Co41	Co4	0.937200	0.807960	0.268250
H11	H1	0.507100	0.165500	0.749600
H21	H2	0.179700	0.219500	0.603200
H31	H3	0.492900	0.834500	0.249600
H41	H4	0.820300	0.780500	0.103200
H51	H5	0.834500	0.492900	0.750400
H61	H6	0.780500	0.820300	0.896800
H71	H7	0.165500	0.507100	0.250400
H81	H8	0.219500	0.179700	0.396800
H91	H9	0.448600	0.551400	0.750000
H101	H10	0.551400	0.448600	0.250000
H111	H11	0.916700	0.916700	0.500000
H121	H12	0.083300	0.083300	0.000000
C11	C1	0.305500	0.286900	0.752780
C21	C2	0.956400	0.019400	0.626200
C31	C3	0.543500	0.261900	0.749880
C41	C4	0.455050	0.349950	0.750130
C51	C5	0.036290	0.064310	0.561390
C61	C6	0.148800	0.173600	0.561050
C71	C7	0.694500	0.713100	0.252780
C81	C8	0.043600	0.980600	0.126200
C91	C9	0.456500	0.738100	0.249880
C101	C10	0.544950	0.650050	0.250130
C111	C11	0.963710	0.935690	0.061390
C121	C12	0.851200	0.826400	0.061050
C131	C13	0.713100	0.694500	0.747220
C141	C14	0.980600	0.043600	0.873800
C151	C15	0.738100	0.456500	0.750120
C161	C16	0.650050	0.544950	0.749870
C171	C17	0.935690	0.963710	0.938610
C181	C18	0.826400	0.851200	0.938950
C191	C19	0.286900	0.305500	0.247220
C201	C20	0.019400	0.956400	0.373800
C211	C21	0.261900	0.543500	0.250120
C221	C22	0.349950	0.455050	0.249870
C231	C23	0.064310	0.036290	0.438610
C241	C24	0.173600	0.148800	0.438950
C251	C25	0.778800	0.221200	0.750000
C261	C26	0.684500	0.315500	0.750000
C271	C27	0.508600	0.491400	0.750000
C281	C28	0.221200	0.778800	0.250000
C291	C29	0.315500	0.684500	0.250000
C301	C30	0.491400	0.508600	0.250000
C311	C31	0.993400	0.993400	0.500000
C321	C32	0.217800	0.217800	0.500000
C331	C33	0.339300	0.339300	0.500000
C341	C34	0.006600	0.006600	0.000000
C351	C35	0.782200	0.782200	0.000000
C361	C36	0.660700	0.660700	0.000000
O11	O1	0.219810	0.361130	0.746460
O21	O2	0.263350	0.159870	0.762650
O31	O3	0.843430	0.932970	0.623580
O41	O4	0.005700	0.069100	0.682310
O51	O5	0.726530	0.097990	0.734930
O61	O6	0.361200	0.409000	0.554430
O71	O7	0.780190	0.638870	0.246460
O81	O8	0.736650	0.840130	0.262650
O91	O9	0.156570	0.067030	0.123580
O101	O10	0.994300	0.930900	0.182310
O111	O11	0.273470	0.902010	0.234930
O121	O12	0.638800	0.591000	0.054430
O131	O13	0.638870	0.780190	0.753540
O141	O14	0.840130	0.736650	0.737350
O151	O15	0.067030	0.156570	0.876420
O161	O16	0.930900	0.994300	0.817690
O171	O17	0.902010	0.273470	0.765070
O181	O18	0.591000	0.638800	0.945570
O191	O19	0.361130	0.219810	0.253540
O201	O20	0.159870	0.263350	0.237350
O211	O21	0.932970	0.843430	0.376420
O221	O22	0.069100	0.005700	0.317690
O231	O23	0.097990	0.726530	0.265070
O241	O24	0.409000	0.361200	0.445570
