data_RIFDUG01_clean_PM
_symmetry_space_group_name_H-M	'P1'
_cell_length_a	18.766600
_cell_length_b	18.766600
_cell_length_c	18.766600
_cell_angle_alpha	60.000000
_cell_angle_beta	60.000000
_cell_angle_gamma	60.000000
_symmetry_Int_Tables_number 1

loop_
_symmetry_equiv_pos_as_xyz
'x,y,z'

loop_
_atom_site_label
_atom_site_type_symbol
_atom_site_fract_x
_atom_site_fract_y
_atom_site_fract_z
Zn11	Zn1	0.500000	0.079160	0.500000
Zn21	Zn2	0.079160	0.500000	0.920840
Zn31	Zn3	0.500000	0.920840	0.500000
Zn41	Zn4	0.920840	0.500000	0.079160
Zn51	Zn5	0.500000	0.500000	0.920840
Zn61	Zn6	0.079160	0.920840	0.500000
Zn71	Zn7	0.500000	0.500000	0.079160
Zn81	Zn8	0.920840	0.079160	0.500000
Zn91	Zn9	0.500000	0.920840	0.079160
Zn101	Zn10	0.079160	0.500000	0.500000
Zn111	Zn11	0.500000	0.079160	0.920840
Zn121	Zn12	0.920840	0.500000	0.500000
H11	H1	0.770700	0.987500	0.471100
H21	H2	0.987500	0.770700	0.770700
H31	H3	0.471100	0.770700	0.770700
H41	H4	0.770700	0.471100	0.987500
H51	H5	0.770700	0.471100	0.770700
H61	H6	0.987500	0.770700	0.471100
H71	H7	0.471100	0.770700	0.987500
H81	H8	0.770700	0.987500	0.770700
H91	H9	0.770700	0.770700	0.987500
H101	H10	0.987500	0.471100	0.770700
H111	H11	0.471100	0.987500	0.770700
H121	H12	0.770700	0.770700	0.471100
H131	H13	0.012500	0.229300	0.528900
H141	H14	0.229300	0.012500	0.229300
H151	H15	0.229300	0.528900	0.229300
H161	H16	0.528900	0.229300	0.012500
H171	H17	0.528900	0.229300	0.229300
H181	H18	0.229300	0.012500	0.528900
H191	H19	0.229300	0.528900	0.012500
H201	H20	0.012500	0.229300	0.229300
H211	H21	0.229300	0.229300	0.012500
H221	H22	0.528900	0.012500	0.229300
H231	H23	0.012500	0.528900	0.229300
H241	H24	0.229300	0.229300	0.528900
C11	C1	0.663720	0.930200	0.475880
C21	C2	0.756340	0.885700	0.472260
C31	C3	0.930200	0.663720	0.930200
C41	C4	0.885700	0.756340	0.885700
C51	C5	0.475880	0.930200	0.663720
C61	C6	0.472260	0.885700	0.756340
C71	C7	0.930200	0.475880	0.930200
C81	C8	0.885700	0.472260	0.885700
C91	C9	0.663720	0.475880	0.930200
C101	C10	0.756340	0.472260	0.885700
C111	C11	0.930200	0.930200	0.475880
C121	C12	0.885700	0.885700	0.472260
C131	C13	0.475880	0.663720	0.930200
C141	C14	0.472260	0.756340	0.885700
C151	C15	0.930200	0.930200	0.663720
C161	C16	0.885700	0.885700	0.756340
C171	C17	0.663720	0.930200	0.930200
C181	C18	0.756340	0.885700	0.885700
C191	C19	0.930200	0.475880	0.663720
C201	C20	0.885700	0.472260	0.756340
C211	C21	0.475880	0.930200	0.930200
C221	C22	0.472260	0.885700	0.885700
C231	C23	0.930200	0.663720	0.475880
C241	C24	0.885700	0.756340	0.472260
C251	C25	0.069800	0.336280	0.524120
C261	C26	0.114300	0.243660	0.527740
C271	C27	0.336280	0.069800	0.069800
C281	C28	0.243660	0.114300	0.114300
C291	C29	0.069800	0.524120	0.336280
C301	C30	0.114300	0.527740	0.243660
C311	C31	0.524120	0.069800	0.069800
C321	C32	0.527740	0.114300	0.114300
C331	C33	0.524120	0.336280	0.069800
C341	C34	0.527740	0.243660	0.114300
C351	C35	0.069800	0.069800	0.524120
C361	C36	0.114300	0.114300	0.527740
C371	C37	0.336280	0.524120	0.069800
C381	C38	0.243660	0.527740	0.114300
C391	C39	0.069800	0.069800	0.336280
C401	C40	0.114300	0.114300	0.243660
C411	C41	0.069800	0.336280	0.069800
C421	C42	0.114300	0.243660	0.114300
C431	C43	0.524120	0.069800	0.336280
C441	C44	0.527740	0.114300	0.243660
C451	C45	0.069800	0.524120	0.069800
C461	C46	0.114300	0.527740	0.114300
C471	C47	0.336280	0.069800	0.524120
C481	C48	0.243660	0.114300	0.527740
C491	C49	0.799700	0.928780	0.471820
C501	C50	0.928780	0.799700	0.799700
C511	C51	0.471820	0.799700	0.799700
C521	C52	0.799700	0.471820	0.928780
C531	C53	0.799700	0.471820	0.799700
C541	C54	0.928780	0.799700	0.471820
C551	C55	0.471820	0.799700	0.928780
C561	C56	0.799700	0.928780	0.799700
C571	C57	0.799700	0.799700	0.928780
C581	C58	0.928780	0.471820	0.799700
C591	C59	0.471820	0.928780	0.799700
C601	C60	0.799700	0.799700	0.471820
C611	C61	0.071220	0.200300	0.528180
C621	C62	0.200300	0.071220	0.200300
C631	C63	0.200300	0.528180	0.200300
C641	C64	0.528180	0.200300	0.071220
C651	C65	0.528180	0.200300	0.200300
C661	C66	0.200300	0.071220	0.528180
C671	C67	0.200300	0.528180	0.071220
C681	C68	0.071220	0.200300	0.200300
C691	C69	0.200300	0.200300	0.071220
C701	C70	0.528180	0.071220	0.200300
C711	C71	0.071220	0.528180	0.200300
C721	C72	0.200300	0.200300	0.528180
O11	O1	0.627950	0.006390	0.478410
O21	O2	0.006390	0.627950	0.887250
O31	O3	0.478410	0.887250	0.627950
O41	O4	0.887250	0.478410	0.006390
O51	O5	0.627950	0.478410	0.887250
O61	O6	0.006390	0.887250	0.478410
O71	O7	0.478410	0.627950	0.006390
O81	O8	0.887250	0.006390	0.627950
O91	O9	0.627950	0.887250	0.006390
O101	O10	0.006390	0.478410	0.627950
O111	O11	0.478410	0.006390	0.887250
O121	O12	0.887250	0.627950	0.478410
O131	O13	0.993610	0.372050	0.521590
O141	O14	0.372050	0.993610	0.112750
O151	O15	0.112750	0.521590	0.372050
O161	O16	0.521590	0.112750	0.993610
O171	O17	0.521590	0.372050	0.112750
O181	O18	0.112750	0.993610	0.521590
O191	O19	0.372050	0.521590	0.993610
O201	O20	0.993610	0.112750	0.372050
O211	O21	0.112750	0.372050	0.993610
O221	O22	0.521590	0.993610	0.372050
O231	O23	0.993610	0.521590	0.112750
O241	O24	0.372050	0.112750	0.521590
O251	O25	0.372050	0.993610	0.521590
O261	O26	0.993610	0.372050	0.112750
O271	O27	0.521590	0.112750	0.372050
O281	O28	0.112750	0.521590	0.993610
O291	O29	0.372050	0.521590	0.112750
O301	O30	0.993610	0.112750	0.521590
O311	O31	0.521590	0.372050	0.993610
O321	O32	0.112750	0.993610	0.372050
O331	O33	0.372050	0.112750	0.993610
O341	O34	0.993610	0.521590	0.372050
O351	O35	0.521590	0.993610	0.112750
O361	O36	0.112750	0.372050	0.521590
O371	O37	0.006390	0.627950	0.478410
O381	O38	0.627950	0.006390	0.887250
O391	O39	0.887250	0.478410	0.627950
O401	O40	0.478410	0.887250	0.006390
O411	O41	0.478410	0.627950	0.887250
O421	O42	0.887250	0.006390	0.478410
O431	O43	0.627950	0.478410	0.006390
O441	O44	0.006390	0.887250	0.627950
O451	O45	0.887250	0.627950	0.006390
O461	O46	0.478410	0.006390	0.627950
O471	O47	0.006390	0.478410	0.887250
O481	O48	0.627950	0.887250	0.478410
