data_RIGPEE_clean_PM
_symmetry_space_group_name_H-M	'P1'
_cell_length_a	9.930000
_cell_length_b	9.344500
_cell_length_c	22.717000
_cell_angle_alpha	90.000000
_cell_angle_beta	106.940000
_cell_angle_gamma	90.000000
_symmetry_Int_Tables_number 1

loop_
_symmetry_equiv_pos_as_xyz
'x,y,z'

loop_
_atom_site_label
_atom_site_type_symbol
_atom_site_fract_x
_atom_site_fract_y
_atom_site_fract_z
Cu11	Cu1	0.193840	0.122520	0.847330
N11	N1	0.351900	0.253100	0.886200
N21	N2	0.112400	0.412800	0.257900
N31	N3	0.085700	0.011500	0.895000
N41	N4	0.782300	0.473700	0.038800
C11	C1	0.387900	0.370300	0.860400
H11	H1	0.330600	0.396600	0.821800
C21	C2	0.503100	0.455000	0.886700
H21	H2	0.524500	0.531900	0.865100
C31	C3	0.589200	0.423800	0.947300
C41	C4	0.547300	0.304100	0.973700
H31	H3	0.598400	0.278100	0.013500
C51	C5	0.432300	0.222400	0.943000
H41	H4	0.410000	0.142500	0.962700
C61	C6	0.716900	0.510000	0.977800
C71	C7	0.768800	0.618600	0.950700
H51	H5	0.722700	0.644800	0.910400
C81	C8	0.891500	0.690900	0.983500
C91	C9	0.954900	0.652100	0.042800
H61	H6	0.035500	0.700300	0.065200
C101	C10	0.903700	0.545500	0.069900
C111	C11	0.952300	0.804600	0.953600
C121	C12	0.881200	0.868300	0.897700
H71	H7	0.788300	0.843400	0.878000
C131	C13	0.948700	0.968600	0.871300
H81	H8	0.896600	0.010200	0.834600
C141	C14	0.090400	0.851200	0.979000
H91	H9	0.143300	0.813700	0.016500
C151	C15	0.975900	0.499600	0.135100
C161	C16	0.917800	0.398500	0.164200
H101	H10	0.831100	0.357900	0.144100
C171	C17	0.989000	0.357100	0.223800
H111	H11	0.948600	0.285500	0.241500
C181	C18	0.163400	0.512600	0.228000
H121	H12	0.248300	0.554800	0.249500
C191	C19	0.102900	0.559300	0.168600
H131	H13	0.146400	0.629300	0.151400
C201	C20	0.151200	0.952000	0.949800
H141	H14	0.243100	0.980400	0.969400
Cu21	Cu2	0.193840	0.377480	0.347330
N51	N5	0.351900	0.246900	0.386200
N61	N6	0.112400	0.087200	0.757900
N71	N7	0.085700	0.488500	0.395000
N81	N8	0.782300	0.026300	0.538800
C211	C21	0.387900	0.129700	0.360400
H151	H15	0.330600	0.103400	0.321800
C221	C22	0.503100	0.045000	0.386700
H161	H16	0.524500	0.968100	0.365100
C231	C23	0.589200	0.076200	0.447300
C241	C24	0.547300	0.195900	0.473700
H171	H17	0.598400	0.221900	0.513500
C251	C25	0.432300	0.277600	0.443000
H181	H18	0.410000	0.357500	0.462700
C261	C26	0.716900	0.990000	0.477800
C271	C27	0.768800	0.881400	0.450700
H191	H19	0.722700	0.855200	0.410400
C281	C28	0.891500	0.809100	0.483500
C291	C29	0.954900	0.847900	0.542800
H201	H20	0.035500	0.799700	0.565200
C301	C30	0.903700	0.954500	0.569900
C311	C31	0.952300	0.695400	0.453600
C321	C32	0.881200	0.631700	0.397700
H211	H21	0.788300	0.656600	0.378000
C331	C33	0.948700	0.531400	0.371300
H221	H22	0.896600	0.489800	0.334600
C341	C34	0.090400	0.648800	0.479000
H231	H23	0.143300	0.686300	0.516500
C351	C35	0.975900	0.000400	0.635100
C361	C36	0.917800	0.101500	0.664200
H241	H24	0.831100	0.142100	0.644100
C371	C37	0.989000	0.142900	0.723800
H251	H25	0.948600	0.214500	0.741500
C381	C38	0.163400	0.987400	0.728000
H261	H26	0.248300	0.945200	0.749500
C391	C39	0.102900	0.940700	0.668600
H271	H27	0.146400	0.870700	0.651400
C401	C40	0.151200	0.548000	0.449800
H281	H28	0.243100	0.519600	0.469400
Cu31	Cu3	0.806160	0.622520	0.652670
N91	N9	0.648100	0.753100	0.613800
N101	N10	0.887600	0.912800	0.242100
N111	N11	0.914300	0.511500	0.605000
N121	N12	0.217700	0.973700	0.461200
C411	C41	0.612100	0.870300	0.639600
H291	H29	0.669400	0.896600	0.678200
C421	C42	0.496900	0.955000	0.613300
H301	H30	0.475500	0.031900	0.634900
C431	C43	0.410800	0.923800	0.552700
C441	C44	0.452700	0.804100	0.526300
H311	H31	0.401600	0.778100	0.486500
C451	C45	0.567700	0.722400	0.557000
H321	H32	0.590000	0.642500	0.537300
C461	C46	0.283100	0.010000	0.522200
C471	C47	0.231200	0.118600	0.549300
H331	H33	0.277300	0.144800	0.589600
C481	C48	0.108500	0.190900	0.516500
C491	C49	0.045100	0.152100	0.457200
H341	H34	0.964500	0.200300	0.434800
C501	C50	0.096300	0.045500	0.430100
C511	C51	0.047700	0.304600	0.546400
C521	C52	0.118800	0.368300	0.602300
H351	H35	0.211700	0.343400	0.622000
C531	C53	0.051300	0.468600	0.628700
H361	H36	0.103400	0.510200	0.665400
C541	C54	0.909600	0.351200	0.521000
H371	H37	0.856700	0.313700	0.483500
C551	C55	0.024100	0.999600	0.364900
C561	C56	0.082200	0.898500	0.335800
H381	H38	0.168900	0.857900	0.355900
C571	C57	0.011000	0.857100	0.276200
H391	H39	0.051400	0.785500	0.258500
C581	C58	0.836600	0.012600	0.272000
H401	H40	0.751700	0.054800	0.250500
C591	C59	0.897100	0.059300	0.331400
H411	H41	0.853600	0.129300	0.348600
C601	C60	0.848800	0.452000	0.550200
H421	H42	0.756900	0.480400	0.530600
Cu41	Cu4	0.806160	0.877480	0.152670
N131	N13	0.648100	0.746900	0.113800
N141	N14	0.887600	0.587200	0.742100
N151	N15	0.914300	0.988500	0.105000
N161	N16	0.217700	0.526300	0.961200
C611	C61	0.612100	0.629700	0.139600
H431	H43	0.669400	0.603400	0.178200
C621	C62	0.496900	0.545000	0.113300
H441	H44	0.475500	0.468100	0.134900
C631	C63	0.410800	0.576200	0.052700
C641	C64	0.452700	0.695900	0.026300
H451	H45	0.401600	0.721900	0.986500
C651	C65	0.567700	0.777600	0.057000
H461	H46	0.590000	0.857500	0.037300
C661	C66	0.283100	0.490000	0.022200
C671	C67	0.231200	0.381400	0.049300
H471	H47	0.277300	0.355200	0.089600
C681	C68	0.108500	0.309100	0.016500
C691	C69	0.045100	0.347900	0.957200
H481	H48	0.964500	0.299700	0.934800
C701	C70	0.096300	0.454500	0.930100
C711	C71	0.047700	0.195400	0.046400
C721	C72	0.118800	0.131700	0.102300
H491	H49	0.211700	0.156600	0.122000
C731	C73	0.051300	0.031400	0.128700
H501	H50	0.103400	0.989800	0.165400
C741	C74	0.909600	0.148800	0.021000
H511	H51	0.856700	0.186300	0.983500
C751	C75	0.024100	0.500400	0.864900
C761	C76	0.082200	0.601500	0.835800
H521	H52	0.168900	0.642100	0.855900
C771	C77	0.011000	0.642900	0.776200
H531	H53	0.051400	0.714500	0.758500
C781	C78	0.836600	0.487400	0.772000
H541	H54	0.751700	0.445200	0.750500
C791	C79	0.897100	0.440700	0.831400
H551	H55	0.853600	0.370700	0.848600
C801	C80	0.848800	0.048000	0.050200
H561	H56	0.756900	0.019600	0.030600
