data_RINPEJ_charged_PM
_symmetry_space_group_name_H-M	'P1'
_cell_length_a	13.118700
_cell_length_b	13.389200
_cell_length_c	22.955400
_cell_angle_alpha	90.000000
_cell_angle_beta	90.000000
_cell_angle_gamma	119.334000
_symmetry_Int_Tables_number 1

loop_
_symmetry_equiv_pos_as_xyz
'x,y,z'

loop_
_atom_site_label
_atom_site_type_symbol
_atom_site_fract_x
_atom_site_fract_y
_atom_site_fract_z
Cd11	Cd1	0.340160	0.659640	0.935220
Cd21	Cd2	0.319480	0.659640	0.564780
H11	H1	0.558400	0.551800	0.081400
H21	H2	0.846400	0.818000	0.848700
H31	H3	0.301600	0.594000	0.144300
H41	H4	0.493900	0.523200	0.250800
H51	H5	0.609300	0.527800	0.174000
H61	H6	0.681900	0.905800	0.804500
H71	H7	0.929700	0.226600	0.840800
H81	H8	0.091000	0.739600	0.802100
H91	H9	0.669600	0.041800	0.958100
H101	H10	0.042600	0.774400	0.969700
H111	H11	0.900300	0.015400	0.659600
H121	H12	0.854000	0.206600	0.934800
H131	H13	0.887800	0.807400	0.946400
H141	H14	0.086600	0.348000	0.694100
H151	H15	0.129700	0.233800	0.545000
H161	H16	0.997600	0.053000	0.570400
H171	H17	0.993400	0.551800	0.418600
H181	H18	0.971600	0.818000	0.651300
H191	H19	0.292400	0.594000	0.355700
H201	H20	0.029300	0.523200	0.249200
H211	H21	0.918500	0.527800	0.326000
H221	H22	0.223900	0.905800	0.695500
H231	H23	0.296900	0.226600	0.659200
H241	H24	0.648600	0.739600	0.697900
H251	H25	0.372200	0.041800	0.541900
H261	H26	0.731800	0.774400	0.530300
H271	H27	0.115100	0.015400	0.840400
H281	H28	0.352600	0.206600	0.565200
H291	H29	0.919600	0.807400	0.553600
H301	H30	0.261400	0.348000	0.805900
H311	H31	0.104100	0.233800	0.955000
H321	H32	0.055400	0.053000	0.929600
C11	C1	0.398600	0.602200	0.043000
C21	C2	0.426800	0.581000	0.102100
C31	C3	0.516200	0.556400	0.112800
C41	C4	0.902800	0.798200	0.858900
C51	C5	0.363100	0.578800	0.149100
C61	C6	0.477300	0.536800	0.213100
C71	C7	0.958400	0.773000	0.817400
C81	C8	0.387900	0.554400	0.203900
C91	C9	0.171300	0.722600	0.903000
C101	C10	0.546700	0.851600	0.900500
C111	C11	0.545100	0.538400	0.167800
C121	C12	0.711500	0.965600	0.831100
C131	C13	0.078200	0.748400	0.887400
C141	C14	0.810900	0.066000	0.816200
C151	C15	0.864200	0.159200	0.852600
C161	C16	0.653200	0.949400	0.884300
C171	C17	0.049600	0.751600	0.831600
C181	C18	0.705500	0.044600	0.922700
C191	C19	0.020600	0.772800	0.931100
C201	C20	0.983800	0.177000	0.687700
C211	C21	0.956600	0.089800	0.649900
C221	C22	0.816500	0.148600	0.907500
C231	C23	0.929500	0.795000	0.917200
C241	C24	0.066600	0.286800	0.668900
C251	C25	0.117800	0.307800	0.617300
C261	C26	0.199500	0.431800	0.601100
C271	C27	0.092400	0.219800	0.580900
C281	C28	0.014100	0.112800	0.595900
C291	C29	0.203600	0.602200	0.457000
C301	C30	0.154200	0.581000	0.397900
C311	C31	0.040200	0.556400	0.387200
C321	C32	0.895400	0.798200	0.641100
C331	C33	0.215700	0.578800	0.350900
C341	C34	0.059500	0.536800	0.286900
C351	C35	0.814600	0.773000	0.682600
C361	C36	0.166500	0.554400	0.296100
C371	C37	0.551300	0.722600	0.597000
C381	C38	0.304900	0.851600	0.599500
C391	C39	0.993300	0.538400	0.332200
C401	C40	0.254100	0.965600	0.668900
C411	C41	0.670200	0.748400	0.612600
C421	C42	0.255100	0.066000	0.683800
C431	C43	0.295000	0.159200	0.647400
C441	C44	0.296200	0.949400	0.615700
C451	C45	0.702000	0.751600	0.668400
C461	C46	0.339100	0.044600	0.577300
C471	C47	0.752200	0.772800	0.568900
C481	C48	0.193200	0.177000	0.812300
C491	C49	0.133200	0.089800	0.850100
C501	C50	0.332100	0.148600	0.592500
C511	C51	0.865500	0.795000	0.582800
C521	C52	0.220200	0.286800	0.831100
C531	C53	0.190000	0.307800	0.882700
C541	C54	0.232300	0.431800	0.898900
C551	C55	0.127400	0.219800	0.919100
C561	C56	0.098700	0.112800	0.904100
N11	N1	0.323600	0.552400	0.253500
N21	N2	0.936500	0.167000	0.743800
N31	N3	0.857100	0.069800	0.755900
N41	N4	0.932000	0.769000	0.756900
N51	N5	0.228800	0.552400	0.246500
N61	N6	0.230500	0.167000	0.756200
N71	N7	0.212700	0.069800	0.744100
N81	N8	0.837000	0.769000	0.743100
O11	O1	0.326300	0.637600	0.037500
O21	O2	0.454200	0.594600	0.999100
O31	O3	0.490400	0.855600	0.945200
O41	O4	0.514400	0.764400	0.875500
O51	O5	0.232700	0.716000	0.866900
O61	O6	0.187800	0.708800	0.954300
O71	O7	0.252700	0.441400	0.552900
O81	O8	0.207300	0.509000	0.626600
O91	O9	0.311300	0.637600	0.462500
O101	O10	0.140400	0.594600	0.500900
O111	O11	0.365200	0.855600	0.554800
O121	O12	0.250000	0.764400	0.624500
O131	O13	0.483300	0.716000	0.633100
O141	O14	0.521000	0.708800	0.545700
O151	O15	0.188700	0.441400	0.947100
O161	O16	0.301700	0.509000	0.873400
Cd31	Cd3	0.659840	0.340360	0.435220
Cd41	Cd4	0.680520	0.340360	0.064780
H331	H33	0.441600	0.448200	0.581400
H341	H34	0.153600	0.182000	0.348700
H351	H35	0.698400	0.406000	0.644300
H361	H36	0.506100	0.476800	0.750800
H371	H37	0.390700	0.472200	0.674000
H381	H38	0.318100	0.094200	0.304500
H391	H39	0.070300	0.773400	0.340800
H401	H40	0.909000	0.260400	0.302100
H411	H41	0.330400	0.958200	0.458100
H421	H42	0.957400	0.225600	0.469700
H431	H43	0.099700	0.984600	0.159600
H441	H44	0.146000	0.793400	0.434800
H451	H45	0.112200	0.192600	0.446400
H461	H46	0.913400	0.652000	0.194100
H471	H47	0.870300	0.766200	0.045000
H481	H48	0.002400	0.947000	0.070400
H491	H49	0.006600	0.448200	0.918600
H501	H50	0.028400	0.182000	0.151300
H511	H51	0.707600	0.406000	0.855700
H521	H52	0.970700	0.476800	0.749200
H531	H53	0.081500	0.472200	0.826000
H541	H54	0.776100	0.094200	0.195500
H551	H55	0.703100	0.773400	0.159200
H561	H56	0.351400	0.260400	0.197900
H571	H57	0.627800	0.958200	0.041900
H581	H58	0.268200	0.225600	0.030300
H591	H59	0.884900	0.984600	0.340400
H601	H60	0.647400	0.793400	0.065200
H611	H61	0.080400	0.192600	0.053600
H621	H62	0.738600	0.652000	0.305900
H631	H63	0.895900	0.766200	0.455000
H641	H64	0.944600	0.947000	0.429600
C571	C57	0.601400	0.397800	0.543000
C581	C58	0.573200	0.419000	0.602100
C591	C59	0.483800	0.443600	0.612800
C601	C60	0.097200	0.201800	0.358900
C611	C61	0.636900	0.421200	0.649100
C621	C62	0.522700	0.463200	0.713100
C631	C63	0.041600	0.227000	0.317400
C641	C64	0.612100	0.445600	0.703900
C651	C65	0.828700	0.277400	0.403000
C661	C66	0.453300	0.148400	0.400500
C671	C67	0.454900	0.461600	0.667800
C681	C68	0.288500	0.034400	0.331100
C691	C69	0.921800	0.251600	0.387400
C701	C70	0.189100	0.934000	0.316200
C711	C71	0.135800	0.840800	0.352600
C721	C72	0.346800	0.050600	0.384300
C731	C73	0.950400	0.248400	0.331600
C741	C74	0.294500	0.955400	0.422700
C751	C75	0.979400	0.227200	0.431100
C761	C76	0.016200	0.823000	0.187700
C771	C77	0.043400	0.910200	0.149900
C781	C78	0.183500	0.851400	0.407500
C791	C79	0.070500	0.205000	0.417200
C801	C80	0.933400	0.713200	0.168900
C811	C81	0.882200	0.692200	0.117300
C821	C82	0.800500	0.568200	0.101100
C831	C83	0.907600	0.780200	0.080900
C841	C84	0.985900	0.887200	0.095900
C851	C85	0.796400	0.397800	0.957000
C861	C86	0.845800	0.419000	0.897900
C871	C87	0.959800	0.443600	0.887200
C881	C88	0.104600	0.201800	0.141100
C891	C89	0.784300	0.421200	0.850900
C901	C90	0.940500	0.463200	0.786900
C911	C91	0.185400	0.227000	0.182600
C921	C92	0.833500	0.445600	0.796100
C931	C93	0.448700	0.277400	0.097000
C941	C94	0.695100	0.148400	0.099500
C951	C95	0.006700	0.461600	0.832200
C961	C96	0.745900	0.034400	0.168900
C971	C97	0.329800	0.251600	0.112600
C981	C98	0.744900	0.934000	0.183800
C991	C99	0.705000	0.840800	0.147400
C1001	C100	0.703800	0.050600	0.115700
C1011	C101	0.298000	0.248400	0.168400
C1021	C102	0.660900	0.955400	0.077300
C1031	C103	0.247800	0.227200	0.068900
C1041	C104	0.806800	0.823000	0.312300
C1051	C105	0.866800	0.910200	0.350100
C1061	C106	0.667900	0.851400	0.092500
C1071	C107	0.134500	0.205000	0.082800
C1081	C108	0.779800	0.713200	0.331100
C1091	C109	0.810000	0.692200	0.382700
C1101	C110	0.767700	0.568200	0.398900
C1111	C111	0.872600	0.780200	0.419100
C1121	C112	0.901300	0.887200	0.404100
N91	N9	0.676400	0.447600	0.753500
N101	N10	0.063500	0.833000	0.243800
N111	N11	0.142900	0.930200	0.255900
N121	N12	0.068000	0.231000	0.256900
N131	N13	0.771200	0.447600	0.746500
N141	N14	0.769500	0.833000	0.256200
N151	N15	0.787300	0.930200	0.244100
N161	N16	0.163000	0.231000	0.243100
O171	O17	0.673700	0.362400	0.537500
O181	O18	0.545800	0.405400	0.499100
O191	O19	0.509600	0.144400	0.445200
O201	O20	0.485600	0.235600	0.375500
O211	O21	0.767300	0.284000	0.366900
O221	O22	0.812200	0.291200	0.454300
O231	O23	0.747300	0.558600	0.052900
O241	O24	0.792700	0.491000	0.126600
O251	O25	0.688700	0.362400	0.962500
O261	O26	0.859600	0.405400	0.000900
O271	O27	0.634800	0.144400	0.054800
O281	O28	0.750000	0.235600	0.124500
O291	O29	0.516700	0.284000	0.133100
O301	O30	0.479000	0.291200	0.045700
O311	O31	0.811300	0.558600	0.447100
O321	O32	0.698300	0.491000	0.373400
H651	H65	0.525200	0.514200	0.974100
H661	H66	0.604800	0.468200	0.969400
H671	H67	0.697400	0.647800	0.944100
H681	H68	0.685100	0.571000	0.890100
H691	H69	0.601100	0.622400	0.897000
H701	H70	0.434700	0.340200	0.937500
H711	H71	0.436000	0.430400	0.893400
H721	H72	0.524300	0.384200	0.885800
C1131	C113	0.643100	0.591400	0.917500
C1141	C114	0.483400	0.405200	0.913600
N171	N17	0.564200	0.494000	0.948700
H731	H73	0.474800	0.485800	0.474100
H741	H74	0.395200	0.531800	0.469400
H751	H75	0.302600	0.352200	0.444100
H761	H76	0.314900	0.429000	0.390100
H771	H77	0.398900	0.377600	0.397000
H781	H78	0.565300	0.659800	0.437500
H791	H79	0.564000	0.569600	0.393400
H801	H80	0.475700	0.615800	0.385800
C1151	C115	0.356900	0.408600	0.417500
C1161	C116	0.516600	0.594800	0.413600
N181	N18	0.435800	0.506000	0.448700
H811	H81	0.989000	0.514200	0.525900
H821	H82	0.863400	0.468200	0.530600
H831	H83	0.950400	0.647800	0.555900
H841	H84	0.885900	0.571000	0.609900
H851	H85	0.021300	0.622400	0.603000
H861	H86	0.905500	0.340200	0.562500
H871	H87	0.994400	0.430400	0.606600
H881	H88	0.859900	0.384200	0.614200
C1171	C117	0.948300	0.591400	0.582500
C1181	C118	0.921800	0.405200	0.586400
N191	N19	0.929800	0.494000	0.551300
H891	H89	0.011000	0.485800	0.025900
H901	H90	0.136600	0.531800	0.030600
H911	H91	0.049600	0.352200	0.055900
H921	H92	0.114100	0.429000	0.109900
H931	H93	0.978700	0.377600	0.103000
H941	H94	0.094500	0.659800	0.062500
H951	H95	0.005600	0.569600	0.106600
H961	H96	0.140100	0.615800	0.114200
C1191	C119	0.051700	0.408600	0.082500
C1201	C120	0.078200	0.594800	0.086400
N201	N20	0.070200	0.506000	0.051300
