data_RIPNUB_clean_PM
_symmetry_space_group_name_H-M	'P1'
_cell_length_a	23.005100
_cell_length_b	23.005100
_cell_length_c	15.760800
_cell_angle_alpha	90.000000
_cell_angle_beta	90.000000
_cell_angle_gamma	120.000000
_symmetry_Int_Tables_number 1

loop_
_symmetry_equiv_pos_as_xyz
'x,y,z'

loop_
_atom_site_label
_atom_site_type_symbol
_atom_site_fract_x
_atom_site_fract_y
_atom_site_fract_z
N11	N1	0.968440	0.317900	0.425210
C11	C1	0.990940	0.358090	0.492640
H11	H1	0.984610	0.394740	0.498870
N21	N2	0.023400	0.342520	0.551220
C21	C2	0.989620	0.271280	0.438900
C31	C3	0.980630	0.217260	0.391300
H21	H2	0.958350	0.207040	0.339540
C41	C4	0.006280	0.179390	0.423420
H31	H3	0.001460	0.142860	0.392440
C51	C5	0.039780	0.194190	0.502850
H41	H4	0.056630	0.167370	0.522540
C61	C6	0.022900	0.286070	0.517740
C71	C7	0.047830	0.247170	0.550860
H51	H5	0.069040	0.256630	0.603450
N31	N3	0.926010	0.415630	0.353760
C81	C8	0.947100	0.476510	0.324630
H61	H6	0.975760	0.493130	0.278270
N41	N4	0.925760	0.512880	0.363920
C91	C9	0.884980	0.471060	0.426800
C101	C10	0.847960	0.481320	0.492110
H71	H7	0.848960	0.522000	0.497090
C111	C11	0.884490	0.411490	0.421930
C121	C12	0.846320	0.356880	0.479960
H81	H8	0.846390	0.316560	0.476320
C131	C13	0.811220	0.430280	0.546730
H91	H9	0.786460	0.436580	0.588650
C141	C14	0.809480	0.367800	0.541980
H101	H10	0.783600	0.333910	0.580330
Zn11	Zn1	0.934250	0.328440	0.320630
N51	N5	0.635110	0.651230	0.758540
C151	C15	0.657610	0.691420	0.825970
H111	H11	0.651280	0.728070	0.832200
N61	N6	0.690070	0.675850	0.884550
C161	C16	0.656290	0.604610	0.772230
C171	C17	0.647300	0.550590	0.724630
H121	H12	0.625020	0.540370	0.672870
C181	C18	0.672950	0.512720	0.756750
H131	H13	0.668130	0.476190	0.725770
C191	C19	0.706450	0.527520	0.836180
H141	H14	0.723300	0.500700	0.855870
C201	C20	0.689570	0.619400	0.851070
C211	C21	0.714500	0.580500	0.884190
H151	H15	0.735710	0.589960	0.936780
N71	N7	0.592680	0.748960	0.687090
C221	C22	0.613770	0.809840	0.657960
H161	H16	0.642430	0.826460	0.611600
N81	N8	0.592430	0.846210	0.697250
C231	C23	0.551650	0.804390	0.760130
C241	C24	0.514630	0.814650	0.825440
H171	H17	0.515630	0.855330	0.830420
C251	C25	0.551160	0.744820	0.755260
C261	C26	0.512990	0.690210	0.813290
H181	H18	0.513060	0.649890	0.809650
C271	C27	0.477890	0.763610	0.880060
H191	H19	0.453130	0.769910	0.921980
C281	C28	0.476150	0.701130	0.875310
H201	H20	0.450270	0.667240	0.913660
Zn21	Zn2	0.600920	0.661770	0.653960
N91	N9	0.301770	0.984570	0.091880
C291	C29	0.324270	0.024760	0.159310
H211	H21	0.317940	0.061410	0.165540
N101	N10	0.356730	0.009190	0.217890
C301	C30	0.322950	0.937950	0.105570
C311	C31	0.313960	0.883930	0.057970
H221	H22	0.291680	0.873710	0.006210
C321	C32	0.339610	0.846060	0.090090
H231	H23	0.334790	0.809530	0.059110
C331	C33	0.373110	0.860860	0.169520
H241	H24	0.389960	0.834040	0.189210
C341	C34	0.356230	0.952740	0.184410
C351	C35	0.381160	0.913840	0.217530
H251	H25	0.402370	0.923300	0.270120
N111	N11	0.259340	0.082300	0.020430
C361	C36	0.280430	0.143180	0.991300
H261	H26	0.309090	0.159800	0.944940
N121	N12	0.259090	0.179550	0.030590
C371	C37	0.218310	0.137730	0.093470
C381	C38	0.181290	0.147990	0.158780
H271	H27	0.182290	0.188670	0.163760
C391	C39	0.217820	0.078160	0.088600
C401	C40	0.179650	0.023550	0.146630
H281	H28	0.179720	0.983230	0.142990
C411	C41	0.144550	0.096950	0.213400
H291	H29	0.119790	0.103250	0.255320
C421	C42	0.142810	0.034470	0.208650
H301	H30	0.116930	0.000580	0.247000
Zn31	Zn3	0.267580	0.995110	0.987300
N131	N13	0.682100	0.650540	0.425210
C431	C43	0.641910	0.632850	0.492640
H311	H31	0.605260	0.589870	0.498870
N141	N14	0.657480	0.680880	0.551220
C441	C44	0.728720	0.718340	0.438900
C451	C45	0.782740	0.763370	0.391300
H321	H32	0.792960	0.751310	0.339540
C461	C46	0.820610	0.826890	0.423420
H331	H33	0.857140	0.858600	0.392440
C471	C47	0.805810	0.845590	0.502850
H341	H34	0.832630	0.889260	0.522540
C481	C48	0.713930	0.736830	0.517740
C491	C49	0.752830	0.800660	0.550860
H351	H35	0.743370	0.812410	0.603450
N151	N15	0.584370	0.510380	0.353760
C501	C50	0.523490	0.470590	0.324630
H361	H36	0.506870	0.482630	0.278270
N161	N16	0.487120	0.412880	0.363920
C511	C51	0.528940	0.413920	0.426800
C521	C52	0.518680	0.366640	0.492110
H371	H37	0.478000	0.326960	0.497090
C531	C53	0.588510	0.473000	0.421930
C541	C54	0.643120	0.489440	0.479960
H381	H38	0.683440	0.529830	0.476320
C551	C55	0.569720	0.380940	0.546730
H391	H39	0.563420	0.349880	0.588650
C561	C56	0.632200	0.441680	0.541980
H401	H40	0.666090	0.449690	0.580330
Zn41	Zn4	0.671560	0.605810	0.320630
N171	N17	0.348770	0.983870	0.758540
C571	C57	0.308580	0.966180	0.825970
H411	H41	0.271930	0.923200	0.832200
N181	N18	0.324150	0.014210	0.884550
C581	C58	0.395390	0.051670	0.772230
C591	C59	0.449410	0.096700	0.724630
H421	H42	0.459630	0.084640	0.672870
C601	C60	0.487280	0.160220	0.756750
H431	H43	0.523810	0.191930	0.725770
C611	C61	0.472480	0.178920	0.836180
H441	H44	0.499300	0.222590	0.855870
C621	C62	0.380600	0.070160	0.851070
C631	C63	0.419500	0.133990	0.884190
H451	H45	0.410040	0.145740	0.936780
N191	N19	0.251040	0.843710	0.687090
C641	C64	0.190160	0.803920	0.657960
H461	H46	0.173540	0.815960	0.611600
N201	N20	0.153790	0.746210	0.697250
C651	C65	0.195610	0.747250	0.760130
C661	C66	0.185350	0.699970	0.825440
H471	H47	0.144670	0.660290	0.830420
C671	C67	0.255180	0.806330	0.755260
C681	C68	0.309790	0.822770	0.813290
H481	H48	0.350110	0.863160	0.809650
C691	C69	0.236390	0.714270	0.880060
H491	H49	0.230090	0.683210	0.921980
C701	C70	0.298870	0.775010	0.875310
H501	H50	0.332760	0.783020	0.913660
Zn51	Zn5	0.338230	0.939140	0.653960
N211	N21	0.015430	0.317210	0.091880
C711	C71	0.975240	0.299520	0.159310
H511	H51	0.938590	0.256540	0.165540
N221	N22	0.990810	0.347550	0.217890
C721	C72	0.062050	0.385010	0.105570
C731	C73	0.116070	0.430040	0.057970
H521	H52	0.126290	0.417980	0.006210
C741	C74	0.153940	0.493560	0.090090
H531	H53	0.190470	0.525270	0.059110
C751	C75	0.139140	0.512260	0.169520
H541	H54	0.165960	0.555930	0.189210
C761	C76	0.047260	0.403500	0.184410
C771	C77	0.086160	0.467330	0.217530
H551	H55	0.076700	0.479080	0.270120
N231	N23	0.917700	0.177050	0.020430
C781	C78	0.856820	0.137260	0.991300
H561	H56	0.840200	0.149300	0.944940
N241	N24	0.820450	0.079550	0.030590
C791	C79	0.862270	0.080590	0.093470
C801	C80	0.852010	0.033310	0.158780
H571	H57	0.811330	0.993630	0.163760
C811	C81	0.921840	0.139670	0.088600
C821	C82	0.976450	0.156110	0.146630
H581	H58	0.016770	0.196500	0.142990
C831	C83	0.903050	0.047610	0.213400
H591	H59	0.896750	0.016550	0.255320
C841	C84	0.965530	0.108350	0.208650
H601	H60	0.999420	0.116360	0.247000
Zn61	Zn6	0.004890	0.272480	0.987300
N251	N25	0.349460	0.031560	0.425210
C851	C85	0.367150	0.009060	0.492640
H611	H61	0.410130	0.015390	0.498870
N261	N26	0.319120	0.976600	0.551220
C861	C86	0.281660	0.010380	0.438900
C871	C87	0.236630	0.019370	0.391300
H621	H62	0.248690	0.041650	0.339540
C881	C88	0.173110	0.993720	0.423420
H631	H63	0.141400	0.998540	0.392440
C891	C89	0.154410	0.960220	0.502850
H641	H64	0.110740	0.943370	0.522540
C901	C90	0.263170	0.977100	0.517740
C911	C91	0.199340	0.952170	0.550860
H651	H65	0.187590	0.930960	0.603450
N271	N27	0.489620	0.073990	0.353760
C921	C92	0.529410	0.052900	0.324630
H661	H66	0.517370	0.024240	0.278270
N281	N28	0.587120	0.074240	0.363920
C931	C93	0.586080	0.115020	0.426800
C941	C94	0.633360	0.152040	0.492110
H671	H67	0.673040	0.151040	0.497090
C951	C95	0.527000	0.115510	0.421930
C961	C96	0.510560	0.153680	0.479960
H681	H68	0.470170	0.153610	0.476320
C971	C97	0.619060	0.188780	0.546730
H691	H69	0.650120	0.213540	0.588650
C981	C98	0.558320	0.190520	0.541980
H701	H70	0.550310	0.216400	0.580330
Zn71	Zn7	0.394190	0.065750	0.320630
N291	N29	0.016130	0.364890	0.758540
C991	C99	0.033820	0.342390	0.825970
H711	H71	0.076800	0.348720	0.832200
N301	N30	0.985790	0.309930	0.884550
C1001	C100	0.948330	0.343710	0.772230
C1011	C101	0.903300	0.352700	0.724630
H721	H72	0.915360	0.374980	0.672870
C1021	C102	0.839780	0.327050	0.756750
H731	H73	0.808070	0.331870	0.725770
C1031	C103	0.821080	0.293550	0.836180
H741	H74	0.777410	0.276700	0.855870
C1041	C104	0.929840	0.310430	0.851070
C1051	C105	0.866010	0.285500	0.884190
H751	H75	0.854260	0.264290	0.936780
N311	N31	0.156290	0.407320	0.687090
C1061	C106	0.196080	0.386230	0.657960
H761	H76	0.184040	0.357570	0.611600
N321	N32	0.253790	0.407570	0.697250
C1071	C107	0.252750	0.448350	0.760130
C1081	C108	0.300030	0.485370	0.825440
H771	H77	0.339710	0.484370	0.830420
C1091	C109	0.193670	0.448840	0.755260
C1101	C110	0.177230	0.487010	0.813290
H781	H78	0.136840	0.486940	0.809650
C1111	C111	0.285730	0.522110	0.880060
H791	H79	0.316790	0.546870	0.921980
C1121	C112	0.224990	0.523850	0.875310
H801	H80	0.216980	0.549730	0.913660
Zn81	Zn8	0.060860	0.399080	0.653960
N331	N33	0.682790	0.698230	0.091880
C1131	C113	0.700480	0.675730	0.159310
H811	H81	0.743460	0.682060	0.165540
N341	N34	0.652450	0.643270	0.217890
C1141	C114	0.614990	0.677050	0.105570
C1151	C115	0.569960	0.686040	0.057970
H821	H82	0.582020	0.708320	0.006210
C1161	C116	0.506440	0.660390	0.090090
H831	H83	0.474730	0.665210	0.059110
C1171	C117	0.487740	0.626890	0.169520
H841	H84	0.444070	0.610040	0.189210
C1181	C118	0.596500	0.643770	0.184410
C1191	C119	0.532670	0.618840	0.217530
H851	H85	0.520920	0.597630	0.270120
N351	N35	0.822950	0.740660	0.020430
C1201	C120	0.862740	0.719570	0.991300
H861	H86	0.850700	0.690910	0.944940
N361	N36	0.920450	0.740910	0.030590
C1211	C121	0.919410	0.781690	0.093470
C1221	C122	0.966690	0.818710	0.158780
H871	H87	0.006370	0.817710	0.163760
C1231	C123	0.860330	0.782180	0.088600
C1241	C124	0.843890	0.820350	0.146630
H881	H88	0.803500	0.820280	0.142990
C1251	C125	0.952390	0.855450	0.213400
H891	H89	0.983450	0.880210	0.255320
C1261	C126	0.891650	0.857190	0.208650
H901	H90	0.883640	0.883070	0.247000
Zn91	Zn9	0.727520	0.732420	0.987300
N371	N37	0.031560	0.682100	0.574790
C1271	C127	0.009060	0.641910	0.507360
H911	H91	0.015390	0.605260	0.501130
N381	N38	0.976600	0.657480	0.448780
C1281	C128	0.010380	0.728720	0.561100
C1291	C129	0.019370	0.782740	0.608700
H921	H92	0.041650	0.792960	0.660460
C1301	C130	0.993720	0.820610	0.576580
H931	H93	0.998540	0.857140	0.607560
C1311	C131	0.960220	0.805810	0.497150
H941	H94	0.943370	0.832630	0.477460
C1321	C132	0.977100	0.713930	0.482260
C1331	C133	0.952170	0.752830	0.449140
H951	H95	0.930960	0.743370	0.396550
N391	N39	0.073990	0.584370	0.646240
C1341	C134	0.052900	0.523490	0.675370
H961	H96	0.024240	0.506870	0.721730
N401	N40	0.074240	0.487120	0.636080
C1351	C135	0.115020	0.528940	0.573200
C1361	C136	0.152040	0.518680	0.507890
H971	H97	0.151040	0.478000	0.502910
C1371	C137	0.115510	0.588510	0.578070
C1381	C138	0.153680	0.643120	0.520040
H981	H98	0.153610	0.683440	0.523680
C1391	C139	0.188780	0.569720	0.453270
H991	H99	0.213540	0.563420	0.411350
C1401	C140	0.190520	0.632200	0.458020
H1001	H100	0.216400	0.666090	0.419670
Zn101	Zn10	0.065750	0.671560	0.679370
N411	N41	0.698230	0.015430	0.908120
C1411	C141	0.675730	0.975240	0.840690
H1011	H101	0.682060	0.938590	0.834460
N421	N42	0.643270	0.990810	0.782110
C1421	C142	0.677050	0.062050	0.894430
C1431	C143	0.686040	0.116070	0.942030
H1021	H102	0.708320	0.126290	0.993790
C1441	C144	0.660390	0.153940	0.909910
H1031	H103	0.665210	0.190470	0.940890
C1451	C145	0.626890	0.139140	0.830480
H1041	H104	0.610040	0.165960	0.810790
C1461	C146	0.643770	0.047260	0.815590
C1471	C147	0.618840	0.086160	0.782470
H1051	H105	0.597630	0.076700	0.729880
N431	N43	0.740660	0.917700	0.979570
C1481	C148	0.719570	0.856820	0.008700
H1061	H106	0.690910	0.840200	0.055060
N441	N44	0.740910	0.820450	0.969410
C1491	C149	0.781690	0.862270	0.906530
C1501	C150	0.818710	0.852010	0.841220
H1071	H107	0.817710	0.811330	0.836240
C1511	C151	0.782180	0.921840	0.911400
C1521	C152	0.820350	0.976450	0.853370
H1081	H108	0.820280	0.016770	0.857010
C1531	C153	0.855450	0.903050	0.786600
H1091	H109	0.880210	0.896750	0.744680
C1541	C154	0.857190	0.965530	0.791350
H1101	H110	0.883070	0.999420	0.753000
Zn111	Zn11	0.732420	0.004890	0.012700
N451	N45	0.364890	0.348770	0.241460
C1551	C155	0.342390	0.308580	0.174030
H1111	H111	0.348720	0.271930	0.167800
N461	N46	0.309930	0.324150	0.115450
C1561	C156	0.343710	0.395390	0.227770
C1571	C157	0.352700	0.449410	0.275370
H1121	H112	0.374980	0.459630	0.327130
C1581	C158	0.327050	0.487280	0.243250
H1131	H113	0.331870	0.523810	0.274230
C1591	C159	0.293550	0.472480	0.163820
H1141	H114	0.276700	0.499300	0.144130
C1601	C160	0.310430	0.380600	0.148930
C1611	C161	0.285500	0.419500	0.115810
H1151	H115	0.264290	0.410040	0.063220
N471	N47	0.407320	0.251040	0.312910
C1621	C162	0.386230	0.190160	0.342040
H1161	H116	0.357570	0.173540	0.388400
N481	N48	0.407570	0.153790	0.302750
C1631	C163	0.448350	0.195610	0.239870
C1641	C164	0.485370	0.185350	0.174560
H1171	H117	0.484370	0.144670	0.169580
C1651	C165	0.448840	0.255180	0.244740
C1661	C166	0.487010	0.309790	0.186710
H1181	H118	0.486940	0.350110	0.190350
C1671	C167	0.522110	0.236390	0.119940
H1191	H119	0.546870	0.230090	0.078020
C1681	C168	0.523850	0.298870	0.124690
H1201	H120	0.549730	0.332760	0.086340
Zn121	Zn12	0.399080	0.338230	0.346040
N491	N49	0.317900	0.349460	0.574790
C1691	C169	0.358090	0.367150	0.507360
H1211	H121	0.394740	0.410130	0.501130
N501	N50	0.342520	0.319120	0.448780
C1701	C170	0.271280	0.281660	0.561100
C1711	C171	0.217260	0.236630	0.608700
H1221	H122	0.207040	0.248690	0.660460
C1721	C172	0.179390	0.173110	0.576580
H1231	H123	0.142860	0.141400	0.607560
C1731	C173	0.194190	0.154410	0.497150
H1241	H124	0.167370	0.110740	0.477460
C1741	C174	0.286070	0.263170	0.482260
C1751	C175	0.247170	0.199340	0.449140
H1251	H125	0.256630	0.187590	0.396550
N511	N51	0.415630	0.489620	0.646240
C1761	C176	0.476510	0.529410	0.675370
H1261	H126	0.493130	0.517370	0.721730
N521	N52	0.512880	0.587120	0.636080
C1771	C177	0.471060	0.586080	0.573200
C1781	C178	0.481320	0.633360	0.507890
H1271	H127	0.522000	0.673040	0.502910
C1791	C179	0.411490	0.527000	0.578070
C1801	C180	0.356880	0.510560	0.520040
H1281	H128	0.316560	0.470170	0.523680
C1811	C181	0.430280	0.619060	0.453270
H1291	H129	0.436580	0.650120	0.411350
C1821	C182	0.367800	0.558320	0.458020
H1301	H130	0.333910	0.550310	0.419670
Zn131	Zn13	0.328440	0.394190	0.679370
N531	N53	0.984570	0.682790	0.908120
C1831	C183	0.024760	0.700480	0.840690
H1311	H131	0.061410	0.743460	0.834460
N541	N54	0.009190	0.652450	0.782110
C1841	C184	0.937950	0.614990	0.894430
C1851	C185	0.883930	0.569960	0.942030
H1321	H132	0.873710	0.582020	0.993790
C1861	C186	0.846060	0.506440	0.909910
H1331	H133	0.809530	0.474730	0.940890
C1871	C187	0.860860	0.487740	0.830480
H1341	H134	0.834040	0.444070	0.810790
C1881	C188	0.952740	0.596500	0.815590
C1891	C189	0.913840	0.532670	0.782470
H1351	H135	0.923300	0.520920	0.729880
N551	N55	0.082300	0.822950	0.979570
C1901	C190	0.143180	0.862740	0.008700
H1361	H136	0.159800	0.850700	0.055060
N561	N56	0.179550	0.920450	0.969410
C1911	C191	0.137730	0.919410	0.906530
C1921	C192	0.147990	0.966690	0.841220
H1371	H137	0.188670	0.006370	0.836240
C1931	C193	0.078160	0.860330	0.911400
C1941	C194	0.023550	0.843890	0.853370
H1381	H138	0.983230	0.803500	0.857010
C1951	C195	0.096950	0.952390	0.786600
H1391	H139	0.103250	0.983450	0.744680
C1961	C196	0.034470	0.891650	0.791350
H1401	H140	0.000580	0.883640	0.753000
Zn141	Zn14	0.995110	0.727520	0.012700
N571	N57	0.651230	0.016130	0.241460
C1971	C197	0.691420	0.033820	0.174030
H1411	H141	0.728070	0.076800	0.167800
N581	N58	0.675850	0.985790	0.115450
C1981	C198	0.604610	0.948330	0.227770
C1991	C199	0.550590	0.903300	0.275370
H1421	H142	0.540370	0.915360	0.327130
C2001	C200	0.512720	0.839780	0.243250
H1431	H143	0.476190	0.808070	0.274230
C2011	C201	0.527520	0.821080	0.163820
H1441	H144	0.500700	0.777410	0.144130
C2021	C202	0.619400	0.929840	0.148930
C2031	C203	0.580500	0.866010	0.115810
H1451	H145	0.589960	0.854260	0.063220
N591	N59	0.748960	0.156290	0.312910
C2041	C204	0.809840	0.196080	0.342040
H1461	H146	0.826460	0.184040	0.388400
N601	N60	0.846210	0.253790	0.302750
C2051	C205	0.804390	0.252750	0.239870
C2061	C206	0.814650	0.300030	0.174560
H1471	H147	0.855330	0.339710	0.169580
C2071	C207	0.744820	0.193670	0.244740
C2081	C208	0.690210	0.177230	0.186710
H1481	H148	0.649890	0.136840	0.190350
C2091	C209	0.763610	0.285730	0.119940
H1491	H149	0.769910	0.316790	0.078020
C2101	C210	0.701130	0.224990	0.124690
H1501	H150	0.667240	0.216980	0.086340
Zn151	Zn15	0.661770	0.060860	0.346040
N611	N61	0.650540	0.968440	0.574790
C2111	C211	0.632850	0.990940	0.507360
H1511	H151	0.589870	0.984610	0.501130
N621	N62	0.680880	0.023400	0.448780
C2121	C212	0.718340	0.989620	0.561100
C2131	C213	0.763370	0.980630	0.608700
H1521	H152	0.751310	0.958350	0.660460
C2141	C214	0.826890	0.006280	0.576580
H1531	H153	0.858600	0.001460	0.607560
C2151	C215	0.845590	0.039780	0.497150
H1541	H154	0.889260	0.056630	0.477460
C2161	C216	0.736830	0.022900	0.482260
C2171	C217	0.800660	0.047830	0.449140
H1551	H155	0.812410	0.069040	0.396550
N631	N63	0.510380	0.926010	0.646240
C2181	C218	0.470590	0.947100	0.675370
H1561	H156	0.482630	0.975760	0.721730
N641	N64	0.412880	0.925760	0.636080
C2191	C219	0.413920	0.884980	0.573200
C2201	C220	0.366640	0.847960	0.507890
H1571	H157	0.326960	0.848960	0.502910
C2211	C221	0.473000	0.884490	0.578070
C2221	C222	0.489440	0.846320	0.520040
H1581	H158	0.529830	0.846390	0.523680
C2231	C223	0.380940	0.811220	0.453270
H1591	H159	0.349880	0.786460	0.411350
C2241	C224	0.441680	0.809480	0.458020
H1601	H160	0.449690	0.783600	0.419670
Zn161	Zn16	0.605810	0.934250	0.679370
N651	N65	0.317210	0.301770	0.908120
C2251	C225	0.299520	0.324270	0.840690
H1611	H161	0.256540	0.317940	0.834460
N661	N66	0.347550	0.356730	0.782110
C2261	C226	0.385010	0.322950	0.894430
C2271	C227	0.430040	0.313960	0.942030
H1621	H162	0.417980	0.291680	0.993790
C2281	C228	0.493560	0.339610	0.909910
H1631	H163	0.525270	0.334790	0.940890
C2291	C229	0.512260	0.373110	0.830480
H1641	H164	0.555930	0.389960	0.810790
C2301	C230	0.403500	0.356230	0.815590
C2311	C231	0.467330	0.381160	0.782470
H1651	H165	0.479080	0.402370	0.729880
N671	N67	0.177050	0.259340	0.979570
C2321	C232	0.137260	0.280430	0.008700
H1661	H166	0.149300	0.309090	0.055060
N681	N68	0.079550	0.259090	0.969410
C2331	C233	0.080590	0.218310	0.906530
C2341	C234	0.033310	0.181290	0.841220
H1671	H167	0.993630	0.182290	0.836240
C2351	C235	0.139670	0.217820	0.911400
C2361	C236	0.156110	0.179650	0.853370
H1681	H168	0.196500	0.179720	0.857010
C2371	C237	0.047610	0.144550	0.786600
H1691	H169	0.016550	0.119790	0.744680
C2381	C238	0.108350	0.142810	0.791350
H1701	H170	0.116360	0.116930	0.753000
Zn171	Zn17	0.272480	0.267580	0.012700
N691	N69	0.983870	0.635110	0.241460
C2391	C239	0.966180	0.657610	0.174030
H1711	H171	0.923200	0.651280	0.167800
N701	N70	0.014210	0.690070	0.115450
C2401	C240	0.051670	0.656290	0.227770
C2411	C241	0.096700	0.647300	0.275370
H1721	H172	0.084640	0.625020	0.327130
C2421	C242	0.160220	0.672950	0.243250
H1731	H173	0.191930	0.668130	0.274230
C2431	C243	0.178920	0.706450	0.163820
H1741	H174	0.222590	0.723300	0.144130
C2441	C244	0.070160	0.689570	0.148930
C2451	C245	0.133990	0.714500	0.115810
H1751	H175	0.145740	0.735710	0.063220
N711	N71	0.843710	0.592680	0.312910
C2461	C246	0.803920	0.613770	0.342040
H1761	H176	0.815960	0.642430	0.388400
N721	N72	0.746210	0.592430	0.302750
C2471	C247	0.747250	0.551650	0.239870
C2481	C248	0.699970	0.514630	0.174560
H1771	H177	0.660290	0.515630	0.169580
C2491	C249	0.806330	0.551160	0.244740
C2501	C250	0.822770	0.512990	0.186710
H1781	H178	0.863160	0.513060	0.190350
C2511	C251	0.714270	0.477890	0.119940
H1791	H179	0.683210	0.453130	0.078020
C2521	C252	0.775010	0.476150	0.124690
H1801	H180	0.783020	0.450270	0.086340
Zn181	Zn18	0.939140	0.600920	0.346040
