data_RIPWIY_clean_PM
_symmetry_space_group_name_H-M	'P1'
_cell_length_a	29.035400
_cell_length_b	22.137800
_cell_length_c	24.558300
_cell_angle_alpha	90.000000
_cell_angle_beta	108.987000
_cell_angle_gamma	90.000000
_symmetry_Int_Tables_number 1

loop_
_symmetry_equiv_pos_as_xyz
'x,y,z'

loop_
_atom_site_label
_atom_site_type_symbol
_atom_site_fract_x
_atom_site_fract_y
_atom_site_fract_z
W11	W1	0.807050	0.568550	0.180250
W21	W2	0.814730	0.891530	0.180100
W31	W3	0.908450	0.462520	0.179740
W41	W4	0.976420	0.611230	0.396470
W51	W5	0.938270	0.772370	0.397320
W61	W6	0.769030	0.732890	0.181930
W71	W7	0.039160	0.461730	0.178290
W81	W8	0.957120	0.869030	0.105010
W91	W9	0.854620	0.766880	0.104760
W101	W10	0.895170	0.606700	0.104860
W111	W11	0.812230	0.718800	0.324730
W121	W12	0.049240	0.984540	0.178030
W131	W13	0.853340	0.555580	0.322760
W141	W14	0.079420	0.993190	0.320390
W151	W15	0.845620	0.882520	0.322880
Sm11	Sm1	0.815150	0.448780	0.436280
Sm21	Sm2	0.922050	0.903110	0.934460
P11	P1	0.886380	0.773300	0.251300
P21	P2	0.929630	0.597700	0.250500
O11	O1	0.898900	0.760900	0.197500
O21	O2	0.806100	0.730300	0.130300
O31	O3	0.834600	0.843200	0.131100
O41	O4	0.912300	0.808400	0.101600
O51	O5	0.882300	0.691100	0.100300
O61	O6	0.957900	0.623600	0.100400
O71	O7	0.864900	0.590600	0.032800
O81	O8	0.931100	0.627000	0.196200
O91	O9	0.839100	0.596900	0.129100
O101	O10	0.912500	0.525400	0.129500
O111	O11	0.041800	0.926100	0.249700
O121	O12	0.908300	0.597200	0.372700
O131	O13	0.875800	0.730900	0.373900
O141	O14	0.978700	0.448300	0.184500
O151	O15	0.946100	0.529500	0.250800
O161	O16	0.826400	0.524600	0.369400
O171	O17	0.011000	0.927400	0.128900
O181	O18	0.869100	0.840600	0.250000
O191	O19	0.782100	0.641800	0.187300
O201	O20	0.776100	0.815200	0.185100
O211	O21	0.983300	0.012500	0.182100
O221	O22	0.980500	0.527800	0.370500
O231	O23	0.802700	0.538800	0.251800
O241	O24	0.105700	0.947500	0.183200
O251	O25	0.804200	0.914300	0.250600
O261	O26	0.968000	0.695400	0.399600
O271	O27	0.079900	0.927700	0.371100
O281	O28	0.925900	0.420400	0.251700
O291	O29	0.075500	0.030400	0.249200
O301	O30	0.757100	0.725100	0.254000
O311	O31	0.812800	0.812000	0.319500
O321	O32	0.860400	0.950300	0.185600
O331	O33	0.943700	0.776900	0.469000
O341	O34	0.936000	0.890000	0.032700
O351	O35	0.893300	0.493700	0.318100
O361	O36	0.015600	0.845600	0.304000
O371	O37	0.903200	0.845000	0.372300
O381	O38	0.851400	0.492800	0.183600
O391	O39	0.003100	0.809400	0.099300
O401	O40	0.875900	0.596900	0.252500
O411	O41	0.962800	0.630800	0.304300
O421	O42	0.051100	0.044800	0.132400
O431	O43	0.779200	0.720800	0.372000
O441	O44	0.935300	0.002600	0.972100
O451	O45	0.763100	0.925300	0.133400
O461	O46	0.819500	0.638000	0.318000
O471	O47	0.992500	0.073000	0.018800
O481	O48	0.843300	0.733600	0.252900
O491	O49	0.931200	0.763000	0.305400
O501	O50	0.964300	0.811900	0.948500
C11	C1	0.977000	0.024800	0.997000
K11	K1	0.765110	0.718100	0.469800
K21	K2	0.955500	0.784200	0.575400
Na11	Na1	0.983800	0.725000	0.191900
W161	W16	0.307050	0.068550	0.180250
W171	W17	0.314730	0.391530	0.180100
W181	W18	0.408450	0.962520	0.179740
W191	W19	0.476420	0.111230	0.396470
W201	W20	0.438270	0.272370	0.397320
W211	W21	0.269030	0.232890	0.181930
W221	W22	0.539160	0.961730	0.178290
W231	W23	0.457120	0.369030	0.105010
W241	W24	0.354620	0.266880	0.104760
W251	W25	0.395170	0.106700	0.104860
W261	W26	0.312230	0.218800	0.324730
W271	W27	0.549240	0.484540	0.178030
W281	W28	0.353340	0.055580	0.322760
W291	W29	0.579420	0.493190	0.320390
W301	W30	0.345620	0.382520	0.322880
Sm31	Sm3	0.315150	0.948780	0.436280
Sm41	Sm4	0.422050	0.403110	0.934460
P31	P3	0.386380	0.273300	0.251300
P41	P4	0.429630	0.097700	0.250500
O511	O51	0.398900	0.260900	0.197500
O521	O52	0.306100	0.230300	0.130300
O531	O53	0.334600	0.343200	0.131100
O541	O54	0.412300	0.308400	0.101600
O551	O55	0.382300	0.191100	0.100300
O561	O56	0.457900	0.123600	0.100400
O571	O57	0.364900	0.090600	0.032800
O581	O58	0.431100	0.127000	0.196200
O591	O59	0.339100	0.096900	0.129100
O601	O60	0.412500	0.025400	0.129500
O611	O61	0.541800	0.426100	0.249700
O621	O62	0.408300	0.097200	0.372700
O631	O63	0.375800	0.230900	0.373900
O641	O64	0.478700	0.948300	0.184500
O651	O65	0.446100	0.029500	0.250800
O661	O66	0.326400	0.024600	0.369400
O671	O67	0.511000	0.427400	0.128900
O681	O68	0.369100	0.340600	0.250000
O691	O69	0.282100	0.141800	0.187300
O701	O70	0.276100	0.315200	0.185100
O711	O71	0.483300	0.512500	0.182100
O721	O72	0.480500	0.027800	0.370500
O731	O73	0.302700	0.038800	0.251800
O741	O74	0.605700	0.447500	0.183200
O751	O75	0.304200	0.414300	0.250600
O761	O76	0.468000	0.195400	0.399600
O771	O77	0.579900	0.427700	0.371100
O781	O78	0.425900	0.920400	0.251700
O791	O79	0.575500	0.530400	0.249200
O801	O80	0.257100	0.225100	0.254000
O811	O81	0.312800	0.312000	0.319500
O821	O82	0.360400	0.450300	0.185600
O831	O83	0.443700	0.276900	0.469000
O841	O84	0.436000	0.390000	0.032700
O851	O85	0.393300	0.993700	0.318100
O861	O86	0.515600	0.345600	0.304000
O871	O87	0.403200	0.345000	0.372300
O881	O88	0.351400	0.992800	0.183600
O891	O89	0.503100	0.309400	0.099300
O901	O90	0.375900	0.096900	0.252500
O911	O91	0.462800	0.130800	0.304300
O921	O92	0.551100	0.544800	0.132400
O931	O93	0.279200	0.220800	0.372000
O941	O94	0.435300	0.502600	0.972100
O951	O95	0.263100	0.425300	0.133400
O961	O96	0.319500	0.138000	0.318000
O971	O97	0.492500	0.573000	0.018800
O981	O98	0.343300	0.233600	0.252900
O991	O99	0.431200	0.263000	0.305400
O1001	O100	0.464300	0.311900	0.948500
C21	C2	0.477000	0.524800	0.997000
K31	K3	0.265110	0.218100	0.469800
K41	K4	0.455500	0.284200	0.575400
Na21	Na2	0.483800	0.225000	0.191900
W311	W31	0.192950	0.568550	0.319750
W321	W32	0.185270	0.891530	0.319900
W331	W33	0.091550	0.462520	0.320260
W341	W34	0.023580	0.611230	0.103530
W351	W35	0.061730	0.772370	0.102680
W361	W36	0.230970	0.732890	0.318070
W371	W37	0.960840	0.461730	0.321710
W381	W38	0.042880	0.869030	0.394990
W391	W39	0.145380	0.766880	0.395240
W401	W40	0.104830	0.606700	0.395140
W411	W41	0.187770	0.718800	0.175270
W421	W42	0.950760	0.984540	0.321970
W431	W43	0.146660	0.555580	0.177240
W441	W44	0.920580	0.993190	0.179610
W451	W45	0.154380	0.882520	0.177120
Sm51	Sm5	0.184850	0.448780	0.063720
Sm61	Sm6	0.077950	0.903110	0.565540
P51	P5	0.113620	0.773300	0.248700
P61	P6	0.070370	0.597700	0.249500
O1011	O101	0.101100	0.760900	0.302500
O1021	O102	0.193900	0.730300	0.369700
O1031	O103	0.165400	0.843200	0.368900
O1041	O104	0.087700	0.808400	0.398400
O1051	O105	0.117700	0.691100	0.399700
O1061	O106	0.042100	0.623600	0.399600
O1071	O107	0.135100	0.590600	0.467200
O1081	O108	0.068900	0.627000	0.303800
O1091	O109	0.160900	0.596900	0.370900
O1101	O110	0.087500	0.525400	0.370500
O1111	O111	0.958200	0.926100	0.250300
O1121	O112	0.091700	0.597200	0.127300
O1131	O113	0.124200	0.730900	0.126100
O1141	O114	0.021300	0.448300	0.315500
O1151	O115	0.053900	0.529500	0.249200
O1161	O116	0.173600	0.524600	0.130600
O1171	O117	0.989000	0.927400	0.371100
O1181	O118	0.130900	0.840600	0.250000
O1191	O119	0.217900	0.641800	0.312700
O1201	O120	0.223900	0.815200	0.314900
O1211	O121	0.016700	0.012500	0.317900
O1221	O122	0.019500	0.527800	0.129500
O1231	O123	0.197300	0.538800	0.248200
O1241	O124	0.894300	0.947500	0.316800
O1251	O125	0.195800	0.914300	0.249400
O1261	O126	0.032000	0.695400	0.100400
O1271	O127	0.920100	0.927700	0.128900
O1281	O128	0.074100	0.420400	0.248300
O1291	O129	0.924500	0.030400	0.250800
O1301	O130	0.242900	0.725100	0.246000
O1311	O131	0.187200	0.812000	0.180500
O1321	O132	0.139600	0.950300	0.314400
O1331	O133	0.056300	0.776900	0.031000
O1341	O134	0.064000	0.890000	0.467300
O1351	O135	0.106700	0.493700	0.181900
O1361	O136	0.984400	0.845600	0.196000
O1371	O137	0.096800	0.845000	0.127700
O1381	O138	0.148600	0.492800	0.316400
O1391	O139	0.996900	0.809400	0.400700
O1401	O140	0.124100	0.596900	0.247500
O1411	O141	0.037200	0.630800	0.195700
O1421	O142	0.948900	0.044800	0.367600
O1431	O143	0.220800	0.720800	0.128000
O1441	O144	0.064700	0.002600	0.527900
O1451	O145	0.236900	0.925300	0.366600
O1461	O146	0.180500	0.638000	0.182000
O1471	O147	0.007500	0.073000	0.481200
O1481	O148	0.156700	0.733600	0.247100
O1491	O149	0.068800	0.763000	0.194600
O1501	O150	0.035700	0.811900	0.551500
C31	C3	0.023000	0.024800	0.503000
K51	K5	0.234890	0.718100	0.030200
K61	K6	0.044500	0.784200	0.924600
Na31	Na3	0.016200	0.725000	0.308100
W461	W46	0.692950	0.068550	0.319750
W471	W47	0.685270	0.391530	0.319900
W481	W48	0.591550	0.962520	0.320260
W491	W49	0.523580	0.111230	0.103530
W501	W50	0.561730	0.272370	0.102680
W511	W51	0.730970	0.232890	0.318070
W521	W52	0.460840	0.961730	0.321710
W531	W53	0.542880	0.369030	0.394990
W541	W54	0.645380	0.266880	0.395240
W551	W55	0.604830	0.106700	0.395140
W561	W56	0.687770	0.218800	0.175270
W571	W57	0.450760	0.484540	0.321970
W581	W58	0.646660	0.055580	0.177240
W591	W59	0.420580	0.493190	0.179610
W601	W60	0.654380	0.382520	0.177120
Sm71	Sm7	0.684850	0.948780	0.063720
Sm81	Sm8	0.577950	0.403110	0.565540
P71	P7	0.613620	0.273300	0.248700
P81	P8	0.570370	0.097700	0.249500
O1511	O151	0.601100	0.260900	0.302500
O1521	O152	0.693900	0.230300	0.369700
O1531	O153	0.665400	0.343200	0.368900
O1541	O154	0.587700	0.308400	0.398400
O1551	O155	0.617700	0.191100	0.399700
O1561	O156	0.542100	0.123600	0.399600
O1571	O157	0.635100	0.090600	0.467200
O1581	O158	0.568900	0.127000	0.303800
O1591	O159	0.660900	0.096900	0.370900
O1601	O160	0.587500	0.025400	0.370500
O1611	O161	0.458200	0.426100	0.250300
O1621	O162	0.591700	0.097200	0.127300
O1631	O163	0.624200	0.230900	0.126100
O1641	O164	0.521300	0.948300	0.315500
O1651	O165	0.553900	0.029500	0.249200
O1661	O166	0.673600	0.024600	0.130600
O1671	O167	0.489000	0.427400	0.371100
O1681	O168	0.630900	0.340600	0.250000
O1691	O169	0.717900	0.141800	0.312700
O1701	O170	0.723900	0.315200	0.314900
O1711	O171	0.516700	0.512500	0.317900
O1721	O172	0.519500	0.027800	0.129500
O1731	O173	0.697300	0.038800	0.248200
O1741	O174	0.394300	0.447500	0.316800
O1751	O175	0.695800	0.414300	0.249400
O1761	O176	0.532000	0.195400	0.100400
O1771	O177	0.420100	0.427700	0.128900
O1781	O178	0.574100	0.920400	0.248300
O1791	O179	0.424500	0.530400	0.250800
O1801	O180	0.742900	0.225100	0.246000
O1811	O181	0.687200	0.312000	0.180500
O1821	O182	0.639600	0.450300	0.314400
O1831	O183	0.556300	0.276900	0.031000
O1841	O184	0.564000	0.390000	0.467300
O1851	O185	0.606700	0.993700	0.181900
O1861	O186	0.484400	0.345600	0.196000
O1871	O187	0.596800	0.345000	0.127700
O1881	O188	0.648600	0.992800	0.316400
O1891	O189	0.496900	0.309400	0.400700
O1901	O190	0.624100	0.096900	0.247500
O1911	O191	0.537200	0.130800	0.195700
O1921	O192	0.448900	0.544800	0.367600
O1931	O193	0.720800	0.220800	0.128000
O1941	O194	0.564700	0.502600	0.527900
O1951	O195	0.736900	0.425300	0.366600
O1961	O196	0.680500	0.138000	0.182000
O1971	O197	0.507500	0.573000	0.481200
O1981	O198	0.656700	0.233600	0.247100
O1991	O199	0.568800	0.263000	0.194600
O2001	O200	0.535700	0.311900	0.551500
C41	C4	0.523000	0.524800	0.503000
K71	K7	0.734890	0.218100	0.030200
K81	K8	0.544500	0.284200	0.924600
Na41	Na4	0.516200	0.225000	0.308100
W611	W61	0.192950	0.431450	0.819750
W621	W62	0.185270	0.108470	0.819900
W631	W63	0.091550	0.537480	0.820260
W641	W64	0.023580	0.388770	0.603530
W651	W65	0.061730	0.227630	0.602680
W661	W66	0.230970	0.267110	0.818070
W671	W67	0.960840	0.538270	0.821710
W681	W68	0.042880	0.130970	0.894990
W691	W69	0.145380	0.233120	0.895240
W701	W70	0.104830	0.393300	0.895140
W711	W71	0.187770	0.281200	0.675270
W721	W72	0.950760	0.015460	0.821970
W731	W73	0.146660	0.444420	0.677240
W741	W74	0.920580	0.006810	0.679610
W751	W75	0.154380	0.117480	0.677120
Sm91	Sm9	0.184850	0.551220	0.563720
Sm101	Sm10	0.077950	0.096890	0.065540
P91	P9	0.113620	0.226700	0.748700
P101	P10	0.070370	0.402300	0.749500
O2011	O201	0.101100	0.239100	0.802500
O2021	O202	0.193900	0.269700	0.869700
O2031	O203	0.165400	0.156800	0.868900
O2041	O204	0.087700	0.191600	0.898400
O2051	O205	0.117700	0.308900	0.899700
O2061	O206	0.042100	0.376400	0.899600
O2071	O207	0.135100	0.409400	0.967200
O2081	O208	0.068900	0.373000	0.803800
O2091	O209	0.160900	0.403100	0.870900
O2101	O210	0.087500	0.474600	0.870500
O2111	O211	0.958200	0.073900	0.750300
O2121	O212	0.091700	0.402800	0.627300
O2131	O213	0.124200	0.269100	0.626100
O2141	O214	0.021300	0.551700	0.815500
O2151	O215	0.053900	0.470500	0.749200
O2161	O216	0.173600	0.475400	0.630600
O2171	O217	0.989000	0.072600	0.871100
O2181	O218	0.130900	0.159400	0.750000
O2191	O219	0.217900	0.358200	0.812700
O2201	O220	0.223900	0.184800	0.814900
O2211	O221	0.016700	0.987500	0.817900
O2221	O222	0.019500	0.472200	0.629500
O2231	O223	0.197300	0.461200	0.748200
O2241	O224	0.894300	0.052500	0.816800
O2251	O225	0.195800	0.085700	0.749400
O2261	O226	0.032000	0.304600	0.600400
O2271	O227	0.920100	0.072300	0.628900
O2281	O228	0.074100	0.579600	0.748300
O2291	O229	0.924500	0.969600	0.750800
O2301	O230	0.242900	0.274900	0.746000
O2311	O231	0.187200	0.188000	0.680500
O2321	O232	0.139600	0.049700	0.814400
O2331	O233	0.056300	0.223100	0.531000
O2341	O234	0.064000	0.110000	0.967300
O2351	O235	0.106700	0.506300	0.681900
O2361	O236	0.984400	0.154400	0.696000
O2371	O237	0.096800	0.155000	0.627700
O2381	O238	0.148600	0.507200	0.816400
O2391	O239	0.996900	0.190600	0.900700
O2401	O240	0.124100	0.403100	0.747500
O2411	O241	0.037200	0.369200	0.695700
O2421	O242	0.948900	0.955200	0.867600
O2431	O243	0.220800	0.279200	0.628000
O2441	O244	0.064700	0.997400	0.027900
O2451	O245	0.236900	0.074700	0.866600
O2461	O246	0.180500	0.362000	0.682000
O2471	O247	0.007500	0.927000	0.981200
O2481	O248	0.156700	0.266400	0.747100
O2491	O249	0.068800	0.237000	0.694600
O2501	O250	0.035700	0.188100	0.051500
C51	C5	0.023000	0.975200	0.003000
K91	K9	0.234890	0.281900	0.530200
K101	K10	0.044500	0.215800	0.424600
Na51	Na5	0.016200	0.275000	0.808100
W761	W76	0.692950	0.931450	0.819750
W771	W77	0.685270	0.608470	0.819900
W781	W78	0.591550	0.037480	0.820260
W791	W79	0.523580	0.888770	0.603530
W801	W80	0.561730	0.727630	0.602680
W811	W81	0.730970	0.767110	0.818070
W821	W82	0.460840	0.038270	0.821710
W831	W83	0.542880	0.630970	0.894990
W841	W84	0.645380	0.733120	0.895240
W851	W85	0.604830	0.893300	0.895140
W861	W86	0.687770	0.781200	0.675270
W871	W87	0.450760	0.515460	0.821970
W881	W88	0.646660	0.944420	0.677240
W891	W89	0.420580	0.506810	0.679610
W901	W90	0.654380	0.617480	0.677120
Sm111	Sm11	0.684850	0.051220	0.563720
Sm121	Sm12	0.577950	0.596890	0.065540
P111	P11	0.613620	0.726700	0.748700
P121	P12	0.570370	0.902300	0.749500
O2511	O251	0.601100	0.739100	0.802500
O2521	O252	0.693900	0.769700	0.869700
O2531	O253	0.665400	0.656800	0.868900
O2541	O254	0.587700	0.691600	0.898400
O2551	O255	0.617700	0.808900	0.899700
O2561	O256	0.542100	0.876400	0.899600
O2571	O257	0.635100	0.909400	0.967200
O2581	O258	0.568900	0.873000	0.803800
O2591	O259	0.660900	0.903100	0.870900
O2601	O260	0.587500	0.974600	0.870500
O2611	O261	0.458200	0.573900	0.750300
O2621	O262	0.591700	0.902800	0.627300
O2631	O263	0.624200	0.769100	0.626100
O2641	O264	0.521300	0.051700	0.815500
O2651	O265	0.553900	0.970500	0.749200
O2661	O266	0.673600	0.975400	0.630600
O2671	O267	0.489000	0.572600	0.871100
O2681	O268	0.630900	0.659400	0.750000
O2691	O269	0.717900	0.858200	0.812700
O2701	O270	0.723900	0.684800	0.814900
O2711	O271	0.516700	0.487500	0.817900
O2721	O272	0.519500	0.972200	0.629500
O2731	O273	0.697300	0.961200	0.748200
O2741	O274	0.394300	0.552500	0.816800
O2751	O275	0.695800	0.585700	0.749400
O2761	O276	0.532000	0.804600	0.600400
O2771	O277	0.420100	0.572300	0.628900
O2781	O278	0.574100	0.079600	0.748300
O2791	O279	0.424500	0.469600	0.750800
O2801	O280	0.742900	0.774900	0.746000
O2811	O281	0.687200	0.688000	0.680500
O2821	O282	0.639600	0.549700	0.814400
O2831	O283	0.556300	0.723100	0.531000
O2841	O284	0.564000	0.610000	0.967300
O2851	O285	0.606700	0.006300	0.681900
O2861	O286	0.484400	0.654400	0.696000
O2871	O287	0.596800	0.655000	0.627700
O2881	O288	0.648600	0.007200	0.816400
O2891	O289	0.496900	0.690600	0.900700
O2901	O290	0.624100	0.903100	0.747500
O2911	O291	0.537200	0.869200	0.695700
O2921	O292	0.448900	0.455200	0.867600
O2931	O293	0.720800	0.779200	0.628000
O2941	O294	0.564700	0.497400	0.027900
O2951	O295	0.736900	0.574700	0.866600
O2961	O296	0.680500	0.862000	0.682000
O2971	O297	0.507500	0.427000	0.981200
O2981	O298	0.656700	0.766400	0.747100
O2991	O299	0.568800	0.737000	0.694600
O3001	O300	0.535700	0.688100	0.051500
C61	C6	0.523000	0.475200	0.003000
K111	K11	0.734890	0.781900	0.530200
K121	K12	0.544500	0.715800	0.424600
Na61	Na6	0.516200	0.775000	0.808100
W911	W91	0.807050	0.431450	0.680250
W921	W92	0.814730	0.108470	0.680100
W931	W93	0.908450	0.537480	0.679740
W941	W94	0.976420	0.388770	0.896470
W951	W95	0.938270	0.227630	0.897320
W961	W96	0.769030	0.267110	0.681930
W971	W97	0.039160	0.538270	0.678290
W981	W98	0.957120	0.130970	0.605010
W991	W99	0.854620	0.233120	0.604760
W1001	W100	0.895170	0.393300	0.604860
W1011	W101	0.812230	0.281200	0.824730
W1021	W102	0.049240	0.015460	0.678030
W1031	W103	0.853340	0.444420	0.822760
W1041	W104	0.079420	0.006810	0.820390
W1051	W105	0.845620	0.117480	0.822880
Sm131	Sm13	0.815150	0.551220	0.936280
Sm141	Sm14	0.922050	0.096890	0.434460
P131	P13	0.886380	0.226700	0.751300
P141	P14	0.929630	0.402300	0.750500
O3011	O301	0.898900	0.239100	0.697500
O3021	O302	0.806100	0.269700	0.630300
O3031	O303	0.834600	0.156800	0.631100
O3041	O304	0.912300	0.191600	0.601600
O3051	O305	0.882300	0.308900	0.600300
O3061	O306	0.957900	0.376400	0.600400
O3071	O307	0.864900	0.409400	0.532800
O3081	O308	0.931100	0.373000	0.696200
O3091	O309	0.839100	0.403100	0.629100
O3101	O310	0.912500	0.474600	0.629500
O3111	O311	0.041800	0.073900	0.749700
O3121	O312	0.908300	0.402800	0.872700
O3131	O313	0.875800	0.269100	0.873900
O3141	O314	0.978700	0.551700	0.684500
O3151	O315	0.946100	0.470500	0.750800
O3161	O316	0.826400	0.475400	0.869400
O3171	O317	0.011000	0.072600	0.628900
O3181	O318	0.869100	0.159400	0.750000
O3191	O319	0.782100	0.358200	0.687300
O3201	O320	0.776100	0.184800	0.685100
O3211	O321	0.983300	0.987500	0.682100
O3221	O322	0.980500	0.472200	0.870500
O3231	O323	0.802700	0.461200	0.751800
O3241	O324	0.105700	0.052500	0.683200
O3251	O325	0.804200	0.085700	0.750600
O3261	O326	0.968000	0.304600	0.899600
O3271	O327	0.079900	0.072300	0.871100
O3281	O328	0.925900	0.579600	0.751700
O3291	O329	0.075500	0.969600	0.749200
O3301	O330	0.757100	0.274900	0.754000
O3311	O331	0.812800	0.188000	0.819500
O3321	O332	0.860400	0.049700	0.685600
O3331	O333	0.943700	0.223100	0.969000
O3341	O334	0.936000	0.110000	0.532700
O3351	O335	0.893300	0.506300	0.818100
O3361	O336	0.015600	0.154400	0.804000
O3371	O337	0.903200	0.155000	0.872300
O3381	O338	0.851400	0.507200	0.683600
O3391	O339	0.003100	0.190600	0.599300
O3401	O340	0.875900	0.403100	0.752500
O3411	O341	0.962800	0.369200	0.804300
O3421	O342	0.051100	0.955200	0.632400
O3431	O343	0.779200	0.279200	0.872000
O3441	O344	0.935300	0.997400	0.472100
O3451	O345	0.763100	0.074700	0.633400
O3461	O346	0.819500	0.362000	0.818000
O3471	O347	0.992500	0.927000	0.518800
O3481	O348	0.843300	0.266400	0.752900
O3491	O349	0.931200	0.237000	0.805400
O3501	O350	0.964300	0.188100	0.448500
C71	C7	0.977000	0.975200	0.497000
K131	K13	0.765110	0.281900	0.969800
K141	K14	0.955500	0.215800	0.075400
Na71	Na7	0.983800	0.275000	0.691900
W1061	W106	0.307050	0.931450	0.680250
W1071	W107	0.314730	0.608470	0.680100
W1081	W108	0.408450	0.037480	0.679740
W1091	W109	0.476420	0.888770	0.896470
W1101	W110	0.438270	0.727630	0.897320
W1111	W111	0.269030	0.767110	0.681930
W1121	W112	0.539160	0.038270	0.678290
W1131	W113	0.457120	0.630970	0.605010
W1141	W114	0.354620	0.733120	0.604760
W1151	W115	0.395170	0.893300	0.604860
W1161	W116	0.312230	0.781200	0.824730
W1171	W117	0.549240	0.515460	0.678030
W1181	W118	0.353340	0.944420	0.822760
W1191	W119	0.579420	0.506810	0.820390
W1201	W120	0.345620	0.617480	0.822880
Sm151	Sm15	0.315150	0.051220	0.936280
Sm161	Sm16	0.422050	0.596890	0.434460
P151	P15	0.386380	0.726700	0.751300
P161	P16	0.429630	0.902300	0.750500
O3511	O351	0.398900	0.739100	0.697500
O3521	O352	0.306100	0.769700	0.630300
O3531	O353	0.334600	0.656800	0.631100
O3541	O354	0.412300	0.691600	0.601600
O3551	O355	0.382300	0.808900	0.600300
O3561	O356	0.457900	0.876400	0.600400
O3571	O357	0.364900	0.909400	0.532800
O3581	O358	0.431100	0.873000	0.696200
O3591	O359	0.339100	0.903100	0.629100
O3601	O360	0.412500	0.974600	0.629500
O3611	O361	0.541800	0.573900	0.749700
O3621	O362	0.408300	0.902800	0.872700
O3631	O363	0.375800	0.769100	0.873900
O3641	O364	0.478700	0.051700	0.684500
O3651	O365	0.446100	0.970500	0.750800
O3661	O366	0.326400	0.975400	0.869400
O3671	O367	0.511000	0.572600	0.628900
O3681	O368	0.369100	0.659400	0.750000
O3691	O369	0.282100	0.858200	0.687300
O3701	O370	0.276100	0.684800	0.685100
O3711	O371	0.483300	0.487500	0.682100
O3721	O372	0.480500	0.972200	0.870500
O3731	O373	0.302700	0.961200	0.751800
O3741	O374	0.605700	0.552500	0.683200
O3751	O375	0.304200	0.585700	0.750600
O3761	O376	0.468000	0.804600	0.899600
O3771	O377	0.579900	0.572300	0.871100
O3781	O378	0.425900	0.079600	0.751700
O3791	O379	0.575500	0.469600	0.749200
O3801	O380	0.257100	0.774900	0.754000
O3811	O381	0.312800	0.688000	0.819500
O3821	O382	0.360400	0.549700	0.685600
O3831	O383	0.443700	0.723100	0.969000
O3841	O384	0.436000	0.610000	0.532700
O3851	O385	0.393300	0.006300	0.818100
O3861	O386	0.515600	0.654400	0.804000
O3871	O387	0.403200	0.655000	0.872300
O3881	O388	0.351400	0.007200	0.683600
O3891	O389	0.503100	0.690600	0.599300
O3901	O390	0.375900	0.903100	0.752500
O3911	O391	0.462800	0.869200	0.804300
O3921	O392	0.551100	0.455200	0.632400
O3931	O393	0.279200	0.779200	0.872000
O3941	O394	0.435300	0.497400	0.472100
O3951	O395	0.263100	0.574700	0.633400
O3961	O396	0.319500	0.862000	0.818000
O3971	O397	0.492500	0.427000	0.518800
O3981	O398	0.343300	0.766400	0.752900
O3991	O399	0.431200	0.737000	0.805400
O4001	O400	0.464300	0.688100	0.448500
C81	C8	0.477000	0.475200	0.497000
K151	K15	0.265110	0.781900	0.969800
K161	K16	0.455500	0.715800	0.075400
Na81	Na8	0.483800	0.775000	0.691900
P171	P17	0.000000	0.883600	0.250000
P181	P18	0.500000	0.383600	0.250000
P191	P19	0.000000	0.116400	0.750000
P201	P20	0.500000	0.616400	0.750000
