data_RIXBIK_clean_PM
_symmetry_space_group_name_H-M	'P1'
_cell_length_a	8.708000
_cell_length_b	11.663000
_cell_length_c	27.218000
_cell_angle_alpha	101.485000
_cell_angle_beta	90.000000
_cell_angle_gamma	90.000000
_symmetry_Int_Tables_number 1

loop_
_symmetry_equiv_pos_as_xyz
'x,y,z'

loop_
_atom_site_label
_atom_site_type_symbol
_atom_site_fract_x
_atom_site_fract_y
_atom_site_fract_z
Mn11	Mn1	0.366130	0.746150	0.803330
Mn21	Mn2	0.866130	0.753850	0.696670
Mn31	Mn3	0.633870	0.253850	0.196670
Mn41	Mn4	0.133870	0.246150	0.303330
H11	H1	0.951500	0.888400	0.887500
H21	H2	0.749000	0.768200	0.877700
H31	H3	0.644000	0.873900	0.872700
H41	H4	0.863400	0.112600	0.993700
H51	H5	0.433500	0.190200	0.041400
H61	H6	0.345900	0.149500	0.959900
H71	H7	0.520600	0.091300	0.894200
H81	H8	0.536600	0.940500	0.754500
H91	H9	0.541700	0.134600	0.753000
H101	H10	0.188500	0.179000	0.848400
H111	H11	0.191100	0.981200	0.845200
H121	H12	0.460100	0.306300	0.733500
H131	H13	0.462100	0.503600	0.738600
H141	H14	0.283400	0.558200	0.870600
H151	H15	0.272500	0.363100	0.869800
H161	H16	0.451500	0.611600	0.612500
H171	H17	0.249000	0.731800	0.622300
H181	H18	0.144000	0.626100	0.627300
H191	H19	0.363400	0.387400	0.506300
H201	H20	0.933500	0.309800	0.458600
H211	H21	0.845900	0.350500	0.540100
H221	H22	0.020600	0.408700	0.605800
H231	H23	0.036600	0.559500	0.745500
H241	H24	0.041700	0.365400	0.747000
H251	H25	0.688500	0.321000	0.651600
H261	H26	0.691100	0.518800	0.654800
H271	H27	0.960100	0.193700	0.766500
H281	H28	0.962100	0.996400	0.761400
H291	H29	0.783400	0.941800	0.629400
H301	H30	0.772500	0.136900	0.630200
H311	H31	0.048500	0.111600	0.112500
H321	H32	0.251000	0.231800	0.122300
H331	H33	0.356000	0.126100	0.127300
H341	H34	0.136600	0.887400	0.006300
H351	H35	0.566500	0.809800	0.958600
H361	H36	0.654100	0.850500	0.040100
H371	H37	0.479400	0.908700	0.105800
H381	H38	0.463400	0.059500	0.245500
H391	H39	0.458300	0.865400	0.247000
H401	H40	0.811500	0.821000	0.151600
H411	H41	0.808900	0.018800	0.154800
H421	H42	0.539900	0.693700	0.266500
H431	H43	0.537900	0.496400	0.261400
H441	H44	0.716600	0.441800	0.129400
H451	H45	0.727500	0.636900	0.130200
H461	H46	0.548500	0.388400	0.387500
H471	H47	0.751000	0.268200	0.377700
H481	H48	0.856000	0.373900	0.372700
H491	H49	0.636600	0.612600	0.493700
H501	H50	0.066500	0.690200	0.541400
H511	H51	0.154100	0.649500	0.459900
H521	H52	0.979400	0.591300	0.394200
H531	H53	0.963400	0.440500	0.254500
H541	H54	0.958300	0.634600	0.253000
H551	H55	0.311500	0.679000	0.348400
H561	H56	0.308900	0.481200	0.345200
H571	H57	0.039900	0.806300	0.233500
H581	H58	0.037900	0.003600	0.238600
H591	H59	0.216600	0.058200	0.370600
H601	H60	0.227500	0.863100	0.369800
C11	C1	0.732500	0.791100	0.805320
C21	C2	0.740500	0.835500	0.861900
C31	C3	0.706900	0.096700	0.938100
C41	C4	0.759600	0.120500	0.987100
C51	C5	0.657300	0.156200	0.026100
C61	C6	0.502600	0.166600	0.015300
C71	C7	0.449900	0.142500	0.966700
C81	C8	0.554400	0.107300	0.927200
C91	C9	0.714500	0.185900	0.079500
C101	C10	0.464700	0.989300	0.773500
C111	C11	0.469000	0.105900	0.772400
C121	C12	0.364600	0.180900	0.800500
C131	C13	0.260300	0.132100	0.828500
C141	C14	0.263700	0.012900	0.826600
C151	C15	0.368100	0.308800	0.802100
C161	C16	0.423800	0.355500	0.762300
C171	C17	0.424800	0.475000	0.765800
C181	C18	0.320500	0.506600	0.842600
C191	C19	0.313900	0.388900	0.842400
C201	C20	0.232500	0.708900	0.694680
C211	C21	0.240500	0.664500	0.638100
C221	C22	0.206900	0.403300	0.561900
C231	C23	0.259600	0.379500	0.512900
C241	C24	0.157300	0.343800	0.473900
C251	C25	0.002600	0.333400	0.484700
C261	C26	0.949900	0.357500	0.533300
C271	C27	0.054400	0.392700	0.572800
C281	C28	0.214500	0.314100	0.420500
C291	C29	0.964700	0.510700	0.726500
C301	C30	0.969000	0.394100	0.727600
C311	C31	0.864600	0.319100	0.699500
C321	C32	0.760300	0.367900	0.671500
C331	C33	0.763700	0.487100	0.673400
C341	C34	0.868100	0.191200	0.697900
C351	C35	0.923800	0.144500	0.737700
C361	C36	0.924800	0.025000	0.734200
C371	C37	0.820500	0.993400	0.657400
C381	C38	0.813900	0.111100	0.657600
C391	C39	0.267500	0.208900	0.194680
C401	C40	0.259500	0.164500	0.138100
C411	C41	0.293100	0.903300	0.061900
C421	C42	0.240400	0.879500	0.012900
C431	C43	0.342700	0.843800	0.973900
C441	C44	0.497400	0.833400	0.984700
C451	C45	0.550100	0.857500	0.033300
C461	C46	0.445600	0.892700	0.072800
C471	C47	0.285500	0.814100	0.920500
C481	C48	0.535300	0.010700	0.226500
C491	C49	0.531000	0.894100	0.227600
C501	C50	0.635400	0.819100	0.199500
C511	C51	0.739700	0.867900	0.171500
C521	C52	0.736300	0.987100	0.173400
C531	C53	0.631900	0.691200	0.197900
C541	C54	0.576200	0.644500	0.237700
C551	C55	0.575200	0.525000	0.234200
C561	C56	0.679500	0.493400	0.157400
C571	C57	0.686100	0.611100	0.157600
C581	C58	0.767500	0.291100	0.305320
C591	C59	0.759500	0.335500	0.361900
C601	C60	0.793100	0.596700	0.438100
C611	C61	0.740400	0.620500	0.487100
C621	C62	0.842700	0.656200	0.526100
C631	C63	0.997400	0.666600	0.515300
C641	C64	0.050100	0.642500	0.466700
C651	C65	0.945600	0.607300	0.427200
C661	C66	0.785500	0.685900	0.579500
C671	C67	0.035300	0.489300	0.273500
C681	C68	0.031000	0.605900	0.272400
C691	C69	0.135400	0.680900	0.300500
C701	C70	0.239700	0.632100	0.328500
C711	C71	0.236300	0.512900	0.326600
C721	C72	0.131900	0.808800	0.302100
C731	C73	0.076200	0.855500	0.262300
C741	C74	0.075200	0.975000	0.265800
C751	C75	0.179500	0.006600	0.342600
C761	C76	0.186100	0.888900	0.342400
S11	S1	0.839900	0.054360	0.888410
S21	S2	0.339900	0.445640	0.611590
S31	S3	0.160100	0.945640	0.111590
S41	S4	0.660100	0.554360	0.388410
N11	N1	0.864100	0.915600	0.880540
N21	N2	0.363800	0.941400	0.800060
N31	N3	0.376900	0.551300	0.804970
N41	N4	0.364100	0.584400	0.619460
N51	N5	0.863800	0.558600	0.699940
N61	N6	0.876900	0.948700	0.695030
N71	N7	0.135900	0.084400	0.119460
N81	N8	0.636200	0.058600	0.199940
N91	N9	0.623100	0.448700	0.195030
N101	N10	0.635900	0.415600	0.380540
N111	N11	0.136200	0.441400	0.300060
N121	N12	0.123100	0.051300	0.304970
O11	O1	0.609100	0.743600	0.789070
O21	O2	0.846900	0.801100	0.778800
O31	O3	0.769000	0.077700	0.844100
O41	O4	0.984500	0.106300	0.905020
O51	O5	0.858300	0.191800	0.085160
O61	O6	0.618500	0.208100	0.114030
O71	O7	0.109100	0.756400	0.710930
O81	O8	0.346900	0.698900	0.721200
O91	O9	0.269000	0.422300	0.655900
O101	O10	0.484500	0.393700	0.594980
O111	O11	0.358300	0.308200	0.414840
O121	O12	0.118500	0.291900	0.385970
O131	O13	0.390900	0.256400	0.210930
O141	O14	0.153100	0.198900	0.221200
O151	O15	0.231000	0.922300	0.155900
O161	O16	0.015500	0.893700	0.094980
O171	O17	0.141700	0.808200	0.914840
O181	O18	0.381500	0.791900	0.885970
O191	O19	0.890900	0.243600	0.289070
O201	O20	0.653100	0.301100	0.278800
O211	O21	0.731000	0.577700	0.344100
O221	O22	0.515500	0.606300	0.405020
O231	O23	0.641700	0.691800	0.585160
O241	O24	0.881500	0.708100	0.614030
