data_RIXPIZ_clean_PM
_symmetry_space_group_name_H-M	'P1'
_cell_length_a	18.878000
_cell_length_b	18.878000
_cell_length_c	37.043000
_cell_angle_alpha	90.000000
_cell_angle_beta	90.000000
_cell_angle_gamma	90.000000
_symmetry_Int_Tables_number 1

loop_
_symmetry_equiv_pos_as_xyz
'x,y,z'

loop_
_atom_site_label
_atom_site_type_symbol
_atom_site_fract_x
_atom_site_fract_y
_atom_site_fract_z
Al11	Al1	0.868620	0.095580	0.080730
O11	O1	0.802400	0.169700	0.084500
O21	O2	0.063500	0.840500	0.102500
O31	O3	0.796400	0.034600	0.061170
O41	O4	0.932500	0.021700	0.079460
O51	O5	0.894700	0.127700	0.034970
O61	O6	0.662600	0.569600	0.372730
O71	O7	0.565700	0.520400	0.347750
O81	O8	0.798700	0.232800	0.033210
O91	O9	0.967000	0.905700	0.116040
C11	C1	0.961700	0.783600	0.125970
O101	O10	0.762300	0.096700	0.011650
C21	C2	0.000400	0.846800	0.113930
C31	C3	0.792300	0.293600	0.088770
C41	C4	0.627100	0.544700	0.346110
C51	C5	0.790700	0.359400	0.071980
H11	H1	0.788000	0.362500	0.046400
C61	C6	0.664000	0.545500	0.310330
C71	C7	0.797300	0.227500	0.067150
C81	C8	0.631900	0.513700	0.280670
H21	H2	0.587500	0.490600	0.283400
C91	C9	0.795600	0.289400	0.126300
H31	H3	0.796800	0.244500	0.137900
C101	C10	0.797200	0.351200	0.146750
H41	H4	0.798600	0.348100	0.172300
C111	C11	0.730200	0.577000	0.306520
H51	H5	0.752600	0.597500	0.327000
C121	C12	0.840300	0.541300	0.141700
H61	H6	0.864500	0.539500	0.119200
C131	C13	0.793000	0.420800	0.092700
H71	H7	0.792000	0.465700	0.081200
C141	C14	0.894500	0.792000	0.141800
H81	H8	0.874700	0.838000	0.144500
C151	C15	0.664500	0.515600	0.247000
H91	H9	0.641200	0.496000	0.226600
C161	C16	0.856700	0.732000	0.153600
H101	H10	0.811000	0.737600	0.163900
C171	C17	0.732600	0.546700	0.243100
C181	C18	0.845500	0.601500	0.162700
C191	C19	0.796800	0.416900	0.130480
C201	C20	0.800000	0.482800	0.152800
C211	C21	0.990700	0.715500	0.122220
H111	H11	0.036400	0.709300	0.112000
C221	C22	0.764000	0.579000	0.273300
H121	H12	0.808500	0.602100	0.271000
C231	C23	0.807500	0.603900	0.195800
H131	H13	0.808600	0.645700	0.210000
C241	C24	0.765400	0.486200	0.185900
H141	H14	0.738800	0.446400	0.193800
C251	C25	0.755400	0.047400	0.034260
H151	H15	0.716100	0.016600	0.031100
C261	C26	0.768200	0.545200	0.207700
C271	C27	0.886100	0.663700	0.150300
C281	C28	0.951300	0.657400	0.133700
H161	H16	0.970100	0.611300	0.129900
Al21	Al2	0.131380	0.904420	0.080730
O111	O11	0.197600	0.830300	0.084500
O121	O12	0.936500	0.159500	0.102500
O131	O13	0.203600	0.965400	0.061170
O141	O14	0.067500	0.978300	0.079460
O151	O15	0.105300	0.872300	0.034970
O161	O16	0.337400	0.430400	0.372730
O171	O17	0.434300	0.479600	0.347750
O181	O18	0.201300	0.767200	0.033210
O191	O19	0.033000	0.094300	0.116040
C291	C29	0.038300	0.216400	0.125970
O201	O20	0.237700	0.903300	0.011650
C301	C30	0.999600	0.153200	0.113930
C311	C31	0.207700	0.706400	0.088770
C321	C32	0.372900	0.455300	0.346110
C331	C33	0.209300	0.640600	0.071980
H171	H17	0.212000	0.637500	0.046400
C341	C34	0.336000	0.454500	0.310330
C351	C35	0.202700	0.772500	0.067150
C361	C36	0.368100	0.486300	0.280670
H181	H18	0.412500	0.509400	0.283400
C371	C37	0.204400	0.710600	0.126300
H191	H19	0.203200	0.755500	0.137900
C381	C38	0.202800	0.648800	0.146750
H201	H20	0.201400	0.651900	0.172300
C391	C39	0.269800	0.423000	0.306520
H211	H21	0.247400	0.402500	0.327000
C401	C40	0.159700	0.458700	0.141700
H221	H22	0.135500	0.460500	0.119200
C411	C41	0.207000	0.579200	0.092700
H231	H23	0.208000	0.534300	0.081200
C421	C42	0.105500	0.208000	0.141800
H241	H24	0.125300	0.162000	0.144500
C431	C43	0.335500	0.484400	0.247000
H251	H25	0.358800	0.504000	0.226600
C441	C44	0.143300	0.268000	0.153600
H261	H26	0.189000	0.262400	0.163900
C451	C45	0.267400	0.453300	0.243100
C461	C46	0.154500	0.398500	0.162700
C471	C47	0.203200	0.583100	0.130480
C481	C48	0.200000	0.517200	0.152800
C491	C49	0.009300	0.284500	0.122220
H271	H27	0.963600	0.290700	0.112000
C501	C50	0.236000	0.421000	0.273300
H281	H28	0.191500	0.397900	0.271000
C511	C51	0.192500	0.396100	0.195800
H291	H29	0.191400	0.354300	0.210000
C521	C52	0.234600	0.513800	0.185900
H301	H30	0.261200	0.553600	0.193800
C531	C53	0.244600	0.952600	0.034260
H311	H31	0.283900	0.983400	0.031100
C541	C54	0.231800	0.454800	0.207700
C551	C55	0.113900	0.336300	0.150300
C561	C56	0.048700	0.342600	0.133700
H321	H32	0.029900	0.388700	0.129900
Al31	Al3	0.404420	0.368620	0.580730
O211	O21	0.330300	0.302400	0.584500
O221	O22	0.659500	0.563500	0.602500
O231	O23	0.465400	0.296400	0.561170
O241	O24	0.478300	0.432500	0.579460
O251	O25	0.372300	0.394700	0.534970
O261	O26	0.930400	0.162600	0.872730
O271	O27	0.979600	0.065700	0.847750
O281	O28	0.267200	0.298700	0.533210
O291	O29	0.594300	0.467000	0.616040
C571	C57	0.716400	0.461700	0.625970
O301	O30	0.403300	0.262300	0.511650
C581	C58	0.653200	0.500400	0.613930
C591	C59	0.206400	0.292300	0.588770
C601	C60	0.955300	0.127100	0.846110
C611	C61	0.140600	0.290700	0.571980
H331	H33	0.137500	0.288000	0.546400
C621	C62	0.954500	0.164000	0.810330
C631	C63	0.272500	0.297300	0.567150
C641	C64	0.986300	0.131900	0.780670
H341	H34	0.009400	0.087500	0.783400
C651	C65	0.210600	0.295600	0.626300
H351	H35	0.255500	0.296800	0.637900
C661	C66	0.148800	0.297200	0.646750
H361	H36	0.151900	0.298600	0.672300
C671	C67	0.923000	0.230200	0.806520
H371	H37	0.902500	0.252600	0.827000
C681	C68	0.958700	0.340300	0.641700
H381	H38	0.960500	0.364500	0.619200
C691	C69	0.079200	0.293000	0.592700
H391	H39	0.034300	0.292000	0.581200
C701	C70	0.708000	0.394500	0.641800
H401	H40	0.662000	0.374700	0.644500
C711	C71	0.984400	0.164500	0.747000
H411	H41	0.004000	0.141200	0.726600
C721	C72	0.768000	0.356700	0.653600
H421	H42	0.762400	0.311000	0.663900
C731	C73	0.953300	0.232600	0.743100
C741	C74	0.898500	0.345500	0.662700
C751	C75	0.083100	0.296800	0.630480
C761	C76	0.017200	0.300000	0.652800
C771	C77	0.784500	0.490700	0.622220
H431	H43	0.790700	0.536400	0.612000
C781	C78	0.921000	0.264000	0.773300
H441	H44	0.897900	0.308500	0.771000
C791	C79	0.896100	0.307500	0.695800
H451	H45	0.854300	0.308600	0.710000
C801	C80	0.013800	0.265400	0.685900
H461	H46	0.053600	0.238800	0.693800
C811	C81	0.452600	0.255400	0.534260
H471	H47	0.483400	0.216100	0.531100
C821	C82	0.954800	0.268200	0.707700
C831	C83	0.836300	0.386100	0.650300
C841	C84	0.842600	0.451300	0.633700
H481	H48	0.888700	0.470100	0.629900
Al41	Al4	0.595580	0.631380	0.580730
O311	O31	0.669700	0.697600	0.584500
O321	O32	0.340500	0.436500	0.602500
O331	O33	0.534600	0.703600	0.561170
O341	O34	0.521700	0.567500	0.579460
O351	O35	0.627700	0.605300	0.534970
O361	O36	0.069600	0.837400	0.872730
O371	O37	0.020400	0.934300	0.847750
O381	O38	0.732800	0.701300	0.533210
O391	O39	0.405700	0.533000	0.616040
C851	C85	0.283600	0.538300	0.625970
O401	O40	0.596700	0.737700	0.511650
C861	C86	0.346800	0.499600	0.613930
C871	C87	0.793600	0.707700	0.588770
C881	C88	0.044700	0.872900	0.846110
C891	C89	0.859400	0.709300	0.571980
H491	H49	0.862500	0.712000	0.546400
C901	C90	0.045500	0.836000	0.810330
C911	C91	0.727500	0.702700	0.567150
C921	C92	0.013700	0.868100	0.780670
H501	H50	0.990600	0.912500	0.783400
C931	C93	0.789400	0.704400	0.626300
H511	H51	0.744500	0.703200	0.637900
C941	C94	0.851200	0.702800	0.646750
H521	H52	0.848100	0.701400	0.672300
C951	C95	0.077000	0.769800	0.806520
H531	H53	0.097500	0.747400	0.827000
C961	C96	0.041300	0.659700	0.641700
H541	H54	0.039500	0.635500	0.619200
C971	C97	0.920800	0.707000	0.592700
H551	H55	0.965700	0.708000	0.581200
C981	C98	0.292000	0.605500	0.641800
H561	H56	0.338000	0.625300	0.644500
C991	C99	0.015600	0.835500	0.747000
H571	H57	0.996000	0.858800	0.726600
C1001	C100	0.232000	0.643300	0.653600
H581	H58	0.237600	0.689000	0.663900
C1011	C101	0.046700	0.767400	0.743100
C1021	C102	0.101500	0.654500	0.662700
C1031	C103	0.916900	0.703200	0.630480
C1041	C104	0.982800	0.700000	0.652800
C1051	C105	0.215500	0.509300	0.622220
H591	H59	0.209300	0.463600	0.612000
C1061	C106	0.079000	0.736000	0.773300
H601	H60	0.102100	0.691500	0.771000
C1071	C107	0.103900	0.692500	0.695800
H611	H61	0.145700	0.691400	0.710000
C1081	C108	0.986200	0.734600	0.685900
H621	H62	0.946400	0.761200	0.693800
C1091	C109	0.547400	0.744600	0.534260
H631	H63	0.516600	0.783900	0.531100
C1101	C110	0.045200	0.731800	0.707700
C1111	C111	0.163700	0.613900	0.650300
C1121	C112	0.157400	0.548700	0.633700
H641	H64	0.111300	0.529900	0.629900
Al51	Al5	0.631380	0.595580	0.419270
O411	O41	0.697600	0.669700	0.415500
O421	O42	0.436500	0.340500	0.397500
O431	O43	0.703600	0.534600	0.438830
O441	O44	0.567500	0.521700	0.420540
O451	O45	0.605300	0.627700	0.465030
O461	O46	0.837400	0.069600	0.127270
O471	O47	0.934300	0.020400	0.152250
O481	O48	0.701300	0.732800	0.466790
O491	O49	0.533000	0.405700	0.383960
C1131	C113	0.538300	0.283600	0.374030
O501	O50	0.737700	0.596700	0.488350
C1141	C114	0.499600	0.346800	0.386070
C1151	C115	0.707700	0.793600	0.411230
C1161	C116	0.872900	0.044700	0.153890
C1171	C117	0.709300	0.859400	0.428020
H651	H65	0.712000	0.862500	0.453600
C1181	C118	0.836000	0.045500	0.189670
C1191	C119	0.702700	0.727500	0.432850
C1201	C120	0.868100	0.013700	0.219330
H661	H66	0.912500	0.990600	0.216600
C1211	C121	0.704400	0.789400	0.373700
H671	H67	0.703200	0.744500	0.362100
C1221	C122	0.702800	0.851200	0.353250
H681	H68	0.701400	0.848100	0.327700
C1231	C123	0.769800	0.077000	0.193480
H691	H69	0.747400	0.097500	0.173000
C1241	C124	0.659700	0.041300	0.358300
H701	H70	0.635500	0.039500	0.380800
C1251	C125	0.707000	0.920800	0.407300
H711	H71	0.708000	0.965700	0.418800
C1261	C126	0.605500	0.292000	0.358200
H721	H72	0.625300	0.338000	0.355500
C1271	C127	0.835500	0.015600	0.253000
H731	H73	0.858800	0.996000	0.273400
C1281	C128	0.643300	0.232000	0.346400
H741	H74	0.689000	0.237600	0.336100
C1291	C129	0.767400	0.046700	0.256900
C1301	C130	0.654500	0.101500	0.337300
C1311	C131	0.703200	0.916900	0.369520
C1321	C132	0.700000	0.982800	0.347200
C1331	C133	0.509300	0.215500	0.377780
H751	H75	0.463600	0.209300	0.388000
C1341	C134	0.736000	0.079000	0.226700
H761	H76	0.691500	0.102100	0.229000
C1351	C135	0.692500	0.103900	0.304200
H771	H77	0.691400	0.145700	0.290000
C1361	C136	0.734600	0.986200	0.314100
H781	H78	0.761200	0.946400	0.306200
C1371	C137	0.744600	0.547400	0.465740
H791	H79	0.783900	0.516600	0.468900
C1381	C138	0.731800	0.045200	0.292300
C1391	C139	0.613900	0.163700	0.349700
C1401	C140	0.548700	0.157400	0.366300
H801	H80	0.529900	0.111300	0.370100
Al61	Al6	0.368620	0.404420	0.419270
O511	O51	0.302400	0.330300	0.415500
O521	O52	0.563500	0.659500	0.397500
O531	O53	0.296400	0.465400	0.438830
O541	O54	0.432500	0.478300	0.420540
O551	O55	0.394700	0.372300	0.465030
O561	O56	0.162600	0.930400	0.127270
O571	O57	0.065700	0.979600	0.152250
O581	O58	0.298700	0.267200	0.466790
O591	O59	0.467000	0.594300	0.383960
C1411	C141	0.461700	0.716400	0.374030
O601	O60	0.262300	0.403300	0.488350
C1421	C142	0.500400	0.653200	0.386070
C1431	C143	0.292300	0.206400	0.411230
C1441	C144	0.127100	0.955300	0.153890
C1451	C145	0.290700	0.140600	0.428020
H811	H81	0.288000	0.137500	0.453600
C1461	C146	0.164000	0.954500	0.189670
C1471	C147	0.297300	0.272500	0.432850
C1481	C148	0.131900	0.986300	0.219330
H821	H82	0.087500	0.009400	0.216600
C1491	C149	0.295600	0.210600	0.373700
H831	H83	0.296800	0.255500	0.362100
C1501	C150	0.297200	0.148800	0.353250
H841	H84	0.298600	0.151900	0.327700
C1511	C151	0.230200	0.923000	0.193480
H851	H85	0.252600	0.902500	0.173000
C1521	C152	0.340300	0.958700	0.358300
H861	H86	0.364500	0.960500	0.380800
C1531	C153	0.293000	0.079200	0.407300
H871	H87	0.292000	0.034300	0.418800
C1541	C154	0.394500	0.708000	0.358200
H881	H88	0.374700	0.662000	0.355500
C1551	C155	0.164500	0.984400	0.253000
H891	H89	0.141200	0.004000	0.273400
C1561	C156	0.356700	0.768000	0.346400
H901	H90	0.311000	0.762400	0.336100
C1571	C157	0.232600	0.953300	0.256900
C1581	C158	0.345500	0.898500	0.337300
C1591	C159	0.296800	0.083100	0.369520
C1601	C160	0.300000	0.017200	0.347200
C1611	C161	0.490700	0.784500	0.377780
H911	H91	0.536400	0.790700	0.388000
C1621	C162	0.264000	0.921000	0.226700
H921	H92	0.308500	0.897900	0.229000
C1631	C163	0.307500	0.896100	0.304200
H931	H93	0.308600	0.854300	0.290000
C1641	C164	0.265400	0.013800	0.314100
H941	H94	0.238800	0.053600	0.306200
C1651	C165	0.255400	0.452600	0.465740
H951	H95	0.216100	0.483400	0.468900
C1661	C166	0.268200	0.954800	0.292300
C1671	C167	0.386100	0.836300	0.349700
C1681	C168	0.451300	0.842600	0.366300
H961	H96	0.470100	0.888700	0.370100
Al71	Al7	0.095580	0.868620	0.919270
O611	O61	0.169700	0.802400	0.915500
O621	O62	0.840500	0.063500	0.897500
O631	O63	0.034600	0.796400	0.938830
O641	O64	0.021700	0.932500	0.920540
O651	O65	0.127700	0.894700	0.965030
O661	O66	0.569600	0.662600	0.627270
O671	O67	0.520400	0.565700	0.652250
O681	O68	0.232800	0.798700	0.966790
O691	O69	0.905700	0.967000	0.883960
C1691	C169	0.783600	0.961700	0.874030
O701	O70	0.096700	0.762300	0.988350
C1701	C170	0.846800	0.000400	0.886070
C1711	C171	0.293600	0.792300	0.911230
C1721	C172	0.544700	0.627100	0.653890
C1731	C173	0.359400	0.790700	0.928020
H971	H97	0.362500	0.788000	0.953600
C1741	C174	0.545500	0.664000	0.689670
C1751	C175	0.227500	0.797300	0.932850
C1761	C176	0.513700	0.631900	0.719330
H981	H98	0.490600	0.587500	0.716600
C1771	C177	0.289400	0.795600	0.873700
H991	H99	0.244500	0.796800	0.862100
C1781	C178	0.351200	0.797200	0.853250
H1001	H100	0.348100	0.798600	0.827700
C1791	C179	0.577000	0.730200	0.693480
H1011	H101	0.597500	0.752600	0.673000
C1801	C180	0.541300	0.840300	0.858300
H1021	H102	0.539500	0.864500	0.880800
C1811	C181	0.420800	0.793000	0.907300
H1031	H103	0.465700	0.792000	0.918800
C1821	C182	0.792000	0.894500	0.858200
H1041	H104	0.838000	0.874700	0.855500
C1831	C183	0.515600	0.664500	0.753000
H1051	H105	0.496000	0.641200	0.773400
C1841	C184	0.732000	0.856700	0.846400
H1061	H106	0.737600	0.811000	0.836100
C1851	C185	0.546700	0.732600	0.756900
C1861	C186	0.601500	0.845500	0.837300
C1871	C187	0.416900	0.796800	0.869520
C1881	C188	0.482800	0.800000	0.847200
C1891	C189	0.715500	0.990700	0.877780
H1071	H107	0.709300	0.036400	0.888000
C1901	C190	0.579000	0.764000	0.726700
H1081	H108	0.602100	0.808500	0.729000
C1911	C191	0.603900	0.807500	0.804200
H1091	H109	0.645700	0.808600	0.790000
C1921	C192	0.486200	0.765400	0.814100
H1101	H110	0.446400	0.738800	0.806200
C1931	C193	0.047400	0.755400	0.965740
H1111	H111	0.016600	0.716100	0.968900
C1941	C194	0.545200	0.768200	0.792300
C1951	C195	0.663700	0.886100	0.849700
C1961	C196	0.657400	0.951300	0.866300
H1121	H112	0.611300	0.970100	0.870100
Al81	Al8	0.904420	0.131380	0.919270
O711	O71	0.830300	0.197600	0.915500
O721	O72	0.159500	0.936500	0.897500
O731	O73	0.965400	0.203600	0.938830
O741	O74	0.978300	0.067500	0.920540
O751	O75	0.872300	0.105300	0.965030
O761	O76	0.430400	0.337400	0.627270
O771	O77	0.479600	0.434300	0.652250
O781	O78	0.767200	0.201300	0.966790
O791	O79	0.094300	0.033000	0.883960
C1971	C197	0.216400	0.038300	0.874030
O801	O80	0.903300	0.237700	0.988350
C1981	C198	0.153200	0.999600	0.886070
C1991	C199	0.706400	0.207700	0.911230
C2001	C200	0.455300	0.372900	0.653890
C2011	C201	0.640600	0.209300	0.928020
H1131	H113	0.637500	0.212000	0.953600
C2021	C202	0.454500	0.336000	0.689670
C2031	C203	0.772500	0.202700	0.932850
C2041	C204	0.486300	0.368100	0.719330
H1141	H114	0.509400	0.412500	0.716600
C2051	C205	0.710600	0.204400	0.873700
H1151	H115	0.755500	0.203200	0.862100
C2061	C206	0.648800	0.202800	0.853250
H1161	H116	0.651900	0.201400	0.827700
C2071	C207	0.423000	0.269800	0.693480
H1171	H117	0.402500	0.247400	0.673000
C2081	C208	0.458700	0.159700	0.858300
H1181	H118	0.460500	0.135500	0.880800
C2091	C209	0.579200	0.207000	0.907300
H1191	H119	0.534300	0.208000	0.918800
C2101	C210	0.208000	0.105500	0.858200
H1201	H120	0.162000	0.125300	0.855500
C2111	C211	0.484400	0.335500	0.753000
H1211	H121	0.504000	0.358800	0.773400
C2121	C212	0.268000	0.143300	0.846400
H1221	H122	0.262400	0.189000	0.836100
C2131	C213	0.453300	0.267400	0.756900
C2141	C214	0.398500	0.154500	0.837300
C2151	C215	0.583100	0.203200	0.869520
C2161	C216	0.517200	0.200000	0.847200
C2171	C217	0.284500	0.009300	0.877780
H1231	H123	0.290700	0.963600	0.888000
C2181	C218	0.421000	0.236000	0.726700
H1241	H124	0.397900	0.191500	0.729000
C2191	C219	0.396100	0.192500	0.804200
H1251	H125	0.354300	0.191400	0.790000
C2201	C220	0.513800	0.234600	0.814100
H1261	H126	0.553600	0.261200	0.806200
C2211	C221	0.952600	0.244600	0.965740
H1271	H127	0.983400	0.283900	0.968900
C2221	C222	0.454800	0.231800	0.792300
C2231	C223	0.336300	0.113900	0.849700
C2241	C224	0.342600	0.048700	0.866300
H1281	H128	0.388700	0.029900	0.870100
Al91	Al9	0.834620	0.165380	0.000000
Al101	Al10	0.165380	0.834620	0.000000
Al111	Al11	0.334620	0.334620	0.500000
Al121	Al12	0.665380	0.665380	0.500000
Al131	Al13	0.000000	0.000000	0.114470
Al141	Al14	0.500000	0.500000	0.614470
Al151	Al15	0.500000	0.500000	0.385530
Al161	Al16	0.000000	0.000000	0.885530
