data_RIYBEI_clean_PM
_symmetry_space_group_name_H-M	'P1'
_cell_length_a	13.787600
_cell_length_b	27.874700
_cell_length_c	45.415000
_cell_angle_alpha	90.000000
_cell_angle_beta	90.000000
_cell_angle_gamma	90.000000
_symmetry_Int_Tables_number 1

loop_
_symmetry_equiv_pos_as_xyz
'x,y,z'

loop_
_atom_site_label
_atom_site_type_symbol
_atom_site_fract_x
_atom_site_fract_y
_atom_site_fract_z
Zn11	Zn1	0.161050	0.256730	0.313840
Zn21	Zn2	0.338950	0.756730	0.686160
Zn31	Zn3	0.150560	0.448870	0.576840
Zn41	Zn4	0.650560	0.551130	0.923160
Zn51	Zn5	0.369460	0.475000	0.412020
Zn61	Zn6	0.661050	0.743270	0.186160
Zn71	Zn7	0.869460	0.525000	0.087980
Zn81	Zn8	0.838950	0.243270	0.813840
Zn91	Zn9	0.130540	0.975000	0.587980
Zn101	Zn10	0.849440	0.051130	0.076840
Zn111	Zn11	0.349440	0.948870	0.423160
Zn121	Zn12	0.630540	0.025000	0.912020
H11	H1	0.815200	0.898800	0.616000
H21	H2	0.471100	0.071700	0.878100
H31	H3	0.964700	0.154100	0.727600
H41	H4	0.636000	0.810100	0.631800
H51	H5	0.184800	0.601200	0.116000
H61	H6	0.993900	0.955700	0.537500
H71	H7	0.904300	0.346900	0.092600
H81	H8	0.128300	0.051700	0.005700
H91	H9	0.951400	0.271700	0.332200
H101	H10	0.628300	0.948300	0.494300
H111	H11	0.115300	0.078200	0.571200
H121	H12	0.006100	0.544300	0.037500
H131	H13	0.987700	0.202600	0.223300
H141	H14	0.633900	0.656900	0.935900
H151	H15	0.547500	0.652400	0.837600
H161	H16	0.951400	0.304500	0.770700
H171	H17	0.194600	0.407600	0.517100
H181	H18	0.035300	0.345900	0.227600
H191	H19	0.451400	0.728300	0.167800
H201	H20	0.956500	0.468200	0.548100
H211	H21	0.694600	0.592400	0.982900
H221	H22	0.883300	0.148800	0.905500
H231	H23	0.487700	0.797400	0.276700
H241	H24	0.971100	0.928300	0.621900
H251	H25	0.113500	0.384300	0.474300
H261	H26	0.613500	0.615700	0.025700
H271	H27	0.922800	0.083300	0.136100
H281	H28	0.564000	0.985500	0.853200
H291	H29	0.456500	0.531800	0.951900
H301	H30	0.871700	0.448300	0.505700
H311	H31	0.048600	0.195500	0.270700
H321	H32	0.093700	0.335500	0.274300
H331	H33	0.548600	0.804500	0.229300
H341	H34	0.595700	0.846900	0.907400
H351	H35	0.866100	0.156900	0.064100
H361	H36	0.805400	0.092400	0.017100
H371	H37	0.404300	0.653100	0.407400
H381	H38	0.095700	0.153100	0.592600
H391	H39	0.371700	0.551700	0.994300
H401	H40	0.616700	0.648800	0.094500
H411	H41	0.395300	0.770900	0.411600
H421	H42	0.604700	0.729100	0.911600
H431	H43	0.493900	0.044300	0.962500
H441	H44	0.936000	0.485500	0.146800
H451	H45	0.406300	0.835500	0.725700
H461	H46	0.512300	0.702600	0.776700
H471	H47	0.460300	0.587800	0.329900
H481	H48	0.960300	0.412200	0.170100
H491	H49	0.028900	0.571700	0.121900
H501	H50	0.364000	0.689900	0.131800
H511	H51	0.039700	0.087800	0.670100
H521	H52	0.684800	0.398800	0.384000
H531	H53	0.886500	0.115700	0.974300
H541	H54	0.386500	0.884300	0.525700
H551	H55	0.012300	0.297400	0.723300
H561	H56	0.116700	0.351200	0.405500
H571	H57	0.305400	0.907600	0.482900
H581	H58	0.543500	0.968200	0.451900
H591	H59	0.451400	0.695500	0.729300
H601	H60	0.539700	0.912200	0.829900
H611	H61	0.528900	0.428300	0.378100
H621	H62	0.047500	0.347600	0.662400
H631	H63	0.104700	0.270900	0.588400
H641	H64	0.535300	0.654100	0.272400
H651	H65	0.548600	0.771700	0.667800
H661	H66	0.697100	0.683500	0.133500
H671	H67	0.506100	0.455700	0.462500
H681	H68	0.160700	0.572700	0.029000
H691	H69	0.422800	0.916700	0.363900
H701	H70	0.436000	0.514500	0.353200
H711	H71	0.064000	0.014500	0.646800
H721	H72	0.383300	0.851200	0.594500
H731	H73	0.802900	0.183500	0.866500
H741	H74	0.197100	0.316500	0.366500
H751	H75	0.452500	0.847600	0.337600
H761	H76	0.906300	0.164500	0.774300
H771	H77	0.302900	0.816500	0.633500
H781	H78	0.077200	0.416700	0.636100
H791	H79	0.577200	0.583300	0.863900
H801	H80	0.593700	0.664500	0.225700
H811	H81	0.133900	0.343100	0.564100
H821	H82	0.660700	0.427300	0.471000
H831	H83	0.366100	0.843100	0.435900
H841	H84	0.615300	0.921800	0.928800
H851	H85	0.884700	0.421800	0.071200
H861	H86	0.384700	0.578200	0.428800
H871	H87	0.315200	0.101200	0.884000
H881	H88	0.839300	0.927300	0.529000
H891	H89	0.339300	0.072700	0.971000
H901	H90	0.952500	0.152400	0.162400
H911	H91	0.864000	0.310100	0.368200
H921	H92	0.043500	0.031800	0.048100
H931	H93	0.895300	0.229100	0.088400
H941	H94	0.464700	0.845900	0.772400
H951	H95	0.048600	0.228300	0.832200
H961	H96	0.136000	0.189900	0.868200
C11	C1	0.079900	0.401100	0.489330
C21	C2	0.372300	0.915100	0.484970
C31	C3	0.542700	0.443800	0.446390
C41	C4	0.982800	0.412300	0.486200
C51	C5	0.442700	0.756600	0.354840
C61	C6	0.056400	0.572200	0.102680
C71	C7	0.434600	0.845800	0.357720
C81	C8	0.099200	0.300500	0.598660
C91	C9	0.067100	0.188800	0.868550
C101	C10	0.991600	0.224800	0.719120
C111	C11	0.073400	0.308100	0.263540
C121	C12	0.489100	0.730300	0.766730
C131	C13	0.943600	0.927800	0.602680
C141	C14	0.583300	0.613400	0.873510
C151	C15	0.573400	0.691900	0.236460
C161	C16	0.850900	0.910200	0.599580
C171	C17	0.071100	0.043200	0.635760
C181	C18	0.443800	0.586700	0.350240
C191	C19	0.350900	0.089800	0.900420
C201	C20	0.588700	0.875000	0.895830
C211	C21	0.398600	0.580200	0.408300
C221	C22	0.134600	0.572900	0.048400
C231	C23	0.371700	0.814600	0.632770
C241	C24	0.601400	0.919800	0.908300
C251	C25	0.149100	0.589800	0.099580
C261	C26	0.556200	0.913300	0.850240
C271	C27	0.634600	0.427100	0.451600
C281	C28	0.627700	0.584900	0.984970
C291	C29	0.556400	0.427800	0.397320
C301	C30	0.010900	0.230300	0.233270
C311	C31	0.383600	0.843600	0.415670
C321	C32	0.649100	0.410200	0.400420
C331	C33	0.978200	0.279500	0.188090
C341	C34	0.365400	0.072900	0.951600
C351	C35	0.508400	0.724800	0.280880
C361	C36	0.101400	0.080200	0.591700
C371	C37	0.071100	0.103400	0.959430
C381	C38	0.065500	0.128500	0.633720
C391	C39	0.514900	0.789200	0.653000
C401	C40	0.928900	0.456800	0.135760
C411	C41	0.081100	0.336000	0.390250
C421	C42	0.014900	0.210800	0.847000
C431	C43	0.571100	0.896600	0.540570
C441	C44	0.898600	0.419800	0.091700
C451	C45	0.485100	0.710800	0.153000
C461	C46	0.562700	0.938600	0.492080
C471	C47	0.521800	0.779500	0.811910
C481	C48	0.428900	0.543200	0.364240
C491	C49	0.510900	0.769700	0.266730
C501	C50	0.927300	0.359900	0.415140
C511	C51	0.427300	0.640100	0.084860
C521	C52	0.900800	0.199500	0.098660
C531	C53	0.953000	0.273800	0.761550
C541	C54	0.021800	0.220500	0.688090
C551	C55	0.934500	0.371500	0.133720
C561	C56	0.918900	0.164000	0.890250
C571	C57	0.088700	0.125000	0.604170
C581	C58	0.443600	0.072200	0.897320
C591	C59	0.932900	0.311200	0.368550
C601	C60	0.416700	0.886600	0.373510
C611	C61	0.811600	0.910000	0.571530
C621	C62	0.418900	0.836000	0.609750
C631	C63	0.017200	0.087700	0.986200
C641	C64	0.554400	0.824000	0.852060
C651	C65	0.054400	0.176000	0.647940
C661	C66	0.128300	0.314600	0.367230
C671	C67	0.572700	0.859900	0.584860
C681	C68	0.056200	0.086700	0.649760
C691	C69	0.411300	0.625000	0.395830
C701	C70	0.934600	0.154200	0.142280
C711	C71	0.989100	0.269700	0.733270
C721	C72	0.565400	0.654200	0.857720
C731	C73	0.616400	0.656400	0.915670
C741	C74	0.488700	0.549300	0.967000
C751	C75	0.628300	0.685400	0.132770
C761	C76	0.065400	0.345800	0.642280
C771	C77	0.574000	0.698600	0.871880
C781	C78	0.127700	0.415100	0.515030
C791	C79	0.011300	0.049300	0.033000
C801	C80	0.453000	0.726200	0.738450
C811	C81	0.511300	0.950700	0.467000
C821	C82	0.062700	0.061400	0.007920
C831	C83	0.579900	0.598900	0.010670
C841	C84	0.434500	0.628500	0.366280
C851	C85	0.517200	0.912300	0.513800
C861	C86	0.008400	0.275200	0.219120
C871	C87	0.871700	0.185400	0.867230
C881	C88	0.961200	0.185500	0.735720
C891	C89	0.038800	0.314500	0.235720
C901	C90	0.920100	0.098900	0.989330
C911	C91	0.457300	0.056200	0.946390
C921	C92	0.428900	0.603400	0.040570
C931	C93	0.791800	0.394400	0.432570
C941	C94	0.072700	0.140100	0.915140
C951	C95	0.567100	0.811200	0.631450
C961	C96	0.478200	0.720500	0.311910
C971	C97	0.937300	0.438600	0.507920
C981	C98	0.400800	0.800500	0.401340
C991	C99	0.980300	0.335000	0.390920
C1001	C100	0.926000	0.198600	0.128120
C1011	C101	0.083300	0.386600	0.626490
C1021	C102	0.208200	0.105600	0.932570
C1031	C103	0.291800	0.605600	0.067430
C1041	C104	0.437300	0.561400	0.992080
C1051	C105	0.432900	0.688800	0.131450
C1061	C106	0.538800	0.685500	0.264280
C1071	C107	0.480300	0.665000	0.109080
C1081	C108	0.057300	0.256600	0.645160
C1091	C109	0.311600	0.090000	0.928470
C1101	C110	0.042700	0.556200	0.053610
C1111	C111	0.461200	0.814500	0.764280
C1121	C112	0.547000	0.773800	0.238450
C1131	C113	0.911300	0.375000	0.104170
C1141	C114	0.599200	0.699500	0.901340
C1151	C115	0.426000	0.801400	0.371880
C1161	C116	0.426600	0.808100	0.736460
C1171	C117	0.708200	0.894400	0.567430
C1181	C118	0.565500	0.871500	0.866280
C1191	C119	0.019700	0.165000	0.890920
C1201	C120	0.445600	0.676000	0.352060
C1211	C121	0.945600	0.324000	0.147940
C1221	C122	0.688400	0.410000	0.428470
C1231	C123	0.926600	0.191900	0.763540
C1241	C124	0.074000	0.301400	0.628120
C1251	C125	0.883600	0.156400	0.084330
C1261	C126	0.491600	0.775200	0.780880
C1271	C127	0.519700	0.835000	0.609080
C1281	C128	0.988700	0.450700	0.533000
C1291	C129	0.872300	0.084900	0.015030
C1301	C130	0.581100	0.664000	0.109750
C1311	C131	0.928900	0.396600	0.459430
C1321	C132	0.943800	0.413300	0.149760
C1331	C133	0.482800	0.587700	0.013800
C1341	C134	0.865400	0.927100	0.548400
C1351	C135	0.420100	0.901100	0.510670
C1361	C136	0.188400	0.590000	0.071530
C1371	C137	0.957300	0.943800	0.553610
C1381	C138	0.557300	0.743400	0.854840
C1391	C139	0.116400	0.343600	0.584330
C1401	C140	0.047000	0.226200	0.261550
C1411	C141	0.985100	0.289200	0.347000
C1421	C142	0.942700	0.243400	0.145160
C1431	C143	0.571100	0.956800	0.864240
C1441	C144	0.916700	0.113400	0.126490
I11	I1	0.435510	0.014770	0.394550
I21	I2	0.667340	0.057050	0.067590
I31	I3	0.332660	0.442950	0.567590
I41	I4	0.323590	0.667120	0.674550
I51	I5	0.183370	0.805110	0.694330
I61	I6	0.709160	0.008790	0.962180
I71	I7	0.290840	0.491210	0.462180
I81	I8	0.283590	0.427050	0.372310
I91	I9	0.564490	0.485230	0.894550
I101	I10	0.176410	0.167120	0.325450
I111	I11	0.216410	0.927050	0.627690
I121	I12	0.316630	0.305110	0.305670
I131	I13	0.783590	0.572950	0.127690
I141	I14	0.832660	0.557050	0.932410
I151	I15	0.823590	0.332880	0.825450
I161	I16	0.683370	0.194890	0.805670
I171	I17	0.716410	0.072950	0.872310
I181	I18	0.676410	0.832880	0.174550
I191	I19	0.790840	0.508790	0.037820
I201	I20	0.167340	0.942950	0.432410
I211	I21	0.209160	0.991210	0.537820
I221	I22	0.064490	0.514770	0.605450
I231	I23	0.935510	0.985230	0.105450
I241	I24	0.816630	0.694890	0.194330
N11	N1	0.664700	0.908500	0.542420
N21	N2	0.031200	0.176700	0.676530
N31	N3	0.582700	0.708800	0.154290
N41	N4	0.082700	0.291200	0.345710
N51	N5	0.034300	0.261400	0.673620
N61	N6	0.534300	0.738600	0.826380
N71	N7	0.164700	0.091500	0.957580
N81	N8	0.890700	0.114200	0.097900
N91	N9	0.917500	0.061200	0.037020
N101	N10	0.335300	0.591500	0.042420
N111	N11	0.833100	0.368800	0.411220
N121	N12	0.905000	0.460100	0.107280
N131	N13	0.931400	0.285400	0.131340
N141	N14	0.531200	0.823300	0.823470
N151	N15	0.095000	0.039900	0.607280
N161	N16	0.502400	0.444100	0.419690
N171	N17	0.666900	0.868800	0.588780
N181	N18	0.417300	0.791200	0.654290
N191	N19	0.419900	0.764800	0.723500
N201	N20	0.405000	0.539900	0.392720
N211	N21	0.568600	0.785400	0.868660
N221	N22	0.166900	0.131200	0.911220
N231	N23	0.465700	0.761400	0.326380
N241	N24	0.333100	0.631200	0.088780
N251	N25	0.520700	0.872700	0.561240
N261	N26	0.917300	0.208800	0.845710
N271	N27	0.919900	0.235200	0.776500
N281	N28	0.997600	0.944100	0.580310
N291	N29	0.479300	0.627300	0.061240
N301	N30	0.968800	0.323300	0.176530
N311	N31	0.979300	0.372700	0.438760
N321	N32	0.497600	0.055900	0.919690
N331	N33	0.417500	0.938800	0.462980
N341	N34	0.580100	0.735200	0.223500
N351	N35	0.109300	0.385800	0.597900
N361	N36	0.965700	0.238600	0.173620
N371	N37	0.431400	0.714600	0.368660
N381	N38	0.595000	0.960100	0.892720
N391	N39	0.468800	0.676700	0.323470
N401	N40	0.835300	0.408500	0.457580
N411	N41	0.082500	0.438800	0.537020
N421	N42	0.020700	0.127300	0.938760
N431	N43	0.068600	0.214600	0.631340
N441	N44	0.002400	0.555900	0.080310
N451	N45	0.080100	0.264800	0.276500
N461	N46	0.390700	0.885800	0.402100
N471	N47	0.609300	0.614200	0.902100
N481	N48	0.582500	0.561200	0.962980
Zn131	Zn13	0.849440	0.551130	0.423160
Zn141	Zn14	0.349440	0.448870	0.076840
Zn151	Zn15	0.369460	0.975000	0.087980
Zn161	Zn16	0.630540	0.525000	0.587980
Zn171	Zn17	0.150560	0.948870	0.923160
Zn181	Zn18	0.661050	0.243270	0.313840
Zn191	Zn19	0.650560	0.051130	0.576840
Zn201	Zn20	0.338950	0.256730	0.813840
Zn211	Zn21	0.130540	0.475000	0.912020
Zn221	Zn22	0.161050	0.756730	0.186160
Zn231	Zn23	0.869460	0.025000	0.412020
Zn241	Zn24	0.838950	0.743270	0.686160
H971	H97	0.871700	0.948300	0.994300
H981	H98	0.048600	0.728300	0.667800
H991	H99	0.936000	0.985500	0.353200
H1001	H100	0.395300	0.270900	0.088400
H1011	H101	0.895300	0.729100	0.411600
H1021	H102	0.633900	0.156900	0.564100
H1031	H103	0.133900	0.843100	0.935900
H1041	H104	0.115300	0.578200	0.928800
H1051	H105	0.339300	0.572700	0.529000
H1061	H106	0.886500	0.615700	0.525700
H1071	H107	0.697100	0.183500	0.366500
H1081	H108	0.093700	0.835500	0.225700
H1091	H109	0.471100	0.571700	0.621900
H1101	H110	0.883300	0.648800	0.594500
H1111	H111	0.922800	0.583300	0.363900
H1121	H112	0.464700	0.345900	0.727600
H1131	H113	0.615300	0.421800	0.571200
H1141	H114	0.371700	0.051700	0.505700
H1151	H115	0.593700	0.164500	0.274300
H1161	H116	0.628300	0.448300	0.005700
H1171	H117	0.964700	0.654100	0.772400
H1181	H118	0.184800	0.101200	0.384000
H1191	H119	0.564000	0.485500	0.646800
H1201	H120	0.116700	0.851200	0.094500
H1211	H121	0.487700	0.297400	0.223300
H1221	H122	0.386500	0.384300	0.974300
H1231	H123	0.366100	0.343100	0.064100
H1241	H124	0.104700	0.770900	0.911600
H1251	H125	0.528900	0.928300	0.121900
H1261	H126	0.305400	0.407600	0.017100
H1271	H127	0.636000	0.310100	0.868200
H1281	H128	0.613500	0.115700	0.474300
H1291	H129	0.460300	0.087800	0.170100
H1301	H130	0.315200	0.601200	0.616000
H1311	H131	0.971100	0.428300	0.878100
H1321	H132	0.302900	0.316500	0.866500
H1331	H133	0.160700	0.072700	0.471000
H1341	H134	0.684800	0.898800	0.116000
H1351	H135	0.951400	0.804500	0.729300
H1361	H136	0.616700	0.148800	0.405500
H1371	H137	0.383300	0.351200	0.905500
H1381	H138	0.543500	0.468200	0.048100
H1391	H139	0.506100	0.955700	0.037500
H1401	H140	0.595700	0.346900	0.592600
H1411	H141	0.043500	0.531800	0.451900
H1421	H142	0.660700	0.927300	0.029000
H1431	H143	0.577200	0.083300	0.636100
H1441	H144	0.136000	0.689900	0.631800
H1451	H145	0.095700	0.653100	0.907400
H1461	H146	0.906300	0.664500	0.725700
H1471	H147	0.384700	0.078200	0.071200
H1481	H148	0.951400	0.771700	0.167800
H1491	H149	0.960300	0.912200	0.329900
H1501	H150	0.884700	0.921800	0.428800
H1511	H151	0.406300	0.335500	0.774300
H1521	H152	0.993900	0.455700	0.962500
H1531	H153	0.956500	0.968200	0.951900
H1541	H154	0.539700	0.412200	0.670100
H1551	H155	0.451400	0.195500	0.770700
H1561	H156	0.451400	0.228300	0.332200
H1571	H157	0.694600	0.092400	0.517100
H1581	H158	0.039700	0.587800	0.829900
H1591	H159	0.012300	0.797400	0.776700
H1601	H160	0.904300	0.846900	0.407400
H1611	H161	0.047500	0.847600	0.837600
H1621	H162	0.805400	0.592400	0.482900
H1631	H163	0.493900	0.544300	0.537500
H1641	H164	0.548600	0.271700	0.832200
H1651	H165	0.404300	0.153100	0.092600
H1661	H166	0.113500	0.884300	0.025700
H1671	H167	0.604700	0.229100	0.588400
H1681	H168	0.987700	0.702600	0.276700
H1691	H169	0.077200	0.916700	0.863900
H1701	H170	0.048600	0.695500	0.229300
H1711	H171	0.512300	0.202600	0.723300
H1721	H172	0.815200	0.398800	0.884000
H1731	H173	0.952500	0.652400	0.337600
H1741	H174	0.028900	0.071700	0.378100
H1751	H175	0.006100	0.044300	0.462500
H1761	H176	0.547500	0.152400	0.662400
H1771	H177	0.535300	0.154100	0.227600
H1781	H178	0.456500	0.031800	0.548100
H1791	H179	0.035300	0.845900	0.272400
H1801	H180	0.128300	0.551700	0.494300
H1811	H181	0.548600	0.304500	0.270700
H1821	H182	0.802900	0.683500	0.633500
H1831	H183	0.194600	0.907600	0.982900
H1841	H184	0.864000	0.810100	0.131800
H1851	H185	0.839300	0.427300	0.971000
H1861	H186	0.197100	0.816500	0.133500
H1871	H187	0.866100	0.656900	0.435900
H1881	H188	0.422800	0.416700	0.136100
H1891	H189	0.436000	0.014500	0.146800
H1901	H190	0.064000	0.514500	0.853200
H1911	H191	0.364000	0.189900	0.368200
H1921	H192	0.452500	0.347600	0.162400
C1451	C145	0.457300	0.556200	0.553610
C1461	C146	0.127700	0.915100	0.984970
C1471	C147	0.991600	0.724800	0.780880
C1481	C148	0.437300	0.061400	0.507920
C1491	C149	0.453000	0.226200	0.761550
C1501	C150	0.372300	0.415100	0.015030
C1511	C151	0.928900	0.956800	0.364240
C1521	C152	0.920100	0.598900	0.510670
C1531	C153	0.056400	0.072200	0.397320
C1541	C154	0.554400	0.324000	0.647940
C1551	C155	0.571100	0.456800	0.635760
C1561	C156	0.943600	0.427800	0.897320
C1571	C157	0.937300	0.938600	0.992080
C1581	C158	0.634600	0.927100	0.048400
C1591	C159	0.791800	0.894400	0.067430
C1601	C160	0.099200	0.800500	0.901340
C1611	C161	0.057300	0.756600	0.854840
C1621	C162	0.014900	0.710800	0.653000
C1631	C163	0.017200	0.587700	0.513800
C1641	C164	0.616400	0.156400	0.584330
C1651	C165	0.985100	0.789200	0.153000
C1661	C166	0.208200	0.605600	0.567430
C1671	C167	0.350900	0.589800	0.599580
C1681	C168	0.291800	0.105600	0.432570
C1691	C169	0.065400	0.845800	0.857720
C1701	C170	0.628300	0.185400	0.367230
C1711	C171	0.957300	0.443800	0.946390
C1721	C172	0.521800	0.279500	0.688090
C1731	C173	0.400800	0.300500	0.098660
C1741	C174	0.428900	0.103400	0.459430
C1751	C175	0.434600	0.345800	0.142280
C1761	C176	0.054400	0.676000	0.852060
C1771	C177	0.416700	0.386600	0.126490
C1781	C178	0.079900	0.901100	0.010670
C1791	C179	0.573400	0.191900	0.263540
C1801	C180	0.942700	0.743400	0.354840
C1811	C181	0.062700	0.561400	0.492080
C1821	C182	0.556400	0.927800	0.102680
C1831	C183	0.088700	0.625000	0.895830
C1841	C184	0.517200	0.412300	0.986200
C1851	C185	0.871700	0.685400	0.632770
C1861	C186	0.883600	0.656400	0.415670
C1871	C187	0.149100	0.089800	0.400420
C1881	C188	0.872300	0.584900	0.484970
C1891	C189	0.478200	0.220500	0.188090
C1901	C190	0.426600	0.308100	0.763540
C1911	C191	0.565400	0.154200	0.642280
C1921	C192	0.574000	0.198600	0.628120
C1931	C193	0.581100	0.164000	0.390250
C1941	C194	0.934500	0.871500	0.366280
C1951	C195	0.073400	0.808100	0.236460
C1961	C196	0.579900	0.098900	0.489330
C1971	C197	0.934600	0.654200	0.357720
C1981	C198	0.565500	0.371500	0.633720
C1991	C199	0.047000	0.726200	0.238450
C2001	C200	0.461200	0.314500	0.735720
C2011	C201	0.116400	0.843600	0.915670
C2021	C202	0.011300	0.549300	0.467000
C2031	C203	0.420100	0.401100	0.989330
C2041	C204	0.428900	0.043200	0.135760
C2051	C205	0.900800	0.699500	0.401340
C2061	C206	0.128300	0.814600	0.132770
C2071	C207	0.688400	0.910000	0.071530
C2081	C208	0.038800	0.814500	0.264280
C2091	C209	0.398600	0.080200	0.091700
C2101	C210	0.365400	0.572900	0.548400
C2111	C211	0.926600	0.691900	0.736460
C2121	C212	0.021800	0.720500	0.811910
C2131	C213	0.926000	0.698600	0.371880
C2141	C214	0.482800	0.087700	0.486200
C2151	C215	0.508400	0.224800	0.219120
C2161	C216	0.434500	0.128500	0.133720
C2171	C217	0.443800	0.086700	0.149760
C2181	C218	0.480300	0.165000	0.390920
C2191	C219	0.443600	0.572200	0.602680
C2201	C220	0.489100	0.230300	0.733270
C2211	C221	0.557300	0.243400	0.645160
C2221	C222	0.916700	0.613400	0.373510
C2231	C223	0.418900	0.336000	0.890250
C2241	C224	0.083300	0.886600	0.873510
C2251	C225	0.188400	0.090000	0.428470
C2261	C226	0.850900	0.410200	0.900420
C2271	C227	0.074000	0.801400	0.871880
C2281	C228	0.510900	0.269700	0.233270
C2291	C229	0.432900	0.188800	0.368550
C2301	C230	0.019700	0.665000	0.609080
C2311	C231	0.811600	0.410000	0.928470
C2321	C232	0.485100	0.210800	0.347000
C2331	C233	0.572700	0.359900	0.915140
C2341	C234	0.445600	0.176000	0.147940
C2351	C235	0.708200	0.394400	0.932570
C2361	C236	0.426000	0.301400	0.128120
C2371	C237	0.071100	0.543200	0.864240
C2381	C238	0.945600	0.824000	0.352060
C2391	C239	0.491600	0.275200	0.719120
C2401	C240	0.928900	0.896600	0.040570
C2411	C241	0.071100	0.603400	0.540570
C2421	C242	0.556200	0.413300	0.649760
C2431	C243	0.562700	0.438600	0.007920
C2441	C244	0.511300	0.450700	0.033000
C2451	C245	0.311600	0.590000	0.571530
C2461	C246	0.932900	0.811200	0.131450
C2471	C247	0.514900	0.289200	0.847000
C2481	C248	0.588700	0.375000	0.604170
C2491	C249	0.989100	0.769700	0.766730
C2501	C250	0.982800	0.912300	0.013800
C2511	C251	0.571100	0.396600	0.959430
C2521	C252	0.072700	0.640100	0.584860
C2531	C253	0.599200	0.199500	0.598660
C2541	C254	0.542700	0.943800	0.053610
C2551	C255	0.988700	0.950700	0.967000
C2561	C256	0.042700	0.056200	0.446390
C2571	C257	0.010900	0.730300	0.266730
C2581	C258	0.978200	0.779500	0.311910
C2591	C259	0.056200	0.586700	0.850240
C2601	C260	0.442700	0.256600	0.145160
C2611	C261	0.411300	0.125000	0.104170
C2621	C262	0.898600	0.919800	0.408300
C2631	C263	0.583300	0.113400	0.626490
C2641	C264	0.865400	0.427100	0.951600
C2651	C265	0.488700	0.049300	0.533000
C2661	C266	0.081100	0.836000	0.109750
C2671	C267	0.943800	0.913300	0.350240
C2681	C268	0.961200	0.685500	0.764280
C2691	C269	0.008400	0.775200	0.280880
C2701	C270	0.371700	0.314600	0.867230
C2711	C271	0.911300	0.875000	0.395830
C2721	C272	0.101400	0.580200	0.908300
C2731	C273	0.918900	0.664000	0.609750
C2741	C274	0.067100	0.688800	0.631450
C2751	C275	0.547000	0.273800	0.261550
C2761	C276	0.927300	0.859900	0.084860
C2771	C277	0.627700	0.084900	0.515030
C2781	C278	0.538800	0.185500	0.235720
C2791	C279	0.601400	0.419800	0.591700
C2801	C280	0.383600	0.343600	0.084330
C2811	C281	0.134600	0.072900	0.451600
C2821	C282	0.427300	0.140100	0.415140
C2831	C283	0.953000	0.773800	0.738450
C2841	C284	0.065500	0.628500	0.866280
C2851	C285	0.980300	0.835000	0.109080
C2861	C286	0.519700	0.335000	0.890920
C2871	C287	0.649100	0.910200	0.099580
C2881	C288	0.567100	0.311200	0.868550
I251	I25	0.667340	0.557050	0.432410
I261	I26	0.209160	0.491210	0.962180
I271	I27	0.290840	0.991210	0.037820
I281	I28	0.935510	0.485230	0.394550
I291	I29	0.332660	0.942950	0.932410
I301	I30	0.683370	0.694890	0.694330
I311	I31	0.716410	0.572950	0.627690
I321	I32	0.435510	0.514770	0.105450
I331	I33	0.564490	0.985230	0.605450
I341	I34	0.064490	0.014770	0.894550
I351	I35	0.283590	0.927050	0.127690
I361	I36	0.167340	0.442950	0.067590
I371	I37	0.176410	0.667120	0.174550
I381	I38	0.816630	0.194890	0.305670
I391	I39	0.183370	0.305110	0.805670
I401	I40	0.783590	0.072950	0.372310
I411	I41	0.832660	0.057050	0.567590
I421	I42	0.216410	0.427050	0.872310
I431	I43	0.316630	0.805110	0.194330
I441	I44	0.790840	0.008790	0.462180
I451	I45	0.323590	0.167120	0.825450
I461	I46	0.676410	0.332880	0.325450
I471	I47	0.709160	0.508790	0.537820
I481	I48	0.823590	0.832880	0.674550
N491	N49	0.568600	0.285400	0.631340
N501	N50	0.020700	0.627300	0.561240
N511	N51	0.405000	0.039900	0.107280
N521	N52	0.431400	0.214600	0.131340
N531	N53	0.497600	0.555900	0.580310
N541	N54	0.082500	0.938800	0.962980
N551	N55	0.835300	0.908500	0.042420
N561	N56	0.833100	0.868800	0.088780
N571	N57	0.417300	0.291200	0.845710
N581	N58	0.002400	0.055900	0.419690
N591	N59	0.582500	0.061200	0.537020
N601	N60	0.917500	0.561200	0.462980
N611	N61	0.164700	0.591500	0.542420
N621	N62	0.419900	0.264800	0.776500
N631	N63	0.534300	0.238600	0.673620
N641	N64	0.905000	0.960100	0.392720
N651	N65	0.582700	0.208800	0.345710
N661	N66	0.166900	0.631200	0.588780
N671	N67	0.080100	0.764800	0.223500
N681	N68	0.666900	0.368800	0.911220
N691	N69	0.890700	0.614200	0.402100
N701	N70	0.520700	0.372700	0.938760
N711	N71	0.609300	0.114200	0.597900
N721	N72	0.968800	0.823300	0.323470
N731	N73	0.580100	0.235200	0.276500
N741	N74	0.417500	0.438800	0.037020
N751	N75	0.031200	0.676700	0.823470
N761	N76	0.333100	0.131200	0.411220
N771	N77	0.595000	0.460100	0.607280
N781	N78	0.468800	0.176700	0.176530
N791	N79	0.095000	0.539900	0.892720
N801	N80	0.531200	0.323300	0.676530
N811	N81	0.664700	0.408500	0.957580
N821	N82	0.479300	0.127300	0.438760
N831	N83	0.082700	0.791200	0.154290
N841	N84	0.919900	0.735200	0.723500
N851	N85	0.465700	0.261400	0.173620
N861	N86	0.335300	0.091500	0.457580
N871	N87	0.931400	0.785400	0.368660
N881	N88	0.068600	0.714600	0.868660
N891	N89	0.390700	0.385800	0.097900
N901	N90	0.109300	0.885800	0.902100
N911	N91	0.034300	0.761400	0.826380
N921	N92	0.502400	0.944100	0.080310
N931	N93	0.965700	0.738600	0.326380
N941	N94	0.917300	0.708800	0.654290
N951	N95	0.997600	0.444100	0.919690
N961	N96	0.979300	0.872700	0.061240
