data_RIYDEJ_clean_PM
_symmetry_space_group_name_H-M	'P1'
_cell_length_a	10.482100
_cell_length_b	10.482100
_cell_length_c	13.928300
_cell_angle_alpha	90.000000
_cell_angle_beta	90.000000
_cell_angle_gamma	90.000000
_symmetry_Int_Tables_number 1

loop_
_symmetry_equiv_pos_as_xyz
'x,y,z'

loop_
_atom_site_label
_atom_site_type_symbol
_atom_site_fract_x
_atom_site_fract_y
_atom_site_fract_z
Na11	Na1	0.597000	0.597000	0.000000
Na21	Na2	0.403000	0.403000	0.500000
Na31	Na3	0.903000	0.097000	0.750000
Na41	Na4	0.097000	0.903000	0.250000
H11	H1	0.552700	0.643800	0.768800
H21	H2	0.693200	0.948900	0.641900
H31	H3	0.585900	0.886700	0.499200
H41	H4	0.472300	0.698700	0.493300
H51	H5	0.447300	0.356200	0.268800
H61	H6	0.306800	0.051100	0.141900
H71	H7	0.414100	0.113300	0.999200
H81	H8	0.527700	0.301300	0.993300
H91	H9	0.856200	0.052700	0.518800
H101	H10	0.551100	0.193200	0.391900
H111	H11	0.613300	0.085900	0.249200
H121	H12	0.801300	0.972300	0.243300
H131	H13	0.143800	0.947300	0.018800
H141	H14	0.448900	0.806800	0.891900
H151	H15	0.386700	0.914100	0.749200
H161	H16	0.198700	0.027700	0.743300
H171	H17	0.947300	0.143800	0.981200
H181	H18	0.806800	0.448900	0.108100
H191	H19	0.914100	0.386700	0.250800
H201	H20	0.027700	0.198700	0.256700
H211	H21	0.052700	0.856200	0.481200
H221	H22	0.193200	0.551100	0.608100
H231	H23	0.085900	0.613300	0.750800
H241	H24	0.972300	0.801300	0.756700
H251	H25	0.643800	0.552700	0.231200
H261	H26	0.948900	0.693200	0.358100
H271	H27	0.886700	0.585900	0.500800
H281	H28	0.698700	0.472300	0.506700
H291	H29	0.356200	0.447300	0.731200
H301	H30	0.051100	0.306800	0.858100
H311	H31	0.113300	0.414100	0.000800
H321	H32	0.301300	0.527700	0.006700
C11	C1	0.699600	0.824900	0.814000
C21	C2	0.633600	0.797000	0.718900
C31	C3	0.644700	0.872400	0.640000
C41	C4	0.581700	0.833800	0.554500
C51	C5	0.515300	0.722000	0.550700
C61	C6	0.510000	0.638900	0.633100
C71	C7	0.300400	0.175100	0.314000
C81	C8	0.366400	0.203000	0.218900
C91	C9	0.355300	0.127600	0.140000
C101	C10	0.418300	0.166200	0.054500
C111	C11	0.484700	0.278000	0.050700
C121	C12	0.490000	0.361100	0.133100
C131	C13	0.675100	0.199600	0.564000
C141	C14	0.703000	0.133600	0.468900
C151	C15	0.627600	0.144700	0.390000
C161	C16	0.666200	0.081700	0.304500
C171	C17	0.778000	0.015300	0.300700
C181	C18	0.861100	0.010000	0.383100
C191	C19	0.324900	0.800400	0.064000
C201	C20	0.297000	0.866400	0.968900
C211	C21	0.372400	0.855300	0.890000
C221	C22	0.333800	0.918300	0.804500
C231	C23	0.222000	0.984700	0.800700
C241	C24	0.138900	0.990000	0.883100
C251	C25	0.800400	0.324900	0.936000
C261	C26	0.866400	0.297000	0.031100
C271	C27	0.855300	0.372400	0.110000
C281	C28	0.918300	0.333800	0.195500
C291	C29	0.984700	0.222000	0.199300
C301	C30	0.990000	0.138900	0.116900
C311	C31	0.199600	0.675100	0.436000
C321	C32	0.133600	0.703000	0.531100
C331	C33	0.144700	0.627600	0.610000
C341	C34	0.081700	0.666200	0.695500
C351	C35	0.015300	0.778000	0.699300
C361	C36	0.010000	0.861100	0.616900
C371	C37	0.824900	0.699600	0.186000
C381	C38	0.797000	0.633600	0.281100
C391	C39	0.872400	0.644700	0.360000
C401	C40	0.833800	0.581700	0.445500
C411	C41	0.722000	0.515300	0.449300
C421	C42	0.638900	0.510000	0.366900
C431	C43	0.175100	0.300400	0.686000
C441	C44	0.203000	0.366400	0.781100
C451	C45	0.127600	0.355300	0.860000
C461	C46	0.166200	0.418300	0.945500
C471	C47	0.278000	0.484700	0.949300
C481	C48	0.361100	0.490000	0.866900
N11	N1	0.563800	0.686700	0.715100
N21	N2	0.436200	0.313300	0.215100
N31	N3	0.813300	0.063800	0.465100
N41	N4	0.186700	0.936200	0.965100
N51	N5	0.936200	0.186700	0.034900
N61	N6	0.063800	0.813300	0.534900
N71	N7	0.686700	0.563800	0.284900
N81	N8	0.313300	0.436200	0.784900
O11	O1	0.680400	0.747600	0.881800
O21	O2	0.772400	0.919800	0.815800
O31	O3	0.463400	0.528800	0.632400
O41	O4	0.319600	0.252400	0.381800
O51	O5	0.227600	0.080200	0.315800
O61	O6	0.536600	0.471200	0.132400
O71	O7	0.752400	0.180400	0.631800
O81	O8	0.580200	0.272400	0.565800
O91	O9	0.971200	0.963400	0.382400
O101	O10	0.247600	0.819600	0.131800
O111	O11	0.419800	0.727600	0.065800
O121	O12	0.028800	0.036600	0.882400
O131	O13	0.819600	0.247600	0.868200
O141	O14	0.727600	0.419800	0.934200
O151	O15	0.036600	0.028800	0.117600
O161	O16	0.180400	0.752400	0.368200
O171	O17	0.272400	0.580200	0.434200
O181	O18	0.963400	0.971200	0.617600
O191	O19	0.747600	0.680400	0.118200
O201	O20	0.919800	0.772400	0.184200
O211	O21	0.528800	0.463400	0.367600
O221	O22	0.252400	0.319600	0.618200
O231	O23	0.080200	0.227600	0.684200
O241	O24	0.471200	0.536600	0.867600
