data_RIYWIH_clean_PM
_symmetry_space_group_name_H-M	'P1'
_cell_length_a	23.065200
_cell_length_b	6.973100
_cell_length_c	22.416500
_cell_angle_alpha	90.000000
_cell_angle_beta	91.540000
_cell_angle_gamma	90.000000
_symmetry_Int_Tables_number 1

loop_
_symmetry_equiv_pos_as_xyz
'x,y,z'

loop_
_atom_site_label
_atom_site_type_symbol
_atom_site_fract_x
_atom_site_fract_y
_atom_site_fract_z
Ca11	Ca1	0.532500	0.952400	0.006900
P11	P1	0.408600	0.973800	0.042500
O11	O1	0.441800	0.786800	0.030800
O21	O2	0.445900	0.141000	0.021300
O31	O3	0.399500	0.993000	0.110400
C11	C1	0.339000	0.971000	0.003800
C21	C2	0.287300	0.978000	0.034200
C31	C3	0.235100	0.996000	0.001800
C41	C4	0.234700	0.994000	0.939000
C51	C5	0.284200	0.925000	0.911200
C61	C6	0.337900	0.949000	0.941600
C71	C7	0.177900	0.043000	0.030400
O41	O4	0.175800	0.070000	0.084700
O51	O5	0.133100	0.038000	0.998000
C81	C8	0.281400	0.867000	0.846000
O61	O6	0.328500	0.865000	0.820000
O71	O7	0.236100	0.796000	0.824500
P21	P2	0.581500	0.447800	0.986800
O81	O8	0.600300	0.476000	0.921600
O91	O9	0.541400	0.273300	0.993200
O101	O10	0.549400	0.627000	0.007200
C91	C9	0.645700	0.407000	0.032200
C101	C10	0.696900	0.499000	0.017700
C111	C11	0.746000	0.474000	0.055000
C121	C12	0.736900	0.432000	0.115400
C131	C13	0.686500	0.330000	0.129300
C141	C14	0.637700	0.353000	0.091500
C151	C15	0.805700	0.516000	0.031700
O111	O11	0.811600	0.509000	0.976600
O121	O12	0.847100	0.573000	0.063500
C161	C16	0.676000	0.271000	0.193600
O131	O13	0.717700	0.296000	0.229100
O141	O14	0.624100	0.277000	0.207900
Ca21	Ca2	0.458600	0.466200	0.031400
P31	P3	0.537300	0.591900	0.363300
O151	O15	0.570100	0.602000	0.424000
O161	O16	0.521900	0.381000	0.348600
O171	O17	0.482800	0.721000	0.363300
C171	C17	0.583000	0.683000	0.305600
C181	C18	0.557900	0.789000	0.259500
C191	C19	0.589200	0.827000	0.208600
C201	C20	0.650200	0.812000	0.212600
C211	C21	0.677100	0.729000	0.262900
C221	C22	0.642100	0.635000	0.304010
C231	C23	0.558700	0.905000	0.153000
O181	O18	0.505300	0.921000	0.156100
O191	O19	0.584500	0.941000	0.107000
C241	C24	0.742600	0.718000	0.268800
O201	O20	0.764300	0.663000	0.317000
O211	O21	0.773500	0.794000	0.230800
Ca31	Ca3	0.457070	0.080800	0.509100
P41	P4	0.582300	0.079300	0.554300
O221	O22	0.544800	0.258000	0.549400
O231	O23	0.546800	0.913000	0.527600
O241	O24	0.601300	0.039000	0.619900
C251	C25	0.646900	0.106000	0.511000
C261	C26	0.695900	0.005000	0.531400
C271	C27	0.744300	0.001000	0.494800
C281	C28	0.733500	0.006000	0.432900
C291	C29	0.681900	0.087000	0.410600
C301	C30	0.635600	0.105000	0.449200
C311	C31	0.803300	0.953000	0.521700
O251	O25	0.805300	0.902000	0.575000
O261	O26	0.848000	0.961000	0.492000
C321	C32	0.672500	0.151000	0.346400
O271	O27	0.622000	0.196000	0.331400
O281	O28	0.714000	0.202000	0.316400
P51	P5	0.399100	0.576000	0.493900
O291	O29	0.383800	0.592000	0.426400
O301	O30	0.434300	0.752000	0.513900
O311	O31	0.440400	0.407000	0.504600
C331	C33	0.333900	0.548000	0.536100
C341	C34	0.280700	0.514000	0.507000
C351	C35	0.231100	0.498000	0.540300
C361	C36	0.230600	0.593000	0.595600
C371	C37	0.282200	0.655000	0.623100
C381	C38	0.334500	0.612000	0.596000
C391	C39	0.170700	0.435000	0.519800
O321	O32	0.152600	0.491000	0.470600
O331	O33	0.137400	0.407000	0.561900
C401	C40	0.276200	0.707000	0.688500
O341	O34	0.227000	0.692000	0.709800
O351	O35	0.321400	0.730000	0.718500
Ca41	Ca4	0.535100	0.591200	0.528200
P61	P6	0.478900	0.546200	0.850000
O361	O36	0.466300	0.576000	0.916800
O371	O37	0.485100	0.738000	0.816600
O381	O38	0.537200	0.433000	0.846000
C411	C41	0.424400	0.390000	0.816600
C421	C42	0.448400	0.247000	0.780500
C431	C43	0.419900	0.213000	0.724800
C441	C44	0.359200	0.222000	0.724700
C451	C45	0.328900	0.298000	0.773600
C461	C46	0.363700	0.399000	0.816600
C471	C47	0.458700	0.145000	0.675000
O391	O39	0.510500	0.198000	0.682000
O401	O40	0.438900	0.076000	0.628100
C481	C48	0.263000	0.294000	0.771600
O411	O41	0.233400	0.333000	0.815600
O421	O42	0.234100	0.234000	0.727200
Ca51	Ca5	0.032500	0.047600	0.006900
P71	P7	0.908600	0.026200	0.042500
O431	O43	0.941800	0.213200	0.030800
O441	O44	0.945900	0.859000	0.021300
O451	O45	0.899500	0.007000	0.110400
C491	C49	0.839000	0.029000	0.003800
C501	C50	0.787300	0.022000	0.034200
C511	C51	0.735100	0.004000	0.001800
C521	C52	0.734700	0.006000	0.939000
C531	C53	0.784200	0.075000	0.911200
C541	C54	0.837900	0.051000	0.941600
C551	C55	0.677900	0.957000	0.030400
O461	O46	0.675800	0.930000	0.084700
O471	O47	0.633100	0.962000	0.998000
C561	C56	0.781400	0.133000	0.846000
O481	O48	0.828500	0.135000	0.820000
O491	O49	0.736100	0.204000	0.824500
P81	P8	0.081500	0.552200	0.986800
O501	O50	0.100300	0.524000	0.921600
O511	O51	0.041400	0.726700	0.993200
O521	O52	0.049400	0.373000	0.007200
C571	C57	0.145700	0.593000	0.032200
C581	C58	0.196900	0.501000	0.017700
C591	C59	0.246000	0.526000	0.055000
C601	C60	0.236900	0.568000	0.115400
C611	C61	0.186500	0.670000	0.129300
C621	C62	0.137700	0.647000	0.091500
C631	C63	0.305700	0.484000	0.031700
O531	O53	0.311600	0.491000	0.976600
O541	O54	0.347100	0.427000	0.063500
C641	C64	0.176000	0.729000	0.193600
O551	O55	0.217700	0.704000	0.229100
O561	O56	0.124100	0.723000	0.207900
Ca61	Ca6	0.958600	0.533800	0.031400
P91	P9	0.037300	0.408100	0.363300
O571	O57	0.070100	0.398000	0.424000
O581	O58	0.021900	0.619000	0.348600
O591	O59	0.982800	0.279000	0.363300
C651	C65	0.083000	0.317000	0.305600
C661	C66	0.057900	0.211000	0.259500
C671	C67	0.089200	0.173000	0.208600
C681	C68	0.150200	0.188000	0.212600
C691	C69	0.177100	0.271000	0.262900
C701	C70	0.142100	0.365000	0.304010
C711	C71	0.058700	0.095000	0.153000
O601	O60	0.005300	0.079000	0.156100
O611	O61	0.084500	0.059000	0.107000
C721	C72	0.242600	0.282000	0.268800
O621	O62	0.264300	0.337000	0.317000
O631	O63	0.273500	0.206000	0.230800
Ca71	Ca7	0.957070	0.919200	0.509100
P101	P10	0.082300	0.920700	0.554300
O641	O64	0.044800	0.742000	0.549400
O651	O65	0.046800	0.087000	0.527600
O661	O66	0.101300	0.961000	0.619900
C731	C73	0.146900	0.894000	0.511000
C741	C74	0.195900	0.995000	0.531400
C751	C75	0.244300	0.999000	0.494800
C761	C76	0.233500	0.994000	0.432900
C771	C77	0.181900	0.913000	0.410600
C781	C78	0.135600	0.895000	0.449200
C791	C79	0.303300	0.047000	0.521700
O671	O67	0.305300	0.098000	0.575000
O681	O68	0.348000	0.039000	0.492000
C801	C80	0.172500	0.849000	0.346400
O691	O69	0.122000	0.804000	0.331400
O701	O70	0.214000	0.798000	0.316400
P111	P11	0.899100	0.424000	0.493900
O711	O71	0.883800	0.408000	0.426400
O721	O72	0.934300	0.248000	0.513900
O731	O73	0.940400	0.593000	0.504600
C811	C81	0.833900	0.452000	0.536100
C821	C82	0.780700	0.486000	0.507000
C831	C83	0.731100	0.502000	0.540300
C841	C84	0.730600	0.407000	0.595600
C851	C85	0.782200	0.345000	0.623100
C861	C86	0.834500	0.388000	0.596000
C871	C87	0.670700	0.565000	0.519800
O741	O74	0.652600	0.509000	0.470600
O751	O75	0.637400	0.593000	0.561900
C881	C88	0.776200	0.293000	0.688500
O761	O76	0.727000	0.308000	0.709800
O771	O77	0.821400	0.270000	0.718500
Ca81	Ca8	0.035100	0.408800	0.528200
P121	P12	0.978900	0.453800	0.850000
O781	O78	0.966300	0.424000	0.916800
O791	O79	0.985100	0.262000	0.816600
O801	O80	0.037200	0.567000	0.846000
C891	C89	0.924400	0.610000	0.816600
C901	C90	0.948400	0.753000	0.780500
C911	C91	0.919900	0.787000	0.724800
C921	C92	0.859200	0.778000	0.724700
C931	C93	0.828900	0.702000	0.773600
C941	C94	0.863700	0.601000	0.816600
C951	C95	0.958700	0.855000	0.675000
O811	O81	0.010500	0.802000	0.682000
O821	O82	0.938900	0.924000	0.628100
C961	C96	0.763000	0.706000	0.771600
O831	O83	0.733400	0.667000	0.815600
O841	O84	0.734100	0.766000	0.727200
