data_ROCZOA_clean_PM
_symmetry_space_group_name_H-M	'P1'
_cell_length_a	10.974000
_cell_length_b	22.669000
_cell_length_c	14.106000
_cell_angle_alpha	90.000000
_cell_angle_beta	96.637000
_cell_angle_gamma	90.000000
_symmetry_Int_Tables_number 1

loop_
_symmetry_equiv_pos_as_xyz
'x,y,z'

loop_
_atom_site_label
_atom_site_type_symbol
_atom_site_fract_x
_atom_site_fract_y
_atom_site_fract_z
Cd11	Cd1	0.868190	0.073230	0.778060
C11	C1	0.618100	0.056500	0.868300
H11	H1	0.677600	0.044400	0.916700
C21	C2	0.498700	0.054200	0.884200
H21	H2	0.478400	0.040500	0.942500
C31	C3	0.407700	0.071900	0.815600
C41	C4	0.444100	0.092800	0.731400
H31	H3	0.386300	0.106400	0.682900
C51	C5	0.566400	0.093200	0.720300
H41	H4	0.589300	0.106800	0.662800
C61	C6	0.279700	0.066200	0.830700
C71	C7	0.920300	0.292300	0.234600
H51	H5	0.950700	0.293700	0.298900
C81	C8	0.923900	0.240000	0.188700
H61	H6	0.956900	0.206900	0.220900
C91	C9	0.878200	0.236400	0.093900
C101	C10	0.831600	0.286800	0.049500
H71	H7	0.799800	0.286500	0.985400
C111	C11	0.833300	0.337600	0.102300
H81	H8	0.802000	0.371600	0.071800
C121	C12	0.882600	0.181400	0.040700
N11	N1	0.654000	0.075300	0.786400
N21	N2	0.246800	0.039800	0.909000
N31	N3	0.125500	0.043000	0.897600
N41	N4	0.087200	0.069300	0.815300
N51	N5	0.182900	0.084800	0.772300
N61	N6	0.876200	0.341600	0.193700
N71	N7	0.921000	0.130800	0.081100
N81	N8	0.916200	0.093200	0.008600
N91	N9	0.878100	0.121200	0.928500
N101	N10	0.855700	0.177300	0.946900
N111	N11	0.871200	0.987200	0.861500
N121	N12	0.814000	0.945000	0.837400
N131	N13	0.759900	0.905000	0.812300
Cd21	Cd2	0.131810	0.573230	0.721940
C131	C13	0.381900	0.556500	0.631700
H91	H9	0.322400	0.544400	0.583300
C141	C14	0.501300	0.554200	0.615800
H101	H10	0.521600	0.540500	0.557500
C151	C15	0.592300	0.571900	0.684400
C161	C16	0.555900	0.592800	0.768600
H111	H11	0.613700	0.606400	0.817100
C171	C17	0.433600	0.593200	0.779700
H121	H12	0.410700	0.606800	0.837200
C181	C18	0.720300	0.566200	0.669300
C191	C19	0.079700	0.792300	0.265400
H131	H13	0.049300	0.793700	0.201100
C201	C20	0.076100	0.740000	0.311300
H141	H14	0.043100	0.706900	0.279100
C211	C21	0.121800	0.736400	0.406100
C221	C22	0.168400	0.786800	0.450500
H151	H15	0.200200	0.786500	0.514600
C231	C23	0.166700	0.837600	0.397700
H161	H16	0.198000	0.871600	0.428200
C241	C24	0.117400	0.681400	0.459300
N141	N14	0.346000	0.575300	0.713600
N151	N15	0.753200	0.539800	0.591000
N161	N16	0.874500	0.543000	0.602400
N171	N17	0.912800	0.569300	0.684700
N181	N18	0.817100	0.584800	0.727700
N191	N19	0.123800	0.841600	0.306300
N201	N20	0.079000	0.630800	0.418900
N211	N21	0.083800	0.593200	0.491400
N221	N22	0.121900	0.621200	0.571500
N231	N23	0.144300	0.677300	0.553100
N241	N24	0.128800	0.487200	0.638500
N251	N25	0.186000	0.445000	0.662600
N261	N26	0.240100	0.405000	0.687700
Cd31	Cd3	0.131810	0.926770	0.221940
C251	C25	0.381900	0.943500	0.131700
H171	H17	0.322400	0.955600	0.083300
C261	C26	0.501300	0.945800	0.115800
H181	H18	0.521600	0.959500	0.057500
C271	C27	0.592300	0.928100	0.184400
C281	C28	0.555900	0.907200	0.268600
H191	H19	0.613700	0.893600	0.317100
C291	C29	0.433600	0.906800	0.279700
H201	H20	0.410700	0.893200	0.337200
C301	C30	0.720300	0.933800	0.169300
C311	C31	0.079700	0.707700	0.765400
H211	H21	0.049300	0.706300	0.701100
C321	C32	0.076100	0.760000	0.811300
H221	H22	0.043100	0.793100	0.779100
C331	C33	0.121800	0.763600	0.906100
C341	C34	0.168400	0.713200	0.950500
H231	H23	0.200200	0.713500	0.014600
C351	C35	0.166700	0.662400	0.897700
H241	H24	0.198000	0.628400	0.928200
C361	C36	0.117400	0.818600	0.959300
N271	N27	0.346000	0.924700	0.213600
N281	N28	0.753200	0.960200	0.091000
N291	N29	0.874500	0.957000	0.102400
N301	N30	0.912800	0.930700	0.184700
N311	N31	0.817100	0.915200	0.227700
N321	N32	0.123800	0.658400	0.806300
N331	N33	0.079000	0.869200	0.918900
N341	N34	0.083800	0.906800	0.991400
N351	N35	0.121900	0.878800	0.071500
N361	N36	0.144300	0.822700	0.053100
N371	N37	0.128800	0.012800	0.138500
N381	N38	0.186000	0.055000	0.162600
N391	N39	0.240100	0.095000	0.187700
Cd41	Cd4	0.868190	0.426770	0.278060
C371	C37	0.618100	0.443500	0.368300
H251	H25	0.677600	0.455600	0.416700
C381	C38	0.498700	0.445800	0.384200
H261	H26	0.478400	0.459500	0.442500
C391	C39	0.407700	0.428100	0.315600
C401	C40	0.444100	0.407200	0.231400
H271	H27	0.386300	0.393600	0.182900
C411	C41	0.566400	0.406800	0.220300
H281	H28	0.589300	0.393200	0.162800
C421	C42	0.279700	0.433800	0.330700
C431	C43	0.920300	0.207700	0.734600
H291	H29	0.950700	0.206300	0.798900
C441	C44	0.923900	0.260000	0.688700
H301	H30	0.956900	0.293100	0.720900
C451	C45	0.878200	0.263600	0.593900
C461	C46	0.831600	0.213200	0.549500
H311	H31	0.799800	0.213500	0.485400
C471	C47	0.833300	0.162400	0.602300
H321	H32	0.802000	0.128400	0.571800
C481	C48	0.882600	0.318600	0.540700
N401	N40	0.654000	0.424700	0.286400
N411	N41	0.246800	0.460200	0.409000
N421	N42	0.125500	0.457000	0.397600
N431	N43	0.087200	0.430700	0.315300
N441	N44	0.182900	0.415200	0.272300
N451	N45	0.876200	0.158400	0.693700
N461	N46	0.921000	0.369200	0.581100
N471	N47	0.916200	0.406800	0.508600
N481	N48	0.878100	0.378800	0.428500
N491	N49	0.855700	0.322700	0.446900
N501	N50	0.871200	0.512800	0.361500
N511	N51	0.814000	0.555000	0.337400
N521	N52	0.759900	0.595000	0.312300
Cd51	Cd5	0.000000	0.000000	0.000000
Cd61	Cd6	0.000000	0.500000	0.500000
