data_ROCZAM_clean_PM
_symmetry_space_group_name_H-M	'P1'
_cell_length_a	9.615000
_cell_length_b	21.122000
_cell_length_c	13.152000
_cell_angle_alpha	90.000000
_cell_angle_beta	91.126000
_cell_angle_gamma	90.000000
_symmetry_Int_Tables_number 1

loop_
_symmetry_equiv_pos_as_xyz
'x,y,z'

loop_
_atom_site_label
_atom_site_type_symbol
_atom_site_fract_x
_atom_site_fract_y
_atom_site_fract_z
Cd11	Cd1	0.897410	0.089690	0.227560
C11	C1	0.958600	0.266600	0.789200
H11	H1	0.997700	0.267600	0.725100
C21	C2	0.960600	0.210000	0.842900
H21	H2	0.997400	0.173700	0.814000
C31	C3	0.907900	0.208300	0.938500
C41	C4	0.854800	0.262700	0.977100
H31	H3	0.820900	0.263400	0.042800
C51	C5	0.851300	0.317300	0.918100
H41	H4	0.811100	0.353600	0.944600
C61	C6	0.908500	0.147800	0.999000
C71	C7	0.593800	0.079800	0.120800
H51	H5	0.653700	0.073900	0.066900
C81	C8	0.454500	0.072200	0.103700
H61	H6	0.421500	0.059500	0.040000
C91	C9	0.362100	0.083400	0.181000
C101	C10	0.418700	0.100900	0.274000
H71	H7	0.360800	0.109100	0.328300
C111	C11	0.559400	0.106100	0.286500
H81	H8	0.595400	0.117600	0.350000
C121	C12	0.207500	0.073300	0.165600
N11	N1	0.903000	0.319700	0.825800
N21	N2	0.647700	0.095200	0.211200
N31	N3	0.875400	0.996300	0.143100
N41	N4	0.801800	0.954100	0.163700
N51	N5	0.736300	0.911900	0.186000
O11	O1	0.912000	0.096900	0.950300
O21	O2	0.897300	0.154500	0.092700
O31	O3	0.173300	0.051200	0.082900
O41	O4	0.132200	0.088400	0.236200
Cd21	Cd2	0.102590	0.589690	0.272440
C131	C13	0.041400	0.766600	0.710800
H91	H9	0.002300	0.767600	0.774900
C141	C14	0.039400	0.710000	0.657100
H101	H10	0.002600	0.673700	0.686000
C151	C15	0.092100	0.708300	0.561500
C161	C16	0.145200	0.762700	0.522900
H111	H11	0.179100	0.763400	0.457200
C171	C17	0.148700	0.817300	0.581900
H121	H12	0.188900	0.853600	0.555400
C181	C18	0.091500	0.647800	0.501000
C191	C19	0.406200	0.579800	0.379200
H131	H13	0.346300	0.573900	0.433100
C201	C20	0.545500	0.572200	0.396300
H141	H14	0.578500	0.559500	0.460000
C211	C21	0.637900	0.583400	0.319000
C221	C22	0.581300	0.600900	0.226000
H151	H15	0.639200	0.609100	0.171700
C231	C23	0.440600	0.606100	0.213500
H161	H16	0.404600	0.617600	0.150000
C241	C24	0.792500	0.573300	0.334400
N61	N6	0.097000	0.819700	0.674200
N71	N7	0.352300	0.595200	0.288800
N81	N8	0.124600	0.496300	0.356900
N91	N9	0.198200	0.454100	0.336300
N101	N10	0.263700	0.411900	0.314000
O51	O5	0.088000	0.596900	0.549700
O61	O6	0.102700	0.654500	0.407300
O71	O7	0.826700	0.551200	0.417100
O81	O8	0.867800	0.588400	0.263800
Cd31	Cd3	0.102590	0.910310	0.772440
C251	C25	0.041400	0.733400	0.210800
H171	H17	0.002300	0.732400	0.274900
C261	C26	0.039400	0.790000	0.157100
H181	H18	0.002600	0.826300	0.186000
C271	C27	0.092100	0.791700	0.061500
C281	C28	0.145200	0.737300	0.022900
H191	H19	0.179100	0.736600	0.957200
C291	C29	0.148700	0.682700	0.081900
H201	H20	0.188900	0.646400	0.055400
C301	C30	0.091500	0.852200	0.001000
C311	C31	0.406200	0.920200	0.879200
H211	H21	0.346300	0.926100	0.933100
C321	C32	0.545500	0.927800	0.896300
H221	H22	0.578500	0.940500	0.960000
C331	C33	0.637900	0.916600	0.819000
C341	C34	0.581300	0.899100	0.726000
H231	H23	0.639200	0.890900	0.671700
C351	C35	0.440600	0.893900	0.713500
H241	H24	0.404600	0.882400	0.650000
C361	C36	0.792500	0.926700	0.834400
N111	N11	0.097000	0.680300	0.174200
N121	N12	0.352300	0.904800	0.788800
N131	N13	0.124600	0.003700	0.856900
N141	N14	0.198200	0.045900	0.836300
N151	N15	0.263700	0.088100	0.814000
O91	O9	0.088000	0.903100	0.049700
O101	O10	0.102700	0.845500	0.907300
O111	O11	0.826700	0.948800	0.917100
O121	O12	0.867800	0.911600	0.763800
Cd41	Cd4	0.897410	0.410310	0.727560
C371	C37	0.958600	0.233400	0.289200
H251	H25	0.997700	0.232400	0.225100
C381	C38	0.960600	0.290000	0.342900
H261	H26	0.997400	0.326300	0.314000
C391	C39	0.907900	0.291700	0.438500
C401	C40	0.854800	0.237300	0.477100
H271	H27	0.820900	0.236600	0.542800
C411	C41	0.851300	0.182700	0.418100
H281	H28	0.811100	0.146400	0.444600
C421	C42	0.908500	0.352200	0.499000
C431	C43	0.593800	0.420200	0.620800
H291	H29	0.653700	0.426100	0.566900
C441	C44	0.454500	0.427800	0.603700
H301	H30	0.421500	0.440500	0.540000
C451	C45	0.362100	0.416600	0.681000
C461	C46	0.418700	0.399100	0.774000
H311	H31	0.360800	0.390900	0.828300
C471	C47	0.559400	0.393900	0.786500
H321	H32	0.595400	0.382400	0.850000
C481	C48	0.207500	0.426700	0.665600
N161	N16	0.903000	0.180300	0.325800
N171	N17	0.647700	0.404800	0.711200
N181	N18	0.875400	0.503700	0.643100
N191	N19	0.801800	0.545900	0.663700
N201	N20	0.736300	0.588100	0.686000
O131	O13	0.912000	0.403100	0.450300
O141	O14	0.897300	0.345500	0.592700
O151	O15	0.173300	0.448800	0.582900
O161	O16	0.132200	0.411600	0.736200
Cd51	Cd5	0.000000	0.000000	0.000000
Cd61	Cd6	0.000000	0.500000	0.500000
