data_ROJNEJ_clean_PM
_symmetry_space_group_name_H-M	'P1'
_cell_length_a	7.113000
_cell_length_b	9.959000
_cell_length_c	9.959000
_cell_angle_alpha	90.000000
_cell_angle_beta	90.000000
_cell_angle_gamma	90.000000
_symmetry_Int_Tables_number 1

loop_
_symmetry_equiv_pos_as_xyz
'x,y,z'

loop_
_atom_site_label
_atom_site_type_symbol
_atom_site_fract_x
_atom_site_fract_y
_atom_site_fract_z
V11	V1	0.500000	0.609100	0.890900
V21	V2	0.500000	0.390900	0.109100
V31	V3	0.500000	0.109100	0.609100
V41	V4	0.500000	0.890900	0.390900
H11	H1	0.500000	0.356300	0.856300
H21	H2	0.500000	0.643700	0.143700
H31	H3	0.500000	0.143700	0.356300
H41	H4	0.500000	0.856300	0.643700
C11	C1	0.500000	0.442200	0.414400
C21	C2	0.500000	0.557800	0.585600
C31	C3	0.500000	0.585600	0.442200
C41	C4	0.500000	0.414400	0.557800
C51	C5	0.500000	0.057800	0.914400
C61	C6	0.500000	0.942200	0.085600
C71	C7	0.500000	0.914400	0.942200
C81	C8	0.500000	0.085600	0.057800
C91	C9	0.101000	0.551600	0.948400
C101	C10	0.101000	0.448400	0.051600
C111	C11	0.101000	0.051600	0.551600
C121	C12	0.101000	0.948400	0.448400
C131	C13	0.899000	0.948400	0.448400
C141	C14	0.899000	0.051600	0.551600
C151	C15	0.899000	0.448400	0.051600
C161	C16	0.899000	0.551600	0.948400
O11	O1	0.500000	0.629900	0.687900
O21	O2	0.500000	0.370100	0.312100
O31	O3	0.500000	0.312100	0.629900
O41	O4	0.500000	0.687900	0.370100
O51	O5	0.500000	0.870100	0.187900
O61	O6	0.500000	0.129900	0.812100
O71	O7	0.500000	0.187900	0.129900
O81	O8	0.500000	0.812100	0.870100
O91	O9	0.220300	0.617500	0.882500
O101	O10	0.220300	0.382500	0.117500
O111	O11	0.220300	0.117500	0.617500
O121	O12	0.220300	0.882500	0.382500
O131	O13	0.779700	0.882500	0.382500
O141	O14	0.779700	0.117500	0.617500
O151	O15	0.779700	0.382500	0.117500
O161	O16	0.779700	0.617500	0.882500
O171	O17	0.500000	0.586200	0.086200
O181	O18	0.500000	0.413800	0.913800
O191	O19	0.500000	0.913800	0.586200
O201	O20	0.500000	0.086200	0.413800
