data_ROLCEC19_clean_PM
_symmetry_space_group_name_H-M	'P1'
_cell_length_a	7.325600
_cell_length_b	7.325600
_cell_length_c	24.394400
_cell_angle_alpha	90.000000
_cell_angle_beta	90.000000
_cell_angle_gamma	120.000000
_symmetry_Int_Tables_number 1

loop_
_symmetry_equiv_pos_as_xyz
'x,y,z'

loop_
_atom_site_label
_atom_site_type_symbol
_atom_site_fract_x
_atom_site_fract_y
_atom_site_fract_z
O11	O1	0.338300	0.451300	0.132330
O21	O2	0.921100	0.297900	0.964600
O31	O3	0.141600	0.419200	0.034320
C11	C1	0.033400	0.431300	0.998700
H11	H1	0.035000	0.558900	0.996800
O41	O4	0.548700	0.887000	0.465660
O51	O5	0.702100	0.623200	0.297930
O61	O6	0.580800	0.722400	0.367650
C21	C2	0.568700	0.602100	0.332030
H21	H2	0.441100	0.476100	0.330130
O71	O7	0.113000	0.661700	0.799000
O81	O8	0.376800	0.078900	0.631270
O91	O9	0.277600	0.858400	0.700990
C31	C3	0.397900	0.966600	0.665370
H31	H3	0.523900	0.965000	0.663470
O101	O10	0.661700	0.548700	0.632330
O111	O11	0.078900	0.702100	0.464600
O121	O12	0.858400	0.580800	0.534320
C41	C4	0.966600	0.568700	0.498700
H41	H4	0.965000	0.441100	0.496800
O131	O13	0.451300	0.113000	0.965660
O141	O14	0.297900	0.376800	0.797930
O151	O15	0.419200	0.277600	0.867650
C51	C5	0.431300	0.397900	0.832030
H51	H5	0.558900	0.523900	0.830130
O161	O16	0.887000	0.338300	0.299000
O171	O17	0.623200	0.921100	0.131270
O181	O18	0.722400	0.141600	0.200990
C61	C6	0.602100	0.033400	0.165370
H61	H6	0.476100	0.035000	0.163470
O191	O19	0.451300	0.338300	0.201000
O201	O20	0.297900	0.921100	0.368730
O211	O21	0.419200	0.141600	0.299010
C71	C7	0.431300	0.033400	0.334630
H71	H7	0.558900	0.035000	0.336530
O221	O22	0.887000	0.548700	0.867670
O231	O23	0.623200	0.702100	0.035400
O241	O24	0.722400	0.580800	0.965680
C81	C8	0.602100	0.568700	0.001300
H81	H8	0.476100	0.441100	0.003200
O251	O25	0.661700	0.113000	0.534340
O261	O26	0.078900	0.376800	0.702070
O271	O27	0.858400	0.277600	0.632350
C91	C9	0.966600	0.397900	0.667970
H91	H9	0.965000	0.523900	0.669870
O281	O28	0.548700	0.661700	0.701000
O291	O29	0.702100	0.078900	0.868730
O301	O30	0.580800	0.858400	0.799010
C101	C10	0.568700	0.966600	0.834630
H101	H10	0.441100	0.965000	0.836530
O311	O31	0.113000	0.451300	0.367670
O321	O32	0.376800	0.297900	0.535400
O331	O33	0.277600	0.419200	0.465680
C111	C11	0.397900	0.431300	0.501300
H111	H11	0.523900	0.558900	0.503200
O341	O34	0.338300	0.887000	0.034340
O351	O35	0.921100	0.623200	0.202070
O361	O36	0.141600	0.722400	0.132350
C121	C12	0.033400	0.602100	0.167970
H121	H12	0.035000	0.476100	0.169870
Cu11	Cu1	0.364730	0.682370	0.083330
Cu21	Cu2	0.317640	0.682360	0.416670
Cu31	Cu3	0.317640	0.635270	0.750000
Cu41	Cu4	0.635270	0.317640	0.583330
Cu51	Cu5	0.682370	0.317640	0.916670
Cu61	Cu6	0.682360	0.364730	0.250000
C131	C13	0.474200	0.474200	0.166670
H131	H13	0.601100	0.601100	0.166670
C141	C14	0.525800	0.000000	0.500000
H141	H14	0.398900	0.000000	0.500000
C151	C15	0.000000	0.525800	0.833330
H151	H15	0.000000	0.398900	0.833330
C161	C16	0.525800	0.525800	0.666670
H161	H16	0.398900	0.398900	0.666670
C171	C17	0.474200	0.000000	0.000000
H171	H17	0.601100	0.000000	0.000000
C181	C18	0.000000	0.474200	0.333330
H181	H18	0.000000	0.601100	0.333330
