data_ROLCEC14_clean_PM
_symmetry_space_group_name_H-M	'P1'
_cell_length_a	7.317900
_cell_length_b	7.317900
_cell_length_c	24.419000
_cell_angle_alpha	90.000000
_cell_angle_beta	90.000000
_cell_angle_gamma	120.000000
_symmetry_Int_Tables_number 1

loop_
_symmetry_equiv_pos_as_xyz
'x,y,z'

loop_
_atom_site_label
_atom_site_type_symbol
_atom_site_fract_x
_atom_site_fract_y
_atom_site_fract_z
O11	O1	0.338400	0.450800	0.132150
O21	O2	0.922000	0.297500	0.965000
O31	O3	0.140500	0.418300	0.034000
C11	C1	0.032800	0.431300	0.998900
H11	H1	0.033400	0.558500	0.997100
O41	O4	0.549200	0.887600	0.465480
O51	O5	0.702500	0.624500	0.298330
O61	O6	0.581700	0.722200	0.367330
C21	C2	0.568700	0.601500	0.332230
H21	H2	0.441500	0.474900	0.330430
O71	O7	0.112400	0.661600	0.798820
O81	O8	0.375500	0.078000	0.631670
O91	O9	0.277800	0.859500	0.700670
C31	C3	0.398500	0.967200	0.665570
H31	H3	0.525100	0.966600	0.663770
O101	O10	0.661600	0.549200	0.632150
O111	O11	0.078000	0.702500	0.465000
O121	O12	0.859500	0.581700	0.534000
C41	C4	0.967200	0.568700	0.498900
H41	H4	0.966600	0.441500	0.497100
O131	O13	0.450800	0.112400	0.965480
O141	O14	0.297500	0.375500	0.798330
O151	O15	0.418300	0.277800	0.867330
C51	C5	0.431300	0.398500	0.832230
H51	H5	0.558500	0.525100	0.830430
O161	O16	0.887600	0.338400	0.298820
O171	O17	0.624500	0.922000	0.131670
O181	O18	0.722200	0.140500	0.200670
C61	C6	0.601500	0.032800	0.165570
H61	H6	0.474900	0.033400	0.163770
O191	O19	0.450800	0.338400	0.201180
O201	O20	0.297500	0.922000	0.368330
O211	O21	0.418300	0.140500	0.299330
C71	C7	0.431300	0.032800	0.334430
H71	H7	0.558500	0.033400	0.336230
O221	O22	0.887600	0.549200	0.867850
O231	O23	0.624500	0.702500	0.035000
O241	O24	0.722200	0.581700	0.966000
C81	C8	0.601500	0.568700	0.001100
H81	H8	0.474900	0.441500	0.002900
O251	O25	0.661600	0.112400	0.534520
O261	O26	0.078000	0.375500	0.701670
O271	O27	0.859500	0.277800	0.632670
C91	C9	0.967200	0.398500	0.667770
H91	H9	0.966600	0.525100	0.669570
O281	O28	0.549200	0.661600	0.701180
O291	O29	0.702500	0.078000	0.868330
O301	O30	0.581700	0.859500	0.799330
C101	C10	0.568700	0.967200	0.834430
H101	H10	0.441500	0.966600	0.836230
O311	O31	0.112400	0.450800	0.367850
O321	O32	0.375500	0.297500	0.535000
O331	O33	0.277800	0.418300	0.466000
C111	C11	0.398500	0.431300	0.501100
H111	H11	0.525100	0.558500	0.502900
O341	O34	0.338400	0.887600	0.034520
O351	O35	0.922000	0.624500	0.201670
O361	O36	0.140500	0.722200	0.132670
C121	C12	0.032800	0.601500	0.167770
H121	H12	0.033400	0.474900	0.169570
Cu11	Cu1	0.364800	0.682400	0.083330
Cu21	Cu2	0.317600	0.682400	0.416670
Cu31	Cu3	0.317600	0.635200	0.750000
Cu41	Cu4	0.635200	0.317600	0.583330
Cu51	Cu5	0.682400	0.317600	0.916670
Cu61	Cu6	0.682400	0.364800	0.250000
C131	C13	0.473000	0.473000	0.166670
H131	H13	0.600100	0.600100	0.166670
C141	C14	0.527000	0.000000	0.500000
H141	H14	0.399900	0.000000	0.500000
C151	C15	0.000000	0.527000	0.833330
H151	H15	0.000000	0.399900	0.833330
C161	C16	0.527000	0.527000	0.666670
H161	H16	0.399900	0.399900	0.666670
C171	C17	0.473000	0.000000	0.000000
H171	H17	0.600100	0.000000	0.000000
C181	C18	0.000000	0.473000	0.333330
H181	H18	0.000000	0.600100	0.333330
