data_RONCIG_clean_PM
_symmetry_space_group_name_H-M	'P1'
_cell_length_a	14.690000
_cell_length_b	15.126000
_cell_length_c	15.126000
_cell_angle_alpha	120.000000
_cell_angle_beta	90.000000
_cell_angle_gamma	90.000000
_symmetry_Int_Tables_number 1

loop_
_symmetry_equiv_pos_as_xyz
'x,y,z'

loop_
_atom_site_label
_atom_site_type_symbol
_atom_site_fract_x
_atom_site_fract_y
_atom_site_fract_z
Gd11	Gd1	0.750000	0.333330	0.666660
Gd21	Gd2	0.750000	0.666670	0.333340
Gd31	Gd3	0.250000	0.666670	0.333340
Gd41	Gd4	0.250000	0.333330	0.666660
Cu11	Cu1	0.500000	0.500000	0.500000
Cu21	Cu2	0.500000	0.000000	0.500000
Cu31	Cu3	0.500000	0.500000	0.000000
Cu41	Cu4	0.000000	0.000000	0.500000
Cu51	Cu5	0.000000	0.500000	0.500000
Cu61	Cu6	0.000000	0.500000	0.000000
C11	C1	0.700500	0.268400	0.414700
C21	C2	0.639600	0.356600	0.486300
C31	C3	0.700500	0.146300	0.731600
C41	C4	0.639600	0.129700	0.643400
C51	C5	0.700500	0.585300	0.853700
C61	C6	0.639600	0.513700	0.870300
C71	C7	0.700500	0.731600	0.585300
C81	C8	0.639600	0.643400	0.513700
C91	C9	0.700500	0.853700	0.268400
C101	C10	0.639600	0.870300	0.356600
C111	C11	0.700500	0.414700	0.146300
C121	C12	0.639600	0.486300	0.129700
C131	C13	0.799500	0.853700	0.585300
C141	C14	0.860400	0.870300	0.513700
C151	C15	0.799500	0.414700	0.268400
C161	C16	0.860400	0.486300	0.356600
C171	C17	0.799500	0.731600	0.146300
C181	C18	0.860400	0.643400	0.129700
C191	C19	0.799500	0.146300	0.414700
C201	C20	0.860400	0.129700	0.486300
C211	C21	0.799500	0.585300	0.731600
C221	C22	0.860400	0.513700	0.643400
C231	C23	0.799500	0.268400	0.853700
C241	C24	0.860400	0.356600	0.870300
C251	C25	0.299500	0.731600	0.585300
C261	C26	0.360400	0.643400	0.513700
C271	C27	0.299500	0.853700	0.268400
C281	C28	0.360400	0.870300	0.356600
C291	C29	0.299500	0.414700	0.146300
C301	C30	0.360400	0.486300	0.129700
C311	C31	0.299500	0.268400	0.414700
C321	C32	0.360400	0.356600	0.486300
C331	C33	0.299500	0.146300	0.731600
C341	C34	0.360400	0.129700	0.643400
C351	C35	0.299500	0.585300	0.853700
C361	C36	0.360400	0.513700	0.870300
C371	C37	0.200500	0.146300	0.414700
C381	C38	0.139600	0.129700	0.486300
C391	C39	0.200500	0.585300	0.731600
C401	C40	0.139600	0.513700	0.643400
C411	C41	0.200500	0.268400	0.853700
C421	C42	0.139600	0.356600	0.870300
C431	C43	0.200500	0.853700	0.585300
C441	C44	0.139600	0.870300	0.513700
C451	C45	0.200500	0.414700	0.268400
C461	C46	0.139600	0.486300	0.356600
C471	C47	0.200500	0.731600	0.146300
C481	C48	0.139600	0.643400	0.129700
O11	O1	0.641600	0.385400	0.578400
O21	O2	0.593300	0.393600	0.442900
O31	O3	0.641600	0.193000	0.614600
O41	O4	0.593300	0.049300	0.606400
O51	O5	0.641600	0.421600	0.807000
O61	O6	0.593300	0.557100	0.950700
O71	O7	0.641600	0.614600	0.421600
O81	O8	0.593300	0.606400	0.557100
O91	O9	0.641600	0.807000	0.385400
O101	O10	0.593300	0.950700	0.393600
O111	O11	0.641600	0.578400	0.193000
O121	O12	0.593300	0.442900	0.049300
O131	O13	0.858400	0.807000	0.421600
O141	O14	0.906700	0.950700	0.557100
O151	O15	0.858400	0.578400	0.385400
O161	O16	0.906700	0.442900	0.393600
O171	O17	0.858400	0.614600	0.193000
O181	O18	0.906700	0.606400	0.049300
O191	O19	0.858400	0.193000	0.578400
O201	O20	0.906700	0.049300	0.442900
O211	O21	0.858400	0.421600	0.614600
O221	O22	0.906700	0.557100	0.606400
O231	O23	0.858400	0.385400	0.807000
O241	O24	0.906700	0.393600	0.950700
O251	O25	0.358400	0.614600	0.421600
O261	O26	0.406700	0.606400	0.557100
O271	O27	0.358400	0.807000	0.385400
O281	O28	0.406700	0.950700	0.393600
O291	O29	0.358400	0.578400	0.193000
O301	O30	0.406700	0.442900	0.049300
O311	O31	0.358400	0.385400	0.578400
O321	O32	0.406700	0.393600	0.442900
O331	O33	0.358400	0.193000	0.614600
O341	O34	0.406700	0.049300	0.606400
O351	O35	0.358400	0.421600	0.807000
O361	O36	0.406700	0.557100	0.950700
O371	O37	0.141600	0.193000	0.578400
O381	O38	0.093300	0.049300	0.442900
O391	O39	0.141600	0.421600	0.614600
O401	O40	0.093300	0.557100	0.606400
O411	O41	0.141600	0.385400	0.807000
O421	O42	0.093300	0.393600	0.950700
O431	O43	0.141600	0.807000	0.421600
O441	O44	0.093300	0.950700	0.557100
O451	O45	0.141600	0.578400	0.385400
O461	O46	0.093300	0.442900	0.393600
O471	O47	0.141600	0.614600	0.193000
O481	O48	0.093300	0.606400	0.049300
O491	O49	0.750000	0.237050	0.474100
O501	O50	0.750000	0.237050	0.762950
O511	O51	0.750000	0.525900	0.762950
O521	O52	0.750000	0.762950	0.525900
O531	O53	0.750000	0.762950	0.237050
O541	O54	0.750000	0.474100	0.237050
O551	O55	0.250000	0.762950	0.525900
O561	O56	0.250000	0.762950	0.237050
O571	O57	0.250000	0.474100	0.237050
O581	O58	0.250000	0.237050	0.474100
O591	O59	0.250000	0.237050	0.762950
O601	O60	0.250000	0.525900	0.762950
