data_RONSOC_clean_PM
_symmetry_space_group_name_H-M	'P1'
_cell_length_a	15.401700
_cell_length_b	15.401700
_cell_length_c	28.942100
_cell_angle_alpha	90.000000
_cell_angle_beta	90.000000
_cell_angle_gamma	90.000000
_symmetry_Int_Tables_number 1

loop_
_symmetry_equiv_pos_as_xyz
'x,y,z'

loop_
_atom_site_label
_atom_site_type_symbol
_atom_site_fract_x
_atom_site_fract_y
_atom_site_fract_z
Fe11	Fe1	0.402300	0.818720	0.050540
Fe21	Fe2	0.492060	0.049380	0.046890
P11	P1	0.322260	0.980110	0.998370
P21	P2	0.294200	0.676860	0.110510
O11	O1	0.367650	0.044050	0.031930
O21	O2	0.380530	0.965670	0.955880
O31	O3	0.306860	0.893480	0.023910
O41	O4	0.235690	0.018780	0.982570
O51	O5	0.320340	0.724770	0.066820
O61	O6	0.235780	0.735780	0.139180
O71	O7	0.238110	0.596340	0.096290
O81	O8	0.371410	0.643970	0.138170
O91	O9	0.510730	0.830230	0.930270
O101	O10	0.417940	0.759120	0.990630
O111	O11	0.492050	0.915360	0.024390
Fe31	Fe3	0.902300	0.318720	0.550540
Fe41	Fe4	0.992060	0.549380	0.546890
P31	P3	0.822260	0.480110	0.498370
P41	P4	0.794200	0.176860	0.610510
O121	O12	0.867650	0.544050	0.531930
O131	O13	0.880530	0.465670	0.455880
O141	O14	0.806860	0.393480	0.523910
O151	O15	0.735690	0.518780	0.482570
O161	O16	0.820340	0.224770	0.566820
O171	O17	0.735780	0.235780	0.639180
O181	O18	0.738110	0.096340	0.596290
O191	O19	0.871410	0.143970	0.638170
O201	O20	0.010730	0.330230	0.430270
O211	O21	0.917940	0.259120	0.490630
O221	O22	0.992050	0.415360	0.524390
Fe51	Fe5	0.097700	0.181280	0.550540
Fe61	Fe6	0.007940	0.950620	0.546890
P51	P5	0.177740	0.019890	0.498370
P61	P6	0.205800	0.323140	0.610510
O231	O23	0.132350	0.955950	0.531930
O241	O24	0.119470	0.034330	0.455880
O251	O25	0.193140	0.106520	0.523910
O261	O26	0.264310	0.981220	0.482570
O271	O27	0.179660	0.275230	0.566820
O281	O28	0.264220	0.264220	0.639180
O291	O29	0.261890	0.403660	0.596290
O301	O30	0.128590	0.356030	0.638170
O311	O31	0.989270	0.169770	0.430270
O321	O32	0.082060	0.240880	0.490630
O331	O33	0.007950	0.084640	0.524390
Fe71	Fe7	0.597700	0.681280	0.050540
Fe81	Fe8	0.507940	0.450620	0.046890
P71	P7	0.677740	0.519890	0.998370
P81	P8	0.705800	0.823140	0.110510
O341	O34	0.632350	0.455950	0.031930
O351	O35	0.619470	0.534330	0.955880
O361	O36	0.693140	0.606520	0.023910
O371	O37	0.764310	0.481220	0.982570
O381	O38	0.679660	0.775230	0.066820
O391	O39	0.764220	0.764220	0.139180
O401	O40	0.761890	0.903660	0.096290
O411	O41	0.628590	0.856030	0.138170
O421	O42	0.489270	0.669770	0.930270
O431	O43	0.582060	0.740880	0.990630
O441	O44	0.507950	0.584640	0.024390
Fe91	Fe9	0.931280	0.652300	0.300540
Fe101	Fe10	0.700620	0.742060	0.296890
P91	P9	0.769890	0.572260	0.248370
P101	P10	0.073140	0.544200	0.360510
O451	O45	0.705950	0.617650	0.281930
O461	O46	0.784330	0.630530	0.205880
O471	O47	0.856520	0.556860	0.273910
O481	O48	0.731220	0.485690	0.232570
O491	O49	0.025230	0.570340	0.316820
O501	O50	0.014220	0.485780	0.389180
O511	O51	0.153660	0.488110	0.346290
O521	O52	0.106030	0.621410	0.388170
O531	O53	0.919770	0.760730	0.180270
O541	O54	0.990880	0.667940	0.240630
O551	O55	0.834640	0.742050	0.274390
Fe111	Fe11	0.431280	0.152300	0.800540
Fe121	Fe12	0.200620	0.242060	0.796890
P111	P11	0.269890	0.072260	0.748370
P121	P12	0.573140	0.044200	0.860510
O561	O56	0.205950	0.117650	0.781930
O571	O57	0.284330	0.130530	0.705880
O581	O58	0.356520	0.056860	0.773910
O591	O59	0.231220	0.985690	0.732570
O601	O60	0.525230	0.070340	0.816820
O611	O61	0.514220	0.985780	0.889180
O621	O62	0.653660	0.988110	0.846290
O631	O63	0.606030	0.121410	0.888170
O641	O64	0.419770	0.260730	0.680270
O651	O65	0.490880	0.167940	0.740630
O661	O66	0.334640	0.242050	0.774390
Fe131	Fe13	0.568720	0.347700	0.800540
Fe141	Fe14	0.799380	0.257940	0.796890
P131	P13	0.730110	0.427740	0.748370
P141	P14	0.426860	0.455800	0.860510
O671	O67	0.794050	0.382350	0.781930
O681	O68	0.715670	0.369470	0.705880
O691	O69	0.643480	0.443140	0.773910
O701	O70	0.768780	0.514310	0.732570
O711	O71	0.474770	0.429660	0.816820
O721	O72	0.485780	0.514220	0.889180
O731	O73	0.346340	0.511890	0.846290
O741	O74	0.393970	0.378590	0.888170
O751	O75	0.580230	0.239270	0.680270
O761	O76	0.509120	0.332060	0.740630
O771	O77	0.665360	0.257950	0.774390
Fe151	Fe15	0.068720	0.847700	0.300540
Fe161	Fe16	0.299380	0.757940	0.296890
P151	P15	0.230110	0.927740	0.248370
P161	P16	0.926860	0.955800	0.360510
O781	O78	0.294050	0.882350	0.281930
O791	O79	0.215670	0.869470	0.205880
O801	O80	0.143480	0.943140	0.273910
O811	O81	0.268780	0.014310	0.232570
O821	O82	0.974770	0.929660	0.316820
O831	O83	0.985780	0.014220	0.389180
O841	O84	0.846340	0.011890	0.346290
O851	O85	0.893970	0.878590	0.388170
O861	O86	0.080230	0.739270	0.180270
O871	O87	0.009120	0.832060	0.240630
O881	O88	0.165360	0.757950	0.274390
Fe171	Fe17	0.597700	0.181280	0.949460
Fe181	Fe18	0.507940	0.950620	0.953110
P171	P17	0.677740	0.019890	0.001630
P181	P18	0.705800	0.323140	0.889490
O891	O89	0.632350	0.955950	0.968070
O901	O90	0.619470	0.034330	0.044120
O911	O91	0.693140	0.106520	0.976090
O921	O92	0.764310	0.981220	0.017430
O931	O93	0.679660	0.275230	0.933180
O941	O94	0.764220	0.264220	0.860820
O951	O95	0.761890	0.403660	0.903710
O961	O96	0.628590	0.356030	0.861830
O971	O97	0.489270	0.169770	0.069730
O981	O98	0.582060	0.240880	0.009370
O991	O99	0.507950	0.084640	0.975610
Fe191	Fe19	0.097700	0.681280	0.449460
Fe201	Fe20	0.007940	0.450620	0.453110
P191	P19	0.177740	0.519890	0.501630
P201	P20	0.205800	0.823140	0.389490
O1001	O100	0.132350	0.455950	0.468070
O1011	O101	0.119470	0.534330	0.544120
O1021	O102	0.193140	0.606520	0.476090
O1031	O103	0.264310	0.481220	0.517430
O1041	O104	0.179660	0.775230	0.433180
O1051	O105	0.264220	0.764220	0.360820
O1061	O106	0.261890	0.903660	0.403710
O1071	O107	0.128590	0.856030	0.361830
O1081	O108	0.989270	0.669770	0.569730
O1091	O109	0.082060	0.740880	0.509370
O1101	O110	0.007950	0.584640	0.475610
Fe211	Fe21	0.902300	0.818720	0.449460
Fe221	Fe22	0.992060	0.049380	0.453110
P211	P21	0.822260	0.980110	0.501630
P221	P22	0.794200	0.676860	0.389490
O1111	O111	0.867650	0.044050	0.468070
O1121	O112	0.880530	0.965670	0.544120
O1131	O113	0.806860	0.893480	0.476090
O1141	O114	0.735690	0.018780	0.517430
O1151	O115	0.820340	0.724770	0.433180
O1161	O116	0.735780	0.735780	0.360820
O1171	O117	0.738110	0.596340	0.403710
O1181	O118	0.871410	0.643970	0.361830
O1191	O119	0.010730	0.830230	0.569730
O1201	O120	0.917940	0.759120	0.509370
O1211	O121	0.992050	0.915360	0.475610
Fe231	Fe23	0.402300	0.318720	0.949460
Fe241	Fe24	0.492060	0.549380	0.953110
P231	P23	0.322260	0.480110	0.001630
P241	P24	0.294200	0.176860	0.889490
O1221	O122	0.367650	0.544050	0.968070
O1231	O123	0.380530	0.465670	0.044120
O1241	O124	0.306860	0.393480	0.976090
O1251	O125	0.235690	0.518780	0.017430
O1261	O126	0.320340	0.224770	0.933180
O1271	O127	0.235780	0.235780	0.860820
O1281	O128	0.238110	0.096340	0.903710
O1291	O129	0.371410	0.143970	0.861830
O1301	O130	0.510730	0.330230	0.069730
O1311	O131	0.417940	0.259120	0.009370
O1321	O132	0.492050	0.415360	0.975610
Fe251	Fe25	0.068720	0.347700	0.699460
Fe261	Fe26	0.299380	0.257940	0.703110
P251	P25	0.230110	0.427740	0.751630
P261	P26	0.926860	0.455800	0.639490
O1331	O133	0.294050	0.382350	0.718070
O1341	O134	0.215670	0.369470	0.794120
O1351	O135	0.143480	0.443140	0.726090
O1361	O136	0.268780	0.514310	0.767430
O1371	O137	0.974770	0.429660	0.683180
O1381	O138	0.985780	0.514220	0.610820
O1391	O139	0.846340	0.511890	0.653710
O1401	O140	0.893970	0.378590	0.611830
O1411	O141	0.080230	0.239270	0.819730
O1421	O142	0.009120	0.332060	0.759370
O1431	O143	0.165360	0.257950	0.725610
Fe271	Fe27	0.568720	0.847700	0.199460
Fe281	Fe28	0.799380	0.757940	0.203110
P271	P27	0.730110	0.927740	0.251630
P281	P28	0.426860	0.955800	0.139490
O1441	O144	0.794050	0.882350	0.218070
O1451	O145	0.715670	0.869470	0.294120
O1461	O146	0.643480	0.943140	0.226090
O1471	O147	0.768780	0.014310	0.267430
O1481	O148	0.474770	0.929660	0.183180
O1491	O149	0.485780	0.014220	0.110820
O1501	O150	0.346340	0.011890	0.153710
O1511	O151	0.393970	0.878590	0.111830
O1521	O152	0.580230	0.739270	0.319730
O1531	O153	0.509120	0.832060	0.259370
O1541	O154	0.665360	0.757950	0.225610
Fe291	Fe29	0.431280	0.652300	0.199460
Fe301	Fe30	0.200620	0.742060	0.203110
P291	P29	0.269890	0.572260	0.251630
P301	P30	0.573140	0.544200	0.139490
O1551	O155	0.205950	0.617650	0.218070
O1561	O156	0.284330	0.630530	0.294120
O1571	O157	0.356520	0.556860	0.226090
O1581	O158	0.231220	0.485690	0.267430
O1591	O159	0.525230	0.570340	0.183180
O1601	O160	0.514220	0.485780	0.110820
O1611	O161	0.653660	0.488110	0.153710
O1621	O162	0.606030	0.621410	0.111830
O1631	O163	0.419770	0.760730	0.319730
O1641	O164	0.490880	0.667940	0.259370
O1651	O165	0.334640	0.742050	0.225610
Fe311	Fe31	0.931280	0.152300	0.699460
Fe321	Fe32	0.700620	0.242060	0.703110
P311	P31	0.769890	0.072260	0.751630
P321	P32	0.073140	0.044200	0.639490
O1661	O166	0.705950	0.117650	0.718070
O1671	O167	0.784330	0.130530	0.794120
O1681	O168	0.856520	0.056860	0.726090
O1691	O169	0.731220	0.985690	0.767430
O1701	O170	0.025230	0.070340	0.683180
O1711	O171	0.014220	0.985780	0.610820
O1721	O172	0.153660	0.988110	0.653710
O1731	O173	0.106030	0.121410	0.611830
O1741	O174	0.919770	0.260730	0.819730
O1751	O175	0.990880	0.167940	0.759370
O1761	O176	0.834640	0.242050	0.725610
P331	P33	0.500000	0.750000	0.961190
O1771	O177	0.500000	0.750000	0.075450
P341	P34	0.000000	0.250000	0.461190
O1781	O178	0.000000	0.250000	0.575450
P351	P35	0.000000	0.750000	0.211190
O1791	O179	0.000000	0.750000	0.325450
P361	P36	0.500000	0.250000	0.711190
O1801	O180	0.500000	0.250000	0.825450
P371	P37	0.500000	0.250000	0.038810
O1811	O181	0.500000	0.250000	0.924550
P381	P38	0.000000	0.750000	0.538810
O1821	O182	0.000000	0.750000	0.424550
P391	P39	0.000000	0.250000	0.788810
O1831	O183	0.000000	0.250000	0.674550
P401	P40	0.500000	0.750000	0.288810
O1841	O184	0.500000	0.750000	0.174550
