data_RONZOJ_clean_PM
_symmetry_space_group_name_H-M	'P1'
_cell_length_a	12.781600
_cell_length_b	12.781600
_cell_length_c	13.062000
_cell_angle_alpha	90.000000
_cell_angle_beta	90.000000
_cell_angle_gamma	90.000000
_symmetry_Int_Tables_number 1

loop_
_symmetry_equiv_pos_as_xyz
'x,y,z'

loop_
_atom_site_label
_atom_site_type_symbol
_atom_site_fract_x
_atom_site_fract_y
_atom_site_fract_z
N11	N1	0.101900	0.585100	0.120400
C11	C1	0.157400	0.635500	0.071600
C21	C2	0.229100	0.400500	0.252500
C31	C3	0.307700	0.325200	0.251700
N21	N2	0.601900	0.085100	0.620400
C41	C4	0.657400	0.135500	0.571600
C51	C5	0.729100	0.900500	0.752500
C61	C6	0.807700	0.825200	0.751700
N31	N3	0.398100	0.914900	0.620400
C71	C7	0.342600	0.864500	0.571600
C81	C8	0.270900	0.099500	0.752500
C91	C9	0.192300	0.174800	0.751700
N41	N4	0.898100	0.414900	0.120400
C101	C10	0.842600	0.364500	0.071600
C111	C11	0.770900	0.599500	0.252500
C121	C12	0.692300	0.674800	0.251700
N51	N5	0.085100	0.601900	0.379600
C131	C13	0.135500	0.657400	0.428400
C141	C14	0.900500	0.729100	0.247500
C151	C15	0.825200	0.807700	0.248300
N61	N6	0.585100	0.101900	0.879600
C161	C16	0.635500	0.157400	0.928400
C171	C17	0.400500	0.229100	0.747500
C181	C18	0.325200	0.307700	0.748300
N71	N7	0.414900	0.898100	0.879600
C191	C19	0.364500	0.842600	0.928400
C201	C20	0.599500	0.770900	0.747500
C211	C21	0.674800	0.692300	0.748300
N81	N8	0.914900	0.398100	0.379600
C221	C22	0.864500	0.342600	0.428400
C231	C23	0.099500	0.270900	0.247500
C241	C24	0.174800	0.192300	0.248300
Cd11	Cd1	0.000000	0.500000	0.250000
Cd21	Cd2	0.500000	0.000000	0.750000
N91	N9	0.126700	0.373300	0.250000
C251	C25	0.279600	0.220400	0.250000
N101	N10	0.373300	0.126700	0.750000
C261	C26	0.220400	0.279600	0.750000
N111	N11	0.873300	0.626700	0.250000
C271	C27	0.720400	0.779600	0.250000
N121	N12	0.626700	0.873300	0.750000
C281	C28	0.779600	0.720400	0.750000
Ag11	Ag1	0.258550	0.741450	0.000000
Ag21	Ag2	0.758550	0.241450	0.500000
Ag31	Ag3	0.241450	0.758550	0.500000
Ag41	Ag4	0.741450	0.258550	0.000000
N131	N13	0.414900	0.601900	0.370400
C291	C29	0.364500	0.657400	0.321600
C301	C30	0.599500	0.729100	0.502500
C311	C31	0.674800	0.807700	0.501700
N141	N14	0.914900	0.101900	0.870400
C321	C32	0.864500	0.157400	0.821600
C331	C33	0.099500	0.229100	0.002500
C341	C34	0.174800	0.307700	0.001700
N151	N15	0.085100	0.898100	0.870400
C351	C35	0.135500	0.842600	0.821600
C361	C36	0.900500	0.770900	0.002500
C371	C37	0.825200	0.692300	0.001700
N161	N16	0.585100	0.398100	0.370400
C381	C38	0.635500	0.342600	0.321600
C391	C39	0.400500	0.270900	0.502500
C401	C40	0.325200	0.192300	0.501700
N171	N17	0.398100	0.585100	0.629600
C411	C41	0.342600	0.635500	0.678400
C421	C42	0.270900	0.400500	0.497500
C431	C43	0.192300	0.325200	0.498300
N181	N18	0.898100	0.085100	0.129600
C441	C44	0.842600	0.135500	0.178400
C451	C45	0.770900	0.900500	0.997500
C461	C46	0.692300	0.825200	0.998300
N191	N19	0.101900	0.914900	0.129600
C471	C47	0.157400	0.864500	0.178400
C481	C48	0.229100	0.099500	0.997500
C491	C49	0.307700	0.174800	0.998300
N201	N20	0.601900	0.414900	0.629600
C501	C50	0.657400	0.364500	0.678400
C511	C51	0.729100	0.599500	0.497500
C521	C52	0.807700	0.674800	0.498300
Cd31	Cd3	0.500000	0.500000	0.500000
Cd41	Cd4	0.000000	0.000000	0.000000
N211	N21	0.626700	0.626700	0.500000
C531	C53	0.779600	0.779600	0.500000
N221	N22	0.873300	0.873300	0.000000
C541	C54	0.720400	0.720400	0.000000
N231	N23	0.373300	0.373300	0.500000
C551	C55	0.220400	0.220400	0.500000
N241	N24	0.126700	0.126700	0.000000
C561	C56	0.279600	0.279600	0.000000
Ag51	Ag5	0.258550	0.758550	0.250000
Ag61	Ag6	0.758550	0.258550	0.750000
Ag71	Ag7	0.241450	0.741450	0.750000
Ag81	Ag8	0.741450	0.241450	0.250000
