data_ROPVIB_clean_PM
_symmetry_space_group_name_H-M	'P1'
_cell_length_a	12.535000
_cell_length_b	29.517000
_cell_length_c	14.704000
_cell_angle_alpha	90.000000
_cell_angle_beta	93.950000
_cell_angle_gamma	90.000000
_symmetry_Int_Tables_number 1

loop_
_symmetry_equiv_pos_as_xyz
'x,y,z'

loop_
_atom_site_label
_atom_site_type_symbol
_atom_site_fract_x
_atom_site_fract_y
_atom_site_fract_z
Ag11	Ag1	0.452000	0.772370	0.623300
Ag21	Ag2	0.958000	0.753940	0.682800
Ag31	Ag3	0.735400	0.905570	0.432300
Ag41	Ag4	0.709000	0.603710	0.450400
Ag51	Ag5	0.261400	0.913560	0.266340
Ag61	Ag6	0.210000	0.927680	0.824450
N11	N1	0.455700	0.828600	0.512300
C11	C1	0.545300	0.852800	0.512600
H11	H1	0.593500	0.850700	0.563300
N21	N2	0.569600	0.879400	0.446100
C21	C2	0.496700	0.885700	0.378200
H21	H2	0.513200	0.904900	0.331000
N31	N3	0.401700	0.866400	0.373600
C31	C3	0.390100	0.836300	0.437600
H31	H3	0.329500	0.818100	0.430500
N41	N4	0.310600	0.729800	0.663100
C41	C4	0.211500	0.746000	0.658500
H41	H4	0.200500	0.775500	0.637400
N51	N5	0.128700	0.723200	0.681600
C51	C5	0.146200	0.680500	0.708600
H51	H5	0.087200	0.663800	0.724100
N61	N6	0.240300	0.840100	0.215200
C61	C6	0.320900	0.687800	0.691800
H61	H6	0.389700	0.675900	0.696600
N71	N7	0.606500	0.729400	0.603600
C71	C7	0.610100	0.692900	0.556500
H71	H7	0.545600	0.682100	0.529900
N81	N8	0.699100	0.668600	0.542000
C81	C8	0.790100	0.688400	0.576700
H81	H8	0.854300	0.674600	0.564700
N91	N9	0.796100	0.725500	0.625800
C91	C9	0.702300	0.746200	0.635300
H91	H9	0.703300	0.773800	0.665700
N101	N10	0.963900	0.816900	0.778200
C101	C10	0.895600	0.825500	0.844000
H101	H10	0.841200	0.804500	0.850500
N111	N11	0.899000	0.859900	0.898500
C111	C11	0.979600	0.887000	0.887900
H111	H11	0.985200	0.912000	0.926600
N121	N12	0.055400	0.883200	0.828100
C121	C12	0.040700	0.849200	0.773400
H121	H12	0.086700	0.846600	0.726600
N131	N13	0.878100	0.851700	0.442000
C131	C13	0.908000	0.829600	0.516700
H131	H13	0.885200	0.840900	0.571200
N141	N14	0.967200	0.793000	0.521200
C141	C14	0.999000	0.777700	0.437500
H141	H14	0.045000	0.753000	0.437800
N151	N15	0.969300	0.795200	0.360900
C151	C15	0.911100	0.834200	0.362900
H151	H15	0.893400	0.849300	0.308400
N161	N16	0.747500	0.527700	0.445600
C161	C16	0.758700	0.505700	0.525100
H161	H16	0.760900	0.522400	0.578700
N171	N17	0.232800	0.960300	0.969400
C171	C17	0.233100	0.938700	0.049100
H171	H17	0.222400	0.907600	0.047400
N181	N18	0.246900	0.957600	0.129500
C181	C18	0.742600	0.502300	0.370100
H181	H18	0.731200	0.516800	0.314200
N191	N19	0.137400	0.978500	0.720000
C191	C19	0.195400	0.009300	0.679800
H191	H19	0.267900	0.010000	0.697700
N201	N20	0.838600	0.961400	0.382400
C201	C20	0.937000	0.965200	0.408500
H201	H20	0.962600	0.945800	0.454900
N211	N21	0.007300	0.993900	0.376400
C211	C21	0.036600	0.979000	0.687200
H211	H21	0.991500	0.957800	0.711600
N221	N22	0.375500	0.898100	0.800300
C221	C22	0.385400	0.864500	0.738700
H221	H22	0.329700	0.860600	0.694200
N231	N23	0.467000	0.837200	0.737200
C231	C23	0.544300	0.845500	0.799000
H231	H23	0.603300	0.826300	0.800600
N241	N24	0.546400	0.621800	0.358600
C241	C24	0.458200	0.903700	0.857300
H241	H24	0.456000	0.926900	0.899900
Ag71	Ag7	0.548000	0.272370	0.876700
Ag81	Ag8	0.042000	0.253940	0.817200
Ag91	Ag9	0.264600	0.405570	0.067700
Ag101	Ag10	0.291000	0.103710	0.049600
Ag111	Ag11	0.738600	0.413560	0.233660
Ag121	Ag12	0.790000	0.427680	0.675550
N251	N25	0.544300	0.328600	0.987700
C251	C25	0.454700	0.352800	0.987400
H251	H25	0.406500	0.350700	0.936700
N261	N26	0.430400	0.379400	0.053900
C261	C26	0.503300	0.385700	0.121800
H261	H26	0.486800	0.404900	0.169000
N271	N27	0.598300	0.366400	0.126400
C271	C27	0.609900	0.336300	0.062400
H271	H27	0.670500	0.318100	0.069500
N281	N28	0.689400	0.229800	0.836900
C281	C28	0.788500	0.246000	0.841500
H281	H28	0.799500	0.275500	0.862600
N291	N29	0.871300	0.223200	0.818400
C291	C29	0.853800	0.180500	0.791400
H291	H29	0.912800	0.163800	0.775900
N301	N30	0.759700	0.340100	0.284800
C301	C30	0.679100	0.187800	0.808200
H301	H30	0.610300	0.175900	0.803400
N311	N31	0.393500	0.229400	0.896400
C311	C31	0.389900	0.192900	0.943500
H311	H31	0.454400	0.182100	0.970100
N321	N32	0.300900	0.168600	0.958000
C321	C32	0.209900	0.188400	0.923300
H321	H32	0.145700	0.174600	0.935300
N331	N33	0.203900	0.225500	0.874200
C331	C33	0.297700	0.246200	0.864700
H331	H33	0.296700	0.273800	0.834300
N341	N34	0.036100	0.316900	0.721800
C341	C34	0.104400	0.325500	0.656000
H341	H34	0.158800	0.304500	0.649500
N351	N35	0.101000	0.359900	0.601500
C351	C35	0.020400	0.387000	0.612100
H351	H35	0.014800	0.412000	0.573400
N361	N36	0.944600	0.383200	0.671900
C361	C36	0.959300	0.349200	0.726600
H361	H36	0.913300	0.346600	0.773400
N371	N37	0.121900	0.351700	0.058000
C371	C37	0.092000	0.329600	0.983300
H371	H37	0.114800	0.340900	0.928800
N381	N38	0.032800	0.293000	0.978800
C381	C38	0.001000	0.277700	0.062500
H381	H38	0.955000	0.253000	0.062200
N391	N39	0.030700	0.295200	0.139100
C391	C39	0.088900	0.334200	0.137100
H391	H39	0.106600	0.349300	0.191600
N401	N40	0.252500	0.027700	0.054400
C401	C40	0.241300	0.005700	0.974900
H401	H40	0.239100	0.022400	0.921300
N411	N41	0.767200	0.460300	0.530600
C411	C41	0.766900	0.438700	0.450900
H411	H41	0.777600	0.407600	0.452600
N421	N42	0.753100	0.457600	0.370500
C421	C42	0.257400	0.002300	0.129900
H421	H42	0.268800	0.016800	0.185800
N431	N43	0.862600	0.478500	0.780000
C431	C43	0.804600	0.509300	0.820200
H431	H43	0.732100	0.510000	0.802300
N441	N44	0.161400	0.461400	0.117600
C441	C44	0.063000	0.465200	0.091500
H441	H44	0.037400	0.445800	0.045100
N451	N45	0.992700	0.493900	0.123600
C451	C45	0.963400	0.479000	0.812800
H451	H45	0.008500	0.457800	0.788400
N461	N46	0.624500	0.398100	0.699700
C461	C46	0.614600	0.364500	0.761300
H461	H46	0.670300	0.360600	0.805800
N471	N47	0.533000	0.337200	0.762800
C471	C47	0.455700	0.345500	0.701000
H471	H47	0.396700	0.326300	0.699400
N481	N48	0.453600	0.121800	0.141400
C481	C48	0.541800	0.403700	0.642700
H481	H48	0.544000	0.426900	0.600100
Ag131	Ag13	0.548000	0.227630	0.376700
Ag141	Ag14	0.042000	0.246060	0.317200
Ag151	Ag15	0.264600	0.094430	0.567700
Ag161	Ag16	0.291000	0.396290	0.549600
Ag171	Ag17	0.738600	0.086440	0.733660
Ag181	Ag18	0.790000	0.072320	0.175550
N491	N49	0.544300	0.171400	0.487700
C491	C49	0.454700	0.147200	0.487400
H491	H49	0.406500	0.149300	0.436700
N501	N50	0.430400	0.120600	0.553900
C501	C50	0.503300	0.114300	0.621800
H501	H50	0.486800	0.095100	0.669000
N511	N51	0.598300	0.133600	0.626400
C511	C51	0.609900	0.163700	0.562400
H511	H51	0.670500	0.181900	0.569500
N521	N52	0.689400	0.270200	0.336900
C521	C52	0.788500	0.254000	0.341500
H521	H52	0.799500	0.224500	0.362600
N531	N53	0.871300	0.276800	0.318400
C531	C53	0.853800	0.319500	0.291400
H531	H53	0.912800	0.336200	0.275900
N541	N54	0.759700	0.159900	0.784800
C541	C54	0.679100	0.312200	0.308200
H541	H54	0.610300	0.324100	0.303400
N551	N55	0.393500	0.270600	0.396400
C551	C55	0.389900	0.307100	0.443500
H551	H55	0.454400	0.317900	0.470100
N561	N56	0.300900	0.331400	0.458000
C561	C56	0.209900	0.311600	0.423300
H561	H56	0.145700	0.325400	0.435300
N571	N57	0.203900	0.274500	0.374200
C571	C57	0.297700	0.253800	0.364700
H571	H57	0.296700	0.226200	0.334300
N581	N58	0.036100	0.183100	0.221800
C581	C58	0.104400	0.174500	0.156000
H581	H58	0.158800	0.195500	0.149500
N591	N59	0.101000	0.140100	0.101500
C591	C59	0.020400	0.113000	0.112100
H591	H59	0.014800	0.088000	0.073400
N601	N60	0.944600	0.116800	0.171900
C601	C60	0.959300	0.150800	0.226600
H601	H60	0.913300	0.153400	0.273400
N611	N61	0.121900	0.148300	0.558000
C611	C61	0.092000	0.170400	0.483300
H611	H61	0.114800	0.159100	0.428800
N621	N62	0.032800	0.207000	0.478800
C621	C62	0.001000	0.222300	0.562500
H621	H62	0.955000	0.247000	0.562200
N631	N63	0.030700	0.204800	0.639100
C631	C63	0.088900	0.165800	0.637100
H631	H63	0.106600	0.150700	0.691600
N641	N64	0.252500	0.472300	0.554400
C641	C64	0.241300	0.494300	0.474900
H641	H64	0.239100	0.477600	0.421300
N651	N65	0.767200	0.039700	0.030600
C651	C65	0.766900	0.061300	0.950900
H651	H65	0.777600	0.092400	0.952600
N661	N66	0.753100	0.042400	0.870500
C661	C66	0.257400	0.497700	0.629900
H661	H66	0.268800	0.483200	0.685800
N671	N67	0.862600	0.021500	0.280000
C671	C67	0.804600	0.990700	0.320200
H671	H67	0.732100	0.990000	0.302300
N681	N68	0.161400	0.038600	0.617600
C681	C68	0.063000	0.034800	0.591500
H681	H68	0.037400	0.054200	0.545100
N691	N69	0.992700	0.006100	0.623600
C691	C69	0.963400	0.021000	0.312800
H691	H69	0.008500	0.042200	0.288400
N701	N70	0.624500	0.101900	0.199700
C701	C70	0.614600	0.135500	0.261300
H701	H70	0.670300	0.139400	0.305800
N711	N71	0.533000	0.162800	0.262800
C711	C71	0.455700	0.154500	0.201000
H711	H71	0.396700	0.173700	0.199400
N721	N72	0.453600	0.378200	0.641400
C721	C72	0.541800	0.096300	0.142700
H721	H72	0.544000	0.073100	0.100100
Ag191	Ag19	0.452000	0.727630	0.123300
Ag201	Ag20	0.958000	0.746060	0.182800
Ag211	Ag21	0.735400	0.594430	0.932300
Ag221	Ag22	0.709000	0.896290	0.950400
Ag231	Ag23	0.261400	0.586440	0.766340
Ag241	Ag24	0.210000	0.572320	0.324450
N731	N73	0.455700	0.671400	0.012300
C731	C73	0.545300	0.647200	0.012600
H731	H73	0.593500	0.649300	0.063300
N741	N74	0.569600	0.620600	0.946100
C741	C74	0.496700	0.614300	0.878200
H741	H74	0.513200	0.595100	0.831000
N751	N75	0.401700	0.633600	0.873600
C751	C75	0.390100	0.663700	0.937600
H751	H75	0.329500	0.681900	0.930500
N761	N76	0.310600	0.770200	0.163100
C761	C76	0.211500	0.754000	0.158500
H761	H76	0.200500	0.724500	0.137400
N771	N77	0.128700	0.776800	0.181600
C771	C77	0.146200	0.819500	0.208600
H771	H77	0.087200	0.836200	0.224100
N781	N78	0.240300	0.659900	0.715200
C781	C78	0.320900	0.812200	0.191800
H781	H78	0.389700	0.824100	0.196600
N791	N79	0.606500	0.770600	0.103600
C791	C79	0.610100	0.807100	0.056500
H791	H79	0.545600	0.817900	0.029900
N801	N80	0.699100	0.831400	0.042000
C801	C80	0.790100	0.811600	0.076700
H801	H80	0.854300	0.825400	0.064700
N811	N81	0.796100	0.774500	0.125800
C811	C81	0.702300	0.753800	0.135300
H811	H81	0.703300	0.726200	0.165700
N821	N82	0.963900	0.683100	0.278200
C821	C82	0.895600	0.674500	0.344000
H821	H82	0.841200	0.695500	0.350500
N831	N83	0.899000	0.640100	0.398500
C831	C83	0.979600	0.613000	0.387900
H831	H83	0.985200	0.588000	0.426600
N841	N84	0.055400	0.616800	0.328100
C841	C84	0.040700	0.650800	0.273400
H841	H84	0.086700	0.653400	0.226600
N851	N85	0.878100	0.648300	0.942000
C851	C85	0.908000	0.670400	0.016700
H851	H85	0.885200	0.659100	0.071200
N861	N86	0.967200	0.707000	0.021200
C861	C86	0.999000	0.722300	0.937500
H861	H86	0.045000	0.747000	0.937800
N871	N87	0.969300	0.704800	0.860900
C871	C87	0.911100	0.665800	0.862900
H871	H87	0.893400	0.650700	0.808400
N881	N88	0.747500	0.972300	0.945600
C881	C88	0.758700	0.994300	0.025100
H881	H88	0.760900	0.977600	0.078700
N891	N89	0.232800	0.539700	0.469400
C891	C89	0.233100	0.561300	0.549100
H891	H89	0.222400	0.592400	0.547400
N901	N90	0.246900	0.542400	0.629500
C901	C90	0.742600	0.997700	0.870100
H901	H90	0.731200	0.983200	0.814200
N911	N91	0.137400	0.521500	0.220000
C911	C91	0.195400	0.490700	0.179800
H911	H91	0.267900	0.490000	0.197700
N921	N92	0.838600	0.538600	0.882400
C921	C92	0.937000	0.534800	0.908500
H921	H92	0.962600	0.554200	0.954900
N931	N93	0.007300	0.506100	0.876400
C931	C93	0.036600	0.521000	0.187200
H931	H93	0.991500	0.542200	0.211600
N941	N94	0.375500	0.601900	0.300300
C941	C94	0.385400	0.635500	0.238700
H941	H94	0.329700	0.639400	0.194200
N951	N95	0.467000	0.662800	0.237200
C951	C95	0.544300	0.654500	0.299000
H951	H95	0.603300	0.673700	0.300600
N961	N96	0.546400	0.878200	0.858600
C961	C96	0.458200	0.596300	0.357300
H961	H96	0.456000	0.573100	0.399900
