data_ROQFUA04_clean_PM
_symmetry_space_group_name_H-M	'P1'
_cell_length_a	13.223500
_cell_length_b	13.223500
_cell_length_c	13.223500
_cell_angle_alpha	90.000000
_cell_angle_beta	90.000000
_cell_angle_gamma	90.000000
_symmetry_Int_Tables_number 1

loop_
_symmetry_equiv_pos_as_xyz
'x,y,z'

loop_
_atom_site_label
_atom_site_type_symbol
_atom_site_fract_x
_atom_site_fract_y
_atom_site_fract_z
N11	N1	0.637120	0.936570	0.955440
N21	N2	0.715520	0.980610	0.961620
N31	N3	0.792470	0.020800	0.965700
N41	N4	0.862880	0.063430	0.455440
N51	N5	0.784480	0.019390	0.461620
N61	N6	0.707530	0.979200	0.465700
N71	N7	0.362880	0.436570	0.544560
N81	N8	0.284480	0.480610	0.538380
N91	N9	0.207530	0.520800	0.534300
N101	N10	0.137120	0.563430	0.044560
N111	N11	0.215520	0.519390	0.038380
N121	N12	0.292470	0.479200	0.034300
N131	N13	0.955440	0.637120	0.936570
N141	N14	0.961620	0.715520	0.980610
N151	N15	0.965700	0.792470	0.020800
N161	N16	0.455440	0.862880	0.063430
N171	N17	0.461620	0.784480	0.019390
N181	N18	0.465700	0.707530	0.979200
N191	N19	0.544560	0.362880	0.436570
N201	N20	0.538380	0.284480	0.480610
N211	N21	0.534300	0.207530	0.520800
N221	N22	0.044560	0.137120	0.563430
N231	N23	0.038380	0.215520	0.519390
N241	N24	0.034300	0.292470	0.479200
N251	N25	0.936570	0.955440	0.637120
N261	N26	0.980610	0.961620	0.715520
N271	N27	0.020800	0.965700	0.792470
N281	N28	0.063430	0.455440	0.862880
N291	N29	0.019390	0.461620	0.784480
N301	N30	0.979200	0.465700	0.707530
N311	N31	0.436570	0.544560	0.362880
N321	N32	0.480610	0.538380	0.284480
N331	N33	0.520800	0.534300	0.207530
N341	N34	0.563430	0.044560	0.137120
N351	N35	0.519390	0.038380	0.215520
N361	N36	0.479200	0.034300	0.292470
N371	N37	0.362880	0.063430	0.044560
N381	N38	0.284480	0.019390	0.038380
N391	N39	0.207530	0.979200	0.034300
N401	N40	0.137120	0.936570	0.544560
N411	N41	0.215520	0.980610	0.538380
N421	N42	0.292470	0.020800	0.534300
N431	N43	0.637120	0.563430	0.455440
N441	N44	0.715520	0.519390	0.461620
N451	N45	0.792470	0.479200	0.465700
N461	N46	0.862880	0.436570	0.955440
N471	N47	0.784480	0.480610	0.961620
N481	N48	0.707530	0.520800	0.965700
N491	N49	0.044560	0.362880	0.063430
N501	N50	0.038380	0.284480	0.019390
N511	N51	0.034300	0.207530	0.979200
N521	N52	0.544560	0.137120	0.936570
N531	N53	0.538380	0.215520	0.980610
N541	N54	0.534300	0.292470	0.020800
N551	N55	0.455440	0.637120	0.563430
N561	N56	0.461620	0.715520	0.519390
N571	N57	0.465700	0.792470	0.479200
N581	N58	0.955440	0.862880	0.436570
N591	N59	0.961620	0.784480	0.480610
N601	N60	0.965700	0.707530	0.520800
N611	N61	0.063430	0.044560	0.362880
N621	N62	0.019390	0.038380	0.284480
N631	N63	0.979200	0.034300	0.207530
N641	N64	0.936570	0.544560	0.137120
N651	N65	0.980610	0.538380	0.215520
N661	N66	0.020800	0.534300	0.292470
N671	N67	0.563430	0.455440	0.637120
N681	N68	0.519390	0.461620	0.715520
N691	N69	0.479200	0.465700	0.792470
N701	N70	0.436570	0.955440	0.862880
N711	N71	0.480610	0.961620	0.784480
N721	N72	0.520800	0.965700	0.707530
Fe11	Fe1	0.500000	0.000000	0.000000
Fe21	Fe2	0.000000	0.000000	0.500000
Fe31	Fe3	0.500000	0.500000	0.500000
Fe41	Fe4	0.000000	0.500000	0.000000
K11	K1	0.000000	0.000000	0.000000
K21	K2	0.500000	0.000000	0.500000
K31	K3	0.000000	0.500000	0.500000
K41	K4	0.500000	0.500000	0.000000
