data_ROQFUA02_clean_PM
_symmetry_space_group_name_H-M	'P1'
_cell_length_a	13.167600
_cell_length_b	13.167600
_cell_length_c	13.167600
_cell_angle_alpha	90.000000
_cell_angle_beta	90.000000
_cell_angle_gamma	90.000000
_symmetry_Int_Tables_number 1

loop_
_symmetry_equiv_pos_as_xyz
'x,y,z'

loop_
_atom_site_label
_atom_site_type_symbol
_atom_site_fract_x
_atom_site_fract_y
_atom_site_fract_z
N11	N1	0.636960	0.935170	0.954720
N21	N2	0.715360	0.979920	0.960060
N31	N3	0.792650	0.021430	0.963750
N41	N4	0.863040	0.064830	0.454720
N51	N5	0.784640	0.020080	0.460060
N61	N6	0.707350	0.978570	0.463750
N71	N7	0.363040	0.435170	0.545280
N81	N8	0.284640	0.479920	0.539940
N91	N9	0.207350	0.521430	0.536250
N101	N10	0.136960	0.564830	0.045280
N111	N11	0.215360	0.520080	0.039940
N121	N12	0.292650	0.478570	0.036250
N131	N13	0.954720	0.636960	0.935170
N141	N14	0.960060	0.715360	0.979920
N151	N15	0.963750	0.792650	0.021430
N161	N16	0.454720	0.863040	0.064830
N171	N17	0.460060	0.784640	0.020080
N181	N18	0.463750	0.707350	0.978570
N191	N19	0.545280	0.363040	0.435170
N201	N20	0.539940	0.284640	0.479920
N211	N21	0.536250	0.207350	0.521430
N221	N22	0.045280	0.136960	0.564830
N231	N23	0.039940	0.215360	0.520080
N241	N24	0.036250	0.292650	0.478570
N251	N25	0.935170	0.954720	0.636960
N261	N26	0.979920	0.960060	0.715360
N271	N27	0.021430	0.963750	0.792650
N281	N28	0.064830	0.454720	0.863040
N291	N29	0.020080	0.460060	0.784640
N301	N30	0.978570	0.463750	0.707350
N311	N31	0.435170	0.545280	0.363040
N321	N32	0.479920	0.539940	0.284640
N331	N33	0.521430	0.536250	0.207350
N341	N34	0.564830	0.045280	0.136960
N351	N35	0.520080	0.039940	0.215360
N361	N36	0.478570	0.036250	0.292650
N371	N37	0.363040	0.064830	0.045280
N381	N38	0.284640	0.020080	0.039940
N391	N39	0.207350	0.978570	0.036250
N401	N40	0.136960	0.935170	0.545280
N411	N41	0.215360	0.979920	0.539940
N421	N42	0.292650	0.021430	0.536250
N431	N43	0.636960	0.564830	0.454720
N441	N44	0.715360	0.520080	0.460060
N451	N45	0.792650	0.478570	0.463750
N461	N46	0.863040	0.435170	0.954720
N471	N47	0.784640	0.479920	0.960060
N481	N48	0.707350	0.521430	0.963750
N491	N49	0.045280	0.363040	0.064830
N501	N50	0.039940	0.284640	0.020080
N511	N51	0.036250	0.207350	0.978570
N521	N52	0.545280	0.136960	0.935170
N531	N53	0.539940	0.215360	0.979920
N541	N54	0.536250	0.292650	0.021430
N551	N55	0.454720	0.636960	0.564830
N561	N56	0.460060	0.715360	0.520080
N571	N57	0.463750	0.792650	0.478570
N581	N58	0.954720	0.863040	0.435170
N591	N59	0.960060	0.784640	0.479920
N601	N60	0.963750	0.707350	0.521430
N611	N61	0.064830	0.045280	0.363040
N621	N62	0.020080	0.039940	0.284640
N631	N63	0.978570	0.036250	0.207350
N641	N64	0.935170	0.545280	0.136960
N651	N65	0.979920	0.539940	0.215360
N661	N66	0.021430	0.536250	0.292650
N671	N67	0.564830	0.454720	0.636960
N681	N68	0.520080	0.460060	0.715360
N691	N69	0.478570	0.463750	0.792650
N701	N70	0.435170	0.954720	0.863040
N711	N71	0.479920	0.960060	0.784640
N721	N72	0.521430	0.963750	0.707350
Fe11	Fe1	0.500000	0.000000	0.000000
Fe21	Fe2	0.000000	0.000000	0.500000
Fe31	Fe3	0.500000	0.500000	0.500000
Fe41	Fe4	0.000000	0.500000	0.000000
K11	K1	0.000000	0.000000	0.000000
K21	K2	0.500000	0.000000	0.500000
K31	K3	0.000000	0.500000	0.500000
K41	K4	0.500000	0.500000	0.000000
