data_ROQFUA01_clean_PM
_symmetry_space_group_name_H-M	'P1'
_cell_length_a	13.131900
_cell_length_b	13.131900
_cell_length_c	13.131900
_cell_angle_alpha	90.000000
_cell_angle_beta	90.000000
_cell_angle_gamma	90.000000
_symmetry_Int_Tables_number 1

loop_
_symmetry_equiv_pos_as_xyz
'x,y,z'

loop_
_atom_site_label
_atom_site_type_symbol
_atom_site_fract_x
_atom_site_fract_y
_atom_site_fract_z
N11	N1	0.636780	0.934130	0.954340
N21	N2	0.715350	0.979500	0.959180
N31	N3	0.792750	0.021550	0.962820
N41	N4	0.863220	0.065870	0.454340
N51	N5	0.784650	0.020500	0.459180
N61	N6	0.707250	0.978450	0.462820
N71	N7	0.363220	0.434130	0.545660
N81	N8	0.284650	0.479500	0.540820
N91	N9	0.207250	0.521550	0.537180
N101	N10	0.136780	0.565870	0.045660
N111	N11	0.215350	0.520500	0.040820
N121	N12	0.292750	0.478450	0.037180
N131	N13	0.954340	0.636780	0.934130
N141	N14	0.959180	0.715350	0.979500
N151	N15	0.962820	0.792750	0.021550
N161	N16	0.454340	0.863220	0.065870
N171	N17	0.459180	0.784650	0.020500
N181	N18	0.462820	0.707250	0.978450
N191	N19	0.545660	0.363220	0.434130
N201	N20	0.540820	0.284650	0.479500
N211	N21	0.537180	0.207250	0.521550
N221	N22	0.045660	0.136780	0.565870
N231	N23	0.040820	0.215350	0.520500
N241	N24	0.037180	0.292750	0.478450
N251	N25	0.934130	0.954340	0.636780
N261	N26	0.979500	0.959180	0.715350
N271	N27	0.021550	0.962820	0.792750
N281	N28	0.065870	0.454340	0.863220
N291	N29	0.020500	0.459180	0.784650
N301	N30	0.978450	0.462820	0.707250
N311	N31	0.434130	0.545660	0.363220
N321	N32	0.479500	0.540820	0.284650
N331	N33	0.521550	0.537180	0.207250
N341	N34	0.565870	0.045660	0.136780
N351	N35	0.520500	0.040820	0.215350
N361	N36	0.478450	0.037180	0.292750
N371	N37	0.363220	0.065870	0.045660
N381	N38	0.284650	0.020500	0.040820
N391	N39	0.207250	0.978450	0.037180
N401	N40	0.136780	0.934130	0.545660
N411	N41	0.215350	0.979500	0.540820
N421	N42	0.292750	0.021550	0.537180
N431	N43	0.636780	0.565870	0.454340
N441	N44	0.715350	0.520500	0.459180
N451	N45	0.792750	0.478450	0.462820
N461	N46	0.863220	0.434130	0.954340
N471	N47	0.784650	0.479500	0.959180
N481	N48	0.707250	0.521550	0.962820
N491	N49	0.045660	0.363220	0.065870
N501	N50	0.040820	0.284650	0.020500
N511	N51	0.037180	0.207250	0.978450
N521	N52	0.545660	0.136780	0.934130
N531	N53	0.540820	0.215350	0.979500
N541	N54	0.537180	0.292750	0.021550
N551	N55	0.454340	0.636780	0.565870
N561	N56	0.459180	0.715350	0.520500
N571	N57	0.462820	0.792750	0.478450
N581	N58	0.954340	0.863220	0.434130
N591	N59	0.959180	0.784650	0.479500
N601	N60	0.962820	0.707250	0.521550
N611	N61	0.065870	0.045660	0.363220
N621	N62	0.020500	0.040820	0.284650
N631	N63	0.978450	0.037180	0.207250
N641	N64	0.934130	0.545660	0.136780
N651	N65	0.979500	0.540820	0.215350
N661	N66	0.021550	0.537180	0.292750
N671	N67	0.565870	0.454340	0.636780
N681	N68	0.520500	0.459180	0.715350
N691	N69	0.478450	0.462820	0.792750
N701	N70	0.434130	0.954340	0.863220
N711	N71	0.479500	0.959180	0.784650
N721	N72	0.521550	0.962820	0.707250
Fe11	Fe1	0.500000	0.000000	0.000000
Fe21	Fe2	0.000000	0.000000	0.500000
Fe31	Fe3	0.500000	0.500000	0.500000
Fe41	Fe4	0.000000	0.500000	0.000000
K11	K1	0.000000	0.000000	0.000000
K21	K2	0.500000	0.000000	0.500000
K31	K3	0.000000	0.500000	0.500000
K41	K4	0.500000	0.500000	0.000000
