data_ROQMER02_clean_PM
_symmetry_space_group_name_H-M	'P1'
_cell_length_a	12.798100
_cell_length_b	12.798100
_cell_length_c	12.798100
_cell_angle_alpha	90.000000
_cell_angle_beta	90.000000
_cell_angle_gamma	90.000000
_symmetry_Int_Tables_number 1

loop_
_symmetry_equiv_pos_as_xyz
'x,y,z'

loop_
_atom_site_label
_atom_site_type_symbol
_atom_site_fract_x
_atom_site_fract_y
_atom_site_fract_z
N11	N1	0.060060	0.043280	0.358920
N21	N2	0.019400	0.034000	0.276000
N31	N3	0.983400	0.028400	0.193320
N41	N4	0.439940	0.956720	0.858920
N51	N5	0.480600	0.966000	0.776000
N61	N6	0.516600	0.971600	0.693320
N71	N7	0.939940	0.543280	0.141080
N81	N8	0.980600	0.534000	0.224000
N91	N9	0.016600	0.528400	0.306680
N101	N10	0.560060	0.456720	0.641080
N111	N11	0.519400	0.466000	0.724000
N121	N12	0.483400	0.471600	0.806680
N131	N13	0.358920	0.060060	0.043280
N141	N14	0.276000	0.019400	0.034000
N151	N15	0.193320	0.983400	0.028400
N161	N16	0.858920	0.439940	0.956720
N171	N17	0.776000	0.480600	0.966000
N181	N18	0.693320	0.516600	0.971600
N191	N19	0.141080	0.939940	0.543280
N201	N20	0.224000	0.980600	0.534000
N211	N21	0.306680	0.016600	0.528400
N221	N22	0.641080	0.560060	0.456720
N231	N23	0.724000	0.519400	0.466000
N241	N24	0.806680	0.483400	0.471600
N251	N25	0.043280	0.358920	0.060060
N261	N26	0.034000	0.276000	0.019400
N271	N27	0.028400	0.193320	0.983400
N281	N28	0.956720	0.858920	0.439940
N291	N29	0.966000	0.776000	0.480600
N301	N30	0.971600	0.693320	0.516600
N311	N31	0.543280	0.141080	0.939940
N321	N32	0.534000	0.224000	0.980600
N331	N33	0.528400	0.306680	0.016600
N341	N34	0.456720	0.641080	0.560060
N351	N35	0.466000	0.724000	0.519400
N361	N36	0.471600	0.806680	0.483400
N371	N37	0.939940	0.956720	0.641080
N381	N38	0.980600	0.966000	0.724000
N391	N39	0.016600	0.971600	0.806680
N401	N40	0.560060	0.043280	0.141080
N411	N41	0.519400	0.034000	0.224000
N421	N42	0.483400	0.028400	0.306680
N431	N43	0.060060	0.456720	0.858920
N441	N44	0.019400	0.466000	0.776000
N451	N45	0.983400	0.471600	0.693320
N461	N46	0.439940	0.543280	0.358920
N471	N47	0.480600	0.534000	0.276000
N481	N48	0.516600	0.528400	0.193320
N491	N49	0.641080	0.939940	0.956720
N501	N50	0.724000	0.980600	0.966000
N511	N51	0.806680	0.016600	0.971600
N521	N52	0.141080	0.560060	0.043280
N531	N53	0.224000	0.519400	0.034000
N541	N54	0.306680	0.483400	0.028400
N551	N55	0.858920	0.060060	0.456720
N561	N56	0.776000	0.019400	0.466000
N571	N57	0.693320	0.983400	0.471600
N581	N58	0.358920	0.439940	0.543280
N591	N59	0.276000	0.480600	0.534000
N601	N60	0.193320	0.516600	0.528400
N611	N61	0.956720	0.641080	0.939940
N621	N62	0.966000	0.724000	0.980600
N631	N63	0.971600	0.806680	0.016600
N641	N64	0.043280	0.141080	0.560060
N651	N65	0.034000	0.224000	0.519400
N661	N66	0.028400	0.306680	0.483400
N671	N67	0.456720	0.858920	0.060060
N681	N68	0.466000	0.776000	0.019400
N691	N69	0.471600	0.693320	0.983400
N701	N70	0.543280	0.358920	0.439940
N711	N71	0.534000	0.276000	0.480600
N721	N72	0.528400	0.193320	0.516600
Cr11	Cr1	0.000000	0.000000	0.500000
Cr21	Cr2	0.500000	0.000000	0.000000
Cr31	Cr3	0.000000	0.500000	0.000000
Cr41	Cr4	0.500000	0.500000	0.500000
Na11	Na1	0.000000	0.000000	0.000000
Na21	Na2	0.500000	0.000000	0.500000
Na31	Na3	0.000000	0.500000	0.500000
Na41	Na4	0.500000	0.500000	0.000000
