data_ROQRAS_clean_PM
_symmetry_space_group_name_H-M	'P1'
_cell_length_a	8.436300
_cell_length_b	13.148500
_cell_length_c	17.833000
_cell_angle_alpha	90.000000
_cell_angle_beta	90.000000
_cell_angle_gamma	90.000000
_symmetry_Int_Tables_number 1

loop_
_symmetry_equiv_pos_as_xyz
'x,y,z'

loop_
_atom_site_label
_atom_site_type_symbol
_atom_site_fract_x
_atom_site_fract_y
_atom_site_fract_z
C11	C1	0.619300	0.060100	0.369900
C21	C2	0.682000	0.994900	0.433100
C31	C3	0.765000	0.039200	0.491200
H11	H1	0.774400	0.109700	0.492500
C41	C4	0.834300	0.981400	0.548100
H21	H2	0.900300	0.011200	0.583600
C51	C5	0.802400	0.880500	0.549800
H31	H3	0.844400	0.841300	0.588400
C61	C6	0.655500	0.891000	0.439300
C71	C7	0.555800	0.830000	0.386500
C81	C8	0.779600	0.313900	0.573100
C91	C9	0.695400	0.383400	0.518200
C101	C10	0.614000	0.339100	0.458400
H41	H4	0.611800	0.268700	0.453600
C111	C11	0.537000	0.397800	0.407100
H51	H5	0.481000	0.368200	0.367900
C121	C12	0.544600	0.502300	0.414500
H61	H6	0.493500	0.543200	0.379500
C131	C13	0.698400	0.488800	0.522000
C141	C14	0.784500	0.549100	0.582100
N11	N1	0.712000	0.835200	0.497600
N21	N2	0.623900	0.545800	0.471100
O11	O1	0.687900	0.053600	0.306100
O21	O2	0.510900	0.119700	0.385900
O31	O3	0.489600	0.874000	0.333100
O41	O4	0.544400	0.735800	0.400500
O51	O5	0.773000	0.644900	0.577000
O61	O6	0.856100	0.505600	0.632300
O71	O7	0.915400	0.285200	0.560800
O81	O8	0.691200	0.283200	0.625900
Cu11	Cu1	0.646500	0.691470	0.492570
U11	U1	0.817980	0.178180	0.232860
C151	C15	0.380700	0.939900	0.869900
C161	C16	0.318000	0.005100	0.933100
C171	C17	0.235000	0.960800	0.991200
H71	H7	0.225600	0.890300	0.992500
C181	C18	0.165700	0.018600	0.048100
H81	H8	0.099700	0.988800	0.083600
C191	C19	0.197600	0.119500	0.049800
H91	H9	0.155600	0.158700	0.088400
C201	C20	0.344500	0.109000	0.939300
C211	C21	0.444200	0.170000	0.886500
C221	C22	0.220400	0.686100	0.073100
C231	C23	0.304600	0.616600	0.018200
C241	C24	0.386000	0.660900	0.958400
H101	H10	0.388200	0.731300	0.953600
C251	C25	0.463000	0.602200	0.907100
H111	H11	0.519000	0.631800	0.867900
C261	C26	0.455400	0.497700	0.914500
H121	H12	0.506500	0.456800	0.879500
C271	C27	0.301600	0.511200	0.022000
C281	C28	0.215500	0.450900	0.082100
N31	N3	0.288000	0.164800	0.997600
N41	N4	0.376100	0.454200	0.971100
O91	O9	0.312100	0.946400	0.806100
O101	O10	0.489100	0.880300	0.885900
O111	O11	0.510400	0.126000	0.833100
O121	O12	0.455600	0.264200	0.900500
O131	O13	0.227000	0.355100	0.077000
O141	O14	0.143900	0.494400	0.132300
O151	O15	0.084600	0.714800	0.060800
O161	O16	0.308800	0.716800	0.125900
Cu21	Cu2	0.353500	0.308530	0.992570
U21	U2	0.182020	0.821820	0.732860
C291	C29	0.119300	0.939900	0.369900
C301	C30	0.182000	0.005100	0.433100
C311	C31	0.265000	0.960800	0.491200
H131	H13	0.274400	0.890300	0.492500
C321	C32	0.334300	0.018600	0.548100
H141	H14	0.400300	0.988800	0.583600
C331	C33	0.302400	0.119500	0.549800
H151	H15	0.344400	0.158700	0.588400
C341	C34	0.155500	0.109000	0.439300
C351	C35	0.055800	0.170000	0.386500
C361	C36	0.279600	0.686100	0.573100
C371	C37	0.195400	0.616600	0.518200
C381	C38	0.114000	0.660900	0.458400
H161	H16	0.111800	0.731300	0.453600
C391	C39	0.037000	0.602200	0.407100
H171	H17	0.981000	0.631800	0.367900
C401	C40	0.044600	0.497700	0.414500
H181	H18	0.993500	0.456800	0.379500
C411	C41	0.198400	0.511200	0.522000
C421	C42	0.284500	0.450900	0.582100
N51	N5	0.212000	0.164800	0.497600
N61	N6	0.123900	0.454200	0.471100
O171	O17	0.187900	0.946400	0.306100
O181	O18	0.010900	0.880300	0.385900
O191	O19	0.989600	0.126000	0.333100
O201	O20	0.044400	0.264200	0.400500
O211	O21	0.273000	0.355100	0.577000
O221	O22	0.356100	0.494400	0.632300
O231	O23	0.415400	0.714800	0.560800
O241	O24	0.191200	0.716800	0.625900
Cu31	Cu3	0.146500	0.308530	0.492570
U31	U3	0.317980	0.821820	0.232860
C431	C43	0.880700	0.060100	0.869900
C441	C44	0.818000	0.994900	0.933100
C451	C45	0.735000	0.039200	0.991200
H191	H19	0.725600	0.109700	0.992500
C461	C46	0.665700	0.981400	0.048100
H201	H20	0.599700	0.011200	0.083600
C471	C47	0.697600	0.880500	0.049800
H211	H21	0.655600	0.841300	0.088400
C481	C48	0.844500	0.891000	0.939300
C491	C49	0.944200	0.830000	0.886500
C501	C50	0.720400	0.313900	0.073100
C511	C51	0.804600	0.383400	0.018200
C521	C52	0.886000	0.339100	0.958400
H221	H22	0.888200	0.268700	0.953600
C531	C53	0.963000	0.397800	0.907100
H231	H23	0.019000	0.368200	0.867900
C541	C54	0.955400	0.502300	0.914500
H241	H24	0.006500	0.543200	0.879500
C551	C55	0.801600	0.488800	0.022000
C561	C56	0.715500	0.549100	0.082100
N71	N7	0.788000	0.835200	0.997600
N81	N8	0.876100	0.545800	0.971100
O251	O25	0.812100	0.053600	0.806100
O261	O26	0.989100	0.119700	0.885900
O271	O27	0.010400	0.874000	0.833100
O281	O28	0.955600	0.735800	0.900500
O291	O29	0.727000	0.644900	0.077000
O301	O30	0.643900	0.505600	0.132300
O311	O31	0.584600	0.285200	0.060800
O321	O32	0.808800	0.283200	0.125900
Cu41	Cu4	0.853500	0.691470	0.992570
U41	U4	0.682020	0.178180	0.732860
