data_RORRIB_clean_PM
_symmetry_space_group_name_H-M	'P1'
_cell_length_a	8.936700
_cell_length_b	9.494400
_cell_length_c	11.976900
_cell_angle_alpha	83.967000
_cell_angle_beta	73.740000
_cell_angle_gamma	67.598000
_symmetry_Int_Tables_number 1

loop_
_symmetry_equiv_pos_as_xyz
'x,y,z'

loop_
_atom_site_label
_atom_site_type_symbol
_atom_site_fract_x
_atom_site_fract_y
_atom_site_fract_z
U11	U1	0.579550	0.710340	0.821130
U21	U2	0.420450	0.289660	0.178870
U31	U3	0.500000	0.000000	0.500000
H11	H1	0.763600	0.125800	0.960000
H21	H2	0.019600	0.944500	0.363000
H31	H3	0.292400	0.736600	0.257100
H41	H4	0.982500	0.081000	0.143400
H51	H5	0.425800	0.784900	0.156900
H61	H6	0.236400	0.874200	0.040000
H71	H7	0.996500	0.224000	0.784200
H81	H8	0.989100	0.120500	0.333700
H91	H9	0.974300	0.848100	0.092800
H101	H10	0.010900	0.879500	0.666300
H111	H11	0.017500	0.919000	0.856600
H121	H12	0.707600	0.263400	0.742900
H131	H13	0.980400	0.055500	0.637000
H141	H14	0.574200	0.215100	0.843100
H151	H15	0.025700	0.151900	0.907200
H161	H16	0.757900	0.952700	0.819200
H171	H17	0.242100	0.047300	0.180800
H181	H18	0.003500	0.776000	0.215800
C11	C1	0.304700	0.810900	0.194200
C21	C2	0.038400	0.016900	0.299800
C31	C3	0.317700	0.985900	0.330400
C41	C4	0.027400	0.849100	0.154800
C51	C5	0.295600	0.641200	0.053800
C61	C6	0.216400	0.802300	0.104500
C71	C7	0.783600	0.197700	0.895500
C81	C8	0.226800	0.974900	0.246000
C91	C9	0.233400	0.935400	0.752900
C101	C10	0.773200	0.025100	0.754000
C111	C11	0.695300	0.189100	0.805800
C121	C12	0.972600	0.150900	0.845200
C131	C13	0.704400	0.358800	0.946200
C141	C14	0.961600	0.983100	0.700200
C151	C15	0.045700	0.988500	0.792400
C161	C16	0.682300	0.014100	0.669600
C171	C17	0.766600	0.064600	0.247100
C181	C18	0.954300	0.011500	0.207600
O11	O1	0.303800	0.926300	0.646100
O21	O2	0.382300	0.618700	0.950400
O31	O3	0.684600	0.089000	0.578000
O41	O4	0.696200	0.073700	0.353900
O51	O5	0.617700	0.381300	0.049600
O61	O6	0.310200	0.898500	0.831900
O71	O7	0.689800	0.101500	0.168100
O81	O8	0.402800	0.073100	0.309400
O91	O9	0.265500	0.537300	0.118900
O101	O10	0.597200	0.926900	0.690600
O111	O11	0.734500	0.462700	0.881100
O121	O12	0.315400	0.911000	0.422000
