data_ROSKER_clean_PM
_symmetry_space_group_name_H-M	'P1'
_cell_length_a	11.341600
_cell_length_b	14.740400
_cell_length_c	15.197900
_cell_angle_alpha	90.000000
_cell_angle_beta	90.000000
_cell_angle_gamma	90.000000
_symmetry_Int_Tables_number 1

loop_
_symmetry_equiv_pos_as_xyz
'x,y,z'

loop_
_atom_site_label
_atom_site_type_symbol
_atom_site_fract_x
_atom_site_fract_y
_atom_site_fract_z
Mn11	Mn1	0.193920	0.693580	0.522490
Mn21	Mn2	0.693920	0.806420	0.522490
Mn31	Mn3	0.693920	0.806420	0.977510
Mn41	Mn4	0.306080	0.193580	0.022490
Mn51	Mn5	0.806080	0.306420	0.477510
Mn61	Mn6	0.193920	0.693580	0.977510
Mn71	Mn7	0.306080	0.193580	0.477510
Mn81	Mn8	0.806080	0.306420	0.022490
H11	H1	0.248600	0.002700	0.174000
H21	H2	0.480900	0.704200	0.825600
H31	H3	0.980900	0.795800	0.825600
H41	H4	0.480900	0.704200	0.674400
H51	H5	0.248600	0.002700	0.326000
H61	H6	0.751400	0.997300	0.826000
H71	H7	0.748600	0.497300	0.326000
H81	H8	0.519100	0.295800	0.325600
H91	H9	0.748600	0.497300	0.174000
H101	H10	0.251400	0.502700	0.674000
H111	H11	0.980900	0.795800	0.674400
H121	H12	0.019100	0.204200	0.325600
H131	H13	0.519100	0.295800	0.174400
H141	H14	0.751400	0.997300	0.674000
H151	H15	0.019100	0.204200	0.174400
H161	H16	0.251400	0.502700	0.826000
W11	W1	0.632720	0.047000	0.250000
W21	W2	0.367280	0.953000	0.750000
W31	W3	0.867280	0.547000	0.750000
W41	W4	0.132720	0.453000	0.250000
C11	C1	0.714700	0.145570	0.164040
C21	C2	0.285300	0.854430	0.835960
C31	C3	0.214700	0.354430	0.335960
C41	C4	0.001000	0.395940	0.163600
C51	C5	0.343600	0.040800	0.861960
C61	C6	0.204800	0.045710	0.204700
C71	C7	0.431300	0.665170	0.705020
C81	C8	0.795200	0.954290	0.795300
C91	C9	0.501000	0.104060	0.336400
C101	C10	0.931300	0.834830	0.705020
C111	C11	0.785300	0.645570	0.664040
C121	C12	0.499000	0.895940	0.836400
C131	C13	0.156400	0.540800	0.138040
C141	C14	0.683400	0.505900	0.750000
C151	C15	0.843600	0.459200	0.861960
C161	C16	0.568700	0.334830	0.294980
C171	C17	0.508100	0.052200	0.750000
C181	C18	0.656400	0.959200	0.138040
C191	C19	0.295200	0.545710	0.704700
C201	C20	0.795200	0.954290	0.704700
C211	C21	0.714700	0.145570	0.335960
C221	C22	0.068700	0.165170	0.294980
C231	C23	0.568700	0.334830	0.205020
C241	C24	0.816600	0.005900	0.250000
C251	C25	0.991900	0.552200	0.250000
C261	C26	0.931300	0.834830	0.794980
C271	C27	0.285300	0.854430	0.664040
C281	C28	0.499000	0.895940	0.663600
C291	C29	0.501000	0.104060	0.163600
C301	C30	0.843600	0.459200	0.638040
C311	C31	0.214700	0.354430	0.164040
C321	C32	0.999000	0.604060	0.663600
C331	C33	0.183400	0.994100	0.750000
C341	C34	0.431300	0.665170	0.794980
C351	C35	0.704800	0.454290	0.204700
C361	C36	0.656400	0.959200	0.361960
C371	C37	0.785300	0.645570	0.835960
C381	C38	0.068700	0.165170	0.205020
C391	C39	0.204800	0.045710	0.295300
C401	C40	0.704800	0.454290	0.295300
C411	C41	0.999000	0.604060	0.836400
C421	C42	0.001000	0.395940	0.336400
C431	C43	0.491900	0.947800	0.250000
C441	C44	0.295200	0.545710	0.795300
C451	C45	0.343600	0.040800	0.638040
C461	C46	0.008100	0.447800	0.750000
C471	C47	0.316600	0.494100	0.250000
C481	C48	0.156400	0.540800	0.361960
N11	N1	0.641160	0.391880	0.160520
N21	N2	0.430700	0.133120	0.383310
N31	N3	0.086500	0.017200	0.750000
N41	N4	0.141160	0.108120	0.339480
N51	N5	0.755600	0.199660	0.118240
N61	N6	0.917500	0.605000	0.250000
N71	N7	0.082500	0.395000	0.750000
N81	N8	0.430700	0.133120	0.116690
N91	N9	0.582500	0.105000	0.750000
N101	N10	0.244400	0.800340	0.618240
N111	N11	0.358840	0.608120	0.839480
N121	N12	0.666100	0.911820	0.422010
N131	N13	0.255600	0.300340	0.381760
N141	N14	0.858840	0.891880	0.839480
N151	N15	0.569300	0.866880	0.616690
N161	N16	0.744400	0.699660	0.881760
N171	N17	0.913500	0.982800	0.250000
N181	N18	0.141160	0.108120	0.160520
N191	N19	0.333900	0.088180	0.577990
N201	N20	0.166100	0.588180	0.077990
N211	N21	0.586500	0.482800	0.750000
N221	N22	0.413500	0.517200	0.250000
N231	N23	0.255600	0.300340	0.118240
N241	N24	0.858840	0.891880	0.660520
N251	N25	0.244400	0.800340	0.881760
N261	N26	0.930700	0.366880	0.116690
N271	N27	0.569300	0.866880	0.883310
N281	N28	0.833900	0.411820	0.577990
N291	N29	0.069300	0.633120	0.883310
N301	N30	0.069300	0.633120	0.616690
N311	N31	0.417500	0.895000	0.250000
N321	N32	0.358840	0.608120	0.660520
N331	N33	0.166100	0.588180	0.422010
N341	N34	0.641160	0.391880	0.339480
N351	N35	0.930700	0.366880	0.383310
N361	N36	0.744400	0.699660	0.618240
N371	N37	0.666100	0.911820	0.077990
N381	N38	0.755600	0.199660	0.381760
N391	N39	0.333900	0.088180	0.922010
N401	N40	0.833900	0.411820	0.922010
O11	O1	0.848800	0.885190	0.925100
O21	O2	0.348800	0.614810	0.574900
O31	O3	0.151200	0.114810	0.425100
O41	O4	0.151200	0.114810	0.074900
O51	O5	0.348800	0.614810	0.925100
O61	O6	0.848800	0.885190	0.574900
O71	O7	0.651200	0.385190	0.425100
O81	O8	0.651200	0.385190	0.074900
