data_ROTQIC_clean_PM
_symmetry_space_group_name_H-M	'P1'
_cell_length_a	8.693700
_cell_length_b	12.056300
_cell_length_c	20.660700
_cell_angle_alpha	90.000000
_cell_angle_beta	90.000000
_cell_angle_gamma	101.903000
_symmetry_Int_Tables_number 1

loop_
_symmetry_equiv_pos_as_xyz
'x,y,z'

loop_
_atom_site_label
_atom_site_type_symbol
_atom_site_fract_x
_atom_site_fract_y
_atom_site_fract_z
Zn11	Zn1	0.660610	0.239510	0.506300
Zn21	Zn2	0.946290	0.820780	0.002100
Zn31	Zn3	0.339390	0.760490	0.006300
Zn41	Zn4	0.053710	0.179220	0.502100
H11	H1	0.507600	0.189600	0.911600
H21	H2	0.961200	0.303400	0.091800
H31	H3	0.406400	0.492300	0.060600
H41	H4	0.091000	0.262000	0.326700
H51	H5	0.045300	0.313500	0.261500
H61	H6	0.352100	0.418700	0.999000
H71	H7	0.617300	0.659000	0.293600
H81	H8	0.492400	0.810400	0.411600
H91	H9	0.447600	0.904600	0.455800
H101	H10	0.019700	0.314100	0.763400
H111	H11	0.912700	0.608700	0.822400
H121	H12	0.087300	0.391300	0.322400
H131	H13	0.070400	0.238400	0.709000
H141	H14	0.909000	0.738000	0.826700
H151	H15	0.593600	0.507700	0.560600
H161	H16	0.954700	0.686500	0.761500
H171	H17	0.679300	0.458200	0.504100
H181	H18	0.980300	0.685900	0.263400
H191	H19	0.898100	0.210500	0.735900
H201	H20	0.887400	0.297900	0.867900
H211	H21	0.320700	0.541800	0.004100
H221	H22	0.552400	0.095400	0.955800
H231	H23	0.382700	0.341000	0.793600
H241	H24	0.493000	0.797300	0.487100
H251	H25	0.112600	0.702100	0.367900
H261	H26	0.647900	0.581300	0.499000
H271	H27	0.038800	0.696600	0.591800
H281	H28	0.367300	0.314900	0.197100
H291	H29	0.101900	0.789500	0.235900
H301	H30	0.929600	0.761600	0.209000
H311	H31	0.632700	0.685100	0.697100
H321	H32	0.507000	0.202700	0.987100
C11	C1	0.630300	0.657900	0.001400
C21	C2	0.877100	0.805800	0.411800
C31	C3	0.567700	0.591000	0.274700
C41	C4	0.718700	0.017700	0.500000
C51	C5	0.351000	0.478400	0.212800
C61	C6	0.039100	0.248600	0.008300
C71	C7	0.815100	0.353300	0.953800
C81	C8	0.960900	0.751400	0.508300
C91	C9	0.514000	0.850300	0.451900
C101	C10	0.900900	0.297900	0.912600
C111	C11	0.795000	0.503300	0.687000
C121	C12	0.173300	0.204100	0.019400
C131	C13	0.768400	0.461900	0.313600
C141	C14	0.961600	0.683000	0.807800
C151	C15	0.008000	0.242500	0.941700
C161	C16	0.184900	0.646700	0.453800
C171	C17	0.330000	0.662400	0.233100
C181	C18	0.878900	0.288700	0.609300
C191	C19	0.840000	0.287700	0.398800
C201	C20	0.164400	0.642200	0.521000
C211	C21	0.878600	0.292600	0.326600
C221	C22	0.574300	0.419900	0.741900
C231	C23	0.122900	0.194200	0.911800
C241	C24	0.393000	0.494000	0.015000
C251	C25	0.281300	0.982300	0.000000
C261	C26	0.542600	0.538100	0.984200
C271	C27	0.368700	0.505700	0.777500
C281	C28	0.663000	0.903400	0.453500
C291	C29	0.582900	0.617000	0.715800
C301	C30	0.052600	0.696700	0.547200
C311	C31	0.486000	0.149700	0.951900
C321	C32	0.432300	0.409000	0.774700
C331	C33	0.014000	0.730000	0.225300
C341	C34	0.660000	0.305100	0.259700
C351	C35	0.121400	0.707400	0.826600
C361	C36	0.947400	0.303300	0.047200
C371	C37	0.369700	0.342100	0.501400
C381	C38	0.038400	0.317000	0.307800
C391	C39	0.099100	0.702100	0.412600
C401	C40	0.064500	0.652300	0.173200
C411	C41	0.560100	0.392400	0.247700
C421	C42	0.121100	0.711300	0.109300
C431	C43	0.337000	0.096600	0.953500
C441	C44	0.205000	0.496700	0.187000
C451	C45	0.457400	0.461900	0.484200
C461	C46	0.274000	0.577700	0.431500
C471	C47	0.607000	0.506000	0.515000
C481	C48	0.726000	0.422300	0.931500
C491	C49	0.160000	0.712300	0.898800
C501	C50	0.425700	0.580100	0.241900
C511	C51	0.935500	0.347700	0.673200
C521	C52	0.649000	0.521600	0.712800
C531	C53	0.439900	0.607600	0.747700
C541	C54	0.231600	0.538100	0.813600
C551	C55	0.340000	0.694900	0.759700
C561	C56	0.631300	0.494300	0.277500
C571	C57	0.280600	0.571500	0.541500
C581	C58	0.670000	0.337600	0.733100
C591	C59	0.986000	0.270000	0.725300
C601	C60	0.719400	0.428500	0.041500
C611	C61	0.835600	0.357800	0.021000
C621	C62	0.826700	0.795900	0.519400
C631	C63	0.992000	0.757500	0.441700
C641	C64	0.417100	0.383000	0.215800
N11	N1	0.225100	0.170500	0.959800
N21	N2	0.780800	0.360200	0.296000
N31	N3	0.806900	0.396600	0.701200
N41	N4	0.774900	0.829500	0.459800
N51	N5	0.193100	0.603400	0.201200
N61	N6	0.219200	0.639800	0.796000
N71	N7	0.648900	0.458100	0.987200
N81	N8	0.351100	0.541900	0.487200
O11	O1	0.385800	0.923500	0.003900
O21	O2	0.926400	0.276700	0.445100
O31	O3	0.016400	0.764300	0.086500
O41	O4	0.245000	0.701700	0.086700
O51	O5	0.225800	0.323700	0.498100
O61	O6	0.073600	0.723300	0.945100
O71	O7	0.449800	0.268300	0.516800
O81	O8	0.321000	0.560900	0.376600
O91	O9	0.300900	0.706800	0.916600
O101	O10	0.854000	0.535100	0.347200
O111	O11	0.877800	0.844100	0.357900
O121	O12	0.614200	0.076500	0.503900
O131	O13	0.213000	0.185100	0.071200
O141	O14	0.895000	0.561500	0.660000
O151	O15	0.143000	0.952000	0.997300
O161	O16	0.627000	0.209500	0.248800
O171	O17	0.550200	0.731700	0.016800
O181	O18	0.787000	0.814900	0.571200
O191	O19	0.983600	0.235700	0.586500
O201	O20	0.755000	0.298300	0.586700
O211	O21	0.643500	0.237400	0.754600
O221	O22	0.356500	0.762600	0.254600
O231	O23	0.679000	0.439100	0.876600
O241	O24	0.774200	0.676300	0.998100
O251	O25	0.122200	0.155900	0.857900
O261	O26	0.312400	0.546500	0.595900
O271	O27	0.699100	0.293200	0.416600
O281	O28	0.857000	0.048000	0.497300
O291	O29	0.373000	0.790500	0.748800
O301	O30	0.105000	0.438500	0.160000
O311	O31	0.687600	0.453500	0.095900
O321	O32	0.146000	0.464900	0.847200
