data_ROTTOL_clean_PM
_symmetry_space_group_name_H-M	'P1'
_cell_length_a	11.361000
_cell_length_b	15.532000
_cell_length_c	16.269000
_cell_angle_alpha	90.000000
_cell_angle_beta	94.661000
_cell_angle_gamma	90.000000
_symmetry_Int_Tables_number 1

loop_
_symmetry_equiv_pos_as_xyz
'x,y,z'

loop_
_atom_site_label
_atom_site_type_symbol
_atom_site_fract_x
_atom_site_fract_y
_atom_site_fract_z
Zn11	Zn1	0.024210	0.374010	0.538110
Zn21	Zn2	0.975790	0.874010	0.961890
Zn31	Zn3	0.975790	0.625990	0.461890
Zn41	Zn4	0.024210	0.125990	0.038110
H11	H1	0.982000	0.686000	0.723000
H21	H2	0.768000	0.883000	0.843000
H31	H3	0.371000	0.181000	0.302000
H41	H4	0.606000	0.204000	0.947000
H51	H5	0.232000	0.383000	0.657000
H61	H6	0.172000	0.959000	0.860000
H71	H7	0.986000	0.078000	0.550000
H81	H8	0.436000	0.099000	0.166000
H91	H9	0.582000	0.847000	0.077000
H101	H10	0.828000	0.459000	0.640000
H111	H11	0.418000	0.153000	0.923000
H121	H12	0.394000	0.704000	0.553000
H131	H13	0.777000	0.836000	0.072000
H141	H14	0.394000	0.796000	0.053000
H151	H15	0.184000	0.789000	0.050000
H161	H16	0.223000	0.164000	0.928000
H171	H17	0.606000	0.296000	0.447000
H181	H18	0.816000	0.289000	0.450000
H191	H19	0.946000	0.565000	0.254000
H201	H20	0.564000	0.901000	0.834000
H211	H21	0.816000	0.211000	0.950000
H221	H22	0.018000	0.186000	0.777000
H231	H23	0.014000	0.578000	0.950000
H241	H24	0.768000	0.617000	0.343000
H251	H25	0.232000	0.117000	0.157000
H261	H26	0.014000	0.922000	0.450000
H271	H27	0.828000	0.041000	0.140000
H281	H28	0.621000	0.474000	0.634000
H291	H29	0.564000	0.599000	0.334000
H301	H30	0.172000	0.541000	0.360000
H311	H31	0.946000	0.935000	0.754000
H321	H32	0.018000	0.314000	0.277000
H331	H33	0.418000	0.347000	0.423000
H341	H34	0.982000	0.814000	0.223000
H351	H35	0.379000	0.526000	0.366000
H361	H36	0.436000	0.401000	0.666000
H371	H37	0.223000	0.336000	0.428000
H381	H38	0.371000	0.319000	0.802000
H391	H39	0.986000	0.422000	0.050000
H401	H40	0.629000	0.681000	0.198000
H411	H41	0.184000	0.711000	0.550000
H421	H42	0.629000	0.819000	0.698000
H431	H43	0.777000	0.664000	0.572000
H441	H44	0.582000	0.653000	0.577000
H451	H45	0.054000	0.435000	0.746000
H461	H46	0.054000	0.065000	0.246000
H471	H47	0.379000	0.974000	0.866000
H481	H48	0.621000	0.026000	0.134000
C11	C1	0.220700	0.578600	0.402300
C21	C2	0.999000	0.648200	0.841800
C31	C3	0.981900	0.424000	0.109700
C41	C4	0.280400	0.113700	0.107400
C51	C5	0.719600	0.613700	0.392600
C61	C6	0.299600	0.333500	0.833100
C71	C7	0.389300	0.146500	0.970500
C81	C8	0.389300	0.353500	0.470500
C91	C9	0.962600	0.509700	0.232500
C101	C10	0.036000	0.003600	0.353000
C111	C11	0.229500	0.835200	0.014700
C121	C12	0.001000	0.351800	0.158200
C131	C13	0.589700	0.122100	0.040200
C141	C14	0.402600	0.389400	0.610500
C151	C15	0.589700	0.377900	0.540200
C161	C16	0.984000	0.064000	0.780300
C171	C17	0.342000	0.579100	0.400600
C181	C18	0.984000	0.436000	0.280300
C191	C19	0.351300	0.667000	0.517900
C201	C20	0.800800	0.658900	0.150700
C211	C21	0.280400	0.386300	0.607400
C221	C22	0.267600	0.352600	0.472200
C231	C23	0.410300	0.877900	0.959800
C241	C24	0.648700	0.333000	0.482100
C251	C25	0.016000	0.234700	0.618000
C261	C26	0.540800	0.875100	0.960100
C271	C27	0.001000	0.148200	0.658200
C281	C28	0.658000	0.079100	0.099400
C291	C29	0.036000	0.496400	0.853000
C301	C30	0.700400	0.833500	0.666900
C311	C31	0.037400	0.490300	0.767500
C321	C32	0.410300	0.622100	0.459800
C331	C33	0.984000	0.734700	0.882000
C341	C34	0.983000	0.442200	0.372000
C351	C35	0.700400	0.666500	0.166900
C361	C36	0.037400	0.009700	0.267500
C371	C37	0.597400	0.610600	0.389500
C381	C38	0.267600	0.147400	0.972200
C391	C39	0.719600	0.886300	0.892600
C401	C40	0.610700	0.646500	0.529500
C411	C41	0.017000	0.942200	0.128000
C421	C42	0.924100	0.846300	0.629000
C431	C43	0.732400	0.852600	0.027800
C441	C44	0.459200	0.375100	0.539900
C451	C45	0.610700	0.853500	0.029500
C461	C46	0.459200	0.124900	0.039900
C471	C47	0.017000	0.557800	0.628000
C481	C48	0.779300	0.421400	0.597700
C491	C49	0.984000	0.765300	0.382000
C501	C50	0.016000	0.265300	0.118000
C511	C51	0.983000	0.057800	0.872000
C521	C52	0.770500	0.335200	0.485300
C531	C53	0.658000	0.420900	0.599400
C541	C54	0.964000	0.996400	0.647000
C551	C55	0.199200	0.341100	0.849300
C561	C56	0.229500	0.664800	0.514700
C571	C57	0.999000	0.851800	0.341800
C581	C58	0.981900	0.076000	0.609700
C591	C59	0.220700	0.921400	0.902300
C601	C60	0.299600	0.166500	0.333100
C611	C61	0.964000	0.503600	0.147000
C621	C62	0.779300	0.078600	0.097700
C631	C63	0.003100	0.357400	0.243300
C641	C64	0.962600	0.990300	0.732500
C651	C65	0.648700	0.167000	0.982100
C661	C66	0.075900	0.153700	0.371000
C671	C67	0.199200	0.158900	0.349300
C681	C68	0.996900	0.642600	0.756700
C691	C69	0.016000	0.564000	0.719700
C701	C70	0.018100	0.924000	0.390300
C711	C71	0.924100	0.653700	0.129000
C721	C72	0.075900	0.346300	0.871000
C731	C73	0.018100	0.576000	0.890300
C741	C74	0.351300	0.833000	0.017900
C751	C75	0.996900	0.857400	0.256700
C761	C76	0.770500	0.164800	0.985300
C771	C77	0.597400	0.889400	0.889500
C781	C78	0.732400	0.647400	0.527800
C791	C79	0.016000	0.936000	0.219700
C801	C80	0.402600	0.110600	0.110500
C811	C81	0.342000	0.920900	0.900600
C821	C82	0.003100	0.142600	0.743300
C831	C83	0.540800	0.624900	0.460100
C841	C84	0.800800	0.841100	0.650700
N11	N1	0.212800	0.371000	0.539000
N21	N2	0.164000	0.881600	0.959300
N31	N3	0.164000	0.618400	0.459300
N41	N4	0.787200	0.629000	0.461000
N51	N5	0.836000	0.381600	0.540700
N61	N6	0.787200	0.871000	0.961000
N71	N7	0.212800	0.129000	0.039000
N81	N8	0.836000	0.118400	0.040700
O11	O1	0.030200	0.199250	0.161570
O21	O2	0.011500	0.261940	0.040800
O31	O3	0.987400	0.624050	0.586920
O41	O4	0.011500	0.238060	0.540800
O51	O5	0.030200	0.300750	0.661570
O61	O6	0.988500	0.738060	0.959200
O71	O7	0.047400	0.488060	0.597540
O81	O8	0.050500	0.071600	0.405640
O91	O9	0.050500	0.428400	0.905640
O101	O10	0.047400	0.011940	0.097540
O111	O11	0.949500	0.571600	0.094360
O121	O12	0.969800	0.699250	0.338430
O131	O13	0.949500	0.928400	0.594360
O141	O14	0.952600	0.988060	0.902460
O151	O15	0.012600	0.124050	0.913080
O161	O16	0.987400	0.875950	0.086920
O171	O17	0.012600	0.375950	0.413080
O181	O18	0.952600	0.511940	0.402460
O191	O19	0.969800	0.800750	0.838430
O201	O20	0.988500	0.761940	0.459200
