data_ROYRII_clean_PM
_symmetry_space_group_name_H-M	'P1'
_cell_length_a	19.098300
_cell_length_b	14.422100
_cell_length_c	30.556000
_cell_angle_alpha	90.000000
_cell_angle_beta	90.000000
_cell_angle_gamma	90.000000
_symmetry_Int_Tables_number 1

loop_
_symmetry_equiv_pos_as_xyz
'x,y,z'

loop_
_atom_site_label
_atom_site_type_symbol
_atom_site_fract_x
_atom_site_fract_y
_atom_site_fract_z
Er11	Er1	0.141260	0.462200	0.747510
O11	O1	0.120240	0.340400	0.699000
O21	O2	0.167800	0.616700	0.733850
O31	O3	0.082120	0.553100	0.803150
O41	O4	0.190600	0.508200	0.816400
O51	O5	0.736600	0.029800	0.701560
O61	O6	0.527140	0.001700	0.721690
C11	C1	0.135500	0.317100	0.660200
C21	C2	0.193600	0.670600	0.707700
C31	C3	0.135100	0.556400	0.827000
Er21	Er2	0.187850	0.524190	0.623270
O71	O7	0.165900	0.368900	0.632100
C41	C4	0.116500	0.219900	0.645800
O81	O8	0.208500	0.650300	0.667440
C51	C5	0.211900	0.767700	0.723000
C61	C6	0.138500	0.617000	0.865900
O91	O9	0.339000	0.967000	0.055990
O101	O10	0.802700	0.021000	0.643160
C71	C7	0.118400	0.197200	0.602100
C81	C8	0.095400	0.150600	0.676200
C91	C9	0.203500	0.786400	0.766400
C101	C10	0.232900	0.839400	0.692700
C111	C11	0.081800	0.674500	0.873800
C121	C12	0.199000	0.621100	0.894200
C131	C13	0.362300	0.995200	0.019100
H11	H1	0.130200	0.242900	0.582000
C141	C14	0.103400	0.110000	0.587200
O111	O11	0.090400	0.169000	0.719350
C151	C15	0.079700	0.062000	0.661900
H21	H2	0.188700	0.739900	0.785400
C161	C16	0.217500	0.877800	0.783000
O121	O12	0.239100	0.822200	0.649080
C171	C17	0.247500	0.928200	0.707400
H31	H3	0.043800	0.674700	0.854900
C181	C18	0.082300	0.733700	0.911600
C191	C19	0.203600	0.683600	0.928100
O131	O13	0.252200	0.561500	0.886610
O141	O14	0.388900	0.070700	0.013290
C201	C20	0.352400	0.929400	0.981000
C211	C21	0.107200	0.089200	0.541800
C221	C22	0.085700	0.039100	0.617700
H41	H4	0.097500	0.224400	0.723600
C231	C23	0.059300	0.990000	0.696900
C241	C24	0.207800	0.896600	0.827000
C251	C25	0.237700	0.948600	0.753400
H51	H5	0.250600	0.768100	0.645300
C261	C26	0.266500	0.000500	0.673900
C271	C27	0.143900	0.738600	0.937800
C281	C28	0.023800	0.787000	0.922000
C291	C29	0.270400	0.692400	0.954800
H61	H6	0.241700	0.527000	0.866300
C301	C30	0.379100	0.955500	0.941300
C311	C31	0.318700	0.842000	0.985200
H71	H7	0.117200	0.136400	0.522000
C321	C32	0.096700	0.003200	0.527000
C331	C33	0.075700	0.948400	0.600400
H81	H8	0.060200	0.929300	0.683200
H91	H9	0.095300	0.990300	0.719300
C341	C34	0.989300	0.001300	0.719200
H101	H10	0.195300	0.849000	0.846000
C351	C35	0.216400	0.984900	0.842700
C361	C36	0.245200	0.039200	0.771300
H111	H11	0.265700	0.060300	0.688400
H121	H12	0.229700	0.001200	0.652100
C371	C37	0.336500	0.992400	0.649700
C381	C38	0.141000	0.797300	0.975100
C391	C39	0.024000	0.844000	0.957700
H131	H13	0.984100	0.783900	0.904400
C401	C40	0.310900	0.783400	0.948800
H141	H14	0.258600	0.685900	0.985500
H151	H15	0.301200	0.641400	0.947200
H161	H16	0.401000	0.012800	0.938700
C411	C41	0.374100	0.897100	0.904000
O151	O15	0.292600	0.814500	0.024240
H171	H17	0.098600	0.990800	0.497100
C421	C42	0.082400	0.930300	0.557500
H181	H18	0.064200	0.900300	0.619300
C431	C43	0.981100	0.994200	0.765100
C441	C44	0.929100	0.008500	0.692500
H191	H19	0.210500	0.997800	0.872300
C451	C45	0.234300	0.055300	0.813200
H201	H20	0.258000	0.088000	0.753100
C461	C46	0.342100	0.995100	0.604200
C471	C47	0.398100	0.991700	0.674000
C481	C48	0.080700	0.848000	0.984300
H211	H21	0.179700	0.801900	0.993400
H221	H22	0.984900	0.880200	0.963900
C491	C49	0.339700	0.810200	0.908700
C501	C50	0.402900	0.922600	0.863100
H231	H23	0.283800	0.860200	0.039200
H241	H24	0.077700	0.869800	0.547600
C511	C51	0.038100	0.982900	0.793900
C521	C52	0.912900	0.999100	0.783400
O161	O16	0.936100	0.006900	0.649210
C531	C53	0.860500	0.017300	0.712300
H251	H25	0.238700	0.115600	0.823600
C541	C54	0.283100	0.998500	0.574900
C551	C55	0.408800	0.998800	0.583300
O171	O17	0.391510	0.994100	0.718600
C561	C56	0.464500	0.990400	0.654300
H261	H26	0.079400	0.885300	0.009100
C571	C57	0.339900	0.751400	0.871000
H271	H27	0.425100	0.979700	0.860400
C581	C58	0.399000	0.867000	0.828200
H281	H28	0.083500	0.980200	0.783100
C591	C59	0.026400	0.976000	0.838000
C601	C60	0.905000	0.991600	0.829900
C611	C61	0.854100	0.010100	0.755700
H291	H29	0.897400	0.010700	0.637700
C621	C62	0.798000	0.024800	0.684900
H301	H30	0.238300	0.992900	0.586600
C631	C63	0.289900	0.009300	0.531700
C641	C64	0.414400	0.006700	0.538200
C651	C65	0.468500	0.994100	0.609700
H311	H31	0.430400	0.999500	0.729700
C661	C66	0.530300	0.990000	0.681000
C671	C67	0.368300	0.780700	0.832900
H321	H32	0.320400	0.692400	0.872700
H331	H33	0.416600	0.885900	0.801200
H341	H34	0.064700	0.968700	0.856400
C681	C68	0.960200	0.979500	0.856300
H351	H35	0.860400	0.995200	0.842000
H361	H36	0.809600	0.012500	0.768100
H371	H37	0.249700	0.013400	0.514600
C691	C69	0.356100	0.014600	0.510900
H381	H38	0.458700	0.006900	0.525600
H391	H39	0.512300	0.993400	0.596500
O181	O18	0.588520	0.978900	0.662440
H401	H40	0.367100	0.741200	0.808800
H411	H41	0.954200	0.973500	0.886400
H421	H42	0.360400	0.022800	0.480800
Er31	Er3	0.858740	0.537800	0.247510
O191	O19	0.879760	0.659600	0.199000
O201	O20	0.832200	0.383300	0.233850
O211	O21	0.917880	0.446900	0.303150
O221	O22	0.809400	0.491800	0.316400
O231	O23	0.263400	0.970200	0.201560
O241	O24	0.472860	0.998300	0.221690
C701	C70	0.864500	0.682900	0.160200
C711	C71	0.806400	0.329400	0.207700
C721	C72	0.864900	0.443600	0.327000
Er41	Er4	0.812150	0.475810	0.123270
O251	O25	0.834100	0.631100	0.132100
C731	C73	0.883500	0.780100	0.145800
O261	O26	0.791500	0.349700	0.167440
C741	C74	0.788100	0.232300	0.223000
C751	C75	0.861500	0.383000	0.365900
O271	O27	0.661000	0.033000	0.555990
O281	O28	0.197300	0.979000	0.143160
C761	C76	0.881600	0.802800	0.102100
C771	C77	0.904600	0.849400	0.176200
C781	C78	0.796500	0.213600	0.266400
C791	C79	0.767100	0.160600	0.192700
C801	C80	0.918200	0.325500	0.373800
C811	C81	0.801000	0.378900	0.394200
C821	C82	0.637700	0.004800	0.519100
H431	H43	0.869800	0.757100	0.082000
C831	C83	0.896600	0.890000	0.087200
O291	O29	0.909600	0.831000	0.219350
C841	C84	0.920300	0.938000	0.161900
H441	H44	0.811300	0.260100	0.285400
C851	C85	0.782500	0.122200	0.283000
O301	O30	0.760900	0.177800	0.149080
C861	C86	0.752500	0.071800	0.207400
H451	H45	0.956200	0.325300	0.354900
C871	C87	0.917700	0.266300	0.411600
C881	C88	0.796400	0.316400	0.428100
O311	O31	0.747800	0.438500	0.386610
O321	O32	0.611100	0.929300	0.513290
C891	C89	0.647600	0.070600	0.481000
C901	C90	0.892800	0.910800	0.041800
C911	C91	0.914300	0.960900	0.117700
H461	H46	0.902500	0.775600	0.223600
C921	C92	0.940700	0.010000	0.196900
C931	C93	0.792200	0.103400	0.327000
C941	C94	0.762300	0.051400	0.253400
H471	H47	0.749400	0.231900	0.145300
C951	C95	0.733500	0.999500	0.173900
C961	C96	0.856100	0.261400	0.437800
C971	C97	0.976200	0.213000	0.422000
C981	C98	0.729600	0.307600	0.454800
H481	H48	0.758300	0.473000	0.366300
C991	C99	0.620900	0.044500	0.441300
C1001	C100	0.681300	0.158000	0.485200
H491	H49	0.882800	0.863600	0.022000
C1011	C101	0.903300	0.996800	0.027000
C1021	C102	0.924300	0.051600	0.100400
H501	H50	0.939800	0.070700	0.183200
H511	H51	0.904700	0.009700	0.219300
C1031	C103	0.010700	0.998700	0.219200
H521	H52	0.804700	0.151000	0.346000
C1041	C104	0.783600	0.015100	0.342700
C1051	C105	0.754800	0.960800	0.271300
H531	H53	0.734300	0.939700	0.188400
H541	H54	0.770300	0.998800	0.152100
C1061	C106	0.663500	0.007600	0.149700
C1071	C107	0.859000	0.202700	0.475100
C1081	C108	0.976000	0.156000	0.457700
H551	H55	0.015900	0.216100	0.404400
C1091	C109	0.689100	0.216600	0.448800
H561	H56	0.741400	0.314100	0.485500
H571	H57	0.698800	0.358600	0.447200
H581	H58	0.599000	0.987200	0.438700
C1101	C110	0.625900	0.102900	0.404000
O331	O33	0.707400	0.185500	0.524240
H591	H59	0.901400	0.009200	0.997100
C1111	C111	0.917600	0.069700	0.057500
H601	H60	0.935800	0.099700	0.119300
C1121	C112	0.018900	0.005800	0.265100
C1131	C113	0.070900	0.991500	0.192500
H611	H61	0.789500	0.002200	0.372300
C1141	C114	0.765700	0.944700	0.313200
H621	H62	0.742000	0.912000	0.253100
C1151	C115	0.657900	0.004900	0.104200
C1161	C116	0.601900	0.008300	0.174000
C1171	C117	0.919300	0.152000	0.484300
H631	H63	0.820300	0.198100	0.493400
H641	H64	0.015100	0.119800	0.463900
C1181	C118	0.660300	0.189800	0.408700
C1191	C119	0.597100	0.077400	0.363100
H651	H65	0.716200	0.139800	0.539200
H661	H66	0.922300	0.130200	0.047600
C1201	C120	0.961900	0.017100	0.293900
C1211	C121	0.087100	0.000900	0.283400
O341	O34	0.063900	0.993100	0.149210
C1221	C122	0.139500	0.982700	0.212300
H671	H67	0.761300	0.884400	0.323600
C1231	C123	0.716900	0.001500	0.074900
C1241	C124	0.591200	0.001200	0.083300
O351	O35	0.608490	0.005900	0.218600
C1251	C125	0.535500	0.009600	0.154300
H681	H68	0.920600	0.114700	0.509100
C1261	C126	0.660100	0.248600	0.371000
H691	H69	0.574900	0.020300	0.360400
C1271	C127	0.601000	0.133000	0.328200
H701	H70	0.916500	0.019800	0.283100
C1281	C128	0.973600	0.024000	0.338000
C1291	C129	0.095000	0.008400	0.329900
C1301	C130	0.145900	0.989900	0.255700
H711	H71	0.102600	0.989300	0.137700
C1311	C131	0.202000	0.975200	0.184900
H721	H72	0.761700	0.007100	0.086600
C1321	C132	0.710100	0.990700	0.031700
C1331	C133	0.585600	0.993300	0.038200
C1341	C134	0.531500	0.005900	0.109700
H731	H73	0.569600	0.000500	0.229700
C1351	C135	0.469700	0.010000	0.181000
C1361	C136	0.631700	0.219300	0.332900
H741	H74	0.679600	0.307600	0.372700
H751	H75	0.583400	0.114100	0.301200
H761	H76	0.935300	0.031300	0.356400
C1371	C137	0.039800	0.020500	0.356300
H771	H77	0.139600	0.004800	0.342000
H781	H78	0.190400	0.987500	0.268100
H791	H79	0.750300	0.986600	0.014600
C1381	C138	0.643900	0.985400	0.010900
H801	H80	0.541300	0.993100	0.025600
H811	H81	0.487700	0.006600	0.096500
O361	O36	0.411480	0.021100	0.162440
H821	H82	0.632900	0.258800	0.308800
H831	H83	0.045800	0.026500	0.386400
H841	H84	0.639600	0.977200	0.980800
Er51	Er5	0.641260	0.037800	0.747510
O371	O37	0.620240	0.159600	0.699000
O381	O38	0.667800	0.883300	0.733850
O391	O39	0.582120	0.946900	0.803150
O401	O40	0.690600	0.991800	0.816400
O411	O41	0.236600	0.470200	0.701560
O421	O42	0.027140	0.498300	0.721690
C1391	C139	0.635500	0.182900	0.660200
C1401	C140	0.693600	0.829400	0.707700
C1411	C141	0.635100	0.943600	0.827000
Er61	Er6	0.687850	0.975810	0.623270
O431	O43	0.665900	0.131100	0.632100
C1421	C142	0.616500	0.280100	0.645800
O441	O44	0.708500	0.849700	0.667440
C1431	C143	0.711900	0.732300	0.723000
C1441	C144	0.638500	0.883000	0.865900
O451	O45	0.839000	0.533000	0.055990
O461	O46	0.302700	0.479000	0.643160
C1451	C145	0.618400	0.302800	0.602100
C1461	C146	0.595400	0.349400	0.676200
C1471	C147	0.703500	0.713600	0.766400
C1481	C148	0.732900	0.660600	0.692700
C1491	C149	0.581800	0.825500	0.873800
C1501	C150	0.699000	0.878900	0.894200
C1511	C151	0.862300	0.504800	0.019100
H851	H85	0.630200	0.257100	0.582000
C1521	C152	0.603400	0.390000	0.587200
O471	O47	0.590400	0.331000	0.719350
C1531	C153	0.579700	0.438000	0.661900
H861	H86	0.688700	0.760100	0.785400
C1541	C154	0.717500	0.622200	0.783000
O481	O48	0.739100	0.677800	0.649080
C1551	C155	0.747500	0.571800	0.707400
H871	H87	0.543800	0.825300	0.854900
C1561	C156	0.582300	0.766300	0.911600
C1571	C157	0.703600	0.816400	0.928100
O491	O49	0.752200	0.938500	0.886610
O501	O50	0.888900	0.429300	0.013290
C1581	C158	0.852400	0.570600	0.981000
C1591	C159	0.607200	0.410800	0.541800
C1601	C160	0.585700	0.460900	0.617700
H881	H88	0.597500	0.275600	0.723600
C1611	C161	0.559300	0.510000	0.696900
C1621	C162	0.707800	0.603400	0.827000
C1631	C163	0.737700	0.551400	0.753400
H891	H89	0.750600	0.731900	0.645300
C1641	C164	0.766500	0.499500	0.673900
C1651	C165	0.643900	0.761400	0.937800
C1661	C166	0.523800	0.713000	0.922000
C1671	C167	0.770400	0.807600	0.954800
H901	H90	0.741700	0.973000	0.866300
C1681	C168	0.879100	0.544500	0.941300
C1691	C169	0.818700	0.658000	0.985200
H911	H91	0.617200	0.363600	0.522000
C1701	C170	0.596700	0.496800	0.527000
C1711	C171	0.575700	0.551600	0.600400
H921	H92	0.560200	0.570700	0.683200
H931	H93	0.595300	0.509700	0.719300
C1721	C172	0.489300	0.498700	0.719200
H941	H94	0.695300	0.651000	0.846000
C1731	C173	0.716400	0.515100	0.842700
C1741	C174	0.745200	0.460800	0.771300
H951	H95	0.765700	0.439700	0.688400
H961	H96	0.729700	0.498800	0.652100
C1751	C175	0.836500	0.507600	0.649700
C1761	C176	0.641000	0.702700	0.975100
C1771	C177	0.524000	0.656000	0.957700
H971	H97	0.484100	0.716100	0.904400
C1781	C178	0.810900	0.716600	0.948800
H981	H98	0.758600	0.814100	0.985500
H991	H99	0.801200	0.858600	0.947200
H1001	H100	0.901000	0.487200	0.938700
C1791	C179	0.874100	0.602900	0.904000
O511	O51	0.792600	0.685500	0.024240
H1011	H101	0.598600	0.509200	0.497100
C1801	C180	0.582400	0.569700	0.557500
H1021	H102	0.564200	0.599700	0.619300
C1811	C181	0.481100	0.505800	0.765100
C1821	C182	0.429100	0.491500	0.692500
H1031	H103	0.710500	0.502200	0.872300
C1831	C183	0.734300	0.444700	0.813200
H1041	H104	0.758000	0.412000	0.753100
C1841	C184	0.842100	0.504900	0.604200
C1851	C185	0.898100	0.508300	0.674000
C1861	C186	0.580700	0.652000	0.984300
H1051	H105	0.679700	0.698100	0.993400
H1061	H106	0.484900	0.619800	0.963900
C1871	C187	0.839700	0.689800	0.908700
C1881	C188	0.902900	0.577400	0.863100
H1071	H107	0.783800	0.639800	0.039200
H1081	H108	0.577700	0.630200	0.547600
C1891	C189	0.538100	0.517100	0.793900
C1901	C190	0.412900	0.500900	0.783400
O521	O52	0.436100	0.493100	0.649210
C1911	C191	0.360500	0.482700	0.712300
H1091	H109	0.738700	0.384400	0.823600
C1921	C192	0.783100	0.501500	0.574900
C1931	C193	0.908800	0.501200	0.583300
O531	O53	0.891510	0.505900	0.718600
C1941	C194	0.964500	0.509600	0.654300
H1101	H110	0.579400	0.614700	0.009100
C1951	C195	0.839900	0.748600	0.871000
H1111	H111	0.925100	0.520300	0.860400
C1961	C196	0.899000	0.633000	0.828200
H1121	H112	0.583500	0.519800	0.783100
C1971	C197	0.526400	0.524000	0.838000
C1981	C198	0.405000	0.508400	0.829900
C1991	C199	0.354100	0.489900	0.755700
H1131	H113	0.397400	0.489300	0.637700
C2001	C200	0.298000	0.475200	0.684900
H1141	H114	0.738300	0.507100	0.586600
C2011	C201	0.789900	0.490700	0.531700
C2021	C202	0.914400	0.493300	0.538200
C2031	C203	0.968500	0.505900	0.609700
H1151	H115	0.930400	0.500500	0.729700
C2041	C204	0.030300	0.510000	0.681000
C2051	C205	0.868300	0.719300	0.832900
H1161	H116	0.820400	0.807600	0.872700
H1171	H117	0.916600	0.614100	0.801200
H1181	H118	0.564700	0.531300	0.856400
C2061	C206	0.460200	0.520500	0.856300
H1191	H119	0.360400	0.504800	0.842000
H1201	H120	0.309600	0.487500	0.768100
H1211	H121	0.749700	0.486600	0.514600
C2071	C207	0.856100	0.485400	0.510900
H1221	H122	0.958700	0.493100	0.525600
H1231	H123	0.012300	0.506600	0.596500
O541	O54	0.088520	0.521100	0.662440
H1241	H124	0.867100	0.758800	0.808800
H1251	H125	0.454200	0.526500	0.886400
H1261	H126	0.860400	0.477200	0.480800
Er71	Er7	0.358740	0.962200	0.247510
O551	O55	0.379760	0.840400	0.199000
O561	O56	0.332200	0.116700	0.233850
O571	O57	0.417880	0.053100	0.303150
O581	O58	0.309400	0.008200	0.316400
O591	O59	0.763400	0.529800	0.201560
O601	O60	0.972860	0.501700	0.221690
C2081	C208	0.364500	0.817100	0.160200
C2091	C209	0.306400	0.170600	0.207700
C2101	C210	0.364900	0.056400	0.327000
Er81	Er8	0.312150	0.024190	0.123270
O611	O61	0.334100	0.868900	0.132100
C2111	C211	0.383500	0.719900	0.145800
O621	O62	0.291500	0.150300	0.167440
C2121	C212	0.288100	0.267700	0.223000
C2131	C213	0.361500	0.117000	0.365900
O631	O63	0.161000	0.467000	0.555990
O641	O64	0.697300	0.521000	0.143160
C2141	C214	0.381600	0.697200	0.102100
C2151	C215	0.404600	0.650600	0.176200
C2161	C216	0.296500	0.286400	0.266400
C2171	C217	0.267100	0.339400	0.192700
C2181	C218	0.418200	0.174500	0.373800
C2191	C219	0.301000	0.121100	0.394200
C2201	C220	0.137700	0.495200	0.519100
H1271	H127	0.369800	0.742900	0.082000
C2211	C221	0.396600	0.610000	0.087200
O651	O65	0.409600	0.669000	0.219350
C2221	C222	0.420300	0.562000	0.161900
H1281	H128	0.311300	0.239900	0.285400
C2231	C223	0.282500	0.377800	0.283000
O661	O66	0.260900	0.322200	0.149080
C2241	C224	0.252500	0.428200	0.207400
H1291	H129	0.456200	0.174700	0.354900
C2251	C225	0.417700	0.233700	0.411600
C2261	C226	0.296400	0.183600	0.428100
O671	O67	0.247800	0.061500	0.386610
O681	O68	0.111100	0.570700	0.513290
C2271	C227	0.147600	0.429400	0.481000
C2281	C228	0.392800	0.589200	0.041800
C2291	C229	0.414300	0.539100	0.117700
H1301	H130	0.402500	0.724400	0.223600
C2301	C230	0.440700	0.490000	0.196900
C2311	C231	0.292200	0.396600	0.327000
C2321	C232	0.262300	0.448600	0.253400
H1311	H131	0.249400	0.268100	0.145300
C2331	C233	0.233500	0.500500	0.173900
C2341	C234	0.356100	0.238600	0.437800
C2351	C235	0.476200	0.287000	0.422000
C2361	C236	0.229600	0.192400	0.454800
H1321	H132	0.258300	0.027000	0.366300
C2371	C237	0.120900	0.455500	0.441300
C2381	C238	0.181300	0.342000	0.485200
H1331	H133	0.382800	0.636400	0.022000
C2391	C239	0.403300	0.503200	0.027000
C2401	C240	0.424300	0.448400	0.100400
H1341	H134	0.439800	0.429300	0.183200
H1351	H135	0.404700	0.490300	0.219300
C2411	C241	0.510700	0.501300	0.219200
H1361	H136	0.304700	0.349000	0.346000
C2421	C242	0.283600	0.484900	0.342700
C2431	C243	0.254800	0.539200	0.271300
H1371	H137	0.234300	0.560300	0.188400
H1381	H138	0.270300	0.501200	0.152100
C2441	C244	0.163500	0.492400	0.149700
C2451	C245	0.359000	0.297300	0.475100
C2461	C246	0.476000	0.344000	0.457700
H1391	H139	0.515900	0.283900	0.404400
C2471	C247	0.189100	0.283400	0.448800
H1401	H140	0.241400	0.185900	0.485500
H1411	H141	0.198800	0.141400	0.447200
H1421	H142	0.099000	0.512800	0.438700
C2481	C248	0.125900	0.397100	0.404000
O691	O69	0.207400	0.314500	0.524240
H1431	H143	0.401400	0.490800	0.997100
C2491	C249	0.417600	0.430300	0.057500
H1441	H144	0.435800	0.400300	0.119300
C2501	C250	0.518900	0.494200	0.265100
C2511	C251	0.570900	0.508500	0.192500
H1451	H145	0.289500	0.497800	0.372300
C2521	C252	0.265700	0.555300	0.313200
H1461	H146	0.242000	0.588000	0.253100
C2531	C253	0.157900	0.495100	0.104200
C2541	C254	0.101900	0.491700	0.174000
C2551	C255	0.419300	0.348000	0.484300
H1471	H147	0.320300	0.301900	0.493400
H1481	H148	0.515100	0.380200	0.463900
C2561	C256	0.160300	0.310200	0.408700
C2571	C257	0.097100	0.422600	0.363100
H1491	H149	0.216200	0.360200	0.539200
H1501	H150	0.422300	0.369800	0.047600
C2581	C258	0.461900	0.482900	0.293900
C2591	C259	0.587100	0.499100	0.283400
O701	O70	0.563900	0.506900	0.149210
C2601	C260	0.639500	0.517300	0.212300
H1511	H151	0.261300	0.615600	0.323600
C2611	C261	0.216900	0.498500	0.074900
C2621	C262	0.091200	0.498800	0.083300
O711	O71	0.108490	0.494100	0.218600
C2631	C263	0.035500	0.490400	0.154300
H1521	H152	0.420600	0.385300	0.509100
C2641	C264	0.160100	0.251400	0.371000
H1531	H153	0.074900	0.479700	0.360400
C2651	C265	0.101000	0.367000	0.328200
H1541	H154	0.416500	0.480200	0.283100
C2661	C266	0.473600	0.476000	0.338000
C2671	C267	0.595000	0.491600	0.329900
C2681	C268	0.645900	0.510100	0.255700
H1551	H155	0.602600	0.510700	0.137700
C2691	C269	0.702000	0.524800	0.184900
H1561	H156	0.261700	0.492900	0.086600
C2701	C270	0.210100	0.509300	0.031700
C2711	C271	0.085600	0.506700	0.038200
C2721	C272	0.031500	0.494100	0.109700
H1571	H157	0.069600	0.499500	0.229700
C2731	C273	0.969700	0.490000	0.181000
C2741	C274	0.131700	0.280700	0.332900
H1581	H158	0.179600	0.192400	0.372700
H1591	H159	0.083400	0.385900	0.301200
H1601	H160	0.435300	0.468700	0.356400
C2751	C275	0.539800	0.479500	0.356300
H1611	H161	0.639600	0.495200	0.342000
H1621	H162	0.690400	0.512500	0.268100
H1631	H163	0.250300	0.513400	0.014600
C2761	C276	0.143900	0.514600	0.010900
H1641	H164	0.041300	0.506900	0.025600
H1651	H165	0.987700	0.493400	0.096500
O721	O72	0.911480	0.478900	0.162440
H1661	H166	0.132900	0.241200	0.308800
H1671	H167	0.545800	0.473500	0.386400
H1681	H168	0.139600	0.522800	0.980800
