data_ROYREE_clean_PM
_symmetry_space_group_name_H-M	'P1'
_cell_length_a	19.099400
_cell_length_b	14.418000
_cell_length_c	30.593000
_cell_angle_alpha	90.000000
_cell_angle_beta	90.000000
_cell_angle_gamma	90.000000
_symmetry_Int_Tables_number 1

loop_
_symmetry_equiv_pos_as_xyz
'x,y,z'

loop_
_atom_site_label
_atom_site_type_symbol
_atom_site_fract_x
_atom_site_fract_y
_atom_site_fract_z
Ho11	Ho1	0.311450	0.027250	0.370800
Ho21	Ho2	0.357510	0.964800	0.246810
O11	O1	0.377940	0.841460	0.295360
O21	O2	0.334280	0.870900	0.362470
O31	O3	0.408550	0.671400	0.274740
H11	H1	0.402800	0.727200	0.270700
O41	O4	0.695540	0.518400	0.351400
O51	O5	0.761240	0.527580	0.293300
O61	O6	0.561040	0.505800	0.345170
H21	H2	0.599600	0.504900	0.356900
O71	O7	0.109500	0.574600	0.980810
O81	O8	0.160600	0.470500	0.938280
O91	O9	0.206700	0.318400	0.970040
H31	H3	0.201100	0.359600	0.951900
O101	O10	0.416220	0.055300	0.190320
O111	O11	0.308470	0.011800	0.177350
O121	O12	0.244810	0.066000	0.108560
H41	H4	0.254400	0.031800	0.129100
O131	O13	0.830270	0.379400	0.259810
O141	O14	0.790210	0.346700	0.326510
O151	O15	0.758920	0.174600	0.344780
H51	H5	0.739800	0.224900	0.348300
O161	O16	0.410570	0.023000	0.330830
O171	O17	0.472970	0.999500	0.271890
O181	O18	0.607750	0.005800	0.275790
H61	H6	0.568900	0.001700	0.264600
C11	C1	0.363600	0.818400	0.334880
C21	C2	0.382300	0.722600	0.348690
C31	C3	0.379300	0.700300	0.391830
H71	H7	0.366600	0.746000	0.411700
C41	C4	0.394600	0.611300	0.407630
C51	C5	0.391000	0.589600	0.452840
H81	H8	0.381900	0.636800	0.472800
C61	C6	0.400300	0.502500	0.467600
H91	H9	0.397100	0.489400	0.497300
C71	C7	0.415200	0.431300	0.437200
H101	H10	0.420300	0.370900	0.447300
C81	C8	0.422000	0.447800	0.394200
H111	H11	0.432900	0.399200	0.375400
C91	C9	0.412760	0.540400	0.376820
C101	C10	0.418980	0.563900	0.332040
C111	C11	0.403240	0.652500	0.318310
C121	C12	0.438500	0.490400	0.297480
H121	H12	0.436800	0.429800	0.311200
H131	H13	0.403000	0.491300	0.274800
C131	C13	0.509600	0.501800	0.276020
C141	C14	0.516700	0.496300	0.229220
C151	C15	0.460700	0.485600	0.200670
H141	H14	0.415200	0.484500	0.211600
C161	C16	0.471900	0.476500	0.156300
H151	H15	0.433600	0.467900	0.138000
C171	C17	0.539100	0.480000	0.137900
H161	H16	0.545500	0.473600	0.108000
C181	C18	0.593800	0.492500	0.164360
H171	H17	0.638300	0.496400	0.152200
C191	C19	0.586400	0.500300	0.210970
C201	C20	0.644300	0.510400	0.237880
H181	H18	0.688700	0.513700	0.225500
C211	C21	0.637400	0.515700	0.282730
C221	C22	0.569100	0.508300	0.301480
C231	C23	0.701100	0.522800	0.310240
C241	C24	0.469200	0.011000	0.312720
C251	C25	0.534200	0.009800	0.339500
C261	C26	0.529200	0.005500	0.384570
H191	H19	0.485100	0.006200	0.397500
C271	C27	0.588200	0.000100	0.411100
C281	C28	0.583000	0.988500	0.456500
H201	H20	0.538800	0.985900	0.469200
C291	C29	0.640200	0.981000	0.482500
H211	H21	0.635400	0.972800	0.512500
C301	C30	0.706700	0.985800	0.463200
H221	H22	0.746200	0.980900	0.480800
C311	C31	0.714700	0.997200	0.419900
H231	H23	0.759800	0.001900	0.408600
C321	C32	0.656100	0.002500	0.390400
C331	C33	0.662800	0.005200	0.344230
C341	C34	0.601200	0.006300	0.319680
C351	C35	0.732500	0.997000	0.321130
H241	H24	0.734100	0.936600	0.307200
H251	H25	0.768900	0.997800	0.343300
C361	C36	0.751200	0.068700	0.287060
C371	C37	0.760700	0.047500	0.241870
C381	C38	0.751600	0.957000	0.223800
H261	H26	0.737800	0.908500	0.241900
C391	C39	0.762800	0.940400	0.180700
H271	H27	0.758600	0.880000	0.170300
C401	C40	0.780100	0.010500	0.151900
H281	H28	0.785000	0.998000	0.122200
C411	C41	0.790100	0.098700	0.167530
H291	H29	0.803000	0.146000	0.148500
C421	C42	0.780900	0.117700	0.212230
C431	C43	0.794000	0.208300	0.228260
H301	H30	0.808200	0.254800	0.209100
C441	C44	0.786000	0.227600	0.271570
C451	C45	0.765500	0.157500	0.301570
C461	C46	0.803600	0.325600	0.286670
C471	C47	0.362900	0.059500	0.167350
C481	C48	0.359800	0.120300	0.128220
C491	C49	0.416100	0.174600	0.118290
H311	H31	0.455600	0.171300	0.136000
C501	C50	0.417100	0.235200	0.082500
C511	C51	0.476000	0.286800	0.071300
H321	H32	0.516000	0.282300	0.088500
C521	C52	0.476500	0.343400	0.036200
H331	H33	0.515900	0.378900	0.030100
C531	C53	0.418900	0.348500	0.009500
H341	H34	0.420800	0.385400	0.984600
C541	C54	0.357500	0.299800	0.018880
H351	H35	0.318800	0.304900	0.000600
C551	C55	0.354600	0.242800	0.056380
C561	C56	0.294300	0.187600	0.066570
C571	C57	0.299800	0.123700	0.100540
C581	C58	0.226200	0.197600	0.040350
H361	H36	0.237000	0.189500	0.009600
H371	H37	0.194900	0.147800	0.048800
C591	C59	0.188000	0.287900	0.045660
C601	C60	0.158300	0.315500	0.086380
C611	C61	0.159200	0.257000	0.123660
H381	H38	0.179500	0.198500	0.121900
C621	C62	0.130600	0.286200	0.161850
H391	H39	0.131700	0.247000	0.186000
C631	C63	0.099500	0.373100	0.165960
H401	H40	0.081900	0.392000	0.192900
C641	C64	0.094700	0.430400	0.130900
H411	H41	0.072200	0.487300	0.133500
C651	C65	0.124100	0.403000	0.090040
C661	C66	0.120100	0.460400	0.053030
H421	H42	0.099000	0.518300	0.055700
C671	C67	0.146100	0.434200	0.013370
C681	C68	0.180100	0.346900	0.009650
C691	C69	0.136800	0.500200	0.975790
Ho31	Ho3	0.688550	0.972750	0.870800
Ho41	Ho4	0.642490	0.035200	0.746810
O191	O19	0.622060	0.158540	0.795360
O201	O20	0.665720	0.129100	0.862470
O211	O21	0.591450	0.328600	0.774740
H431	H43	0.597200	0.272800	0.770700
O221	O22	0.304460	0.481600	0.851400
O231	O23	0.238760	0.472420	0.793300
O241	O24	0.438960	0.494200	0.845170
H441	H44	0.400400	0.495100	0.856900
O251	O25	0.890500	0.425400	0.480810
O261	O26	0.839400	0.529500	0.438280
O271	O27	0.793300	0.681600	0.470040
H451	H45	0.798900	0.640400	0.451900
O281	O28	0.583780	0.944700	0.690320
O291	O29	0.691530	0.988200	0.677350
O301	O30	0.755190	0.934000	0.608560
H461	H46	0.745600	0.968200	0.629100
O311	O31	0.169730	0.620600	0.759810
O321	O32	0.209790	0.653300	0.826510
O331	O33	0.241080	0.825400	0.844780
H471	H47	0.260200	0.775100	0.848300
O341	O34	0.589430	0.977000	0.830830
O351	O35	0.527030	0.000500	0.771890
O361	O36	0.392250	0.994200	0.775790
H481	H48	0.431100	0.998300	0.764600
C701	C70	0.636400	0.181600	0.834880
C711	C71	0.617700	0.277400	0.848690
C721	C72	0.620700	0.299700	0.891830
H491	H49	0.633400	0.254000	0.911700
C731	C73	0.605400	0.388700	0.907630
C741	C74	0.609000	0.410400	0.952840
H501	H50	0.618100	0.363200	0.972800
C751	C75	0.599700	0.497500	0.967600
H511	H51	0.602900	0.510600	0.997300
C761	C76	0.584800	0.568700	0.937200
H521	H52	0.579700	0.629100	0.947300
C771	C77	0.578000	0.552200	0.894200
H531	H53	0.567100	0.600800	0.875400
C781	C78	0.587240	0.459600	0.876820
C791	C79	0.581020	0.436100	0.832040
C801	C80	0.596760	0.347500	0.818310
C811	C81	0.561500	0.509600	0.797480
H541	H54	0.563200	0.570200	0.811200
H551	H55	0.597000	0.508700	0.774800
C821	C82	0.490400	0.498200	0.776020
C831	C83	0.483300	0.503700	0.729220
C841	C84	0.539300	0.514400	0.700670
H561	H56	0.584800	0.515500	0.711600
C851	C85	0.528100	0.523500	0.656300
H571	H57	0.566400	0.532100	0.638000
C861	C86	0.460900	0.520000	0.637900
H581	H58	0.454500	0.526400	0.608000
C871	C87	0.406200	0.507500	0.664360
H591	H59	0.361700	0.503600	0.652200
C881	C88	0.413600	0.499700	0.710970
C891	C89	0.355700	0.489600	0.737880
H601	H60	0.311300	0.486300	0.725500
C901	C90	0.362600	0.484300	0.782730
C911	C91	0.430900	0.491700	0.801480
C921	C92	0.298900	0.477200	0.810240
C931	C93	0.530800	0.989000	0.812720
C941	C94	0.465800	0.990200	0.839500
C951	C95	0.470800	0.994500	0.884570
H611	H61	0.514900	0.993800	0.897500
C961	C96	0.411800	0.999900	0.911100
C971	C97	0.417000	0.011500	0.956500
H621	H62	0.461200	0.014100	0.969200
C981	C98	0.359800	0.019000	0.982500
H631	H63	0.364600	0.027200	0.012500
C991	C99	0.293300	0.014200	0.963200
H641	H64	0.253800	0.019100	0.980800
C1001	C100	0.285300	0.002800	0.919900
H651	H65	0.240200	0.998100	0.908600
C1011	C101	0.343900	0.997500	0.890400
C1021	C102	0.337200	0.994800	0.844230
C1031	C103	0.398800	0.993700	0.819680
C1041	C104	0.267500	0.003000	0.821130
H661	H66	0.265900	0.063400	0.807200
H671	H67	0.231100	0.002200	0.843300
C1051	C105	0.248800	0.931300	0.787060
C1061	C106	0.239300	0.952500	0.741870
C1071	C107	0.248400	0.043000	0.723800
H681	H68	0.262200	0.091500	0.741900
C1081	C108	0.237200	0.059600	0.680700
H691	H69	0.241400	0.120000	0.670300
C1091	C109	0.219900	0.989500	0.651900
H701	H70	0.215000	0.002000	0.622200
C1101	C110	0.209900	0.901300	0.667530
H711	H71	0.197000	0.854000	0.648500
C1111	C111	0.219100	0.882300	0.712230
C1121	C112	0.206000	0.791700	0.728260
H721	H72	0.191800	0.745200	0.709100
C1131	C113	0.214000	0.772400	0.771570
C1141	C114	0.234500	0.842500	0.801570
C1151	C115	0.196400	0.674400	0.786670
C1161	C116	0.637100	0.940500	0.667350
C1171	C117	0.640200	0.879700	0.628220
C1181	C118	0.583900	0.825400	0.618290
H731	H73	0.544400	0.828700	0.636000
C1191	C119	0.582900	0.764800	0.582500
C1201	C120	0.524000	0.713200	0.571300
H741	H74	0.484000	0.717700	0.588500
C1211	C121	0.523500	0.656600	0.536200
H751	H75	0.484100	0.621100	0.530100
C1221	C122	0.581100	0.651500	0.509500
H761	H76	0.579200	0.614600	0.484600
C1231	C123	0.642500	0.700200	0.518880
H771	H77	0.681200	0.695100	0.500600
C1241	C124	0.645400	0.757200	0.556380
C1251	C125	0.705700	0.812400	0.566570
C1261	C126	0.700200	0.876300	0.600540
C1271	C127	0.773800	0.802400	0.540350
H781	H78	0.763000	0.810500	0.509600
H791	H79	0.805100	0.852200	0.548800
C1281	C128	0.812000	0.712100	0.545660
C1291	C129	0.841700	0.684500	0.586380
C1301	C130	0.840800	0.743000	0.623660
H801	H80	0.820500	0.801500	0.621900
C1311	C131	0.869400	0.713800	0.661850
H811	H81	0.868300	0.753000	0.686000
C1321	C132	0.900500	0.626900	0.665960
H821	H82	0.918100	0.608000	0.692900
C1331	C133	0.905300	0.569600	0.630900
H831	H83	0.927800	0.512700	0.633500
C1341	C134	0.875900	0.597000	0.590040
C1351	C135	0.879900	0.539600	0.553030
H841	H84	0.901000	0.481700	0.555700
C1361	C136	0.853900	0.565800	0.513370
C1371	C137	0.819900	0.653100	0.509650
C1381	C138	0.863200	0.499800	0.475790
Ho51	Ho5	0.811450	0.472750	0.370800
Ho61	Ho6	0.857510	0.535200	0.246810
O371	O37	0.877940	0.658540	0.295360
O381	O38	0.834280	0.629100	0.362470
O391	O39	0.908550	0.828600	0.274740
H851	H85	0.902800	0.772800	0.270700
O401	O40	0.195540	0.981600	0.351400
O411	O41	0.261240	0.972420	0.293300
O421	O42	0.061040	0.994200	0.345170
H861	H86	0.099600	0.995100	0.356900
O431	O43	0.609500	0.925400	0.980810
O441	O44	0.660600	0.029500	0.938280
O451	O45	0.706700	0.181600	0.970040
H871	H87	0.701100	0.140400	0.951900
O461	O46	0.916220	0.444700	0.190320
O471	O47	0.808470	0.488200	0.177350
O481	O48	0.744810	0.434000	0.108560
H881	H88	0.754400	0.468200	0.129100
O491	O49	0.330270	0.120600	0.259810
O501	O50	0.290210	0.153300	0.326510
O511	O51	0.258920	0.325400	0.344780
H891	H89	0.239800	0.275100	0.348300
O521	O52	0.910570	0.477000	0.330830
O531	O53	0.972970	0.500500	0.271890
O541	O54	0.107750	0.494200	0.275790
H901	H90	0.068900	0.498300	0.264600
C1391	C139	0.863600	0.681600	0.334880
C1401	C140	0.882300	0.777400	0.348690
C1411	C141	0.879300	0.799700	0.391830
H911	H91	0.866600	0.754000	0.411700
C1421	C142	0.894600	0.888700	0.407630
C1431	C143	0.891000	0.910400	0.452840
H921	H92	0.881900	0.863200	0.472800
C1441	C144	0.900300	0.997500	0.467600
H931	H93	0.897100	0.010600	0.497300
C1451	C145	0.915200	0.068700	0.437200
H941	H94	0.920300	0.129100	0.447300
C1461	C146	0.922000	0.052200	0.394200
H951	H95	0.932900	0.100800	0.375400
C1471	C147	0.912760	0.959600	0.376820
C1481	C148	0.918980	0.936100	0.332040
C1491	C149	0.903240	0.847500	0.318310
C1501	C150	0.938500	0.009600	0.297480
H961	H96	0.936800	0.070200	0.311200
H971	H97	0.903000	0.008700	0.274800
C1511	C151	0.009600	0.998200	0.276020
C1521	C152	0.016700	0.003700	0.229220
C1531	C153	0.960700	0.014400	0.200670
H981	H98	0.915200	0.015500	0.211600
C1541	C154	0.971900	0.023500	0.156300
H991	H99	0.933600	0.032100	0.138000
C1551	C155	0.039100	0.020000	0.137900
H1001	H100	0.045500	0.026400	0.108000
C1561	C156	0.093800	0.007500	0.164360
H1011	H101	0.138300	0.003600	0.152200
C1571	C157	0.086400	0.999700	0.210970
C1581	C158	0.144300	0.989600	0.237880
H1021	H102	0.188700	0.986300	0.225500
C1591	C159	0.137400	0.984300	0.282730
C1601	C160	0.069100	0.991700	0.301480
C1611	C161	0.201100	0.977200	0.310240
C1621	C162	0.969200	0.489000	0.312720
C1631	C163	0.034200	0.490200	0.339500
C1641	C164	0.029200	0.494500	0.384570
H1031	H103	0.985100	0.493800	0.397500
C1651	C165	0.088200	0.499900	0.411100
C1661	C166	0.083000	0.511500	0.456500
H1041	H104	0.038800	0.514100	0.469200
C1671	C167	0.140200	0.519000	0.482500
H1051	H105	0.135400	0.527200	0.512500
C1681	C168	0.206700	0.514200	0.463200
H1061	H106	0.246200	0.519100	0.480800
C1691	C169	0.214700	0.502800	0.419900
H1071	H107	0.259800	0.498100	0.408600
C1701	C170	0.156100	0.497500	0.390400
C1711	C171	0.162800	0.494800	0.344230
C1721	C172	0.101200	0.493700	0.319680
C1731	C173	0.232500	0.503000	0.321130
H1081	H108	0.234100	0.563400	0.307200
H1091	H109	0.268900	0.502200	0.343300
C1741	C174	0.251200	0.431300	0.287060
C1751	C175	0.260700	0.452500	0.241870
C1761	C176	0.251600	0.543000	0.223800
H1101	H110	0.237800	0.591500	0.241900
C1771	C177	0.262800	0.559600	0.180700
H1111	H111	0.258600	0.620000	0.170300
C1781	C178	0.280100	0.489500	0.151900
H1121	H112	0.285000	0.502000	0.122200
C1791	C179	0.290100	0.401300	0.167530
H1131	H113	0.303000	0.354000	0.148500
C1801	C180	0.280900	0.382300	0.212230
C1811	C181	0.294000	0.291700	0.228260
H1141	H114	0.308200	0.245200	0.209100
C1821	C182	0.286000	0.272400	0.271570
C1831	C183	0.265500	0.342500	0.301570
C1841	C184	0.303600	0.174400	0.286670
C1851	C185	0.862900	0.440500	0.167350
C1861	C186	0.859800	0.379700	0.128220
C1871	C187	0.916100	0.325400	0.118290
H1151	H115	0.955600	0.328700	0.136000
C1881	C188	0.917100	0.264800	0.082500
C1891	C189	0.976000	0.213200	0.071300
H1161	H116	0.016000	0.217700	0.088500
C1901	C190	0.976500	0.156600	0.036200
H1171	H117	0.015900	0.121100	0.030100
C1911	C191	0.918900	0.151500	0.009500
H1181	H118	0.920800	0.114600	0.984600
C1921	C192	0.857500	0.200200	0.018880
H1191	H119	0.818800	0.195100	0.000600
C1931	C193	0.854600	0.257200	0.056380
C1941	C194	0.794300	0.312400	0.066570
C1951	C195	0.799800	0.376300	0.100540
C1961	C196	0.726200	0.302400	0.040350
H1201	H120	0.737000	0.310500	0.009600
H1211	H121	0.694900	0.352200	0.048800
C1971	C197	0.688000	0.212100	0.045660
C1981	C198	0.658300	0.184500	0.086380
C1991	C199	0.659200	0.243000	0.123660
H1221	H122	0.679500	0.301500	0.121900
C2001	C200	0.630600	0.213800	0.161850
H1231	H123	0.631700	0.253000	0.186000
C2011	C201	0.599500	0.126900	0.165960
H1241	H124	0.581900	0.108000	0.192900
C2021	C202	0.594700	0.069600	0.130900
H1251	H125	0.572200	0.012700	0.133500
C2031	C203	0.624100	0.097000	0.090040
C2041	C204	0.620100	0.039600	0.053030
H1261	H126	0.599000	0.981700	0.055700
C2051	C205	0.646100	0.065800	0.013370
C2061	C206	0.680100	0.153100	0.009650
C2071	C207	0.636800	0.999800	0.975790
Ho71	Ho7	0.188550	0.527250	0.870800
Ho81	Ho8	0.142490	0.464800	0.746810
O551	O55	0.122060	0.341460	0.795360
O561	O56	0.165720	0.370900	0.862470
O571	O57	0.091450	0.171400	0.774740
H1271	H127	0.097200	0.227200	0.770700
O581	O58	0.804460	0.018400	0.851400
O591	O59	0.738760	0.027580	0.793300
O601	O60	0.938960	0.005800	0.845170
H1281	H128	0.900400	0.004900	0.856900
O611	O61	0.390500	0.074600	0.480810
O621	O62	0.339400	0.970500	0.438280
O631	O63	0.293300	0.818400	0.470040
H1291	H129	0.298900	0.859600	0.451900
O641	O64	0.083780	0.555300	0.690320
O651	O65	0.191530	0.511800	0.677350
O661	O66	0.255190	0.566000	0.608560
H1301	H130	0.245600	0.531800	0.629100
O671	O67	0.669730	0.879400	0.759810
O681	O68	0.709790	0.846700	0.826510
O691	O69	0.741080	0.674600	0.844780
H1311	H131	0.760200	0.724900	0.848300
O701	O70	0.089430	0.523000	0.830830
O711	O71	0.027030	0.499500	0.771890
O721	O72	0.892250	0.505800	0.775790
H1321	H132	0.931100	0.501700	0.764600
C2081	C208	0.136400	0.318400	0.834880
C2091	C209	0.117700	0.222600	0.848690
C2101	C210	0.120700	0.200300	0.891830
H1331	H133	0.133400	0.246000	0.911700
C2111	C211	0.105400	0.111300	0.907630
C2121	C212	0.109000	0.089600	0.952840
H1341	H134	0.118100	0.136800	0.972800
C2131	C213	0.099700	0.002500	0.967600
H1351	H135	0.102900	0.989400	0.997300
C2141	C214	0.084800	0.931300	0.937200
H1361	H136	0.079700	0.870900	0.947300
C2151	C215	0.078000	0.947800	0.894200
H1371	H137	0.067100	0.899200	0.875400
C2161	C216	0.087240	0.040400	0.876820
C2171	C217	0.081020	0.063900	0.832040
C2181	C218	0.096760	0.152500	0.818310
C2191	C219	0.061500	0.990400	0.797480
H1381	H138	0.063200	0.929800	0.811200
H1391	H139	0.097000	0.991300	0.774800
C2201	C220	0.990400	0.001800	0.776020
C2211	C221	0.983300	0.996300	0.729220
C2221	C222	0.039300	0.985600	0.700670
H1401	H140	0.084800	0.984500	0.711600
C2231	C223	0.028100	0.976500	0.656300
H1411	H141	0.066400	0.967900	0.638000
C2241	C224	0.960900	0.980000	0.637900
H1421	H142	0.954500	0.973600	0.608000
C2251	C225	0.906200	0.992500	0.664360
H1431	H143	0.861700	0.996400	0.652200
C2261	C226	0.913600	0.000300	0.710970
C2271	C227	0.855700	0.010400	0.737880
H1441	H144	0.811300	0.013700	0.725500
C2281	C228	0.862600	0.015700	0.782730
C2291	C229	0.930900	0.008300	0.801480
C2301	C230	0.798900	0.022800	0.810240
C2311	C231	0.030800	0.511000	0.812720
C2321	C232	0.965800	0.509800	0.839500
C2331	C233	0.970800	0.505500	0.884570
H1451	H145	0.014900	0.506200	0.897500
C2341	C234	0.911800	0.500100	0.911100
C2351	C235	0.917000	0.488500	0.956500
H1461	H146	0.961200	0.485900	0.969200
C2361	C236	0.859800	0.481000	0.982500
H1471	H147	0.864600	0.472800	0.012500
C2371	C237	0.793300	0.485800	0.963200
H1481	H148	0.753800	0.480900	0.980800
C2381	C238	0.785300	0.497200	0.919900
H1491	H149	0.740200	0.501900	0.908600
C2391	C239	0.843900	0.502500	0.890400
C2401	C240	0.837200	0.505200	0.844230
C2411	C241	0.898800	0.506300	0.819680
C2421	C242	0.767500	0.497000	0.821130
H1501	H150	0.765900	0.436600	0.807200
H1511	H151	0.731100	0.497800	0.843300
C2431	C243	0.748800	0.568700	0.787060
C2441	C244	0.739300	0.547500	0.741870
C2451	C245	0.748400	0.457000	0.723800
H1521	H152	0.762200	0.408500	0.741900
C2461	C246	0.737200	0.440400	0.680700
H1531	H153	0.741400	0.380000	0.670300
C2471	C247	0.719900	0.510500	0.651900
H1541	H154	0.715000	0.498000	0.622200
C2481	C248	0.709900	0.598700	0.667530
H1551	H155	0.697000	0.646000	0.648500
C2491	C249	0.719100	0.617700	0.712230
C2501	C250	0.706000	0.708300	0.728260
H1561	H156	0.691800	0.754800	0.709100
C2511	C251	0.714000	0.727600	0.771570
C2521	C252	0.734500	0.657500	0.801570
C2531	C253	0.696400	0.825600	0.786670
C2541	C254	0.137100	0.559500	0.667350
C2551	C255	0.140200	0.620300	0.628220
C2561	C256	0.083900	0.674600	0.618290
H1571	H157	0.044400	0.671300	0.636000
C2571	C257	0.082900	0.735200	0.582500
C2581	C258	0.024000	0.786800	0.571300
H1581	H158	0.984000	0.782300	0.588500
C2591	C259	0.023500	0.843400	0.536200
H1591	H159	0.984100	0.878900	0.530100
C2601	C260	0.081100	0.848500	0.509500
H1601	H160	0.079200	0.885400	0.484600
C2611	C261	0.142500	0.799800	0.518880
H1611	H161	0.181200	0.804900	0.500600
C2621	C262	0.145400	0.742800	0.556380
C2631	C263	0.205700	0.687600	0.566570
C2641	C264	0.200200	0.623700	0.600540
C2651	C265	0.273800	0.697600	0.540350
H1621	H162	0.263000	0.689500	0.509600
H1631	H163	0.305100	0.647800	0.548800
C2661	C266	0.312000	0.787900	0.545660
C2671	C267	0.341700	0.815500	0.586380
C2681	C268	0.340800	0.757000	0.623660
H1641	H164	0.320500	0.698500	0.621900
C2691	C269	0.369400	0.786200	0.661850
H1651	H165	0.368300	0.747000	0.686000
C2701	C270	0.400500	0.873100	0.665960
H1661	H166	0.418100	0.892000	0.692900
C2711	C271	0.405300	0.930400	0.630900
H1671	H167	0.427800	0.987300	0.633500
C2721	C272	0.375900	0.903000	0.590040
C2731	C273	0.379900	0.960400	0.553030
H1681	H168	0.401000	0.018300	0.555700
C2741	C274	0.353900	0.934200	0.513370
C2751	C275	0.319900	0.846900	0.509650
C2761	C276	0.363200	0.000200	0.475790
