data_RUBGUS_clean_PM
_symmetry_space_group_name_H-M	'P1'
_cell_length_a	22.739000
_cell_length_b	16.038000
_cell_length_c	9.704600
_cell_angle_alpha	90.000000
_cell_angle_beta	94.000000
_cell_angle_gamma	90.000000
_symmetry_Int_Tables_number 1

loop_
_symmetry_equiv_pos_as_xyz
'x,y,z'

loop_
_atom_site_label
_atom_site_type_symbol
_atom_site_fract_x
_atom_site_fract_y
_atom_site_fract_z
S11	S1	0.858870	0.414360	0.510290
S21	S2	0.835040	0.521860	0.600110
C11	C1	0.942710	0.174280	0.953200
C21	C2	0.917420	0.235480	0.848200
C31	C3	0.924040	0.223120	0.708400
H11	H1	0.942300	0.173100	0.680600
C41	C4	0.879360	0.347450	0.651900
C51	C5	0.868740	0.363900	0.788200
H21	H2	0.848300	0.412800	0.812600
C61	C6	0.888780	0.307000	0.887200
H31	H3	0.882900	0.316800	0.981800
C71	C7	0.759790	0.506320	0.636600
C81	C8	0.671610	0.434600	0.620700
H41	H4	0.647900	0.390200	0.583500
C91	C9	0.647280	0.491240	0.707800
C101	C10	0.681700	0.557480	0.755900
H51	H5	0.665900	0.597300	0.815600
C111	C11	0.738330	0.566420	0.718500
H61	H6	0.761800	0.612900	0.748500
C121	C12	0.586340	0.477080	0.753400
N11	N1	0.906030	0.278150	0.611400
N21	N2	0.728500	0.440480	0.586500
O11	O1	0.967200	0.111140	0.907800
O21	O2	0.939140	0.192440	0.078000
O31	O3	0.552140	0.433100	0.671170
O41	O4	0.574220	0.506410	0.866840
S31	S3	0.358870	0.914360	0.510290
S41	S4	0.335040	0.021860	0.600110
C131	C13	0.442710	0.674280	0.953200
C141	C14	0.417420	0.735480	0.848200
C151	C15	0.424040	0.723120	0.708400
H71	H7	0.442300	0.673100	0.680600
C161	C16	0.379360	0.847450	0.651900
C171	C17	0.368740	0.863900	0.788200
H81	H8	0.348300	0.912800	0.812600
C181	C18	0.388780	0.807000	0.887200
H91	H9	0.382900	0.816800	0.981800
C191	C19	0.259790	0.006320	0.636600
C201	C20	0.171610	0.934600	0.620700
H101	H10	0.147900	0.890200	0.583500
C211	C21	0.147280	0.991240	0.707800
C221	C22	0.181700	0.057480	0.755900
H111	H11	0.165900	0.097300	0.815600
C231	C23	0.238330	0.066420	0.718500
H121	H12	0.261800	0.112900	0.748500
C241	C24	0.086340	0.977080	0.753400
N31	N3	0.406030	0.778150	0.611400
N41	N4	0.228500	0.940480	0.586500
O51	O5	0.467200	0.611140	0.907800
O61	O6	0.439140	0.692440	0.078000
O71	O7	0.052140	0.933100	0.671170
O81	O8	0.074220	0.006410	0.866840
S51	S5	0.141130	0.414360	0.989710
S61	S6	0.164960	0.521860	0.899890
C251	C25	0.057290	0.174280	0.546800
C261	C26	0.082580	0.235480	0.651800
C271	C27	0.075960	0.223120	0.791600
H131	H13	0.057700	0.173100	0.819400
C281	C28	0.120640	0.347450	0.848100
C291	C29	0.131260	0.363900	0.711800
H141	H14	0.151700	0.412800	0.687400
C301	C30	0.111220	0.307000	0.612800
H151	H15	0.117100	0.316800	0.518200
C311	C31	0.240210	0.506320	0.863400
C321	C32	0.328390	0.434600	0.879300
H161	H16	0.352100	0.390200	0.916500
C331	C33	0.352720	0.491240	0.792200
C341	C34	0.318300	0.557480	0.744100
H171	H17	0.334100	0.597300	0.684400
C351	C35	0.261670	0.566420	0.781500
H181	H18	0.238200	0.612900	0.751500
C361	C36	0.413660	0.477080	0.746600
N51	N5	0.093970	0.278150	0.888600
N61	N6	0.271500	0.440480	0.913500
O91	O9	0.032800	0.111140	0.592200
O101	O10	0.060860	0.192440	0.422000
O111	O11	0.447860	0.433100	0.828830
O121	O12	0.425780	0.506410	0.633160
S71	S7	0.641130	0.914360	0.989710
S81	S8	0.664960	0.021860	0.899890
C371	C37	0.557290	0.674280	0.546800
C381	C38	0.582580	0.735480	0.651800
C391	C39	0.575960	0.723120	0.791600
H191	H19	0.557700	0.673100	0.819400
C401	C40	0.620640	0.847450	0.848100
C411	C41	0.631260	0.863900	0.711800
H201	H20	0.651700	0.912800	0.687400
C421	C42	0.611220	0.807000	0.612800
H211	H21	0.617100	0.816800	0.518200
C431	C43	0.740210	0.006320	0.863400
C441	C44	0.828390	0.934600	0.879300
H221	H22	0.852100	0.890200	0.916500
C451	C45	0.852720	0.991240	0.792200
C461	C46	0.818300	0.057480	0.744100
H231	H23	0.834100	0.097300	0.684400
C471	C47	0.761670	0.066420	0.781500
H241	H24	0.738200	0.112900	0.751500
C481	C48	0.913660	0.977080	0.746600
N71	N7	0.593970	0.778150	0.888600
N81	N8	0.771500	0.940480	0.913500
O131	O13	0.532800	0.611140	0.592200
O141	O14	0.560860	0.692440	0.422000
O151	O15	0.947860	0.933100	0.828830
O161	O16	0.925780	0.006410	0.633160
S91	S9	0.141130	0.585640	0.489710
S101	S10	0.164960	0.478140	0.399890
C491	C49	0.057290	0.825720	0.046800
C501	C50	0.082580	0.764520	0.151800
C511	C51	0.075960	0.776880	0.291600
H251	H25	0.057700	0.826900	0.319400
C521	C52	0.120640	0.652550	0.348100
C531	C53	0.131260	0.636100	0.211800
H261	H26	0.151700	0.587200	0.187400
C541	C54	0.111220	0.693000	0.112800
H271	H27	0.117100	0.683200	0.018200
C551	C55	0.240210	0.493680	0.363400
C561	C56	0.328390	0.565400	0.379300
H281	H28	0.352100	0.609800	0.416500
C571	C57	0.352720	0.508760	0.292200
C581	C58	0.318300	0.442520	0.244100
H291	H29	0.334100	0.402700	0.184400
C591	C59	0.261670	0.433580	0.281500
H301	H30	0.238200	0.387100	0.251500
C601	C60	0.413660	0.522920	0.246600
N91	N9	0.093970	0.721850	0.388600
N101	N10	0.271500	0.559520	0.413500
O171	O17	0.032800	0.888860	0.092200
O181	O18	0.060860	0.807560	0.922000
O191	O19	0.447860	0.566900	0.328830
O201	O20	0.425780	0.493590	0.133160
S111	S11	0.641130	0.085640	0.489710
S121	S12	0.664960	0.978140	0.399890
C611	C61	0.557290	0.325720	0.046800
C621	C62	0.582580	0.264520	0.151800
C631	C63	0.575960	0.276880	0.291600
H311	H31	0.557700	0.326900	0.319400
C641	C64	0.620640	0.152550	0.348100
C651	C65	0.631260	0.136100	0.211800
H321	H32	0.651700	0.087200	0.187400
C661	C66	0.611220	0.193000	0.112800
H331	H33	0.617100	0.183200	0.018200
C671	C67	0.740210	0.993680	0.363400
C681	C68	0.828390	0.065400	0.379300
H341	H34	0.852100	0.109800	0.416500
C691	C69	0.852720	0.008760	0.292200
C701	C70	0.818300	0.942520	0.244100
H351	H35	0.834100	0.902700	0.184400
C711	C71	0.761670	0.933580	0.281500
H361	H36	0.738200	0.887100	0.251500
C721	C72	0.913660	0.022920	0.246600
N111	N11	0.593970	0.221850	0.388600
N121	N12	0.771500	0.059520	0.413500
O211	O21	0.532800	0.388860	0.092200
O221	O22	0.560860	0.307560	0.922000
O231	O23	0.947860	0.066900	0.328830
O241	O24	0.925780	0.993590	0.133160
S131	S13	0.858870	0.585640	0.010290
S141	S14	0.835040	0.478140	0.100110
C731	C73	0.942710	0.825720	0.453200
C741	C74	0.917420	0.764520	0.348200
C751	C75	0.924040	0.776880	0.208400
H371	H37	0.942300	0.826900	0.180600
C761	C76	0.879360	0.652550	0.151900
C771	C77	0.868740	0.636100	0.288200
H381	H38	0.848300	0.587200	0.312600
C781	C78	0.888780	0.693000	0.387200
H391	H39	0.882900	0.683200	0.481800
C791	C79	0.759790	0.493680	0.136600
C801	C80	0.671610	0.565400	0.120700
H401	H40	0.647900	0.609800	0.083500
C811	C81	0.647280	0.508760	0.207800
C821	C82	0.681700	0.442520	0.255900
H411	H41	0.665900	0.402700	0.315600
C831	C83	0.738330	0.433580	0.218500
H421	H42	0.761800	0.387100	0.248500
C841	C84	0.586340	0.522920	0.253400
N131	N13	0.906030	0.721850	0.111400
N141	N14	0.728500	0.559520	0.086500
O251	O25	0.967200	0.888860	0.407800
O261	O26	0.939140	0.807560	0.578000
O271	O27	0.552140	0.566900	0.171170
O281	O28	0.574220	0.493590	0.366840
S151	S15	0.358870	0.085640	0.010290
S161	S16	0.335040	0.978140	0.100110
C851	C85	0.442710	0.325720	0.453200
C861	C86	0.417420	0.264520	0.348200
C871	C87	0.424040	0.276880	0.208400
H431	H43	0.442300	0.326900	0.180600
C881	C88	0.379360	0.152550	0.151900
C891	C89	0.368740	0.136100	0.288200
H441	H44	0.348300	0.087200	0.312600
C901	C90	0.388780	0.193000	0.387200
H451	H45	0.382900	0.183200	0.481800
C911	C91	0.259790	0.993680	0.136600
C921	C92	0.171610	0.065400	0.120700
H461	H46	0.147900	0.109800	0.083500
C931	C93	0.147280	0.008760	0.207800
C941	C94	0.181700	0.942520	0.255900
H471	H47	0.165900	0.902700	0.315600
C951	C95	0.238330	0.933580	0.218500
H481	H48	0.261800	0.887100	0.248500
C961	C96	0.086340	0.022920	0.253400
N151	N15	0.406030	0.221850	0.111400
N161	N16	0.228500	0.059520	0.086500
O291	O29	0.467200	0.388860	0.407800
O301	O30	0.439140	0.307560	0.578000
O311	O31	0.052140	0.066900	0.171170
O321	O32	0.074220	0.993590	0.366840
Mn11	Mn1	0.000000	0.000000	0.000000
Mn21	Mn2	0.500000	0.500000	0.000000
Mn31	Mn3	0.000000	0.000000	0.500000
Mn41	Mn4	0.500000	0.500000	0.500000
Mn51	Mn5	0.000000	0.169220	0.250000
Mn61	Mn6	0.500000	0.669220	0.250000
Mn71	Mn7	0.000000	0.830780	0.750000
Mn81	Mn8	0.500000	0.330780	0.750000
