data_RUFDUT_clean_PM
_symmetry_space_group_name_H-M	'P1'
_cell_length_a	18.795800
_cell_length_b	8.262200
_cell_length_c	18.855000
_cell_angle_alpha	90.000000
_cell_angle_beta	90.000000
_cell_angle_gamma	90.000000
_symmetry_Int_Tables_number 1

loop_
_symmetry_equiv_pos_as_xyz
'x,y,z'

loop_
_atom_site_label
_atom_site_type_symbol
_atom_site_fract_x
_atom_site_fract_y
_atom_site_fract_z
Ni11	Ni1	0.063640	0.986360	0.247430
P11	P1	0.973210	0.798400	0.360170
P21	P2	0.958900	0.162900	0.346090
O11	O1	0.940000	0.639900	0.338000
O21	O2	0.964100	0.815400	0.440800
O31	O3	0.049800	0.826200	0.336000
O41	O4	0.911800	0.298500	0.319700
O51	O5	0.034500	0.169400	0.315500
O61	O6	0.959000	0.159700	0.426700
O71	O7	0.949580	0.954000	0.241270
H11	H1	0.939300	0.862700	0.223200
N11	N1	0.671200	0.038600	0.233470
C11	C1	0.925170	0.963100	0.314620
C21	C2	0.844510	0.940400	0.322090
H21	H2	0.842100	0.035200	0.351400
H31	H3	0.825700	0.876400	0.360300
C31	C3	0.794290	0.018900	0.269170
C41	C4	0.814030	0.118700	0.213290
H41	H4	0.863000	0.147100	0.205900
C51	C5	0.760850	0.176900	0.167900
H51	H5	0.773400	0.244800	0.128500
C61	C6	0.690320	0.137000	0.179710
H61	H6	0.654300	0.180300	0.149000
C71	C7	0.722720	0.981900	0.276600
H71	H7	0.709000	0.911700	0.314800
Ni21	Ni2	0.436360	0.013640	0.747430
P31	P3	0.526790	0.201600	0.860170
P41	P4	0.541100	0.837100	0.846090
O81	O8	0.560000	0.360100	0.838000
O91	O9	0.535900	0.184600	0.940800
O101	O10	0.450200	0.173800	0.836000
O111	O11	0.588200	0.701500	0.819700
O121	O12	0.465500	0.830600	0.815500
O131	O13	0.541000	0.840300	0.926700
O141	O14	0.550420	0.046000	0.741270
H81	H8	0.560700	0.137300	0.723200
N21	N2	0.828800	0.961400	0.733470
C81	C8	0.574830	0.036900	0.814620
C91	C9	0.655490	0.059600	0.822090
H91	H9	0.657900	0.964800	0.851400
H101	H10	0.674300	0.123600	0.860300
C101	C10	0.705710	0.981100	0.769170
C111	C11	0.685970	0.881300	0.713290
H111	H11	0.637000	0.852900	0.705900
C121	C12	0.739150	0.823100	0.667900
H121	H12	0.726600	0.755200	0.628500
C131	C13	0.809680	0.863000	0.679710
H131	H13	0.845700	0.819700	0.649000
C141	C14	0.777280	0.018100	0.776600
H141	H14	0.791000	0.088300	0.814800
Ni31	Ni3	0.936360	0.486360	0.252570
P51	P5	0.026790	0.298400	0.139830
P61	P6	0.041100	0.662900	0.153910
O151	O15	0.060000	0.139900	0.162000
O161	O16	0.035900	0.315400	0.059200
O171	O17	0.950200	0.326200	0.164000
O181	O18	0.088200	0.798500	0.180300
O191	O19	0.965500	0.669400	0.184500
O201	O20	0.041000	0.659700	0.073300
O211	O21	0.050420	0.454000	0.258730
H151	H15	0.060700	0.362700	0.276800
N31	N3	0.328800	0.538600	0.266530
C151	C15	0.074830	0.463100	0.185380
C161	C16	0.155490	0.440400	0.177910
H161	H16	0.157900	0.535200	0.148600
H171	H17	0.174300	0.376400	0.139700
C171	C17	0.205710	0.518900	0.230830
C181	C18	0.185970	0.618700	0.286710
H181	H18	0.137000	0.647100	0.294100
C191	C19	0.239150	0.676900	0.332100
H191	H19	0.226600	0.744800	0.371500
C201	C20	0.309680	0.637000	0.320290
H201	H20	0.345700	0.680300	0.351000
C211	C21	0.277280	0.481900	0.223400
H211	H21	0.291000	0.411700	0.185200
Ni41	Ni4	0.563640	0.513640	0.752570
P71	P7	0.473210	0.701600	0.639830
P81	P8	0.458900	0.337100	0.653910
O221	O22	0.440000	0.860100	0.662000
O231	O23	0.464100	0.684600	0.559200
O241	O24	0.549800	0.673800	0.664000
O251	O25	0.411800	0.201500	0.680300
O261	O26	0.534500	0.330600	0.684500
O271	O27	0.459000	0.340300	0.573300
O281	O28	0.449580	0.546000	0.758730
H221	H22	0.439300	0.637300	0.776800
N41	N4	0.171200	0.461400	0.766530
C221	C22	0.425170	0.536900	0.685380
C231	C23	0.344510	0.559600	0.677910
H231	H23	0.342100	0.464800	0.648600
H241	H24	0.325700	0.623600	0.639700
C241	C24	0.294290	0.481100	0.730830
C251	C25	0.314030	0.381300	0.786710
H251	H25	0.363000	0.352900	0.794100
C261	C26	0.260850	0.323100	0.832100
H261	H26	0.273400	0.255200	0.871500
C271	C27	0.190320	0.363000	0.820290
H271	H27	0.154300	0.319700	0.851000
C281	C28	0.222720	0.518100	0.723400
H281	H28	0.209000	0.588300	0.685200
Ni51	Ni5	0.936360	0.013640	0.752570
P91	P9	0.026790	0.201600	0.639830
P101	P10	0.041100	0.837100	0.653910
O291	O29	0.060000	0.360100	0.662000
O301	O30	0.035900	0.184600	0.559200
O311	O31	0.950200	0.173800	0.664000
O321	O32	0.088200	0.701500	0.680300
O331	O33	0.965500	0.830600	0.684500
O341	O34	0.041000	0.840300	0.573300
O351	O35	0.050420	0.046000	0.758730
H291	H29	0.060700	0.137300	0.776800
N51	N5	0.328800	0.961400	0.766530
C291	C29	0.074830	0.036900	0.685380
C301	C30	0.155490	0.059600	0.677910
H301	H30	0.157900	0.964800	0.648600
H311	H31	0.174300	0.123600	0.639700
C311	C31	0.205710	0.981100	0.730830
C321	C32	0.185970	0.881300	0.786710
H321	H32	0.137000	0.852900	0.794100
C331	C33	0.239150	0.823100	0.832100
H331	H33	0.226600	0.755200	0.871500
C341	C34	0.309680	0.863000	0.820290
H341	H34	0.345700	0.819700	0.851000
C351	C35	0.277280	0.018100	0.723400
H351	H35	0.291000	0.088300	0.685200
Ni61	Ni6	0.563640	0.986360	0.252570
P111	P11	0.473210	0.798400	0.139830
P121	P12	0.458900	0.162900	0.153910
O361	O36	0.440000	0.639900	0.162000
O371	O37	0.464100	0.815400	0.059200
O381	O38	0.549800	0.826200	0.164000
O391	O39	0.411800	0.298500	0.180300
O401	O40	0.534500	0.169400	0.184500
O411	O41	0.459000	0.159700	0.073300
O421	O42	0.449580	0.954000	0.258730
H361	H36	0.439300	0.862700	0.276800
N61	N6	0.171200	0.038600	0.266530
C361	C36	0.425170	0.963100	0.185380
C371	C37	0.344510	0.940400	0.177910
H371	H37	0.342100	0.035200	0.148600
H381	H38	0.325700	0.876400	0.139700
C381	C38	0.294290	0.018900	0.230830
C391	C39	0.314030	0.118700	0.286710
H391	H39	0.363000	0.147100	0.294100
C401	C40	0.260850	0.176900	0.332100
H401	H40	0.273400	0.244800	0.371500
C411	C41	0.190320	0.137000	0.320290
H411	H41	0.154300	0.180300	0.351000
C421	C42	0.222720	0.981900	0.223400
H421	H42	0.209000	0.911700	0.185200
Ni71	Ni7	0.063640	0.513640	0.747430
P131	P13	0.973210	0.701600	0.860170
P141	P14	0.958900	0.337100	0.846090
O431	O43	0.940000	0.860100	0.838000
O441	O44	0.964100	0.684600	0.940800
O451	O45	0.049800	0.673800	0.836000
O461	O46	0.911800	0.201500	0.819700
O471	O47	0.034500	0.330600	0.815500
O481	O48	0.959000	0.340300	0.926700
O491	O49	0.949580	0.546000	0.741270
H431	H43	0.939300	0.637300	0.723200
N71	N7	0.671200	0.461400	0.733470
C431	C43	0.925170	0.536900	0.814620
C441	C44	0.844510	0.559600	0.822090
H441	H44	0.842100	0.464800	0.851400
H451	H45	0.825700	0.623600	0.860300
C451	C45	0.794290	0.481100	0.769170
C461	C46	0.814030	0.381300	0.713290
H461	H46	0.863000	0.352900	0.705900
C471	C47	0.760850	0.323100	0.667900
H471	H47	0.773400	0.255200	0.628500
C481	C48	0.690320	0.363000	0.679710
H481	H48	0.654300	0.319700	0.649000
C491	C49	0.722720	0.518100	0.776600
H491	H49	0.709000	0.588300	0.814800
Ni81	Ni8	0.436360	0.486360	0.247430
P151	P15	0.526790	0.298400	0.360170
P161	P16	0.541100	0.662900	0.346090
O501	O50	0.560000	0.139900	0.338000
O511	O51	0.535900	0.315400	0.440800
O521	O52	0.450200	0.326200	0.336000
O531	O53	0.588200	0.798500	0.319700
O541	O54	0.465500	0.669400	0.315500
O551	O55	0.541000	0.659700	0.426700
O561	O56	0.550420	0.454000	0.241270
H501	H50	0.560700	0.362700	0.223200
N81	N8	0.828800	0.538600	0.233470
C501	C50	0.574830	0.463100	0.314620
C511	C51	0.655490	0.440400	0.322090
H511	H51	0.657900	0.535200	0.351400
H521	H52	0.674300	0.376400	0.360300
C521	C52	0.705710	0.518900	0.269170
C531	C53	0.685970	0.618700	0.213290
H531	H53	0.637000	0.647100	0.205900
C541	C54	0.739150	0.676900	0.167900
H541	H54	0.726600	0.744800	0.128500
C551	C55	0.809680	0.637000	0.179710
H551	H55	0.845700	0.680300	0.149000
C561	C56	0.777280	0.481900	0.276600
H561	H56	0.791000	0.411700	0.314800
Ni91	Ni9	0.000000	0.000000	0.500000
Ni101	Ni10	0.500000	0.000000	0.000000
Ni111	Ni11	0.000000	0.500000	0.000000
Ni121	Ni12	0.500000	0.500000	0.500000
