data_RUFMUA01_clean_PM
_symmetry_space_group_name_H-M	'P1'
_cell_length_a	6.865600
_cell_length_b	9.128700
_cell_length_c	9.920900
_cell_angle_alpha	101.341000
_cell_angle_beta	99.683000
_cell_angle_gamma	111.950000
_symmetry_Int_Tables_number 1

loop_
_symmetry_equiv_pos_as_xyz
'x,y,z'

loop_
_atom_site_label
_atom_site_type_symbol
_atom_site_fract_x
_atom_site_fract_y
_atom_site_fract_z
Ca11	Ca1	0.686820	0.421970	0.891640
Ca21	Ca2	0.313180	0.578030	0.108360
H11	H1	0.508100	0.249200	0.539700
H21	H2	0.141300	0.889700	0.736700
H31	H3	0.163800	0.891200	0.335700
H41	H4	0.716500	0.504200	0.409600
H51	H5	0.491900	0.750800	0.460300
H61	H6	0.858700	0.110300	0.263300
H71	H7	0.836200	0.108800	0.664300
H81	H8	0.283500	0.495800	0.590400
C11	C1	0.916700	0.682500	0.590200
C21	C2	0.926800	0.685300	0.348800
C31	C3	0.087400	0.837800	0.639300
C41	C4	0.357500	0.084700	0.601600
C51	C5	0.100100	0.839500	0.399100
C61	C6	0.822000	0.598000	0.694200
C71	C7	0.843900	0.604800	0.191200
C81	C8	0.834000	0.607100	0.443800
C91	C9	0.178500	0.916600	0.545100
C101	C10	0.083300	0.317500	0.409800
C111	C11	0.073200	0.314700	0.651200
C121	C12	0.912600	0.162200	0.360700
C131	C13	0.642500	0.915300	0.398400
C141	C14	0.899900	0.160500	0.600900
C151	C15	0.178000	0.402000	0.305800
C161	C16	0.156100	0.395200	0.808800
C171	C17	0.166000	0.392900	0.556200
C181	C18	0.821500	0.083400	0.454900
O11	O1	0.676400	0.452920	0.648850
O21	O2	0.978400	0.602700	0.120800
O31	O3	0.418200	0.153650	0.502350
O41	O4	0.642200	0.541000	0.133540
O51	O5	0.438200	0.151750	0.728960
O61	O6	0.888900	0.672900	0.824560
O71	O7	0.323600	0.547080	0.351150
O81	O8	0.021600	0.397300	0.879200
O91	O9	0.581800	0.846350	0.497650
O101	O10	0.357800	0.459000	0.866460
O111	O11	0.561800	0.848250	0.271040
O121	O12	0.111100	0.327100	0.175440
