data_RUFMUA_clean_PM
_symmetry_space_group_name_H-M	'P1'
_cell_length_a	6.853000
_cell_length_b	9.007000
_cell_length_c	9.987000
_cell_angle_alpha	102.130000
_cell_angle_beta	100.530000
_cell_angle_gamma	110.210000
_symmetry_Int_Tables_number 1

loop_
_symmetry_equiv_pos_as_xyz
'x,y,z'

loop_
_atom_site_label
_atom_site_type_symbol
_atom_site_fract_x
_atom_site_fract_y
_atom_site_fract_z
Ca11	Ca1	0.685200	0.415320	0.390090
Ca21	Ca2	0.314800	0.584680	0.609910
H11	H1	0.494800	0.229100	0.041600
H21	H2	0.704400	0.491200	0.909300
H31	H3	0.126700	0.884800	0.243100
H41	H4	0.155900	0.875800	0.838500
H51	H5	0.505200	0.770900	0.958400
H61	H6	0.295600	0.508800	0.090700
H71	H7	0.873300	0.115200	0.756900
H81	H8	0.844100	0.124200	0.161500
C11	C1	0.915300	0.672300	0.850700
C21	C2	0.822600	0.596300	0.945000
C31	C3	0.903700	0.674500	0.091500
C41	C4	0.073800	0.830100	0.143500
C51	C5	0.166500	0.905600	0.049200
C61	C6	0.089600	0.825700	0.902400
C71	C7	0.832200	0.589800	0.693300
C81	C8	0.806300	0.591400	0.193100
C91	C9	0.344200	0.074200	0.105800
C101	C10	0.084700	0.327700	0.149300
C111	C11	0.177400	0.403700	0.055000
C121	C12	0.096300	0.325500	0.908500
C131	C13	0.926200	0.169900	0.856500
C141	C14	0.833500	0.094400	0.950800
C151	C15	0.910400	0.174300	0.097600
C161	C16	0.167800	0.410200	0.306700
C171	C17	0.193700	0.408600	0.806900
C181	C18	0.655800	0.925800	0.894200
O11	O1	0.966900	0.591500	0.622300
O21	O2	0.631300	0.520900	0.634700
O31	O3	0.674500	0.442200	0.147000
O41	O4	0.859800	0.672200	0.323600
O51	O5	0.406300	0.136600	0.005100
O61	O6	0.421700	0.147500	0.233100
O71	O7	0.033100	0.408500	0.377700
O81	O8	0.368700	0.479100	0.365300
O91	O9	0.325500	0.557800	0.853000
O101	O10	0.140200	0.327800	0.676400
O111	O11	0.593700	0.863400	0.994900
O121	O12	0.578300	0.852500	0.766900
