data_RUFZID_clean_PM
_symmetry_space_group_name_H-M	'P1'
_cell_length_a	27.313000
_cell_length_b	22.017000
_cell_length_c	15.836000
_cell_angle_alpha	90.000000
_cell_angle_beta	103.218000
_cell_angle_gamma	90.000000
_symmetry_Int_Tables_number 1

loop_
_symmetry_equiv_pos_as_xyz
'x,y,z'

loop_
_atom_site_label
_atom_site_type_symbol
_atom_site_fract_x
_atom_site_fract_y
_atom_site_fract_z
Cu11	Cu1	0.810650	0.424140	0.752860
N11	N1	0.748000	0.413900	0.875100
N21	N2	0.777400	0.381900	0.832900
N31	N3	0.755300	0.321900	0.929000
N41	N4	0.847700	0.468500	0.682300
O11	O1	0.797600	0.355900	0.673200
O21	O2	0.725700	0.394800	0.599600
O31	O3	0.933200	0.438400	0.455500
O41	O4	0.996700	0.438800	0.385800
O51	O5	0.784600	0.295000	0.104300
O61	O6	0.848100	0.256400	0.063400
C11	C1	0.703600	0.393000	0.992100
H11	H1	0.695900	0.435600	0.987000
H21	H2	0.721400	0.384200	0.050400
H31	H3	0.673000	0.370000	0.978300
C21	C2	0.735200	0.376800	0.931700
C31	C3	0.780700	0.326100	0.864900
C41	C4	0.808900	0.273400	0.839200
H41	H4	0.835700	0.288200	0.815000
H51	H5	0.786400	0.249200	0.796900
H61	H6	0.822500	0.249100	0.889400
C51	C5	0.881000	0.451700	0.637200
C61	C6	0.893800	0.388500	0.618000
H71	H7	0.880200	0.379800	0.557800
H81	H8	0.879900	0.360800	0.653000
H91	H9	0.929700	0.383900	0.630700
C71	C7	0.757900	0.356100	0.612600
C81	C8	0.754600	0.299900	0.554900
C91	C9	0.716700	0.293800	0.486500
H101	H10	0.692500	0.324300	0.475400
C101	C10	0.789200	0.256600	0.571200
H111	H11	0.816400	0.259100	0.618600
C111	C11	0.831000	0.286900	0.112600
C121	C12	0.861600	0.318200	0.191300
C131	C13	0.842500	0.340600	0.255500
H121	H12	0.808500	0.334900	0.253500
C141	C14	0.913500	0.323200	0.195700
H131	H13	0.928400	0.305100	0.154800
C151	C15	0.953000	0.422600	0.396900
C161	C16	0.921200	0.382900	0.328000
C171	C17	0.873200	0.373400	0.328000
H141	H14	0.859600	0.387400	0.373200
C181	C18	0.941700	0.357500	0.266100
H151	H15	0.976000	0.362800	0.269900
Cu21	Cu2	0.310650	0.924140	0.752860
N51	N5	0.248000	0.913900	0.875100
N61	N6	0.277400	0.881900	0.832900
N71	N7	0.255300	0.821900	0.929000
N81	N8	0.347700	0.968500	0.682300
O71	O7	0.297600	0.855900	0.673200
O81	O8	0.225700	0.894800	0.599600
O91	O9	0.433200	0.938400	0.455500
O101	O10	0.496700	0.938800	0.385800
O111	O11	0.284600	0.795000	0.104300
O121	O12	0.348100	0.756400	0.063400
C191	C19	0.203600	0.893000	0.992100
H161	H16	0.195900	0.935600	0.987000
H171	H17	0.221400	0.884200	0.050400
H181	H18	0.173000	0.870000	0.978300
C201	C20	0.235200	0.876800	0.931700
C211	C21	0.280700	0.826100	0.864900
C221	C22	0.308900	0.773400	0.839200
H191	H19	0.335700	0.788200	0.815000
H201	H20	0.286400	0.749200	0.796900
H211	H21	0.322500	0.749100	0.889400
C231	C23	0.381000	0.951700	0.637200
C241	C24	0.393800	0.888500	0.618000
H221	H22	0.380200	0.879800	0.557800
H231	H23	0.379900	0.860800	0.653000
H241	H24	0.429700	0.883900	0.630700
C251	C25	0.257900	0.856100	0.612600
C261	C26	0.254600	0.799900	0.554900
C271	C27	0.216700	0.793800	0.486500
H251	H25	0.192500	0.824300	0.475400
C281	C28	0.289200	0.756600	0.571200
H261	H26	0.316400	0.759100	0.618600
C291	C29	0.331000	0.786900	0.112600
C301	C30	0.361600	0.818200	0.191300
C311	C31	0.342500	0.840600	0.255500
H271	H27	0.308500	0.834900	0.253500
C321	C32	0.413500	0.823200	0.195700
H281	H28	0.428400	0.805100	0.154800
C331	C33	0.453000	0.922600	0.396900
C341	C34	0.421200	0.882900	0.328000
C351	C35	0.373200	0.873400	0.328000
H291	H29	0.359600	0.887400	0.373200
C361	C36	0.441700	0.857500	0.266100
H301	H30	0.476000	0.862800	0.269900
Cu31	Cu3	0.189350	0.424140	0.247140
N91	N9	0.252000	0.413900	0.124900
N101	N10	0.222600	0.381900	0.167100
N111	N11	0.244700	0.321900	0.071000
N121	N12	0.152300	0.468500	0.317700
O131	O13	0.202400	0.355900	0.326800
O141	O14	0.274300	0.394800	0.400400
O151	O15	0.066800	0.438400	0.544500
O161	O16	0.003300	0.438800	0.614200
O171	O17	0.215400	0.295000	0.895700
O181	O18	0.151900	0.256400	0.936600
C371	C37	0.296400	0.393000	0.007900
H311	H31	0.304100	0.435600	0.013000
H321	H32	0.278600	0.384200	0.949600
H331	H33	0.327000	0.370000	0.021700
C381	C38	0.264800	0.376800	0.068300
C391	C39	0.219300	0.326100	0.135100
C401	C40	0.191100	0.273400	0.160800
H341	H34	0.164300	0.288200	0.185000
H351	H35	0.213600	0.249200	0.203100
H361	H36	0.177500	0.249100	0.110600
C411	C41	0.119000	0.451700	0.362800
C421	C42	0.106200	0.388500	0.382000
H371	H37	0.119800	0.379800	0.442200
H381	H38	0.120100	0.360800	0.347000
H391	H39	0.070300	0.383900	0.369300
C431	C43	0.242100	0.356100	0.387400
C441	C44	0.245400	0.299900	0.445100
C451	C45	0.283300	0.293800	0.513500
H401	H40	0.307500	0.324300	0.524600
C461	C46	0.210800	0.256600	0.428800
H411	H41	0.183600	0.259100	0.381400
C471	C47	0.169000	0.286900	0.887400
C481	C48	0.138400	0.318200	0.808700
C491	C49	0.157500	0.340600	0.744500
H421	H42	0.191500	0.334900	0.746500
C501	C50	0.086500	0.323200	0.804300
H431	H43	0.071600	0.305100	0.845200
C511	C51	0.047000	0.422600	0.603100
C521	C52	0.078800	0.382900	0.672000
C531	C53	0.126800	0.373400	0.672000
H441	H44	0.140400	0.387400	0.626800
C541	C54	0.058300	0.357500	0.733900
H451	H45	0.024000	0.362800	0.730100
Cu41	Cu4	0.689350	0.924140	0.247140
N131	N13	0.752000	0.913900	0.124900
N141	N14	0.722600	0.881900	0.167100
N151	N15	0.744700	0.821900	0.071000
N161	N16	0.652300	0.968500	0.317700
O191	O19	0.702400	0.855900	0.326800
O201	O20	0.774300	0.894800	0.400400
O211	O21	0.566800	0.938400	0.544500
O221	O22	0.503300	0.938800	0.614200
O231	O23	0.715400	0.795000	0.895700
O241	O24	0.651900	0.756400	0.936600
C551	C55	0.796400	0.893000	0.007900
H461	H46	0.804100	0.935600	0.013000
H471	H47	0.778600	0.884200	0.949600
H481	H48	0.827000	0.870000	0.021700
C561	C56	0.764800	0.876800	0.068300
C571	C57	0.719300	0.826100	0.135100
C581	C58	0.691100	0.773400	0.160800
H491	H49	0.664300	0.788200	0.185000
H501	H50	0.713600	0.749200	0.203100
H511	H51	0.677500	0.749100	0.110600
C591	C59	0.619000	0.951700	0.362800
C601	C60	0.606200	0.888500	0.382000
H521	H52	0.619800	0.879800	0.442200
H531	H53	0.620100	0.860800	0.347000
H541	H54	0.570300	0.883900	0.369300
C611	C61	0.742100	0.856100	0.387400
C621	C62	0.745400	0.799900	0.445100
C631	C63	0.783300	0.793800	0.513500
H551	H55	0.807500	0.824300	0.524600
C641	C64	0.710800	0.756600	0.428800
H561	H56	0.683600	0.759100	0.381400
C651	C65	0.669000	0.786900	0.887400
C661	C66	0.638400	0.818200	0.808700
C671	C67	0.657500	0.840600	0.744500
H571	H57	0.691500	0.834900	0.746500
C681	C68	0.586500	0.823200	0.804300
H581	H58	0.571600	0.805100	0.845200
C691	C69	0.547000	0.922600	0.603100
C701	C70	0.578800	0.882900	0.672000
C711	C71	0.626800	0.873400	0.672000
H591	H59	0.640400	0.887400	0.626800
C721	C72	0.558300	0.857500	0.733900
H601	H60	0.524000	0.862800	0.730100
Cu51	Cu5	0.189350	0.575860	0.247140
N171	N17	0.252000	0.586100	0.124900
N181	N18	0.222600	0.618100	0.167100
N191	N19	0.244700	0.678100	0.071000
N201	N20	0.152300	0.531500	0.317700
O251	O25	0.202400	0.644100	0.326800
O261	O26	0.274300	0.605200	0.400400
O271	O27	0.066800	0.561600	0.544500
O281	O28	0.003300	0.561200	0.614200
O291	O29	0.215400	0.705000	0.895700
O301	O30	0.151900	0.743600	0.936600
C731	C73	0.296400	0.607000	0.007900
H611	H61	0.304100	0.564400	0.013000
H621	H62	0.278600	0.615800	0.949600
H631	H63	0.327000	0.630000	0.021700
C741	C74	0.264800	0.623200	0.068300
C751	C75	0.219300	0.673900	0.135100
C761	C76	0.191100	0.726600	0.160800
H641	H64	0.164300	0.711800	0.185000
H651	H65	0.213600	0.750800	0.203100
H661	H66	0.177500	0.750900	0.110600
C771	C77	0.119000	0.548300	0.362800
C781	C78	0.106200	0.611500	0.382000
H671	H67	0.119800	0.620200	0.442200
H681	H68	0.120100	0.639200	0.347000
H691	H69	0.070300	0.616100	0.369300
C791	C79	0.242100	0.643900	0.387400
C801	C80	0.245400	0.700100	0.445100
C811	C81	0.283300	0.706200	0.513500
H701	H70	0.307500	0.675700	0.524600
C821	C82	0.210800	0.743400	0.428800
H711	H71	0.183600	0.740900	0.381400
C831	C83	0.169000	0.713100	0.887400
C841	C84	0.138400	0.681800	0.808700
C851	C85	0.157500	0.659400	0.744500
H721	H72	0.191500	0.665100	0.746500
C861	C86	0.086500	0.676800	0.804300
H731	H73	0.071600	0.694900	0.845200
C871	C87	0.047000	0.577400	0.603100
C881	C88	0.078800	0.617100	0.672000
C891	C89	0.126800	0.626600	0.672000
H741	H74	0.140400	0.612600	0.626800
C901	C90	0.058300	0.642500	0.733900
H751	H75	0.024000	0.637200	0.730100
Cu61	Cu6	0.689350	0.075860	0.247140
N211	N21	0.752000	0.086100	0.124900
N221	N22	0.722600	0.118100	0.167100
N231	N23	0.744700	0.178100	0.071000
N241	N24	0.652300	0.031500	0.317700
O311	O31	0.702400	0.144100	0.326800
O321	O32	0.774300	0.105200	0.400400
O331	O33	0.566800	0.061600	0.544500
O341	O34	0.503300	0.061200	0.614200
O351	O35	0.715400	0.205000	0.895700
O361	O36	0.651900	0.243600	0.936600
C911	C91	0.796400	0.107000	0.007900
H761	H76	0.804100	0.064400	0.013000
H771	H77	0.778600	0.115800	0.949600
H781	H78	0.827000	0.130000	0.021700
C921	C92	0.764800	0.123200	0.068300
C931	C93	0.719300	0.173900	0.135100
C941	C94	0.691100	0.226600	0.160800
H791	H79	0.664300	0.211800	0.185000
H801	H80	0.713600	0.250800	0.203100
H811	H81	0.677500	0.250900	0.110600
C951	C95	0.619000	0.048300	0.362800
C961	C96	0.606200	0.111500	0.382000
H821	H82	0.619800	0.120200	0.442200
H831	H83	0.620100	0.139200	0.347000
H841	H84	0.570300	0.116100	0.369300
C971	C97	0.742100	0.143900	0.387400
C981	C98	0.745400	0.200100	0.445100
C991	C99	0.783300	0.206200	0.513500
H851	H85	0.807500	0.175700	0.524600
C1001	C100	0.710800	0.243400	0.428800
H861	H86	0.683600	0.240900	0.381400
C1011	C101	0.669000	0.213100	0.887400
C1021	C102	0.638400	0.181800	0.808700
C1031	C103	0.657500	0.159400	0.744500
H871	H87	0.691500	0.165100	0.746500
C1041	C104	0.586500	0.176800	0.804300
H881	H88	0.571600	0.194900	0.845200
C1051	C105	0.547000	0.077400	0.603100
C1061	C106	0.578800	0.117100	0.672000
C1071	C107	0.626800	0.126600	0.672000
H891	H89	0.640400	0.112600	0.626800
C1081	C108	0.558300	0.142500	0.733900
H901	H90	0.524000	0.137200	0.730100
Cu71	Cu7	0.810650	0.575860	0.752860
N251	N25	0.748000	0.586100	0.875100
N261	N26	0.777400	0.618100	0.832900
N271	N27	0.755300	0.678100	0.929000
N281	N28	0.847700	0.531500	0.682300
O371	O37	0.797600	0.644100	0.673200
O381	O38	0.725700	0.605200	0.599600
O391	O39	0.933200	0.561600	0.455500
O401	O40	0.996700	0.561200	0.385800
O411	O41	0.784600	0.705000	0.104300
O421	O42	0.848100	0.743600	0.063400
C1091	C109	0.703600	0.607000	0.992100
H911	H91	0.695900	0.564400	0.987000
H921	H92	0.721400	0.615800	0.050400
H931	H93	0.673000	0.630000	0.978300
C1101	C110	0.735200	0.623200	0.931700
C1111	C111	0.780700	0.673900	0.864900
C1121	C112	0.808900	0.726600	0.839200
H941	H94	0.835700	0.711800	0.815000
H951	H95	0.786400	0.750800	0.796900
H961	H96	0.822500	0.750900	0.889400
C1131	C113	0.881000	0.548300	0.637200
C1141	C114	0.893800	0.611500	0.618000
H971	H97	0.880200	0.620200	0.557800
H981	H98	0.879900	0.639200	0.653000
H991	H99	0.929700	0.616100	0.630700
C1151	C115	0.757900	0.643900	0.612600
C1161	C116	0.754600	0.700100	0.554900
C1171	C117	0.716700	0.706200	0.486500
H1001	H100	0.692500	0.675700	0.475400
C1181	C118	0.789200	0.743400	0.571200
H1011	H101	0.816400	0.740900	0.618600
C1191	C119	0.831000	0.713100	0.112600
C1201	C120	0.861600	0.681800	0.191300
C1211	C121	0.842500	0.659400	0.255500
H1021	H102	0.808500	0.665100	0.253500
C1221	C122	0.913500	0.676800	0.195700
H1031	H103	0.928400	0.694900	0.154800
C1231	C123	0.953000	0.577400	0.396900
C1241	C124	0.921200	0.617100	0.328000
C1251	C125	0.873200	0.626600	0.328000
H1041	H104	0.859600	0.612600	0.373200
C1261	C126	0.941700	0.642500	0.266100
H1051	H105	0.976000	0.637200	0.269900
Cu81	Cu8	0.310650	0.075860	0.752860
N291	N29	0.248000	0.086100	0.875100
N301	N30	0.277400	0.118100	0.832900
N311	N31	0.255300	0.178100	0.929000
N321	N32	0.347700	0.031500	0.682300
O431	O43	0.297600	0.144100	0.673200
O441	O44	0.225700	0.105200	0.599600
O451	O45	0.433200	0.061600	0.455500
O461	O46	0.496700	0.061200	0.385800
O471	O47	0.284600	0.205000	0.104300
O481	O48	0.348100	0.243600	0.063400
C1271	C127	0.203600	0.107000	0.992100
H1061	H106	0.195900	0.064400	0.987000
H1071	H107	0.221400	0.115800	0.050400
H1081	H108	0.173000	0.130000	0.978300
C1281	C128	0.235200	0.123200	0.931700
C1291	C129	0.280700	0.173900	0.864900
C1301	C130	0.308900	0.226600	0.839200
H1091	H109	0.335700	0.211800	0.815000
H1101	H110	0.286400	0.250800	0.796900
H1111	H111	0.322500	0.250900	0.889400
C1311	C131	0.381000	0.048300	0.637200
C1321	C132	0.393800	0.111500	0.618000
H1121	H112	0.380200	0.120200	0.557800
H1131	H113	0.379900	0.139200	0.653000
H1141	H114	0.429700	0.116100	0.630700
C1331	C133	0.257900	0.143900	0.612600
C1341	C134	0.254600	0.200100	0.554900
C1351	C135	0.216700	0.206200	0.486500
H1151	H115	0.192500	0.175700	0.475400
C1361	C136	0.289200	0.243400	0.571200
H1161	H116	0.316400	0.240900	0.618600
C1371	C137	0.331000	0.213100	0.112600
C1381	C138	0.361600	0.181800	0.191300
C1391	C139	0.342500	0.159400	0.255500
H1171	H117	0.308500	0.165100	0.253500
C1401	C140	0.413500	0.176800	0.195700
H1181	H118	0.428400	0.194900	0.154800
C1411	C141	0.453000	0.077400	0.396900
C1421	C142	0.421200	0.117100	0.328000
C1431	C143	0.373200	0.126600	0.328000
H1191	H119	0.359600	0.112600	0.373200
C1441	C144	0.441700	0.142500	0.266100
H1201	H120	0.476000	0.137200	0.269900
Cu91	Cu9	0.739270	0.500000	0.848910
Cu101	Cu10	0.961820	0.500000	0.542030
N331	N33	0.902900	0.500000	0.606200
O491	O49	0.806300	0.500000	0.818300
H1211	H121	0.833300	0.500000	0.863000
Cu111	Cu11	0.239270	0.000000	0.848910
Cu121	Cu12	0.461820	0.000000	0.542030
N341	N34	0.402900	0.000000	0.606200
O501	O50	0.306300	0.000000	0.818300
H1221	H122	0.333300	0.000000	0.863000
Cu131	Cu13	0.260730	0.500000	0.151090
Cu141	Cu14	0.038180	0.500000	0.457970
N351	N35	0.097100	0.500000	0.393800
O511	O51	0.193700	0.500000	0.181700
H1231	H123	0.166700	0.500000	0.137000
Cu151	Cu15	0.760730	0.000000	0.151090
Cu161	Cu16	0.538180	0.000000	0.457970
N361	N36	0.597100	0.000000	0.393800
O521	O52	0.693700	0.000000	0.181700
H1241	H124	0.666700	0.000000	0.137000
Cu171	Cu17	0.750000	0.250000	0.000000
Cu181	Cu18	0.250000	0.250000	0.000000
Cu191	Cu19	0.250000	0.750000	0.000000
Cu201	Cu20	0.750000	0.750000	0.000000
