data_RUGGIL_clean_PM
_symmetry_space_group_name_H-M	'P1'
_cell_length_a	11.430000
_cell_length_b	7.220000
_cell_length_c	6.655000
_cell_angle_alpha	90.000000
_cell_angle_beta	109.912000
_cell_angle_gamma	90.000000
_symmetry_Int_Tables_number 1

loop_
_symmetry_equiv_pos_as_xyz
'x,y,z'

loop_
_atom_site_label
_atom_site_type_symbol
_atom_site_fract_x
_atom_site_fract_y
_atom_site_fract_z
O11	O1	0.991600	0.271700	0.662700
O21	O2	0.827400	0.215500	0.884000
O31	O3	0.653900	0.080000	0.882600
C11	C1	0.762500	0.123000	0.962000
H11	H1	0.802500	0.079800	0.100100
O41	O4	0.491600	0.771700	0.662700
O51	O5	0.327400	0.715500	0.884000
O61	O6	0.153900	0.580000	0.882600
C21	C2	0.262500	0.623000	0.962000
H21	H2	0.302500	0.579800	0.100100
O71	O7	0.008400	0.271700	0.337300
O81	O8	0.172600	0.215500	0.116000
O91	O9	0.346100	0.080000	0.117400
C31	C3	0.237500	0.123000	0.038000
H31	H3	0.197500	0.079800	0.899900
O101	O10	0.508400	0.771700	0.337300
O111	O11	0.672600	0.715500	0.116000
O121	O12	0.846100	0.580000	0.117400
C41	C4	0.737500	0.623000	0.038000
H41	H4	0.697500	0.579800	0.899900
Sm11	Sm1	0.000000	0.418550	0.000000
Sm21	Sm2	0.500000	0.918550	0.000000
C51	C5	0.000000	0.346000	0.500000
H51	H5	0.000000	0.474600	0.500000
C61	C6	0.500000	0.846000	0.500000
H61	H6	0.500000	0.974600	0.500000
