data_RUGHOS_clean_PM
_symmetry_space_group_name_H-M	'P1'
_cell_length_a	11.248700
_cell_length_b	7.129600
_cell_length_c	6.573100
_cell_angle_alpha	90.000000
_cell_angle_beta	109.510000
_cell_angle_gamma	90.000000
_symmetry_Int_Tables_number 1

loop_
_symmetry_equiv_pos_as_xyz
'x,y,z'

loop_
_atom_site_label
_atom_site_type_symbol
_atom_site_fract_x
_atom_site_fract_y
_atom_site_fract_z
O11	O1	0.992500	0.759300	0.664700
O21	O2	0.170600	0.707000	0.114500
O31	O3	0.346300	0.564200	0.117800
C11	C1	0.235800	0.609300	0.035100
H11	H1	0.195500	0.565200	0.895800
O41	O4	0.492500	0.259300	0.664700
O51	O5	0.670600	0.207000	0.114500
O61	O6	0.846300	0.064200	0.117800
C21	C2	0.735800	0.109300	0.035100
H21	H2	0.695500	0.065200	0.895800
O71	O7	0.007500	0.759300	0.335300
O81	O8	0.829400	0.707000	0.885500
O91	O9	0.653700	0.564200	0.882200
C31	C3	0.764200	0.609300	0.964900
H31	H3	0.804500	0.565200	0.104200
O101	O10	0.507500	0.259300	0.335300
O111	O11	0.329400	0.207000	0.885500
O121	O12	0.153700	0.064200	0.882200
C41	C4	0.264200	0.109300	0.964900
H41	H4	0.304500	0.065200	0.104200
Ho11	Ho1	0.000000	0.904700	0.000000
Ho21	Ho2	0.500000	0.404700	0.000000
C51	C5	0.000000	0.837900	0.500000
H51	H5	0.000000	0.968400	0.500000
C61	C6	0.500000	0.337900	0.500000
H61	H6	0.500000	0.468400	0.500000
