data_RUGHUY_clean_PM
_symmetry_space_group_name_H-M	'P1'
_cell_length_a	11.172000
_cell_length_b	7.102000
_cell_length_c	6.539000
_cell_angle_alpha	90.000000
_cell_angle_beta	109.472000
_cell_angle_gamma	90.000000
_symmetry_Int_Tables_number 1

loop_
_symmetry_equiv_pos_as_xyz
'x,y,z'

loop_
_atom_site_label
_atom_site_type_symbol
_atom_site_fract_x
_atom_site_fract_y
_atom_site_fract_z
O11	O1	0.507100	0.098300	0.334600
O21	O2	0.670400	0.148700	0.114700
O31	O3	0.846100	0.293600	0.118200
C11	C1	0.735600	0.247200	0.033600
H11	H1	0.695300	0.289800	0.892900
O41	O4	0.007100	0.598300	0.334600
O51	O5	0.170400	0.648700	0.114700
O61	O6	0.346100	0.793600	0.118200
C21	C2	0.235600	0.747200	0.033600
H21	H2	0.195300	0.789800	0.892900
O71	O7	0.492900	0.098300	0.665400
O81	O8	0.329600	0.148700	0.885300
O91	O9	0.153900	0.293600	0.881800
C31	C3	0.264400	0.247200	0.966400
H31	H3	0.304700	0.289800	0.107100
O101	O10	0.992900	0.598300	0.665400
O111	O11	0.829600	0.648700	0.885300
O121	O12	0.653900	0.793600	0.881800
C41	C4	0.764400	0.747200	0.966400
H41	H4	0.804700	0.789800	0.107100
Tm11	Tm1	0.500000	0.952520	0.000000
Tm21	Tm2	0.000000	0.452520	0.000000
C51	C5	0.500000	0.016200	0.500000
H51	H5	0.500000	0.885200	0.500000
C61	C6	0.000000	0.516200	0.500000
H61	H6	0.000000	0.385200	0.500000
