data_RUGJAG_clean_PM
_symmetry_space_group_name_H-M	'P1'
_cell_length_a	11.127000
_cell_length_b	7.087000
_cell_length_c	6.518300
_cell_angle_alpha	90.000000
_cell_angle_beta	109.334000
_cell_angle_gamma	90.000000
_symmetry_Int_Tables_number 1

loop_
_symmetry_equiv_pos_as_xyz
'x,y,z'

loop_
_atom_site_label
_atom_site_type_symbol
_atom_site_fract_x
_atom_site_fract_y
_atom_site_fract_z
O11	O1	0.007200	0.788500	0.334000
O21	O2	0.830600	0.838000	0.886000
O31	O3	0.654800	0.983000	0.880000
C11	C1	0.763300	0.935000	0.966000
H11	H1	0.801900	0.976000	0.108000
O41	O4	0.507200	0.288500	0.334000
O51	O5	0.330600	0.338000	0.886000
O61	O6	0.154800	0.483000	0.880000
C21	C2	0.263300	0.435000	0.966000
H21	H2	0.301900	0.476000	0.108000
O71	O7	0.992800	0.788500	0.666000
O81	O8	0.169400	0.838000	0.114000
O91	O9	0.345200	0.983000	0.120000
C31	C3	0.236700	0.935000	0.034000
H31	H3	0.198100	0.976000	0.892000
O101	O10	0.492800	0.288500	0.666000
O111	O11	0.669400	0.338000	0.114000
O121	O12	0.845200	0.483000	0.120000
C41	C4	0.736700	0.435000	0.034000
H41	H4	0.698100	0.476000	0.892000
Yb11	Yb1	0.000000	0.643000	0.000000
Yb21	Yb2	0.500000	0.143000	0.000000
C51	C5	0.000000	0.708000	0.500000
H51	H5	0.000000	0.576600	0.500000
C61	C6	0.500000	0.208000	0.500000
H61	H6	0.500000	0.076600	0.500000
