data_RUGJIO_clean_PM
_symmetry_space_group_name_H-M	'P1'
_cell_length_a	6.766800
_cell_length_b	18.718900
_cell_length_c	8.571700
_cell_angle_alpha	90.000000
_cell_angle_beta	90.000000
_cell_angle_gamma	90.000000
_symmetry_Int_Tables_number 1

loop_
_symmetry_equiv_pos_as_xyz
'x,y,z'

loop_
_atom_site_label
_atom_site_type_symbol
_atom_site_fract_x
_atom_site_fract_y
_atom_site_fract_z
O11	O1	0.984300	0.549050	0.932700
O21	O2	0.337300	0.593410	0.770400
O31	O3	0.822900	0.682950	0.984400
O41	O4	0.682400	0.756520	0.152800
C11	C1	0.766600	0.742510	0.027700
H11	H1	0.789400	0.780500	0.960200
O51	O5	0.484300	0.049050	0.932700
O61	O6	0.837300	0.093410	0.770400
O71	O7	0.322900	0.182950	0.984400
O81	O8	0.182400	0.256520	0.152800
C21	C2	0.266600	0.242510	0.027700
H21	H2	0.289400	0.280500	0.960200
O91	O9	0.015700	0.450950	0.432700
O101	O10	0.662700	0.406590	0.270400
O111	O11	0.177100	0.317050	0.484400
O121	O12	0.317600	0.243480	0.652800
C31	C3	0.233400	0.257490	0.527700
H31	H3	0.210600	0.219500	0.460200
O131	O13	0.515700	0.950950	0.432700
O141	O14	0.162700	0.906590	0.270400
O151	O15	0.677100	0.817050	0.484400
O161	O16	0.817600	0.743480	0.652800
C41	C4	0.733400	0.757490	0.527700
H41	H4	0.710600	0.719500	0.460200
O171	O17	0.015700	0.549050	0.567300
O181	O18	0.662700	0.593410	0.729600
O191	O19	0.177100	0.682950	0.515600
O201	O20	0.317600	0.756520	0.347200
C51	C5	0.233400	0.742510	0.472300
H51	H5	0.210600	0.780500	0.539800
O211	O21	0.515700	0.049050	0.567300
O221	O22	0.162700	0.093410	0.729600
O231	O23	0.677100	0.182950	0.515600
O241	O24	0.817600	0.256520	0.347200
C61	C6	0.733400	0.242510	0.472300
H61	H6	0.710600	0.280500	0.539800
O251	O25	0.984300	0.450950	0.067300
O261	O26	0.337300	0.406590	0.229600
O271	O27	0.822900	0.317050	0.015600
O281	O28	0.682400	0.243480	0.847200
C71	C7	0.766600	0.257490	0.972300
H71	H7	0.789400	0.219500	0.039800
O291	O29	0.484300	0.950950	0.067300
O301	O30	0.837300	0.906590	0.229600
O311	O31	0.322900	0.817050	0.015600
O321	O32	0.182400	0.743480	0.847200
C81	C8	0.266600	0.757490	0.972300
H81	H8	0.289400	0.719500	0.039800
Sm11	Sm1	0.000000	0.642500	0.750000
Sm21	Sm2	0.500000	0.142500	0.750000
Sm31	Sm3	0.000000	0.357500	0.250000
Sm41	Sm4	0.500000	0.857500	0.250000
C91	C9	0.500000	0.623710	0.750000
H91	H9	0.500000	0.673400	0.750000
C101	C10	0.000000	0.123710	0.750000
H101	H10	0.000000	0.173400	0.750000
C111	C11	0.500000	0.376290	0.250000
H111	H11	0.500000	0.326600	0.250000
C121	C12	0.000000	0.876290	0.250000
H121	H12	0.000000	0.826600	0.250000
C131	C13	0.072300	0.500000	0.000000
H131	H13	0.209800	0.500000	0.000000
C141	C14	0.572300	0.000000	0.000000
H141	H14	0.709800	0.000000	0.000000
C151	C15	0.927700	0.500000	0.500000
H151	H15	0.790200	0.500000	0.500000
C161	C16	0.427700	0.000000	0.500000
H161	H16	0.290200	0.000000	0.500000
