data_RUGJEK_clean_PM
_symmetry_space_group_name_H-M	'P1'
_cell_length_a	11.081000
_cell_length_b	7.022600
_cell_length_c	6.485000
_cell_angle_alpha	90.000000
_cell_angle_beta	109.129000
_cell_angle_gamma	90.000000
_symmetry_Int_Tables_number 1

loop_
_symmetry_equiv_pos_as_xyz
'x,y,z'

loop_
_atom_site_label
_atom_site_type_symbol
_atom_site_fract_x
_atom_site_fract_y
_atom_site_fract_z
O11	O1	0.993800	0.329100	0.667100
O21	O2	0.829300	0.374500	0.884800
O31	O3	0.652200	0.520100	0.878000
C11	C1	0.764300	0.475800	0.965700
H11	H1	0.804600	0.522300	0.105800
O41	O4	0.493800	0.829100	0.667100
O51	O5	0.329300	0.874500	0.884800
O61	O6	0.152200	0.020100	0.878000
C21	C2	0.264300	0.975800	0.965700
H21	H2	0.304600	0.022300	0.105800
O71	O7	0.006200	0.329100	0.332900
O81	O8	0.170700	0.374500	0.115200
O91	O9	0.347800	0.520100	0.122000
C31	C3	0.235700	0.475800	0.034300
H31	H3	0.195400	0.522300	0.894200
O101	O10	0.506200	0.829100	0.332900
O111	O11	0.670700	0.874500	0.115200
O121	O12	0.847800	0.020100	0.122000
C41	C4	0.735700	0.975800	0.034300
H41	H4	0.695400	0.022300	0.894200
Lu11	Lu1	0.000000	0.181300	0.000000
Lu21	Lu2	0.500000	0.681300	0.000000
C51	C5	0.000000	0.246400	0.500000
H51	H5	0.000000	0.113900	0.500000
C61	C6	0.500000	0.746400	0.500000
H61	H6	0.500000	0.613900	0.500000
