data_RUGKAH_clean_PM
_symmetry_space_group_name_H-M	'P1'
_cell_length_a	6.617400
_cell_length_b	18.200000
_cell_length_c	8.377700
_cell_angle_alpha	90.000000
_cell_angle_beta	90.000000
_cell_angle_gamma	90.000000
_symmetry_Int_Tables_number 1

loop_
_symmetry_equiv_pos_as_xyz
'x,y,z'

loop_
_atom_site_label
_atom_site_type_symbol
_atom_site_fract_x
_atom_site_fract_y
_atom_site_fract_z
O11	O1	0.333700	0.095500	0.270300
O21	O2	0.984600	0.050600	0.428600
O31	O3	0.173700	0.184100	0.020300
O41	O4	0.320300	0.258900	0.847000
C11	C1	0.236100	0.244000	0.977300
H11	H1	0.219500	0.282700	0.048600
O51	O5	0.833700	0.595500	0.270300
O61	O6	0.484600	0.550600	0.428600
O71	O7	0.673700	0.684100	0.020300
O81	O8	0.820300	0.758900	0.847000
C21	C2	0.736100	0.744000	0.977300
H21	H2	0.719500	0.782700	0.048600
O91	O9	0.666300	0.904500	0.770300
O101	O10	0.015400	0.949400	0.928600
O111	O11	0.826300	0.815900	0.520300
O121	O12	0.679700	0.741100	0.347000
C31	C3	0.763900	0.756000	0.477300
H31	H3	0.780500	0.717300	0.548600
O131	O13	0.166300	0.404500	0.770300
O141	O14	0.515400	0.449400	0.928600
O151	O15	0.326300	0.315900	0.520300
O161	O16	0.179700	0.241100	0.347000
C41	C4	0.263900	0.256000	0.477300
H41	H4	0.280500	0.217300	0.548600
O171	O17	0.666300	0.095500	0.229700
O181	O18	0.015400	0.050600	0.071400
O191	O19	0.826300	0.184100	0.479700
O201	O20	0.679700	0.258900	0.653000
C51	C5	0.763900	0.244000	0.522700
H51	H5	0.780500	0.282700	0.451400
O211	O21	0.166300	0.595500	0.229700
O221	O22	0.515400	0.550600	0.071400
O231	O23	0.326300	0.684100	0.479700
O241	O24	0.179700	0.758900	0.653000
C61	C6	0.263900	0.744000	0.522700
H61	H6	0.280500	0.782700	0.451400
O251	O25	0.333700	0.904500	0.729700
O261	O26	0.984600	0.949400	0.571400
O271	O27	0.173700	0.815900	0.979700
O281	O28	0.320300	0.741100	0.153000
C71	C7	0.236100	0.756000	0.022700
H71	H7	0.219500	0.717300	0.951400
O291	O29	0.833700	0.404500	0.729700
O301	O30	0.484600	0.449400	0.571400
O311	O31	0.673700	0.315900	0.979700
O321	O32	0.820300	0.241100	0.153000
C81	C8	0.736100	0.256000	0.022700
H81	H8	0.719500	0.217300	0.951400
Lu11	Lu1	0.000000	0.142780	0.250000
Lu21	Lu2	0.500000	0.642780	0.250000
Lu31	Lu3	0.000000	0.857220	0.750000
Lu41	Lu4	0.500000	0.357220	0.750000
C91	C9	0.500000	0.126000	0.250000
H91	H9	0.500000	0.177100	0.250000
C101	C10	0.000000	0.626000	0.250000
H101	H10	0.000000	0.677100	0.250000
C111	C11	0.500000	0.874000	0.750000
H111	H11	0.500000	0.822900	0.750000
C121	C12	0.000000	0.374000	0.750000
H121	H12	0.000000	0.322900	0.750000
C131	C13	0.076500	0.000000	0.500000
H131	H13	0.217000	0.000000	0.500000
C141	C14	0.576500	0.500000	0.500000
H141	H14	0.717000	0.500000	0.500000
C151	C15	0.923500	0.000000	0.000000
H151	H15	0.783000	0.000000	0.000000
C161	C16	0.423500	0.500000	0.000000
H161	H16	0.283000	0.500000	0.000000
