data_RUGNUE_clean_PM
_symmetry_space_group_name_H-M	'P1'
_cell_length_a	11.262100
_cell_length_b	7.137400
_cell_length_c	6.586700
_cell_angle_alpha	90.000000
_cell_angle_beta	109.523000
_cell_angle_gamma	90.000000
_symmetry_Int_Tables_number 1

loop_
_symmetry_equiv_pos_as_xyz
'x,y,z'

loop_
_atom_site_label
_atom_site_type_symbol
_atom_site_fract_x
_atom_site_fract_y
_atom_site_fract_z
O11	O1	0.992100	0.802600	0.664300
O21	O2	0.169900	0.749900	0.114300
O31	O3	0.346100	0.608500	0.118000
C11	C1	0.235000	0.653000	0.033600
H11	H1	0.195100	0.609600	0.894200
O41	O4	0.492100	0.302600	0.664300
O51	O5	0.669900	0.249900	0.114300
O61	O6	0.846100	0.108500	0.118000
C21	C2	0.735000	0.153000	0.033600
H21	H2	0.695100	0.109600	0.894200
O71	O7	0.007900	0.802600	0.335700
O81	O8	0.830100	0.749900	0.885700
O91	O9	0.653900	0.608500	0.882000
C31	C3	0.765000	0.653000	0.966400
H31	H3	0.804900	0.609600	0.105800
O101	O10	0.507900	0.302600	0.335700
O111	O11	0.330100	0.249900	0.885700
O121	O12	0.153900	0.108500	0.882000
C41	C4	0.265000	0.153000	0.966400
H41	H4	0.304900	0.109600	0.105800
Y11	Y1	0.000000	0.948100	0.000000
Y21	Y2	0.500000	0.448100	0.000000
C51	C5	0.000000	0.883100	0.500000
H51	H5	0.000000	0.013400	0.500000
C61	C6	0.500000	0.383100	0.500000
H61	H6	0.500000	0.513400	0.500000
