data_RUGXOI_clean_PM
_symmetry_space_group_name_H-M	'P1'
_cell_length_a	14.328800
_cell_length_b	13.264300
_cell_length_c	14.356300
_cell_angle_alpha	90.000000
_cell_angle_beta	91.296000
_cell_angle_gamma	90.000000
_symmetry_Int_Tables_number 1

loop_
_symmetry_equiv_pos_as_xyz
'x,y,z'

loop_
_atom_site_label
_atom_site_type_symbol
_atom_site_fract_x
_atom_site_fract_y
_atom_site_fract_z
O11	O1	0.585300	0.665900	0.310900
O21	O2	0.230500	0.898800	0.323000
O31	O3	0.208900	0.094300	0.198800
O41	O4	0.366600	0.511900	0.548000
O51	O5	0.366100	0.950700	0.264600
O61	O6	0.132500	0.420200	0.920500
O71	O7	0.976000	0.470100	0.214800
C11	C1	0.315200	0.888200	0.307900
C21	C2	0.457900	0.629100	0.416200
H11	H1	0.488500	0.570300	0.439400
C31	C3	0.172600	0.182500	0.166900
C41	C4	0.199500	0.222400	0.082200
H21	H2	0.245500	0.188900	0.046900
C51	C5	0.500400	0.686200	0.347400
O81	O8	0.964500	0.340500	0.312600
O91	O9	0.266400	0.636300	0.577800
C61	C6	0.107600	0.235600	0.220100
H31	H3	0.089300	0.209500	0.278600
O101	O10	0.251300	0.312000	0.912200
C71	C7	0.363400	0.796000	0.346800
C81	C8	0.094900	0.363500	0.100300
H41	H4	0.067800	0.424100	0.076900
C91	C9	0.450800	0.771500	0.314000
H51	H5	0.478000	0.812900	0.267900
C101	C10	0.323000	0.740100	0.416500
H61	H6	0.263800	0.758100	0.439800
C111	C11	0.159100	0.312100	0.048400
C121	C12	0.069400	0.326800	0.187500
C131	C13	0.184500	0.349400	0.952300
C141	C14	0.997700	0.380100	0.243800
C151	C15	0.330200	0.599600	0.530700
C161	C16	0.371900	0.656100	0.451800
Zn11	Zn1	0.335920	0.049600	0.166570
Zn21	Zn2	0.152030	0.017980	0.299430
O111	O11	0.414700	0.165900	0.189100
O121	O12	0.769500	0.398800	0.177000
O131	O13	0.791100	0.594300	0.301200
O141	O14	0.633400	0.011900	0.952000
O151	O15	0.633900	0.450700	0.235400
O161	O16	0.867500	0.920200	0.579500
O171	O17	0.024000	0.970100	0.285200
C171	C17	0.684800	0.388200	0.192100
C181	C18	0.542100	0.129100	0.083800
H71	H7	0.511500	0.070300	0.060600
C191	C19	0.827400	0.682500	0.333100
C201	C20	0.800500	0.722400	0.417800
H81	H8	0.754500	0.688900	0.453100
C211	C21	0.499600	0.186200	0.152600
O181	O18	0.035500	0.840500	0.187400
O191	O19	0.733600	0.136300	0.922200
C221	C22	0.892400	0.735600	0.279900
H91	H9	0.910700	0.709500	0.221400
O201	O20	0.748700	0.812000	0.587800
C231	C23	0.636600	0.296000	0.153200
C241	C24	0.905100	0.863500	0.399700
H101	H10	0.932200	0.924100	0.423100
C251	C25	0.549200	0.271500	0.186000
H111	H11	0.522000	0.312900	0.232100
C261	C26	0.677000	0.240100	0.083500
H121	H12	0.736200	0.258100	0.060200
C271	C27	0.840900	0.812100	0.451600
C281	C28	0.930600	0.826800	0.312500
C291	C29	0.815500	0.849400	0.547700
C301	C30	0.002300	0.880100	0.256200
C311	C31	0.669800	0.099600	0.969300
C321	C32	0.628100	0.156100	0.048200
Zn31	Zn3	0.664080	0.549600	0.333430
Zn41	Zn4	0.847970	0.517980	0.200570
O211	O21	0.414700	0.334100	0.689100
O221	O22	0.769500	0.101200	0.677000
O231	O23	0.791100	0.905700	0.801200
O241	O24	0.633400	0.488100	0.452000
O251	O25	0.633900	0.049300	0.735400
O261	O26	0.867500	0.579800	0.079500
O271	O27	0.024000	0.529900	0.785200
C331	C33	0.684800	0.111800	0.692100
C341	C34	0.542100	0.370900	0.583800
H131	H13	0.511500	0.429700	0.560600
C351	C35	0.827400	0.817500	0.833100
C361	C36	0.800500	0.777600	0.917800
H141	H14	0.754500	0.811100	0.953100
C371	C37	0.499600	0.313800	0.652600
O281	O28	0.035500	0.659500	0.687400
O291	O29	0.733600	0.363700	0.422200
C381	C38	0.892400	0.764400	0.779900
H151	H15	0.910700	0.790500	0.721400
O301	O30	0.748700	0.688000	0.087800
C391	C39	0.636600	0.204000	0.653200
C401	C40	0.905100	0.636500	0.899700
H161	H16	0.932200	0.575900	0.923100
C411	C41	0.549200	0.228500	0.686000
H171	H17	0.522000	0.187100	0.732100
C421	C42	0.677000	0.259900	0.583500
H181	H18	0.736200	0.241900	0.560200
C431	C43	0.840900	0.687900	0.951600
C441	C44	0.930600	0.673200	0.812500
C451	C45	0.815500	0.650600	0.047700
C461	C46	0.002300	0.619900	0.756200
C471	C47	0.669800	0.400400	0.469300
C481	C48	0.628100	0.343900	0.548200
Zn51	Zn5	0.664080	0.950400	0.833430
Zn61	Zn6	0.847970	0.982020	0.700570
O311	O31	0.585300	0.834100	0.810900
O321	O32	0.230500	0.601200	0.823000
O331	O33	0.208900	0.405700	0.698800
O341	O34	0.366600	0.988100	0.048000
O351	O35	0.366100	0.549300	0.764600
O361	O36	0.132500	0.079800	0.420500
O371	O37	0.976000	0.029900	0.714800
C491	C49	0.315200	0.611800	0.807900
C501	C50	0.457900	0.870900	0.916200
H191	H19	0.488500	0.929700	0.939400
C511	C51	0.172600	0.317500	0.666900
C521	C52	0.199500	0.277600	0.582200
H201	H20	0.245500	0.311100	0.546900
C531	C53	0.500400	0.813800	0.847400
O381	O38	0.964500	0.159500	0.812600
O391	O39	0.266400	0.863700	0.077800
C541	C54	0.107600	0.264400	0.720100
H211	H21	0.089300	0.290500	0.778600
O401	O40	0.251300	0.188000	0.412200
C551	C55	0.363400	0.704000	0.846800
C561	C56	0.094900	0.136500	0.600300
H221	H22	0.067800	0.075900	0.576900
C571	C57	0.450800	0.728500	0.814000
H231	H23	0.478000	0.687100	0.767900
C581	C58	0.323000	0.759900	0.916500
H241	H24	0.263800	0.741900	0.939800
C591	C59	0.159100	0.187900	0.548400
C601	C60	0.069400	0.173200	0.687500
C611	C61	0.184500	0.150600	0.452300
C621	C62	0.997700	0.119900	0.743800
C631	C63	0.330200	0.900400	0.030700
C641	C64	0.371900	0.843900	0.951800
Zn71	Zn7	0.335920	0.450400	0.666570
Zn81	Zn8	0.152030	0.482020	0.799430
