data_RUGYOJ_clean_PM
_symmetry_space_group_name_H-M	'P1'
_cell_length_a	14.616300
_cell_length_b	23.163900
_cell_length_c	15.711300
_cell_angle_alpha	90.000000
_cell_angle_beta	108.061000
_cell_angle_gamma	90.000000
_symmetry_Int_Tables_number 1

loop_
_symmetry_equiv_pos_as_xyz
'x,y,z'

loop_
_atom_site_label
_atom_site_type_symbol
_atom_site_fract_x
_atom_site_fract_y
_atom_site_fract_z
Cd11	Cd1	0.735180	0.438980	0.085130
Cd21	Cd2	0.764060	0.302670	0.202120
O11	O1	0.546400	0.407700	0.017200
O21	O2	0.393500	0.485100	0.067000
O31	O3	0.830100	0.345130	0.099400
O41	O4	0.277400	0.548710	0.058000
O51	O5	0.650300	0.378310	0.141600
O61	O6	0.391300	0.018540	0.367400
O71	O7	0.669700	0.277750	0.703100
O81	O8	0.898000	0.427750	0.119100
C11	C1	0.284000	0.213000	0.230400
O91	O9	0.239900	0.026690	0.363400
O101	O10	0.654300	0.243230	0.569600
C21	C2	0.353900	0.174500	0.219000
H11	H1	0.391400	0.184700	0.183100
C31	C3	0.506100	0.326800	0.198900
H21	H2	0.566900	0.330000	0.240800
N11	N1	0.268300	0.266890	0.186100
C41	C4	0.549400	0.320000	0.580400
N21	N2	0.347600	0.448410	0.454400
C51	C5	0.484800	0.311000	0.496800
H31	H3	0.488000	0.276900	0.466500
C61	C6	0.489500	0.349540	0.113300
C71	C7	0.433700	0.299660	0.222300
H41	H4	0.445900	0.284700	0.279700
C81	C8	0.338500	0.494570	0.191900
C91	C9	0.417200	0.466120	0.247200
H51	H5	0.468100	0.456600	0.226100
C101	C10	0.316700	0.490900	0.505800
C111	C11	0.411900	0.404100	0.500300
C121	C12	0.541900	0.370300	0.624700
H61	H6	0.583500	0.376300	0.682200
C131	C13	0.343400	0.294600	0.161300
C141	C14	0.565700	0.380940	0.088200
C151	C15	0.421500	0.451600	0.332900
H71	H7	0.476500	0.433700	0.369900
O111	O11	0.262700	0.670400	0.664500
C161	C16	0.262100	0.507200	0.223800
H81	H8	0.209400	0.527300	0.187500
C171	C17	0.229600	0.198000	0.286000
H91	H9	0.187100	0.224200	0.298200
C181	C18	0.366400	0.121600	0.261300
H101	H10	0.415200	0.097100	0.257100
C191	C19	0.629600	0.277800	0.620400
C201	C20	0.306500	0.104900	0.310200
C211	C21	0.336200	0.511270	0.098900
C221	C22	0.004200	0.288600	0.116000
H111	H11	0.948600	0.266600	0.094100
C231	C23	0.263200	0.490200	0.308800
H121	H12	0.209900	0.496800	0.327800
C241	C24	0.344700	0.463100	0.365600
C251	C25	0.997500	0.346400	0.131700
C261	C26	0.398000	0.344100	0.052300
H131	H13	0.385400	0.358700	0.994600
C271	C27	0.315500	0.046000	0.350500
C281	C28	0.473900	0.411900	0.585700
H141	H14	0.470000	0.445300	0.617200
C291	C29	0.240100	0.142800	0.322800
H151	H15	0.201200	0.131500	0.356800
C301	C30	0.177500	0.294300	0.166200
C311	C31	0.325100	0.316800	0.076800
H161	H16	0.263800	0.313700	0.035800
C321	C32	0.093400	0.262800	0.132700
H171	H17	0.097000	0.223600	0.121300
O121	O12	0.184600	0.602800	0.716700
C331	C33	0.330000	0.549700	0.495200
H181	H18	0.358400	0.561900	0.453000
C341	C34	0.414900	0.351600	0.456600
H191	H19	0.370300	0.344100	0.401000
C351	C35	0.275700	0.473300	0.570800
H201	H20	0.268000	0.434300	0.580800
C361	C36	0.901000	0.372900	0.115600
C371	C37	0.082400	0.378900	0.163000
H211	H21	0.078900	0.418400	0.172000
C381	C38	0.301600	0.589800	0.546300
H221	H22	0.310100	0.628900	0.537400
C391	C39	0.171800	0.352500	0.180600
H231	H23	0.227700	0.374300	0.202200
C401	C40	0.246300	0.516000	0.621200
H241	H24	0.216300	0.504700	0.662800
C411	C41	0.260900	0.573200	0.610300
C421	C42	0.232200	0.619400	0.666900
Cd31	Cd3	0.264820	0.938980	0.414870
Cd41	Cd4	0.235940	0.802670	0.297880
O131	O13	0.453600	0.907700	0.482800
O141	O14	0.606500	0.985100	0.433000
O151	O15	0.169900	0.845130	0.400600
O161	O16	0.722600	0.048710	0.442000
O171	O17	0.349700	0.878310	0.358400
O181	O18	0.608700	0.518540	0.132600
O191	O19	0.330300	0.777750	0.796900
O201	O20	0.102000	0.927750	0.380900
C431	C43	0.716000	0.713000	0.269600
O211	O21	0.760100	0.526690	0.136600
O221	O22	0.345700	0.743230	0.930400
C441	C44	0.646100	0.674500	0.281000
H251	H25	0.608600	0.684700	0.316900
C451	C45	0.493900	0.826800	0.301100
H261	H26	0.433100	0.830000	0.259200
N31	N3	0.731700	0.766890	0.313900
C461	C46	0.450600	0.820000	0.919600
N41	N4	0.652400	0.948410	0.045600
C471	C47	0.515200	0.811000	0.003200
H271	H27	0.512000	0.776900	0.033500
C481	C48	0.510500	0.849540	0.386700
C491	C49	0.566300	0.799660	0.277700
H281	H28	0.554100	0.784700	0.220300
C501	C50	0.661500	0.994570	0.308100
C511	C51	0.582800	0.966120	0.252800
H291	H29	0.531900	0.956600	0.273900
C521	C52	0.683300	0.990900	0.994200
C531	C53	0.588100	0.904100	0.999700
C541	C54	0.458100	0.870300	0.875300
H301	H30	0.416500	0.876300	0.817800
C551	C55	0.656600	0.794600	0.338700
C561	C56	0.434300	0.880940	0.411800
C571	C57	0.578500	0.951600	0.167100
H311	H31	0.523500	0.933700	0.130100
O231	O23	0.737300	0.170400	0.835500
C581	C58	0.737900	0.007200	0.276200
H321	H32	0.790600	0.027300	0.312500
C591	C59	0.770400	0.698000	0.214000
H331	H33	0.812900	0.724200	0.201800
C601	C60	0.633600	0.621600	0.238700
H341	H34	0.584800	0.597100	0.242900
C611	C61	0.370400	0.777800	0.879600
C621	C62	0.693500	0.604900	0.189800
C631	C63	0.663800	0.011270	0.401100
C641	C64	0.995800	0.788600	0.384000
H351	H35	0.051400	0.766600	0.405900
C651	C65	0.736800	0.990200	0.191200
H361	H36	0.790100	0.996800	0.172200
C661	C66	0.655300	0.963100	0.134400
C671	C67	0.002500	0.846400	0.368300
C681	C68	0.602000	0.844100	0.447700
H371	H37	0.614600	0.858700	0.505400
C691	C69	0.684500	0.546000	0.149500
C701	C70	0.526100	0.911900	0.914300
H381	H38	0.530000	0.945300	0.882800
C711	C71	0.759900	0.642800	0.177200
H391	H39	0.798800	0.631500	0.143200
C721	C72	0.822500	0.794300	0.333800
C731	C73	0.674900	0.816800	0.423200
H401	H40	0.736200	0.813700	0.464200
C741	C74	0.906600	0.762800	0.367300
H411	H41	0.903000	0.723600	0.378700
O241	O24	0.815400	0.102800	0.783300
C751	C75	0.670000	0.049700	0.004800
H421	H42	0.641600	0.061900	0.047000
C761	C76	0.585100	0.851600	0.043400
H431	H43	0.629700	0.844100	0.099000
C771	C77	0.724300	0.973300	0.929200
H441	H44	0.732000	0.934300	0.919200
C781	C78	0.099000	0.872900	0.384400
C791	C79	0.917600	0.878900	0.337000
H451	H45	0.921100	0.918400	0.328000
C801	C80	0.698400	0.089800	0.953700
H461	H46	0.689900	0.128900	0.962600
C811	C81	0.828200	0.852500	0.319400
H471	H47	0.772300	0.874300	0.297800
C821	C82	0.753700	0.016000	0.878800
H481	H48	0.783700	0.004700	0.837200
C831	C83	0.739100	0.073200	0.889700
C841	C84	0.767800	0.119400	0.833100
Cd51	Cd5	0.264820	0.561020	0.914870
Cd61	Cd6	0.235940	0.697330	0.797880
O251	O25	0.453600	0.592300	0.982800
O261	O26	0.606500	0.514900	0.933000
O271	O27	0.169900	0.654870	0.900600
O281	O28	0.722600	0.451290	0.942000
O291	O29	0.349700	0.621690	0.858400
O301	O30	0.608700	0.981460	0.632600
O311	O31	0.330300	0.722250	0.296900
O321	O32	0.102000	0.572250	0.880900
C851	C85	0.716000	0.787000	0.769600
O331	O33	0.760100	0.973310	0.636600
O341	O34	0.345700	0.756770	0.430400
C861	C86	0.646100	0.825500	0.781000
H491	H49	0.608600	0.815300	0.816900
C871	C87	0.493900	0.673200	0.801100
H501	H50	0.433100	0.670000	0.759200
N51	N5	0.731700	0.733110	0.813900
C881	C88	0.450600	0.680000	0.419600
N61	N6	0.652400	0.551590	0.545600
C891	C89	0.515200	0.689000	0.503200
H511	H51	0.512000	0.723100	0.533500
C901	C90	0.510500	0.650460	0.886700
C911	C91	0.566300	0.700340	0.777700
H521	H52	0.554100	0.715300	0.720300
C921	C92	0.661500	0.505430	0.808100
C931	C93	0.582800	0.533880	0.752800
H531	H53	0.531900	0.543400	0.773900
C941	C94	0.683300	0.509100	0.494200
C951	C95	0.588100	0.595900	0.499700
C961	C96	0.458100	0.629700	0.375300
H541	H54	0.416500	0.623700	0.317800
C971	C97	0.656600	0.705400	0.838700
C981	C98	0.434300	0.619060	0.911800
C991	C99	0.578500	0.548400	0.667100
H551	H55	0.523500	0.566300	0.630100
O351	O35	0.737300	0.329600	0.335500
C1001	C100	0.737900	0.492800	0.776200
H561	H56	0.790600	0.472700	0.812500
C1011	C101	0.770400	0.802000	0.714000
H571	H57	0.812900	0.775800	0.701800
C1021	C102	0.633600	0.878400	0.738700
H581	H58	0.584800	0.902900	0.742900
C1031	C103	0.370400	0.722200	0.379600
C1041	C104	0.693500	0.895100	0.689800
C1051	C105	0.663800	0.488730	0.901100
C1061	C106	0.995800	0.711400	0.884000
H591	H59	0.051400	0.733400	0.905900
C1071	C107	0.736800	0.509800	0.691200
H601	H60	0.790100	0.503200	0.672200
C1081	C108	0.655300	0.536900	0.634400
C1091	C109	0.002500	0.653600	0.868300
C1101	C110	0.602000	0.655900	0.947700
H611	H61	0.614600	0.641300	0.005400
C1111	C111	0.684500	0.954000	0.649500
C1121	C112	0.526100	0.588100	0.414300
H621	H62	0.530000	0.554700	0.382800
C1131	C113	0.759900	0.857200	0.677200
H631	H63	0.798800	0.868500	0.643200
C1141	C114	0.822500	0.705700	0.833800
C1151	C115	0.674900	0.683200	0.923200
H641	H64	0.736200	0.686300	0.964200
C1161	C116	0.906600	0.737200	0.867300
H651	H65	0.903000	0.776400	0.878700
O361	O36	0.815400	0.397200	0.283300
C1171	C117	0.670000	0.450300	0.504800
H661	H66	0.641600	0.438100	0.547000
C1181	C118	0.585100	0.648400	0.543400
H671	H67	0.629700	0.655900	0.599000
C1191	C119	0.724300	0.526700	0.429200
H681	H68	0.732000	0.565700	0.419200
C1201	C120	0.099000	0.627100	0.884400
C1211	C121	0.917600	0.621100	0.837000
H691	H69	0.921100	0.581600	0.828000
C1221	C122	0.698400	0.410200	0.453700
H701	H70	0.689900	0.371100	0.462600
C1231	C123	0.828200	0.647500	0.819400
H711	H71	0.772300	0.625700	0.797800
C1241	C124	0.753700	0.484000	0.378800
H721	H72	0.783700	0.495300	0.337200
C1251	C125	0.739100	0.426800	0.389700
C1261	C126	0.767800	0.380600	0.333100
Cd71	Cd7	0.735180	0.061020	0.585130
Cd81	Cd8	0.764060	0.197330	0.702120
O371	O37	0.546400	0.092300	0.517200
O381	O38	0.393500	0.014900	0.567000
O391	O39	0.830100	0.154870	0.599400
O401	O40	0.277400	0.951290	0.558000
O411	O41	0.650300	0.121690	0.641600
O421	O42	0.391300	0.481460	0.867400
O431	O43	0.669700	0.222250	0.203100
O441	O44	0.898000	0.072250	0.619100
C1271	C127	0.284000	0.287000	0.730400
O451	O45	0.239900	0.473310	0.863400
O461	O46	0.654300	0.256770	0.069600
C1281	C128	0.353900	0.325500	0.719000
H731	H73	0.391400	0.315300	0.683100
C1291	C129	0.506100	0.173200	0.698900
H741	H74	0.566900	0.170000	0.740800
N71	N7	0.268300	0.233110	0.686100
C1301	C130	0.549400	0.180000	0.080400
N81	N8	0.347600	0.051590	0.954400
C1311	C131	0.484800	0.189000	0.996800
H751	H75	0.488000	0.223100	0.966500
C1321	C132	0.489500	0.150460	0.613300
C1331	C133	0.433700	0.200340	0.722300
H761	H76	0.445900	0.215300	0.779700
C1341	C134	0.338500	0.005430	0.691900
C1351	C135	0.417200	0.033880	0.747200
H771	H77	0.468100	0.043400	0.726100
C1361	C136	0.316700	0.009100	0.005800
C1371	C137	0.411900	0.095900	0.000300
C1381	C138	0.541900	0.129700	0.124700
H781	H78	0.583500	0.123700	0.182200
C1391	C139	0.343400	0.205400	0.661300
C1401	C140	0.565700	0.119060	0.588200
C1411	C141	0.421500	0.048400	0.832900
H791	H79	0.476500	0.066300	0.869900
O471	O47	0.262700	0.829600	0.164500
C1421	C142	0.262100	0.992800	0.723800
H801	H80	0.209400	0.972700	0.687500
C1431	C143	0.229600	0.302000	0.786000
H811	H81	0.187100	0.275800	0.798200
C1441	C144	0.366400	0.378400	0.761300
H821	H82	0.415200	0.402900	0.757100
C1451	C145	0.629600	0.222200	0.120400
C1461	C146	0.306500	0.395100	0.810200
C1471	C147	0.336200	0.988730	0.598900
C1481	C148	0.004200	0.211400	0.616000
H831	H83	0.948600	0.233400	0.594100
C1491	C149	0.263200	0.009800	0.808800
H841	H84	0.209900	0.003200	0.827800
C1501	C150	0.344700	0.036900	0.865600
C1511	C151	0.997500	0.153600	0.631700
C1521	C152	0.398000	0.155900	0.552300
H851	H85	0.385400	0.141300	0.494600
C1531	C153	0.315500	0.454000	0.850500
C1541	C154	0.473900	0.088100	0.085700
H861	H86	0.470000	0.054700	0.117200
C1551	C155	0.240100	0.357200	0.822800
H871	H87	0.201200	0.368500	0.856800
C1561	C156	0.177500	0.205700	0.666200
C1571	C157	0.325100	0.183200	0.576800
H881	H88	0.263800	0.186300	0.535800
C1581	C158	0.093400	0.237200	0.632700
H891	H89	0.097000	0.276400	0.621300
O481	O48	0.184600	0.897200	0.216700
C1591	C159	0.330000	0.950300	0.995200
H901	H90	0.358400	0.938100	0.953000
C1601	C160	0.414900	0.148400	0.956600
H911	H91	0.370300	0.155900	0.901000
C1611	C161	0.275700	0.026700	0.070800
H921	H92	0.268000	0.065700	0.080800
C1621	C162	0.901000	0.127100	0.615600
C1631	C163	0.082400	0.121100	0.663000
H931	H93	0.078900	0.081600	0.672000
C1641	C164	0.301600	0.910200	0.046300
H941	H94	0.310100	0.871100	0.037400
C1651	C165	0.171800	0.147500	0.680600
H951	H95	0.227700	0.125700	0.702200
C1661	C166	0.246300	0.984000	0.121200
H961	H96	0.216300	0.995300	0.162800
C1671	C167	0.260900	0.926800	0.110300
C1681	C168	0.232200	0.880600	0.166900
Cd91	Cd9	0.500000	0.500000	0.000000
Cd101	Cd10	0.500000	0.000000	0.500000
