data_RUGZAW_clean_PM
_symmetry_space_group_name_H-M	'P1'
_cell_length_a	14.797900
_cell_length_b	18.641300
_cell_length_c	22.287900
_cell_angle_alpha	86.672000
_cell_angle_beta	79.485000
_cell_angle_gamma	75.825000
_symmetry_Int_Tables_number 1

loop_
_symmetry_equiv_pos_as_xyz
'x,y,z'

loop_
_atom_site_label
_atom_site_type_symbol
_atom_site_fract_x
_atom_site_fract_y
_atom_site_fract_z
Zn11	Zn1	0.403630	0.803480	0.872090
Zn21	Zn2	0.361450	0.063220	0.695660
Zn31	Zn3	0.312220	0.702470	0.133190
Zn41	Zn4	0.270450	0.958980	0.955610
O11	O1	0.141490	0.797780	0.190630
O21	O2	0.129400	0.034020	0.063480
O31	O3	0.537780	0.736320	0.766360
O41	O4	0.440890	0.647210	0.139070
O51	O5	0.185340	0.157740	0.749540
N11	N1	0.361000	0.002010	0.773390
N21	N2	0.277400	0.021360	0.652730
N31	N3	0.397000	0.674500	0.984750
H11	H1	0.351800	0.655800	0.978300
H21	H2	0.437800	0.672600	0.951400
O61	O6	0.324930	0.171150	0.703360
N41	N4	0.319500	0.766600	0.058560
O71	O7	0.539720	0.758670	0.862610
C11	C1	0.362300	0.746540	0.000890
C21	C2	0.534400	0.992000	0.627380
N51	N5	0.379000	0.903070	0.835420
C31	C3	0.390800	0.927530	0.778200
O81	O8	0.281500	0.743010	0.214960
N61	N6	0.221500	0.639670	0.122960
N71	N7	0.315600	0.866340	0.997870
N81	N8	0.325400	0.747190	0.835610
N91	N9	0.337400	0.967170	0.871220
N101	N10	0.361900	0.802230	0.962810
N111	N11	0.248900	0.886280	0.102240
H31	H3	0.209800	0.924200	0.090200
H41	H4	0.218600	0.862000	0.129300
O91	O9	0.495120	0.050810	0.657650
O101	O10	0.437570	0.560970	0.075120
N121	N12	0.426800	0.881640	0.730210
H51	H5	0.414000	0.839300	0.739300
H61	H6	0.401000	0.900800	0.699500
C41	C4	0.686100	0.915510	0.573240
H71	H7	0.651500	0.885200	0.561200
O111	O11	0.215600	0.058780	0.975390
C51	C5	0.729900	0.651200	0.756360
H81	H8	0.694400	0.635600	0.731600
O121	O12	0.491990	0.946380	0.615860
N131	N13	0.973300	0.889410	0.499750
C61	C6	0.579600	0.734290	0.809720
N141	N14	0.921900	0.419320	0.065770
C71	C7	0.240600	0.196450	0.727610
C81	C8	0.204700	0.998300	0.685210
H91	H9	0.192800	0.004000	0.727300
C91	C9	0.146600	0.669480	0.095850
H101	H10	0.135000	0.719600	0.085700
N151	N15	0.017900	0.545180	0.757570
C101	C10	0.036000	0.859100	0.374780
H111	H11	0.973400	0.884300	0.387500
N161	N16	0.293500	0.095050	0.849100
H121	H12	0.258400	0.118200	0.823700
H131	H13	0.259900	0.097200	0.885200
C111	C11	0.826500	0.622770	0.748020
H141	H14	0.854700	0.586900	0.718600
C121	C12	0.161300	0.801340	0.294570
C131	C13	0.292200	0.842190	0.053380
C141	C14	0.098200	0.843330	0.416190
C151	C15	0.685000	0.702940	0.801370
C161	C16	0.161900	0.957130	0.596720
C171	C17	0.640300	0.976500	0.608050
C181	C18	0.067400	0.837300	0.314330
H151	H15	0.025200	0.847000	0.287000
C191	C19	0.783600	0.898900	0.556040
H161	H16	0.813600	0.858000	0.531800
C201	C20	0.179300	0.523690	0.126810
H171	H17	0.192700	0.473800	0.137700
C211	C21	0.145500	0.966200	0.659260
H181	H18	0.095500	0.950900	0.683800
C221	C22	0.293300	0.633800	0.813570
H191	H19	0.312300	0.582400	0.812400
C231	C23	0.086500	0.629790	0.082380
H201	H20	0.035800	0.652400	0.063100
C241	C24	0.327400	0.023270	0.833010
C251	C25	0.015500	0.392550	0.059110
C261	C26	0.051000	0.312070	0.045630
C271	C27	0.191500	0.805700	0.396220
H211	H21	0.233700	0.794900	0.423500
C281	C28	0.077000	0.434550	0.068960
H221	H22	0.141700	0.413700	0.064600
C291	C29	0.882500	0.646520	0.782460
C301	C30	0.236100	0.568640	0.139090
H231	H23	0.286200	0.548100	0.159400
C311	C31	0.986400	0.616070	0.773930
C321	C32	0.103100	0.553590	0.098360
C331	C33	0.195200	0.779780	0.228860
C341	C34	0.067200	0.873850	0.478900
C351	C35	0.943700	0.536540	0.090310
H241	H24	0.917300	0.586100	0.099600
C361	C36	0.143900	0.628300	0.779020
C371	C37	0.294400	0.010920	0.591720
H251	H25	0.345600	0.025900	0.568400
C381	C38	0.740300	0.725600	0.836810
H261	H26	0.711600	0.759200	0.867900
C391	C39	0.130700	0.892290	0.510070
H271	H27	0.195100	0.880400	0.494200
C401	C40	0.836400	0.699380	0.826900
H281	H28	0.872000	0.717100	0.850300
C411	C41	0.790200	0.003200	0.609490
H291	H29	0.824800	0.032900	0.622500
C421	C42	0.246500	0.783010	0.815370
H301	H30	0.231600	0.834500	0.814600
C431	C43	0.098000	0.928680	0.565280
C441	C44	0.240600	0.979710	0.562720
H311	H31	0.255700	0.973300	0.520700
C451	C45	0.836800	0.942310	0.574400
C461	C46	0.001700	0.944570	0.587090
H321	H32	0.977300	0.968500	0.624100
C471	C47	0.040500	0.508080	0.085340
C481	C48	0.047200	0.657860	0.785040
H331	H33	0.022600	0.706800	0.796800
C491	C49	0.175200	0.554610	0.760870
H341	H34	0.239600	0.532300	0.754900
C501	C50	0.782400	0.516850	0.088020
C511	C51	0.941600	0.924590	0.553530
C521	C52	0.635100	0.598000	0.133020
H351	H35	0.603200	0.636600	0.159300
C531	C53	0.584700	0.563910	0.102150
C541	C54	0.634000	0.505330	0.063730
H361	H36	0.601300	0.482300	0.042000
C551	C55	0.693600	0.020800	0.625430
H371	H37	0.663400	0.062900	0.648200
C561	C56	0.886000	0.490480	0.081270
C571	C57	0.186600	0.747400	0.795720
H381	H38	0.131800	0.774700	0.782900
C581	C58	0.208000	0.669940	0.795050
C591	C59	0.206200	0.280360	0.730440
C601	C60	0.480600	0.591150	0.106160
C611	C61	0.142700	0.433600	0.740390
C621	C62	0.112400	0.514260	0.751570
C631	C63	0.731200	0.481340	0.057750
H391	H39	0.763000	0.441000	0.033200
C641	C64	0.026300	0.188380	0.060580
H401	H40	0.988000	0.156400	0.076200
C651	C65	0.992100	0.264920	0.067230
H411	H41	0.930000	0.284300	0.086100
C661	C66	0.141400	0.283100	0.015220
H421	H42	0.180800	0.314400	0.000200
C671	C67	0.117700	0.160900	0.030480
C681	C68	0.081500	0.388600	0.756910
H431	H43	0.017900	0.409600	0.771300
C691	C69	0.349000	0.672700	0.833270
H441	H44	0.405100	0.647000	0.845500
C701	C70	0.222100	0.784300	0.336060
H451	H45	0.284300	0.758100	0.323500
C711	C71	0.732800	0.575300	0.125170
H461	H46	0.765700	0.599900	0.145400
C721	C72	0.173900	0.207600	0.006970
H471	H47	0.234300	0.188500	0.985300
C731	C73	0.238100	0.400600	0.716300
H481	H48	0.280500	0.430100	0.703300
C741	C74	0.112500	0.312600	0.752530
H491	H49	0.069900	0.283000	0.764500
C751	C75	0.268400	0.324600	0.712000
H501	H50	0.331500	0.303200	0.696500
C761	C76	0.154700	0.079100	0.024100
Zn51	Zn5	0.596370	0.196520	0.127910
Zn61	Zn6	0.638550	0.936780	0.304340
Zn71	Zn7	0.687780	0.297530	0.866810
Zn81	Zn8	0.729550	0.041020	0.044390
O131	O13	0.858510	0.202220	0.809370
O141	O14	0.870600	0.965980	0.936520
O151	O15	0.462220	0.263680	0.233640
O161	O16	0.559110	0.352790	0.860930
O171	O17	0.814660	0.842260	0.250460
N171	N17	0.639000	0.997990	0.226610
N181	N18	0.722600	0.978640	0.347270
N191	N19	0.603000	0.325500	0.015250
H511	H51	0.648200	0.344200	0.021700
H521	H52	0.562200	0.327400	0.048600
O181	O18	0.675070	0.828850	0.296640
N201	N20	0.680500	0.233400	0.941440
O191	O19	0.460280	0.241330	0.137390
C771	C77	0.637700	0.253460	0.999110
C781	C78	0.465600	0.008000	0.372620
N211	N21	0.621000	0.096930	0.164580
C791	C79	0.609200	0.072470	0.221800
O201	O20	0.718500	0.256990	0.785040
N221	N22	0.778500	0.360330	0.877040
N231	N23	0.684400	0.133660	0.002130
N241	N24	0.674600	0.252810	0.164390
N251	N25	0.662600	0.032830	0.128780
N261	N26	0.638100	0.197770	0.037190
N271	N27	0.751100	0.113720	0.897760
H531	H53	0.790200	0.075800	0.909800
H541	H54	0.781400	0.138000	0.870700
O211	O21	0.504880	0.949190	0.342350
O221	O22	0.562430	0.439030	0.924880
N281	N28	0.573200	0.118360	0.269790
H551	H55	0.586000	0.160700	0.260700
H561	H56	0.599000	0.099200	0.300500
C801	C80	0.313900	0.084490	0.426760
H571	H57	0.348500	0.114800	0.438800
O231	O23	0.784400	0.941220	0.024610
C811	C81	0.270100	0.348800	0.243640
H581	H58	0.305600	0.364400	0.268400
O241	O24	0.508010	0.053620	0.384140
N291	N29	0.026700	0.110590	0.500250
C821	C82	0.420400	0.265710	0.190280
N301	N30	0.078100	0.580680	0.934230
C831	C83	0.759400	0.803550	0.272390
C841	C84	0.795300	0.001700	0.314790
H591	H59	0.807200	0.996000	0.272700
C851	C85	0.853400	0.330520	0.904150
H601	H60	0.865000	0.280400	0.914300
N311	N31	0.982100	0.454820	0.242430
C861	C86	0.964000	0.140900	0.625220
H611	H61	0.026600	0.115700	0.612500
N321	N32	0.706500	0.904950	0.150900
H621	H62	0.741600	0.881800	0.176300
H631	H63	0.740100	0.902800	0.114800
C871	C87	0.173500	0.377230	0.251980
H641	H64	0.145300	0.413100	0.281400
C881	C88	0.838700	0.198660	0.705430
C891	C89	0.707800	0.157810	0.946620
C901	C90	0.901800	0.156670	0.583810
C911	C91	0.315000	0.297060	0.198630
C921	C92	0.838100	0.042870	0.403280
C931	C93	0.359700	0.023500	0.391950
C941	C94	0.932600	0.162700	0.685670
H651	H65	0.974800	0.153000	0.713000
C951	C95	0.216400	0.101100	0.443960
H661	H66	0.186400	0.142000	0.468200
C961	C96	0.820700	0.476310	0.873190
H671	H67	0.807300	0.526200	0.862300
C971	C97	0.854500	0.033800	0.340740
H681	H68	0.904500	0.049100	0.316200
C981	C98	0.706700	0.366200	0.186430
H691	H69	0.687700	0.417600	0.187600
C991	C99	0.913500	0.370210	0.917620
H701	H70	0.964200	0.347600	0.936900
C1001	C100	0.672600	0.976730	0.166990
C1011	C101	0.984500	0.607450	0.940890
C1021	C102	0.949000	0.687930	0.954370
C1031	C103	0.808500	0.194300	0.603780
H711	H71	0.766300	0.205100	0.576500
C1041	C104	0.923000	0.565450	0.931040
H721	H72	0.858300	0.586300	0.935400
C1051	C105	0.117500	0.353480	0.217540
C1061	C106	0.763900	0.431360	0.860910
H731	H73	0.713800	0.451900	0.840600
C1071	C107	0.013600	0.383930	0.226070
C1081	C108	0.896900	0.446410	0.901640
C1091	C109	0.804800	0.220220	0.771140
C1101	C110	0.932800	0.126150	0.521100
C1111	C111	0.056300	0.463460	0.909690
H741	H74	0.082700	0.413900	0.900400
C1121	C112	0.856100	0.371700	0.220980
C1131	C113	0.705600	0.989080	0.408280
H751	H75	0.654400	0.974100	0.431600
C1141	C114	0.259700	0.274400	0.163190
H761	H76	0.288400	0.240800	0.132100
C1151	C115	0.869300	0.107710	0.489930
H771	H77	0.804900	0.119600	0.505800
C1161	C116	0.163600	0.300620	0.173100
H781	H78	0.128000	0.282900	0.149700
C1171	C117	0.209800	0.996800	0.390510
H791	H79	0.175200	0.967100	0.377500
C1181	C118	0.753500	0.216990	0.184630
H801	H80	0.768400	0.165500	0.185400
C1191	C119	0.902000	0.071320	0.434720
C1201	C120	0.759400	0.020290	0.437280
H811	H81	0.744300	0.026700	0.479300
C1211	C121	0.163200	0.057690	0.425600
C1221	C122	0.998300	0.055430	0.412910
H821	H82	0.022700	0.031500	0.375900
C1231	C123	0.959500	0.491920	0.914660
C1241	C124	0.952800	0.342140	0.214960
H831	H83	0.977400	0.293200	0.203200
C1251	C125	0.824800	0.445390	0.239130
H841	H84	0.760400	0.467700	0.245100
C1261	C126	0.217600	0.483150	0.911980
C1271	C127	0.058400	0.075410	0.446470
C1281	C128	0.364900	0.402000	0.866980
H851	H85	0.396800	0.363400	0.840700
C1291	C129	0.415300	0.436090	0.897850
C1301	C130	0.366000	0.494670	0.936270
H861	H86	0.398700	0.517700	0.958000
C1311	C131	0.306400	0.979200	0.374570
H871	H87	0.336600	0.937100	0.351800
C1321	C132	0.114000	0.509520	0.918730
C1331	C133	0.813400	0.252600	0.204280
H881	H88	0.868200	0.225300	0.217100
C1341	C134	0.792000	0.330060	0.204950
C1351	C135	0.793800	0.719640	0.269560
C1361	C136	0.519400	0.408850	0.893840
C1371	C137	0.857300	0.566400	0.259610
C1381	C138	0.887600	0.485740	0.248430
C1391	C139	0.268800	0.518660	0.942250
H891	H89	0.237000	0.559000	0.966800
C1401	C140	0.973700	0.811620	0.939420
H901	H90	0.012000	0.843600	0.923800
C1411	C141	0.007900	0.735080	0.932770
H911	H91	0.070000	0.715700	0.913900
C1421	C142	0.858600	0.716900	0.984780
H921	H92	0.819200	0.685600	0.999800
C1431	C143	0.882300	0.839100	0.969520
C1441	C144	0.918500	0.611400	0.243090
H931	H93	0.982100	0.590400	0.228700
C1451	C145	0.651000	0.327300	0.166730
H941	H94	0.594900	0.353000	0.154500
C1461	C146	0.777900	0.215700	0.663940
H951	H95	0.715700	0.241900	0.676500
C1471	C147	0.267200	0.424700	0.874830
H961	H96	0.234300	0.400100	0.854600
C1481	C148	0.826100	0.792400	0.993030
H971	H97	0.765700	0.811500	0.014700
C1491	C149	0.761900	0.599400	0.283700
H981	H98	0.719500	0.569900	0.296700
C1501	C150	0.887500	0.687400	0.247470
H991	H99	0.930100	0.717000	0.235500
C1511	C151	0.731600	0.675400	0.288000
H1001	H100	0.668500	0.696800	0.303500
C1521	C152	0.845300	0.920900	0.975900
