data_RUHCED_SL_PM
_symmetry_space_group_name_H-M	'P1'
_cell_length_a	6.712000
_cell_length_b	11.248600
_cell_length_c	17.965000
_cell_angle_alpha	90.000000
_cell_angle_beta	91.975000
_cell_angle_gamma	90.000000
_symmetry_Int_Tables_number 1

loop_
_symmetry_equiv_pos_as_xyz
'x,y,z'

loop_
_atom_site_label
_atom_site_type_symbol
_atom_site_fract_x
_atom_site_fract_y
_atom_site_fract_z
O11	O1	0.394400	0.878500	0.427500
C21	C2	0.238000	0.869200	0.394600
C31	C3	0.240300	0.803000	0.318700
C41	C4	0.071600	0.783400	0.277800
C51	C5	0.080600	0.728600	0.208200
O61	O6	0.430200	0.598000	0.087500
H71	H7	0.554600	0.790000	0.323700
H81	H8	0.569700	0.689000	0.201800
H91	H9	0.250000	0.334200	0.000000
O101	O10	0.894400	0.378500	0.927500
C111	C11	0.738000	0.369200	0.894600
C121	C12	0.740300	0.303000	0.818700
C131	C13	0.571600	0.283400	0.777800
C141	C14	0.580600	0.228600	0.708200
O151	O15	0.930200	0.098000	0.587500
H161	H16	0.054600	0.290000	0.823700
H171	H17	0.069700	0.189000	0.701800
H181	H18	0.750000	0.834200	0.500000
O191	O19	0.105600	0.878500	0.572500
C201	C20	0.262000	0.869200	0.605400
C211	C21	0.259700	0.803000	0.681300
C221	C22	0.428400	0.783400	0.722200
C231	C23	0.419400	0.728600	0.791800
O241	O24	0.069800	0.598000	0.912500
H251	H25	0.945400	0.790000	0.676300
H261	H26	0.930300	0.689000	0.798200
O271	O27	0.605600	0.378500	0.072500
C281	C28	0.762000	0.369200	0.105400
C291	C29	0.759700	0.303000	0.181300
C301	C30	0.928400	0.283400	0.222200
C311	C31	0.919400	0.228600	0.291800
O321	O32	0.569800	0.098000	0.412500
H331	H33	0.445400	0.290000	0.176300
H341	H34	0.430300	0.189000	0.298200
O361	O36	0.605600	0.121500	0.572500
C371	C37	0.762000	0.130800	0.605400
C381	C38	0.759700	0.197000	0.681300
C391	C39	0.928400	0.216600	0.722200
C401	C40	0.919400	0.271400	0.791800
O411	O41	0.569800	0.402000	0.912500
H421	H42	0.445400	0.210000	0.676300
H431	H43	0.430300	0.311000	0.798200
O441	O44	0.105600	0.621500	0.072500
C451	C45	0.262000	0.630800	0.105400
C461	C46	0.259700	0.697000	0.181300
C471	C47	0.428400	0.716600	0.222200
C481	C48	0.419400	0.771400	0.291800
O491	O49	0.069800	0.902000	0.412500
H501	H50	0.945400	0.710000	0.176300
H511	H51	0.930300	0.811000	0.298200
H521	H52	0.250000	0.165800	0.500000
O531	O53	0.894400	0.121500	0.427500
C541	C54	0.738000	0.130800	0.394600
C551	C55	0.740300	0.197000	0.318700
C561	C56	0.571600	0.216600	0.277800
C571	C57	0.580600	0.271400	0.208200
O581	O58	0.930200	0.402000	0.087500
H591	H59	0.054600	0.210000	0.323700
H601	H60	0.069700	0.311000	0.201800
H611	H61	0.750000	0.665800	0.000000
O621	O62	0.394400	0.621500	0.927500
C631	C63	0.238000	0.630800	0.894600
C641	C64	0.240300	0.697000	0.818700
C651	C65	0.071600	0.716600	0.777800
C661	C66	0.080600	0.771400	0.708200
O671	O67	0.430200	0.902000	0.587500
H681	H68	0.554600	0.710000	0.823700
H691	H69	0.569700	0.811000	0.701800
Ga711	Ga71	0.500000	0.000000	0.500000
Ga721	Ga72	0.000000	0.500000	0.000000
Ga731	Ga73	0.000000	0.000000	0.500000
Ga741	Ga74	0.500000	0.500000	0.000000
O751	O75	0.250000	0.076900	0.500000
O761	O76	0.750000	0.576900	0.000000
O771	O77	0.750000	0.923100	0.500000
O781	O78	0.250000	0.423100	0.000000
