data_RULVUP_clean_PM
_symmetry_space_group_name_H-M	'P1'
_cell_length_a	7.310000
_cell_length_b	13.144000
_cell_length_c	13.800000
_cell_angle_alpha	83.460000
_cell_angle_beta	82.880000
_cell_angle_gamma	84.710000
_symmetry_Int_Tables_number 1

loop_
_symmetry_equiv_pos_as_xyz
'x,y,z'

loop_
_atom_site_label
_atom_site_type_symbol
_atom_site_fract_x
_atom_site_fract_y
_atom_site_fract_z
N11	N1	0.796400	0.788100	0.789600
N21	N2	0.535400	0.820000	0.609400
N31	N3	0.903700	0.633200	0.617300
N41	N4	0.493500	0.627300	0.780700
C11	C1	0.926000	0.852000	0.757700
C21	C2	0.994600	0.913600	0.816800
C31	C3	0.929600	0.910300	0.915300
C41	C4	0.796100	0.841300	0.949300
C51	C5	0.733100	0.783700	0.884900
C61	C6	0.438800	0.795700	0.540800
C71	C7	0.288200	0.855900	0.508900
C81	C8	0.233900	0.949000	0.546200
C91	C9	0.342500	0.978400	0.612700
C101	C10	0.487900	0.912500	0.641900
C111	C11	0.068600	0.014000	0.521000
C121	C12	0.023200	0.569500	0.667700
C131	C13	0.191800	0.530800	0.626100
C141	C14	0.249100	0.557100	0.526500
C151	C15	0.121600	0.618600	0.474700
C161	C16	0.953600	0.654900	0.521200
C171	C17	0.428400	0.523100	0.478500
C181	C18	0.512300	0.526400	0.810900
C191	C19	0.377900	0.476600	0.872800
C201	C20	0.217000	0.531300	0.910200
C211	C21	0.200400	0.635900	0.879600
C221	C22	0.338200	0.679400	0.815100
C231	C23	0.072300	0.478100	0.974500
C241	C24	0.949900	0.957300	0.009200
C251	C25	0.028300	0.992700	0.954100
H11	H1	0.973800	0.855500	0.691000
H21	H2	0.086000	0.957900	0.790000
H31	H3	0.749300	0.834200	0.016000
H41	H4	0.640900	0.739000	0.909200
H51	H5	0.474900	0.734100	0.512400
H61	H6	0.222500	0.833700	0.461900
H71	H7	0.316900	0.042600	0.637400
H81	H8	0.558300	0.933500	0.687500
H91	H9	0.059800	0.082300	0.536300
H101	H10	0.988900	0.550700	0.734800
H111	H11	0.269000	0.486500	0.664600
H121	H12	0.149900	0.635900	0.406800
H131	H13	0.871100	0.696500	0.483700
H141	H14	0.445400	0.535000	0.409600
H151	H15	0.621500	0.488100	0.788900
H161	H16	0.395000	0.405400	0.890000
H171	H17	0.095500	0.676800	0.902900
H181	H18	0.321600	0.749800	0.794100
H191	H19	0.083900	0.405900	0.979900
Cu11	Cu1	0.688500	0.707700	0.690900
N51	N5	0.203600	0.211900	0.210400
N61	N6	0.464600	0.180000	0.390600
N71	N7	0.096300	0.366800	0.382700
N81	N8	0.506500	0.372700	0.219300
C261	C26	0.074000	0.148000	0.242300
C271	C27	0.005400	0.086400	0.183200
C281	C28	0.070400	0.089700	0.084700
C291	C29	0.203900	0.158700	0.050700
C301	C30	0.266900	0.216300	0.115100
C311	C31	0.561200	0.204300	0.459200
C321	C32	0.711800	0.144100	0.491100
C331	C33	0.766100	0.051000	0.453800
C341	C34	0.657500	0.021600	0.387300
C351	C35	0.512100	0.087500	0.358100
C361	C36	0.931400	0.986000	0.479000
C371	C37	0.976800	0.430500	0.332300
C381	C38	0.808200	0.469200	0.373900
C391	C39	0.750900	0.442900	0.473500
C401	C40	0.878400	0.381400	0.525300
C411	C41	0.046400	0.345100	0.478800
C421	C42	0.571600	0.476900	0.521500
C431	C43	0.487700	0.473600	0.189100
C441	C44	0.622100	0.523400	0.127200
C451	C45	0.783000	0.468700	0.089800
C461	C46	0.799600	0.364100	0.120400
C471	C47	0.661800	0.320600	0.184900
C481	C48	0.927700	0.521900	0.025500
C491	C49	0.050100	0.042700	0.990800
C501	C50	0.971700	0.007300	0.045900
H201	H20	0.026200	0.144500	0.309000
H211	H21	0.914000	0.042100	0.210000
H221	H22	0.250700	0.165800	0.984000
H231	H23	0.359100	0.261000	0.090800
H241	H24	0.525100	0.265900	0.487600
H251	H25	0.777500	0.166300	0.538100
H261	H26	0.683100	0.957400	0.362600
H271	H27	0.441700	0.066500	0.312500
H281	H28	0.940200	0.917700	0.463700
H291	H29	0.011100	0.449300	0.265200
H301	H30	0.731000	0.513500	0.335400
H311	H31	0.850100	0.364100	0.593200
H321	H32	0.128900	0.303500	0.516300
H331	H33	0.554600	0.465000	0.590400
H341	H34	0.378500	0.511900	0.211100
H351	H35	0.605000	0.594600	0.110000
H361	H36	0.904500	0.323200	0.097100
H371	H37	0.678400	0.250200	0.205900
H381	H38	0.916100	0.594100	0.020100
Cu21	Cu2	0.311500	0.292300	0.309100
