data_RUSSAA_clean_PM
_symmetry_space_group_name_H-M	'P1'
_cell_length_a	6.958000
_cell_length_b	11.152000
_cell_length_c	26.118000
_cell_angle_alpha	97.896000
_cell_angle_beta	90.000000
_cell_angle_gamma	90.000000
_symmetry_Int_Tables_number 1

loop_
_symmetry_equiv_pos_as_xyz
'x,y,z'

loop_
_atom_site_label
_atom_site_type_symbol
_atom_site_fract_x
_atom_site_fract_y
_atom_site_fract_z
Cd11	Cd1	0.832390	0.629950	0.873610
Cd21	Cd2	0.332390	0.370050	0.626390
Cd31	Cd3	0.167610	0.370050	0.126390
Cd41	Cd4	0.667610	0.629950	0.373610
Co11	Co1	0.082310	0.495760	0.750200
Co21	Co2	0.582310	0.504240	0.749800
Co31	Co3	0.917690	0.504240	0.249800
Co41	Co4	0.417690	0.495760	0.250200
H11	H1	0.239800	0.530800	0.964700
H21	H2	0.951100	0.059800	0.816800
H31	H3	0.364700	0.770500	0.088800
H41	H4	0.179900	0.318100	0.921500
H51	H5	0.437800	0.859900	0.946600
H61	H6	0.448800	0.910500	0.035000
H71	H7	0.164900	0.188600	0.983400
H81	H8	0.053200	0.993400	0.960700
H91	H9	0.739800	0.469200	0.535300
H101	H10	0.451100	0.940200	0.683200
H111	H11	0.864700	0.229500	0.411200
H121	H12	0.679900	0.681900	0.578500
H131	H13	0.937800	0.140100	0.553400
H141	H14	0.948800	0.089500	0.465000
H151	H15	0.664900	0.811400	0.516600
H161	H16	0.553200	0.006600	0.539300
H171	H17	0.760200	0.469200	0.035300
H181	H18	0.048900	0.940200	0.183200
H191	H19	0.635300	0.229500	0.911200
H201	H20	0.820100	0.681900	0.078500
H211	H21	0.562200	0.140100	0.053400
H221	H22	0.551200	0.089500	0.965000
H231	H23	0.835100	0.811400	0.016600
H241	H24	0.946800	0.006600	0.039300
H251	H25	0.260200	0.530800	0.464700
H261	H26	0.548900	0.059800	0.316800
H271	H27	0.135300	0.770500	0.588800
H281	H28	0.320100	0.318100	0.421500
H291	H29	0.062200	0.859900	0.446600
H301	H30	0.051200	0.910500	0.535000
H311	H31	0.335100	0.188600	0.483400
H321	H32	0.446800	0.993400	0.460700
C11	C1	0.333500	0.653700	0.890280
C21	C2	0.283400	0.606900	0.978930
C31	C3	0.989100	0.006900	0.886830
C41	C4	0.994900	0.085000	0.850150
C51	C5	0.294700	0.635800	0.032030
C61	C6	0.336600	0.690300	0.946680
C71	C7	0.242100	0.542600	0.065770
C81	C8	0.357200	0.750000	0.053160
C91	C9	0.131500	0.240200	0.913020
C101	C10	0.066600	0.201300	0.863450
C111	C11	0.400500	0.803900	0.968000
C121	C12	0.408500	0.833600	0.020810
C131	C13	0.069200	0.282600	0.825030
C141	C14	0.911500	0.880300	0.873820
C151	C15	0.124100	0.162900	0.949770
C161	C16	0.055100	0.046300	0.936090
C171	C17	0.833500	0.346300	0.609720
C181	C18	0.783400	0.393100	0.521070
C191	C19	0.489100	0.993100	0.613170
C201	C20	0.494900	0.915000	0.649850
C211	C21	0.794700	0.364200	0.467970
C221	C22	0.836600	0.309700	0.553320
C231	C23	0.742100	0.457400	0.434230
C241	C24	0.857200	0.250000	0.446840
C251	C25	0.631500	0.759800	0.586980
C261	C26	0.566600	0.798700	0.636550
C271	C27	0.900500	0.196100	0.532000
C281	C28	0.908500	0.166400	0.479190
C291	C29	0.569200	0.717400	0.674970
C301	C30	0.411500	0.119700	0.626180
C311	C31	0.624100	0.837100	0.550230
C321	C32	0.555100	0.953700	0.563910
C331	C33	0.666500	0.346300	0.109720
C341	C34	0.716600	0.393100	0.021070
C351	C35	0.010900	0.993100	0.113170
C361	C36	0.005100	0.915000	0.149850
C371	C37	0.705300	0.364200	0.967970
C381	C38	0.663400	0.309700	0.053320
C391	C39	0.757900	0.457400	0.934230
C401	C40	0.642800	0.250000	0.946840
C411	C41	0.868500	0.759800	0.086980
C421	C42	0.933400	0.798700	0.136550
C431	C43	0.599500	0.196100	0.032000
C441	C44	0.591500	0.166400	0.979190
C451	C45	0.930800	0.717400	0.174970
C461	C46	0.088500	0.119700	0.126180
C471	C47	0.875900	0.837100	0.050230
C481	C48	0.944900	0.953700	0.063910
C491	C49	0.166500	0.653700	0.390280
C501	C50	0.216600	0.606900	0.478930
C511	C51	0.510900	0.006900	0.386830
C521	C52	0.505100	0.085000	0.350150
C531	C53	0.205300	0.635800	0.532030
C541	C54	0.163400	0.690300	0.446680
C551	C55	0.257900	0.542600	0.565770
C561	C56	0.142800	0.750000	0.553160
C571	C57	0.368500	0.240200	0.413020
C581	C58	0.433400	0.201300	0.363450
C591	C59	0.099500	0.803900	0.468000
C601	C60	0.091500	0.833600	0.520810
C611	C61	0.430800	0.282600	0.325030
C621	C62	0.588500	0.880300	0.373820
C631	C63	0.375900	0.162900	0.449770
C641	C64	0.444900	0.046300	0.436090
N11	N1	0.490100	0.643900	0.860520
N21	N2	0.239200	0.589600	0.814010
N31	N3	0.175800	0.620600	0.862360
N41	N4	0.424900	0.602400	0.812740
N51	N5	0.069600	0.347300	0.794840
N61	N6	0.990100	0.356100	0.639480
N71	N7	0.739200	0.410400	0.685990
N81	N8	0.675800	0.379400	0.637640
N91	N9	0.924900	0.397600	0.687260
N101	N10	0.569600	0.652700	0.705160
N111	N11	0.509900	0.356100	0.139480
N121	N12	0.760800	0.410400	0.185990
N131	N13	0.824200	0.379400	0.137640
N141	N14	0.575100	0.397600	0.187260
N151	N15	0.930400	0.652700	0.205160
N161	N16	0.009900	0.643900	0.360520
N171	N17	0.260800	0.589600	0.314010
N181	N18	0.324200	0.620600	0.362360
N191	N19	0.075100	0.602400	0.312740
N201	N20	0.430400	0.347300	0.294840
O11	O1	0.242400	0.571300	0.114300
O21	O2	0.197900	0.438100	0.045870
O31	O3	0.886200	0.838300	0.827030
O41	O4	0.878500	0.821600	0.910490
O51	O5	0.834100	0.574130	0.784400
O61	O6	0.742400	0.428700	0.385700
O71	O7	0.697900	0.561900	0.454130
O81	O8	0.386200	0.161700	0.672970
O91	O9	0.378500	0.178400	0.589510
O101	O10	0.334100	0.425870	0.715600
O111	O11	0.757600	0.428700	0.885700
O121	O12	0.802100	0.561900	0.954130
O131	O13	0.113800	0.161700	0.172970
O141	O14	0.121500	0.178400	0.089510
O151	O15	0.165900	0.425870	0.215600
O161	O16	0.257600	0.571300	0.614300
O171	O17	0.302100	0.438100	0.545870
O181	O18	0.613800	0.838300	0.327030
O191	O19	0.621500	0.821600	0.410490
O201	O20	0.665900	0.574130	0.284400
