data_RUSWOT_clean_PM
_symmetry_space_group_name_H-M	'P1'
_cell_length_a	10.447700
_cell_length_b	11.494500
_cell_length_c	12.958300
_cell_angle_alpha	106.639000
_cell_angle_beta	90.322000
_cell_angle_gamma	93.194000
_symmetry_Int_Tables_number 1

loop_
_symmetry_equiv_pos_as_xyz
'x,y,z'

loop_
_atom_site_label
_atom_site_type_symbol
_atom_site_fract_x
_atom_site_fract_y
_atom_site_fract_z
Pr11	Pr1	0.474240	0.453860	0.335490
C11	C1	0.493400	0.231600	0.165900
C21	C2	0.512500	0.748000	0.504600
C31	C3	0.264200	0.489000	0.566600
C41	C4	0.498200	0.113300	0.082100
C51	C5	0.506900	0.879800	0.504800
C61	C6	0.128700	0.493200	0.531900
C71	C7	0.447400	0.005300	0.101200
C81	C8	0.391300	0.936200	0.526300
C91	C9	0.075400	0.404200	0.442800
C101	C10	0.396300	0.003600	0.204400
H11	H1	0.397300	0.075700	0.260000
C111	C11	0.277600	0.876000	0.550900
H21	H2	0.279700	0.796100	0.553600
C121	C12	0.146800	0.306400	0.383400
H31	H3	0.231100	0.301600	0.404600
C131	C13	0.347300	0.900300	0.221900
H41	H4	0.314700	0.902500	0.289000
C141	C14	0.167600	0.932500	0.570200
H51	H5	0.094200	0.891100	0.585000
C151	C15	0.095000	0.219700	0.296300
H61	H6	0.143900	0.156900	0.258200
C161	C16	0.344900	0.788500	0.139500
H71	H7	0.311000	0.717900	0.153000
C171	C17	0.161900	0.055300	0.568200
H81	H8	0.086000	0.094600	0.584600
C181	C18	0.964700	0.225100	0.263300
H91	H9	0.929300	0.165600	0.203900
C191	C19	0.392100	0.783600	0.040000
H101	H10	0.389000	0.709700	0.986400
C201	C20	0.266000	0.114800	0.542700
H111	H11	0.260000	0.194100	0.539400
C211	C21	0.893100	0.316000	0.317900
H121	H12	0.808700	0.317700	0.295600
C221	C22	0.446700	0.891600	0.017200
C231	C23	0.385400	0.059000	0.520500
C241	C24	0.944300	0.410000	0.409600
O11	O1	0.385400	0.277500	0.184600
O21	O2	0.489700	0.671600	0.414400
O31	O3	0.354600	0.509900	0.507700
O41	O4	0.595100	0.283800	0.213800
O51	O5	0.538800	0.726100	0.590400
O61	O6	0.284700	0.474300	0.656000
Pr21	Pr2	0.525760	0.546140	0.664510
C251	C25	0.506600	0.768400	0.834100
C261	C26	0.487500	0.252000	0.495400
C271	C27	0.735800	0.511000	0.433400
C281	C28	0.501800	0.886700	0.917900
C291	C29	0.493100	0.120200	0.495200
C301	C30	0.871300	0.506800	0.468100
C311	C31	0.552600	0.994700	0.898800
C321	C32	0.608700	0.063800	0.473700
C331	C33	0.924600	0.595800	0.557200
C341	C34	0.603700	0.996400	0.795600
H131	H13	0.602700	0.924300	0.740000
C351	C35	0.722400	0.124000	0.449100
H141	H14	0.720300	0.203900	0.446400
C361	C36	0.853200	0.693600	0.616600
H151	H15	0.768900	0.698400	0.595400
C371	C37	0.652700	0.099700	0.778100
H161	H16	0.685300	0.097500	0.711000
C381	C38	0.832400	0.067500	0.429800
H171	H17	0.905800	0.108900	0.415000
C391	C39	0.905000	0.780300	0.703700
H181	H18	0.856100	0.843100	0.741800
C401	C40	0.655100	0.211500	0.860500
H191	H19	0.689000	0.282100	0.847000
C411	C41	0.838100	0.944700	0.431800
H201	H20	0.914000	0.905400	0.415400
C421	C42	0.035300	0.774900	0.736700
H211	H21	0.070700	0.834400	0.796100
C431	C43	0.607900	0.216400	0.960000
H221	H22	0.611000	0.290300	0.013600
C441	C44	0.734000	0.885200	0.457300
H231	H23	0.740000	0.805900	0.460600
C451	C45	0.106900	0.684000	0.682100
H241	H24	0.191300	0.682300	0.704400
C461	C46	0.553300	0.108400	0.982800
C471	C47	0.614600	0.941000	0.479500
C481	C48	0.055700	0.590000	0.590400
O71	O7	0.614600	0.722500	0.815400
O81	O8	0.510300	0.328400	0.585600
O91	O9	0.645400	0.490100	0.492300
O101	O10	0.404900	0.716200	0.786200
O111	O11	0.461200	0.273900	0.409600
O121	O12	0.715300	0.525700	0.344000
