data_RUSWIN_clean_PM
_symmetry_space_group_name_H-M	'P1'
_cell_length_a	10.380300
_cell_length_b	11.350800
_cell_length_c	12.989400
_cell_angle_alpha	72.435000
_cell_angle_beta	89.867000
_cell_angle_gamma	87.372000
_symmetry_Int_Tables_number 1

loop_
_symmetry_equiv_pos_as_xyz
'x,y,z'

loop_
_atom_site_label
_atom_site_type_symbol
_atom_site_fract_x
_atom_site_fract_y
_atom_site_fract_z
Dy11	Dy1	0.479000	0.045570	0.339700
C11	C1	0.494700	0.265900	0.170500
C21	C2	0.509300	0.754700	0.505900
C31	C3	0.266500	0.009100	0.564600
C41	C4	0.498200	0.385300	0.085700
C51	C5	0.505400	0.621700	0.505500
C61	C6	0.129500	0.004600	0.530100
C71	C7	0.448100	0.494900	0.102100
C81	C8	0.389400	0.560800	0.527700
C91	C9	0.076700	0.097700	0.440800
C101	C10	0.398400	0.496100	0.205800
H11	H1	0.400000	0.422700	0.262500
C111	C11	0.274300	0.620300	0.552500
H21	H2	0.276200	0.700800	0.555900
C121	C12	0.149700	0.198900	0.380000
H31	H3	0.234600	0.204000	0.400300
C131	C13	0.349800	0.601100	0.222200
H41	H4	0.318900	0.599700	0.289800
C141	C14	0.161900	0.560700	0.571100
H51	H5	0.087500	0.601000	0.586200
C151	C15	0.097400	0.287600	0.293300
H61	H6	0.146800	0.352200	0.254400
C161	C16	0.345500	0.714800	0.135700
H71	H7	0.310300	0.786500	0.147200
C171	C17	0.157600	0.437100	0.567600
H81	H8	0.080300	0.397000	0.580900
C181	C18	0.967300	0.281700	0.261900
H91	H9	0.932400	0.342600	0.202300
C191	C19	0.392300	0.719100	0.037200
H101	H10	0.389500	0.794000	0.982300
C201	C20	0.264900	0.376500	0.545100
H111	H11	0.260600	0.295000	0.544600
C211	C21	0.893300	0.188600	0.317600
H121	H12	0.808200	0.187000	0.296000
C221	C22	0.446100	0.610300	0.016100
C231	C23	0.384200	0.436600	0.522100
C241	C24	0.944800	0.092400	0.409500
O11	O1	0.386720	0.217010	0.194720
O21	O2	0.491390	0.833650	0.414920
O31	O3	0.359510	0.993660	0.505230
O41	O4	0.596650	0.213700	0.217480
O51	O5	0.530380	0.775750	0.593750
O61	O6	0.287550	0.019430	0.656070
Dy21	Dy2	0.521000	0.954430	0.660300
C251	C25	0.505300	0.734100	0.829500
C261	C26	0.490700	0.245300	0.494100
C271	C27	0.733500	0.990900	0.435400
C281	C28	0.501800	0.614700	0.914300
C291	C29	0.494600	0.378300	0.494500
C301	C30	0.870500	0.995400	0.469900
C311	C31	0.551900	0.505100	0.897900
C321	C32	0.610600	0.439200	0.472300
C331	C33	0.923300	0.902300	0.559200
C341	C34	0.601600	0.503900	0.794200
H131	H13	0.600000	0.577300	0.737500
C351	C35	0.725700	0.379700	0.447500
H141	H14	0.723800	0.299200	0.444100
C361	C36	0.850300	0.801100	0.620000
H151	H15	0.765400	0.796000	0.599700
C371	C37	0.650200	0.398900	0.777800
H161	H16	0.681100	0.400300	0.710200
C381	C38	0.838100	0.439300	0.428900
H171	H17	0.912500	0.399000	0.413800
C391	C39	0.902600	0.712400	0.706700
H181	H18	0.853200	0.647800	0.745600
C401	C40	0.654500	0.285200	0.864300
H191	H19	0.689700	0.213500	0.852800
C411	C41	0.842400	0.562900	0.432400
H201	H20	0.919700	0.603000	0.419100
C421	C42	0.032700	0.718300	0.738100
H211	H21	0.067600	0.657400	0.797700
C431	C43	0.607700	0.280900	0.962800
H221	H22	0.610500	0.206000	0.017700
C441	C44	0.735100	0.623500	0.454900
H231	H23	0.739400	0.705000	0.455400
C451	C45	0.106700	0.811400	0.682400
H241	H24	0.191800	0.813000	0.704000
C461	C46	0.553900	0.389700	0.983900
C471	C47	0.615800	0.563400	0.477900
C481	C48	0.055200	0.907600	0.590500
O71	O7	0.613280	0.782990	0.805280
O81	O8	0.508610	0.166350	0.585080
O91	O9	0.640490	0.006340	0.494770
O101	O10	0.403350	0.786300	0.782520
O111	O11	0.469620	0.224250	0.406250
O121	O12	0.712450	0.980570	0.343930
