data_RUWXEN_clean_PM
_symmetry_space_group_name_H-M	'P1'
_cell_length_a	9.404000
_cell_length_b	9.957000
_cell_length_c	11.459000
_cell_angle_alpha	93.381000
_cell_angle_beta	97.716000
_cell_angle_gamma	110.242000
_symmetry_Int_Tables_number 1

loop_
_symmetry_equiv_pos_as_xyz
'x,y,z'

loop_
_atom_site_label
_atom_site_type_symbol
_atom_site_fract_x
_atom_site_fract_y
_atom_site_fract_z
La11	La1	0.784470	0.547260	0.481930
La21	La2	0.215530	0.452740	0.518070
H11	H1	0.582700	0.133400	0.333400
H21	H2	0.307900	0.717300	0.278700
H31	H3	0.185600	0.004100	0.465700
H41	H4	0.645600	0.718600	0.118400
H51	H5	0.559600	0.602400	0.924100
H61	H6	0.239700	0.784800	0.881700
H71	H7	0.333500	0.909600	0.072100
H81	H8	0.417300	0.866600	0.666600
H91	H9	0.692100	0.282700	0.721300
H101	H10	0.814400	0.995900	0.534300
H111	H11	0.354400	0.281400	0.881600
H121	H12	0.440400	0.397600	0.075900
H131	H13	0.760300	0.215200	0.118300
H141	H14	0.666500	0.090400	0.927900
C11	C1	0.428300	0.243200	0.468800
C21	C2	0.390200	0.092400	0.409400
C31	C3	0.492000	0.061400	0.343100
C41	C4	0.455300	0.922300	0.292600
C51	C5	0.326900	0.811400	0.310000
C61	C6	0.223800	0.843300	0.376800
C71	C7	0.080400	0.728700	0.396200
C81	C8	0.254800	0.982700	0.424000
C91	C9	0.495600	0.822200	0.112300
C101	C10	0.564600	0.732000	0.070700
C111	C11	0.510600	0.660000	0.954400
C121	C12	0.386100	0.674600	0.885700
C131	C13	0.322200	0.589900	0.766300
C141	C14	0.320500	0.770700	0.929000
C151	C15	0.376300	0.845600	0.043500
C161	C16	0.571700	0.756800	0.531200
C171	C17	0.609800	0.907600	0.590600
C181	C18	0.508000	0.938600	0.656900
C191	C19	0.544700	0.077700	0.707400
C201	C20	0.673100	0.188600	0.690000
C211	C21	0.776200	0.156700	0.623200
C221	C22	0.919600	0.271300	0.603800
C231	C23	0.745200	0.017300	0.576000
C241	C24	0.504400	0.177800	0.887700
C251	C25	0.435400	0.268000	0.929300
C261	C26	0.489400	0.340000	0.045600
C271	C27	0.613900	0.325400	0.114300
C281	C28	0.677800	0.410100	0.233700
C291	C29	0.679500	0.229300	0.071000
C301	C30	0.623700	0.154400	0.956500
O11	O1	0.556400	0.335600	0.465700
O21	O2	0.324400	0.266100	0.518500
O31	O3	0.959300	0.754800	0.384300
O41	O4	0.083600	0.607600	0.424300
O51	O5	0.558500	0.895500	0.225600
O61	O6	0.212100	0.610100	0.702400
O71	O7	0.378800	0.499500	0.732100
O81	O8	0.443600	0.664400	0.534300
O91	O9	0.675600	0.733900	0.481500
O101	O10	0.040700	0.245200	0.615700
O111	O11	0.916400	0.392400	0.575700
O121	O12	0.441500	0.104500	0.774400
O131	O13	0.787900	0.389900	0.297600
O141	O14	0.621200	0.500500	0.267900
