data_RUWZIU_clean_PM
_symmetry_space_group_name_H-M	'P1'
_cell_length_a	37.526000
_cell_length_b	8.846800
_cell_length_c	29.720000
_cell_angle_alpha	90.000000
_cell_angle_beta	127.610000
_cell_angle_gamma	90.000000
_symmetry_Int_Tables_number 1

loop_
_symmetry_equiv_pos_as_xyz
'x,y,z'

loop_
_atom_site_label
_atom_site_type_symbol
_atom_site_fract_x
_atom_site_fract_y
_atom_site_fract_z
N11	N1	0.258870	0.760900	0.938040
H11	H1	0.279600	0.679700	0.945400
N21	N2	0.203500	0.577200	0.960540
H21	H2	0.219800	0.482000	0.968800
N31	N3	0.192390	0.604400	0.870550
C11	C1	0.217100	0.741300	0.879460
H31	H3	0.197600	0.827400	0.869900
H41	H4	0.224700	0.741200	0.853600
C21	C2	0.171290	0.595000	0.898030
H51	H5	0.150700	0.509900	0.882300
H61	H6	0.153700	0.685900	0.889400
C31	C3	0.281850	0.906700	0.947000
H71	H7	0.260400	0.989200	0.932200
H81	H8	0.295100	0.906200	0.927400
C41	C4	0.181540	0.573200	0.989200
H91	H9	0.166300	0.477400	0.981700
H101	H10	0.159500	0.653700	0.974700
C51	C5	0.215690	0.464800	0.875000
H111	H11	0.240800	0.447400	0.914000
H121	H12	0.226300	0.474900	0.852800
H131	H13	0.195200	0.381100	0.861000
N41	N4	0.568650	0.968300	0.048840
H141	H14	0.582900	0.056800	0.073600
N51	N5	0.497850	0.142300	0.943410
H151	H15	0.507400	0.242900	0.960800
N61	N6	0.575240	0.080800	0.978480
C61	C6	0.449760	0.152300	0.893480
H161	H16	0.441200	0.063300	0.869800
H171	H17	0.444900	0.240500	0.871000
C71	C7	0.528730	0.094700	0.929800
H181	H18	0.518500	0.998200	0.910300
H191	H19	0.526500	0.167900	0.903900
C81	C8	0.578490	0.836500	0.085780
H201	H20	0.610200	0.835300	0.118000
H211	H21	0.571500	0.743500	0.064600
C91	C9	0.586570	0.955100	0.015800
H221	H22	0.619100	0.946100	0.042200
H231	H23	0.574900	0.863200	0.993400
C101	C10	0.596700	0.224100	0.006700
H241	H24	0.582400	0.266100	0.021800
H251	H25	0.593800	0.293300	0.979700
H261	H26	0.628000	0.207200	0.037000
O11	O1	0.495270	0.688100	0.191010
C111	C11	0.527780	0.778400	0.239710
H271	H27	0.545100	0.839400	0.232200
H281	H28	0.548200	0.714800	0.272500
O21	O2	0.507660	0.194300	0.047950
O31	O3	0.581240	0.237200	0.113020
O41	O4	0.301480	0.583600	0.048080
C121	C12	0.529630	0.372900	0.119820
C131	C13	0.469140	0.978100	0.197410
H291	H29	0.486800	0.034600	0.189400
H301	H30	0.448000	0.915200	0.164800
C141	C14	0.417710	0.183900	0.166210
C151	C15	0.381740	0.298900	0.074640
H311	H31	0.377800	0.305400	0.040600
C161	C16	0.357930	0.396800	0.084100
C171	C17	0.563570	0.442000	0.170670
H321	H32	0.593400	0.416800	0.187700
C181	C18	0.509530	0.583300	0.171380
C191	C19	0.554140	0.548200	0.196840
H331	H33	0.577300	0.594500	0.230600
C201	C20	0.411260	0.191800	0.114550
H341	H34	0.426500	0.126400	0.107100
C211	C21	0.540240	0.260400	0.091200
O51	O5	0.326400	0.531000	0.998100
C221	C22	0.394520	0.281400	0.176490
H351	H35	0.399000	0.276700	0.210900
C231	C23	0.364790	0.385300	0.135950
H361	H36	0.349000	0.448800	0.143100
C241	C24	0.485180	0.410100	0.095380
H371	H37	0.462000	0.364300	0.061500
C251	C25	0.325960	0.511200	0.039720
C261	C26	0.474990	0.513300	0.120400
H381	H38	0.445100	0.536800	0.103600
O61	O6	0.445390	0.079700	0.207850
N71	N7	0.758870	0.260900	0.938040
H391	H39	0.779600	0.179700	0.945400
N81	N8	0.703500	0.077200	0.960540
H401	H40	0.719800	0.982000	0.968800
N91	N9	0.692390	0.104400	0.870550
C271	C27	0.717100	0.241300	0.879460
H411	H41	0.697600	0.327400	0.869900
H421	H42	0.724700	0.241200	0.853600
C281	C28	0.671290	0.095000	0.898030
H431	H43	0.650700	0.009900	0.882300
H441	H44	0.653700	0.185900	0.889400
C291	C29	0.781850	0.406700	0.947000
H451	H45	0.760400	0.489200	0.932200
H461	H46	0.795100	0.406200	0.927400
C301	C30	0.681540	0.073200	0.989200
H471	H47	0.666300	0.977400	0.981700
H481	H48	0.659500	0.153700	0.974700
C311	C31	0.715690	0.964800	0.875000
H491	H49	0.740800	0.947400	0.914000
H501	H50	0.726300	0.974900	0.852800
H511	H51	0.695200	0.881100	0.861000
N101	N10	0.068650	0.468300	0.048840
H521	H52	0.082900	0.556800	0.073600
N111	N11	0.997850	0.642300	0.943410
H531	H53	0.007400	0.742900	0.960800
N121	N12	0.075240	0.580800	0.978480
C321	C32	0.949760	0.652300	0.893480
H541	H54	0.941200	0.563300	0.869800
H551	H55	0.944900	0.740500	0.871000
C331	C33	0.028730	0.594700	0.929800
H561	H56	0.018500	0.498200	0.910300
H571	H57	0.026500	0.667900	0.903900
C341	C34	0.078490	0.336500	0.085780
H581	H58	0.110200	0.335300	0.118000
H591	H59	0.071500	0.243500	0.064600
C351	C35	0.086570	0.455100	0.015800
H601	H60	0.119100	0.446100	0.042200
H611	H61	0.074900	0.363200	0.993400
C361	C36	0.096700	0.724100	0.006700
H621	H62	0.082400	0.766100	0.021800
H631	H63	0.093800	0.793300	0.979700
H641	H64	0.128000	0.707200	0.037000
O71	O7	0.995270	0.188100	0.191010
C371	C37	0.027780	0.278400	0.239710
H651	H65	0.045100	0.339400	0.232200
H661	H66	0.048200	0.214800	0.272500
O81	O8	0.007660	0.694300	0.047950
O91	O9	0.081240	0.737200	0.113020
O101	O10	0.801480	0.083600	0.048080
C381	C38	0.029630	0.872900	0.119820
C391	C39	0.969140	0.478100	0.197410
H671	H67	0.986800	0.534600	0.189400
H681	H68	0.948000	0.415200	0.164800
C401	C40	0.917710	0.683900	0.166210
C411	C41	0.881740	0.798900	0.074640
H691	H69	0.877800	0.805400	0.040600
C421	C42	0.857930	0.896800	0.084100
C431	C43	0.063570	0.942000	0.170670
H701	H70	0.093400	0.916800	0.187700
C441	C44	0.009530	0.083300	0.171380
C451	C45	0.054140	0.048200	0.196840
H711	H71	0.077300	0.094500	0.230600
C461	C46	0.911260	0.691800	0.114550
H721	H72	0.926500	0.626400	0.107100
C471	C47	0.040240	0.760400	0.091200
O111	O11	0.826400	0.031000	0.998100
C481	C48	0.894520	0.781400	0.176490
H731	H73	0.899000	0.776700	0.210900
C491	C49	0.864790	0.885300	0.135950
H741	H74	0.849000	0.948800	0.143100
C501	C50	0.985180	0.910100	0.095380
H751	H75	0.962000	0.864300	0.061500
C511	C51	0.825960	0.011200	0.039720
C521	C52	0.974990	0.013300	0.120400
H761	H76	0.945100	0.036800	0.103600
O121	O12	0.945390	0.579700	0.207850
N131	N13	0.741130	0.760900	0.561960
H771	H77	0.720400	0.679700	0.554600
N141	N14	0.796500	0.577200	0.539460
H781	H78	0.780200	0.482000	0.531200
N151	N15	0.807610	0.604400	0.629450
C531	C53	0.782900	0.741300	0.620540
H791	H79	0.802400	0.827400	0.630100
H801	H80	0.775300	0.741200	0.646400
C541	C54	0.828710	0.595000	0.601970
H811	H81	0.849300	0.509900	0.617700
H821	H82	0.846300	0.685900	0.610600
C551	C55	0.718150	0.906700	0.553000
H831	H83	0.739600	0.989200	0.567800
H841	H84	0.704900	0.906200	0.572600
C561	C56	0.818460	0.573200	0.510800
H851	H85	0.833700	0.477400	0.518300
H861	H86	0.840500	0.653700	0.525300
C571	C57	0.784310	0.464800	0.625000
H871	H87	0.759200	0.447400	0.586000
H881	H88	0.773700	0.474900	0.647200
H891	H89	0.804800	0.381100	0.639000
N161	N16	0.431350	0.968300	0.451160
H901	H90	0.417100	0.056800	0.426400
N171	N17	0.502150	0.142300	0.556590
H911	H91	0.492600	0.242900	0.539200
N181	N18	0.424760	0.080800	0.521520
C581	C58	0.550240	0.152300	0.606520
H921	H92	0.558800	0.063300	0.630200
H931	H93	0.555100	0.240500	0.629000
C591	C59	0.471270	0.094700	0.570200
H941	H94	0.481500	0.998200	0.589700
H951	H95	0.473500	0.167900	0.596100
C601	C60	0.421510	0.836500	0.414220
H961	H96	0.389800	0.835300	0.382000
H971	H97	0.428500	0.743500	0.435400
C611	C61	0.413430	0.955100	0.484200
H981	H98	0.380900	0.946100	0.457800
H991	H99	0.425100	0.863200	0.506600
C621	C62	0.403300	0.224100	0.493300
H1001	H100	0.417600	0.266100	0.478200
H1011	H101	0.406200	0.293300	0.520300
H1021	H102	0.372000	0.207200	0.463000
O131	O13	0.504730	0.688100	0.308990
C631	C63	0.472220	0.778400	0.260290
H1031	H103	0.454900	0.839400	0.267800
H1041	H104	0.451800	0.714800	0.227500
O141	O14	0.492340	0.194300	0.452050
O151	O15	0.418760	0.237200	0.386980
O161	O16	0.698520	0.583600	0.451920
C641	C64	0.470370	0.372900	0.380180
C651	C65	0.530860	0.978100	0.302590
H1051	H105	0.513200	0.034600	0.310600
H1061	H106	0.552000	0.915200	0.335200
C661	C66	0.582290	0.183900	0.333790
C671	C67	0.618260	0.298900	0.425360
H1071	H107	0.622200	0.305400	0.459400
C681	C68	0.642070	0.396800	0.415900
C691	C69	0.436430	0.442000	0.329330
H1081	H108	0.406600	0.416800	0.312300
C701	C70	0.490470	0.583300	0.328620
C711	C71	0.445860	0.548200	0.303160
H1091	H109	0.422700	0.594500	0.269400
C721	C72	0.588740	0.191800	0.385450
H1101	H110	0.573500	0.126400	0.392900
C731	C73	0.459760	0.260400	0.408800
O171	O17	0.673600	0.531000	0.501900
C741	C74	0.605480	0.281400	0.323510
H1111	H111	0.601000	0.276700	0.289100
C751	C75	0.635210	0.385300	0.364050
H1121	H112	0.651000	0.448800	0.356900
C761	C76	0.514820	0.410100	0.404620
H1131	H113	0.538000	0.364300	0.438500
C771	C77	0.674040	0.511200	0.460280
C781	C78	0.525010	0.513300	0.379600
H1141	H114	0.554900	0.536800	0.396400
O181	O18	0.554610	0.079700	0.292150
N191	N19	0.241130	0.260900	0.561960
H1151	H115	0.220400	0.179700	0.554600
N201	N20	0.296500	0.077200	0.539460
H1161	H116	0.280200	0.982000	0.531200
N211	N21	0.307610	0.104400	0.629450
C791	C79	0.282900	0.241300	0.620540
H1171	H117	0.302400	0.327400	0.630100
H1181	H118	0.275300	0.241200	0.646400
C801	C80	0.328710	0.095000	0.601970
H1191	H119	0.349300	0.009900	0.617700
H1201	H120	0.346300	0.185900	0.610600
C811	C81	0.218150	0.406700	0.553000
H1211	H121	0.239600	0.489200	0.567800
H1221	H122	0.204900	0.406200	0.572600
C821	C82	0.318460	0.073200	0.510800
H1231	H123	0.333700	0.977400	0.518300
H1241	H124	0.340500	0.153700	0.525300
C831	C83	0.284310	0.964800	0.625000
H1251	H125	0.259200	0.947400	0.586000
H1261	H126	0.273700	0.974900	0.647200
H1271	H127	0.304800	0.881100	0.639000
N221	N22	0.931350	0.468300	0.451160
H1281	H128	0.917100	0.556800	0.426400
N231	N23	0.002150	0.642300	0.556590
H1291	H129	0.992600	0.742900	0.539200
N241	N24	0.924760	0.580800	0.521520
C841	C84	0.050240	0.652300	0.606520
H1301	H130	0.058800	0.563300	0.630200
H1311	H131	0.055100	0.740500	0.629000
C851	C85	0.971270	0.594700	0.570200
H1321	H132	0.981500	0.498200	0.589700
H1331	H133	0.973500	0.667900	0.596100
C861	C86	0.921510	0.336500	0.414220
H1341	H134	0.889800	0.335300	0.382000
H1351	H135	0.928500	0.243500	0.435400
C871	C87	0.913430	0.455100	0.484200
H1361	H136	0.880900	0.446100	0.457800
H1371	H137	0.925100	0.363200	0.506600
C881	C88	0.903300	0.724100	0.493300
H1381	H138	0.917600	0.766100	0.478200
H1391	H139	0.906200	0.793300	0.520300
H1401	H140	0.872000	0.707200	0.463000
O191	O19	0.004730	0.188100	0.308990
C891	C89	0.972220	0.278400	0.260290
H1411	H141	0.954900	0.339400	0.267800
H1421	H142	0.951800	0.214800	0.227500
O201	O20	0.992340	0.694300	0.452050
O211	O21	0.918760	0.737200	0.386980
O221	O22	0.198520	0.083600	0.451920
C901	C90	0.970370	0.872900	0.380180
C911	C91	0.030860	0.478100	0.302590
H1431	H143	0.013200	0.534600	0.310600
H1441	H144	0.052000	0.415200	0.335200
C921	C92	0.082290	0.683900	0.333790
C931	C93	0.118260	0.798900	0.425360
H1451	H145	0.122200	0.805400	0.459400
C941	C94	0.142070	0.896800	0.415900
C951	C95	0.936430	0.942000	0.329330
H1461	H146	0.906600	0.916800	0.312300
C961	C96	0.990470	0.083300	0.328620
C971	C97	0.945860	0.048200	0.303160
H1471	H147	0.922700	0.094500	0.269400
C981	C98	0.088740	0.691800	0.385450
H1481	H148	0.073500	0.626400	0.392900
C991	C99	0.959760	0.760400	0.408800
O231	O23	0.173600	0.031000	0.501900
C1001	C100	0.105480	0.781400	0.323510
H1491	H149	0.101000	0.776700	0.289100
C1011	C101	0.135210	0.885300	0.364050
H1501	H150	0.151000	0.948800	0.356900
C1021	C102	0.014820	0.910100	0.404620
H1511	H151	0.038000	0.864300	0.438500
C1031	C103	0.174040	0.011200	0.460280
C1041	C104	0.025010	0.013300	0.379600
H1521	H152	0.054900	0.036800	0.396400
O241	O24	0.054610	0.579700	0.292150
N251	N25	0.741130	0.239100	0.061960
H1531	H153	0.720400	0.320300	0.054600
N261	N26	0.796500	0.422800	0.039460
H1541	H154	0.780200	0.518000	0.031200
N271	N27	0.807610	0.395600	0.129450
C1051	C105	0.782900	0.258700	0.120540
H1551	H155	0.802400	0.172600	0.130100
H1561	H156	0.775300	0.258800	0.146400
C1061	C106	0.828710	0.405000	0.101970
H1571	H157	0.849300	0.490100	0.117700
H1581	H158	0.846300	0.314100	0.110600
C1071	C107	0.718150	0.093300	0.053000
H1591	H159	0.739600	0.010800	0.067800
H1601	H160	0.704900	0.093800	0.072600
C1081	C108	0.818460	0.426800	0.010800
H1611	H161	0.833700	0.522600	0.018300
H1621	H162	0.840500	0.346300	0.025300
C1091	C109	0.784310	0.535200	0.125000
H1631	H163	0.759200	0.552600	0.086000
H1641	H164	0.773700	0.525100	0.147200
H1651	H165	0.804800	0.618900	0.139000
N281	N28	0.431350	0.031700	0.951160
H1661	H166	0.417100	0.943200	0.926400
N291	N29	0.502150	0.857700	0.056590
H1671	H167	0.492600	0.757100	0.039200
N301	N30	0.424760	0.919200	0.021520
C1101	C110	0.550240	0.847700	0.106520
H1681	H168	0.558800	0.936700	0.130200
H1691	H169	0.555100	0.759500	0.129000
C1111	C111	0.471270	0.905300	0.070200
H1701	H170	0.481500	0.001800	0.089700
H1711	H171	0.473500	0.832100	0.096100
C1121	C112	0.421510	0.163500	0.914220
H1721	H172	0.389800	0.164700	0.882000
H1731	H173	0.428500	0.256500	0.935400
C1131	C113	0.413430	0.044900	0.984200
H1741	H174	0.380900	0.053900	0.957800
H1751	H175	0.425100	0.136800	0.006600
C1141	C114	0.403300	0.775900	0.993300
H1761	H176	0.417600	0.733900	0.978200
H1771	H177	0.406200	0.706700	0.020300
H1781	H178	0.372000	0.792800	0.963000
O251	O25	0.504730	0.311900	0.808990
C1151	C115	0.472220	0.221600	0.760290
H1791	H179	0.454900	0.160600	0.767800
H1801	H180	0.451800	0.285200	0.727500
O261	O26	0.492340	0.805700	0.952050
O271	O27	0.418760	0.762800	0.886980
O281	O28	0.698520	0.416400	0.951920
C1161	C116	0.470370	0.627100	0.880180
C1171	C117	0.530860	0.021900	0.802590
H1811	H181	0.513200	0.965400	0.810600
H1821	H182	0.552000	0.084800	0.835200
C1181	C118	0.582290	0.816100	0.833790
C1191	C119	0.618260	0.701100	0.925360
H1831	H183	0.622200	0.694600	0.959400
C1201	C120	0.642070	0.603200	0.915900
C1211	C121	0.436430	0.558000	0.829330
H1841	H184	0.406600	0.583200	0.812300
C1221	C122	0.490470	0.416700	0.828620
C1231	C123	0.445860	0.451800	0.803160
H1851	H185	0.422700	0.405500	0.769400
C1241	C124	0.588740	0.808200	0.885450
H1861	H186	0.573500	0.873600	0.892900
C1251	C125	0.459760	0.739600	0.908800
O291	O29	0.673600	0.469000	0.001900
C1261	C126	0.605480	0.718600	0.823510
H1871	H187	0.601000	0.723300	0.789100
C1271	C127	0.635210	0.614700	0.864050
H1881	H188	0.651000	0.551200	0.856900
C1281	C128	0.514820	0.589900	0.904620
H1891	H189	0.538000	0.635700	0.938500
C1291	C129	0.674040	0.488800	0.960280
C1301	C130	0.525010	0.486700	0.879600
H1901	H190	0.554900	0.463200	0.896400
O301	O30	0.554610	0.920300	0.792150
N311	N31	0.241130	0.739100	0.061960
H1911	H191	0.220400	0.820300	0.054600
N321	N32	0.296500	0.922800	0.039460
H1921	H192	0.280200	0.018000	0.031200
N331	N33	0.307610	0.895600	0.129450
C1311	C131	0.282900	0.758700	0.120540
H1931	H193	0.302400	0.672600	0.130100
H1941	H194	0.275300	0.758800	0.146400
C1321	C132	0.328710	0.905000	0.101970
H1951	H195	0.349300	0.990100	0.117700
H1961	H196	0.346300	0.814100	0.110600
C1331	C133	0.218150	0.593300	0.053000
H1971	H197	0.239600	0.510800	0.067800
H1981	H198	0.204900	0.593800	0.072600
C1341	C134	0.318460	0.926800	0.010800
H1991	H199	0.333700	0.022600	0.018300
H2001	H200	0.340500	0.846300	0.025300
C1351	C135	0.284310	0.035200	0.125000
H2011	H201	0.259200	0.052600	0.086000
H2021	H202	0.273700	0.025100	0.147200
H2031	H203	0.304800	0.118900	0.139000
N341	N34	0.931350	0.531700	0.951160
H2041	H204	0.917100	0.443200	0.926400
N351	N35	0.002150	0.357700	0.056590
H2051	H205	0.992600	0.257100	0.039200
N361	N36	0.924760	0.419200	0.021520
C1361	C136	0.050240	0.347700	0.106520
H2061	H206	0.058800	0.436700	0.130200
H2071	H207	0.055100	0.259500	0.129000
C1371	C137	0.971270	0.405300	0.070200
H2081	H208	0.981500	0.501800	0.089700
H2091	H209	0.973500	0.332100	0.096100
C1381	C138	0.921510	0.663500	0.914220
H2101	H210	0.889800	0.664700	0.882000
H2111	H211	0.928500	0.756500	0.935400
C1391	C139	0.913430	0.544900	0.984200
H2121	H212	0.880900	0.553900	0.957800
H2131	H213	0.925100	0.636800	0.006600
C1401	C140	0.903300	0.275900	0.993300
H2141	H214	0.917600	0.233900	0.978200
H2151	H215	0.906200	0.206700	0.020300
H2161	H216	0.872000	0.292800	0.963000
O311	O31	0.004730	0.811900	0.808990
C1411	C141	0.972220	0.721600	0.760290
H2171	H217	0.954900	0.660600	0.767800
H2181	H218	0.951800	0.785200	0.727500
O321	O32	0.992340	0.305700	0.952050
O331	O33	0.918760	0.262800	0.886980
O341	O34	0.198520	0.916400	0.951920
C1421	C142	0.970370	0.127100	0.880180
C1431	C143	0.030860	0.521900	0.802590
H2191	H219	0.013200	0.465400	0.810600
H2201	H220	0.052000	0.584800	0.835200
C1441	C144	0.082290	0.316100	0.833790
C1451	C145	0.118260	0.201100	0.925360
H2211	H221	0.122200	0.194600	0.959400
C1461	C146	0.142070	0.103200	0.915900
C1471	C147	0.936430	0.058000	0.829330
H2221	H222	0.906600	0.083200	0.812300
C1481	C148	0.990470	0.916700	0.828620
C1491	C149	0.945860	0.951800	0.803160
H2231	H223	0.922700	0.905500	0.769400
C1501	C150	0.088740	0.308200	0.885450
H2241	H224	0.073500	0.373600	0.892900
C1511	C151	0.959760	0.239600	0.908800
O351	O35	0.173600	0.969000	0.001900
C1521	C152	0.105480	0.218600	0.823510
H2251	H225	0.101000	0.223300	0.789100
C1531	C153	0.135210	0.114700	0.864050
H2261	H226	0.151000	0.051200	0.856900
C1541	C154	0.014820	0.089900	0.904620
H2271	H227	0.038000	0.135700	0.938500
C1551	C155	0.174040	0.988800	0.960280
C1561	C156	0.025010	0.986700	0.879600
H2281	H228	0.054900	0.963200	0.896400
O361	O36	0.054610	0.420300	0.792150
N371	N37	0.258870	0.239100	0.438040
H2291	H229	0.279600	0.320300	0.445400
N381	N38	0.203500	0.422800	0.460540
H2301	H230	0.219800	0.518000	0.468800
N391	N39	0.192390	0.395600	0.370550
C1571	C157	0.217100	0.258700	0.379460
H2311	H231	0.197600	0.172600	0.369900
H2321	H232	0.224700	0.258800	0.353600
C1581	C158	0.171290	0.405000	0.398030
H2331	H233	0.150700	0.490100	0.382300
H2341	H234	0.153700	0.314100	0.389400
C1591	C159	0.281850	0.093300	0.447000
H2351	H235	0.260400	0.010800	0.432200
H2361	H236	0.295100	0.093800	0.427400
C1601	C160	0.181540	0.426800	0.489200
H2371	H237	0.166300	0.522600	0.481700
H2381	H238	0.159500	0.346300	0.474700
C1611	C161	0.215690	0.535200	0.375000
H2391	H239	0.240800	0.552600	0.414000
H2401	H240	0.226300	0.525100	0.352800
H2411	H241	0.195200	0.618900	0.361000
N401	N40	0.568650	0.031700	0.548840
H2421	H242	0.582900	0.943200	0.573600
N411	N41	0.497850	0.857700	0.443410
H2431	H243	0.507400	0.757100	0.460800
N421	N42	0.575240	0.919200	0.478480
C1621	C162	0.449760	0.847700	0.393480
H2441	H244	0.441200	0.936700	0.369800
H2451	H245	0.444900	0.759500	0.371000
C1631	C163	0.528730	0.905300	0.429800
H2461	H246	0.518500	0.001800	0.410300
H2471	H247	0.526500	0.832100	0.403900
C1641	C164	0.578490	0.163500	0.585780
H2481	H248	0.610200	0.164700	0.618000
H2491	H249	0.571500	0.256500	0.564600
C1651	C165	0.586570	0.044900	0.515800
H2501	H250	0.619100	0.053900	0.542200
H2511	H251	0.574900	0.136800	0.493400
C1661	C166	0.596700	0.775900	0.506700
H2521	H252	0.582400	0.733900	0.521800
H2531	H253	0.593800	0.706700	0.479700
H2541	H254	0.628000	0.792800	0.537000
O371	O37	0.495270	0.311900	0.691010
C1671	C167	0.527780	0.221600	0.739710
H2551	H255	0.545100	0.160600	0.732200
H2561	H256	0.548200	0.285200	0.772500
O381	O38	0.507660	0.805700	0.547950
O391	O39	0.581240	0.762800	0.613020
O401	O40	0.301480	0.416400	0.548080
C1681	C168	0.529630	0.627100	0.619820
C1691	C169	0.469140	0.021900	0.697410
H2571	H257	0.486800	0.965400	0.689400
H2581	H258	0.448000	0.084800	0.664800
C1701	C170	0.417710	0.816100	0.666210
C1711	C171	0.381740	0.701100	0.574640
H2591	H259	0.377800	0.694600	0.540600
C1721	C172	0.357930	0.603200	0.584100
C1731	C173	0.563570	0.558000	0.670670
H2601	H260	0.593400	0.583200	0.687700
C1741	C174	0.509530	0.416700	0.671380
C1751	C175	0.554140	0.451800	0.696840
H2611	H261	0.577300	0.405500	0.730600
C1761	C176	0.411260	0.808200	0.614550
H2621	H262	0.426500	0.873600	0.607100
C1771	C177	0.540240	0.739600	0.591200
O411	O41	0.326400	0.469000	0.498100
C1781	C178	0.394520	0.718600	0.676490
H2631	H263	0.399000	0.723300	0.710900
C1791	C179	0.364790	0.614700	0.635950
H2641	H264	0.349000	0.551200	0.643100
C1801	C180	0.485180	0.589900	0.595380
H2651	H265	0.462000	0.635700	0.561500
C1811	C181	0.325960	0.488800	0.539720
C1821	C182	0.474990	0.486700	0.620400
H2661	H266	0.445100	0.463200	0.603600
O421	O42	0.445390	0.920300	0.707850
N431	N43	0.758870	0.739100	0.438040
H2671	H267	0.779600	0.820300	0.445400
N441	N44	0.703500	0.922800	0.460540
H2681	H268	0.719800	0.018000	0.468800
N451	N45	0.692390	0.895600	0.370550
C1831	C183	0.717100	0.758700	0.379460
H2691	H269	0.697600	0.672600	0.369900
H2701	H270	0.724700	0.758800	0.353600
C1841	C184	0.671290	0.905000	0.398030
H2711	H271	0.650700	0.990100	0.382300
H2721	H272	0.653700	0.814100	0.389400
C1851	C185	0.781850	0.593300	0.447000
H2731	H273	0.760400	0.510800	0.432200
H2741	H274	0.795100	0.593800	0.427400
C1861	C186	0.681540	0.926800	0.489200
H2751	H275	0.666300	0.022600	0.481700
H2761	H276	0.659500	0.846300	0.474700
C1871	C187	0.715690	0.035200	0.375000
H2771	H277	0.740800	0.052600	0.414000
H2781	H278	0.726300	0.025100	0.352800
H2791	H279	0.695200	0.118900	0.361000
N461	N46	0.068650	0.531700	0.548840
H2801	H280	0.082900	0.443200	0.573600
N471	N47	0.997850	0.357700	0.443410
H2811	H281	0.007400	0.257100	0.460800
N481	N48	0.075240	0.419200	0.478480
C1881	C188	0.949760	0.347700	0.393480
H2821	H282	0.941200	0.436700	0.369800
H2831	H283	0.944900	0.259500	0.371000
C1891	C189	0.028730	0.405300	0.429800
H2841	H284	0.018500	0.501800	0.410300
H2851	H285	0.026500	0.332100	0.403900
C1901	C190	0.078490	0.663500	0.585780
H2861	H286	0.110200	0.664700	0.618000
H2871	H287	0.071500	0.756500	0.564600
C1911	C191	0.086570	0.544900	0.515800
H2881	H288	0.119100	0.553900	0.542200
H2891	H289	0.074900	0.636800	0.493400
C1921	C192	0.096700	0.275900	0.506700
H2901	H290	0.082400	0.233900	0.521800
H2911	H291	0.093800	0.206700	0.479700
H2921	H292	0.128000	0.292800	0.537000
O431	O43	0.995270	0.811900	0.691010
C1931	C193	0.027780	0.721600	0.739710
H2931	H293	0.045100	0.660600	0.732200
H2941	H294	0.048200	0.785200	0.772500
O441	O44	0.007660	0.305700	0.547950
O451	O45	0.081240	0.262800	0.613020
O461	O46	0.801480	0.916400	0.548080
C1941	C194	0.029630	0.127100	0.619820
C1951	C195	0.969140	0.521900	0.697410
H2951	H295	0.986800	0.465400	0.689400
H2961	H296	0.948000	0.584800	0.664800
C1961	C196	0.917710	0.316100	0.666210
C1971	C197	0.881740	0.201100	0.574640
H2971	H297	0.877800	0.194600	0.540600
C1981	C198	0.857930	0.103200	0.584100
C1991	C199	0.063570	0.058000	0.670670
H2981	H298	0.093400	0.083200	0.687700
C2001	C200	0.009530	0.916700	0.671380
C2011	C201	0.054140	0.951800	0.696840
H2991	H299	0.077300	0.905500	0.730600
C2021	C202	0.911260	0.308200	0.614550
H3001	H300	0.926500	0.373600	0.607100
C2031	C203	0.040240	0.239600	0.591200
O471	O47	0.826400	0.969000	0.498100
C2041	C204	0.894520	0.218600	0.676490
H3011	H301	0.899000	0.223300	0.710900
C2051	C205	0.864790	0.114700	0.635950
H3021	H302	0.849000	0.051200	0.643100
C2061	C206	0.985180	0.089900	0.595380
H3031	H303	0.962000	0.135700	0.561500
C2071	C207	0.825960	0.988800	0.539720
C2081	C208	0.974990	0.986700	0.620400
H3041	H304	0.945100	0.963200	0.603600
O481	O48	0.945390	0.420300	0.707850
Ni11	Ni1	0.250000	0.750000	0.000000
Ni21	Ni2	0.750000	0.750000	0.500000
Ni31	Ni3	0.750000	0.250000	0.000000
Ni41	Ni4	0.250000	0.250000	0.500000
Ni51	Ni5	0.500000	0.000000	0.000000
Ni61	Ni6	0.000000	0.500000	0.000000
Ni71	Ni7	0.500000	0.000000	0.500000
Ni81	Ni8	0.000000	0.500000	0.500000
C2091	C209	0.500000	0.879200	0.250000
C2101	C210	0.000000	0.379200	0.250000
C2111	C211	0.500000	0.120800	0.750000
C2121	C212	0.000000	0.620800	0.750000
