data_RUWZOA_clean_PM
_symmetry_space_group_name_H-M	'P1'
_cell_length_a	37.153000
_cell_length_b	8.938100
_cell_length_c	29.414000
_cell_angle_alpha	90.000000
_cell_angle_beta	127.964000
_cell_angle_gamma	90.000000
_symmetry_Int_Tables_number 1

loop_
_symmetry_equiv_pos_as_xyz
'x,y,z'

loop_
_atom_site_label
_atom_site_type_symbol
_atom_site_fract_x
_atom_site_fract_y
_atom_site_fract_z
O11	O1	0.199390	0.422700	0.454080
O21	O2	0.173080	0.468700	0.503360
O31	O3	0.056830	0.928500	0.294700
O41	O4	0.996910	0.319600	0.194600
O51	O5	0.084020	0.772700	0.119620
O61	O6	0.010060	0.823600	0.056820
N11	N1	0.241050	0.236800	0.561450
H11	H1	0.219500	0.316000	0.552900
N21	N2	0.197660	0.089600	0.454220
N31	N3	0.188190	0.117600	0.369330
N41	N4	0.994180	0.844900	0.942330
N51	N5	0.068190	0.023400	0.043910
H21	H2	0.082900	0.944000	0.073100
N61	N6	0.066420	0.888300	0.968640
C11	C1	0.018270	0.903700	0.920500
H31	H3	0.010500	0.846100	0.887600
H41	H4	0.010400	0.007700	0.909200
C21	C2	0.068360	0.740000	0.992800
H51	H5	0.088200	0.744100	0.034600
H61	H6	0.080000	0.664800	0.981000
C31	C3	0.018700	0.701700	0.968700
H71	H7	0.006100	0.622600	0.940200
H81	H8	0.017400	0.671500	0.999400
C41	C4	0.085640	0.009800	0.009800
H91	H9	0.079500	0.102900	0.989200
H101	H10	0.118500	0.997100	0.036400
C51	C5	0.079960	0.167600	0.075500
H111	H11	0.070200	0.250900	0.049200
H121	H12	0.112700	0.174700	0.105300
C61	C6	0.944200	0.827200	0.897600
H131	H13	0.937900	0.732400	0.877900
H141	H14	0.932700	0.906600	0.869300
C71	C7	0.164260	0.140500	0.393760
H151	H15	0.136500	0.081400	0.373500
H161	H16	0.156600	0.245100	0.392100
C81	C8	0.210740	0.943700	0.444100
H171	H17	0.188600	0.867000	0.434500
H181	H18	0.240600	0.912300	0.478000
C91	C9	0.211500	0.972200	0.394000
H191	H19	0.242700	0.976900	0.407200
H201	H20	0.195500	0.893300	0.365500
C101	C10	0.282150	0.258600	0.622090
H211	H21	0.272400	0.276800	0.645600
H221	H22	0.299800	0.166800	0.635700
C111	C11	0.217440	0.093100	0.550800
H231	H23	0.205300	0.089400	0.572000
H241	H24	0.238700	0.010700	0.563500
C121	C12	0.179060	0.080200	0.486900
H251	H25	0.163400	0.985500	0.478800
H261	H26	0.157200	0.160100	0.474700
C131	C13	0.173890	0.490700	0.462090
C141	C14	0.141940	0.605300	0.417260
C151	C15	0.135020	0.618300	0.365130
H271	H27	0.150400	0.553800	0.357500
C161	C16	0.106280	0.723500	0.325020
H281	H28	0.101600	0.728700	0.290200
C171	C17	0.084140	0.822400	0.336580
C181	C18	0.090540	0.814600	0.388170
H291	H29	0.075900	0.881800	0.396100
C191	C19	0.119020	0.705200	0.427630
H301	H30	0.123000	0.698300	0.462000
C201	C20	0.030840	0.024000	0.303330
H311	H31	0.051100	0.086400	0.337000
H321	H32	0.012500	0.964500	0.309700
C211	C21	0.028690	0.220400	0.240870
H331	H33	0.051100	0.276400	0.275600
H341	H34	0.044500	0.160000	0.230700
C221	C22	0.012170	0.428000	0.177460
C231	C23	0.977640	0.516300	0.132400
H351	H35	0.947600	0.503600	0.118400
C241	C24	0.988450	0.622900	0.108800
H361	H36	0.965300	0.680700	0.078200
C251	C25	0.033320	0.646000	0.129660
C261	C26	0.067170	0.561700	0.176090
H371	H37	0.097500	0.579000	0.191800
C271	C27	0.057020	0.450500	0.200240
H381	H38	0.080100	0.393100	0.231100
C281	C28	0.043410	0.756200	0.100260
O71	O7	0.699390	0.922700	0.454080
O81	O8	0.673080	0.968700	0.503360
O91	O9	0.556830	0.428500	0.294700
O101	O10	0.496910	0.819600	0.194600
O111	O11	0.584020	0.272700	0.119620
O121	O12	0.510060	0.323600	0.056820
N71	N7	0.741050	0.736800	0.561450
H391	H39	0.719500	0.816000	0.552900
N81	N8	0.697660	0.589600	0.454220
N91	N9	0.688190	0.617600	0.369330
N101	N10	0.494180	0.344900	0.942330
N111	N11	0.568190	0.523400	0.043910
H401	H40	0.582900	0.444000	0.073100
N121	N12	0.566420	0.388300	0.968640
C291	C29	0.518270	0.403700	0.920500
H411	H41	0.510500	0.346100	0.887600
H421	H42	0.510400	0.507700	0.909200
C301	C30	0.568360	0.240000	0.992800
H431	H43	0.588200	0.244100	0.034600
H441	H44	0.580000	0.164800	0.981000
C311	C31	0.518700	0.201700	0.968700
H451	H45	0.506100	0.122600	0.940200
H461	H46	0.517400	0.171500	0.999400
C321	C32	0.585640	0.509800	0.009800
H471	H47	0.579500	0.602900	0.989200
H481	H48	0.618500	0.497100	0.036400
C331	C33	0.579960	0.667600	0.075500
H491	H49	0.570200	0.750900	0.049200
H501	H50	0.612700	0.674700	0.105300
C341	C34	0.444200	0.327200	0.897600
H511	H51	0.437900	0.232400	0.877900
H521	H52	0.432700	0.406600	0.869300
C351	C35	0.664260	0.640500	0.393760
H531	H53	0.636500	0.581400	0.373500
H541	H54	0.656600	0.745100	0.392100
C361	C36	0.710740	0.443700	0.444100
H551	H55	0.688600	0.367000	0.434500
H561	H56	0.740600	0.412300	0.478000
C371	C37	0.711500	0.472200	0.394000
H571	H57	0.742700	0.476900	0.407200
H581	H58	0.695500	0.393300	0.365500
C381	C38	0.782150	0.758600	0.622090
H591	H59	0.772400	0.776800	0.645600
H601	H60	0.799800	0.666800	0.635700
C391	C39	0.717440	0.593100	0.550800
H611	H61	0.705300	0.589400	0.572000
H621	H62	0.738700	0.510700	0.563500
C401	C40	0.679060	0.580200	0.486900
H631	H63	0.663400	0.485500	0.478800
H641	H64	0.657200	0.660100	0.474700
C411	C41	0.673890	0.990700	0.462090
C421	C42	0.641940	0.105300	0.417260
C431	C43	0.635020	0.118300	0.365130
H651	H65	0.650400	0.053800	0.357500
C441	C44	0.606280	0.223500	0.325020
H661	H66	0.601600	0.228700	0.290200
C451	C45	0.584140	0.322400	0.336580
C461	C46	0.590540	0.314600	0.388170
H671	H67	0.575900	0.381800	0.396100
C471	C47	0.619020	0.205200	0.427630
H681	H68	0.623000	0.198300	0.462000
C481	C48	0.530840	0.524000	0.303330
H691	H69	0.551100	0.586400	0.337000
H701	H70	0.512500	0.464500	0.309700
C491	C49	0.528690	0.720400	0.240870
H711	H71	0.551100	0.776400	0.275600
H721	H72	0.544500	0.660000	0.230700
C501	C50	0.512170	0.928000	0.177460
C511	C51	0.477640	0.016300	0.132400
H731	H73	0.447600	0.003600	0.118400
C521	C52	0.488450	0.122900	0.108800
H741	H74	0.465300	0.180700	0.078200
C531	C53	0.533320	0.146000	0.129660
C541	C54	0.567170	0.061700	0.176090
H751	H75	0.597500	0.079000	0.191800
C551	C55	0.557020	0.950500	0.200240
H761	H76	0.580100	0.893100	0.231100
C561	C56	0.543410	0.256200	0.100260
O131	O13	0.800610	0.422700	0.045920
O141	O14	0.826920	0.468700	0.996640
O151	O15	0.943170	0.928500	0.205300
O161	O16	0.003090	0.319600	0.305400
O171	O17	0.915980	0.772700	0.380380
O181	O18	0.989940	0.823600	0.443180
N131	N13	0.758950	0.236800	0.938550
H771	H77	0.780500	0.316000	0.947100
N141	N14	0.802340	0.089600	0.045780
N151	N15	0.811810	0.117600	0.130670
N161	N16	0.005820	0.844900	0.557670
N171	N17	0.931810	0.023400	0.456090
H781	H78	0.917100	0.944000	0.426900
N181	N18	0.933580	0.888300	0.531360
C571	C57	0.981730	0.903700	0.579500
H791	H79	0.989500	0.846100	0.612400
H801	H80	0.989600	0.007700	0.590800
C581	C58	0.931640	0.740000	0.507200
H811	H81	0.911800	0.744100	0.465400
H821	H82	0.920000	0.664800	0.519000
C591	C59	0.981300	0.701700	0.531300
H831	H83	0.993900	0.622600	0.559800
H841	H84	0.982600	0.671500	0.500600
C601	C60	0.914360	0.009800	0.490200
H851	H85	0.920500	0.102900	0.510800
H861	H86	0.881500	0.997100	0.463600
C611	C61	0.920040	0.167600	0.424500
H871	H87	0.929800	0.250900	0.450800
H881	H88	0.887300	0.174700	0.394700
C621	C62	0.055800	0.827200	0.602400
H891	H89	0.062100	0.732400	0.622100
H901	H90	0.067300	0.906600	0.630700
C631	C63	0.835740	0.140500	0.106240
H911	H91	0.863500	0.081400	0.126500
H921	H92	0.843400	0.245100	0.107900
C641	C64	0.789260	0.943700	0.055900
H931	H93	0.811400	0.867000	0.065500
H941	H94	0.759400	0.912300	0.022000
C651	C65	0.788500	0.972200	0.106000
H951	H95	0.757300	0.976900	0.092800
H961	H96	0.804500	0.893300	0.134500
C661	C66	0.717850	0.258600	0.877910
H971	H97	0.727600	0.276800	0.854400
H981	H98	0.700200	0.166800	0.864300
C671	C67	0.782560	0.093100	0.949200
H991	H99	0.794700	0.089400	0.928000
H1001	H100	0.761300	0.010700	0.936500
C681	C68	0.820940	0.080200	0.013100
H1011	H101	0.836600	0.985500	0.021200
H1021	H102	0.842800	0.160100	0.025300
C691	C69	0.826110	0.490700	0.037910
C701	C70	0.858060	0.605300	0.082740
C711	C71	0.864980	0.618300	0.134870
H1031	H103	0.849600	0.553800	0.142500
C721	C72	0.893720	0.723500	0.174980
H1041	H104	0.898400	0.728700	0.209800
C731	C73	0.915860	0.822400	0.163420
C741	C74	0.909460	0.814600	0.111830
H1051	H105	0.924100	0.881800	0.103900
C751	C75	0.880980	0.705200	0.072370
H1061	H106	0.877000	0.698300	0.038000
C761	C76	0.969160	0.024000	0.196670
H1071	H107	0.948900	0.086400	0.163000
H1081	H108	0.987500	0.964500	0.190300
C771	C77	0.971310	0.220400	0.259130
H1091	H109	0.948900	0.276400	0.224400
H1101	H110	0.955500	0.160000	0.269300
C781	C78	0.987830	0.428000	0.322540
C791	C79	0.022360	0.516300	0.367600
H1111	H111	0.052400	0.503600	0.381600
C801	C80	0.011550	0.622900	0.391200
H1121	H112	0.034700	0.680700	0.421800
C811	C81	0.966680	0.646000	0.370340
C821	C82	0.932830	0.561700	0.323910
H1131	H113	0.902500	0.579000	0.308200
C831	C83	0.942980	0.450500	0.299760
H1141	H114	0.919900	0.393100	0.268900
C841	C84	0.956590	0.756200	0.399740
O191	O19	0.300610	0.922700	0.045920
O201	O20	0.326920	0.968700	0.996640
O211	O21	0.443170	0.428500	0.205300
O221	O22	0.503090	0.819600	0.305400
O231	O23	0.415980	0.272700	0.380380
O241	O24	0.489940	0.323600	0.443180
N191	N19	0.258950	0.736800	0.938550
H1151	H115	0.280500	0.816000	0.947100
N201	N20	0.302340	0.589600	0.045780
N211	N21	0.311810	0.617600	0.130670
N221	N22	0.505820	0.344900	0.557670
N231	N23	0.431810	0.523400	0.456090
H1161	H116	0.417100	0.444000	0.426900
N241	N24	0.433580	0.388300	0.531360
C851	C85	0.481730	0.403700	0.579500
H1171	H117	0.489500	0.346100	0.612400
H1181	H118	0.489600	0.507700	0.590800
C861	C86	0.431640	0.240000	0.507200
H1191	H119	0.411800	0.244100	0.465400
H1201	H120	0.420000	0.164800	0.519000
C871	C87	0.481300	0.201700	0.531300
H1211	H121	0.493900	0.122600	0.559800
H1221	H122	0.482600	0.171500	0.500600
C881	C88	0.414360	0.509800	0.490200
H1231	H123	0.420500	0.602900	0.510800
H1241	H124	0.381500	0.497100	0.463600
C891	C89	0.420040	0.667600	0.424500
H1251	H125	0.429800	0.750900	0.450800
H1261	H126	0.387300	0.674700	0.394700
C901	C90	0.555800	0.327200	0.602400
H1271	H127	0.562100	0.232400	0.622100
H1281	H128	0.567300	0.406600	0.630700
C911	C91	0.335740	0.640500	0.106240
H1291	H129	0.363500	0.581400	0.126500
H1301	H130	0.343400	0.745100	0.107900
C921	C92	0.289260	0.443700	0.055900
H1311	H131	0.311400	0.367000	0.065500
H1321	H132	0.259400	0.412300	0.022000
C931	C93	0.288500	0.472200	0.106000
H1331	H133	0.257300	0.476900	0.092800
H1341	H134	0.304500	0.393300	0.134500
C941	C94	0.217850	0.758600	0.877910
H1351	H135	0.227600	0.776800	0.854400
H1361	H136	0.200200	0.666800	0.864300
C951	C95	0.282560	0.593100	0.949200
H1371	H137	0.294700	0.589400	0.928000
H1381	H138	0.261300	0.510700	0.936500
C961	C96	0.320940	0.580200	0.013100
H1391	H139	0.336600	0.485500	0.021200
H1401	H140	0.342800	0.660100	0.025300
C971	C97	0.326110	0.990700	0.037910
C981	C98	0.358060	0.105300	0.082740
C991	C99	0.364980	0.118300	0.134870
H1411	H141	0.349600	0.053800	0.142500
C1001	C100	0.393720	0.223500	0.174980
H1421	H142	0.398400	0.228700	0.209800
C1011	C101	0.415860	0.322400	0.163420
C1021	C102	0.409460	0.314600	0.111830
H1431	H143	0.424100	0.381800	0.103900
C1031	C103	0.380980	0.205200	0.072370
H1441	H144	0.377000	0.198300	0.038000
C1041	C104	0.469160	0.524000	0.196670
H1451	H145	0.448900	0.586400	0.163000
H1461	H146	0.487500	0.464500	0.190300
C1051	C105	0.471310	0.720400	0.259130
H1471	H147	0.448900	0.776400	0.224400
H1481	H148	0.455500	0.660000	0.269300
C1061	C106	0.487830	0.928000	0.322540
C1071	C107	0.522360	0.016300	0.367600
H1491	H149	0.552400	0.003600	0.381600
C1081	C108	0.511550	0.122900	0.391200
H1501	H150	0.534700	0.180700	0.421800
C1091	C109	0.466680	0.146000	0.370340
C1101	C110	0.432830	0.061700	0.323910
H1511	H151	0.402500	0.079000	0.308200
C1111	C111	0.442980	0.950500	0.299760
H1521	H152	0.419900	0.893100	0.268900
C1121	C112	0.456590	0.256200	0.399740
O251	O25	0.800610	0.577300	0.545920
O261	O26	0.826920	0.531300	0.496640
O271	O27	0.943170	0.071500	0.705300
O281	O28	0.003090	0.680400	0.805400
O291	O29	0.915980	0.227300	0.880380
O301	O30	0.989940	0.176400	0.943180
N251	N25	0.758950	0.763200	0.438550
H1531	H153	0.780500	0.684000	0.447100
N261	N26	0.802340	0.910400	0.545780
N271	N27	0.811810	0.882400	0.630670
N281	N28	0.005820	0.155100	0.057670
N291	N29	0.931810	0.976600	0.956090
H1541	H154	0.917100	0.056000	0.926900
N301	N30	0.933580	0.111700	0.031360
C1131	C113	0.981730	0.096300	0.079500
H1551	H155	0.989500	0.153900	0.112400
H1561	H156	0.989600	0.992300	0.090800
C1141	C114	0.931640	0.260000	0.007200
H1571	H157	0.911800	0.255900	0.965400
H1581	H158	0.920000	0.335200	0.019000
C1151	C115	0.981300	0.298300	0.031300
H1591	H159	0.993900	0.377400	0.059800
H1601	H160	0.982600	0.328500	0.000600
C1161	C116	0.914360	0.990200	0.990200
H1611	H161	0.920500	0.897100	0.010800
H1621	H162	0.881500	0.002900	0.963600
C1171	C117	0.920040	0.832400	0.924500
H1631	H163	0.929800	0.749100	0.950800
H1641	H164	0.887300	0.825300	0.894700
C1181	C118	0.055800	0.172800	0.102400
H1651	H165	0.062100	0.267600	0.122100
H1661	H166	0.067300	0.093400	0.130700
C1191	C119	0.835740	0.859500	0.606240
H1671	H167	0.863500	0.918600	0.626500
H1681	H168	0.843400	0.754900	0.607900
C1201	C120	0.789260	0.056300	0.555900
H1691	H169	0.811400	0.133000	0.565500
H1701	H170	0.759400	0.087700	0.522000
C1211	C121	0.788500	0.027800	0.606000
H1711	H171	0.757300	0.023100	0.592800
H1721	H172	0.804500	0.106700	0.634500
C1221	C122	0.717850	0.741400	0.377910
H1731	H173	0.727600	0.723200	0.354400
H1741	H174	0.700200	0.833200	0.364300
C1231	C123	0.782560	0.906900	0.449200
H1751	H175	0.794700	0.910600	0.428000
H1761	H176	0.761300	0.989300	0.436500
C1241	C124	0.820940	0.919800	0.513100
H1771	H177	0.836600	0.014500	0.521200
H1781	H178	0.842800	0.839900	0.525300
C1251	C125	0.826110	0.509300	0.537910
C1261	C126	0.858060	0.394700	0.582740
C1271	C127	0.864980	0.381700	0.634870
H1791	H179	0.849600	0.446200	0.642500
C1281	C128	0.893720	0.276500	0.674980
H1801	H180	0.898400	0.271300	0.709800
C1291	C129	0.915860	0.177600	0.663420
C1301	C130	0.909460	0.185400	0.611830
H1811	H181	0.924100	0.118200	0.603900
C1311	C131	0.880980	0.294800	0.572370
H1821	H182	0.877000	0.301700	0.538000
C1321	C132	0.969160	0.976000	0.696670
H1831	H183	0.948900	0.913600	0.663000
H1841	H184	0.987500	0.035500	0.690300
C1331	C133	0.971310	0.779600	0.759130
H1851	H185	0.948900	0.723600	0.724400
H1861	H186	0.955500	0.840000	0.769300
C1341	C134	0.987830	0.572000	0.822540
C1351	C135	0.022360	0.483700	0.867600
H1871	H187	0.052400	0.496400	0.881600
C1361	C136	0.011550	0.377100	0.891200
H1881	H188	0.034700	0.319300	0.921800
C1371	C137	0.966680	0.354000	0.870340
C1381	C138	0.932830	0.438300	0.823910
H1891	H189	0.902500	0.421000	0.808200
C1391	C139	0.942980	0.549500	0.799760
H1901	H190	0.919900	0.606900	0.768900
C1401	C140	0.956590	0.243800	0.899740
O311	O31	0.300610	0.077300	0.545920
O321	O32	0.326920	0.031300	0.496640
O331	O33	0.443170	0.571500	0.705300
O341	O34	0.503090	0.180400	0.805400
O351	O35	0.415980	0.727300	0.880380
O361	O36	0.489940	0.676400	0.943180
N311	N31	0.258950	0.263200	0.438550
H1911	H191	0.280500	0.184000	0.447100
N321	N32	0.302340	0.410400	0.545780
N331	N33	0.311810	0.382400	0.630670
N341	N34	0.505820	0.655100	0.057670
N351	N35	0.431810	0.476600	0.956090
H1921	H192	0.417100	0.556000	0.926900
N361	N36	0.433580	0.611700	0.031360
C1411	C141	0.481730	0.596300	0.079500
H1931	H193	0.489500	0.653900	0.112400
H1941	H194	0.489600	0.492300	0.090800
C1421	C142	0.431640	0.760000	0.007200
H1951	H195	0.411800	0.755900	0.965400
H1961	H196	0.420000	0.835200	0.019000
C1431	C143	0.481300	0.798300	0.031300
H1971	H197	0.493900	0.877400	0.059800
H1981	H198	0.482600	0.828500	0.000600
C1441	C144	0.414360	0.490200	0.990200
H1991	H199	0.420500	0.397100	0.010800
H2001	H200	0.381500	0.502900	0.963600
C1451	C145	0.420040	0.332400	0.924500
H2011	H201	0.429800	0.249100	0.950800
H2021	H202	0.387300	0.325300	0.894700
C1461	C146	0.555800	0.672800	0.102400
H2031	H203	0.562100	0.767600	0.122100
H2041	H204	0.567300	0.593400	0.130700
C1471	C147	0.335740	0.359500	0.606240
H2051	H205	0.363500	0.418600	0.626500
H2061	H206	0.343400	0.254900	0.607900
C1481	C148	0.289260	0.556300	0.555900
H2071	H207	0.311400	0.633000	0.565500
H2081	H208	0.259400	0.587700	0.522000
C1491	C149	0.288500	0.527800	0.606000
H2091	H209	0.257300	0.523100	0.592800
H2101	H210	0.304500	0.606700	0.634500
C1501	C150	0.217850	0.241400	0.377910
H2111	H211	0.227600	0.223200	0.354400
H2121	H212	0.200200	0.333200	0.364300
C1511	C151	0.282560	0.406900	0.449200
H2131	H213	0.294700	0.410600	0.428000
H2141	H214	0.261300	0.489300	0.436500
C1521	C152	0.320940	0.419800	0.513100
H2151	H215	0.336600	0.514500	0.521200
H2161	H216	0.342800	0.339900	0.525300
C1531	C153	0.326110	0.009300	0.537910
C1541	C154	0.358060	0.894700	0.582740
C1551	C155	0.364980	0.881700	0.634870
H2171	H217	0.349600	0.946200	0.642500
C1561	C156	0.393720	0.776500	0.674980
H2181	H218	0.398400	0.771300	0.709800
C1571	C157	0.415860	0.677600	0.663420
C1581	C158	0.409460	0.685400	0.611830
H2191	H219	0.424100	0.618200	0.603900
C1591	C159	0.380980	0.794800	0.572370
H2201	H220	0.377000	0.801700	0.538000
C1601	C160	0.469160	0.476000	0.696670
H2211	H221	0.448900	0.413600	0.663000
H2221	H222	0.487500	0.535500	0.690300
C1611	C161	0.471310	0.279600	0.759130
H2231	H223	0.448900	0.223600	0.724400
H2241	H224	0.455500	0.340000	0.769300
C1621	C162	0.487830	0.072000	0.822540
C1631	C163	0.522360	0.983700	0.867600
H2251	H225	0.552400	0.996400	0.881600
C1641	C164	0.511550	0.877100	0.891200
H2261	H226	0.534700	0.819300	0.921800
C1651	C165	0.466680	0.854000	0.870340
C1661	C166	0.432830	0.938300	0.823910
H2271	H227	0.402500	0.921000	0.808200
C1671	C167	0.442980	0.049500	0.799760
H2281	H228	0.419900	0.106900	0.768900
C1681	C168	0.456590	0.743800	0.899740
O371	O37	0.199390	0.577300	0.954080
O381	O38	0.173080	0.531300	0.003360
O391	O39	0.056830	0.071500	0.794700
O401	O40	0.996910	0.680400	0.694600
O411	O41	0.084020	0.227300	0.619620
O421	O42	0.010060	0.176400	0.556820
N371	N37	0.241050	0.763200	0.061450
H2291	H229	0.219500	0.684000	0.052900
N381	N38	0.197660	0.910400	0.954220
N391	N39	0.188190	0.882400	0.869330
N401	N40	0.994180	0.155100	0.442330
N411	N41	0.068190	0.976600	0.543910
H2301	H230	0.082900	0.056000	0.573100
N421	N42	0.066420	0.111700	0.468640
C1691	C169	0.018270	0.096300	0.420500
H2311	H231	0.010500	0.153900	0.387600
H2321	H232	0.010400	0.992300	0.409200
C1701	C170	0.068360	0.260000	0.492800
H2331	H233	0.088200	0.255900	0.534600
H2341	H234	0.080000	0.335200	0.481000
C1711	C171	0.018700	0.298300	0.468700
H2351	H235	0.006100	0.377400	0.440200
H2361	H236	0.017400	0.328500	0.499400
C1721	C172	0.085640	0.990200	0.509800
H2371	H237	0.079500	0.897100	0.489200
H2381	H238	0.118500	0.002900	0.536400
C1731	C173	0.079960	0.832400	0.575500
H2391	H239	0.070200	0.749100	0.549200
H2401	H240	0.112700	0.825300	0.605300
C1741	C174	0.944200	0.172800	0.397600
H2411	H241	0.937900	0.267600	0.377900
H2421	H242	0.932700	0.093400	0.369300
C1751	C175	0.164260	0.859500	0.893760
H2431	H243	0.136500	0.918600	0.873500
H2441	H244	0.156600	0.754900	0.892100
C1761	C176	0.210740	0.056300	0.944100
H2451	H245	0.188600	0.133000	0.934500
H2461	H246	0.240600	0.087700	0.978000
C1771	C177	0.211500	0.027800	0.894000
H2471	H247	0.242700	0.023100	0.907200
H2481	H248	0.195500	0.106700	0.865500
C1781	C178	0.282150	0.741400	0.122090
H2491	H249	0.272400	0.723200	0.145600
H2501	H250	0.299800	0.833200	0.135700
C1791	C179	0.217440	0.906900	0.050800
H2511	H251	0.205300	0.910600	0.072000
H2521	H252	0.238700	0.989300	0.063500
C1801	C180	0.179060	0.919800	0.986900
H2531	H253	0.163400	0.014500	0.978800
H2541	H254	0.157200	0.839900	0.974700
C1811	C181	0.173890	0.509300	0.962090
C1821	C182	0.141940	0.394700	0.917260
C1831	C183	0.135020	0.381700	0.865130
H2551	H255	0.150400	0.446200	0.857500
C1841	C184	0.106280	0.276500	0.825020
H2561	H256	0.101600	0.271300	0.790200
C1851	C185	0.084140	0.177600	0.836580
C1861	C186	0.090540	0.185400	0.888170
H2571	H257	0.075900	0.118200	0.896100
C1871	C187	0.119020	0.294800	0.927630
H2581	H258	0.123000	0.301700	0.962000
C1881	C188	0.030840	0.976000	0.803330
H2591	H259	0.051100	0.913600	0.837000
H2601	H260	0.012500	0.035500	0.809700
C1891	C189	0.028690	0.779600	0.740870
H2611	H261	0.051100	0.723600	0.775600
H2621	H262	0.044500	0.840000	0.730700
C1901	C190	0.012170	0.572000	0.677460
C1911	C191	0.977640	0.483700	0.632400
H2631	H263	0.947600	0.496400	0.618400
C1921	C192	0.988450	0.377100	0.608800
H2641	H264	0.965300	0.319300	0.578200
C1931	C193	0.033320	0.354000	0.629660
C1941	C194	0.067170	0.438300	0.676090
H2651	H265	0.097500	0.421000	0.691800
C1951	C195	0.057020	0.549500	0.700240
H2661	H266	0.080100	0.606900	0.731100
C1961	C196	0.043410	0.243800	0.600260
O431	O43	0.699390	0.077300	0.954080
O441	O44	0.673080	0.031300	0.003360
O451	O45	0.556830	0.571500	0.794700
O461	O46	0.496910	0.180400	0.694600
O471	O47	0.584020	0.727300	0.619620
O481	O48	0.510060	0.676400	0.556820
N431	N43	0.741050	0.263200	0.061450
H2671	H267	0.719500	0.184000	0.052900
N441	N44	0.697660	0.410400	0.954220
N451	N45	0.688190	0.382400	0.869330
N461	N46	0.494180	0.655100	0.442330
N471	N47	0.568190	0.476600	0.543910
H2681	H268	0.582900	0.556000	0.573100
N481	N48	0.566420	0.611700	0.468640
C1971	C197	0.518270	0.596300	0.420500
H2691	H269	0.510500	0.653900	0.387600
H2701	H270	0.510400	0.492300	0.409200
C1981	C198	0.568360	0.760000	0.492800
H2711	H271	0.588200	0.755900	0.534600
H2721	H272	0.580000	0.835200	0.481000
C1991	C199	0.518700	0.798300	0.468700
H2731	H273	0.506100	0.877400	0.440200
H2741	H274	0.517400	0.828500	0.499400
C2001	C200	0.585640	0.490200	0.509800
H2751	H275	0.579500	0.397100	0.489200
H2761	H276	0.618500	0.502900	0.536400
C2011	C201	0.579960	0.332400	0.575500
H2771	H277	0.570200	0.249100	0.549200
H2781	H278	0.612700	0.325300	0.605300
C2021	C202	0.444200	0.672800	0.397600
H2791	H279	0.437900	0.767600	0.377900
H2801	H280	0.432700	0.593400	0.369300
C2031	C203	0.664260	0.359500	0.893760
H2811	H281	0.636500	0.418600	0.873500
H2821	H282	0.656600	0.254900	0.892100
C2041	C204	0.710740	0.556300	0.944100
H2831	H283	0.688600	0.633000	0.934500
H2841	H284	0.740600	0.587700	0.978000
C2051	C205	0.711500	0.527800	0.894000
H2851	H285	0.742700	0.523100	0.907200
H2861	H286	0.695500	0.606700	0.865500
C2061	C206	0.782150	0.241400	0.122090
H2871	H287	0.772400	0.223200	0.145600
H2881	H288	0.799800	0.333200	0.135700
C2071	C207	0.717440	0.406900	0.050800
H2891	H289	0.705300	0.410600	0.072000
H2901	H290	0.738700	0.489300	0.063500
C2081	C208	0.679060	0.419800	0.986900
H2911	H291	0.663400	0.514500	0.978800
H2921	H292	0.657200	0.339900	0.974700
C2091	C209	0.673890	0.009300	0.962090
C2101	C210	0.641940	0.894700	0.917260
C2111	C211	0.635020	0.881700	0.865130
H2931	H293	0.650400	0.946200	0.857500
C2121	C212	0.606280	0.776500	0.825020
H2941	H294	0.601600	0.771300	0.790200
C2131	C213	0.584140	0.677600	0.836580
C2141	C214	0.590540	0.685400	0.888170
H2951	H295	0.575900	0.618200	0.896100
C2151	C215	0.619020	0.794800	0.927630
H2961	H296	0.623000	0.801700	0.962000
C2161	C216	0.530840	0.476000	0.803330
H2971	H297	0.551100	0.413600	0.837000
H2981	H298	0.512500	0.535500	0.809700
C2171	C217	0.528690	0.279600	0.740870
H2991	H299	0.551100	0.223600	0.775600
H3001	H300	0.544500	0.340000	0.730700
C2181	C218	0.512170	0.072000	0.677460
C2191	C219	0.477640	0.983700	0.632400
H3011	H301	0.447600	0.996400	0.618400
C2201	C220	0.488450	0.877100	0.608800
H3021	H302	0.465300	0.819300	0.578200
C2211	C221	0.533320	0.854000	0.629660
C2221	C222	0.567170	0.938300	0.676090
H3031	H303	0.597500	0.921000	0.691800
C2231	C223	0.557020	0.049500	0.700240
H3041	H304	0.580100	0.106900	0.731100
C2241	C224	0.543410	0.743800	0.600260
Ni11	Ni1	0.000000	0.000000	0.000000
Ni21	Ni2	0.500000	0.500000	0.000000
Ni31	Ni3	0.000000	0.000000	0.500000
Ni41	Ni4	0.500000	0.500000	0.500000
Ni51	Ni5	0.250000	0.250000	0.500000
Ni61	Ni6	0.750000	0.250000	0.000000
Ni71	Ni7	0.750000	0.750000	0.500000
Ni81	Ni8	0.250000	0.750000	0.000000
C2251	C225	0.000000	0.121800	0.250000
C2261	C226	0.500000	0.621800	0.250000
C2271	C227	0.000000	0.878200	0.750000
C2281	C228	0.500000	0.378200	0.750000
