data_RUXKUS_clean_PM
_symmetry_space_group_name_H-M	'P1'
_cell_length_a	20.627100
_cell_length_b	13.666900
_cell_length_c	20.683900
_cell_angle_alpha	90.000000
_cell_angle_beta	90.000000
_cell_angle_gamma	90.000000
_symmetry_Int_Tables_number 1

loop_
_symmetry_equiv_pos_as_xyz
'x,y,z'

loop_
_atom_site_label
_atom_site_type_symbol
_atom_site_fract_x
_atom_site_fract_y
_atom_site_fract_z
Cd11	Cd1	0.671890	0.627440	0.810440
O11	O1	0.575000	0.699900	0.831300
O21	O2	0.619000	0.793200	0.757300
N11	N1	0.622400	0.525800	0.734400
N21	N2	0.717500	0.732300	0.890900
C11	C1	0.575100	0.777100	0.796200
C21	C2	0.570400	0.551300	0.700400
C31	C3	0.642000	0.433200	0.729100
C41	C4	0.780200	0.726600	0.906500
C51	C5	0.682200	0.798000	0.923800
C61	C6	0.520600	0.847800	0.807400
H11	H1	0.556300	0.615700	0.703200
C71	C7	0.536700	0.489400	0.662100
C81	C8	0.611200	0.364900	0.691100
H21	H2	0.678400	0.413700	0.752300
H31	H3	0.805600	0.681400	0.884400
C91	C9	0.809200	0.782300	0.952400
C101	C10	0.708500	0.860200	0.970200
H41	H4	0.638000	0.802300	0.915100
H51	H5	0.533100	0.891700	0.842100
H61	H6	0.483200	0.811100	0.822200
H71	H7	0.500200	0.511100	0.640000
C111	C11	0.557400	0.393000	0.656000
H81	H8	0.626300	0.300900	0.689000
H91	H9	0.852800	0.772700	0.962200
C121	C12	0.773800	0.854200	0.985100
H101	H10	0.682200	0.905600	0.991200
H111	H11	0.535500	0.950600	0.737800
C131	C13	0.520500	0.320800	0.614800
C141	C14	0.806100	0.920100	0.033200
H121	H12	0.548400	0.266000	0.603800
H131	H13	0.507000	0.352000	0.574900
C151	C15	0.461500	0.284400	0.651500
H141	H14	0.833600	0.881400	0.061300
H151	H15	0.773200	0.951100	0.059900
H161	H16	0.433700	0.339800	0.661000
H171	H17	0.475700	0.257000	0.692400
C161	C16	0.421700	0.207200	0.615400
H181	H18	0.873800	0.035900	0.028900
C171	C17	0.362000	0.180700	0.654500
H191	H19	0.408700	0.232500	0.573600
H201	H20	0.447900	0.149200	0.608400
C181	C18	0.308300	0.234500	0.653500
C191	C19	0.362200	0.105700	0.696800
C201	C20	0.258300	0.218300	0.695700
H211	H21	0.304700	0.284600	0.623400
H221	H22	0.396900	0.062300	0.698300
C211	C21	0.310600	0.094500	0.737500
H231	H23	0.222600	0.259700	0.694400
N31	N3	0.258700	0.147500	0.737300
H241	H24	0.312900	0.044500	0.768000
Cd21	Cd2	0.171890	0.127440	0.810440
O31	O3	0.075000	0.199900	0.831300
O41	O4	0.119000	0.293200	0.757300
N41	N4	0.122400	0.025800	0.734400
N51	N5	0.217500	0.232300	0.890900
C221	C22	0.075100	0.277100	0.796200
C231	C23	0.070400	0.051300	0.700400
C241	C24	0.142000	0.933200	0.729100
C251	C25	0.280200	0.226600	0.906500
C261	C26	0.182200	0.298000	0.923800
C271	C27	0.020600	0.347800	0.807400
H251	H25	0.056300	0.115700	0.703200
C281	C28	0.036700	0.989400	0.662100
C291	C29	0.111200	0.864900	0.691100
H261	H26	0.178400	0.913700	0.752300
H271	H27	0.305600	0.181400	0.884400
C301	C30	0.309200	0.282300	0.952400
C311	C31	0.208500	0.360200	0.970200
H281	H28	0.138000	0.302300	0.915100
H291	H29	0.033100	0.391700	0.842100
H301	H30	0.983200	0.311100	0.822200
H311	H31	0.000200	0.011100	0.640000
C321	C32	0.057400	0.893000	0.656000
H321	H32	0.126300	0.800900	0.689000
H331	H33	0.352800	0.272700	0.962200
C331	C33	0.273800	0.354200	0.985100
H341	H34	0.182200	0.405600	0.991200
H351	H35	0.035500	0.450600	0.737800
C341	C34	0.020500	0.820800	0.614800
C351	C35	0.306100	0.420100	0.033200
H361	H36	0.048400	0.766000	0.603800
H371	H37	0.007000	0.852000	0.574900
C361	C36	0.961500	0.784400	0.651500
H381	H38	0.333600	0.381400	0.061300
H391	H39	0.273200	0.451100	0.059900
H401	H40	0.933700	0.839800	0.661000
H411	H41	0.975700	0.757000	0.692400
C371	C37	0.921700	0.707200	0.615400
H421	H42	0.373800	0.535900	0.028900
C381	C38	0.862000	0.680700	0.654500
H431	H43	0.908700	0.732500	0.573600
H441	H44	0.947900	0.649200	0.608400
C391	C39	0.808300	0.734500	0.653500
C401	C40	0.862200	0.605700	0.696800
C411	C41	0.758300	0.718300	0.695700
H451	H45	0.804700	0.784600	0.623400
H461	H46	0.896900	0.562300	0.698300
C421	C42	0.810600	0.594500	0.737500
H471	H47	0.722600	0.759700	0.694400
N61	N6	0.758700	0.647500	0.737300
H481	H48	0.812900	0.544500	0.768000
Cd31	Cd3	0.328110	0.372560	0.310440
O51	O5	0.425000	0.300100	0.331300
O61	O6	0.381000	0.206800	0.257300
N71	N7	0.377600	0.474200	0.234400
N81	N8	0.282500	0.267700	0.390900
C431	C43	0.424900	0.222900	0.296200
C441	C44	0.429600	0.448700	0.200400
C451	C45	0.358000	0.566800	0.229100
C461	C46	0.219800	0.273400	0.406500
C471	C47	0.317800	0.202000	0.423800
C481	C48	0.479400	0.152200	0.307400
H491	H49	0.443700	0.384300	0.203200
C491	C49	0.463300	0.510600	0.162100
C501	C50	0.388800	0.635100	0.191100
H501	H50	0.321600	0.586300	0.252300
H511	H51	0.194400	0.318600	0.384400
C511	C51	0.190800	0.217700	0.452400
C521	C52	0.291500	0.139800	0.470200
H521	H52	0.362000	0.197700	0.415100
H531	H53	0.466900	0.108300	0.342100
H541	H54	0.516800	0.188900	0.322200
H551	H55	0.499800	0.488900	0.140000
C531	C53	0.442600	0.607000	0.156000
H561	H56	0.373700	0.699100	0.189000
H571	H57	0.147200	0.227300	0.462200
C541	C54	0.226200	0.145800	0.485100
H581	H58	0.317800	0.094400	0.491200
H591	H59	0.464500	0.049400	0.237800
C551	C55	0.479500	0.679200	0.114800
C561	C56	0.193900	0.079900	0.533200
H601	H60	0.451600	0.734000	0.103800
H611	H61	0.493000	0.648000	0.074900
C571	C57	0.538500	0.715600	0.151500
H621	H62	0.166400	0.118600	0.561300
H631	H63	0.226800	0.048900	0.559900
H641	H64	0.566300	0.660200	0.161000
H651	H65	0.524300	0.743000	0.192400
C581	C58	0.578300	0.792800	0.115400
H661	H66	0.126200	0.964100	0.528900
C591	C59	0.638000	0.819300	0.154500
H671	H67	0.591300	0.767500	0.073600
H681	H68	0.552100	0.850800	0.108400
C601	C60	0.691700	0.765500	0.153500
C611	C61	0.637800	0.894300	0.196800
C621	C62	0.741700	0.781700	0.195700
H691	H69	0.695300	0.715400	0.123400
H701	H70	0.603100	0.937700	0.198300
C631	C63	0.689400	0.905500	0.237500
H711	H71	0.777400	0.740300	0.194400
N91	N9	0.741300	0.852500	0.237300
H721	H72	0.687100	0.955500	0.268000
Cd41	Cd4	0.828110	0.872560	0.310440
O71	O7	0.925000	0.800100	0.331300
O81	O8	0.881000	0.706800	0.257300
N101	N10	0.877600	0.974200	0.234400
N111	N11	0.782500	0.767700	0.390900
C641	C64	0.924900	0.722900	0.296200
C651	C65	0.929600	0.948700	0.200400
C661	C66	0.858000	0.066800	0.229100
C671	C67	0.719800	0.773400	0.406500
C681	C68	0.817800	0.702000	0.423800
C691	C69	0.979400	0.652200	0.307400
H731	H73	0.943700	0.884300	0.203200
C701	C70	0.963300	0.010600	0.162100
C711	C71	0.888800	0.135100	0.191100
H741	H74	0.821600	0.086300	0.252300
H751	H75	0.694400	0.818600	0.384400
C721	C72	0.690800	0.717700	0.452400
C731	C73	0.791500	0.639800	0.470200
H761	H76	0.862000	0.697700	0.415100
H771	H77	0.966900	0.608300	0.342100
H781	H78	0.016800	0.688900	0.322200
H791	H79	0.999800	0.988900	0.140000
C741	C74	0.942600	0.107000	0.156000
H801	H80	0.873700	0.199100	0.189000
H811	H81	0.647200	0.727300	0.462200
C751	C75	0.726200	0.645800	0.485100
H821	H82	0.817800	0.594400	0.491200
H831	H83	0.964500	0.549400	0.237800
C761	C76	0.979500	0.179200	0.114800
C771	C77	0.693900	0.579900	0.533200
H841	H84	0.951600	0.234000	0.103800
H851	H85	0.993000	0.148000	0.074900
C781	C78	0.038500	0.215600	0.151500
H861	H86	0.666400	0.618600	0.561300
H871	H87	0.726800	0.548900	0.559900
H881	H88	0.066300	0.160200	0.161000
H891	H89	0.024300	0.243000	0.192400
C791	C79	0.078300	0.292800	0.115400
H901	H90	0.626200	0.464100	0.528900
C801	C80	0.138000	0.319300	0.154500
H911	H91	0.091300	0.267500	0.073600
H921	H92	0.052100	0.350800	0.108400
C811	C81	0.191700	0.265500	0.153500
C821	C82	0.137800	0.394300	0.196800
C831	C83	0.241700	0.281700	0.195700
H931	H93	0.195300	0.215400	0.123400
H941	H94	0.103100	0.437700	0.198300
C841	C84	0.189400	0.405500	0.237500
H951	H95	0.277400	0.240300	0.194400
N121	N12	0.241300	0.352500	0.237300
H961	H96	0.187100	0.455500	0.268000
Cd51	Cd5	0.328110	0.627440	0.689560
O91	O9	0.425000	0.699900	0.668700
O101	O10	0.381000	0.793200	0.742700
N131	N13	0.377600	0.525800	0.765600
N141	N14	0.282500	0.732300	0.609100
C851	C85	0.424900	0.777100	0.703800
C861	C86	0.429600	0.551300	0.799600
C871	C87	0.358000	0.433200	0.770900
C881	C88	0.219800	0.726600	0.593500
C891	C89	0.317800	0.798000	0.576200
C901	C90	0.479400	0.847800	0.692600
H971	H97	0.443700	0.615700	0.796800
C911	C91	0.463300	0.489400	0.837900
C921	C92	0.388800	0.364900	0.808900
H981	H98	0.321600	0.413700	0.747700
H991	H99	0.194400	0.681400	0.615600
C931	C93	0.190800	0.782300	0.547600
C941	C94	0.291500	0.860200	0.529800
H1001	H100	0.362000	0.802300	0.584900
H1011	H101	0.466900	0.891700	0.657900
H1021	H102	0.516800	0.811100	0.677800
H1031	H103	0.499800	0.511100	0.860000
C951	C95	0.442600	0.393000	0.844000
H1041	H104	0.373700	0.300900	0.811000
H1051	H105	0.147200	0.772700	0.537800
C961	C96	0.226200	0.854200	0.514900
H1061	H106	0.317800	0.905600	0.508800
H1071	H107	0.464500	0.950600	0.762200
C971	C97	0.479500	0.320800	0.885200
C981	C98	0.193900	0.920100	0.466800
H1081	H108	0.451600	0.266000	0.896200
H1091	H109	0.493000	0.352000	0.925100
C991	C99	0.538500	0.284400	0.848500
H1101	H110	0.166400	0.881400	0.438700
H1111	H111	0.226800	0.951100	0.440100
H1121	H112	0.566300	0.339800	0.839000
H1131	H113	0.524300	0.257000	0.807600
C1001	C100	0.578300	0.207200	0.884600
H1141	H114	0.126200	0.035900	0.471100
C1011	C101	0.638000	0.180700	0.845500
H1151	H115	0.591300	0.232500	0.926400
H1161	H116	0.552100	0.149200	0.891600
C1021	C102	0.691700	0.234500	0.846500
C1031	C103	0.637800	0.105700	0.803200
C1041	C104	0.741700	0.218300	0.804300
H1171	H117	0.695300	0.284600	0.876600
H1181	H118	0.603100	0.062300	0.801700
C1051	C105	0.689400	0.094500	0.762500
H1191	H119	0.777400	0.259700	0.805600
N151	N15	0.741300	0.147500	0.762700
H1201	H120	0.687100	0.044500	0.732000
Cd61	Cd6	0.828110	0.127440	0.689560
O111	O11	0.925000	0.199900	0.668700
O121	O12	0.881000	0.293200	0.742700
N161	N16	0.877600	0.025800	0.765600
N171	N17	0.782500	0.232300	0.609100
C1061	C106	0.924900	0.277100	0.703800
C1071	C107	0.929600	0.051300	0.799600
C1081	C108	0.858000	0.933200	0.770900
C1091	C109	0.719800	0.226600	0.593500
C1101	C110	0.817800	0.298000	0.576200
C1111	C111	0.979400	0.347800	0.692600
H1211	H121	0.943700	0.115700	0.796800
C1121	C112	0.963300	0.989400	0.837900
C1131	C113	0.888800	0.864900	0.808900
H1221	H122	0.821600	0.913700	0.747700
H1231	H123	0.694400	0.181400	0.615600
C1141	C114	0.690800	0.282300	0.547600
C1151	C115	0.791500	0.360200	0.529800
H1241	H124	0.862000	0.302300	0.584900
H1251	H125	0.966900	0.391700	0.657900
H1261	H126	0.016800	0.311100	0.677800
H1271	H127	0.999800	0.011100	0.860000
C1161	C116	0.942600	0.893000	0.844000
H1281	H128	0.873700	0.800900	0.811000
H1291	H129	0.647200	0.272700	0.537800
C1171	C117	0.726200	0.354200	0.514900
H1301	H130	0.817800	0.405600	0.508800
H1311	H131	0.964500	0.450600	0.762200
C1181	C118	0.979500	0.820800	0.885200
C1191	C119	0.693900	0.420100	0.466800
H1321	H132	0.951600	0.766000	0.896200
H1331	H133	0.993000	0.852000	0.925100
C1201	C120	0.038500	0.784400	0.848500
H1341	H134	0.666400	0.381400	0.438700
H1351	H135	0.726800	0.451100	0.440100
H1361	H136	0.066300	0.839800	0.839000
H1371	H137	0.024300	0.757000	0.807600
C1211	C121	0.078300	0.707200	0.884600
H1381	H138	0.626200	0.535900	0.471100
C1221	C122	0.138000	0.680700	0.845500
H1391	H139	0.091300	0.732500	0.926400
H1401	H140	0.052100	0.649200	0.891600
C1231	C123	0.191700	0.734500	0.846500
C1241	C124	0.137800	0.605700	0.803200
C1251	C125	0.241700	0.718300	0.804300
H1411	H141	0.195300	0.784600	0.876600
H1421	H142	0.103100	0.562300	0.801700
C1261	C126	0.189400	0.594500	0.762500
H1431	H143	0.277400	0.759700	0.805600
N181	N18	0.241300	0.647500	0.762700
H1441	H144	0.187100	0.544500	0.732000
Cd71	Cd7	0.671890	0.372560	0.189560
O131	O13	0.575000	0.300100	0.168700
O141	O14	0.619000	0.206800	0.242700
N191	N19	0.622400	0.474200	0.265600
N201	N20	0.717500	0.267700	0.109100
C1271	C127	0.575100	0.222900	0.203800
C1281	C128	0.570400	0.448700	0.299600
C1291	C129	0.642000	0.566800	0.270900
C1301	C130	0.780200	0.273400	0.093500
C1311	C131	0.682200	0.202000	0.076200
C1321	C132	0.520600	0.152200	0.192600
H1451	H145	0.556300	0.384300	0.296800
C1331	C133	0.536700	0.510600	0.337900
C1341	C134	0.611200	0.635100	0.308900
H1461	H146	0.678400	0.586300	0.247700
H1471	H147	0.805600	0.318600	0.115600
C1351	C135	0.809200	0.217700	0.047600
C1361	C136	0.708500	0.139800	0.029800
H1481	H148	0.638000	0.197700	0.084900
H1491	H149	0.533100	0.108300	0.157900
H1501	H150	0.483200	0.188900	0.177800
H1511	H151	0.500200	0.488900	0.360000
C1371	C137	0.557400	0.607000	0.344000
H1521	H152	0.626300	0.699100	0.311000
H1531	H153	0.852800	0.227300	0.037800
C1381	C138	0.773800	0.145800	0.014900
H1541	H154	0.682200	0.094400	0.008800
H1551	H155	0.535500	0.049400	0.262200
C1391	C139	0.520500	0.679200	0.385200
C1401	C140	0.806100	0.079900	0.966800
H1561	H156	0.548400	0.734000	0.396200
H1571	H157	0.507000	0.648000	0.425100
C1411	C141	0.461500	0.715600	0.348500
H1581	H158	0.833600	0.118600	0.938700
H1591	H159	0.773200	0.048900	0.940100
H1601	H160	0.433700	0.660200	0.339000
H1611	H161	0.475700	0.743000	0.307600
C1421	C142	0.421700	0.792800	0.384600
H1621	H162	0.873800	0.964100	0.971100
C1431	C143	0.362000	0.819300	0.345500
H1631	H163	0.408700	0.767500	0.426400
H1641	H164	0.447900	0.850800	0.391600
C1441	C144	0.308300	0.765500	0.346500
C1451	C145	0.362200	0.894300	0.303200
C1461	C146	0.258300	0.781700	0.304300
H1651	H165	0.304700	0.715400	0.376600
H1661	H166	0.396900	0.937700	0.301700
C1471	C147	0.310600	0.905500	0.262500
H1671	H167	0.222600	0.740300	0.305600
N211	N21	0.258700	0.852500	0.262700
H1681	H168	0.312900	0.955500	0.232000
Cd81	Cd8	0.171890	0.872560	0.189560
O151	O15	0.075000	0.800100	0.168700
O161	O16	0.119000	0.706800	0.242700
N221	N22	0.122400	0.974200	0.265600
N231	N23	0.217500	0.767700	0.109100
C1481	C148	0.075100	0.722900	0.203800
C1491	C149	0.070400	0.948700	0.299600
C1501	C150	0.142000	0.066800	0.270900
C1511	C151	0.280200	0.773400	0.093500
C1521	C152	0.182200	0.702000	0.076200
C1531	C153	0.020600	0.652200	0.192600
H1691	H169	0.056300	0.884300	0.296800
C1541	C154	0.036700	0.010600	0.337900
C1551	C155	0.111200	0.135100	0.308900
H1701	H170	0.178400	0.086300	0.247700
H1711	H171	0.305600	0.818600	0.115600
C1561	C156	0.309200	0.717700	0.047600
C1571	C157	0.208500	0.639800	0.029800
H1721	H172	0.138000	0.697700	0.084900
H1731	H173	0.033100	0.608300	0.157900
H1741	H174	0.983200	0.688900	0.177800
H1751	H175	0.000200	0.988900	0.360000
C1581	C158	0.057400	0.107000	0.344000
H1761	H176	0.126300	0.199100	0.311000
H1771	H177	0.352800	0.727300	0.037800
C1591	C159	0.273800	0.645800	0.014900
H1781	H178	0.182200	0.594400	0.008800
H1791	H179	0.035500	0.549400	0.262200
C1601	C160	0.020500	0.179200	0.385200
C1611	C161	0.306100	0.579900	0.966800
H1801	H180	0.048400	0.234000	0.396200
H1811	H181	0.007000	0.148000	0.425100
C1621	C162	0.961500	0.215600	0.348500
H1821	H182	0.333600	0.618600	0.938700
H1831	H183	0.273200	0.548900	0.940100
H1841	H184	0.933700	0.160200	0.339000
H1851	H185	0.975700	0.243000	0.307600
C1631	C163	0.921700	0.292800	0.384600
H1861	H186	0.373800	0.464100	0.971100
C1641	C164	0.862000	0.319300	0.345500
H1871	H187	0.908700	0.267500	0.426400
H1881	H188	0.947900	0.350800	0.391600
C1651	C165	0.808300	0.265500	0.346500
C1661	C166	0.862200	0.394300	0.303200
C1671	C167	0.758300	0.281700	0.304300
H1891	H189	0.804700	0.215400	0.376600
H1901	H190	0.896900	0.437700	0.301700
C1681	C168	0.810600	0.405500	0.262500
H1911	H191	0.722600	0.240300	0.305600
N241	N24	0.758700	0.352500	0.262700
H1921	H192	0.812900	0.455500	0.232000
C1691	C169	0.500000	0.909200	0.750000
C1701	C170	0.000000	0.409200	0.750000
C1711	C171	0.500000	0.090800	0.250000
C1721	C172	0.000000	0.590800	0.250000
C1731	C173	0.847300	0.000000	0.000000
C1741	C174	0.347300	0.500000	0.000000
C1751	C175	0.152700	0.000000	0.500000
C1761	C176	0.652700	0.500000	0.500000
