data_RUYQIN_clean_PM
_symmetry_space_group_name_H-M	'P1'
_cell_length_a	24.184300
_cell_length_b	24.184300
_cell_length_c	13.021700
_cell_angle_alpha	90.000000
_cell_angle_beta	90.000000
_cell_angle_gamma	120.000000
_symmetry_Int_Tables_number 1

loop_
_symmetry_equiv_pos_as_xyz
'x,y,z'

loop_
_atom_site_label
_atom_site_type_symbol
_atom_site_fract_x
_atom_site_fract_y
_atom_site_fract_z
O11	O1	0.902920	0.298400	0.225300
O21	O2	0.951030	0.264280	0.330000
O31	O3	0.677700	0.768200	0.250200
C11	C1	0.725200	0.081900	0.321100
C21	C2	0.780900	0.087300	0.357600
H11	H1	0.780800	0.052800	0.389400
C31	C3	0.837300	0.144600	0.346400
H21	H2	0.874800	0.148300	0.372400
C41	C4	0.839600	0.195000	0.299400
C51	C5	0.784800	0.188300	0.262000
H31	H3	0.785900	0.222800	0.228400
C61	C6	0.726300	0.131800	0.271300
H41	H4	0.689200	0.128400	0.244300
C71	C7	0.900900	0.257500	0.285300
C81	C8	0.699600	0.952000	0.255400
H51	H5	0.721800	0.982300	0.204800
C91	C9	0.698500	0.893500	0.255100
H61	H6	0.718800	0.884000	0.203000
O41	O4	0.569590	0.631730	0.558630
O51	O5	0.617700	0.597610	0.663330
O61	O6	0.344370	0.101530	0.583530
C101	C10	0.391870	0.415230	0.654430
C111	C11	0.447570	0.420630	0.690930
H71	H7	0.447470	0.386130	0.722730
C121	C12	0.503970	0.477930	0.679730
H81	H8	0.541470	0.481630	0.705730
C131	C13	0.506270	0.528330	0.632730
C141	C14	0.451470	0.521630	0.595330
H91	H9	0.452570	0.556130	0.561730
C151	C15	0.392970	0.465130	0.604630
H101	H10	0.355870	0.461730	0.577630
C161	C16	0.567570	0.590830	0.618630
C171	C17	0.366270	0.285330	0.588730
H111	H11	0.388470	0.315630	0.538130
C181	C18	0.365170	0.226830	0.588430
H121	H12	0.385470	0.217330	0.536330
O71	O7	0.236250	0.965070	0.891970
O81	O8	0.284360	0.930950	0.996670
O91	O9	0.011030	0.434870	0.916870
C191	C19	0.058530	0.748570	0.987770
C201	C20	0.114230	0.753970	0.024270
H131	H13	0.114130	0.719470	0.056070
C211	C21	0.170630	0.811270	0.013070
H141	H14	0.208130	0.814970	0.039070
C221	C22	0.172930	0.861670	0.966070
C231	C23	0.118130	0.854970	0.928670
H151	H15	0.119230	0.889470	0.895070
C241	C24	0.059630	0.798470	0.937970
H161	H16	0.022530	0.795070	0.910970
C251	C25	0.234230	0.924170	0.951970
C261	C26	0.032930	0.618670	0.922070
H171	H17	0.055130	0.648970	0.871470
C271	C27	0.031830	0.560170	0.921770
H181	H18	0.052130	0.550670	0.869670
O101	O10	0.701600	0.604520	0.225300
O111	O11	0.735720	0.686750	0.330000
O121	O12	0.231800	0.909500	0.250200
C281	C28	0.918100	0.643300	0.321100
C291	C29	0.912700	0.693600	0.357600
H191	H19	0.947200	0.728000	0.389400
C301	C30	0.855400	0.692700	0.346400
H201	H20	0.851700	0.726500	0.372400
C311	C31	0.805000	0.644600	0.299400
C321	C32	0.811700	0.596500	0.262000
H211	H21	0.777200	0.563100	0.228400
C331	C33	0.868200	0.594500	0.271300
H221	H22	0.871600	0.560800	0.244300
C341	C34	0.742500	0.643400	0.285300
C351	C35	0.048000	0.747600	0.255400
H231	H23	0.017700	0.739500	0.204800
C361	C36	0.106500	0.805000	0.255100
H241	H24	0.116000	0.834800	0.203000
O131	O13	0.368270	0.937850	0.558630
O141	O14	0.402390	0.020080	0.663330
O151	O15	0.898470	0.242830	0.583530
C371	C37	0.584770	0.976630	0.654430
C381	C38	0.579370	0.026930	0.690930
H251	H25	0.613870	0.061330	0.722730
C391	C39	0.522070	0.026030	0.679730
H261	H26	0.518370	0.059830	0.705730
C401	C40	0.471670	0.977930	0.632730
C411	C41	0.478370	0.929830	0.595330
H271	H27	0.443870	0.896430	0.561730
C421	C42	0.534870	0.927830	0.604630
H281	H28	0.538270	0.894130	0.577630
C431	C43	0.409170	0.976730	0.618630
C441	C44	0.714670	0.080930	0.588730
H291	H29	0.684370	0.072830	0.538130
C451	C45	0.773170	0.138330	0.588430
H301	H30	0.782670	0.168130	0.536330
O161	O16	0.034930	0.271190	0.891970
O171	O17	0.069050	0.353420	0.996670
O181	O18	0.565130	0.576170	0.916870
C461	C46	0.251430	0.309970	0.987770
C471	C47	0.246030	0.360270	0.024270
H311	H31	0.280530	0.394670	0.056070
C481	C48	0.188730	0.359370	0.013070
H321	H32	0.185030	0.393170	0.039070
C491	C49	0.138330	0.311270	0.966070
C501	C50	0.145030	0.263170	0.928670
H331	H33	0.110530	0.229770	0.895070
C511	C51	0.201530	0.261170	0.937970
H341	H34	0.204930	0.227470	0.910970
C521	C52	0.075830	0.310070	0.951970
C531	C53	0.381330	0.414270	0.922070
H351	H35	0.351030	0.406170	0.871470
C541	C54	0.439830	0.471670	0.921770
H361	H36	0.449330	0.501470	0.869670
O191	O19	0.395480	0.097080	0.225300
O201	O20	0.313250	0.048970	0.330000
O211	O21	0.090500	0.322300	0.250200
C551	C55	0.356700	0.274800	0.321100
C561	C56	0.306400	0.219100	0.357600
H371	H37	0.272000	0.219200	0.389400
C571	C57	0.307300	0.162700	0.346400
H381	H38	0.273500	0.125200	0.372400
C581	C58	0.355400	0.160400	0.299400
C591	C59	0.403500	0.215200	0.262000
H391	H39	0.436900	0.214100	0.228400
C601	C60	0.405500	0.273700	0.271300
H401	H40	0.439200	0.310800	0.244300
C611	C61	0.356600	0.099100	0.285300
C621	C62	0.252400	0.300400	0.255400
H411	H41	0.260500	0.278200	0.204800
C631	C63	0.195000	0.301500	0.255100
H421	H42	0.165200	0.281200	0.203000
O221	O22	0.062150	0.430410	0.558630
O231	O23	0.979920	0.382300	0.663330
O241	O24	0.757170	0.655630	0.583530
C641	C64	0.023370	0.608130	0.654430
C651	C65	0.973070	0.552430	0.690930
H431	H43	0.938670	0.552530	0.722730
C661	C66	0.973970	0.496030	0.679730
H441	H44	0.940170	0.458530	0.705730
C671	C67	0.022070	0.493730	0.632730
C681	C68	0.070170	0.548530	0.595330
H451	H45	0.103570	0.547430	0.561730
C691	C69	0.072170	0.607030	0.604630
H461	H46	0.105870	0.644130	0.577630
C701	C70	0.023270	0.432430	0.618630
C711	C71	0.919070	0.633730	0.588730
H471	H47	0.927170	0.611530	0.538130
C721	C72	0.861670	0.634830	0.588430
H481	H48	0.831870	0.614530	0.536330
O251	O25	0.728810	0.763750	0.891970
O261	O26	0.646580	0.715640	0.996670
O271	O27	0.423830	0.988970	0.916870
C731	C73	0.690030	0.941470	0.987770
C741	C74	0.639730	0.885770	0.024270
H491	H49	0.605330	0.885870	0.056070
C751	C75	0.640630	0.829370	0.013070
H501	H50	0.606830	0.791870	0.039070
C761	C76	0.688730	0.827070	0.966070
C771	C77	0.736830	0.881870	0.928670
H511	H51	0.770230	0.880770	0.895070
C781	C78	0.738830	0.940370	0.937970
H521	H52	0.772530	0.977470	0.910970
C791	C79	0.689930	0.765770	0.951970
C801	C80	0.585730	0.967070	0.922070
H531	H53	0.593830	0.944870	0.871470
C811	C81	0.528330	0.968170	0.921770
H541	H54	0.498530	0.947870	0.869670
O281	O28	0.298400	0.902920	0.774700
O291	O29	0.264280	0.951030	0.670000
O301	O30	0.768200	0.677700	0.749800
C821	C82	0.081900	0.725200	0.678900
C831	C83	0.087300	0.780900	0.642400
H551	H55	0.052800	0.780800	0.610600
C841	C84	0.144600	0.837300	0.653600
H561	H56	0.148300	0.874800	0.627600
C851	C85	0.195000	0.839600	0.700600
C861	C86	0.188300	0.784800	0.738000
H571	H57	0.222800	0.785900	0.771600
C871	C87	0.131800	0.726300	0.728700
H581	H58	0.128400	0.689200	0.755700
C881	C88	0.257500	0.900900	0.714700
C891	C89	0.952000	0.699600	0.744600
H591	H59	0.982300	0.721800	0.795200
C901	C90	0.893500	0.698500	0.744900
H601	H60	0.884000	0.718800	0.797000
O311	O31	0.965070	0.236250	0.108030
O321	O32	0.930950	0.284360	0.003330
O331	O33	0.434870	0.011030	0.083130
C911	C91	0.748570	0.058530	0.012230
C921	C92	0.753970	0.114230	0.975730
H611	H61	0.719470	0.114130	0.943930
C931	C93	0.811270	0.170630	0.986930
H621	H62	0.814970	0.208130	0.960930
C941	C94	0.861670	0.172930	0.033930
C951	C95	0.854970	0.118130	0.071330
H631	H63	0.889470	0.119230	0.104930
C961	C96	0.798470	0.059630	0.062030
H641	H64	0.795070	0.022530	0.089030
C971	C97	0.924170	0.234230	0.048030
C981	C98	0.618670	0.032930	0.077930
H651	H65	0.648970	0.055130	0.128530
C991	C99	0.560170	0.031830	0.078230
H661	H66	0.550670	0.052130	0.130330
O341	O34	0.631730	0.569590	0.441370
O351	O35	0.597610	0.617700	0.336670
O361	O36	0.101530	0.344370	0.416470
C1001	C100	0.415230	0.391870	0.345570
C1011	C101	0.420630	0.447570	0.309070
H671	H67	0.386130	0.447470	0.277270
C1021	C102	0.477930	0.503970	0.320270
H681	H68	0.481630	0.541470	0.294270
C1031	C103	0.528330	0.506270	0.367270
C1041	C104	0.521630	0.451470	0.404670
H691	H69	0.556130	0.452570	0.438270
C1051	C105	0.465130	0.392970	0.395370
H701	H70	0.461730	0.355870	0.422370
C1061	C106	0.590830	0.567570	0.381370
C1071	C107	0.285330	0.366270	0.411270
H711	H71	0.315630	0.388470	0.461870
C1081	C108	0.226830	0.365170	0.411570
H721	H72	0.217330	0.385470	0.463670
O371	O37	0.604520	0.701600	0.774700
O381	O38	0.686750	0.735720	0.670000
O391	O39	0.909500	0.231800	0.749800
C1091	C109	0.643300	0.918100	0.678900
C1101	C110	0.693600	0.912700	0.642400
H731	H73	0.728000	0.947200	0.610600
C1111	C111	0.692700	0.855400	0.653600
H741	H74	0.726500	0.851700	0.627600
C1121	C112	0.644600	0.805000	0.700600
C1131	C113	0.596500	0.811700	0.738000
H751	H75	0.563100	0.777200	0.771600
C1141	C114	0.594500	0.868200	0.728700
H761	H76	0.560800	0.871600	0.755700
C1151	C115	0.643400	0.742500	0.714700
C1161	C116	0.747600	0.048000	0.744600
H771	H77	0.739500	0.017700	0.795200
C1171	C117	0.805000	0.106500	0.744900
H781	H78	0.834800	0.116000	0.797000
O401	O40	0.271190	0.034930	0.108030
O411	O41	0.353420	0.069050	0.003330
O421	O42	0.576170	0.565130	0.083130
C1181	C118	0.309970	0.251430	0.012230
C1191	C119	0.360270	0.246030	0.975730
H791	H79	0.394670	0.280530	0.943930
C1201	C120	0.359370	0.188730	0.986930
H801	H80	0.393170	0.185030	0.960930
C1211	C121	0.311270	0.138330	0.033930
C1221	C122	0.263170	0.145030	0.071330
H811	H81	0.229770	0.110530	0.104930
C1231	C123	0.261170	0.201530	0.062030
H821	H82	0.227470	0.204930	0.089030
C1241	C124	0.310070	0.075830	0.048030
C1251	C125	0.414270	0.381330	0.077930
H831	H83	0.406170	0.351030	0.128530
C1261	C126	0.471670	0.439830	0.078230
H841	H84	0.501470	0.449330	0.130330
O431	O43	0.937850	0.368270	0.441370
O441	O44	0.020080	0.402390	0.336670
O451	O45	0.242830	0.898470	0.416470
C1271	C127	0.976630	0.584770	0.345570
C1281	C128	0.026930	0.579370	0.309070
H851	H85	0.061330	0.613870	0.277270
C1291	C129	0.026030	0.522070	0.320270
H861	H86	0.059830	0.518370	0.294270
C1301	C130	0.977930	0.471670	0.367270
C1311	C131	0.929830	0.478370	0.404670
H871	H87	0.896430	0.443870	0.438270
C1321	C132	0.927830	0.534870	0.395370
H881	H88	0.894130	0.538270	0.422370
C1331	C133	0.976730	0.409170	0.381370
C1341	C134	0.080930	0.714670	0.411270
H891	H89	0.072830	0.684370	0.461870
C1351	C135	0.138330	0.773170	0.411570
H901	H90	0.168130	0.782670	0.463670
O461	O46	0.097080	0.395480	0.774700
O471	O47	0.048970	0.313250	0.670000
O481	O48	0.322300	0.090500	0.749800
C1361	C136	0.274800	0.356700	0.678900
C1371	C137	0.219100	0.306400	0.642400
H911	H91	0.219200	0.272000	0.610600
C1381	C138	0.162700	0.307300	0.653600
H921	H92	0.125200	0.273500	0.627600
C1391	C139	0.160400	0.355400	0.700600
C1401	C140	0.215200	0.403500	0.738000
H931	H93	0.214100	0.436900	0.771600
C1411	C141	0.273700	0.405500	0.728700
H941	H94	0.310800	0.439200	0.755700
C1421	C142	0.099100	0.356600	0.714700
C1431	C143	0.300400	0.252400	0.744600
H951	H95	0.278200	0.260500	0.795200
C1441	C144	0.301500	0.195000	0.744900
H961	H96	0.281200	0.165200	0.797000
O491	O49	0.763750	0.728810	0.108030
O501	O50	0.715640	0.646580	0.003330
O511	O51	0.988970	0.423830	0.083130
C1451	C145	0.941470	0.690030	0.012230
C1461	C146	0.885770	0.639730	0.975730
H971	H97	0.885870	0.605330	0.943930
C1471	C147	0.829370	0.640630	0.986930
H981	H98	0.791870	0.606830	0.960930
C1481	C148	0.827070	0.688730	0.033930
C1491	C149	0.881870	0.736830	0.071330
H991	H99	0.880770	0.770230	0.104930
C1501	C150	0.940370	0.738830	0.062030
H1001	H100	0.977470	0.772530	0.089030
C1511	C151	0.765770	0.689930	0.048030
C1521	C152	0.967070	0.585730	0.077930
H1011	H101	0.944870	0.593830	0.128530
C1531	C153	0.968170	0.528330	0.078230
H1021	H102	0.947870	0.498530	0.130330
O521	O52	0.430410	0.062150	0.441370
O531	O53	0.382300	0.979920	0.336670
O541	O54	0.655630	0.757170	0.416470
C1541	C154	0.608130	0.023370	0.345570
C1551	C155	0.552430	0.973070	0.309070
H1031	H103	0.552530	0.938670	0.277270
C1561	C156	0.496030	0.973970	0.320270
H1041	H104	0.458530	0.940170	0.294270
C1571	C157	0.493730	0.022070	0.367270
C1581	C158	0.548530	0.070170	0.404670
H1051	H105	0.547430	0.103570	0.438270
C1591	C159	0.607030	0.072170	0.395370
H1061	H106	0.644130	0.105870	0.422370
C1601	C160	0.432430	0.023270	0.381370
C1611	C161	0.633730	0.919070	0.411270
H1071	H107	0.611530	0.927170	0.461870
C1621	C162	0.634830	0.861670	0.411570
H1081	H108	0.614530	0.831870	0.463670
La11	La1	0.018230	0.351570	0.166670
La21	La2	0.684900	0.684900	0.500000
La31	La3	0.648430	0.666670	0.166670
La41	La4	0.315100	0.000000	0.500000
La51	La5	0.333330	0.981770	0.166670
La61	La6	0.000000	0.315100	0.500000
La71	La7	0.351570	0.018230	0.833330
La81	La8	0.666670	0.648430	0.833330
La91	La9	0.981770	0.333330	0.833330
N11	N1	0.666670	0.023980	0.333330
C1631	C163	0.666670	0.964580	0.333330
C1641	C164	0.666670	0.849480	0.333330
C1651	C165	0.666670	0.786580	0.333330
N21	N2	0.976020	0.642680	0.333330
C1661	C166	0.035420	0.702080	0.333330
C1671	C167	0.150520	0.817180	0.333330
C1681	C168	0.213420	0.880080	0.333330
N31	N3	0.357320	0.333330	0.333330
C1691	C169	0.297920	0.333330	0.333330
C1701	C170	0.182820	0.333330	0.333330
C1711	C171	0.119920	0.333330	0.333330
N41	N4	0.023980	0.666670	0.666670
C1721	C172	0.964580	0.666670	0.666670
C1731	C173	0.849480	0.666670	0.666670
C1741	C174	0.786580	0.666670	0.666670
N51	N5	0.690650	0.000000	0.000000
C1751	C175	0.631250	0.000000	0.000000
C1761	C176	0.516150	0.000000	0.000000
C1771	C177	0.453250	0.000000	0.000000
N61	N6	0.642680	0.976020	0.666670
C1781	C178	0.702080	0.035420	0.666670
C1791	C179	0.817180	0.150520	0.666670
C1801	C180	0.880080	0.213420	0.666670
N71	N7	0.309350	0.309350	0.000000
C1811	C181	0.368750	0.368750	0.000000
C1821	C182	0.483850	0.483850	0.000000
C1831	C183	0.546750	0.546750	0.000000
N81	N8	0.333330	0.357320	0.666670
C1841	C184	0.333330	0.297920	0.666670
C1851	C185	0.333330	0.182820	0.666670
C1861	C186	0.333330	0.119920	0.666670
N91	N9	0.000000	0.690650	0.000000
C1871	C187	0.000000	0.631250	0.000000
C1881	C188	0.000000	0.516150	0.000000
C1891	C189	0.000000	0.453250	0.000000
