data_RUYQIN01_clean_PM
_symmetry_space_group_name_H-M	'P1'
_cell_length_a	24.197000
_cell_length_b	24.197000
_cell_length_c	13.142600
_cell_angle_alpha	90.000000
_cell_angle_beta	90.000000
_cell_angle_gamma	120.000000
_symmetry_Int_Tables_number 1

loop_
_symmetry_equiv_pos_as_xyz
'x,y,z'

loop_
_atom_site_label
_atom_site_type_symbol
_atom_site_fract_x
_atom_site_fract_y
_atom_site_fract_z
O11	O1	0.764260	0.035600	0.108400
O21	O2	0.715590	0.069530	0.001700
O31	O3	0.993600	0.567500	0.084200
C11	C1	0.941600	0.252200	0.012400
C21	C2	0.884400	0.246700	0.976100
H11	H1	0.884400	0.281200	0.945400
C31	C3	0.827500	0.188500	0.986800
H21	H2	0.790100	0.184900	0.961300
C41	C4	0.825300	0.137900	0.032800
C51	C5	0.940600	0.200200	0.062300
H31	H3	0.977800	0.203700	0.088400
C61	C6	0.882100	0.143000	0.072100
H41	H4	0.880700	0.108200	0.104600
C71	C7	0.766100	0.076300	0.048600
C81	C8	0.972700	0.384000	0.078900
H51	H5	0.953000	0.355000	0.131500
C91	C9	0.974700	0.441800	0.079800
H61	H6	0.958600	0.452800	0.135500
O41	O4	0.430930	0.368930	0.441730
O51	O5	0.382260	0.402860	0.335030
O61	O6	0.660270	0.900830	0.417530
C101	C10	0.608270	0.585530	0.345730
C111	C11	0.551070	0.580030	0.309430
H71	H7	0.551070	0.614530	0.278730
C121	C12	0.494170	0.521830	0.320130
H81	H8	0.456770	0.518230	0.294630
C131	C13	0.491970	0.471230	0.366130
C141	C14	0.607270	0.533530	0.395630
H91	H9	0.644470	0.537030	0.421730
C151	C15	0.548770	0.476330	0.405430
H101	H10	0.547370	0.441530	0.437930
C161	C16	0.432770	0.409630	0.381930
C171	C17	0.639370	0.717330	0.412230
H111	H11	0.619670	0.688330	0.464830
C181	C18	0.641370	0.775130	0.413130
H121	H12	0.625270	0.786130	0.468830
O71	O7	0.097590	0.702270	0.775070
O81	O8	0.048920	0.736200	0.668370
O91	O9	0.326930	0.234170	0.750870
C191	C19	0.274930	0.918870	0.679070
C201	C20	0.217730	0.913370	0.642770
H131	H13	0.217730	0.947870	0.612070
C211	C21	0.160830	0.855170	0.653470
H141	H14	0.123430	0.851570	0.627970
C221	C22	0.158630	0.804570	0.699470
C231	C23	0.273930	0.866870	0.728970
H151	H15	0.311130	0.870370	0.755070
C241	C24	0.215430	0.809670	0.738770
H161	H16	0.214030	0.774870	0.771270
C251	C25	0.099430	0.742970	0.715270
C261	C26	0.306030	0.050670	0.745570
H171	H17	0.286330	0.021670	0.798170
C271	C27	0.308030	0.108470	0.746470
H181	H18	0.291930	0.119470	0.802170
O101	O10	0.964400	0.728660	0.108400
O111	O11	0.930470	0.646060	0.001700
O121	O12	0.432500	0.426100	0.084200
C281	C28	0.747800	0.689400	0.012400
C291	C29	0.753300	0.637700	0.976100
H191	H19	0.718800	0.603200	0.945400
C301	C30	0.811500	0.639000	0.986800
H201	H20	0.815100	0.605200	0.961300
C311	C31	0.862100	0.687400	0.032800
C321	C32	0.799800	0.740400	0.062300
H211	H21	0.796300	0.774100	0.088400
C331	C33	0.857000	0.739100	0.072100
H221	H22	0.891800	0.772500	0.104600
C341	C34	0.923700	0.689800	0.048600
C351	C35	0.616000	0.588700	0.078900
H231	H23	0.645000	0.598000	0.131500
C361	C36	0.558200	0.532900	0.079800
H241	H24	0.547200	0.505800	0.135500
O131	O13	0.631070	0.061990	0.441730
O141	O14	0.597140	0.979390	0.335030
O151	O15	0.099170	0.759430	0.417530
C371	C37	0.414470	0.022730	0.345730
C381	C38	0.419970	0.971030	0.309430
H251	H25	0.385470	0.936530	0.278730
C391	C39	0.478170	0.972330	0.320130
H261	H26	0.481770	0.938530	0.294630
C401	C40	0.528770	0.020730	0.366130
C411	C41	0.466470	0.073730	0.395630
H271	H27	0.462970	0.107430	0.421730
C421	C42	0.523670	0.072430	0.405430
H281	H28	0.558470	0.105830	0.437930
C431	C43	0.590370	0.023130	0.381930
C441	C44	0.282670	0.922030	0.412230
H291	H29	0.311670	0.931330	0.464830
C451	C45	0.224870	0.866230	0.413130
H301	H30	0.213870	0.839130	0.468830
O161	O16	0.297730	0.395330	0.775070
O171	O17	0.263800	0.312730	0.668370
O181	O18	0.765830	0.092770	0.750870
C461	C46	0.081130	0.356070	0.679070
C471	C47	0.086630	0.304370	0.642770
H311	H31	0.052130	0.269870	0.612070
C481	C48	0.144830	0.305670	0.653470
H321	H32	0.148430	0.271870	0.627970
C491	C49	0.195430	0.354070	0.699470
C501	C50	0.133130	0.407070	0.728970
H331	H33	0.129630	0.440770	0.755070
C511	C51	0.190330	0.405770	0.738770
H341	H34	0.225130	0.439170	0.771270
C521	C52	0.257030	0.356470	0.715270
C531	C53	0.949330	0.255370	0.745570
H351	H35	0.978330	0.264670	0.798170
C541	C54	0.891530	0.199570	0.746470
H361	H36	0.880530	0.172470	0.802170
O191	O19	0.271340	0.235740	0.108400
O201	O20	0.353940	0.284410	0.001700
O211	O21	0.573900	0.006400	0.084200
C551	C55	0.310600	0.058400	0.012400
C561	C56	0.362300	0.115600	0.976100
H371	H37	0.396800	0.115600	0.945400
C571	C57	0.361000	0.172500	0.986800
H381	H38	0.394800	0.209900	0.961300
C581	C58	0.312600	0.174700	0.032800
C591	C59	0.259600	0.059400	0.062300
H391	H39	0.225900	0.022200	0.088400
C601	C60	0.260900	0.117900	0.072100
H401	H40	0.227500	0.119300	0.104600
C611	C61	0.310200	0.233900	0.048600
C621	C62	0.411300	0.027300	0.078900
H411	H41	0.402000	0.047000	0.131500
C631	C63	0.467100	0.025300	0.079800
H421	H42	0.494200	0.041400	0.135500
O221	O22	0.938010	0.569070	0.441730
O231	O23	0.020610	0.617740	0.335030
O241	O24	0.240570	0.339730	0.417530
C641	C64	0.977270	0.391730	0.345730
C651	C65	0.028970	0.448930	0.309430
H431	H43	0.063470	0.448930	0.278730
C661	C66	0.027670	0.505830	0.320130
H441	H44	0.061470	0.543230	0.294630
C671	C67	0.979270	0.508030	0.366130
C681	C68	0.926270	0.392730	0.395630
H451	H45	0.892570	0.355530	0.421730
C691	C69	0.927570	0.451230	0.405430
H461	H46	0.894170	0.452630	0.437930
C701	C70	0.976870	0.567230	0.381930
C711	C71	0.077970	0.360630	0.412230
H471	H47	0.068670	0.380330	0.464830
C721	C72	0.133770	0.358630	0.413130
H481	H48	0.160870	0.374730	0.468830
O251	O25	0.604670	0.902410	0.775070
O261	O26	0.687270	0.951080	0.668370
O271	O27	0.907230	0.673070	0.750870
C731	C73	0.643930	0.725070	0.679070
C741	C74	0.695630	0.782270	0.642770
H491	H49	0.730130	0.782270	0.612070
C751	C75	0.694330	0.839170	0.653470
H501	H50	0.728130	0.876570	0.627970
C761	C76	0.645930	0.841370	0.699470
C771	C77	0.592930	0.726070	0.728970
H511	H51	0.559230	0.688870	0.755070
C781	C78	0.594230	0.784570	0.738770
H521	H52	0.560830	0.785970	0.771270
C791	C79	0.643530	0.900570	0.715270
C801	C80	0.744630	0.693970	0.745570
H531	H53	0.735330	0.713670	0.798170
C811	C81	0.800430	0.691970	0.746470
H541	H54	0.827530	0.708070	0.802170
O281	O28	0.035600	0.764260	0.891600
O291	O29	0.069530	0.715590	0.998300
O301	O30	0.567500	0.993600	0.915800
C821	C82	0.252200	0.941600	0.987600
C831	C83	0.246700	0.884400	0.023900
H551	H55	0.281200	0.884400	0.054600
C841	C84	0.188500	0.827500	0.013200
H561	H56	0.184900	0.790100	0.038700
C851	C85	0.137900	0.825300	0.967200
C861	C86	0.200200	0.940600	0.937700
H571	H57	0.203700	0.977800	0.911600
C871	C87	0.143000	0.882100	0.927900
H581	H58	0.108200	0.880700	0.895400
C881	C88	0.076300	0.766100	0.951400
C891	C89	0.384000	0.972700	0.921100
H591	H59	0.355000	0.953000	0.868500
C901	C90	0.441800	0.974700	0.920200
H601	H60	0.452800	0.958600	0.864500
O311	O31	0.702270	0.097590	0.224930
O321	O32	0.736200	0.048920	0.331630
O331	O33	0.234170	0.326930	0.249130
C911	C91	0.918870	0.274930	0.320930
C921	C92	0.913370	0.217730	0.357230
H611	H61	0.947870	0.217730	0.387930
C931	C93	0.855170	0.160830	0.346530
H621	H62	0.851570	0.123430	0.372030
C941	C94	0.804570	0.158630	0.300530
C951	C95	0.866870	0.273930	0.271030
H631	H63	0.870370	0.311130	0.244930
C961	C96	0.809670	0.215430	0.261230
H641	H64	0.774870	0.214030	0.228730
C971	C97	0.742970	0.099430	0.284730
C981	C98	0.050670	0.306030	0.254430
H651	H65	0.021670	0.286330	0.201830
C991	C99	0.108470	0.308030	0.253530
H661	H66	0.119470	0.291930	0.197830
O341	O34	0.368930	0.430930	0.558270
O351	O35	0.402860	0.382260	0.664970
O361	O36	0.900830	0.660270	0.582470
C1001	C100	0.585530	0.608270	0.654270
C1011	C101	0.580030	0.551070	0.690570
H671	H67	0.614530	0.551070	0.721270
C1021	C102	0.521830	0.494170	0.679870
H681	H68	0.518230	0.456770	0.705370
C1031	C103	0.471230	0.491970	0.633870
C1041	C104	0.533530	0.607270	0.604370
H691	H69	0.537030	0.644470	0.578270
C1051	C105	0.476330	0.548770	0.594570
H701	H70	0.441530	0.547370	0.562070
C1061	C106	0.409630	0.432770	0.618070
C1071	C107	0.717330	0.639370	0.587770
H711	H71	0.688330	0.619670	0.535170
C1081	C108	0.775130	0.641370	0.586870
H721	H72	0.786130	0.625270	0.531170
O371	O37	0.728660	0.964400	0.891600
O381	O38	0.646060	0.930470	0.998300
O391	O39	0.426100	0.432500	0.915800
C1091	C109	0.689400	0.747800	0.987600
C1101	C110	0.637700	0.753300	0.023900
H731	H73	0.603200	0.718800	0.054600
C1111	C111	0.639000	0.811500	0.013200
H741	H74	0.605200	0.815100	0.038700
C1121	C112	0.687400	0.862100	0.967200
C1131	C113	0.740400	0.799800	0.937700
H751	H75	0.774100	0.796300	0.911600
C1141	C114	0.739100	0.857000	0.927900
H761	H76	0.772500	0.891800	0.895400
C1151	C115	0.689800	0.923700	0.951400
C1161	C116	0.588700	0.616000	0.921100
H771	H77	0.598000	0.645000	0.868500
C1171	C117	0.532900	0.558200	0.920200
H781	H78	0.505800	0.547200	0.864500
O401	O40	0.395330	0.297730	0.224930
O411	O41	0.312730	0.263800	0.331630
O421	O42	0.092770	0.765830	0.249130
C1181	C118	0.356070	0.081130	0.320930
C1191	C119	0.304370	0.086630	0.357230
H791	H79	0.269870	0.052130	0.387930
C1201	C120	0.305670	0.144830	0.346530
H801	H80	0.271870	0.148430	0.372030
C1211	C121	0.354070	0.195430	0.300530
C1221	C122	0.407070	0.133130	0.271030
H811	H81	0.440770	0.129630	0.244930
C1231	C123	0.405770	0.190330	0.261230
H821	H82	0.439170	0.225130	0.228730
C1241	C124	0.356470	0.257030	0.284730
C1251	C125	0.255370	0.949330	0.254430
H831	H83	0.264670	0.978330	0.201830
C1261	C126	0.199570	0.891530	0.253530
H841	H84	0.172470	0.880530	0.197830
O431	O43	0.061990	0.631070	0.558270
O441	O44	0.979390	0.597140	0.664970
O451	O45	0.759430	0.099170	0.582470
C1271	C127	0.022730	0.414470	0.654270
C1281	C128	0.971030	0.419970	0.690570
H851	H85	0.936530	0.385470	0.721270
C1291	C129	0.972330	0.478170	0.679870
H861	H86	0.938530	0.481770	0.705370
C1301	C130	0.020730	0.528770	0.633870
C1311	C131	0.073730	0.466470	0.604370
H871	H87	0.107430	0.462970	0.578270
C1321	C132	0.072430	0.523670	0.594570
H881	H88	0.105830	0.558470	0.562070
C1331	C133	0.023130	0.590370	0.618070
C1341	C134	0.922030	0.282670	0.587770
H891	H89	0.931330	0.311670	0.535170
C1351	C135	0.866230	0.224870	0.586870
H901	H90	0.839130	0.213870	0.531170
O461	O46	0.235740	0.271340	0.891600
O471	O47	0.284410	0.353940	0.998300
O481	O48	0.006400	0.573900	0.915800
C1361	C136	0.058400	0.310600	0.987600
C1371	C137	0.115600	0.362300	0.023900
H911	H91	0.115600	0.396800	0.054600
C1381	C138	0.172500	0.361000	0.013200
H921	H92	0.209900	0.394800	0.038700
C1391	C139	0.174700	0.312600	0.967200
C1401	C140	0.059400	0.259600	0.937700
H931	H93	0.022200	0.225900	0.911600
C1411	C141	0.117900	0.260900	0.927900
H941	H94	0.119300	0.227500	0.895400
C1421	C142	0.233900	0.310200	0.951400
C1431	C143	0.027300	0.411300	0.921100
H951	H95	0.047000	0.402000	0.868500
C1441	C144	0.025300	0.467100	0.920200
H961	H96	0.041400	0.494200	0.864500
O491	O49	0.902410	0.604670	0.224930
O501	O50	0.951080	0.687270	0.331630
O511	O51	0.673070	0.907230	0.249130
C1451	C145	0.725070	0.643930	0.320930
C1461	C146	0.782270	0.695630	0.357230
H971	H97	0.782270	0.730130	0.387930
C1471	C147	0.839170	0.694330	0.346530
H981	H98	0.876570	0.728130	0.372030
C1481	C148	0.841370	0.645930	0.300530
C1491	C149	0.726070	0.592930	0.271030
H991	H99	0.688870	0.559230	0.244930
C1501	C150	0.784570	0.594230	0.261230
H1001	H100	0.785970	0.560830	0.228730
C1511	C151	0.900570	0.643530	0.284730
C1521	C152	0.693970	0.744630	0.254430
H1011	H101	0.713670	0.735330	0.201830
C1531	C153	0.691970	0.800430	0.253530
H1021	H102	0.708070	0.827530	0.197830
O521	O52	0.569070	0.938010	0.558270
O531	O53	0.617740	0.020610	0.664970
O541	O54	0.339730	0.240570	0.582470
C1541	C154	0.391730	0.977270	0.654270
C1551	C155	0.448930	0.028970	0.690570
H1031	H103	0.448930	0.063470	0.721270
C1561	C156	0.505830	0.027670	0.679870
H1041	H104	0.543230	0.061470	0.705370
C1571	C157	0.508030	0.979270	0.633870
C1581	C158	0.392730	0.926270	0.604370
H1051	H105	0.355530	0.892570	0.578270
C1591	C159	0.451230	0.927570	0.594570
H1061	H106	0.452630	0.894170	0.562070
C1601	C160	0.567230	0.976870	0.618070
C1611	C161	0.360630	0.077970	0.587770
H1071	H107	0.380330	0.068670	0.535170
C1621	C162	0.358630	0.133770	0.586870
H1081	H108	0.374730	0.160870	0.531170
La11	La1	0.648280	0.981610	0.166670
La21	La2	0.314950	0.314950	0.500000
La31	La3	0.018390	0.666670	0.166670
La41	La4	0.685050	0.000000	0.500000
La51	La5	0.333330	0.351720	0.166670
La61	La6	0.000000	0.685050	0.500000
La71	La7	0.981610	0.648280	0.833330
La81	La8	0.666670	0.018390	0.833330
La91	La9	0.351720	0.333330	0.833330
N11	N1	0.000000	0.310000	0.000000
C1631	C163	0.000000	0.369700	0.000000
C1641	C164	0.000000	0.483500	0.000000
C1651	C165	0.000000	0.545700	0.000000
N21	N2	0.666670	0.643330	0.333330
C1661	C166	0.666670	0.703030	0.333330
C1671	C167	0.666670	0.816830	0.333330
C1681	C168	0.666670	0.879030	0.333330
N31	N3	0.333330	0.976670	0.666670
C1691	C169	0.333330	0.036370	0.666670
C1701	C170	0.333330	0.150170	0.666670
C1711	C171	0.333330	0.212370	0.666670
N41	N4	0.690000	0.690000	0.000000
C1721	C172	0.630300	0.630300	0.000000
C1731	C173	0.516500	0.516500	0.000000
C1741	C174	0.454300	0.454300	0.000000
N51	N5	0.356670	0.023330	0.333330
C1751	C175	0.296970	0.963630	0.333330
C1761	C176	0.183170	0.849830	0.333330
C1771	C177	0.120970	0.787630	0.333330
N61	N6	0.023330	0.356670	0.666670
C1781	C178	0.963630	0.296970	0.666670
C1791	C179	0.849830	0.183170	0.666670
C1801	C180	0.787630	0.120970	0.666670
N71	N7	0.310000	0.000000	0.000000
C1811	C181	0.369700	0.000000	0.000000
C1821	C182	0.483500	0.000000	0.000000
C1831	C183	0.545700	0.000000	0.000000
N81	N8	0.976670	0.333330	0.333330
C1841	C184	0.036370	0.333330	0.333330
C1851	C185	0.150170	0.333330	0.333330
C1861	C186	0.212370	0.333330	0.333330
N91	N9	0.643330	0.666670	0.666670
C1871	C187	0.703030	0.666670	0.666670
C1881	C188	0.816830	0.666670	0.666670
C1891	C189	0.879030	0.666670	0.666670
