data_RUYZUH_clean_PM
_symmetry_space_group_name_H-M	'P1'
_cell_length_a	16.211100
_cell_length_b	11.868300
_cell_length_c	17.992300
_cell_angle_alpha	90.000000
_cell_angle_beta	103.700000
_cell_angle_gamma	90.000000
_symmetry_Int_Tables_number 1

loop_
_symmetry_equiv_pos_as_xyz
'x,y,z'

loop_
_atom_site_label
_atom_site_type_symbol
_atom_site_fract_x
_atom_site_fract_y
_atom_site_fract_z
Mo11	Mo1	0.216900	0.641270	0.067440
Mo21	Mo2	0.215930	0.347980	0.037110
Mo31	Mo3	0.117680	0.767080	0.966760
Mo41	Mo4	0.979550	0.645770	0.804950
Mo51	Mo5	0.976460	0.429190	0.786920
Mo61	Mo6	0.111240	0.255420	0.921950
Mn11	Mn1	0.376070	0.502080	0.865740
P11	P1	0.061370	0.200960	0.737500
P21	P2	0.172690	0.524500	0.886010
P31	P3	0.123280	0.836890	0.790120
P41	P4	0.389270	0.507640	0.058420
O11	O1	0.092860	0.634900	0.024120
O21	O2	0.239310	0.745600	0.991740
O31	O3	0.091890	0.361200	0.001140
O41	O4	0.234000	0.273700	0.946580
O51	O5	0.029000	0.323600	0.721880
O61	O6	0.114250	0.422900	0.858600
O71	O7	0.205140	0.480500	0.114640
O81	O8	0.122300	0.195900	0.818400
O91	O9	0.343540	0.393500	0.061160
O101	O10	0.017600	0.550000	0.732440
O111	O11	0.211870	0.509500	0.973090
O121	O12	0.134300	0.862300	0.876280
O131	O13	0.964270	0.523600	0.874880
O141	O14	0.038400	0.775000	0.760230
O151	O15	0.341970	0.600400	0.091550
O161	O16	0.991590	0.754500	0.900580
O171	O17	0.130200	0.943500	0.747820
O181	O18	0.115630	0.631300	0.877410
O191	O19	0.986240	0.290400	0.862730
O201	O20	0.240140	0.540500	0.841820
O211	O21	0.985300	0.122200	0.734620
O221	O22	0.477290	0.497500	0.117390
O231	O23	0.402300	0.539800	0.981910
O241	O24	0.199900	0.760400	0.780500
O251	O25	0.108700	0.169000	0.677420
O261	O26	0.377600	0.317900	0.894700
H11	H1	0.426800	0.297200	0.911700
Mo71	Mo7	0.283100	0.141270	0.432560
Mo81	Mo8	0.284070	0.847980	0.462890
Mo91	Mo9	0.382320	0.267080	0.533240
Mo101	Mo10	0.520450	0.145770	0.695050
Mo111	Mo11	0.523540	0.929190	0.713080
Mo121	Mo12	0.388760	0.755420	0.578050
Mn21	Mn2	0.123930	0.002080	0.634260
P51	P5	0.438630	0.700960	0.762500
P61	P6	0.327310	0.024500	0.613990
P71	P7	0.376720	0.336890	0.709880
P81	P8	0.110730	0.007640	0.441580
O271	O27	0.407140	0.134900	0.475880
O281	O28	0.260690	0.245600	0.508260
O291	O29	0.408110	0.861200	0.498860
O301	O30	0.266000	0.773700	0.553420
O311	O31	0.471000	0.823600	0.778120
O321	O32	0.385750	0.922900	0.641400
O331	O33	0.294860	0.980500	0.385360
O341	O34	0.377700	0.695900	0.681600
O351	O35	0.156460	0.893500	0.438840
O361	O36	0.482400	0.050000	0.767560
O371	O37	0.288130	0.009500	0.526910
O381	O38	0.365700	0.362300	0.623720
O391	O39	0.535730	0.023600	0.625120
O401	O40	0.461600	0.275000	0.739770
O411	O41	0.158030	0.100400	0.408450
O421	O42	0.508410	0.254500	0.599420
O431	O43	0.369800	0.443500	0.752180
O441	O44	0.384370	0.131300	0.622590
O451	O45	0.513760	0.790400	0.637270
O461	O46	0.259860	0.040500	0.658180
O471	O47	0.514700	0.622200	0.765380
O481	O48	0.022710	0.997500	0.382610
O491	O49	0.097700	0.039800	0.518090
O501	O50	0.300100	0.260400	0.719500
O511	O51	0.391300	0.669000	0.822580
O521	O52	0.122400	0.817900	0.605300
H21	H2	0.073200	0.797200	0.588300
Mo131	Mo13	0.783100	0.358730	0.932560
Mo141	Mo14	0.784070	0.652020	0.962890
Mo151	Mo15	0.882320	0.232920	0.033240
Mo161	Mo16	0.020450	0.354230	0.195050
Mo171	Mo17	0.023540	0.570810	0.213080
Mo181	Mo18	0.888760	0.744580	0.078050
Mn31	Mn3	0.623930	0.497920	0.134260
P91	P9	0.938630	0.799040	0.262500
P101	P10	0.827310	0.475500	0.113990
P111	P11	0.876720	0.163110	0.209880
P121	P12	0.610730	0.492360	0.941580
O531	O53	0.907140	0.365100	0.975880
O541	O54	0.760690	0.254400	0.008260
O551	O55	0.908110	0.638800	0.998860
O561	O56	0.766000	0.726300	0.053420
O571	O57	0.971000	0.676400	0.278120
O581	O58	0.885750	0.577100	0.141400
O591	O59	0.794860	0.519500	0.885360
O601	O60	0.877700	0.804100	0.181600
O611	O61	0.656460	0.606500	0.938840
O621	O62	0.982400	0.450000	0.267560
O631	O63	0.788130	0.490500	0.026910
O641	O64	0.865700	0.137700	0.123720
O651	O65	0.035730	0.476400	0.125120
O661	O66	0.961600	0.225000	0.239770
O671	O67	0.658030	0.399600	0.908450
O681	O68	0.008410	0.245500	0.099420
O691	O69	0.869800	0.056500	0.252180
O701	O70	0.884370	0.368700	0.122590
O711	O71	0.013760	0.709600	0.137270
O721	O72	0.759860	0.459500	0.158180
O731	O73	0.014700	0.877800	0.265380
O741	O74	0.522710	0.502500	0.882610
O751	O75	0.597700	0.460200	0.018090
O761	O76	0.800100	0.239600	0.219500
O771	O77	0.891300	0.831000	0.322580
O781	O78	0.622400	0.682100	0.105300
H31	H3	0.573200	0.702800	0.088300
Mo191	Mo19	0.716900	0.858730	0.567440
Mo201	Mo20	0.715930	0.152020	0.537110
Mo211	Mo21	0.617680	0.732920	0.466760
Mo221	Mo22	0.479550	0.854230	0.304950
Mo231	Mo23	0.476460	0.070810	0.286920
Mo241	Mo24	0.611240	0.244580	0.421950
Mn41	Mn4	0.876070	0.997920	0.365740
P131	P13	0.561370	0.299040	0.237500
P141	P14	0.672690	0.975500	0.386010
P151	P15	0.623280	0.663110	0.290120
P161	P16	0.889270	0.992360	0.558420
O791	O79	0.592860	0.865100	0.524120
O801	O80	0.739310	0.754400	0.491740
O811	O81	0.591890	0.138800	0.501140
O821	O82	0.734000	0.226300	0.446580
O831	O83	0.529000	0.176400	0.221880
O841	O84	0.614250	0.077100	0.358600
O851	O85	0.705140	0.019500	0.614640
O861	O86	0.622300	0.304100	0.318400
O871	O87	0.843540	0.106500	0.561160
O881	O88	0.517600	0.950000	0.232440
O891	O89	0.711870	0.990500	0.473090
O901	O90	0.634300	0.637700	0.376280
O911	O91	0.464270	0.976400	0.374880
O921	O92	0.538400	0.725000	0.260230
O931	O93	0.841970	0.899600	0.591550
O941	O94	0.491590	0.745500	0.400580
O951	O95	0.630200	0.556500	0.247820
O961	O96	0.615630	0.868700	0.377410
O971	O97	0.486240	0.209600	0.362730
O981	O98	0.740140	0.959500	0.341820
O991	O99	0.485300	0.377800	0.234620
O1001	O100	0.977290	0.002500	0.617390
O1011	O101	0.902300	0.960200	0.481910
O1021	O102	0.699900	0.739600	0.280500
O1031	O103	0.608700	0.331000	0.177420
O1041	O104	0.877600	0.182100	0.394700
H41	H4	0.926800	0.202800	0.411700
Mn51	Mn5	0.000000	0.500000	0.000000
Mn61	Mn6	0.500000	0.000000	0.500000
