data_RUZDAS_clean_PM
_symmetry_space_group_name_H-M	'P1'
_cell_length_a	5.616000
_cell_length_b	15.431000
_cell_length_c	9.445000
_cell_angle_alpha	90.000000
_cell_angle_beta	91.720000
_cell_angle_gamma	90.000000
_symmetry_Int_Tables_number 1

loop_
_symmetry_equiv_pos_as_xyz
'x,y,z'

loop_
_atom_site_label
_atom_site_type_symbol
_atom_site_fract_x
_atom_site_fract_y
_atom_site_fract_z
Mn11	Mn1	0.215290	0.668260	0.556530
P11	P1	0.707430	0.697250	0.351610
H11	H1	0.709930	0.604000	0.348030
O11	O1	0.663000	0.727490	0.199520
O21	O2	0.506900	0.723220	0.447330
O31	O3	0.953700	0.725660	0.406940
O41	O4	0.234500	0.552570	0.417460
O51	O5	0.067400	0.423170	0.370420
C11	C1	0.087100	0.493220	0.438900
Mn21	Mn2	0.284710	0.168260	0.943470
P21	P2	0.792570	0.197250	0.148390
H21	H2	0.790070	0.104000	0.151970
O61	O6	0.837000	0.227490	0.300480
O71	O7	0.993100	0.223220	0.052670
O81	O8	0.546300	0.225660	0.093060
O91	O9	0.265500	0.052570	0.082540
O101	O10	0.432600	0.923170	0.129580
C21	C2	0.412900	0.993220	0.061100
Mn31	Mn3	0.784710	0.331740	0.443470
P31	P3	0.292570	0.302750	0.648390
H31	H3	0.290070	0.396000	0.651970
O111	O11	0.337000	0.272510	0.800480
O121	O12	0.493100	0.276780	0.552670
O131	O13	0.046300	0.274340	0.593060
O141	O14	0.765500	0.447430	0.582540
O151	O15	0.932600	0.576830	0.629580
C31	C3	0.912900	0.506780	0.561100
Mn41	Mn4	0.715290	0.831740	0.056530
P41	P4	0.207430	0.802750	0.851610
H41	H4	0.209930	0.896000	0.848030
O161	O16	0.163000	0.772510	0.699520
O171	O17	0.006900	0.776780	0.947330
O181	O18	0.453700	0.774340	0.906940
O191	O19	0.734500	0.947430	0.917460
O201	O20	0.567400	0.076830	0.870420
C41	C4	0.587100	0.006780	0.938900
