data_S2052520616005515_bm5080sup1_clean_PM
_symmetry_space_group_name_H-M	'P1'
_cell_length_a	14.648000
_cell_length_b	12.400600
_cell_length_c	16.606200
_cell_angle_alpha	90.000000
_cell_angle_beta	90.000000
_cell_angle_gamma	90.000000
_symmetry_Int_Tables_number 1

loop_
_symmetry_equiv_pos_as_xyz
'x,y,z'

loop_
_atom_site_label
_atom_site_type_symbol
_atom_site_fract_x
_atom_site_fract_y
_atom_site_fract_z
Mn11	Mn1	0.605200	0.481950	0.578080
O11	O1	0.709800	0.480300	0.483400
O21	O2	0.700100	0.629900	0.550800
O31	O3	0.595200	0.344300	0.665500
O41	O4	0.499000	0.580200	0.626200
C11	C1	0.349100	0.781700	0.540500
H11	H1	0.345800	0.756100	0.487900
O51	O5	0.523200	0.380500	0.502500
C21	C2	0.732900	0.575300	0.494900
C31	C3	0.695000	0.410900	0.859300
H21	H2	0.725600	0.473700	0.845000
C41	C4	0.637200	0.399500	0.717300
C51	C5	0.702300	0.371600	0.937300
C61	C6	0.463300	0.636200	0.571000
O61	O6	0.674200	0.486000	0.700700
C71	C7	0.592900	0.267400	0.825200
H31	H3	0.557900	0.231600	0.786900
C81	C8	0.405400	0.729600	0.596100
C91	C9	0.642700	0.357700	0.803000
Mn21	Mn2	0.894800	0.518050	0.078080
O71	O7	0.790200	0.519700	0.983400
O81	O8	0.799900	0.370100	0.050800
O91	O9	0.904800	0.655700	0.165500
O101	O10	0.001000	0.419800	0.126200
C101	C10	0.150900	0.218300	0.040500
H41	H4	0.154200	0.243900	0.987900
O111	O11	0.976800	0.619500	0.002500
C111	C11	0.767100	0.424700	0.994900
C121	C12	0.805000	0.589100	0.359300
H51	H5	0.774400	0.526300	0.345000
C131	C13	0.862800	0.600500	0.217300
C141	C14	0.797700	0.628400	0.437300
C151	C15	0.036700	0.363800	0.071000
O121	O12	0.825800	0.514000	0.200700
C161	C16	0.907100	0.732600	0.325200
H61	H6	0.942100	0.768400	0.286900
C171	C17	0.094600	0.270400	0.096100
C181	C18	0.857300	0.642300	0.303000
Mn31	Mn3	0.394800	0.981950	0.921920
O131	O13	0.290200	0.980300	0.016600
O141	O14	0.299900	0.129900	0.949200
O151	O15	0.404800	0.844300	0.834500
O161	O16	0.501000	0.080200	0.873800
C191	C19	0.650900	0.281700	0.959500
H71	H7	0.654200	0.256100	0.012100
O171	O17	0.476800	0.880500	0.997500
C201	C20	0.267100	0.075300	0.005100
C211	C21	0.305000	0.910900	0.640700
H81	H8	0.274400	0.973700	0.655000
C221	C22	0.362800	0.899500	0.782700
C231	C23	0.297700	0.871600	0.562700
C241	C24	0.536700	0.136200	0.929000
O181	O18	0.325800	0.986000	0.799300
C251	C25	0.407100	0.767400	0.674800
H91	H9	0.442100	0.731600	0.713100
C261	C26	0.594600	0.229600	0.903900
C271	C27	0.357300	0.857700	0.697000
Mn41	Mn4	0.105200	0.018050	0.421920
O191	O19	0.209800	0.019700	0.516600
O201	O20	0.200100	0.870100	0.449200
O211	O21	0.095200	0.155700	0.334500
O221	O22	0.999000	0.919800	0.373800
C281	C28	0.849100	0.718300	0.459500
H101	H10	0.845800	0.743900	0.512100
O231	O23	0.023200	0.119500	0.497500
C291	C29	0.232900	0.924700	0.505100
C301	C30	0.195000	0.089100	0.140700
H111	H11	0.225600	0.026300	0.155000
C311	C31	0.137200	0.100500	0.282700
C321	C32	0.202300	0.128400	0.062700
C331	C33	0.963300	0.863800	0.429000
O241	O24	0.174200	0.014000	0.299300
C341	C34	0.092900	0.232600	0.174800
H121	H12	0.057900	0.268400	0.213100
C351	C35	0.905400	0.770400	0.403900
C361	C36	0.142700	0.142300	0.197000
Mn51	Mn5	0.394800	0.518050	0.421920
O251	O25	0.290200	0.519700	0.516600
O261	O26	0.299900	0.370100	0.449200
O271	O27	0.404800	0.655700	0.334500
O281	O28	0.501000	0.419800	0.373800
C371	C37	0.650900	0.218300	0.459500
H131	H13	0.654200	0.243900	0.512100
O291	O29	0.476800	0.619500	0.497500
C381	C38	0.267100	0.424700	0.505100
C391	C39	0.305000	0.589100	0.140700
H141	H14	0.274400	0.526300	0.155000
C401	C40	0.362800	0.600500	0.282700
C411	C41	0.297700	0.628400	0.062700
C421	C42	0.536700	0.363800	0.429000
O301	O30	0.325800	0.514000	0.299300
C431	C43	0.407100	0.732600	0.174800
H151	H15	0.442100	0.768400	0.213100
C441	C44	0.594600	0.270400	0.403900
C451	C45	0.357300	0.642300	0.197000
Mn61	Mn6	0.105200	0.481950	0.921920
O311	O31	0.209800	0.480300	0.016600
O321	O32	0.200100	0.629900	0.949200
O331	O33	0.095200	0.344300	0.834500
O341	O34	0.999000	0.580200	0.873800
C461	C46	0.849100	0.781700	0.959500
H161	H16	0.845800	0.756100	0.012100
O351	O35	0.023200	0.380500	0.997500
C471	C47	0.232900	0.575300	0.005100
C481	C48	0.195000	0.410900	0.640700
H171	H17	0.225600	0.473700	0.655000
C491	C49	0.137200	0.399500	0.782700
C501	C50	0.202300	0.371600	0.562700
C511	C51	0.963300	0.636200	0.929000
O361	O36	0.174200	0.486000	0.799300
C521	C52	0.092900	0.267400	0.674800
H181	H18	0.057900	0.231600	0.713100
C531	C53	0.905400	0.729600	0.903900
C541	C54	0.142700	0.357700	0.697000
Mn71	Mn7	0.605200	0.018050	0.078080
O371	O37	0.709800	0.019700	0.983400
O381	O38	0.700100	0.870100	0.050800
O391	O39	0.595200	0.155700	0.165500
O401	O40	0.499000	0.919800	0.126200
C551	C55	0.349100	0.718300	0.040500
H191	H19	0.345800	0.743900	0.987900
O411	O41	0.523200	0.119500	0.002500
C561	C56	0.732900	0.924700	0.994900
C571	C57	0.695000	0.089100	0.359300
H201	H20	0.725600	0.026300	0.345000
C581	C58	0.637200	0.100500	0.217300
C591	C59	0.702300	0.128400	0.437300
C601	C60	0.463300	0.863800	0.071000
O421	O42	0.674200	0.014000	0.200700
C611	C61	0.592900	0.232600	0.325200
H211	H21	0.557900	0.268400	0.286900
C621	C62	0.405400	0.770400	0.096100
C631	C63	0.642700	0.142300	0.303000
Mn81	Mn8	0.894800	0.981950	0.578080
O431	O43	0.790200	0.980300	0.483400
O441	O44	0.799900	0.129900	0.550800
O451	O45	0.904800	0.844300	0.665500
O461	O46	0.001000	0.080200	0.626200
C641	C64	0.150900	0.281700	0.540500
H221	H22	0.154200	0.256100	0.487900
O471	O47	0.976800	0.880500	0.502500
C651	C65	0.767100	0.075300	0.494900
C661	C66	0.805000	0.910900	0.859300
H231	H23	0.774400	0.973700	0.845000
C671	C67	0.862800	0.899500	0.717300
C681	C68	0.797700	0.871600	0.937300
C691	C69	0.036700	0.136200	0.571000
O481	O48	0.825800	0.986000	0.700700
C701	C70	0.907100	0.767400	0.825200
H241	H24	0.942100	0.731600	0.786900
C711	C71	0.094600	0.229600	0.596100
C721	C72	0.857300	0.857700	0.803000
