data_S2056989016007027_zl2661sup1_clean_PM
_symmetry_space_group_name_H-M	'P1'
_cell_length_a	9.470000
_cell_length_b	12.351000
_cell_length_c	13.575000
_cell_angle_alpha	90.000000
_cell_angle_beta	94.327000
_cell_angle_gamma	90.000000
_symmetry_Int_Tables_number 1

loop_
_symmetry_equiv_pos_as_xyz
'x,y,z'

loop_
_atom_site_label
_atom_site_type_symbol
_atom_site_fract_x
_atom_site_fract_y
_atom_site_fract_z
Zn11	Zn1	0.891470	0.679550	0.059110
Zn21	Zn2	0.623720	0.815790	0.179210
O11	O1	0.951400	0.811800	0.133600
O21	O2	0.807000	0.813900	0.256700
O31	O3	0.860600	0.562500	0.149600
O41	O4	0.071900	0.594200	0.225400
O51	O5	0.706900	0.683900	0.986000
O61	O6	0.563300	0.680800	0.111300
O71	O7	0.660800	0.925400	0.083500
O81	O8	0.450200	0.886000	0.005700
O91	O9	0.462300	0.823300	0.258300
O101	O10	0.524100	0.979200	0.332300
O111	O11	0.052900	0.684000	0.980900
O121	O12	0.985500	0.556400	0.871400
C11	C1	0.923500	0.832700	0.220800
C21	C2	0.036600	0.884300	0.287800
C31	C3	0.177100	0.872300	0.268300
H11	H1	0.201100	0.830700	0.213200
C41	C4	0.283600	0.921300	0.329700
C51	C5	0.246100	0.983600	0.408000
H21	H2	0.317700	0.018600	0.449200
C61	C6	0.105900	0.995900	0.427100
C71	C7	0.999700	0.946000	0.366600
H31	H3	0.903100	0.954400	0.379500
C81	C8	0.953000	0.552400	0.221300
C91	C9	0.912000	0.483700	0.304800
C101	C10	0.768400	0.463700	0.317900
H41	H4	0.696800	0.489900	0.271000
C111	C11	0.013000	0.441500	0.372300
H51	H5	0.110200	0.452900	0.362800
C121	C12	0.590400	0.663700	0.023100
C131	C13	0.477000	0.617000	0.953500
C141	C14	0.334100	0.634000	0.968400
H61	H6	0.307900	0.672000	0.025100
C151	C15	0.231700	0.594900	0.900000
C161	C16	0.565000	0.934200	0.010600
C171	C17	0.435400	0.910000	0.306500
C181	C18	0.076100	0.610900	0.916900
Zn31	Zn3	0.391470	0.320450	0.559110
Zn41	Zn4	0.123720	0.184210	0.679210
O131	O13	0.451400	0.188200	0.633600
O141	O14	0.307000	0.186100	0.756700
O151	O15	0.360600	0.437500	0.649600
O161	O16	0.571900	0.405800	0.725400
O171	O17	0.206900	0.316100	0.486000
O181	O18	0.063300	0.319200	0.611300
O191	O19	0.160800	0.074600	0.583500
O201	O20	0.950200	0.114000	0.505700
O211	O21	0.962300	0.176700	0.758300
O221	O22	0.024100	0.020800	0.832300
O231	O23	0.552900	0.316000	0.480900
O241	O24	0.485500	0.443600	0.371400
C191	C19	0.423500	0.167300	0.720800
C201	C20	0.536600	0.115700	0.787800
C211	C21	0.677100	0.127700	0.768300
H71	H7	0.701100	0.169300	0.713200
C221	C22	0.783600	0.078700	0.829700
C231	C23	0.746100	0.016400	0.908000
H81	H8	0.817700	0.981400	0.949200
C241	C24	0.605900	0.004100	0.927100
C251	C25	0.499700	0.054000	0.866600
H91	H9	0.403100	0.045600	0.879500
C261	C26	0.453000	0.447600	0.721300
C271	C27	0.412000	0.516300	0.804800
C281	C28	0.268400	0.536300	0.817900
H101	H10	0.196800	0.510100	0.771000
C291	C29	0.513000	0.558500	0.872300
H111	H11	0.610200	0.547100	0.862800
C301	C30	0.090400	0.336300	0.523100
C311	C31	0.977000	0.383000	0.453500
C321	C32	0.834100	0.366000	0.468400
H121	H12	0.807900	0.328000	0.525100
C331	C33	0.731700	0.405100	0.400000
C341	C34	0.065000	0.065800	0.510600
C351	C35	0.935400	0.090000	0.806500
C361	C36	0.576100	0.389100	0.416900
