data_SABWEA_clean_PM
_symmetry_space_group_name_H-M	'P1'
_cell_length_a	10.599000
_cell_length_b	10.681000
_cell_length_c	11.424000
_cell_angle_alpha	82.670000
_cell_angle_beta	74.140000
_cell_angle_gamma	69.320000
_symmetry_Int_Tables_number 1

loop_
_symmetry_equiv_pos_as_xyz
'x,y,z'

loop_
_atom_site_label
_atom_site_type_symbol
_atom_site_fract_x
_atom_site_fract_y
_atom_site_fract_z
Pr11	Pr1	0.589050	0.597900	0.628650
O11	O1	0.397000	0.623900	0.408600
O21	O2	0.470900	0.753000	0.491000
O31	O3	0.267500	0.254400	0.447500
O41	O4	0.040800	0.321500	0.455200
O51	O5	0.877600	0.060200	0.260400
O61	O6	0.956600	0.847600	0.274700
O71	O7	0.008000	0.439600	0.667800
O81	O8	0.781100	0.485300	0.716400
O91	O9	0.535900	0.477800	0.159700
O101	O10	0.661700	0.386500	0.292700
O111	O11	0.171200	0.251300	0.157400
O121	O12	0.270500	0.239800	0.967100
N11	N1	0.962700	0.956300	0.285000
N21	N2	0.167600	0.265200	0.051000
C11	C1	0.280000	0.858300	0.405000
C21	C2	0.275800	0.984300	0.431400
H11	H1	0.345200	0.991300	0.462700
C31	C3	0.169200	0.098400	0.411400
C41	C4	0.064800	0.088300	0.364300
H21	H2	0.991000	0.163900	0.352700
C51	C5	0.074000	0.963800	0.335400
C61	C6	0.177800	0.847900	0.355500
H31	H3	0.179600	0.765000	0.336500
C71	C7	0.391000	0.735200	0.435700
C81	C8	0.160800	0.235100	0.440200
C91	C9	0.899000	0.413700	0.873900
C101	C10	0.777600	0.438100	0.965000
H41	H4	0.692100	0.476500	0.945400
C111	C11	0.782500	0.405500	0.086300
C121	C12	0.910900	0.347400	0.115400
H51	H5	0.915800	0.324700	0.195700
C131	C13	0.030700	0.324100	0.022200
C141	C14	0.028000	0.355300	0.901800
H61	H6	0.110100	0.337900	0.840800
C151	C15	0.894700	0.449500	0.743300
C161	C16	0.650700	0.426600	0.185400
Pr21	Pr2	0.410950	0.402100	0.371350
O131	O13	0.603000	0.376100	0.591400
O141	O14	0.529100	0.247000	0.509000
O151	O15	0.732500	0.745600	0.552500
O161	O16	0.959200	0.678500	0.544800
O171	O17	0.122400	0.939800	0.739600
O181	O18	0.043400	0.152400	0.725300
O191	O19	0.992000	0.560400	0.332200
O201	O20	0.218900	0.514700	0.283600
O211	O21	0.464100	0.522200	0.840300
O221	O22	0.338300	0.613500	0.707300
O231	O23	0.828800	0.748700	0.842600
O241	O24	0.729500	0.760200	0.032900
N31	N3	0.037300	0.043700	0.715000
N41	N4	0.832400	0.734800	0.949000
C171	C17	0.720000	0.141700	0.595000
C181	C18	0.724200	0.015700	0.568600
H71	H7	0.654800	0.008700	0.537300
C191	C19	0.830800	0.901600	0.588600
C201	C20	0.935200	0.911700	0.635700
H81	H8	0.009000	0.836100	0.647300
C211	C21	0.926000	0.036200	0.664600
C221	C22	0.822200	0.152100	0.644500
H91	H9	0.820400	0.235000	0.663500
C231	C23	0.609000	0.264800	0.564300
C241	C24	0.839200	0.764900	0.559800
C251	C25	0.101000	0.586300	0.126100
C261	C26	0.222400	0.561900	0.035000
H101	H10	0.307900	0.523500	0.054600
C271	C27	0.217500	0.594500	0.913700
C281	C28	0.089100	0.652600	0.884600
H111	H11	0.084200	0.675300	0.804300
C291	C29	0.969300	0.675900	0.977800
C301	C30	0.972000	0.644700	0.098200
H121	H12	0.889900	0.662100	0.159200
C311	C31	0.105300	0.550500	0.256700
C321	C32	0.349300	0.573400	0.814600
Cu11	Cu1	0.000000	0.500000	0.500000
