data_SABYAY_clean_PM
_symmetry_space_group_name_H-M	'P1'
_cell_length_a	10.546000
_cell_length_b	10.653000
_cell_length_c	11.422000
_cell_angle_alpha	82.680000
_cell_angle_beta	74.100000
_cell_angle_gamma	69.420000
_symmetry_Int_Tables_number 1

loop_
_symmetry_equiv_pos_as_xyz
'x,y,z'

loop_
_atom_site_label
_atom_site_type_symbol
_atom_site_fract_x
_atom_site_fract_y
_atom_site_fract_z
Nd11	Nd1	0.589000	0.598510	0.628290
O11	O1	0.397900	0.622400	0.406900
O21	O2	0.471600	0.751100	0.490500
O31	O3	0.267700	0.254000	0.448300
O41	O4	0.041500	0.320600	0.455300
O51	O5	0.879700	0.059400	0.258000
O61	O6	0.955800	0.847800	0.274200
O71	O7	0.007200	0.439400	0.667800
O81	O8	0.779100	0.488400	0.717200
O91	O9	0.534500	0.475900	0.161200
O101	O10	0.660700	0.386600	0.294200
O111	O11	0.171800	0.252000	0.155600
O121	O12	0.270200	0.237200	0.965100
N11	N1	0.964400	0.955700	0.283300
N21	N2	0.167000	0.264100	0.050000
C11	C1	0.280600	0.857400	0.404600
C21	C2	0.276600	0.983400	0.430900
H11	H1	0.346500	0.990200	0.462100
C31	C3	0.170300	0.097700	0.411200
C41	C4	0.065900	0.087900	0.363900
H21	H2	0.991900	0.163800	0.352600
C51	C5	0.074400	0.963600	0.334200
C61	C6	0.178900	0.846600	0.354100
H31	H3	0.181100	0.763600	0.334500
C71	C7	0.391800	0.733400	0.434900
C81	C8	0.161500	0.234600	0.440500
C91	C9	0.899000	0.413700	0.873800
C101	C10	0.776000	0.437900	0.965800
H41	H4	0.690000	0.476100	0.946500
C111	C11	0.781800	0.404900	0.086900
C121	C12	0.911100	0.346600	0.115500
H51	H5	0.916600	0.323700	0.195700
C131	C13	0.030100	0.323700	0.022000
C141	C14	0.027000	0.355000	0.901100
H61	H6	0.109300	0.336900	0.839800
C151	C15	0.893900	0.450600	0.743500
C161	C16	0.650600	0.425300	0.186100
Nd21	Nd2	0.411000	0.401490	0.371710
O131	O13	0.602100	0.377600	0.593100
O141	O14	0.528400	0.248900	0.509500
O151	O15	0.732300	0.746000	0.551700
O161	O16	0.958500	0.679400	0.544700
O171	O17	0.120300	0.940600	0.742000
O181	O18	0.044200	0.152200	0.725800
O191	O19	0.992800	0.560600	0.332200
O201	O20	0.220900	0.511600	0.282800
O211	O21	0.465500	0.524100	0.838800
O221	O22	0.339300	0.613400	0.705800
O231	O23	0.828200	0.748000	0.844400
O241	O24	0.729800	0.762800	0.034900
N31	N3	0.035600	0.044300	0.716700
N41	N4	0.833000	0.735900	0.950000
C171	C17	0.719400	0.142600	0.595400
C181	C18	0.723400	0.016600	0.569100
H71	H7	0.653500	0.009800	0.537900
C191	C19	0.829700	0.902300	0.588800
C201	C20	0.934100	0.912100	0.636100
H81	H8	0.008100	0.836200	0.647400
C211	C21	0.925600	0.036400	0.665800
C221	C22	0.821100	0.153400	0.645900
H91	H9	0.818900	0.236400	0.665500
C231	C23	0.608200	0.266600	0.565100
C241	C24	0.838500	0.765400	0.559500
C251	C25	0.101000	0.586300	0.126200
C261	C26	0.224000	0.562100	0.034200
H101	H10	0.310000	0.523900	0.053500
C271	C27	0.218200	0.595100	0.913100
C281	C28	0.088900	0.653400	0.884500
H111	H11	0.083400	0.676300	0.804300
C291	C29	0.969900	0.676300	0.978000
C301	C30	0.973000	0.645000	0.098900
H121	H12	0.890700	0.663100	0.160200
C311	C31	0.106100	0.549400	0.256500
C321	C32	0.349400	0.574700	0.813900
Cu11	Cu1	0.000000	0.500000	0.500000
