data_SABZED_clean_PM
_symmetry_space_group_name_H-M	'P1'
_cell_length_a	10.414000
_cell_length_b	10.615000
_cell_length_c	11.317000
_cell_angle_alpha	83.450000
_cell_angle_beta	75.040000
_cell_angle_gamma	69.610000
_symmetry_Int_Tables_number 1

loop_
_symmetry_equiv_pos_as_xyz
'x,y,z'

loop_
_atom_site_label
_atom_site_type_symbol
_atom_site_fract_x
_atom_site_fract_y
_atom_site_fract_z
Ho11	Ho1	0.586730	0.596710	0.632250
O11	O1	0.396000	0.616100	0.405500
O21	O2	0.471400	0.740800	0.498000
O31	O3	0.284000	0.249200	0.438900
O41	O4	0.052100	0.318400	0.455200
O51	O5	0.872300	0.062500	0.261800
O61	O6	0.950000	0.848300	0.273600
O71	O7	0.001600	0.442100	0.670600
O81	O8	0.769900	0.496500	0.720000
O91	O9	0.529200	0.482900	0.164200
O101	O10	0.658500	0.392400	0.297900
O111	O11	0.173900	0.246600	0.159900
O121	O12	0.271300	0.232600	0.968000
N11	N1	0.957900	0.956700	0.285700
N21	N2	0.167900	0.262100	0.052900
C11	C1	0.281700	0.852700	0.406500
C21	C2	0.282300	0.977300	0.431700
H11	H1	0.354600	0.982700	0.462700
C31	C3	0.175800	0.094200	0.410900
C41	C4	0.069100	0.085900	0.364100
H21	H2	0.995500	0.162900	0.352200
C51	C5	0.073300	0.962200	0.335300
C61	C6	0.176700	0.843600	0.355900
H31	H3	0.176200	0.761000	0.336600
C71	C7	0.390500	0.726500	0.438600
C81	C8	0.173700	0.231200	0.436700
C91	C9	0.893500	0.418800	0.876800
C101	C10	0.771300	0.444500	0.969800
H41	H4	0.684000	0.484400	0.950700
C111	C11	0.778000	0.411400	0.090500
C121	C12	0.909600	0.350300	0.118900
H51	H5	0.916500	0.327600	0.199400
C131	C13	0.028700	0.324800	0.024500
C141	C14	0.024700	0.357300	0.904500
H61	H6	0.107200	0.338800	0.843200
C151	C15	0.887200	0.455900	0.746700
C161	C16	0.646400	0.432000	0.190100
Ho21	Ho2	0.413270	0.403290	0.367750
O131	O13	0.604000	0.383900	0.594500
O141	O14	0.528600	0.259200	0.502000
O151	O15	0.716000	0.750800	0.561100
O161	O16	0.947900	0.681600	0.544800
O171	O17	0.127700	0.937500	0.738200
O181	O18	0.050000	0.151700	0.726400
O191	O19	0.998400	0.557900	0.329400
O201	O20	0.230100	0.503500	0.280000
O211	O21	0.470800	0.517100	0.835800
O221	O22	0.341500	0.607600	0.702100
O231	O23	0.826100	0.753400	0.840100
O241	O24	0.728700	0.767400	0.032000
N31	N3	0.042100	0.043300	0.714300
N41	N4	0.832100	0.737900	0.947100
C171	C17	0.718300	0.147300	0.593500
C181	C18	0.717700	0.022700	0.568300
H71	H7	0.645400	0.017300	0.537300
C191	C19	0.824200	0.905800	0.589100
C201	C20	0.930900	0.914100	0.635900
H81	H8	0.004500	0.837100	0.647800
C211	C21	0.926700	0.037800	0.664700
C221	C22	0.823300	0.156400	0.644100
H91	H9	0.823800	0.239000	0.663400
C231	C23	0.609500	0.273500	0.561400
C241	C24	0.826300	0.768800	0.563300
C251	C25	0.106500	0.581200	0.123200
C261	C26	0.228700	0.555500	0.030200
H101	H10	0.316000	0.515600	0.049300
C271	C27	0.222000	0.588600	0.909500
C281	C28	0.090400	0.649700	0.881100
H111	H11	0.083500	0.672400	0.800600
C291	C29	0.971300	0.675200	0.975500
C301	C30	0.975300	0.642700	0.095500
H121	H12	0.892800	0.661200	0.156800
C311	C31	0.112800	0.544100	0.253300
C321	C32	0.353600	0.568000	0.809900
Cu11	Cu1	0.000000	0.500000	0.500000
