data_SABZON_clean_PM
_symmetry_space_group_name_H-M	'P1'
_cell_length_a	10.464000
_cell_length_b	10.607000
_cell_length_c	11.353000
_cell_angle_alpha	83.080000
_cell_angle_beta	74.540000
_cell_angle_gamma	69.670000
_symmetry_Int_Tables_number 1

loop_
_symmetry_equiv_pos_as_xyz
'x,y,z'

loop_
_atom_site_label
_atom_site_type_symbol
_atom_site_fract_x
_atom_site_fract_y
_atom_site_fract_z
Gd11	Gd1	0.587870	0.598590	0.629860
O11	O1	0.396700	0.618900	0.404400
O21	O2	0.472500	0.745000	0.492300
O31	O3	0.276900	0.250600	0.445400
O41	O4	0.046600	0.319600	0.454200
O51	O5	0.879000	0.060100	0.257600
O61	O6	0.951900	0.848600	0.273600
O71	O7	0.004600	0.440100	0.669000
O81	O8	0.774100	0.494500	0.719400
O91	O9	0.532000	0.475700	0.163800
O101	O10	0.659500	0.388300	0.297100
O111	O11	0.175000	0.251100	0.156300
O121	O12	0.270700	0.232300	0.965200
N11	N1	0.961800	0.956200	0.283100
N21	N2	0.168100	0.262400	0.050400
C11	C1	0.282000	0.853500	0.404100
C21	C2	0.280100	0.980000	0.431100
H11	H1	0.350900	0.986100	0.462800
C31	C3	0.174000	0.095400	0.410700
C41	C4	0.067100	0.087200	0.363400
H21	H2	0.993200	0.163700	0.352200
C51	C5	0.074200	0.962200	0.333800
C61	C6	0.178300	0.845300	0.353100
H31	H3	0.179300	0.762700	0.332500
C71	C7	0.392400	0.729500	0.434900
C81	C8	0.168500	0.231900	0.438900
C91	C9	0.896200	0.415900	0.875600
C101	C10	0.773400	0.441600	0.968200
H41	H4	0.686700	0.481800	0.949300
C111	C11	0.780300	0.407100	0.088800
C121	C12	0.910000	0.348500	0.116700
H51	H5	0.915800	0.326100	0.197300
C131	C13	0.030800	0.323700	0.022700
C141	C14	0.024900	0.356400	0.902300
H61	H6	0.106800	0.338400	0.840200
C151	C15	0.889300	0.453800	0.745500
C161	C16	0.647100	0.427300	0.188700
Gd21	Gd2	0.412130	0.401410	0.370140
O131	O13	0.603300	0.381100	0.595600
O141	O14	0.527500	0.255000	0.507700
O151	O15	0.723100	0.749400	0.554600
O161	O16	0.953400	0.680400	0.545800
O171	O17	0.121000	0.939900	0.742400
O181	O18	0.048100	0.151400	0.726400
O191	O19	0.995400	0.559900	0.331000
O201	O20	0.225900	0.505500	0.280600
O211	O21	0.468000	0.524300	0.836200
O221	O22	0.340500	0.611700	0.702900
O231	O23	0.825000	0.748900	0.843700
O241	O24	0.729300	0.767700	0.034800
N31	N3	0.038200	0.043800	0.716900
N41	N4	0.831900	0.737600	0.949600
C171	C17	0.718000	0.146500	0.595900
C181	C18	0.719900	0.020000	0.568900
H71	H7	0.649100	0.013900	0.537200
C191	C19	0.826000	0.904600	0.589300
C201	C20	0.932900	0.912800	0.636600
H81	H8	0.006800	0.836300	0.647800
C211	C21	0.925800	0.037800	0.666200
C221	C22	0.821700	0.154700	0.646900
H91	H9	0.820700	0.237300	0.667500
C231	C23	0.607600	0.270500	0.565100
C241	C24	0.831500	0.768100	0.561100
C251	C25	0.103800	0.584100	0.124400
C261	C26	0.226600	0.558400	0.031800
H101	H10	0.313300	0.518200	0.050700
C271	C27	0.219700	0.592900	0.911200
C281	C28	0.090000	0.651500	0.883300
H111	H11	0.084200	0.673900	0.802700
C291	C29	0.969200	0.676300	0.977300
C301	C30	0.975100	0.643600	0.097700
H121	H12	0.893200	0.661600	0.159800
C311	C31	0.110700	0.546200	0.254500
C321	C32	0.352900	0.572700	0.811300
Cu11	Cu1	0.000000	0.500000	0.500000
