data_SACDOR_clean_PM
_symmetry_space_group_name_H-M	'P1'
_cell_length_a	13.737700
_cell_length_b	27.394000
_cell_length_c	45.072000
_cell_angle_alpha	90.000000
_cell_angle_beta	90.000000
_cell_angle_gamma	90.000000
_symmetry_Int_Tables_number 1

loop_
_symmetry_equiv_pos_as_xyz
'x,y,z'

loop_
_atom_site_label
_atom_site_type_symbol
_atom_site_fract_x
_atom_site_fract_y
_atom_site_fract_z
Zn11	Zn1	0.829000	0.256950	0.816700
Zn21	Zn2	0.852590	0.454030	0.081300
Zn31	Zn3	0.124070	0.525980	0.585180
Zn41	Zn4	0.171000	0.243050	0.316700
Zn51	Zn5	0.147410	0.045970	0.581300
Zn61	Zn6	0.875930	0.974020	0.085180
Zn71	Zn7	0.329000	0.743050	0.683300
Zn81	Zn8	0.352590	0.545970	0.418700
Zn91	Zn9	0.624070	0.474020	0.914820
Zn101	Zn10	0.671000	0.756950	0.183300
Zn111	Zn11	0.647410	0.954030	0.918700
Zn121	Zn12	0.375930	0.025980	0.414820
H11	H1	0.038000	0.272100	0.834900
H21	H2	0.126500	0.310800	0.870900
H31	H3	0.875200	0.351800	0.908500
H41	H4	0.792900	0.315400	0.870600
H51	H5	0.799600	0.417000	0.020900
H61	H6	0.876600	0.390300	0.977900
H71	H7	0.122100	0.451600	0.007900
H81	H8	0.041800	0.471500	0.051700
H91	H9	0.482600	0.461400	0.965300
H101	H10	0.326800	0.433100	0.973800
H111	H11	0.316100	0.389200	0.888400
H121	H12	0.471200	0.417700	0.882100
H131	H13	0.061100	0.080100	0.638800
H141	H14	0.032300	0.150000	0.664900
H151	H15	0.103200	0.227400	0.591600
H161	H16	0.132200	0.153900	0.567500
H171	H17	0.105200	0.419100	0.570200
H181	H18	0.085800	0.344400	0.593700
H191	H19	0.042600	0.415900	0.670500
H201	H20	0.068000	0.487800	0.645500
H211	H21	0.901400	0.337600	0.777400
H221	H22	0.958600	0.348200	0.729900
H231	H23	0.999800	0.203300	0.725300
H241	H24	0.943500	0.196800	0.773100
H251	H25	0.962000	0.227900	0.334900
H261	H26	0.873500	0.189200	0.370900
H271	H27	0.124800	0.148200	0.408500
H281	H28	0.207100	0.184600	0.370600
H291	H29	0.200400	0.083000	0.520900
H301	H30	0.123400	0.109700	0.477900
H311	H31	0.877900	0.048400	0.507900
H321	H32	0.958200	0.028500	0.551700
H331	H33	0.517400	0.038600	0.465300
H341	H34	0.673200	0.066900	0.473800
H351	H35	0.683900	0.110800	0.388400
H361	H36	0.528800	0.082300	0.382100
H371	H37	0.938900	0.419900	0.138800
H381	H38	0.967700	0.350000	0.164900
H391	H39	0.896800	0.272600	0.091600
H401	H40	0.867800	0.346100	0.067500
H411	H41	0.894800	0.080900	0.070200
H421	H42	0.914200	0.155600	0.093700
H431	H43	0.957400	0.084100	0.170500
H441	H44	0.932000	0.012200	0.145500
H451	H45	0.098600	0.162400	0.277400
H461	H46	0.041400	0.151800	0.229900
H471	H47	0.000200	0.296700	0.225300
H481	H48	0.056500	0.303200	0.273100
H491	H49	0.538000	0.727900	0.665100
H501	H50	0.626500	0.689200	0.629100
H511	H51	0.375200	0.648200	0.591500
H521	H52	0.292900	0.684600	0.629400
H531	H53	0.299600	0.583000	0.479100
H541	H54	0.376600	0.609700	0.522100
H551	H55	0.622100	0.548400	0.492100
H561	H56	0.541800	0.528500	0.448300
H571	H57	0.982600	0.538600	0.534700
H581	H58	0.826800	0.566900	0.526200
H591	H59	0.816100	0.610800	0.611600
H601	H60	0.971200	0.582300	0.617900
H611	H61	0.561100	0.919900	0.861200
H621	H62	0.532300	0.850000	0.835100
H631	H63	0.603200	0.772600	0.908400
H641	H64	0.632200	0.846100	0.932500
H651	H65	0.605200	0.580900	0.929800
H661	H66	0.585800	0.655600	0.906300
H671	H67	0.542600	0.584100	0.829500
H681	H68	0.568000	0.512200	0.854500
H691	H69	0.401400	0.662400	0.722600
H701	H70	0.458600	0.651800	0.770100
H711	H71	0.499800	0.796700	0.774700
H721	H72	0.443500	0.803200	0.726900
H731	H73	0.462000	0.772100	0.165100
H741	H74	0.373500	0.810800	0.129100
H751	H75	0.624800	0.851800	0.091500
H761	H76	0.707100	0.815400	0.129400
H771	H77	0.700400	0.917000	0.979100
H781	H78	0.623400	0.890300	0.022100
H791	H79	0.377900	0.951600	0.992100
H801	H80	0.458200	0.971500	0.948300
H811	H81	0.017400	0.961400	0.034700
H821	H82	0.173200	0.933100	0.026200
H831	H83	0.183900	0.889200	0.111600
H841	H84	0.028800	0.917700	0.117900
H851	H85	0.438900	0.580100	0.361200
H861	H86	0.467700	0.650000	0.335100
H871	H87	0.396800	0.727400	0.408400
H881	H88	0.367800	0.653900	0.432500
H891	H89	0.394800	0.919100	0.429800
H901	H90	0.414200	0.844400	0.406300
H911	H91	0.457400	0.915900	0.329500
H921	H92	0.432000	0.987800	0.354500
H931	H93	0.598600	0.837600	0.222600
H941	H94	0.541400	0.848200	0.270100
H951	H95	0.500200	0.703300	0.274700
H961	H96	0.556500	0.696800	0.226900
C11	C1	0.004400	0.289400	0.850100
C21	C2	0.057400	0.311500	0.871600
C31	C3	0.009900	0.335100	0.894600
C41	C4	0.910800	0.335700	0.893300
C51	C5	0.862000	0.314000	0.870900
C61	C6	0.867300	0.422900	0.018700
C71	C7	0.912300	0.407400	0.992600
C81	C8	0.009000	0.417400	0.988900
C91	C9	0.055900	0.442600	0.010500
C101	C10	0.007200	0.455300	0.036300
C111	C11	0.448000	0.446600	0.949500
C121	C12	0.355100	0.429900	0.954700
C131	C13	0.303200	0.408500	0.931800
C141	C14	0.349100	0.404100	0.904600
C151	C15	0.441300	0.421200	0.901000
C161	C16	0.064900	0.360300	0.918500
C171	C17	0.061500	0.399600	0.962300
C181	C18	0.200000	0.393500	0.936000
C191	C19	0.070900	0.110700	0.629300
C201	C20	0.053600	0.151700	0.644900
C211	C21	0.067500	0.196200	0.631100
C221	C22	0.095500	0.197300	0.601800
C231	C23	0.112100	0.153400	0.587700
C241	C24	0.094100	0.418400	0.591000
C251	C25	0.080900	0.373800	0.604900
C261	C26	0.060900	0.372000	0.634600
C271	C27	0.056300	0.415400	0.649900
C281	C28	0.071800	0.458000	0.634800
C291	C29	0.920100	0.309700	0.766200
C301	C30	0.954400	0.316300	0.738100
C311	C31	0.982900	0.276700	0.721800
C321	C32	0.978600	0.231700	0.735500
C331	C33	0.944000	0.227900	0.763900
C341	C34	0.051800	0.243100	0.647700
C351	C35	0.049600	0.324400	0.649600
C361	C36	0.013600	0.280100	0.690100
C371	C37	0.995600	0.210600	0.350100
C381	C38	0.942600	0.188500	0.371600
C391	C39	0.990100	0.164900	0.394600
C401	C40	0.089200	0.164300	0.393300
C411	C41	0.138000	0.186000	0.370900
C421	C42	0.132700	0.077100	0.518700
C431	C43	0.087700	0.092600	0.492600
C441	C44	0.991000	0.082600	0.488900
C451	C45	0.944100	0.057400	0.510500
C461	C46	0.992800	0.044700	0.536300
C471	C47	0.552000	0.053400	0.449500
C481	C48	0.644900	0.070100	0.454700
C491	C49	0.696800	0.091500	0.431800
C501	C50	0.650900	0.095900	0.404600
C511	C51	0.558700	0.078800	0.401000
C521	C52	0.935100	0.139700	0.418500
C531	C53	0.938500	0.100400	0.462300
C541	C54	0.800000	0.106500	0.436000
C551	C55	0.929100	0.389300	0.129300
C561	C56	0.946400	0.348300	0.144900
C571	C57	0.932500	0.303800	0.131100
C581	C58	0.904500	0.302700	0.101800
C591	C59	0.887900	0.346600	0.087700
C601	C60	0.905900	0.081600	0.091000
C611	C61	0.919100	0.126200	0.104900
C621	C62	0.939100	0.128000	0.134600
C631	C63	0.943700	0.084600	0.149900
C641	C64	0.928200	0.042000	0.134800
C651	C65	0.079900	0.190300	0.266200
C661	C66	0.045600	0.183700	0.238100
C671	C67	0.017100	0.223300	0.221800
C681	C68	0.021400	0.268300	0.235500
C691	C69	0.056000	0.272100	0.263900
C701	C70	0.948200	0.256900	0.147700
C711	C71	0.950400	0.175600	0.149600
C721	C72	0.986400	0.219900	0.190100
C731	C73	0.504400	0.710600	0.649900
C741	C74	0.557400	0.688500	0.628400
C751	C75	0.509900	0.664900	0.605400
C761	C76	0.410800	0.664300	0.606700
C771	C77	0.362000	0.686000	0.629100
C781	C78	0.367300	0.577100	0.481300
C791	C79	0.412300	0.592600	0.507400
C801	C80	0.509000	0.582600	0.511100
C811	C81	0.555900	0.557400	0.489500
C821	C82	0.507200	0.544700	0.463700
C831	C83	0.948000	0.553400	0.550500
C841	C84	0.855100	0.570100	0.545300
C851	C85	0.803200	0.591500	0.568200
C861	C86	0.849100	0.595900	0.595400
C871	C87	0.941300	0.578800	0.599000
C881	C88	0.564900	0.639700	0.581500
C891	C89	0.561500	0.600400	0.537700
C901	C90	0.700000	0.606500	0.564000
C911	C91	0.570900	0.889300	0.870700
C921	C92	0.553600	0.848300	0.855100
C931	C93	0.567500	0.803800	0.868900
C941	C94	0.595500	0.802700	0.898200
C951	C95	0.612100	0.846600	0.912300
C961	C96	0.594100	0.581600	0.909000
C971	C97	0.580900	0.626200	0.895100
C981	C98	0.560900	0.628000	0.865400
C991	C99	0.556300	0.584600	0.850100
C1001	C100	0.571800	0.542000	0.865200
C1011	C101	0.420100	0.690300	0.733800
C1021	C102	0.454400	0.683700	0.761900
C1031	C103	0.482900	0.723300	0.778200
C1041	C104	0.478600	0.768300	0.764500
C1051	C105	0.444000	0.772100	0.736100
C1061	C106	0.551800	0.756900	0.852300
C1071	C107	0.549600	0.675600	0.850400
C1081	C108	0.513600	0.719900	0.809900
C1091	C109	0.495600	0.789400	0.149900
C1101	C110	0.442600	0.811500	0.128400
C1111	C111	0.490100	0.835100	0.105400
C1121	C112	0.589200	0.835700	0.106700
C1131	C113	0.638000	0.814000	0.129100
C1141	C114	0.632700	0.922900	0.981300
C1151	C115	0.587700	0.907400	0.007400
C1161	C116	0.491000	0.917400	0.011100
C1171	C117	0.444100	0.942600	0.989500
C1181	C118	0.492800	0.955300	0.963700
C1191	C119	0.052000	0.946600	0.050500
C1201	C120	0.144900	0.929900	0.045300
C1211	C121	0.196800	0.908500	0.068200
C1221	C122	0.150900	0.904100	0.095400
C1231	C123	0.058700	0.921200	0.099000
C1241	C124	0.435100	0.860300	0.081500
C1251	C125	0.438500	0.899600	0.037700
C1261	C126	0.300000	0.893500	0.064000
C1271	C127	0.429100	0.610700	0.370700
C1281	C128	0.446400	0.651700	0.355100
C1291	C129	0.432500	0.696200	0.368900
C1301	C130	0.404500	0.697300	0.398200
C1311	C131	0.387900	0.653400	0.412300
C1321	C132	0.405900	0.918400	0.409000
C1331	C133	0.419100	0.873800	0.395100
C1341	C134	0.439100	0.872000	0.365400
C1351	C135	0.443700	0.915400	0.350100
C1361	C136	0.428200	0.958000	0.365200
C1371	C137	0.579900	0.809700	0.233800
C1381	C138	0.545600	0.816300	0.261900
C1391	C139	0.517100	0.776700	0.278200
C1401	C140	0.521400	0.731700	0.264500
C1411	C141	0.556000	0.727900	0.236100
C1421	C142	0.448200	0.743100	0.352300
C1431	C143	0.450400	0.824400	0.350400
C1441	C144	0.486400	0.780100	0.309900
I11	I1	0.814950	0.166300	0.827410
I21	I2	0.674320	0.306770	0.807740
I31	I3	0.670030	0.442300	0.077220
I41	I4	0.941600	0.519590	0.109620
I51	I5	0.200650	0.505920	0.534990
I61	I6	0.209620	0.574570	0.624410
I71	I7	0.185050	0.333700	0.327410
I81	I8	0.325680	0.193230	0.307740
I91	I9	0.329970	0.057700	0.577220
I101	I10	0.058400	0.980410	0.609620
I111	I11	0.799350	0.994080	0.034990
I121	I12	0.790380	0.925430	0.124410
I131	I13	0.314950	0.833700	0.672590
I141	I14	0.174320	0.693230	0.692260
I151	I15	0.170030	0.557700	0.422780
I161	I16	0.441600	0.480410	0.390380
I171	I17	0.700650	0.494080	0.965010
I181	I18	0.709620	0.425430	0.875590
I191	I19	0.685050	0.666300	0.172590
I201	I20	0.825680	0.806770	0.192260
I211	I21	0.829970	0.942300	0.922780
I221	I22	0.558400	0.019590	0.890380
I231	I23	0.299350	0.005920	0.465010
I241	I24	0.290380	0.074570	0.375590
N11	N1	0.907900	0.290800	0.849100
N21	N2	0.912700	0.445100	0.040100
N31	N3	0.492300	0.442800	0.922700
N41	N4	0.159200	0.367600	0.914600
N51	N5	0.011000	0.374900	0.942300
N61	N6	0.155500	0.411400	0.960470
N71	N7	0.101700	0.110900	0.600700
N81	N8	0.091700	0.460300	0.605900
N91	N9	0.911500	0.265700	0.778820
N101	N10	0.026300	0.238500	0.676330
N111	N11	0.062000	0.285000	0.633530
N121	N12	0.023400	0.324600	0.678560
N131	N13	0.092100	0.209200	0.349100
N141	N14	0.087300	0.054900	0.540100
N151	N15	0.507700	0.057200	0.422700
N161	N16	0.840800	0.132400	0.414600
N171	N17	0.989000	0.125100	0.442300
N181	N18	0.844500	0.088600	0.460470
N191	N19	0.898300	0.389100	0.100700
N201	N20	0.908300	0.039700	0.105900
N211	N21	0.088500	0.234300	0.278820
N221	N22	0.973700	0.261500	0.176330
N231	N23	0.938000	0.215000	0.133530
N241	N24	0.976600	0.175400	0.178560
N251	N25	0.407900	0.709200	0.650900
N261	N26	0.412700	0.554900	0.459900
N271	N27	0.992300	0.557200	0.577300
N281	N28	0.659200	0.632400	0.585400
N291	N29	0.511000	0.625100	0.557700
N301	N30	0.655500	0.588600	0.539530
N311	N31	0.601700	0.889100	0.899300
N321	N32	0.591700	0.539700	0.894100
N331	N33	0.411500	0.734300	0.721180
N341	N34	0.526300	0.761500	0.823670
N351	N35	0.562000	0.715000	0.866470
N361	N36	0.523400	0.675400	0.821440
N371	N37	0.592100	0.790800	0.150900
N381	N38	0.587300	0.945100	0.959900
N391	N39	0.007700	0.942800	0.077300
N401	N40	0.340800	0.867600	0.085400
N411	N41	0.489000	0.874900	0.057700
N421	N42	0.344500	0.911400	0.039530
N431	N43	0.398300	0.610900	0.399300
N441	N44	0.408300	0.960300	0.394100
N451	N45	0.588500	0.765700	0.221180
N461	N46	0.473700	0.738500	0.323670
N471	N47	0.438000	0.785000	0.366470
N481	N48	0.476600	0.824600	0.321440
Zn131	Zn13	0.171000	0.743050	0.183300
Zn141	Zn14	0.147410	0.545970	0.918700
Zn151	Zn15	0.875930	0.474020	0.414820
Zn161	Zn16	0.829000	0.756950	0.683300
Zn171	Zn17	0.852590	0.954030	0.418700
Zn181	Zn18	0.124070	0.025980	0.914820
Zn191	Zn19	0.671000	0.256950	0.316700
Zn201	Zn20	0.647410	0.454030	0.581300
Zn211	Zn21	0.375930	0.525980	0.085180
Zn221	Zn22	0.329000	0.243050	0.816700
Zn231	Zn23	0.352590	0.045970	0.081300
Zn241	Zn24	0.624070	0.974020	0.585180
H971	H97	0.962000	0.727900	0.165100
H981	H98	0.873500	0.689200	0.129100
H991	H99	0.124800	0.648200	0.091500
H1001	H100	0.207100	0.684600	0.129400
H1011	H101	0.200400	0.583000	0.979100
H1021	H102	0.123400	0.609700	0.022100
H1031	H103	0.877900	0.548400	0.992100
H1041	H104	0.958200	0.528500	0.948300
H1051	H105	0.517400	0.538600	0.034700
H1061	H106	0.673200	0.566900	0.026200
H1071	H107	0.683900	0.610800	0.111600
H1081	H108	0.528800	0.582300	0.117900
H1091	H109	0.938900	0.919900	0.361200
H1101	H110	0.967700	0.850000	0.335100
H1111	H111	0.896800	0.772600	0.408400
H1121	H112	0.867800	0.846100	0.432500
H1131	H113	0.894800	0.580900	0.429800
H1141	H114	0.914200	0.655600	0.406300
H1151	H115	0.957400	0.584100	0.329500
H1161	H116	0.932000	0.512200	0.354500
H1171	H117	0.098600	0.662400	0.222600
H1181	H118	0.041400	0.651800	0.270100
H1191	H119	0.000200	0.796700	0.274700
H1201	H120	0.056500	0.803200	0.226900
H1211	H121	0.038000	0.772100	0.665100
H1221	H122	0.126500	0.810800	0.629100
H1231	H123	0.875200	0.851800	0.591500
H1241	H124	0.792900	0.815400	0.629400
H1251	H125	0.799600	0.917000	0.479100
H1261	H126	0.876600	0.890300	0.522100
H1271	H127	0.122100	0.951600	0.492100
H1281	H128	0.041800	0.971500	0.448300
H1291	H129	0.482600	0.961400	0.534700
H1301	H130	0.326800	0.933100	0.526200
H1311	H131	0.316100	0.889200	0.611600
H1321	H132	0.471200	0.917700	0.617900
H1331	H133	0.061100	0.580100	0.861200
H1341	H134	0.032300	0.650000	0.835100
H1351	H135	0.103200	0.727400	0.908400
H1361	H136	0.132200	0.653900	0.932500
H1371	H137	0.105200	0.919100	0.929800
H1381	H138	0.085800	0.844400	0.906300
H1391	H139	0.042600	0.915900	0.829500
H1401	H140	0.068000	0.987800	0.854500
H1411	H141	0.901400	0.837600	0.722600
H1421	H142	0.958600	0.848200	0.770100
H1431	H143	0.999800	0.703300	0.774700
H1441	H144	0.943500	0.696800	0.726900
H1451	H145	0.462000	0.272100	0.334900
H1461	H146	0.373500	0.310800	0.370900
H1471	H147	0.624800	0.351800	0.408500
H1481	H148	0.707100	0.315400	0.370600
H1491	H149	0.700400	0.417000	0.520900
H1501	H150	0.623400	0.390300	0.477900
H1511	H151	0.377900	0.451600	0.507900
H1521	H152	0.458200	0.471500	0.551700
H1531	H153	0.017400	0.461400	0.465300
H1541	H154	0.173200	0.433100	0.473800
H1551	H155	0.183900	0.389200	0.388400
H1561	H156	0.028800	0.417700	0.382100
H1571	H157	0.438900	0.080100	0.138800
H1581	H158	0.467700	0.150000	0.164900
H1591	H159	0.396800	0.227400	0.091600
H1601	H160	0.367800	0.153900	0.067500
H1611	H161	0.394800	0.419100	0.070200
H1621	H162	0.414200	0.344400	0.093700
H1631	H163	0.457400	0.415900	0.170500
H1641	H164	0.432000	0.487800	0.145500
H1651	H165	0.598600	0.337600	0.277400
H1661	H166	0.541400	0.348200	0.229900
H1671	H167	0.500200	0.203300	0.225300
H1681	H168	0.556500	0.196800	0.273100
H1691	H169	0.538000	0.227900	0.834900
H1701	H170	0.626500	0.189200	0.870900
H1711	H171	0.375200	0.148200	0.908500
H1721	H172	0.292900	0.184600	0.870600
H1731	H173	0.299600	0.083000	0.020900
H1741	H174	0.376600	0.109700	0.977900
H1751	H175	0.622100	0.048400	0.007900
H1761	H176	0.541800	0.028500	0.051700
H1771	H177	0.982600	0.038600	0.965300
H1781	H178	0.826800	0.066900	0.973800
H1791	H179	0.816100	0.110800	0.888400
H1801	H180	0.971200	0.082300	0.882100
H1811	H181	0.561100	0.419900	0.638800
H1821	H182	0.532300	0.350000	0.664900
H1831	H183	0.603200	0.272600	0.591600
H1841	H184	0.632200	0.346100	0.567500
H1851	H185	0.605200	0.080900	0.570200
H1861	H186	0.585800	0.155600	0.593700
H1871	H187	0.542600	0.084100	0.670500
H1881	H188	0.568000	0.012200	0.645500
H1891	H189	0.401400	0.162400	0.777400
H1901	H190	0.458600	0.151800	0.729900
H1911	H191	0.499800	0.296700	0.725300
H1921	H192	0.443500	0.303200	0.773100
C1451	C145	0.995600	0.710600	0.149900
C1461	C146	0.942600	0.688500	0.128400
C1471	C147	0.990100	0.664900	0.105400
C1481	C148	0.089200	0.664300	0.106700
C1491	C149	0.138000	0.686000	0.129100
C1501	C150	0.132700	0.577100	0.981300
C1511	C151	0.087700	0.592600	0.007400
C1521	C152	0.991000	0.582600	0.011100
C1531	C153	0.944100	0.557400	0.989500
C1541	C154	0.992800	0.544700	0.963700
C1551	C155	0.552000	0.553400	0.050500
C1561	C156	0.644900	0.570100	0.045300
C1571	C157	0.696800	0.591500	0.068200
C1581	C158	0.650900	0.595900	0.095400
C1591	C159	0.558700	0.578800	0.099000
C1601	C160	0.935100	0.639700	0.081500
C1611	C161	0.938500	0.600400	0.037700
C1621	C162	0.800000	0.606500	0.064000
C1631	C163	0.929100	0.889300	0.370700
C1641	C164	0.946400	0.848300	0.355100
C1651	C165	0.932500	0.803800	0.368900
C1661	C166	0.904500	0.802700	0.398200
C1671	C167	0.887900	0.846600	0.412300
C1681	C168	0.905900	0.581600	0.409000
C1691	C169	0.919100	0.626200	0.395100
C1701	C170	0.939100	0.628000	0.365400
C1711	C171	0.943700	0.584600	0.350100
C1721	C172	0.928200	0.542000	0.365200
C1731	C173	0.079900	0.690300	0.233800
C1741	C174	0.045600	0.683700	0.261900
C1751	C175	0.017100	0.723300	0.278200
C1761	C176	0.021400	0.768300	0.264500
C1771	C177	0.056000	0.772100	0.236100
C1781	C178	0.948200	0.756900	0.352300
C1791	C179	0.950400	0.675600	0.350400
C1801	C180	0.986400	0.719900	0.309900
C1811	C181	0.004400	0.789400	0.649900
C1821	C182	0.057400	0.811500	0.628400
C1831	C183	0.009900	0.835100	0.605400
C1841	C184	0.910800	0.835700	0.606700
C1851	C185	0.862000	0.814000	0.629100
C1861	C186	0.867300	0.922900	0.481300
C1871	C187	0.912300	0.907400	0.507400
C1881	C188	0.009000	0.917400	0.511100
C1891	C189	0.055900	0.942600	0.489500
C1901	C190	0.007200	0.955300	0.463700
C1911	C191	0.448000	0.946600	0.550500
C1921	C192	0.355100	0.929900	0.545300
C1931	C193	0.303200	0.908500	0.568200
C1941	C194	0.349100	0.904100	0.595400
C1951	C195	0.441300	0.921200	0.599000
C1961	C196	0.064900	0.860300	0.581500
C1971	C197	0.061500	0.899600	0.537700
C1981	C198	0.200000	0.893500	0.564000
C1991	C199	0.070900	0.610700	0.870700
C2001	C200	0.053600	0.651700	0.855100
C2011	C201	0.067500	0.696200	0.868900
C2021	C202	0.095500	0.697300	0.898200
C2031	C203	0.112100	0.653400	0.912300
C2041	C204	0.094100	0.918400	0.909000
C2051	C205	0.080900	0.873800	0.895100
C2061	C206	0.060900	0.872000	0.865400
C2071	C207	0.056300	0.915400	0.850100
C2081	C208	0.071800	0.958000	0.865200
C2091	C209	0.920100	0.809700	0.733800
C2101	C210	0.954400	0.816300	0.761900
C2111	C211	0.982900	0.776700	0.778200
C2121	C212	0.978600	0.731700	0.764500
C2131	C213	0.944000	0.727900	0.736100
C2141	C214	0.051800	0.743100	0.852300
C2151	C215	0.049600	0.824400	0.850400
C2161	C216	0.013600	0.780100	0.809900
C2171	C217	0.495600	0.289400	0.350100
C2181	C218	0.442600	0.311500	0.371600
C2191	C219	0.490100	0.335100	0.394600
C2201	C220	0.589200	0.335700	0.393300
C2211	C221	0.638000	0.314000	0.370900
C2221	C222	0.632700	0.422900	0.518700
C2231	C223	0.587700	0.407400	0.492600
C2241	C224	0.491000	0.417400	0.488900
C2251	C225	0.444100	0.442600	0.510500
C2261	C226	0.492800	0.455300	0.536300
C2271	C227	0.052000	0.446600	0.449500
C2281	C228	0.144900	0.429900	0.454700
C2291	C229	0.196800	0.408500	0.431800
C2301	C230	0.150900	0.404100	0.404600
C2311	C231	0.058700	0.421200	0.401000
C2321	C232	0.435100	0.360300	0.418500
C2331	C233	0.438500	0.399600	0.462300
C2341	C234	0.300000	0.393500	0.436000
C2351	C235	0.429100	0.110700	0.129300
C2361	C236	0.446400	0.151700	0.144900
C2371	C237	0.432500	0.196200	0.131100
C2381	C238	0.404500	0.197300	0.101800
C2391	C239	0.387900	0.153400	0.087700
C2401	C240	0.405900	0.418400	0.091000
C2411	C241	0.419100	0.373800	0.104900
C2421	C242	0.439100	0.372000	0.134600
C2431	C243	0.443700	0.415400	0.149900
C2441	C244	0.428200	0.458000	0.134800
C2451	C245	0.579900	0.309700	0.266200
C2461	C246	0.545600	0.316300	0.238100
C2471	C247	0.517100	0.276700	0.221800
C2481	C248	0.521400	0.231700	0.235500
C2491	C249	0.556000	0.227900	0.263900
C2501	C250	0.448200	0.243100	0.147700
C2511	C251	0.450400	0.324400	0.149600
C2521	C252	0.486400	0.280100	0.190100
C2531	C253	0.504400	0.210600	0.850100
C2541	C254	0.557400	0.188500	0.871600
C2551	C255	0.509900	0.164900	0.894600
C2561	C256	0.410800	0.164300	0.893300
C2571	C257	0.362000	0.186000	0.870900
C2581	C258	0.367300	0.077100	0.018700
C2591	C259	0.412300	0.092600	0.992600
C2601	C260	0.509000	0.082600	0.988900
C2611	C261	0.555900	0.057400	0.010500
C2621	C262	0.507200	0.044700	0.036300
C2631	C263	0.948000	0.053400	0.949500
C2641	C264	0.855100	0.070100	0.954700
C2651	C265	0.803200	0.091500	0.931800
C2661	C266	0.849100	0.095900	0.904600
C2671	C267	0.941300	0.078800	0.901000
C2681	C268	0.564900	0.139700	0.918500
C2691	C269	0.561500	0.100400	0.962300
C2701	C270	0.700000	0.106500	0.936000
C2711	C271	0.570900	0.389300	0.629300
C2721	C272	0.553600	0.348300	0.644900
C2731	C273	0.567500	0.303800	0.631100
C2741	C274	0.595500	0.302700	0.601800
C2751	C275	0.612100	0.346600	0.587700
C2761	C276	0.594100	0.081600	0.591000
C2771	C277	0.580900	0.126200	0.604900
C2781	C278	0.560900	0.128000	0.634600
C2791	C279	0.556300	0.084600	0.649900
C2801	C280	0.571800	0.042000	0.634800
C2811	C281	0.420100	0.190300	0.766200
C2821	C282	0.454400	0.183700	0.738100
C2831	C283	0.482900	0.223300	0.721800
C2841	C284	0.478600	0.268300	0.735500
C2851	C285	0.444000	0.272100	0.763900
C2861	C286	0.551800	0.256900	0.647700
C2871	C287	0.549600	0.175600	0.649600
C2881	C288	0.513600	0.219900	0.690100
I251	I25	0.185050	0.833700	0.172590
I261	I26	0.325680	0.693230	0.192260
I271	I27	0.329970	0.557700	0.922780
I281	I28	0.058400	0.480410	0.890380
I291	I29	0.799350	0.494080	0.465010
I301	I30	0.790380	0.425430	0.375590
I311	I31	0.814950	0.666300	0.672590
I321	I32	0.674320	0.806770	0.692260
I331	I33	0.670030	0.942300	0.422780
I341	I34	0.941600	0.019590	0.390380
I351	I35	0.200650	0.005920	0.965010
I361	I36	0.209620	0.074570	0.875590
I371	I37	0.685050	0.166300	0.327410
I381	I38	0.825680	0.306770	0.307740
I391	I39	0.829970	0.442300	0.577220
I401	I40	0.558400	0.519590	0.609620
I411	I41	0.299350	0.505920	0.034990
I421	I42	0.290380	0.574570	0.124410
I431	I43	0.314950	0.333700	0.827410
I441	I44	0.174320	0.193230	0.807740
I451	I45	0.170030	0.057700	0.077220
I461	I46	0.441600	0.980410	0.109620
I471	I47	0.700650	0.994080	0.534990
I481	I48	0.709620	0.925430	0.624410
N491	N49	0.092100	0.709200	0.150900
N501	N50	0.087300	0.554900	0.959900
N511	N51	0.507700	0.557200	0.077300
N521	N52	0.840800	0.632400	0.085400
N531	N53	0.989000	0.625100	0.057700
N541	N54	0.844500	0.588600	0.039530
N551	N55	0.898300	0.889100	0.399300
N561	N56	0.908300	0.539700	0.394100
N571	N57	0.088500	0.734300	0.221180
N581	N58	0.973700	0.761500	0.323670
N591	N59	0.938000	0.715000	0.366470
N601	N60	0.976600	0.675400	0.321440
N611	N61	0.907900	0.790800	0.650900
N621	N62	0.912700	0.945100	0.459900
N631	N63	0.492300	0.942800	0.577300
N641	N64	0.159200	0.867600	0.585400
N651	N65	0.011000	0.874900	0.557700
N661	N66	0.155500	0.911400	0.539530
N671	N67	0.101700	0.610900	0.899300
N681	N68	0.091700	0.960300	0.894100
N691	N69	0.911500	0.765700	0.721180
N701	N70	0.026300	0.738500	0.823670
N711	N71	0.062000	0.785000	0.866470
N721	N72	0.023400	0.824600	0.821440
N731	N73	0.592100	0.290800	0.349100
N741	N74	0.587300	0.445100	0.540100
N751	N75	0.007700	0.442800	0.422700
N761	N76	0.340800	0.367600	0.414600
N771	N77	0.489000	0.374900	0.442300
N781	N78	0.344500	0.411400	0.460470
N791	N79	0.398300	0.110900	0.100700
N801	N80	0.408300	0.460300	0.105900
N811	N81	0.588500	0.265700	0.278820
N821	N82	0.473700	0.238500	0.176330
N831	N83	0.438000	0.285000	0.133530
N841	N84	0.476600	0.324600	0.178560
N851	N85	0.407900	0.209200	0.849100
N861	N86	0.412700	0.054900	0.040100
N871	N87	0.992300	0.057200	0.922700
N881	N88	0.659200	0.132400	0.914600
N891	N89	0.511000	0.125100	0.942300
N901	N90	0.655500	0.088600	0.960470
N911	N91	0.601700	0.389100	0.600700
N921	N92	0.591700	0.039700	0.605900
N931	N93	0.411500	0.234300	0.778820
N941	N94	0.526300	0.261500	0.676330
N951	N95	0.562000	0.215000	0.633530
N961	N96	0.523400	0.175400	0.678560
