data_SADLIU_clean_PM
_symmetry_space_group_name_H-M	'P1'
_cell_length_a	10.241000
_cell_length_b	10.241000
_cell_length_c	14.402600
_cell_angle_alpha	90.000000
_cell_angle_beta	90.000000
_cell_angle_gamma	90.000000
_symmetry_Int_Tables_number 1

loop_
_symmetry_equiv_pos_as_xyz
'x,y,z'

loop_
_atom_site_label
_atom_site_type_symbol
_atom_site_fract_x
_atom_site_fract_y
_atom_site_fract_z
Yb11	Yb1	0.852870	0.852870	0.125000
Yb21	Yb2	0.147130	0.147130	0.625000
Yb31	Yb3	0.147130	0.852870	0.875000
Yb41	Yb4	0.852870	0.147130	0.375000
H11	H1	0.443500	0.926700	0.120200
H21	H2	0.556500	0.073300	0.620200
H31	H3	0.073300	0.443500	0.870200
H41	H4	0.926700	0.556500	0.370200
H51	H5	0.556500	0.926700	0.879800
H61	H6	0.443500	0.073300	0.379800
H71	H7	0.926700	0.443500	0.129800
H81	H8	0.073300	0.556500	0.629800
H91	H9	0.105100	0.000000	0.250000
H101	H10	0.894900	0.000000	0.750000
H111	H11	0.000000	0.105100	0.000000
H121	H12	0.000000	0.894900	0.500000
C11	C1	0.398100	0.956700	0.171900
C21	C2	0.261700	0.958600	0.171800
C31	C3	0.184200	0.915100	0.087700
C41	C4	0.601900	0.043300	0.671900
C51	C5	0.738300	0.041400	0.671800
C61	C6	0.815800	0.084900	0.587700
C71	C7	0.043300	0.398100	0.921900
C81	C8	0.041400	0.261700	0.921800
C91	C9	0.084900	0.184200	0.837700
C101	C10	0.956700	0.601900	0.421900
C111	C11	0.958600	0.738300	0.421800
C121	C12	0.915100	0.815800	0.337700
C131	C13	0.601900	0.956700	0.828100
C141	C14	0.738300	0.958600	0.828200
C151	C15	0.815800	0.915100	0.912300
C161	C16	0.398100	0.043300	0.328100
C171	C17	0.261700	0.041400	0.328200
C181	C18	0.184200	0.084900	0.412300
C191	C19	0.956700	0.398100	0.078100
C201	C20	0.958600	0.261700	0.078200
C211	C21	0.915100	0.184200	0.162300
C221	C22	0.043300	0.601900	0.578100
C231	C23	0.041400	0.738300	0.578200
C241	C24	0.084900	0.815800	0.662300
C251	C25	0.613600	0.000000	0.250000
C261	C26	0.465800	0.000000	0.250000
C271	C27	0.195900	0.000000	0.250000
C281	C28	0.386400	0.000000	0.750000
C291	C29	0.534200	0.000000	0.750000
C301	C30	0.804100	0.000000	0.750000
C311	C31	0.000000	0.613600	0.000000
C321	C32	0.000000	0.465800	0.000000
C331	C33	0.000000	0.195900	0.000000
C341	C34	0.000000	0.386400	0.500000
C351	C35	0.000000	0.534200	0.500000
C361	C36	0.000000	0.804100	0.500000
O11	O1	0.667700	0.927800	0.192000
O21	O2	0.068100	0.888700	0.098700
O31	O3	0.241600	0.907800	0.011200
O41	O4	0.332300	0.072200	0.692000
O51	O5	0.931900	0.111300	0.598700
O61	O6	0.758400	0.092200	0.511200
O71	O7	0.072200	0.667700	0.942000
O81	O8	0.111300	0.068100	0.848700
O91	O9	0.092200	0.241600	0.761200
O101	O10	0.927800	0.332300	0.442000
O111	O11	0.888700	0.931900	0.348700
O121	O12	0.907800	0.758400	0.261200
O131	O13	0.332300	0.927800	0.808000
O141	O14	0.931900	0.888700	0.901300
O151	O15	0.758400	0.907800	0.988800
O161	O16	0.667700	0.072200	0.308000
O171	O17	0.068100	0.111300	0.401300
O181	O18	0.241600	0.092200	0.488800
O191	O19	0.927800	0.667700	0.058000
O201	O20	0.888700	0.068100	0.151300
O211	O21	0.907800	0.241600	0.238800
O221	O22	0.072200	0.332300	0.558000
O231	O23	0.111300	0.931900	0.651300
O241	O24	0.092200	0.758400	0.738800
