data_SAHNIZ_charged_PM
_symmetry_space_group_name_H-M	'P1'
_cell_length_a	17.847400
_cell_length_b	17.847400
_cell_length_c	18.063800
_cell_angle_alpha	90.000000
_cell_angle_beta	90.000000
_cell_angle_gamma	120.000000
_symmetry_Int_Tables_number 1

loop_
_symmetry_equiv_pos_as_xyz
'x,y,z'

loop_
_atom_site_label
_atom_site_type_symbol
_atom_site_fract_x
_atom_site_fract_y
_atom_site_fract_z
Na11	Na1	0.332640	0.394310	0.158820
Na21	Na2	0.061670	0.667360	0.158820
Na31	Na3	0.605690	0.938330	0.158820
Na41	Na4	0.667360	0.605690	0.658820
Na51	Na5	0.938330	0.332640	0.658820
Na61	Na6	0.394310	0.061670	0.658820
Na71	Na7	0.667360	0.605690	0.841180
Na81	Na8	0.938330	0.332640	0.841180
Na91	Na9	0.394310	0.061670	0.841180
Na101	Na10	0.332640	0.394310	0.341180
Na111	Na11	0.061670	0.667360	0.341180
Na121	Na12	0.605690	0.938330	0.341180
Fe11	Fe1	0.277330	0.399680	0.834690
Fe21	Fe2	0.122350	0.722670	0.834690
Fe31	Fe3	0.600320	0.877650	0.834690
Fe41	Fe4	0.722670	0.600320	0.334690
Fe51	Fe5	0.877650	0.277330	0.334690
Fe61	Fe6	0.399680	0.122350	0.334690
Fe71	Fe7	0.722670	0.600320	0.165310
Fe81	Fe8	0.877650	0.277330	0.165310
Fe91	Fe9	0.399680	0.122350	0.165310
Fe101	Fe10	0.277330	0.399680	0.665310
Fe111	Fe11	0.122350	0.722670	0.665310
Fe121	Fe12	0.600320	0.877650	0.665310
H11	H1	0.357800	0.549600	0.005000
H21	H2	0.401800	0.493300	0.994200
H31	H3	0.495600	0.583000	0.907500
H41	H4	0.464600	0.569900	0.824800
H51	H5	0.191800	0.642200	0.005000
H61	H6	0.091500	0.598200	0.994200
H71	H7	0.087400	0.504400	0.907500
H81	H8	0.105300	0.535400	0.824800
H91	H9	0.450400	0.808200	0.005000
H101	H10	0.506700	0.908500	0.994200
H111	H11	0.417000	0.912600	0.907500
H121	H12	0.430100	0.894700	0.824800
H131	H13	0.642200	0.450400	0.505000
H141	H14	0.598200	0.506700	0.494200
H151	H15	0.504400	0.417000	0.407500
H161	H16	0.535400	0.430100	0.324800
H171	H17	0.808200	0.357800	0.505000
H181	H18	0.908500	0.401800	0.494200
H191	H19	0.912600	0.495600	0.407500
H201	H20	0.894700	0.464600	0.324800
H211	H21	0.549600	0.191800	0.505000
H221	H22	0.493300	0.091500	0.494200
H231	H23	0.583000	0.087400	0.407500
H241	H24	0.569900	0.105300	0.324800
H251	H25	0.642200	0.450400	0.995000
H261	H26	0.598200	0.506700	0.005800
H271	H27	0.504400	0.417000	0.092500
H281	H28	0.535400	0.430100	0.175200
H291	H29	0.808200	0.357800	0.995000
H301	H30	0.908500	0.401800	0.005800
H311	H31	0.912600	0.495600	0.092500
H321	H32	0.894700	0.464600	0.175200
H331	H33	0.549600	0.191800	0.995000
H341	H34	0.493300	0.091500	0.005800
H351	H35	0.583000	0.087400	0.092500
H361	H36	0.569900	0.105300	0.175200
H371	H37	0.357800	0.549600	0.495000
H381	H38	0.401800	0.493300	0.505800
H391	H39	0.495600	0.583000	0.592500
H401	H40	0.464600	0.569900	0.675200
H411	H41	0.191800	0.642200	0.495000
H421	H42	0.091500	0.598200	0.505800
H431	H43	0.087400	0.504400	0.592500
H441	H44	0.105300	0.535400	0.675200
H451	H45	0.450400	0.808200	0.495000
H461	H46	0.506700	0.908500	0.505800
H471	H47	0.417000	0.912600	0.592500
H481	H48	0.430100	0.894700	0.675200
C11	C1	0.262000	0.577400	0.905600
C21	C2	0.350800	0.595900	0.877800
C31	C3	0.354600	0.501300	0.977600
C41	C4	0.270400	0.421200	0.995200
C51	C5	0.452500	0.542700	0.873200
C61	C6	0.458300	0.460600	0.869200
C71	C7	0.315400	0.738000	0.905600
C81	C8	0.245100	0.649200	0.877800
C91	C9	0.146700	0.645400	0.977600
C101	C10	0.150800	0.729600	0.995200
C111	C11	0.090200	0.547500	0.873200
C121	C12	0.002300	0.541700	0.869200
C131	C13	0.422600	0.684600	0.905600
C141	C14	0.404100	0.754900	0.877800
C151	C15	0.498700	0.853300	0.977600
C161	C16	0.578800	0.849200	0.995200
C171	C17	0.457300	0.909800	0.873200
C181	C18	0.539400	0.997700	0.869200
C191	C19	0.738000	0.422600	0.405600
C201	C20	0.649200	0.404100	0.377800
C211	C21	0.645400	0.498700	0.477600
C221	C22	0.729600	0.578800	0.495200
C231	C23	0.547500	0.457300	0.373200
C241	C24	0.541700	0.539400	0.369200
C251	C25	0.684600	0.262000	0.405600
C261	C26	0.754900	0.350800	0.377800
C271	C27	0.853300	0.354600	0.477600
C281	C28	0.849200	0.270400	0.495200
C291	C29	0.909800	0.452500	0.373200
C301	C30	0.997700	0.458300	0.369200
C311	C31	0.577400	0.315400	0.405600
C321	C32	0.595900	0.245100	0.377800
C331	C33	0.501300	0.146700	0.477600
C341	C34	0.421200	0.150800	0.495200
C351	C35	0.542700	0.090200	0.373200
C361	C36	0.460600	0.002300	0.369200
C371	C37	0.738000	0.422600	0.094400
C381	C38	0.649200	0.404100	0.122200
C391	C39	0.645400	0.498700	0.022400
C401	C40	0.729600	0.578800	0.004800
C411	C41	0.547500	0.457300	0.126800
C421	C42	0.541700	0.539400	0.130800
C431	C43	0.684600	0.262000	0.094400
C441	C44	0.754900	0.350800	0.122200
C451	C45	0.853300	0.354600	0.022400
C461	C46	0.849200	0.270400	0.004800
C471	C47	0.909800	0.452500	0.126800
C481	C48	0.997700	0.458300	0.130800
C491	C49	0.577400	0.315400	0.094400
C501	C50	0.595900	0.245100	0.122200
C511	C51	0.501300	0.146700	0.022400
C521	C52	0.421200	0.150800	0.004800
C531	C53	0.542700	0.090200	0.126800
C541	C54	0.460600	0.002300	0.130800
C551	C55	0.262000	0.577400	0.594400
C561	C56	0.350800	0.595900	0.622200
C571	C57	0.354600	0.501300	0.522400
C581	C58	0.270400	0.421200	0.504800
C591	C59	0.452500	0.542700	0.626800
C601	C60	0.458300	0.460600	0.630800
C611	C61	0.315400	0.738000	0.594400
C621	C62	0.245100	0.649200	0.622200
C631	C63	0.146700	0.645400	0.522400
C641	C64	0.150800	0.729600	0.504800
C651	C65	0.090200	0.547500	0.626800
C661	C66	0.002300	0.541700	0.630800
C671	C67	0.422600	0.684600	0.594400
C681	C68	0.404100	0.754900	0.622200
C691	C69	0.498700	0.853300	0.522400
C701	C70	0.578800	0.849200	0.504800
C711	C71	0.457300	0.909800	0.626800
C721	C72	0.539400	0.997700	0.630800
C731	C73	0.126000	0.393100	0.750000
C741	C74	0.197800	0.234300	0.750000
C751	C75	0.267100	0.874000	0.750000
C761	C76	0.036500	0.802200	0.750000
C771	C77	0.606900	0.732900	0.750000
C781	C78	0.765700	0.963500	0.750000
C791	C79	0.874000	0.606900	0.250000
C801	C80	0.802200	0.765700	0.250000
C811	C81	0.732900	0.126000	0.250000
C821	C82	0.963500	0.197800	0.250000
C831	C83	0.393100	0.267100	0.250000
C841	C84	0.234300	0.036500	0.250000
N11	N1	0.366300	0.523400	0.897500
N21	N2	0.157100	0.633700	0.897500
N31	N3	0.476600	0.842900	0.897500
N41	N4	0.633700	0.476600	0.397500
N51	N5	0.842900	0.366300	0.397500
N61	N6	0.523400	0.157100	0.397500
N71	N7	0.633700	0.476600	0.102500
N81	N8	0.842900	0.366300	0.102500
N91	N9	0.523400	0.157100	0.102500
N101	N10	0.366300	0.523400	0.602500
N111	N11	0.157100	0.633700	0.602500
N121	N12	0.476600	0.842900	0.602500
O11	O1	0.229300	0.370700	0.942080
O21	O2	0.246000	0.408400	0.061200
O31	O3	0.386800	0.389000	0.866590
O41	O4	0.531400	0.468500	0.867400
O51	O5	0.165020	0.397320	0.812580
O61	O6	0.223000	0.273500	0.812000
O71	O7	0.333000	0.294000	0.079100
O81	O8	0.141400	0.770700	0.942080
O91	O9	0.162400	0.754000	0.061200
O101	O10	0.002200	0.613200	0.866590
O111	O11	0.937100	0.468600	0.867400
O121	O12	0.232300	0.834980	0.812580
O131	O13	0.050500	0.777000	0.812000
O141	O14	0.961000	0.667000	0.079100
O151	O15	0.629300	0.858600	0.942080
O161	O16	0.591600	0.837600	0.061200
O171	O17	0.611000	0.997800	0.866590
O181	O18	0.531500	0.062900	0.867400
O191	O19	0.602680	0.767700	0.812580
O201	O20	0.726500	0.949500	0.812000
O211	O21	0.706000	0.039000	0.079100
O221	O22	0.770700	0.629300	0.442080
O231	O23	0.754000	0.591600	0.561200
O241	O24	0.613200	0.611000	0.366590
O251	O25	0.468600	0.531500	0.367400
O261	O26	0.834980	0.602680	0.312580
O271	O27	0.777000	0.726500	0.312000
O281	O28	0.667000	0.706000	0.579100
O291	O29	0.858600	0.229300	0.442080
O301	O30	0.837600	0.246000	0.561200
O311	O31	0.997800	0.386800	0.366590
O321	O32	0.062900	0.531400	0.367400
O331	O33	0.767700	0.165020	0.312580
O341	O34	0.949500	0.223000	0.312000
O351	O35	0.039000	0.333000	0.579100
O361	O36	0.370700	0.141400	0.442080
O371	O37	0.408400	0.162400	0.561200
O381	O38	0.389000	0.002200	0.366590
O391	O39	0.468500	0.937100	0.367400
O401	O40	0.397320	0.232300	0.312580
O411	O41	0.273500	0.050500	0.312000
O421	O42	0.294000	0.961000	0.579100
O431	O43	0.770700	0.629300	0.057920
O441	O44	0.754000	0.591600	0.938800
O451	O45	0.613200	0.611000	0.133410
O461	O46	0.468600	0.531500	0.132600
O471	O47	0.834980	0.602680	0.187420
O481	O48	0.777000	0.726500	0.188000
O491	O49	0.667000	0.706000	0.920900
O501	O50	0.858600	0.229300	0.057920
O511	O51	0.837600	0.246000	0.938800
O521	O52	0.997800	0.386800	0.133410
O531	O53	0.062900	0.531400	0.132600
O541	O54	0.767700	0.165020	0.187420
O551	O55	0.949500	0.223000	0.188000
O561	O56	0.039000	0.333000	0.920900
O571	O57	0.370700	0.141400	0.057920
O581	O58	0.408400	0.162400	0.938800
O591	O59	0.389000	0.002200	0.133410
O601	O60	0.468500	0.937100	0.132600
O611	O61	0.397320	0.232300	0.187420
O621	O62	0.273500	0.050500	0.188000
O631	O63	0.294000	0.961000	0.920900
O641	O64	0.229300	0.370700	0.557920
O651	O65	0.246000	0.408400	0.438800
O661	O66	0.386800	0.389000	0.633410
O671	O67	0.531400	0.468500	0.632600
O681	O68	0.165020	0.397320	0.687420
O691	O69	0.223000	0.273500	0.688000
O701	O70	0.333000	0.294000	0.420900
O711	O71	0.141400	0.770700	0.557920
O721	O72	0.162400	0.754000	0.438800
O731	O73	0.002200	0.613200	0.633410
O741	O74	0.937100	0.468600	0.632600
O751	O75	0.232300	0.834980	0.687420
O761	O76	0.050500	0.777000	0.688000
O771	O77	0.961000	0.667000	0.420900
O781	O78	0.629300	0.858600	0.557920
O791	O79	0.591600	0.837600	0.438800
O801	O80	0.611000	0.997800	0.633410
O811	O81	0.531500	0.062900	0.632600
O821	O82	0.602680	0.767700	0.687420
O831	O83	0.726500	0.949500	0.688000
O841	O84	0.706000	0.039000	0.420900
O851	O85	0.053000	0.386100	0.750000
O861	O86	0.128400	0.156600	0.750000
O871	O87	0.328000	0.453900	0.750000
O881	O88	0.333100	0.947000	0.750000
O891	O89	0.028200	0.871600	0.750000
O901	O90	0.125900	0.672000	0.750000
O911	O91	0.613900	0.666900	0.750000
O921	O92	0.843400	0.971800	0.750000
O931	O93	0.546100	0.874100	0.750000
O941	O94	0.947000	0.613900	0.250000
O951	O95	0.871600	0.843400	0.250000
O961	O96	0.672000	0.546100	0.250000
O971	O97	0.666900	0.053000	0.250000
O981	O98	0.971800	0.128400	0.250000
O991	O99	0.874100	0.328000	0.250000
O1001	O100	0.386100	0.333100	0.250000
O1011	O101	0.156600	0.028200	0.250000
O1021	O102	0.453900	0.125900	0.250000
O1031	O103	0.287200	0.451200	0.250000
O1041	O104	0.164000	0.712800	0.250000
O1051	O105	0.548800	0.836000	0.250000
O1061	O106	0.712800	0.548800	0.750000
O1071	O107	0.836000	0.287200	0.750000
O1081	O108	0.451200	0.164000	0.750000
