data_SAHXAD_clean_PM
_symmetry_space_group_name_H-M	'P1'
_cell_length_a	20.137000
_cell_length_b	10.702000
_cell_length_c	11.418000
_cell_angle_alpha	90.000000
_cell_angle_beta	90.000000
_cell_angle_gamma	90.000000
_symmetry_Int_Tables_number 1

loop_
_symmetry_equiv_pos_as_xyz
'x,y,z'

loop_
_atom_site_label
_atom_site_type_symbol
_atom_site_fract_x
_atom_site_fract_y
_atom_site_fract_z
Zn11	Zn1	0.078950	0.129130	0.455510
C11	C1	0.103500	0.896400	0.342600
C21	C2	0.142000	0.825700	0.250900
C31	C3	0.124700	0.707400	0.211100
C41	C4	0.169600	0.643900	0.139200
H11	H1	0.159400	0.563400	0.114500
C51	C5	0.228000	0.696300	0.104300
H21	H2	0.256300	0.653100	0.054300
C61	C6	0.245200	0.816800	0.144700
C71	C7	0.203500	0.877900	0.215800
H31	H3	0.215200	0.956800	0.242900
C81	C8	0.309600	0.873100	0.103600
C91	C9	0.060700	0.645400	0.240200
C101	C10	0.060800	0.522900	0.282900
H41	H4	0.100800	0.482500	0.297900
O11	O1	0.073700	0.838300	0.418900
O21	O2	0.104700	0.016200	0.331700
O31	O3	0.322000	0.982600	0.135700
O41	O4	0.346200	0.808700	0.038800
O51	O5	0.055200	0.282800	0.370500
Zn21	Zn2	0.421050	0.870870	0.955510
C111	C11	0.396500	0.103600	0.842600
C121	C12	0.358000	0.174300	0.750900
C131	C13	0.375300	0.292600	0.711100
C141	C14	0.330400	0.356100	0.639200
H51	H5	0.340600	0.436600	0.614500
C151	C15	0.272000	0.303700	0.604300
H61	H6	0.243700	0.346900	0.554300
C161	C16	0.254800	0.183200	0.644700
C171	C17	0.296500	0.122100	0.715800
H71	H7	0.284800	0.043200	0.742900
C181	C18	0.190400	0.126900	0.603600
C191	C19	0.439300	0.354600	0.740200
C201	C20	0.439200	0.477100	0.782900
H81	H8	0.399200	0.517500	0.797900
O61	O6	0.426300	0.161700	0.918900
O71	O7	0.395300	0.983800	0.831700
O81	O8	0.178000	0.017400	0.635700
O91	O9	0.153800	0.191300	0.538800
O101	O10	0.444800	0.717200	0.870500
Zn31	Zn3	0.578950	0.870870	0.955510
C211	C21	0.603500	0.103600	0.842600
C221	C22	0.642000	0.174300	0.750900
C231	C23	0.624700	0.292600	0.711100
C241	C24	0.669600	0.356100	0.639200
H91	H9	0.659400	0.436600	0.614500
C251	C25	0.728000	0.303700	0.604300
H101	H10	0.756300	0.346900	0.554300
C261	C26	0.745200	0.183200	0.644700
C271	C27	0.703500	0.122100	0.715800
H111	H11	0.715200	0.043200	0.742900
C281	C28	0.809600	0.126900	0.603600
C291	C29	0.560700	0.354600	0.740200
C301	C30	0.560800	0.477100	0.782900
H121	H12	0.600800	0.517500	0.797900
O111	O11	0.573700	0.161700	0.918900
O121	O12	0.604700	0.983800	0.831700
O131	O13	0.822000	0.017400	0.635700
O141	O14	0.846200	0.191300	0.538800
O151	O15	0.555200	0.717200	0.870500
Zn41	Zn4	0.921050	0.129130	0.455510
C311	C31	0.896500	0.896400	0.342600
C321	C32	0.858000	0.825700	0.250900
C331	C33	0.875300	0.707400	0.211100
C341	C34	0.830400	0.643900	0.139200
H131	H13	0.840600	0.563400	0.114500
C351	C35	0.772000	0.696300	0.104300
H141	H14	0.743700	0.653100	0.054300
C361	C36	0.754800	0.816800	0.144700
C371	C37	0.796500	0.877900	0.215800
H151	H15	0.784800	0.956800	0.242900
C381	C38	0.690400	0.873100	0.103600
C391	C39	0.939300	0.645400	0.240200
C401	C40	0.939200	0.522900	0.282900
H161	H16	0.899200	0.482500	0.297900
O161	O16	0.926300	0.838300	0.418900
O171	O17	0.895300	0.016200	0.331700
O181	O18	0.678000	0.982600	0.135700
O191	O19	0.653800	0.808700	0.038800
O201	O20	0.944800	0.282800	0.370500
Zn51	Zn5	0.000000	0.860700	0.545700
C411	C41	0.000000	0.706200	0.220400
H171	H17	0.000000	0.788300	0.193600
C421	C42	0.000000	0.460500	0.303200
C431	C43	0.000000	0.334700	0.351700
O211	O21	0.000000	0.062700	0.534200
H181	H18	0.000000	0.108700	0.591900
Zn61	Zn6	0.500000	0.139300	0.045700
C441	C44	0.500000	0.293800	0.720400
H191	H19	0.500000	0.211700	0.693600
C451	C45	0.500000	0.539500	0.803200
C461	C46	0.500000	0.665300	0.851700
O221	O22	0.500000	0.937300	0.034200
H201	H20	0.500000	0.891300	0.091900
