data_SAHYAD03_charged_PM
_symmetry_space_group_name_H-M	'P1'
_cell_length_a	15.863300
_cell_length_b	15.863300
_cell_length_c	21.586000
_cell_angle_alpha	90.000000
_cell_angle_beta	90.000000
_cell_angle_gamma	90.000000
_symmetry_Int_Tables_number 1

loop_
_symmetry_equiv_pos_as_xyz
'x,y,z'

loop_
_atom_site_label
_atom_site_type_symbol
_atom_site_fract_x
_atom_site_fract_y
_atom_site_fract_z
Cd11	Cd1	0.440950	0.559050	0.250000
Cd21	Cd2	0.559050	0.440950	0.750000
Cd31	Cd3	0.940950	0.940950	0.500000
Cd41	Cd4	0.059050	0.059050	0.000000
H11	H1	0.389600	0.537400	0.098000
H21	H2	0.285900	0.585900	0.032400
H31	H3	0.260600	0.788100	0.145000
H41	H4	0.359200	0.730400	0.209200
H51	H5	0.200000	0.649100	0.968500
H61	H6	0.085900	0.698200	0.914300
H71	H7	0.993000	0.796900	0.957500
H81	H8	0.139800	0.803200	0.111500
H91	H9	0.880700	0.045900	0.210000
H101	H10	0.768900	0.064500	0.279600
H111	H11	0.663700	0.963600	0.287500
H121	H12	0.776300	0.825400	0.154600
H131	H13	0.601200	0.847700	0.314800
H141	H14	0.506900	0.738200	0.324200
H151	H15	0.560000	0.657600	0.157000
H161	H16	0.655100	0.765400	0.142100
H171	H17	0.971000	0.742500	0.144600
H181	H18	0.913500	0.740100	0.097800
H191	H19	0.610400	0.462600	0.598000
H201	H20	0.714100	0.414100	0.532400
H211	H21	0.739400	0.211900	0.645000
H221	H22	0.640800	0.269600	0.709200
H231	H23	0.800000	0.350900	0.468500
H241	H24	0.914100	0.301800	0.414300
H251	H25	0.007000	0.203100	0.457500
H261	H26	0.860200	0.196800	0.611500
H271	H27	0.119300	0.954100	0.710000
H281	H28	0.231100	0.935500	0.779600
H291	H29	0.336300	0.036400	0.787500
H301	H30	0.223700	0.174600	0.654600
H311	H31	0.398800	0.152300	0.814800
H321	H32	0.493100	0.261800	0.824200
H331	H33	0.440000	0.342400	0.657000
H341	H34	0.344900	0.234600	0.642100
H351	H35	0.029000	0.257500	0.644600
H361	H36	0.086500	0.259900	0.597800
H371	H37	0.962600	0.889600	0.348000
H381	H38	0.914100	0.785900	0.282400
H391	H39	0.711900	0.760600	0.395000
H401	H40	0.769600	0.859200	0.459200
H411	H41	0.850900	0.700000	0.218500
H421	H42	0.801800	0.585900	0.164300
H431	H43	0.703100	0.493000	0.207500
H441	H44	0.696800	0.639800	0.361500
H451	H45	0.454100	0.380700	0.460000
H461	H46	0.435500	0.268900	0.529600
H471	H47	0.536400	0.163700	0.537500
H481	H48	0.674600	0.276300	0.404600
H491	H49	0.652300	0.101200	0.564800
H501	H50	0.761800	0.006900	0.574200
H511	H51	0.842400	0.060000	0.407000
H521	H52	0.734600	0.155100	0.392100
H531	H53	0.757500	0.471000	0.394600
H541	H54	0.759900	0.413500	0.347800
H551	H55	0.037400	0.110400	0.848000
H561	H56	0.085900	0.214100	0.782400
H571	H57	0.288100	0.239400	0.895000
H581	H58	0.230400	0.140800	0.959200
H591	H59	0.149100	0.300000	0.718500
H601	H60	0.198200	0.414100	0.664300
H611	H61	0.296900	0.507000	0.707500
H621	H62	0.303200	0.360200	0.861500
H631	H63	0.545900	0.619300	0.960000
H641	H64	0.564500	0.731100	0.029600
H651	H65	0.463600	0.836300	0.037500
H661	H66	0.325400	0.723700	0.904600
H671	H67	0.347700	0.898800	0.064800
H681	H68	0.238200	0.993100	0.074200
H691	H69	0.157600	0.940000	0.907000
H701	H70	0.265400	0.844900	0.892100
H711	H71	0.242500	0.529000	0.894600
H721	H72	0.240100	0.586500	0.847800
H731	H73	0.110400	0.037400	0.152000
H741	H74	0.214100	0.085900	0.217600
H751	H75	0.239400	0.288100	0.105000
H761	H76	0.140800	0.230400	0.040800
H771	H77	0.300000	0.149100	0.281500
H781	H78	0.414100	0.198200	0.335700
H791	H79	0.507000	0.296900	0.292500
H801	H80	0.360200	0.303200	0.138500
H811	H81	0.619300	0.545900	0.040000
H821	H82	0.731100	0.564500	0.970400
H831	H83	0.836300	0.463600	0.962500
H841	H84	0.723700	0.325400	0.095400
H851	H85	0.898800	0.347700	0.935200
H861	H86	0.993100	0.238200	0.925800
H871	H87	0.940000	0.157600	0.093000
H881	H88	0.844900	0.265400	0.107900
H891	H89	0.529000	0.242500	0.105400
H901	H90	0.586500	0.240100	0.152200
H911	H91	0.889600	0.962600	0.652000
H921	H92	0.785900	0.914100	0.717600
H931	H93	0.760600	0.711900	0.605000
H941	H94	0.859200	0.769600	0.540800
H951	H95	0.700000	0.850900	0.781500
H961	H96	0.585900	0.801800	0.835700
H971	H97	0.493000	0.703100	0.792500
H981	H98	0.639800	0.696800	0.638500
H991	H99	0.380700	0.454100	0.540000
H1001	H100	0.268900	0.435500	0.470400
H1011	H101	0.163700	0.536400	0.462500
H1021	H102	0.276300	0.674600	0.595400
H1031	H103	0.101200	0.652300	0.435200
H1041	H104	0.006900	0.761800	0.425800
H1051	H105	0.060000	0.842400	0.593000
H1061	H106	0.155100	0.734600	0.607900
H1071	H107	0.471000	0.757500	0.605400
H1081	H108	0.413500	0.759900	0.652200
H1091	H109	0.537400	0.389600	0.902000
H1101	H110	0.585900	0.285900	0.967600
H1111	H111	0.788100	0.260600	0.855000
H1121	H112	0.730400	0.359200	0.790800
H1131	H113	0.649100	0.200000	0.031500
H1141	H114	0.698200	0.085900	0.085700
H1151	H115	0.796900	0.993000	0.042500
H1161	H116	0.803200	0.139800	0.888500
H1171	H117	0.045900	0.880700	0.790000
H1181	H118	0.064500	0.768900	0.720400
H1191	H119	0.963600	0.663700	0.712500
H1201	H120	0.825400	0.776300	0.845400
H1211	H121	0.847700	0.601200	0.685200
H1221	H122	0.738200	0.506900	0.675800
H1231	H123	0.657600	0.560000	0.843000
H1241	H124	0.765400	0.655100	0.857900
H1251	H125	0.742500	0.971000	0.855400
H1261	H126	0.740100	0.913500	0.902200
H1271	H127	0.462600	0.610400	0.402000
H1281	H128	0.414100	0.714100	0.467600
H1291	H129	0.211900	0.739400	0.355000
H1301	H130	0.269600	0.640800	0.290800
H1311	H131	0.350900	0.800000	0.531500
H1321	H132	0.301800	0.914100	0.585700
H1331	H133	0.203100	0.007000	0.542500
H1341	H134	0.196800	0.860200	0.388500
H1351	H135	0.954100	0.119300	0.290000
H1361	H136	0.935500	0.231100	0.220400
H1371	H137	0.036400	0.336300	0.212500
H1381	H138	0.174600	0.223700	0.345400
H1391	H139	0.152300	0.398800	0.185200
H1401	H140	0.261800	0.493100	0.175800
H1411	H141	0.342400	0.440000	0.343000
H1421	H142	0.234600	0.344900	0.357900
H1431	H143	0.257500	0.029000	0.355400
H1441	H144	0.259900	0.086500	0.402200
C11	C1	0.360200	0.587300	0.109000
C21	C2	0.298600	0.616200	0.069200
C31	C3	0.255100	0.690200	0.083100
C41	C4	0.283400	0.734200	0.135600
C51	C5	0.343300	0.699800	0.173200
C61	C6	0.182800	0.721000	0.046200
C71	C7	0.164500	0.690400	0.986700
C81	C8	0.096200	0.719300	0.954800
C91	C9	0.041400	0.778600	0.979700
C101	C10	0.060000	0.810400	0.038600
C111	C11	0.128900	0.781500	0.071300
C121	C12	0.003800	0.872700	0.069400
C131	C13	0.909200	0.923900	0.132000
C141	C14	0.838800	0.932500	0.176500
C151	C15	0.837300	0.004800	0.213200
C161	C16	0.771100	0.015500	0.254300
C171	C17	0.708400	0.955400	0.258900
C181	C18	0.709300	0.883500	0.222600
C191	C19	0.775200	0.873600	0.180700
C201	C20	0.642500	0.818000	0.228100
C211	C21	0.594800	0.808800	0.281700
C221	C22	0.538300	0.743300	0.286900
C231	C23	0.569000	0.696500	0.189700
C241	C24	0.626500	0.760500	0.180600
C251	C25	0.639800	0.412700	0.609000
C261	C26	0.701400	0.383800	0.569200
C271	C27	0.744900	0.309800	0.583100
C281	C28	0.716600	0.265800	0.635600
C291	C29	0.656700	0.300200	0.673200
C301	C30	0.817200	0.279000	0.546200
C311	C31	0.835500	0.309600	0.486700
C321	C32	0.903800	0.280700	0.454800
C331	C33	0.958600	0.221400	0.479700
C341	C34	0.940000	0.189600	0.538600
C351	C35	0.871100	0.218500	0.571300
C361	C36	0.996200	0.127300	0.569400
C371	C37	0.090800	0.076100	0.632000
C381	C38	0.161200	0.067500	0.676500
C391	C39	0.162700	0.995200	0.713200
C401	C40	0.228900	0.984500	0.754300
C411	C41	0.291600	0.044600	0.758900
C421	C42	0.290700	0.116500	0.722600
C431	C43	0.224800	0.126400	0.680700
C441	C44	0.357500	0.182000	0.728100
C451	C45	0.405200	0.191200	0.781700
C461	C46	0.461700	0.256700	0.786900
C471	C47	0.431000	0.303500	0.689700
C481	C48	0.373500	0.239500	0.680600
C491	C49	0.912700	0.860200	0.359000
C501	C50	0.883800	0.798600	0.319200
C511	C51	0.809800	0.755100	0.333100
C521	C52	0.765800	0.783400	0.385600
C531	C53	0.800200	0.843300	0.423200
C541	C54	0.779000	0.682800	0.296200
C551	C55	0.809600	0.664500	0.236700
C561	C56	0.780700	0.596200	0.204800
C571	C57	0.721400	0.541400	0.229700
C581	C58	0.689600	0.560000	0.288600
C591	C59	0.718500	0.628900	0.321300
C601	C60	0.627300	0.503800	0.319400
C611	C61	0.576100	0.409200	0.382000
C621	C62	0.567500	0.338800	0.426500
C631	C63	0.495200	0.337300	0.463200
C641	C64	0.484500	0.271100	0.504300
C651	C65	0.544600	0.208400	0.508900
C661	C66	0.616500	0.209300	0.472600
C671	C67	0.626400	0.275200	0.430700
C681	C68	0.682000	0.142500	0.478100
C691	C69	0.691200	0.094800	0.531700
C701	C70	0.756700	0.038300	0.536900
C711	C71	0.803500	0.069000	0.439700
C721	C72	0.739500	0.126500	0.430600
C731	C73	0.087300	0.139800	0.859000
C741	C74	0.116200	0.201400	0.819200
C751	C75	0.190200	0.244900	0.833100
C761	C76	0.234200	0.216600	0.885600
C771	C77	0.199800	0.156700	0.923200
C781	C78	0.221000	0.317200	0.796200
C791	C79	0.190400	0.335500	0.736700
C801	C80	0.219300	0.403800	0.704800
C811	C81	0.278600	0.458600	0.729700
C821	C82	0.310400	0.440000	0.788600
C831	C83	0.281500	0.371100	0.821300
C841	C84	0.372700	0.496200	0.819400
C851	C85	0.423900	0.590800	0.882000
C861	C86	0.432500	0.661200	0.926500
C871	C87	0.504800	0.662700	0.963200
C881	C88	0.515500	0.728900	0.004300
C891	C89	0.455400	0.791600	0.008900
C901	C90	0.383500	0.790700	0.972600
C911	C91	0.373600	0.724800	0.930700
C921	C92	0.318000	0.857500	0.978100
C931	C93	0.308800	0.905200	0.031700
C941	C94	0.243300	0.961700	0.036900
C951	C95	0.196500	0.931000	0.939700
C961	C96	0.260500	0.873500	0.930600
C971	C97	0.139800	0.087300	0.141000
C981	C98	0.201400	0.116200	0.180800
C991	C99	0.244900	0.190200	0.166900
C1001	C100	0.216600	0.234200	0.114400
C1011	C101	0.156700	0.199800	0.076800
C1021	C102	0.317200	0.221000	0.203800
C1031	C103	0.335500	0.190400	0.263300
C1041	C104	0.403800	0.219300	0.295200
C1051	C105	0.458600	0.278600	0.270300
C1061	C106	0.440000	0.310400	0.211400
C1071	C107	0.371100	0.281500	0.178700
C1081	C108	0.496200	0.372700	0.180600
C1091	C109	0.590800	0.423900	0.118000
C1101	C110	0.661200	0.432500	0.073500
C1111	C111	0.662700	0.504800	0.036800
C1121	C112	0.728900	0.515500	0.995700
C1131	C113	0.791600	0.455400	0.991100
C1141	C114	0.790700	0.383500	0.027400
C1151	C115	0.724800	0.373600	0.069300
C1161	C116	0.857500	0.318000	0.021900
C1171	C117	0.905200	0.308800	0.968300
C1181	C118	0.961700	0.243300	0.963100
C1191	C119	0.931000	0.196500	0.060300
C1201	C120	0.873500	0.260500	0.069400
C1211	C121	0.860200	0.912700	0.641000
C1221	C122	0.798600	0.883800	0.680800
C1231	C123	0.755100	0.809800	0.666900
C1241	C124	0.783400	0.765800	0.614400
C1251	C125	0.843300	0.800200	0.576800
C1261	C126	0.682800	0.779000	0.703800
C1271	C127	0.664500	0.809600	0.763300
C1281	C128	0.596200	0.780700	0.795200
C1291	C129	0.541400	0.721400	0.770300
C1301	C130	0.560000	0.689600	0.711400
C1311	C131	0.628900	0.718500	0.678700
C1321	C132	0.503800	0.627300	0.680600
C1331	C133	0.409200	0.576100	0.618000
C1341	C134	0.338800	0.567500	0.573500
C1351	C135	0.337300	0.495200	0.536800
C1361	C136	0.271100	0.484500	0.495700
C1371	C137	0.208400	0.544600	0.491100
C1381	C138	0.209300	0.616500	0.527400
C1391	C139	0.275200	0.626400	0.569300
C1401	C140	0.142500	0.682000	0.521900
C1411	C141	0.094800	0.691200	0.468300
C1421	C142	0.038300	0.756700	0.463100
C1431	C143	0.069000	0.803500	0.560300
C1441	C144	0.126500	0.739500	0.569400
C1451	C145	0.587300	0.360200	0.891000
C1461	C146	0.616200	0.298600	0.930800
C1471	C147	0.690200	0.255100	0.916900
C1481	C148	0.734200	0.283400	0.864400
C1491	C149	0.699800	0.343300	0.826800
C1501	C150	0.721000	0.182800	0.953800
C1511	C151	0.690400	0.164500	0.013300
C1521	C152	0.719300	0.096200	0.045200
C1531	C153	0.778600	0.041400	0.020300
C1541	C154	0.810400	0.060000	0.961400
C1551	C155	0.781500	0.128900	0.928700
C1561	C156	0.872700	0.003800	0.930600
C1571	C157	0.923900	0.909200	0.868000
C1581	C158	0.932500	0.838800	0.823500
C1591	C159	0.004800	0.837300	0.786800
C1601	C160	0.015500	0.771100	0.745700
C1611	C161	0.955400	0.708400	0.741100
C1621	C162	0.883500	0.709300	0.777400
C1631	C163	0.873600	0.775200	0.819300
C1641	C164	0.818000	0.642500	0.771900
C1651	C165	0.808800	0.594800	0.718300
C1661	C166	0.743300	0.538300	0.713100
C1671	C167	0.696500	0.569000	0.810300
C1681	C168	0.760500	0.626500	0.819400
C1691	C169	0.412700	0.639800	0.391000
C1701	C170	0.383800	0.701400	0.430800
C1711	C171	0.309800	0.744900	0.416900
C1721	C172	0.265800	0.716600	0.364400
C1731	C173	0.300200	0.656700	0.326800
C1741	C174	0.279000	0.817200	0.453800
C1751	C175	0.309600	0.835500	0.513300
C1761	C176	0.280700	0.903800	0.545200
C1771	C177	0.221400	0.958600	0.520300
C1781	C178	0.189600	0.940000	0.461400
C1791	C179	0.218500	0.871100	0.428700
C1801	C180	0.127300	0.996200	0.430600
C1811	C181	0.076100	0.090800	0.368000
C1821	C182	0.067500	0.161200	0.323500
C1831	C183	0.995200	0.162700	0.286800
C1841	C184	0.984500	0.228900	0.245700
C1851	C185	0.044600	0.291600	0.241100
C1861	C186	0.116500	0.290700	0.277400
C1871	C187	0.126400	0.224800	0.319300
C1881	C188	0.182000	0.357500	0.271900
C1891	C189	0.191200	0.405200	0.218300
C1901	C190	0.256700	0.461700	0.213100
C1911	C191	0.303500	0.431000	0.310300
C1921	C192	0.239500	0.373500	0.319400
N11	N1	0.381200	0.625700	0.162500
N21	N2	0.006400	0.955900	0.065500
N31	N3	0.945800	0.988300	0.104500
N41	N4	0.944000	0.850900	0.111200
N51	N5	0.925600	0.769100	0.131700
N61	N6	0.525400	0.686300	0.242100
N71	N7	0.618800	0.374300	0.662500
N81	N8	0.993600	0.044100	0.565500
N91	N9	0.054200	0.011700	0.604500
N101	N10	0.056000	0.149100	0.611200
N111	N11	0.074400	0.230900	0.631700
N121	N12	0.474600	0.313700	0.742100
N131	N13	0.874300	0.881200	0.412500
N141	N14	0.544100	0.506400	0.315500
N151	N15	0.511700	0.445800	0.354500
N161	N16	0.649100	0.444000	0.361200
N171	N17	0.730900	0.425600	0.381700
N181	N18	0.813700	0.025400	0.492100
N191	N19	0.125700	0.118800	0.912500
N201	N20	0.455900	0.493600	0.815500
N211	N21	0.488300	0.554200	0.854500
N221	N22	0.350900	0.556000	0.861200
N231	N23	0.269100	0.574400	0.881700
N241	N24	0.186300	0.974600	0.992100
N251	N25	0.118800	0.125700	0.087500
N261	N26	0.493600	0.455900	0.184500
N271	N27	0.554200	0.488300	0.145500
N281	N28	0.556000	0.350900	0.138800
N291	N29	0.574400	0.269100	0.118300
N301	N30	0.974600	0.186300	0.007900
N311	N31	0.881200	0.874300	0.587500
N321	N32	0.506400	0.544100	0.684500
N331	N33	0.445800	0.511700	0.645500
N341	N34	0.444000	0.649100	0.638800
N351	N35	0.425600	0.730900	0.618300
N361	N36	0.025400	0.813700	0.507900
N371	N37	0.625700	0.381200	0.837500
N381	N38	0.955900	0.006400	0.934500
N391	N39	0.988300	0.945800	0.895500
N401	N40	0.850900	0.944000	0.888800
N411	N41	0.769100	0.925600	0.868300
N421	N42	0.686300	0.525400	0.757900
N431	N43	0.374300	0.618800	0.337500
N441	N44	0.044100	0.993600	0.434500
N451	N45	0.011700	0.054200	0.395500
N461	N46	0.149100	0.056000	0.388800
N471	N47	0.230900	0.074400	0.368300
N481	N48	0.313700	0.474600	0.257900
Cl11	Cl1	0.768880	0.768880	0.000000
O11	O1	0.744800	0.727500	0.052200
O21	O2	0.705900	0.841700	0.022300
O31	O3	0.727500	0.744800	0.947800
O41	O4	0.841700	0.705900	0.977700
Cl21	Cl2	0.231120	0.231120	0.500000
O51	O5	0.255200	0.272500	0.552200
O61	O6	0.294100	0.158300	0.522300
O71	O7	0.272500	0.255200	0.447800
O81	O8	0.158300	0.294100	0.477700
Cl31	Cl3	0.731120	0.268880	0.250000
O91	O9	0.772500	0.244800	0.302200
O101	O10	0.658300	0.205900	0.272300
O111	O11	0.755200	0.227500	0.197800
O121	O12	0.794100	0.341700	0.227700
Cl41	Cl4	0.268880	0.731120	0.750000
O131	O13	0.227500	0.755200	0.802200
O141	O14	0.341700	0.794100	0.772300
O151	O15	0.244800	0.772500	0.697800
O161	O16	0.205900	0.658300	0.727700
