data_SAHYIL_charged_PM
_symmetry_space_group_name_H-M	'P1'
_cell_length_a	15.863800
_cell_length_b	15.863800
_cell_length_c	21.568000
_cell_angle_alpha	90.000000
_cell_angle_beta	90.000000
_cell_angle_gamma	90.000000
_symmetry_Int_Tables_number 1

loop_
_symmetry_equiv_pos_as_xyz
'x,y,z'

loop_
_atom_site_label
_atom_site_type_symbol
_atom_site_fract_x
_atom_site_fract_y
_atom_site_fract_z
Cd11	Cd1	0.059160	0.940840	0.750000
Cd21	Cd2	0.940840	0.059160	0.250000
Cd31	Cd3	0.559160	0.559160	0.500000
Cd41	Cd4	0.440840	0.440840	0.000000
H11	H1	0.938400	0.842700	0.841800
H21	H2	0.844400	0.735600	0.857300
H31	H3	0.899700	0.650400	0.687300
H41	H4	0.994000	0.761400	0.676200
H51	H5	0.721100	0.676000	0.843700
H61	H6	0.619500	0.455700	0.789600
H71	H7	0.735200	0.432200	0.726100
H81	H8	0.834500	0.536100	0.711200
H91	H9	0.509200	0.704800	0.040600
H101	H10	0.415400	0.799900	0.085200
H111	H11	0.298200	0.851200	0.030700
H121	H12	0.359000	0.695400	0.888700
H131	H13	0.238300	0.713000	0.854900
H141	H14	0.139500	0.769100	0.791100
H151	H15	0.112500	0.964100	0.900200
H161	H16	0.213700	0.915000	0.967500
H171	H17	0.527600	0.756700	0.855100
H181	H18	0.598900	0.761000	0.899700
H191	H19	0.061600	0.157300	0.341800
H201	H20	0.155600	0.264400	0.357300
H211	H21	0.100300	0.349600	0.187300
H221	H22	0.006000	0.238600	0.176200
H231	H23	0.278900	0.324000	0.343700
H241	H24	0.380500	0.544300	0.289600
H251	H25	0.264800	0.567800	0.226100
H261	H26	0.165500	0.463900	0.211200
H271	H27	0.490800	0.295200	0.540600
H281	H28	0.584600	0.200100	0.585200
H291	H29	0.701800	0.148800	0.530700
H301	H30	0.641000	0.304600	0.388700
H311	H31	0.761700	0.287000	0.354900
H321	H32	0.860500	0.230900	0.291100
H331	H33	0.887500	0.035900	0.400200
H341	H34	0.786300	0.085000	0.467500
H351	H35	0.472400	0.243300	0.355100
H361	H36	0.401100	0.239000	0.399700
H371	H37	0.657300	0.438400	0.591800
H381	H38	0.764400	0.344400	0.607300
H391	H39	0.849600	0.399700	0.437300
H401	H40	0.738600	0.494000	0.426200
H411	H41	0.824000	0.221100	0.593700
H421	H42	0.044300	0.119500	0.539600
H431	H43	0.067800	0.235200	0.476100
H441	H44	0.963900	0.334500	0.461200
H451	H45	0.795200	0.009200	0.790600
H461	H46	0.700100	0.915400	0.835200
H471	H47	0.648800	0.798200	0.780700
H481	H48	0.804600	0.859000	0.638700
H491	H49	0.787000	0.738300	0.604900
H501	H50	0.730900	0.639500	0.541100
H511	H51	0.535900	0.612500	0.650200
H521	H52	0.585000	0.713700	0.717500
H531	H53	0.743300	0.027600	0.605100
H541	H54	0.739000	0.098900	0.649700
H551	H55	0.342700	0.561600	0.091800
H561	H56	0.235600	0.655600	0.107300
H571	H57	0.150400	0.600300	0.937300
H581	H58	0.261400	0.506000	0.926200
H591	H59	0.176000	0.778900	0.093700
H601	H60	0.955700	0.880500	0.039600
H611	H61	0.932200	0.764800	0.976100
H621	H62	0.036100	0.665500	0.961200
H631	H63	0.204800	0.990800	0.290600
H641	H64	0.299900	0.084600	0.335200
H651	H65	0.351200	0.201800	0.280700
H661	H66	0.195400	0.141000	0.138700
H671	H67	0.213000	0.261700	0.104900
H681	H68	0.269100	0.360500	0.041100
H691	H69	0.464100	0.387500	0.150200
H701	H70	0.415000	0.286300	0.217500
H711	H71	0.256700	0.972400	0.105100
H721	H72	0.261000	0.901100	0.149700
H731	H73	0.561600	0.342700	0.908200
H741	H74	0.655600	0.235600	0.892700
H751	H75	0.600300	0.150400	0.062700
H761	H76	0.506000	0.261400	0.073800
H771	H77	0.778900	0.176000	0.906300
H781	H78	0.880500	0.955700	0.960400
H791	H79	0.764800	0.932200	0.023900
H801	H80	0.665500	0.036100	0.038800
H811	H81	0.990800	0.204800	0.709400
H821	H82	0.084600	0.299900	0.664800
H831	H83	0.201800	0.351200	0.719300
H841	H84	0.141000	0.195400	0.861300
H851	H85	0.261700	0.213000	0.895100
H861	H86	0.360500	0.269100	0.958900
H871	H87	0.387500	0.464100	0.849800
H881	H88	0.286300	0.415000	0.782500
H891	H89	0.972400	0.256700	0.894900
H901	H90	0.901100	0.261000	0.850300
H911	H91	0.438400	0.657300	0.408200
H921	H92	0.344400	0.764400	0.392700
H931	H93	0.399700	0.849600	0.562700
H941	H94	0.494000	0.738600	0.573800
H951	H95	0.221100	0.824000	0.406300
H961	H96	0.119500	0.044300	0.460400
H971	H97	0.235200	0.067800	0.523900
H981	H98	0.334500	0.963900	0.538800
H991	H99	0.009200	0.795200	0.209400
H1001	H100	0.915400	0.700100	0.164800
H1011	H101	0.798200	0.648800	0.219300
H1021	H102	0.859000	0.804600	0.361300
H1031	H103	0.738300	0.787000	0.395100
H1041	H104	0.639500	0.730900	0.458900
H1051	H105	0.612500	0.535900	0.349800
H1061	H106	0.713700	0.585000	0.282500
H1071	H107	0.027600	0.743300	0.394900
H1081	H108	0.098900	0.739000	0.350300
H1091	H109	0.842700	0.938400	0.158200
H1101	H110	0.735600	0.844400	0.142700
H1111	H111	0.650400	0.899700	0.312700
H1121	H112	0.761400	0.994000	0.323800
H1131	H113	0.676000	0.721100	0.156300
H1141	H114	0.455700	0.619500	0.210400
H1151	H115	0.432200	0.735200	0.273900
H1161	H116	0.536100	0.834500	0.288800
H1171	H117	0.704800	0.509200	0.959400
H1181	H118	0.799900	0.415400	0.914800
H1191	H119	0.851200	0.298200	0.969300
H1201	H120	0.695400	0.359000	0.111300
H1211	H121	0.713000	0.238300	0.145100
H1221	H122	0.769100	0.139500	0.208900
H1231	H123	0.964100	0.112500	0.099800
H1241	H124	0.915000	0.213700	0.032500
H1251	H125	0.756700	0.527600	0.144900
H1261	H126	0.761000	0.598900	0.100300
H1271	H127	0.157300	0.061600	0.658200
H1281	H128	0.264400	0.155600	0.642700
H1291	H129	0.349600	0.100300	0.812700
H1301	H130	0.238600	0.006000	0.823800
H1311	H131	0.324000	0.278900	0.656300
H1321	H132	0.544300	0.380500	0.710400
H1331	H133	0.567800	0.264800	0.773900
H1341	H134	0.463900	0.165500	0.788800
H1351	H135	0.295200	0.490800	0.459400
H1361	H136	0.200100	0.584600	0.414800
H1371	H137	0.148800	0.701800	0.469300
H1381	H138	0.304600	0.641000	0.611300
H1391	H139	0.287000	0.761700	0.645100
H1401	H140	0.230900	0.860500	0.708900
H1411	H141	0.035900	0.887500	0.599800
H1421	H142	0.085000	0.786300	0.532500
H1431	H143	0.243300	0.472400	0.644900
H1441	H144	0.239000	0.401100	0.600300
C11	C1	0.930600	0.803100	0.809300
C21	C2	0.873300	0.739800	0.818800
C31	C3	0.857800	0.681400	0.771700
C41	C4	0.905400	0.690200	0.720000
C51	C5	0.962900	0.756400	0.713600
C61	C6	0.791900	0.616100	0.778700
C71	C7	0.723800	0.626500	0.819100
C81	C8	0.660800	0.567700	0.824500
C91	C9	0.663700	0.495900	0.787700
C101	C10	0.731000	0.483500	0.748600
C111	C11	0.791800	0.543500	0.741600
C121	C12	0.591500	0.574900	0.867400
C131	C13	0.495100	0.627300	0.931000
C141	C14	0.441000	0.689500	0.961700
C151	C15	0.459900	0.721800	0.019000
C161	C16	0.405000	0.779900	0.044400
C171	C17	0.334200	0.810400	0.012200
C181	C18	0.318300	0.780500	0.954000
C191	C19	0.371100	0.718100	0.928500
C201	C20	0.246400	0.809900	0.916100
C211	C21	0.216200	0.767200	0.864200
C221	C22	0.156400	0.800300	0.826600
C231	C23	0.141200	0.913500	0.889900
C241	C24	0.201800	0.884900	0.930400
C251	C25	0.069400	0.196900	0.309300
C261	C26	0.126700	0.260200	0.318800
C271	C27	0.142200	0.318600	0.271700
C281	C28	0.094600	0.309800	0.220000
C291	C29	0.037100	0.243600	0.213600
C301	C30	0.208100	0.383900	0.278700
C311	C31	0.276200	0.373500	0.319100
C321	C32	0.339200	0.432300	0.324500
C331	C33	0.336300	0.504100	0.287700
C341	C34	0.269000	0.516500	0.248600
C351	C35	0.208200	0.456500	0.241600
C361	C36	0.408500	0.425100	0.367400
C371	C37	0.504900	0.372700	0.431000
C381	C38	0.559000	0.310500	0.461700
C391	C39	0.540100	0.278200	0.519000
C401	C40	0.595000	0.220100	0.544400
C411	C41	0.665800	0.189600	0.512200
C421	C42	0.681700	0.219500	0.454000
C431	C43	0.628900	0.281900	0.428500
C441	C44	0.753600	0.190100	0.416100
C451	C45	0.783800	0.232800	0.364200
C461	C46	0.843600	0.199700	0.326600
C471	C47	0.858800	0.086500	0.389900
C481	C48	0.798200	0.115100	0.430400
C491	C49	0.696900	0.430600	0.559300
C501	C50	0.760200	0.373300	0.568800
C511	C51	0.818600	0.357800	0.521700
C521	C52	0.809800	0.405400	0.470000
C531	C53	0.743600	0.462900	0.463600
C541	C54	0.883900	0.291900	0.528700
C551	C55	0.873500	0.223800	0.569100
C561	C56	0.932300	0.160800	0.574500
C571	C57	0.004100	0.163700	0.537700
C581	C58	0.016500	0.231000	0.498600
C591	C59	0.956500	0.291800	0.491600
C601	C60	0.925100	0.091500	0.617400
C611	C61	0.872700	0.995100	0.681000
C621	C62	0.810500	0.941000	0.711700
C631	C63	0.778200	0.959900	0.769000
C641	C64	0.720100	0.905000	0.794400
C651	C65	0.689600	0.834200	0.762200
C661	C66	0.719500	0.818300	0.704000
C671	C67	0.781900	0.871100	0.678500
C681	C68	0.690100	0.746400	0.666100
C691	C69	0.732800	0.716200	0.614200
C701	C70	0.699700	0.656400	0.576600
C711	C71	0.586500	0.641200	0.639900
C721	C72	0.615100	0.701800	0.680400
C731	C73	0.303100	0.569400	0.059300
C741	C74	0.239800	0.626700	0.068800
C751	C75	0.181400	0.642200	0.021700
C761	C76	0.190200	0.594600	0.970000
C771	C77	0.256400	0.537100	0.963600
C781	C78	0.116100	0.708100	0.028700
C791	C79	0.126500	0.776200	0.069100
C801	C80	0.067700	0.839200	0.074500
C811	C81	0.995900	0.836300	0.037700
C821	C82	0.983500	0.769000	0.998600
C831	C83	0.043500	0.708200	0.991600
C841	C84	0.074900	0.908500	0.117400
C851	C85	0.127300	0.004900	0.181000
C861	C86	0.189500	0.059000	0.211700
C871	C87	0.221800	0.040100	0.269000
C881	C88	0.279900	0.095000	0.294400
C891	C89	0.310400	0.165800	0.262200
C901	C90	0.280500	0.181700	0.204000
C911	C91	0.218100	0.128900	0.178500
C921	C92	0.309900	0.253600	0.166100
C931	C93	0.267200	0.283800	0.114200
C941	C94	0.300300	0.343600	0.076600
C951	C95	0.413500	0.358800	0.139900
C961	C96	0.384900	0.298200	0.180400
C971	C97	0.569400	0.303100	0.940700
C981	C98	0.626700	0.239800	0.931200
C991	C99	0.642200	0.181400	0.978300
C1001	C100	0.594600	0.190200	0.030000
C1011	C101	0.537100	0.256400	0.036400
C1021	C102	0.708100	0.116100	0.971300
C1031	C103	0.776200	0.126500	0.930900
C1041	C104	0.839200	0.067700	0.925500
C1051	C105	0.836300	0.995900	0.962300
C1061	C106	0.769000	0.983500	0.001400
C1071	C107	0.708200	0.043500	0.008400
C1081	C108	0.908500	0.074900	0.882600
C1091	C109	0.004900	0.127300	0.819000
C1101	C110	0.059000	0.189500	0.788300
C1111	C111	0.040100	0.221800	0.731000
C1121	C112	0.095000	0.279900	0.705600
C1131	C113	0.165800	0.310400	0.737800
C1141	C114	0.181700	0.280500	0.796000
C1151	C115	0.128900	0.218100	0.821500
C1161	C116	0.253600	0.309900	0.833900
C1171	C117	0.283800	0.267200	0.885800
C1181	C118	0.343600	0.300300	0.923400
C1191	C119	0.358800	0.413500	0.860100
C1201	C120	0.298200	0.384900	0.819600
C1211	C121	0.430600	0.696900	0.440700
C1221	C122	0.373300	0.760200	0.431200
C1231	C123	0.357800	0.818600	0.478300
C1241	C124	0.405400	0.809800	0.530000
C1251	C125	0.462900	0.743600	0.536400
C1261	C126	0.291900	0.883900	0.471300
C1271	C127	0.223800	0.873500	0.430900
C1281	C128	0.160800	0.932300	0.425500
C1291	C129	0.163700	0.004100	0.462300
C1301	C130	0.231000	0.016500	0.501400
C1311	C131	0.291800	0.956500	0.508400
C1321	C132	0.091500	0.925100	0.382600
C1331	C133	0.995100	0.872700	0.319000
C1341	C134	0.941000	0.810500	0.288300
C1351	C135	0.959900	0.778200	0.231000
C1361	C136	0.905000	0.720100	0.205600
C1371	C137	0.834200	0.689600	0.237800
C1381	C138	0.818300	0.719500	0.296000
C1391	C139	0.871100	0.781900	0.321500
C1401	C140	0.746400	0.690100	0.333900
C1411	C141	0.716200	0.732800	0.385800
C1421	C142	0.656400	0.699700	0.423400
C1431	C143	0.641200	0.586500	0.360100
C1441	C144	0.701800	0.615100	0.319600
C1451	C145	0.803100	0.930600	0.190700
C1461	C146	0.739800	0.873300	0.181200
C1471	C147	0.681400	0.857800	0.228300
C1481	C148	0.690200	0.905400	0.280000
C1491	C149	0.756400	0.962900	0.286400
C1501	C150	0.616100	0.791900	0.221300
C1511	C151	0.626500	0.723800	0.180900
C1521	C152	0.567700	0.660800	0.175500
C1531	C153	0.495900	0.663700	0.212300
C1541	C154	0.483500	0.731000	0.251400
C1551	C155	0.543500	0.791800	0.258400
C1561	C156	0.574900	0.591500	0.132600
C1571	C157	0.627300	0.495100	0.069000
C1581	C158	0.689500	0.441000	0.038300
C1591	C159	0.721800	0.459900	0.981000
C1601	C160	0.779900	0.405000	0.955600
C1611	C161	0.810400	0.334200	0.987800
C1621	C162	0.780500	0.318300	0.046000
C1631	C163	0.718100	0.371100	0.071500
C1641	C164	0.809900	0.246400	0.083900
C1651	C165	0.767200	0.216200	0.135800
C1661	C166	0.800300	0.156400	0.173400
C1671	C167	0.913500	0.141200	0.110100
C1681	C168	0.884900	0.201800	0.069600
C1691	C169	0.196900	0.069400	0.690700
C1701	C170	0.260200	0.126700	0.681200
C1711	C171	0.318600	0.142200	0.728300
C1721	C172	0.309800	0.094600	0.780000
C1731	C173	0.243600	0.037100	0.786400
C1741	C174	0.383900	0.208100	0.721300
C1751	C175	0.373500	0.276200	0.680900
C1761	C176	0.432300	0.339200	0.675500
C1771	C177	0.504100	0.336300	0.712300
C1781	C178	0.516500	0.269000	0.751400
C1791	C179	0.456500	0.208200	0.758400
C1801	C180	0.425100	0.408500	0.632600
C1811	C181	0.372700	0.504900	0.569000
C1821	C182	0.310500	0.559000	0.538300
C1831	C183	0.278200	0.540100	0.481000
C1841	C184	0.220100	0.595000	0.455600
C1851	C185	0.189600	0.665800	0.487800
C1861	C186	0.219500	0.681700	0.546000
C1871	C187	0.281900	0.628900	0.571500
C1881	C188	0.190100	0.753600	0.583900
C1891	C189	0.232800	0.783800	0.635800
C1901	C190	0.199700	0.843600	0.673400
C1911	C191	0.086500	0.858800	0.610100
C1921	C192	0.115100	0.798200	0.569600
N11	N1	0.975500	0.813300	0.758800
N21	N2	0.493800	0.544300	0.933600
N31	N3	0.553900	0.512200	0.894800
N41	N4	0.556400	0.648500	0.889600
N51	N5	0.575800	0.730900	0.868100
N61	N6	0.120100	0.874900	0.837200
N71	N7	0.024500	0.186700	0.258800
N81	N8	0.506200	0.455700	0.433600
N91	N9	0.446100	0.487800	0.394800
N101	N10	0.443600	0.351500	0.389600
N111	N11	0.424200	0.269100	0.368100
N121	N12	0.879900	0.125100	0.337200
N131	N13	0.686700	0.475500	0.508800
N141	N14	0.955700	0.993800	0.683600
N151	N15	0.987800	0.053900	0.644800
N161	N16	0.851500	0.056400	0.639600
N171	N17	0.769100	0.075800	0.618100
N181	N18	0.625100	0.620100	0.587200
N191	N19	0.313300	0.524500	0.008800
N201	N20	0.044300	0.006200	0.183600
N211	N21	0.012200	0.946100	0.144800
N221	N22	0.148500	0.943600	0.139600
N231	N23	0.230900	0.924200	0.118100
N241	N24	0.374900	0.379900	0.087200
N251	N25	0.524500	0.313300	0.991200
N261	N26	0.006200	0.044300	0.816400
N271	N27	0.946100	0.012200	0.855200
N281	N28	0.943600	0.148500	0.860400
N291	N29	0.924200	0.230900	0.881900
N301	N30	0.379900	0.374900	0.912800
N311	N31	0.475500	0.686700	0.491200
N321	N32	0.993800	0.955700	0.316400
N331	N33	0.053900	0.987800	0.355200
N341	N34	0.056400	0.851500	0.360400
N351	N35	0.075800	0.769100	0.381900
N361	N36	0.620100	0.625100	0.412800
N371	N37	0.813300	0.975500	0.241200
N381	N38	0.544300	0.493800	0.066400
N391	N39	0.512200	0.553900	0.105200
N401	N40	0.648500	0.556400	0.110400
N411	N41	0.730900	0.575800	0.131900
N421	N42	0.874900	0.120100	0.162800
N431	N43	0.186700	0.024500	0.741200
N441	N44	0.455700	0.506200	0.566400
N451	N45	0.487800	0.446100	0.605200
N461	N46	0.351500	0.443600	0.610400
N471	N47	0.269100	0.424200	0.631900
N481	N48	0.125100	0.879900	0.662800
Cl11	Cl1	0.623700	0.376300	0.250000
O11	O1	0.619300	0.433500	0.211000
O21	O2	0.614300	0.308200	0.222400
O31	O3	0.566500	0.380700	0.289000
O41	O4	0.691800	0.385700	0.277600
Cl21	Cl2	0.376300	0.623700	0.750000
O51	O5	0.380700	0.566500	0.711000
O61	O6	0.385700	0.691800	0.722400
O71	O7	0.433500	0.619300	0.789000
O81	O8	0.308200	0.614300	0.777600
Cl31	Cl3	0.123700	0.123700	0.000000
O91	O9	0.066500	0.119300	0.961000
O101	O10	0.191800	0.114300	0.972400
O111	O11	0.119300	0.066500	0.039000
O121	O12	0.114300	0.191800	0.027600
Cl41	Cl4	0.876300	0.876300	0.500000
O131	O13	0.933500	0.880700	0.461000
O141	O14	0.808200	0.885700	0.472400
O151	O15	0.880700	0.933500	0.539000
O161	O16	0.885700	0.808200	0.527600
