data_SAHYAD01_charged_PM
_symmetry_space_group_name_H-M	'P1'
_cell_length_a	15.863200
_cell_length_b	15.863200
_cell_length_c	21.760000
_cell_angle_alpha	90.000000
_cell_angle_beta	90.000000
_cell_angle_gamma	90.000000
_symmetry_Int_Tables_number 1

loop_
_symmetry_equiv_pos_as_xyz
'x,y,z'

loop_
_atom_site_label
_atom_site_type_symbol
_atom_site_fract_x
_atom_site_fract_y
_atom_site_fract_z
Cd11	Cd1	0.441840	0.558160	0.250000
Cd21	Cd2	0.558160	0.441840	0.750000
Cd31	Cd3	0.941840	0.941840	0.000000
Cd41	Cd4	0.058160	0.058160	0.500000
H11	H1	0.264600	0.491300	0.322600
H21	H2	0.153600	0.397200	0.313200
H31	H3	0.237600	0.342600	0.142900
H41	H4	0.342200	0.440500	0.156600
H51	H5	0.038500	0.333600	0.287900
H61	H6	0.937300	0.229700	0.278800
H71	H7	0.955700	0.118600	0.209200
H81	H8	0.176000	0.222100	0.154500
H91	H9	0.202200	0.005100	0.959300
H101	H10	0.302500	0.913800	0.915700
H111	H11	0.352200	0.799200	0.970400
H121	H12	0.198100	0.859700	0.111800
H131	H13	0.415600	0.714500	0.034300
H141	H14	0.463100	0.608800	0.098400
H151	H15	0.270200	0.640700	0.209100
H161	H16	0.213500	0.739200	0.145300
H171	H17	0.252500	0.026000	0.150200
H181	H18	0.260100	0.084200	0.099700
H191	H19	0.735400	0.508700	0.822600
H201	H20	0.846400	0.602800	0.813200
H211	H21	0.762400	0.657400	0.642900
H221	H22	0.657800	0.559500	0.656600
H231	H23	0.961500	0.666400	0.787900
H241	H24	0.062700	0.770300	0.778800
H251	H25	0.044300	0.881400	0.709200
H261	H26	0.824000	0.777900	0.654500
H271	H27	0.797800	0.994900	0.459300
H281	H28	0.697500	0.086200	0.415700
H291	H29	0.647800	0.200800	0.470400
H301	H30	0.801900	0.140300	0.611800
H311	H31	0.584400	0.285500	0.534300
H321	H32	0.536900	0.391200	0.598400
H331	H33	0.729800	0.359300	0.709100
H341	H34	0.786500	0.260800	0.645300
H351	H35	0.747500	0.974000	0.650200
H361	H36	0.739900	0.915800	0.599700
H371	H37	0.008700	0.764600	0.072600
H381	H38	0.102800	0.653600	0.063200
H391	H39	0.157400	0.737600	0.892900
H401	H40	0.059500	0.842200	0.906600
H411	H41	0.166400	0.538500	0.037900
H421	H42	0.270300	0.437300	0.028800
H431	H43	0.381400	0.455700	0.959200
H441	H44	0.277900	0.676000	0.904500
H451	H45	0.494900	0.702200	0.709300
H461	H46	0.586200	0.802500	0.665700
H471	H47	0.700800	0.852200	0.720400
H481	H48	0.640300	0.698100	0.861800
H491	H49	0.785500	0.915600	0.784300
H501	H50	0.891200	0.963100	0.848400
H511	H51	0.859300	0.770200	0.959100
H521	H52	0.760800	0.713500	0.895300
H531	H53	0.474000	0.752500	0.900200
H541	H54	0.415800	0.760100	0.849700
H551	H55	0.991300	0.235400	0.572600
H561	H56	0.897200	0.346400	0.563200
H571	H57	0.842600	0.262400	0.392900
H581	H58	0.940500	0.157800	0.406600
H591	H59	0.833600	0.461500	0.537900
H601	H60	0.729700	0.562700	0.528800
H611	H61	0.618600	0.544300	0.459200
H621	H62	0.722100	0.324000	0.404500
H631	H63	0.505100	0.297800	0.209300
H641	H64	0.413800	0.197500	0.165700
H651	H65	0.299200	0.147800	0.220400
H661	H66	0.359700	0.301900	0.361800
H671	H67	0.214500	0.084400	0.284300
H681	H68	0.108800	0.036900	0.348400
H691	H69	0.140700	0.229800	0.459100
H701	H70	0.239200	0.286500	0.395300
H711	H71	0.526000	0.247500	0.400200
H721	H72	0.584200	0.239900	0.349700
H731	H73	0.235400	0.991300	0.427400
H741	H74	0.346400	0.897200	0.436800
H751	H75	0.262400	0.842600	0.607100
H761	H76	0.157800	0.940500	0.593400
H771	H77	0.461500	0.833600	0.462100
H781	H78	0.562700	0.729700	0.471200
H791	H79	0.544300	0.618600	0.540800
H801	H80	0.324000	0.722100	0.595500
H811	H81	0.297800	0.505100	0.790700
H821	H82	0.197500	0.413800	0.834300
H831	H83	0.147800	0.299200	0.779600
H841	H84	0.301900	0.359700	0.638200
H851	H85	0.084400	0.214500	0.715700
H861	H86	0.036900	0.108800	0.651600
H871	H87	0.229800	0.140700	0.540900
H881	H88	0.286500	0.239200	0.604700
H891	H89	0.247500	0.526000	0.599800
H901	H90	0.239900	0.584200	0.650300
H911	H91	0.764600	0.008700	0.927400
H921	H92	0.653600	0.102800	0.936800
H931	H93	0.737600	0.157400	0.107100
H941	H94	0.842200	0.059500	0.093400
H951	H95	0.538500	0.166400	0.962100
H961	H96	0.437300	0.270300	0.971200
H971	H97	0.455700	0.381400	0.040800
H981	H98	0.676000	0.277900	0.095500
H991	H99	0.702200	0.494900	0.290700
H1001	H100	0.802500	0.586200	0.334300
H1011	H101	0.852200	0.700800	0.279600
H1021	H102	0.698100	0.640300	0.138200
H1031	H103	0.915600	0.785500	0.215700
H1041	H104	0.963100	0.891200	0.151600
H1051	H105	0.770200	0.859300	0.040900
H1061	H106	0.713500	0.760800	0.104700
H1071	H107	0.752500	0.474000	0.099800
H1081	H108	0.760100	0.415800	0.150300
H1091	H109	0.491300	0.264600	0.677400
H1101	H110	0.397200	0.153600	0.686800
H1111	H111	0.342600	0.237600	0.857100
H1121	H112	0.440500	0.342200	0.843400
H1131	H113	0.333600	0.038500	0.712100
H1141	H114	0.229700	0.937300	0.721200
H1151	H115	0.118600	0.955700	0.790800
H1161	H116	0.222100	0.176000	0.845500
H1171	H117	0.005100	0.202200	0.040700
H1181	H118	0.913800	0.302500	0.084300
H1191	H119	0.799200	0.352200	0.029600
H1201	H120	0.859700	0.198100	0.888200
H1211	H121	0.714500	0.415600	0.965700
H1221	H122	0.608800	0.463100	0.901600
H1231	H123	0.640700	0.270200	0.790900
H1241	H124	0.739200	0.213500	0.854700
H1251	H125	0.026000	0.252500	0.849800
H1261	H126	0.084200	0.260100	0.900300
H1271	H127	0.508700	0.735400	0.177400
H1281	H128	0.602800	0.846400	0.186800
H1291	H129	0.657400	0.762400	0.357100
H1301	H130	0.559500	0.657800	0.343400
H1311	H131	0.666400	0.961500	0.212100
H1321	H132	0.770300	0.062700	0.221200
H1331	H133	0.881400	0.044300	0.290800
H1341	H134	0.777900	0.824000	0.345500
H1351	H135	0.994900	0.797800	0.540700
H1361	H136	0.086200	0.697500	0.584300
H1371	H137	0.200800	0.647800	0.529600
H1381	H138	0.140300	0.801900	0.388200
H1391	H139	0.285500	0.584400	0.465700
H1401	H140	0.391200	0.536900	0.401600
H1411	H141	0.359300	0.729800	0.290900
H1421	H142	0.260800	0.786500	0.354700
H1431	H143	0.974000	0.747500	0.349800
H1441	H144	0.915800	0.739900	0.400300
C11	C1	0.259000	0.460500	0.285400
C21	C2	0.192600	0.403600	0.280400
C31	C3	0.183700	0.356400	0.227500
C41	C4	0.241500	0.372200	0.180700
C51	C5	0.304100	0.430500	0.189400
C61	C6	0.118400	0.289500	0.222000
C71	C7	0.046300	0.289700	0.258800
C81	C8	0.986400	0.227600	0.253800
C91	C9	0.997000	0.161800	0.212600
C101	C10	0.069400	0.160000	0.176200
C111	C11	0.127900	0.223300	0.180500
C121	C12	0.077100	0.090000	0.131800
C131	C13	0.128400	0.995400	0.069600
C141	C14	0.190200	0.939500	0.039300
C151	C15	0.221400	0.957100	0.981400
C161	C16	0.281600	0.903100	0.955900
C171	C17	0.310800	0.834900	0.988300
C181	C18	0.280300	0.817100	0.047400
C191	C19	0.219700	0.870600	0.071900
C201	C20	0.311300	0.744900	0.084300
C211	C21	0.385000	0.701400	0.070600
C221	C22	0.413800	0.639100	0.109800
C231	C23	0.301100	0.656700	0.173600
C241	C24	0.267400	0.716500	0.136200
C251	C25	0.741000	0.539500	0.785400
C261	C26	0.807400	0.596400	0.780400
C271	C27	0.816300	0.643600	0.727500
C281	C28	0.758500	0.627800	0.680700
C291	C29	0.695900	0.569500	0.689400
C301	C30	0.881600	0.710500	0.722000
C311	C31	0.953700	0.710300	0.758800
C321	C32	0.013600	0.772400	0.753800
C331	C33	0.003000	0.838200	0.712600
C341	C34	0.930600	0.840000	0.676200
C351	C35	0.872100	0.776700	0.680500
C361	C36	0.922900	0.910000	0.631800
C371	C37	0.871600	0.004600	0.569600
C381	C38	0.809800	0.060500	0.539300
C391	C39	0.778600	0.042900	0.481400
C401	C40	0.718400	0.096900	0.455900
C411	C41	0.689200	0.165100	0.488300
C421	C42	0.719700	0.182900	0.547400
C431	C43	0.780300	0.129400	0.571900
C441	C44	0.688700	0.255100	0.584300
C451	C45	0.615000	0.298600	0.570600
C461	C46	0.586200	0.360900	0.609800
C471	C47	0.698900	0.343300	0.673600
C481	C48	0.732600	0.283500	0.636200
C491	C49	0.039500	0.759000	0.035400
C501	C50	0.096400	0.692600	0.030400
C511	C51	0.143600	0.683700	0.977500
C521	C52	0.127800	0.741500	0.930700
C531	C53	0.069500	0.804100	0.939400
C541	C54	0.210500	0.618400	0.972000
C551	C55	0.210300	0.546300	0.008800
C561	C56	0.272400	0.486400	0.003800
C571	C57	0.338200	0.497000	0.962600
C581	C58	0.340000	0.569400	0.926200
C591	C59	0.276700	0.627900	0.930500
C601	C60	0.410000	0.577100	0.881800
C611	C61	0.504600	0.628400	0.819600
C621	C62	0.560500	0.690200	0.789300
C631	C63	0.542900	0.721400	0.731400
C641	C64	0.596900	0.781600	0.705900
C651	C65	0.665100	0.810800	0.738300
C661	C66	0.682900	0.780300	0.797400
C671	C67	0.629400	0.719700	0.821900
C681	C68	0.755100	0.811300	0.834300
C691	C69	0.798600	0.885000	0.820600
C701	C70	0.860900	0.913800	0.859800
C711	C71	0.843300	0.801100	0.923600
C721	C72	0.783500	0.767400	0.886200
C731	C73	0.960500	0.241000	0.535400
C741	C74	0.903600	0.307400	0.530400
C751	C75	0.856400	0.316300	0.477500
C761	C76	0.872200	0.258500	0.430700
C771	C77	0.930500	0.195900	0.439400
C781	C78	0.789500	0.381600	0.472000
C791	C79	0.789700	0.453700	0.508800
C801	C80	0.727600	0.513600	0.503800
C811	C81	0.661800	0.503000	0.462600
C821	C82	0.660000	0.430600	0.426200
C831	C83	0.723300	0.372100	0.430500
C841	C84	0.590000	0.422900	0.381800
C851	C85	0.495400	0.371600	0.319600
C861	C86	0.439500	0.309800	0.289300
C871	C87	0.457100	0.278600	0.231400
C881	C88	0.403100	0.218400	0.205900
C891	C89	0.334900	0.189200	0.238300
C901	C90	0.317100	0.219700	0.297400
C911	C91	0.370600	0.280300	0.321900
C921	C92	0.244900	0.188700	0.334300
C931	C93	0.201400	0.115000	0.320600
C941	C94	0.139100	0.086200	0.359800
C951	C95	0.156700	0.198900	0.423600
C961	C96	0.216500	0.232600	0.386200
C971	C97	0.241000	0.960500	0.464600
C981	C98	0.307400	0.903600	0.469600
C991	C99	0.316300	0.856400	0.522500
C1001	C100	0.258500	0.872200	0.569300
C1011	C101	0.195900	0.930500	0.560600
C1021	C102	0.381600	0.789500	0.528000
C1031	C103	0.453700	0.789700	0.491200
C1041	C104	0.513600	0.727600	0.496200
C1051	C105	0.503000	0.661800	0.537400
C1061	C106	0.430600	0.660000	0.573800
C1071	C107	0.372100	0.723300	0.569500
C1081	C108	0.422900	0.590000	0.618200
C1091	C109	0.371600	0.495400	0.680400
C1101	C110	0.309800	0.439500	0.710700
C1111	C111	0.278600	0.457100	0.768600
C1121	C112	0.218400	0.403100	0.794100
C1131	C113	0.189200	0.334900	0.761700
C1141	C114	0.219700	0.317100	0.702600
C1151	C115	0.280300	0.370600	0.678100
C1161	C116	0.188700	0.244900	0.665700
C1171	C117	0.115000	0.201400	0.679400
C1181	C118	0.086200	0.139100	0.640200
C1191	C119	0.198900	0.156700	0.576400
C1201	C120	0.232600	0.216500	0.613800
C1211	C121	0.759000	0.039500	0.964600
C1221	C122	0.692600	0.096400	0.969600
C1231	C123	0.683700	0.143600	0.022500
C1241	C124	0.741500	0.127800	0.069300
C1251	C125	0.804100	0.069500	0.060600
C1261	C126	0.618400	0.210500	0.028000
C1271	C127	0.546300	0.210300	0.991200
C1281	C128	0.486400	0.272400	0.996200
C1291	C129	0.497000	0.338200	0.037400
C1301	C130	0.569400	0.340000	0.073800
C1311	C131	0.627900	0.276700	0.069500
C1321	C132	0.577100	0.410000	0.118200
C1331	C133	0.628400	0.504600	0.180400
C1341	C134	0.690200	0.560500	0.210700
C1351	C135	0.721400	0.542900	0.268600
C1361	C136	0.781600	0.596900	0.294100
C1371	C137	0.810800	0.665100	0.261700
C1381	C138	0.780300	0.682900	0.202600
C1391	C139	0.719700	0.629400	0.178100
C1401	C140	0.811300	0.755100	0.165700
C1411	C141	0.885000	0.798600	0.179400
C1421	C142	0.913800	0.860900	0.140200
C1431	C143	0.801100	0.843300	0.076400
C1441	C144	0.767400	0.783500	0.113800
C1451	C145	0.460500	0.259000	0.714600
C1461	C146	0.403600	0.192600	0.719600
C1471	C147	0.356400	0.183700	0.772500
C1481	C148	0.372200	0.241500	0.819300
C1491	C149	0.430500	0.304100	0.810600
C1501	C150	0.289500	0.118400	0.778000
C1511	C151	0.289700	0.046300	0.741200
C1521	C152	0.227600	0.986400	0.746200
C1531	C153	0.161800	0.997000	0.787400
C1541	C154	0.160000	0.069400	0.823800
C1551	C155	0.223300	0.127900	0.819500
C1561	C156	0.090000	0.077100	0.868200
C1571	C157	0.995400	0.128400	0.930400
C1581	C158	0.939500	0.190200	0.960700
C1591	C159	0.957100	0.221400	0.018600
C1601	C160	0.903100	0.281600	0.044100
C1611	C161	0.834900	0.310800	0.011700
C1621	C162	0.817100	0.280300	0.952600
C1631	C163	0.870600	0.219700	0.928100
C1641	C164	0.744900	0.311300	0.915700
C1651	C165	0.701400	0.385000	0.929400
C1661	C166	0.639100	0.413800	0.890200
C1671	C167	0.656700	0.301100	0.826400
C1681	C168	0.716500	0.267400	0.863800
C1691	C169	0.539500	0.741000	0.214600
C1701	C170	0.596400	0.807400	0.219600
C1711	C171	0.643600	0.816300	0.272500
C1721	C172	0.627800	0.758500	0.319300
C1731	C173	0.569500	0.695900	0.310600
C1741	C174	0.710500	0.881600	0.278000
C1751	C175	0.710300	0.953700	0.241200
C1761	C176	0.772400	0.013600	0.246200
C1771	C177	0.838200	0.003000	0.287400
C1781	C178	0.840000	0.930600	0.323800
C1791	C179	0.776700	0.872100	0.319500
C1801	C180	0.910000	0.922900	0.368200
C1811	C181	0.004600	0.871600	0.430400
C1821	C182	0.060500	0.809800	0.460700
C1831	C183	0.042900	0.778600	0.518600
C1841	C184	0.096900	0.718400	0.544100
C1851	C185	0.165100	0.689200	0.511700
C1861	C186	0.182900	0.719700	0.452600
C1871	C187	0.129400	0.780300	0.428100
C1881	C188	0.255100	0.688700	0.415700
C1891	C189	0.298600	0.615000	0.429400
C1901	C190	0.360900	0.586200	0.390200
C1911	C191	0.343300	0.698900	0.326400
C1921	C192	0.283500	0.732600	0.363800
N11	N1	0.314500	0.473900	0.241300
N21	N2	0.013400	0.054600	0.103800
N31	N3	0.045400	0.994100	0.065100
N41	N4	0.149800	0.054800	0.111900
N51	N5	0.231500	0.071700	0.133300
N61	N6	0.375800	0.619000	0.163000
N71	N7	0.685500	0.526100	0.741300
N81	N8	0.986600	0.945400	0.603800
N91	N9	0.954600	0.005900	0.565100
N101	N10	0.850200	0.945200	0.611900
N111	N11	0.768500	0.928300	0.633300
N121	N12	0.624200	0.381000	0.663000
N131	N13	0.026100	0.814500	0.991300
N141	N14	0.445400	0.513400	0.853800
N151	N15	0.505900	0.545400	0.815100
N161	N16	0.445200	0.649800	0.861900
N171	N17	0.428300	0.731500	0.883300
N181	N18	0.881000	0.875800	0.913000
N191	N19	0.973900	0.185500	0.491300
N201	N20	0.554600	0.486600	0.353800
N211	N21	0.494100	0.454600	0.315100
N221	N22	0.554800	0.350200	0.361900
N231	N23	0.571700	0.268500	0.383300
N241	N24	0.119000	0.124200	0.413000
N251	N25	0.185500	0.973900	0.508700
N261	N26	0.486600	0.554600	0.646200
N271	N27	0.454600	0.494100	0.684900
N281	N28	0.350200	0.554800	0.638100
N291	N29	0.268500	0.571700	0.616700
N301	N30	0.124200	0.119000	0.587000
N311	N31	0.814500	0.026100	0.008700
N321	N32	0.513400	0.445400	0.146200
N331	N33	0.545400	0.505900	0.184900
N341	N34	0.649800	0.445200	0.138100
N351	N35	0.731500	0.428300	0.116700
N361	N36	0.875800	0.881000	0.087000
N371	N37	0.473900	0.314500	0.758700
N381	N38	0.054600	0.013400	0.896200
N391	N39	0.994100	0.045400	0.934900
N401	N40	0.054800	0.149800	0.888100
N411	N41	0.071700	0.231500	0.866700
N421	N42	0.619000	0.375800	0.837000
N431	N43	0.526100	0.685500	0.258700
N441	N44	0.945400	0.986600	0.396200
N451	N45	0.005900	0.954600	0.434900
N461	N46	0.945200	0.850200	0.388100
N471	N47	0.928300	0.768500	0.366700
N481	N48	0.381000	0.624200	0.337000
Cl11	Cl1	0.874460	0.125540	0.750000
O11	O1	0.886700	0.212200	0.754700
O21	O2	0.925600	0.113600	0.794700
O31	O3	0.787800	0.113300	0.745300
O41	O4	0.886400	0.074400	0.705300
Cl21	Cl2	0.125540	0.874460	0.250000
O51	O5	0.113300	0.787800	0.254700
O61	O6	0.074400	0.886400	0.294700
O71	O7	0.212200	0.886700	0.245300
O81	O8	0.113600	0.925600	0.205300
Cl31	Cl3	0.374460	0.374460	0.500000
O91	O9	0.287800	0.386700	0.504700
O101	O10	0.386400	0.425600	0.544700
O111	O11	0.386700	0.287800	0.495300
O121	O12	0.425600	0.386400	0.455300
Cl41	Cl4	0.625540	0.625540	0.000000
O131	O13	0.712200	0.613300	0.004700
O141	O14	0.613600	0.574400	0.044700
O151	O15	0.613300	0.712200	0.995300
O161	O16	0.574400	0.613600	0.955300
Cl51	Cl5	0.230680	0.230680	0.000000
O171	O17	0.273100	0.254300	0.050300
O181	O18	0.290400	0.163300	0.974900
O191	O19	0.254300	0.273100	0.949700
O201	O20	0.163300	0.290400	0.025100
Cl61	Cl6	0.769320	0.769320	0.500000
O211	O21	0.726900	0.745700	0.550300
O221	O22	0.709600	0.836700	0.474900
O231	O23	0.745700	0.726900	0.449700
O241	O24	0.836700	0.709600	0.525100
Cl71	Cl7	0.269320	0.730680	0.750000
O251	O25	0.245700	0.773100	0.800300
O261	O26	0.336700	0.790400	0.724900
O271	O27	0.226900	0.754300	0.699700
O281	O28	0.209600	0.663300	0.775100
Cl81	Cl8	0.730680	0.269320	0.250000
O291	O29	0.754300	0.226900	0.300300
O301	O30	0.663300	0.209600	0.224900
O311	O31	0.773100	0.245700	0.199700
O321	O32	0.790400	0.336700	0.275100
