data_SAHYAD02_charged_PM
_symmetry_space_group_name_H-M	'P1'
_cell_length_a	15.854500
_cell_length_b	15.854500
_cell_length_c	21.596000
_cell_angle_alpha	90.000000
_cell_angle_beta	90.000000
_cell_angle_gamma	90.000000
_symmetry_Int_Tables_number 1

loop_
_symmetry_equiv_pos_as_xyz
'x,y,z'

loop_
_atom_site_label
_atom_site_type_symbol
_atom_site_fract_x
_atom_site_fract_y
_atom_site_fract_z
Cd11	Cd1	0.058980	0.941020	0.250000
Cd21	Cd2	0.941020	0.058980	0.750000
Cd31	Cd3	0.558980	0.558980	0.500000
Cd41	Cd4	0.441020	0.441020	0.000000
H11	H1	0.110400	0.963000	0.097700
H21	H2	0.214100	0.913900	0.032100
H31	H3	0.240300	0.712200	0.145100
H41	H4	0.140800	0.769800	0.209200
H51	H5	0.300200	0.851500	0.968700
H61	H6	0.413900	0.801200	0.913900
H71	H7	0.507200	0.703800	0.958000
H81	H8	0.359800	0.697000	0.111700
H91	H9	0.619100	0.454800	0.210000
H101	H10	0.731800	0.434800	0.279300
H111	H11	0.835900	0.537300	0.288000
H121	H12	0.723200	0.674900	0.154700
H131	H13	0.899000	0.652400	0.314700
H141	H14	0.993200	0.762200	0.324200
H151	H15	0.940500	0.842600	0.156900
H161	H16	0.844300	0.735000	0.142100
H171	H17	0.528800	0.759800	0.143200
H181	H18	0.585900	0.759500	0.097500
H191	H19	0.889600	0.037000	0.597700
H201	H20	0.785900	0.086100	0.532100
H211	H21	0.759700	0.287800	0.645100
H221	H22	0.859200	0.230200	0.709200
H231	H23	0.699800	0.148500	0.468700
H241	H24	0.586100	0.198800	0.413900
H251	H25	0.492800	0.296200	0.458000
H261	H26	0.640200	0.303000	0.611700
H271	H27	0.380900	0.545200	0.710000
H281	H28	0.268200	0.565200	0.779300
H291	H29	0.164100	0.462700	0.788000
H301	H30	0.276800	0.325100	0.654700
H311	H31	0.101000	0.347600	0.814700
H321	H32	0.006800	0.237800	0.824200
H331	H33	0.059500	0.157400	0.656900
H341	H34	0.155700	0.265000	0.642100
H351	H35	0.471200	0.240200	0.643200
H361	H36	0.414100	0.240500	0.597500
H371	H37	0.537000	0.610400	0.347700
H381	H38	0.586100	0.714100	0.282100
H391	H39	0.787800	0.740300	0.395100
H401	H40	0.730200	0.640800	0.459200
H411	H41	0.648500	0.800200	0.218700
H421	H42	0.698800	0.913900	0.163900
H431	H43	0.796200	0.007200	0.208000
H441	H44	0.803000	0.859800	0.361700
H451	H45	0.045200	0.119100	0.460000
H461	H46	0.065200	0.231800	0.529300
H471	H47	0.962700	0.335900	0.538000
H481	H48	0.825100	0.223200	0.404700
H491	H49	0.847600	0.399000	0.564700
H501	H50	0.737800	0.493200	0.574200
H511	H51	0.657400	0.440500	0.406900
H521	H52	0.765000	0.344300	0.392100
H531	H53	0.740200	0.028800	0.393200
H541	H54	0.740500	0.085900	0.347500
H551	H55	0.463000	0.389600	0.847700
H561	H56	0.413900	0.285900	0.782100
H571	H57	0.212200	0.259700	0.895100
H581	H58	0.269800	0.359200	0.959200
H591	H59	0.351500	0.199800	0.718700
H601	H60	0.301200	0.086100	0.663900
H611	H61	0.203800	0.992800	0.708000
H621	H62	0.197000	0.140200	0.861700
H631	H63	0.954800	0.880900	0.960000
H641	H64	0.934800	0.768200	0.029300
H651	H65	0.037300	0.664100	0.038000
H661	H66	0.174900	0.776800	0.904700
H671	H67	0.152400	0.601000	0.064700
H681	H68	0.262200	0.506800	0.074200
H691	H69	0.342600	0.559500	0.906900
H701	H70	0.235000	0.655700	0.892100
H711	H71	0.259800	0.971200	0.893200
H721	H72	0.259500	0.914100	0.847500
H731	H73	0.389600	0.463000	0.152300
H741	H74	0.285900	0.413900	0.217900
H751	H75	0.259700	0.212200	0.104900
H761	H76	0.359200	0.269800	0.040800
H771	H77	0.199800	0.351500	0.281300
H781	H78	0.086100	0.301200	0.336100
H791	H79	0.992800	0.203800	0.292000
H801	H80	0.140200	0.197000	0.138300
H811	H81	0.880900	0.954800	0.040000
H821	H82	0.768200	0.934800	0.970700
H831	H83	0.664100	0.037300	0.962000
H841	H84	0.776800	0.174900	0.095300
H851	H85	0.601000	0.152400	0.935300
H861	H86	0.506800	0.262200	0.925800
H871	H87	0.559500	0.342600	0.093100
H881	H88	0.655700	0.235000	0.107900
H891	H89	0.971200	0.259800	0.106800
H901	H90	0.914100	0.259500	0.152500
H911	H91	0.610400	0.537000	0.652300
H921	H92	0.714100	0.586100	0.717900
H931	H93	0.740300	0.787800	0.604900
H941	H94	0.640800	0.730200	0.540800
H951	H95	0.800200	0.648500	0.781300
H961	H96	0.913900	0.698800	0.836100
H971	H97	0.007200	0.796200	0.792000
H981	H98	0.859800	0.803000	0.638300
H991	H99	0.119100	0.045200	0.540000
H1001	H100	0.231800	0.065200	0.470700
H1011	H101	0.335900	0.962700	0.462000
H1021	H102	0.223200	0.825100	0.595300
H1031	H103	0.399000	0.847600	0.435300
H1041	H104	0.493200	0.737800	0.425800
H1051	H105	0.440500	0.657400	0.593100
H1061	H106	0.344300	0.765000	0.607900
H1071	H107	0.028800	0.740200	0.606800
H1081	H108	0.085900	0.740500	0.652500
H1091	H109	0.963000	0.110400	0.902300
H1101	H110	0.913900	0.214100	0.967900
H1111	H111	0.712200	0.240300	0.854900
H1121	H112	0.769800	0.140800	0.790800
H1131	H113	0.851500	0.300200	0.031300
H1141	H114	0.801200	0.413900	0.086100
H1151	H115	0.703800	0.507200	0.042000
H1161	H116	0.697000	0.359800	0.888300
H1171	H117	0.454800	0.619100	0.790000
H1181	H118	0.434800	0.731800	0.720700
H1191	H119	0.537300	0.835900	0.712000
H1201	H120	0.674900	0.723200	0.845300
H1211	H121	0.652400	0.899000	0.685300
H1221	H122	0.762200	0.993200	0.675800
H1231	H123	0.842600	0.940500	0.843100
H1241	H124	0.735000	0.844300	0.857900
H1251	H125	0.759800	0.528800	0.856800
H1261	H126	0.759500	0.585900	0.902500
H1271	H127	0.037000	0.889600	0.402300
H1281	H128	0.086100	0.785900	0.467900
H1291	H129	0.287800	0.759700	0.354900
H1301	H130	0.230200	0.859200	0.290800
H1311	H131	0.148500	0.699800	0.531300
H1321	H132	0.198800	0.586100	0.586100
H1331	H133	0.296200	0.492800	0.542000
H1341	H134	0.303000	0.640200	0.388300
H1351	H135	0.545200	0.380900	0.290000
H1361	H136	0.565200	0.268200	0.220700
H1371	H137	0.462700	0.164100	0.212000
H1381	H138	0.325100	0.276800	0.345300
H1391	H139	0.347600	0.101000	0.185300
H1401	H140	0.237800	0.006800	0.175800
H1411	H141	0.157400	0.059500	0.343100
H1421	H142	0.265000	0.155700	0.357900
H1431	H143	0.240200	0.471200	0.356800
H1441	H144	0.240500	0.414100	0.402500
C11	C1	0.139800	0.913000	0.108700
C21	C2	0.201400	0.883800	0.069000
C31	C3	0.244700	0.810100	0.083300
C41	C4	0.217100	0.766000	0.135700
C51	C5	0.156800	0.800400	0.173300
C61	C6	0.317300	0.778900	0.046100
C71	C7	0.335600	0.809800	0.986700
C81	C8	0.403700	0.780700	0.954600
C91	C9	0.458400	0.721700	0.979900
C101	C10	0.440100	0.689500	0.038400
C111	C11	0.370800	0.718500	0.071500
C121	C12	0.496000	0.627200	0.069200
C131	C13	0.590700	0.576400	0.132000
C141	C14	0.661100	0.567400	0.176400
C151	C15	0.662700	0.495700	0.213000
C161	C16	0.729200	0.484200	0.254400
C171	C17	0.791500	0.545000	0.259000
C181	C18	0.790700	0.616700	0.222500
C191	C19	0.724600	0.626600	0.180700
C201	C20	0.857500	0.682100	0.228100
C211	C21	0.905300	0.691400	0.281600
C221	C22	0.961800	0.757000	0.286900
C231	C23	0.931100	0.803700	0.189600
C241	C24	0.873200	0.739800	0.180500
C251	C25	0.860200	0.087000	0.608700
C261	C26	0.798600	0.116200	0.569000
C271	C27	0.755300	0.189900	0.583300
C281	C28	0.782900	0.234000	0.635700
C291	C29	0.843200	0.199600	0.673300
C301	C30	0.682700	0.221100	0.546100
C311	C31	0.664400	0.190200	0.486700
C321	C32	0.596300	0.219300	0.454600
C331	C33	0.541600	0.278300	0.479900
C341	C34	0.559900	0.310500	0.538400
C351	C35	0.629200	0.281500	0.571500
C361	C36	0.504000	0.372800	0.569200
C371	C37	0.409300	0.423600	0.632000
C381	C38	0.338900	0.432600	0.676400
C391	C39	0.337300	0.504300	0.713000
C401	C40	0.270800	0.515800	0.754400
C411	C41	0.208500	0.455000	0.759000
C421	C42	0.209300	0.383300	0.722500
C431	C43	0.275400	0.373400	0.680700
C441	C44	0.142500	0.317900	0.728100
C451	C45	0.094700	0.308600	0.781600
C461	C46	0.038200	0.243000	0.786900
C471	C47	0.068900	0.196300	0.689600
C481	C48	0.126800	0.260200	0.680500
C491	C49	0.587000	0.639800	0.358700
C501	C50	0.616200	0.701400	0.319000
C511	C51	0.689900	0.744700	0.333300
C521	C52	0.734000	0.717100	0.385700
C531	C53	0.699600	0.656800	0.423300
C541	C54	0.721100	0.817300	0.296100
C551	C55	0.690200	0.835600	0.236700
C561	C56	0.719300	0.903700	0.204600
C571	C57	0.778300	0.958400	0.229900
C581	C58	0.810500	0.940100	0.288400
C591	C59	0.781500	0.870800	0.321500
C601	C60	0.872800	0.996000	0.319200
C611	C61	0.923600	0.090700	0.382000
C621	C62	0.932600	0.161100	0.426400
C631	C63	0.004300	0.162700	0.463000
C641	C64	0.015800	0.229200	0.504400
C651	C65	0.955000	0.291500	0.509000
C661	C66	0.883300	0.290700	0.472500
C671	C67	0.873400	0.224600	0.430700
C681	C68	0.817900	0.357500	0.478100
C691	C69	0.808600	0.405300	0.531600
C701	C70	0.743000	0.461800	0.536900
C711	C71	0.696300	0.431100	0.439600
C721	C72	0.760200	0.373200	0.430500
C731	C73	0.413000	0.360200	0.858700
C741	C74	0.383800	0.298600	0.819000
C751	C75	0.310100	0.255300	0.833300
C761	C76	0.266000	0.282900	0.885700
C771	C77	0.300400	0.343200	0.923300
C781	C78	0.278900	0.182700	0.796100
C791	C79	0.309800	0.164400	0.736700
C801	C80	0.280700	0.096300	0.704600
C811	C81	0.221700	0.041600	0.729900
C821	C82	0.189500	0.059900	0.788400
C831	C83	0.218500	0.129200	0.821500
C841	C84	0.127200	0.004000	0.819200
C851	C85	0.076400	0.909300	0.882000
C861	C86	0.067400	0.838900	0.926400
C871	C87	0.995700	0.837300	0.963000
C881	C88	0.984200	0.770800	0.004400
C891	C89	0.045000	0.708500	0.009000
C901	C90	0.116700	0.709300	0.972500
C911	C91	0.126600	0.775400	0.930700
C921	C92	0.182100	0.642500	0.978100
C931	C93	0.191400	0.594700	0.031600
C941	C94	0.257000	0.538200	0.036900
C951	C95	0.303700	0.568900	0.939600
C961	C96	0.239800	0.626800	0.930500
C971	C97	0.360200	0.413000	0.141300
C981	C98	0.298600	0.383800	0.181000
C991	C99	0.255300	0.310100	0.166700
C1001	C100	0.282900	0.266000	0.114300
C1011	C101	0.343200	0.300400	0.076700
C1021	C102	0.182700	0.278900	0.203900
C1031	C103	0.164400	0.309800	0.263300
C1041	C104	0.096300	0.280700	0.295400
C1051	C105	0.041600	0.221700	0.270100
C1061	C106	0.059900	0.189500	0.211600
C1071	C107	0.129200	0.218500	0.178500
C1081	C108	0.004000	0.127200	0.180800
C1091	C109	0.909300	0.076400	0.118000
C1101	C110	0.838900	0.067400	0.073600
C1111	C111	0.837300	0.995700	0.037000
C1121	C112	0.770800	0.984200	0.995600
C1131	C113	0.708500	0.045000	0.991000
C1141	C114	0.709300	0.116700	0.027500
C1151	C115	0.775400	0.126600	0.069300
C1161	C116	0.642500	0.182100	0.021900
C1171	C117	0.594700	0.191400	0.968400
C1181	C118	0.538200	0.257000	0.963100
C1191	C119	0.568900	0.303700	0.060400
C1201	C120	0.626800	0.239800	0.069500
C1211	C121	0.639800	0.587000	0.641300
C1221	C122	0.701400	0.616200	0.681000
C1231	C123	0.744700	0.689900	0.666700
C1241	C124	0.717100	0.734000	0.614300
C1251	C125	0.656800	0.699600	0.576700
C1261	C126	0.817300	0.721100	0.703900
C1271	C127	0.835600	0.690200	0.763300
C1281	C128	0.903700	0.719300	0.795400
C1291	C129	0.958400	0.778300	0.770100
C1301	C130	0.940100	0.810500	0.711600
C1311	C131	0.870800	0.781500	0.678500
C1321	C132	0.996000	0.872800	0.680800
C1331	C133	0.090700	0.923600	0.618000
C1341	C134	0.161100	0.932600	0.573600
C1351	C135	0.162700	0.004300	0.537000
C1361	C136	0.229200	0.015800	0.495600
C1371	C137	0.291500	0.955000	0.491000
C1381	C138	0.290700	0.883300	0.527500
C1391	C139	0.224600	0.873400	0.569300
C1401	C140	0.357500	0.817900	0.521900
C1411	C141	0.405300	0.808600	0.468400
C1421	C142	0.461800	0.743000	0.463100
C1431	C143	0.431100	0.696300	0.560400
C1441	C144	0.373200	0.760200	0.569500
C1451	C145	0.913000	0.139800	0.891300
C1461	C146	0.883800	0.201400	0.931000
C1471	C147	0.810100	0.244700	0.916700
C1481	C148	0.766000	0.217100	0.864300
C1491	C149	0.800400	0.156800	0.826700
C1501	C150	0.778900	0.317300	0.953900
C1511	C151	0.809800	0.335600	0.013300
C1521	C152	0.780700	0.403700	0.045400
C1531	C153	0.721700	0.458400	0.020100
C1541	C154	0.689500	0.440100	0.961600
C1551	C155	0.718500	0.370800	0.928500
C1561	C156	0.627200	0.496000	0.930800
C1571	C157	0.576400	0.590700	0.868000
C1581	C158	0.567400	0.661100	0.823600
C1591	C159	0.495700	0.662700	0.787000
C1601	C160	0.484200	0.729200	0.745600
C1611	C161	0.545000	0.791500	0.741000
C1621	C162	0.616700	0.790700	0.777500
C1631	C163	0.626600	0.724600	0.819300
C1641	C164	0.682100	0.857500	0.771900
C1651	C165	0.691400	0.905300	0.718400
C1661	C166	0.757000	0.961800	0.713100
C1671	C167	0.803700	0.931100	0.810400
C1681	C168	0.739800	0.873200	0.819500
C1691	C169	0.087000	0.860200	0.391300
C1701	C170	0.116200	0.798600	0.431000
C1711	C171	0.189900	0.755300	0.416700
C1721	C172	0.234000	0.782900	0.364300
C1731	C173	0.199600	0.843200	0.326700
C1741	C174	0.221100	0.682700	0.453900
C1751	C175	0.190200	0.664400	0.513300
C1761	C176	0.219300	0.596300	0.545400
C1771	C177	0.278300	0.541600	0.520100
C1781	C178	0.310500	0.559900	0.461600
C1791	C179	0.281500	0.629200	0.428500
C1801	C180	0.372800	0.504000	0.430800
C1811	C181	0.423600	0.409300	0.368000
C1821	C182	0.432600	0.338900	0.323600
C1831	C183	0.504300	0.337300	0.287000
C1841	C184	0.515800	0.270800	0.245600
C1851	C185	0.455000	0.208500	0.241000
C1861	C186	0.383300	0.209300	0.277500
C1871	C187	0.373400	0.275400	0.319300
C1881	C188	0.317900	0.142500	0.271900
C1891	C189	0.308600	0.094700	0.218400
C1901	C190	0.243000	0.038200	0.213100
C1911	C191	0.196300	0.068900	0.310400
C1921	C192	0.260200	0.126800	0.319500
N11	N1	0.118800	0.874400	0.162500
N21	N2	0.493700	0.544100	0.065500
N31	N3	0.553900	0.511800	0.104600
N41	N4	0.556000	0.649200	0.111200
N51	N5	0.574000	0.731100	0.131800
N61	N6	0.974500	0.813600	0.242000
N71	N7	0.881200	0.125600	0.662500
N81	N8	0.506300	0.455900	0.565500
N91	N9	0.446100	0.488200	0.604600
N101	N10	0.444000	0.350800	0.611200
N111	N11	0.426000	0.268900	0.631800
N121	N12	0.025500	0.186400	0.742000
N131	N13	0.625600	0.618800	0.412500
N141	N14	0.955900	0.993700	0.315500
N151	N15	0.988200	0.053900	0.354600
N161	N16	0.850800	0.056000	0.361200
N171	N17	0.768900	0.074000	0.381800
N181	N18	0.686400	0.474500	0.492000
N191	N19	0.374400	0.381200	0.912500
N201	N20	0.044100	0.006300	0.815500
N211	N21	0.011800	0.946100	0.854600
N221	N22	0.149200	0.944000	0.861200
N231	N23	0.231100	0.926000	0.881800
N241	N24	0.313600	0.525500	0.992000
N251	N25	0.381200	0.374400	0.087500
N261	N26	0.006300	0.044100	0.184500
N271	N27	0.946100	0.011800	0.145400
N281	N28	0.944000	0.149200	0.138800
N291	N29	0.926000	0.231100	0.118200
N301	N30	0.525500	0.313600	0.008000
N311	N31	0.618800	0.625600	0.587500
N321	N32	0.993700	0.955900	0.684500
N331	N33	0.053900	0.988200	0.645400
N341	N34	0.056000	0.850800	0.638800
N351	N35	0.074000	0.768900	0.618200
N361	N36	0.474500	0.686400	0.508000
N371	N37	0.874400	0.118800	0.837500
N381	N38	0.544100	0.493700	0.934500
N391	N39	0.511800	0.553900	0.895400
N401	N40	0.649200	0.556000	0.888800
N411	N41	0.731100	0.574000	0.868200
N421	N42	0.813600	0.974500	0.758000
N431	N43	0.125600	0.881200	0.337500
N441	N44	0.455900	0.506300	0.434500
N451	N45	0.488200	0.446100	0.395400
N461	N46	0.350800	0.444000	0.388800
N471	N47	0.268900	0.426000	0.368200
N481	N48	0.186400	0.025500	0.258000
Cl11	Cl1	0.731180	0.731180	0.000000
O11	O1	0.754800	0.773200	0.052300
O21	O2	0.786900	0.662800	0.020700
O31	O3	0.773200	0.754800	0.947700
O41	O4	0.662800	0.786900	0.979300
Cl21	Cl2	0.268820	0.268820	0.500000
O51	O5	0.245200	0.226800	0.552300
O61	O6	0.213100	0.337200	0.520700
O71	O7	0.226800	0.245200	0.447700
O81	O8	0.337200	0.213100	0.479300
Cl31	Cl3	0.768820	0.231180	0.250000
O91	O9	0.726800	0.254800	0.302300
O101	O10	0.837200	0.286900	0.270700
O111	O11	0.745200	0.273200	0.197700
O121	O12	0.713100	0.162800	0.229300
Cl41	Cl4	0.231180	0.768820	0.750000
O131	O13	0.273200	0.745200	0.802300
O141	O14	0.162800	0.713100	0.770700
O151	O15	0.254800	0.726800	0.697700
O161	O16	0.286900	0.837200	0.729300
