data_SAJJOF_clean_PM
_symmetry_space_group_name_H-M	'P1'
_cell_length_a	11.422100
_cell_length_b	21.274200
_cell_length_c	19.064700
_cell_angle_alpha	90.000000
_cell_angle_beta	95.419200
_cell_angle_gamma	90.000000
_symmetry_Int_Tables_number 1

loop_
_symmetry_equiv_pos_as_xyz
'x,y,z'

loop_
_atom_site_label
_atom_site_type_symbol
_atom_site_fract_x
_atom_site_fract_y
_atom_site_fract_z
Zn11	Zn1	0.615660	0.986530	0.084840
O11	O1	0.774400	0.964650	0.068140
O21	O2	0.763400	0.905440	0.161740
O31	O3	0.397200	0.573020	0.450430
O41	O4	0.510700	0.580120	0.548510
O51	O5	0.354800	0.953990	0.528150
O61	O6	0.228300	0.857070	0.583660
O71	O7	0.010500	0.794530	0.591600
O81	O8	0.221700	0.157630	0.457550
N11	N1	0.095200	0.921970	0.336090
N21	N2	0.183700	0.872980	0.430870
H11	H1	0.200870	0.862830	0.475400
N31	N3	0.539400	0.001490	0.174520
C11	C1	0.820000	0.928300	0.116300
C21	C2	0.950400	0.917270	0.116000
C31	C3	0.013600	0.894880	0.177870
H21	H2	0.972860	0.884890	0.217640
C41	C4	0.135000	0.887170	0.181500
C51	C5	0.193000	0.903000	0.123200
H31	H3	0.276150	0.899260	0.125390
C61	C6	0.130800	0.924200	0.061800
H41	H4	0.171180	0.933670	0.021720
C71	C7	0.010200	0.931700	0.058700
H51	H5	0.968320	0.946960	0.016760
C81	C8	0.199500	0.860640	0.246220
C91	C9	0.173300	0.876530	0.314320
C101	C10	0.230300	0.846540	0.373670
C111	C11	0.316100	0.800020	0.369150
C121	C12	0.343300	0.786520	0.301800
H61	H6	0.402400	0.756160	0.295540
C131	C13	0.287100	0.815860	0.242700
H71	H7	0.309740	0.804680	0.197700
C141	C14	0.376500	0.768730	0.432770
C151	C15	0.431200	0.803250	0.487700
H81	H8	0.428810	0.847850	0.485520
C161	C16	0.489800	0.773990	0.546200
H91	H9	0.524740	0.798590	0.584130
C171	C17	0.497100	0.709590	0.549000
H101	H10	0.540260	0.689600	0.587830
C181	C18	0.441300	0.673890	0.494930
C191	C19	0.381600	0.703350	0.437360
H111	H11	0.343470	0.678620	0.400480
C201	C20	0.451600	0.603570	0.497800
C211	C21	0.106100	0.917670	0.405430
C221	C22	0.047800	0.959170	0.452940
C231	C23	0.030400	0.022030	0.435800
H121	H12	0.050900	0.037260	0.391710
C241	C24	0.016600	0.937330	0.517800
H131	H13	0.027690	0.894310	0.530040
C251	C25	0.280600	0.104500	0.440600
C261	C26	0.322700	0.093600	0.376500
H141	H14	0.315620	0.124770	0.340640
C271	C27	0.376900	0.035200	0.364700
C281	C28	0.386500	0.990400	0.416600
H151	H15	0.422570	0.951240	0.408350
C291	C29	0.343600	0.002100	0.481400
C301	C30	0.293200	0.059300	0.494300
H161	H16	0.267210	0.068010	0.539220
C311	C31	0.305500	0.960200	0.593400
H171	H17	0.223890	0.976080	0.585670
H181	H18	0.352440	0.989900	0.624510
C321	C32	0.307200	0.896400	0.625800
H191	H19	0.387700	0.878710	0.628410
H201	H20	0.282950	0.899000	0.674210
C331	C33	0.216300	0.797100	0.614300
H211	H21	0.203110	0.801850	0.664600
H221	H22	0.289480	0.772630	0.611520
C341	C34	0.115800	0.763300	0.576500
H231	H23	0.122810	0.763620	0.525180
H241	H24	0.114540	0.719020	0.592540
C351	C35	0.907700	0.758800	0.575800
H251	H25	0.913170	0.718800	0.602430
H261	H26	0.897350	0.749000	0.524880
C361	C36	0.193600	0.203400	0.403900
H271	H27	0.172730	0.182410	0.358100
H281	H28	0.262170	0.231060	0.399280
C371	C37	0.427500	0.023880	0.297400
C381	C38	0.461600	0.072500	0.255200
H291	H29	0.446270	0.114780	0.267450
C391	C39	0.516700	0.060200	0.196500
H301	H30	0.540480	0.094720	0.169620
C401	C40	0.504200	0.954500	0.213500
H311	H31	0.518740	0.912690	0.198950
C411	C41	0.448500	0.962700	0.273000
H321	H32	0.423800	0.927260	0.298000
Zn21	Zn2	0.384340	0.486530	0.415160
O91	O9	0.225600	0.464650	0.431860
O101	O10	0.236600	0.405440	0.338260
O111	O11	0.602800	0.073020	0.049570
O121	O12	0.489300	0.080120	0.951490
O131	O13	0.645200	0.453990	0.971850
O141	O14	0.771700	0.357070	0.916340
O151	O15	0.989500	0.294530	0.908400
O161	O16	0.778300	0.657630	0.042450
N41	N4	0.904800	0.421970	0.163910
N51	N5	0.816300	0.372980	0.069130
H331	H33	0.799130	0.362830	0.024600
N61	N6	0.460600	0.501490	0.325480
C421	C42	0.180000	0.428300	0.383700
C431	C43	0.049600	0.417270	0.384000
C441	C44	0.986400	0.394880	0.322130
H341	H34	0.027140	0.384890	0.282360
C451	C45	0.865000	0.387170	0.318500
C461	C46	0.807000	0.403000	0.376800
H351	H35	0.723850	0.399260	0.374610
C471	C47	0.869200	0.424200	0.438200
H361	H36	0.828820	0.433670	0.478280
C481	C48	0.989800	0.431700	0.441300
H371	H37	0.031680	0.446960	0.483240
C491	C49	0.800500	0.360640	0.253780
C501	C50	0.826700	0.376530	0.185680
C511	C51	0.769700	0.346540	0.126330
C521	C52	0.683900	0.300020	0.130850
C531	C53	0.656700	0.286520	0.198200
H381	H38	0.597600	0.256160	0.204460
C541	C54	0.712900	0.315860	0.257300
H391	H39	0.690260	0.304680	0.302300
C551	C55	0.623500	0.268730	0.067230
C561	C56	0.568800	0.303250	0.012300
H401	H40	0.571190	0.347850	0.014480
C571	C57	0.510200	0.273990	0.953800
H411	H41	0.475260	0.298590	0.915870
C581	C58	0.502900	0.209590	0.951000
H421	H42	0.459740	0.189600	0.912170
C591	C59	0.558700	0.173890	0.005070
C601	C60	0.618400	0.203350	0.062640
H431	H43	0.656530	0.178620	0.099520
C611	C61	0.548400	0.103570	0.002200
C621	C62	0.893900	0.417670	0.094570
C631	C63	0.952200	0.459170	0.047060
C641	C64	0.969600	0.522030	0.064200
H441	H44	0.949100	0.537260	0.108290
C651	C65	0.983400	0.437330	0.982200
H451	H45	0.972310	0.394310	0.969960
C661	C66	0.719400	0.604500	0.059400
C671	C67	0.677300	0.593600	0.123500
H461	H46	0.684380	0.624770	0.159360
C681	C68	0.623100	0.535200	0.135300
C691	C69	0.613500	0.490400	0.083400
H471	H47	0.577430	0.451240	0.091650
C701	C70	0.656400	0.502100	0.018600
C711	C71	0.706800	0.559300	0.005700
H481	H48	0.732790	0.568010	0.960780
C721	C72	0.694500	0.460200	0.906600
H491	H49	0.776110	0.476080	0.914330
H501	H50	0.647560	0.489900	0.875490
C731	C73	0.692800	0.396400	0.874200
H511	H51	0.612300	0.378710	0.871590
H521	H52	0.717050	0.399000	0.825790
C741	C74	0.783700	0.297100	0.885700
H531	H53	0.796890	0.301850	0.835400
H541	H54	0.710520	0.272630	0.888480
C751	C75	0.884200	0.263300	0.923500
H551	H55	0.877190	0.263620	0.974820
H561	H56	0.885460	0.219020	0.907460
C761	C76	0.092300	0.258800	0.924200
H571	H57	0.086830	0.218800	0.897570
H581	H58	0.102650	0.249000	0.975120
C771	C77	0.806400	0.703400	0.096100
H591	H59	0.827270	0.682410	0.141900
H601	H60	0.737830	0.731060	0.100720
C781	C78	0.572500	0.523880	0.202600
C791	C79	0.538400	0.572500	0.244800
H611	H61	0.553730	0.614780	0.232550
C801	C80	0.483300	0.560200	0.303500
H621	H62	0.459520	0.594720	0.330380
C811	C81	0.495800	0.454500	0.286500
H631	H63	0.481260	0.412690	0.301050
C821	C82	0.551500	0.462700	0.227000
H641	H64	0.576200	0.427260	0.202000
Zn31	Zn3	0.384340	0.013470	0.915160
O171	O17	0.225600	0.035350	0.931860
O181	O18	0.236600	0.094560	0.838260
O191	O19	0.602800	0.426980	0.549570
O201	O20	0.489300	0.419880	0.451490
O211	O21	0.645200	0.046010	0.471850
O221	O22	0.771700	0.142930	0.416340
O231	O23	0.989500	0.205470	0.408400
O241	O24	0.778300	0.842370	0.542450
N71	N7	0.904800	0.078030	0.663910
N81	N8	0.816300	0.127020	0.569130
H651	H65	0.799130	0.137170	0.524600
N91	N9	0.460600	0.998510	0.825480
C831	C83	0.180000	0.071700	0.883700
C841	C84	0.049600	0.082730	0.884000
C851	C85	0.986400	0.105120	0.822130
H661	H66	0.027140	0.115110	0.782360
C861	C86	0.865000	0.112830	0.818500
C871	C87	0.807000	0.097000	0.876800
H671	H67	0.723850	0.100740	0.874610
C881	C88	0.869200	0.075800	0.938200
H681	H68	0.828820	0.066330	0.978280
C891	C89	0.989800	0.068300	0.941300
H691	H69	0.031680	0.053040	0.983240
C901	C90	0.800500	0.139360	0.753780
C911	C91	0.826700	0.123470	0.685680
C921	C92	0.769700	0.153460	0.626330
C931	C93	0.683900	0.199980	0.630850
C941	C94	0.656700	0.213480	0.698200
H701	H70	0.597600	0.243840	0.704460
C951	C95	0.712900	0.184140	0.757300
H711	H71	0.690260	0.195320	0.802300
C961	C96	0.623500	0.231270	0.567230
C971	C97	0.568800	0.196750	0.512300
H721	H72	0.571190	0.152150	0.514480
C981	C98	0.510200	0.226010	0.453800
H731	H73	0.475260	0.201410	0.415870
C991	C99	0.502900	0.290410	0.451000
H741	H74	0.459740	0.310400	0.412170
C1001	C100	0.558700	0.326110	0.505070
C1011	C101	0.618400	0.296650	0.562640
H751	H75	0.656530	0.321380	0.599520
C1021	C102	0.548400	0.396430	0.502200
C1031	C103	0.893900	0.082330	0.594570
C1041	C104	0.952200	0.040830	0.547060
C1051	C105	0.969600	0.977970	0.564200
H761	H76	0.949100	0.962740	0.608290
C1061	C106	0.983400	0.062670	0.482200
H771	H77	0.972310	0.105690	0.469960
C1071	C107	0.719400	0.895500	0.559400
C1081	C108	0.677300	0.906400	0.623500
H781	H78	0.684380	0.875230	0.659360
C1091	C109	0.623100	0.964800	0.635300
C1101	C110	0.613500	0.009600	0.583400
H791	H79	0.577430	0.048760	0.591650
C1111	C111	0.656400	0.997900	0.518600
C1121	C112	0.706800	0.940700	0.505700
H801	H80	0.732790	0.931990	0.460780
C1131	C113	0.694500	0.039800	0.406600
H811	H81	0.776110	0.023920	0.414330
H821	H82	0.647560	0.010100	0.375490
C1141	C114	0.692800	0.103600	0.374200
H831	H83	0.612300	0.121290	0.371590
H841	H84	0.717050	0.101000	0.325790
C1151	C115	0.783700	0.202900	0.385700
H851	H85	0.796890	0.198150	0.335400
H861	H86	0.710520	0.227370	0.388480
C1161	C116	0.884200	0.236700	0.423500
H871	H87	0.877190	0.236380	0.474820
H881	H88	0.885460	0.280980	0.407460
C1171	C117	0.092300	0.241200	0.424200
H891	H89	0.086830	0.281200	0.397570
H901	H90	0.102650	0.251000	0.475120
C1181	C118	0.806400	0.796600	0.596100
H911	H91	0.827270	0.817590	0.641900
H921	H92	0.737830	0.768940	0.600720
C1191	C119	0.572500	0.976120	0.702600
C1201	C120	0.538400	0.927500	0.744800
H931	H93	0.553730	0.885220	0.732550
C1211	C121	0.483300	0.939800	0.803500
H941	H94	0.459520	0.905280	0.830380
C1221	C122	0.495800	0.045500	0.786500
H951	H95	0.481260	0.087310	0.801050
C1231	C123	0.551500	0.037300	0.727000
H961	H96	0.576200	0.072740	0.702000
Zn41	Zn4	0.615660	0.513470	0.584840
O251	O25	0.774400	0.535350	0.568140
O261	O26	0.763400	0.594560	0.661740
O271	O27	0.397200	0.926980	0.950430
O281	O28	0.510700	0.919880	0.048510
O291	O29	0.354800	0.546010	0.028150
O301	O30	0.228300	0.642930	0.083660
O311	O31	0.010500	0.705470	0.091600
O321	O32	0.221700	0.342370	0.957550
N101	N10	0.095200	0.578030	0.836090
N111	N11	0.183700	0.627020	0.930870
H971	H97	0.200870	0.637170	0.975400
N121	N12	0.539400	0.498510	0.674520
C1241	C124	0.820000	0.571700	0.616300
C1251	C125	0.950400	0.582730	0.616000
C1261	C126	0.013600	0.605120	0.677870
H981	H98	0.972860	0.615110	0.717640
C1271	C127	0.135000	0.612830	0.681500
C1281	C128	0.193000	0.597000	0.623200
H991	H99	0.276150	0.600740	0.625390
C1291	C129	0.130800	0.575800	0.561800
H1001	H100	0.171180	0.566330	0.521720
C1301	C130	0.010200	0.568300	0.558700
H1011	H101	0.968320	0.553040	0.516760
C1311	C131	0.199500	0.639360	0.746220
C1321	C132	0.173300	0.623470	0.814320
C1331	C133	0.230300	0.653460	0.873670
C1341	C134	0.316100	0.699980	0.869150
C1351	C135	0.343300	0.713480	0.801800
H1021	H102	0.402400	0.743840	0.795540
C1361	C136	0.287100	0.684140	0.742700
H1031	H103	0.309740	0.695320	0.697700
C1371	C137	0.376500	0.731270	0.932770
C1381	C138	0.431200	0.696750	0.987700
H1041	H104	0.428810	0.652150	0.985520
C1391	C139	0.489800	0.726010	0.046200
H1051	H105	0.524740	0.701410	0.084130
C1401	C140	0.497100	0.790410	0.049000
H1061	H106	0.540260	0.810400	0.087830
C1411	C141	0.441300	0.826110	0.994930
C1421	C142	0.381600	0.796650	0.937360
H1071	H107	0.343470	0.821380	0.900480
C1431	C143	0.451600	0.896430	0.997800
C1441	C144	0.106100	0.582330	0.905430
C1451	C145	0.047800	0.540830	0.952940
C1461	C146	0.030400	0.477970	0.935800
H1081	H108	0.050900	0.462740	0.891710
C1471	C147	0.016600	0.562670	0.017800
H1091	H109	0.027690	0.605690	0.030040
C1481	C148	0.280600	0.395500	0.940600
C1491	C149	0.322700	0.406400	0.876500
H1101	H110	0.315620	0.375230	0.840640
C1501	C150	0.376900	0.464800	0.864700
C1511	C151	0.386500	0.509600	0.916600
H1111	H111	0.422570	0.548760	0.908350
C1521	C152	0.343600	0.497900	0.981400
C1531	C153	0.293200	0.440700	0.994300
H1121	H112	0.267210	0.431990	0.039220
C1541	C154	0.305500	0.539800	0.093400
H1131	H113	0.223890	0.523920	0.085670
H1141	H114	0.352440	0.510100	0.124510
C1551	C155	0.307200	0.603600	0.125800
H1151	H115	0.387700	0.621290	0.128410
H1161	H116	0.282950	0.601000	0.174210
C1561	C156	0.216300	0.702900	0.114300
H1171	H117	0.203110	0.698150	0.164600
H1181	H118	0.289480	0.727370	0.111520
C1571	C157	0.115800	0.736700	0.076500
H1191	H119	0.122810	0.736380	0.025180
H1201	H120	0.114540	0.780980	0.092540
C1581	C158	0.907700	0.741200	0.075800
H1211	H121	0.913170	0.781200	0.102430
H1221	H122	0.897350	0.751000	0.024880
C1591	C159	0.193600	0.296600	0.903900
H1231	H123	0.172730	0.317590	0.858100
H1241	H124	0.262170	0.268940	0.899280
C1601	C160	0.427500	0.476120	0.797400
C1611	C161	0.461600	0.427500	0.755200
H1251	H125	0.446270	0.385220	0.767450
C1621	C162	0.516700	0.439800	0.696500
H1261	H126	0.540480	0.405280	0.669620
C1631	C163	0.504200	0.545500	0.713500
H1271	H127	0.518740	0.587310	0.698950
C1641	C164	0.448500	0.537300	0.773000
H1281	H128	0.423800	0.572740	0.798000
