data_SAJKUM_clean_PM
_symmetry_space_group_name_H-M	'P1'
_cell_length_a	19.985300
_cell_length_b	19.985300
_cell_length_c	19.985300
_cell_angle_alpha	90.000000
_cell_angle_beta	90.000000
_cell_angle_gamma	90.000000
_symmetry_Int_Tables_number 1

loop_
_symmetry_equiv_pos_as_xyz
'x,y,z'

loop_
_atom_site_label
_atom_site_type_symbol
_atom_site_fract_x
_atom_site_fract_y
_atom_site_fract_z
Pr11	Pr1	0.512040	0.744080	0.346380
O11	O1	0.550630	0.641750	0.291950
O21	O2	0.580860	0.579900	0.204620
O31	O3	0.409020	0.884590	0.199870
O41	O4	0.461560	0.838340	0.286160
N11	N1	0.500600	0.735810	0.216880
C11	C1	0.445630	0.841300	0.225430
C21	C2	0.554970	0.630620	0.229630
C31	C3	0.472910	0.785600	0.181910
C41	C4	0.525950	0.683650	0.184350
C51	C5	0.470100	0.785600	0.113160
H11	H1	0.450400	0.820700	0.089800
C61	C6	0.525300	0.679300	0.115720
H21	H2	0.542900	0.642100	0.094000
C71	C7	0.497800	0.731400	0.079890
H31	H3	0.497900	0.730200	0.033400
Pr21	Pr2	0.987960	0.255920	0.846380
O51	O5	0.949370	0.358250	0.791950
O61	O6	0.919140	0.420100	0.704620
O71	O7	0.090980	0.115410	0.699870
O81	O8	0.038440	0.161660	0.786160
N21	N2	0.999400	0.264190	0.716880
C81	C8	0.054370	0.158700	0.725430
C91	C9	0.945030	0.369380	0.729630
C101	C10	0.027090	0.214400	0.681910
C111	C11	0.974050	0.316350	0.684350
C121	C12	0.029900	0.214400	0.613160
H41	H4	0.049600	0.179300	0.589800
C131	C13	0.974700	0.320700	0.615720
H51	H5	0.957100	0.357900	0.594000
C141	C14	0.002200	0.268600	0.579890
H61	H6	0.002100	0.269800	0.533400
Pr31	Pr3	0.487960	0.244080	0.153620
O91	O9	0.449370	0.141750	0.208050
O101	O10	0.419140	0.079900	0.295380
O111	O11	0.590980	0.384590	0.300130
O121	O12	0.538440	0.338340	0.213840
N31	N3	0.499400	0.235810	0.283120
C151	C15	0.554370	0.341300	0.274570
C161	C16	0.445030	0.130620	0.270370
C171	C17	0.527090	0.285600	0.318090
C181	C18	0.474050	0.183650	0.315650
C191	C19	0.529900	0.285600	0.386840
H71	H7	0.549600	0.320700	0.410200
C201	C20	0.474700	0.179300	0.384280
H81	H8	0.457100	0.142100	0.406000
C211	C21	0.502200	0.231400	0.420110
H91	H9	0.502100	0.230200	0.466600
Pr41	Pr4	0.012040	0.755920	0.653620
O131	O13	0.050630	0.858250	0.708050
O141	O14	0.080860	0.920100	0.795380
O151	O15	0.909020	0.615410	0.800130
O161	O16	0.961560	0.661660	0.713840
N41	N4	0.000600	0.764190	0.783120
C221	C22	0.945630	0.658700	0.774570
C231	C23	0.054970	0.869380	0.770370
C241	C24	0.972910	0.714400	0.818090
C251	C25	0.025950	0.816350	0.815650
C261	C26	0.970100	0.714400	0.886840
H101	H10	0.950400	0.679300	0.910200
C271	C27	0.025300	0.820700	0.884280
H111	H11	0.042900	0.857900	0.906000
C281	C28	0.997800	0.768600	0.920110
H121	H12	0.997900	0.769800	0.966600
Pr51	Pr5	0.346380	0.512040	0.744080
O171	O17	0.291950	0.550630	0.641750
O181	O18	0.204620	0.580860	0.579900
O191	O19	0.199870	0.409020	0.884590
O201	O20	0.286160	0.461560	0.838340
N51	N5	0.216880	0.500600	0.735810
C291	C29	0.225430	0.445630	0.841300
C301	C30	0.229630	0.554970	0.630620
C311	C31	0.181910	0.472910	0.785600
C321	C32	0.184350	0.525950	0.683650
C331	C33	0.113160	0.470100	0.785600
H131	H13	0.089800	0.450400	0.820700
C341	C34	0.115720	0.525300	0.679300
H141	H14	0.094000	0.542900	0.642100
C351	C35	0.079890	0.497800	0.731400
H151	H15	0.033400	0.497900	0.730200
Pr61	Pr6	0.846380	0.987960	0.255920
O211	O21	0.791950	0.949370	0.358250
O221	O22	0.704620	0.919140	0.420100
O231	O23	0.699870	0.090980	0.115410
O241	O24	0.786160	0.038440	0.161660
N61	N6	0.716880	0.999400	0.264190
C361	C36	0.725430	0.054370	0.158700
C371	C37	0.729630	0.945030	0.369380
C381	C38	0.681910	0.027090	0.214400
C391	C39	0.684350	0.974050	0.316350
C401	C40	0.613160	0.029900	0.214400
H161	H16	0.589800	0.049600	0.179300
C411	C41	0.615720	0.974700	0.320700
H171	H17	0.594000	0.957100	0.357900
C421	C42	0.579890	0.002200	0.268600
H181	H18	0.533400	0.002100	0.269800
Pr71	Pr7	0.153620	0.487960	0.244080
O251	O25	0.208050	0.449370	0.141750
O261	O26	0.295380	0.419140	0.079900
O271	O27	0.300130	0.590980	0.384590
O281	O28	0.213840	0.538440	0.338340
N71	N7	0.283120	0.499400	0.235810
C431	C43	0.274570	0.554370	0.341300
C441	C44	0.270370	0.445030	0.130620
C451	C45	0.318090	0.527090	0.285600
C461	C46	0.315650	0.474050	0.183650
C471	C47	0.386840	0.529900	0.285600
H191	H19	0.410200	0.549600	0.320700
C481	C48	0.384280	0.474700	0.179300
H201	H20	0.406000	0.457100	0.142100
C491	C49	0.420110	0.502200	0.231400
H211	H21	0.466600	0.502100	0.230200
Pr81	Pr8	0.653620	0.012040	0.755920
O291	O29	0.708050	0.050630	0.858250
O301	O30	0.795380	0.080860	0.920100
O311	O31	0.800130	0.909020	0.615410
O321	O32	0.713840	0.961560	0.661660
N81	N8	0.783120	0.000600	0.764190
C501	C50	0.774570	0.945630	0.658700
C511	C51	0.770370	0.054970	0.869380
C521	C52	0.818090	0.972910	0.714400
C531	C53	0.815650	0.025950	0.816350
C541	C54	0.886840	0.970100	0.714400
H221	H22	0.910200	0.950400	0.679300
C551	C55	0.884280	0.025300	0.820700
H231	H23	0.906000	0.042900	0.857900
C561	C56	0.920110	0.997800	0.768600
H241	H24	0.966600	0.997900	0.769800
Pr91	Pr9	0.744080	0.346380	0.512040
O331	O33	0.641750	0.291950	0.550630
O341	O34	0.579900	0.204620	0.580860
O351	O35	0.884590	0.199870	0.409020
O361	O36	0.838340	0.286160	0.461560
N91	N9	0.735810	0.216880	0.500600
C571	C57	0.841300	0.225430	0.445630
C581	C58	0.630620	0.229630	0.554970
C591	C59	0.785600	0.181910	0.472910
C601	C60	0.683650	0.184350	0.525950
C611	C61	0.785600	0.113160	0.470100
H251	H25	0.820700	0.089800	0.450400
C621	C62	0.679300	0.115720	0.525300
H261	H26	0.642100	0.094000	0.542900
C631	C63	0.731400	0.079890	0.497800
H271	H27	0.730200	0.033400	0.497900
Pr101	Pr10	0.255920	0.846380	0.987960
O371	O37	0.358250	0.791950	0.949370
O381	O38	0.420100	0.704620	0.919140
O391	O39	0.115410	0.699870	0.090980
O401	O40	0.161660	0.786160	0.038440
N101	N10	0.264190	0.716880	0.999400
C641	C64	0.158700	0.725430	0.054370
C651	C65	0.369380	0.729630	0.945030
C661	C66	0.214400	0.681910	0.027090
C671	C67	0.316350	0.684350	0.974050
C681	C68	0.214400	0.613160	0.029900
H281	H28	0.179300	0.589800	0.049600
C691	C69	0.320700	0.615720	0.974700
H291	H29	0.357900	0.594000	0.957100
C701	C70	0.268600	0.579890	0.002200
H301	H30	0.269800	0.533400	0.002100
Pr111	Pr11	0.244080	0.153620	0.487960
O411	O41	0.141750	0.208050	0.449370
O421	O42	0.079900	0.295380	0.419140
O431	O43	0.384590	0.300130	0.590980
O441	O44	0.338340	0.213840	0.538440
N111	N11	0.235810	0.283120	0.499400
C711	C71	0.341300	0.274570	0.554370
C721	C72	0.130620	0.270370	0.445030
C731	C73	0.285600	0.318090	0.527090
C741	C74	0.183650	0.315650	0.474050
C751	C75	0.285600	0.386840	0.529900
H311	H31	0.320700	0.410200	0.549600
C761	C76	0.179300	0.384280	0.474700
H321	H32	0.142100	0.406000	0.457100
C771	C77	0.231400	0.420110	0.502200
H331	H33	0.230200	0.466600	0.502100
Pr121	Pr12	0.755920	0.653620	0.012040
O451	O45	0.858250	0.708050	0.050630
O461	O46	0.920100	0.795380	0.080860
O471	O47	0.615410	0.800130	0.909020
O481	O48	0.661660	0.713840	0.961560
N121	N12	0.764190	0.783120	0.000600
C781	C78	0.658700	0.774570	0.945630
C791	C79	0.869380	0.770370	0.054970
C801	C80	0.714400	0.818090	0.972910
C811	C81	0.816350	0.815650	0.025950
C821	C82	0.714400	0.886840	0.970100
H341	H34	0.679300	0.910200	0.950400
C831	C83	0.820700	0.884280	0.025300
H351	H35	0.857900	0.906000	0.042900
C841	C84	0.768600	0.920110	0.997800
H361	H36	0.769800	0.966600	0.997900
Pr131	Pr13	0.487960	0.255920	0.653620
O491	O49	0.449370	0.358250	0.708050
O501	O50	0.419140	0.420100	0.795380
O511	O51	0.590980	0.115410	0.800130
O521	O52	0.538440	0.161660	0.713840
N131	N13	0.499400	0.264190	0.783120
C851	C85	0.554370	0.158700	0.774570
C861	C86	0.445030	0.369380	0.770370
C871	C87	0.527090	0.214400	0.818090
C881	C88	0.474050	0.316350	0.815650
C891	C89	0.529900	0.214400	0.886840
H371	H37	0.549600	0.179300	0.910200
C901	C90	0.474700	0.320700	0.884280
H381	H38	0.457100	0.357900	0.906000
C911	C91	0.502200	0.268600	0.920110
H391	H39	0.502100	0.269800	0.966600
Pr141	Pr14	0.012040	0.744080	0.153620
O531	O53	0.050630	0.641750	0.208050
O541	O54	0.080860	0.579900	0.295380
O551	O55	0.909020	0.884590	0.300130
O561	O56	0.961560	0.838340	0.213840
N141	N14	0.000600	0.735810	0.283120
C921	C92	0.945630	0.841300	0.274570
C931	C93	0.054970	0.630620	0.270370
C941	C94	0.972910	0.785600	0.318090
C951	C95	0.025950	0.683650	0.315650
C961	C96	0.970100	0.785600	0.386840
H401	H40	0.950400	0.820700	0.410200
C971	C97	0.025300	0.679300	0.384280
H411	H41	0.042900	0.642100	0.406000
C981	C98	0.997800	0.731400	0.420110
H421	H42	0.997900	0.730200	0.466600
Pr151	Pr15	0.512040	0.755920	0.846380
O571	O57	0.550630	0.858250	0.791950
O581	O58	0.580860	0.920100	0.704620
O591	O59	0.409020	0.615410	0.699870
O601	O60	0.461560	0.661660	0.786160
N151	N15	0.500600	0.764190	0.716880
C991	C99	0.445630	0.658700	0.725430
C1001	C100	0.554970	0.869380	0.729630
C1011	C101	0.472910	0.714400	0.681910
C1021	C102	0.525950	0.816350	0.684350
C1031	C103	0.470100	0.714400	0.613160
H431	H43	0.450400	0.679300	0.589800
C1041	C104	0.525300	0.820700	0.615720
H441	H44	0.542900	0.857900	0.594000
C1051	C105	0.497800	0.768600	0.579890
H451	H45	0.497900	0.769800	0.533400
Pr161	Pr16	0.987960	0.244080	0.346380
O611	O61	0.949370	0.141750	0.291950
O621	O62	0.919140	0.079900	0.204620
O631	O63	0.090980	0.384590	0.199870
O641	O64	0.038440	0.338340	0.286160
N161	N16	0.999400	0.235810	0.216880
C1061	C106	0.054370	0.341300	0.225430
C1071	C107	0.945030	0.130620	0.229630
C1081	C108	0.027090	0.285600	0.181910
C1091	C109	0.974050	0.183650	0.184350
C1101	C110	0.029900	0.285600	0.113160
H461	H46	0.049600	0.320700	0.089800
C1111	C111	0.974700	0.179300	0.115720
H471	H47	0.957100	0.142100	0.094000
C1121	C112	0.002200	0.231400	0.079890
H481	H48	0.002100	0.230200	0.033400
Pr171	Pr17	0.653620	0.487960	0.255920
O651	O65	0.708050	0.449370	0.358250
O661	O66	0.795380	0.419140	0.420100
O671	O67	0.800130	0.590980	0.115410
O681	O68	0.713840	0.538440	0.161660
N171	N17	0.783120	0.499400	0.264190
C1131	C113	0.774570	0.554370	0.158700
C1141	C114	0.770370	0.445030	0.369380
C1151	C115	0.818090	0.527090	0.214400
C1161	C116	0.815650	0.474050	0.316350
C1171	C117	0.886840	0.529900	0.214400
H491	H49	0.910200	0.549600	0.179300
C1181	C118	0.884280	0.474700	0.320700
H501	H50	0.906000	0.457100	0.357900
C1191	C119	0.920110	0.502200	0.268600
H511	H51	0.966600	0.502100	0.269800
Pr181	Pr18	0.153620	0.012040	0.744080
O691	O69	0.208050	0.050630	0.641750
O701	O70	0.295380	0.080860	0.579900
O711	O71	0.300130	0.909020	0.884590
O721	O72	0.213840	0.961560	0.838340
N181	N18	0.283120	0.000600	0.735810
C1201	C120	0.274570	0.945630	0.841300
C1211	C121	0.270370	0.054970	0.630620
C1221	C122	0.318090	0.972910	0.785600
C1231	C123	0.315650	0.025950	0.683650
C1241	C124	0.386840	0.970100	0.785600
H521	H52	0.410200	0.950400	0.820700
C1251	C125	0.384280	0.025300	0.679300
H531	H53	0.406000	0.042900	0.642100
C1261	C126	0.420110	0.997800	0.731400
H541	H54	0.466600	0.997900	0.730200
Pr191	Pr19	0.846380	0.512040	0.755920
O731	O73	0.791950	0.550630	0.858250
O741	O74	0.704620	0.580860	0.920100
O751	O75	0.699870	0.409020	0.615410
O761	O76	0.786160	0.461560	0.661660
N191	N19	0.716880	0.500600	0.764190
C1271	C127	0.725430	0.445630	0.658700
C1281	C128	0.729630	0.554970	0.869380
C1291	C129	0.681910	0.472910	0.714400
C1301	C130	0.684350	0.525950	0.816350
C1311	C131	0.613160	0.470100	0.714400
H551	H55	0.589800	0.450400	0.679300
C1321	C132	0.615720	0.525300	0.820700
H561	H56	0.594000	0.542900	0.857900
C1331	C133	0.579890	0.497800	0.768600
H571	H57	0.533400	0.497900	0.769800
Pr201	Pr20	0.346380	0.987960	0.244080
O771	O77	0.291950	0.949370	0.141750
O781	O78	0.204620	0.919140	0.079900
O791	O79	0.199870	0.090980	0.384590
O801	O80	0.286160	0.038440	0.338340
N201	N20	0.216880	0.999400	0.235810
C1341	C134	0.225430	0.054370	0.341300
C1351	C135	0.229630	0.945030	0.130620
C1361	C136	0.181910	0.027090	0.285600
C1371	C137	0.184350	0.974050	0.183650
C1381	C138	0.113160	0.029900	0.285600
H581	H58	0.089800	0.049600	0.320700
C1391	C139	0.115720	0.974700	0.179300
H591	H59	0.094000	0.957100	0.142100
C1401	C140	0.079890	0.002200	0.231400
H601	H60	0.033400	0.002100	0.230200
Pr211	Pr21	0.255920	0.653620	0.487960
O811	O81	0.358250	0.708050	0.449370
O821	O82	0.420100	0.795380	0.419140
O831	O83	0.115410	0.800130	0.590980
O841	O84	0.161660	0.713840	0.538440
N211	N21	0.264190	0.783120	0.499400
C1411	C141	0.158700	0.774570	0.554370
C1421	C142	0.369380	0.770370	0.445030
C1431	C143	0.214400	0.818090	0.527090
C1441	C144	0.316350	0.815650	0.474050
C1451	C145	0.214400	0.886840	0.529900
H611	H61	0.179300	0.910200	0.549600
C1461	C146	0.320700	0.884280	0.474700
H621	H62	0.357900	0.906000	0.457100
C1471	C147	0.268600	0.920110	0.502200
H631	H63	0.269800	0.966600	0.502100
Pr221	Pr22	0.744080	0.153620	0.012040
O851	O85	0.641750	0.208050	0.050630
O861	O86	0.579900	0.295380	0.080860
O871	O87	0.884590	0.300130	0.909020
O881	O88	0.838340	0.213840	0.961560
N221	N22	0.735810	0.283120	0.000600
C1481	C148	0.841300	0.274570	0.945630
C1491	C149	0.630620	0.270370	0.054970
C1501	C150	0.785600	0.318090	0.972910
C1511	C151	0.683650	0.315650	0.025950
C1521	C152	0.785600	0.386840	0.970100
H641	H64	0.820700	0.410200	0.950400
C1531	C153	0.679300	0.384280	0.025300
H651	H65	0.642100	0.406000	0.042900
C1541	C154	0.731400	0.420110	0.997800
H661	H66	0.730200	0.466600	0.997900
Pr231	Pr23	0.755920	0.846380	0.512040
O891	O89	0.858250	0.791950	0.550630
O901	O90	0.920100	0.704620	0.580860
O911	O91	0.615410	0.699870	0.409020
O921	O92	0.661660	0.786160	0.461560
N231	N23	0.764190	0.716880	0.500600
C1551	C155	0.658700	0.725430	0.445630
C1561	C156	0.869380	0.729630	0.554970
C1571	C157	0.714400	0.681910	0.472910
C1581	C158	0.816350	0.684350	0.525950
C1591	C159	0.714400	0.613160	0.470100
H671	H67	0.679300	0.589800	0.450400
C1601	C160	0.820700	0.615720	0.525300
H681	H68	0.857900	0.594000	0.542900
C1611	C161	0.768600	0.579890	0.497800
H691	H69	0.769800	0.533400	0.497900
Pr241	Pr24	0.244080	0.346380	0.987960
O931	O93	0.141750	0.291950	0.949370
O941	O94	0.079900	0.204620	0.919140
O951	O95	0.384590	0.199870	0.090980
O961	O96	0.338340	0.286160	0.038440
N241	N24	0.235810	0.216880	0.999400
C1621	C162	0.341300	0.225430	0.054370
C1631	C163	0.130620	0.229630	0.945030
C1641	C164	0.285600	0.181910	0.027090
C1651	C165	0.183650	0.184350	0.974050
C1661	C166	0.285600	0.113160	0.029900
H701	H70	0.320700	0.089800	0.049600
C1671	C167	0.179300	0.115720	0.974700
H711	H71	0.142100	0.094000	0.957100
C1681	C168	0.231400	0.079890	0.002200
H721	H72	0.230200	0.033400	0.002100
