data_SAJLOH_clean_PM
_symmetry_space_group_name_H-M	'P1'
_cell_length_a	8.553000
_cell_length_b	9.114000
_cell_length_c	10.399000
_cell_angle_alpha	105.160000
_cell_angle_beta	97.830000
_cell_angle_gamma	114.410000
_symmetry_Int_Tables_number 1

loop_
_symmetry_equiv_pos_as_xyz
'x,y,z'

loop_
_atom_site_label
_atom_site_type_symbol
_atom_site_fract_x
_atom_site_fract_y
_atom_site_fract_z
Cu11	Cu1	0.828250	0.957900	0.297300
P11	P1	0.236040	0.099730	0.423970
O11	O1	0.080500	0.126400	0.364900
O21	O2	0.401000	0.270500	0.504500
O31	O3	0.193200	0.988700	0.513900
C11	C1	0.287400	0.988100	0.279900
C21	C2	0.229500	0.982700	0.146600
H11	H1	0.158300	0.033900	0.130400
C31	C3	0.275800	0.902800	0.038000
C41	C4	0.382100	0.825400	0.061800
H21	H2	0.411400	0.768500	0.988500
C51	C5	0.443400	0.833500	0.193800
C61	C6	0.394000	0.911500	0.302000
H31	H3	0.432500	0.912600	0.390500
N11	N1	0.567200	0.768500	0.223000
H41	H4	0.555000	0.680000	0.145000
H51	H5	0.540000	0.717000	0.286000
C71	C7	0.221900	0.903600	0.895200
O41	O4	0.217300	0.793900	0.793700
O51	O5	0.186200	0.024700	0.887400
Cu21	Cu2	0.171750	0.042100	0.702700
P21	P2	0.763960	0.900270	0.576030
O61	O6	0.919500	0.873600	0.635100
O71	O7	0.599000	0.729500	0.495500
O81	O8	0.806800	0.011300	0.486100
C81	C8	0.712600	0.011900	0.720100
C91	C9	0.770500	0.017300	0.853400
H61	H6	0.841700	0.966100	0.869600
C101	C10	0.724200	0.097200	0.962000
C111	C11	0.617900	0.174600	0.938200
H71	H7	0.588600	0.231500	0.011500
C121	C12	0.556600	0.166500	0.806200
C131	C13	0.606000	0.088500	0.698000
H81	H8	0.567500	0.087400	0.609500
N21	N2	0.432800	0.231500	0.777000
H91	H9	0.445000	0.320000	0.855000
H101	H10	0.460000	0.283000	0.714000
C141	C14	0.778100	0.096400	0.104800
O91	O9	0.782700	0.206100	0.206300
O101	O10	0.813800	0.975300	0.112600
Cu31	Cu3	0.500000	0.500000	0.500000
