data_SAJLEX_clean_PM
_symmetry_space_group_name_H-M	'P1'
_cell_length_a	19.833000
_cell_length_b	19.833000
_cell_length_c	19.833000
_cell_angle_alpha	90.000000
_cell_angle_beta	90.000000
_cell_angle_gamma	90.000000
_symmetry_Int_Tables_number 1

loop_
_symmetry_equiv_pos_as_xyz
'x,y,z'

loop_
_atom_site_label
_atom_site_type_symbol
_atom_site_fract_x
_atom_site_fract_y
_atom_site_fract_z
Sm11	Sm1	0.506570	0.747340	0.347240
O11	O1	0.549100	0.646970	0.293670
O21	O2	0.458810	0.843160	0.290600
O31	O3	0.411500	0.894180	0.202900
O41	O4	0.582150	0.586390	0.205390
N11	N1	0.500390	0.742830	0.219440
C11	C1	0.554900	0.636500	0.230700
C21	C2	0.445800	0.848500	0.228400
C31	C3	0.473200	0.793300	0.184100
C41	C4	0.526200	0.690300	0.185800
C51	C5	0.470800	0.793600	0.114900
H11	H1	0.451300	0.829300	0.091600
C61	C6	0.526800	0.687500	0.116000
H21	H2	0.546200	0.651200	0.093600
C71	C7	0.498300	0.739500	0.081000
H31	H3	0.497300	0.738400	0.034100
Sm21	Sm2	0.993430	0.252660	0.847240
O51	O5	0.950900	0.353030	0.793670
O61	O6	0.041190	0.156840	0.790600
O71	O7	0.088500	0.105820	0.702900
O81	O8	0.917850	0.413610	0.705390
N21	N2	0.999610	0.257170	0.719440
C81	C8	0.945100	0.363500	0.730700
C91	C9	0.054200	0.151500	0.728400
C101	C10	0.026800	0.206700	0.684100
C111	C11	0.973800	0.309700	0.685800
C121	C12	0.029200	0.206400	0.614900
H41	H4	0.048700	0.170700	0.591600
C131	C13	0.973200	0.312500	0.616000
H51	H5	0.953800	0.348800	0.593600
C141	C14	0.001700	0.260500	0.581000
H61	H6	0.002700	0.261600	0.534100
Sm31	Sm3	0.493430	0.247340	0.152760
O91	O9	0.450900	0.146970	0.206330
O101	O10	0.541190	0.343160	0.209400
O111	O11	0.588500	0.394180	0.297100
O121	O12	0.417850	0.086390	0.294610
N31	N3	0.499610	0.242830	0.280560
C151	C15	0.445100	0.136500	0.269300
C161	C16	0.554200	0.348500	0.271600
C171	C17	0.526800	0.293300	0.315900
C181	C18	0.473800	0.190300	0.314200
C191	C19	0.529200	0.293600	0.385100
H71	H7	0.548700	0.329300	0.408400
C201	C20	0.473200	0.187500	0.384000
H81	H8	0.453800	0.151200	0.406400
C211	C21	0.501700	0.239500	0.419000
H91	H9	0.502700	0.238400	0.465900
Sm41	Sm4	0.006570	0.752660	0.652760
O131	O13	0.049100	0.853030	0.706330
O141	O14	0.958810	0.656840	0.709400
O151	O15	0.911500	0.605820	0.797100
O161	O16	0.082150	0.913610	0.794610
N41	N4	0.000390	0.757170	0.780560
C221	C22	0.054900	0.863500	0.769300
C231	C23	0.945800	0.651500	0.771600
C241	C24	0.973200	0.706700	0.815900
C251	C25	0.026200	0.809700	0.814200
C261	C26	0.970800	0.706400	0.885100
H101	H10	0.951300	0.670700	0.908400
C271	C27	0.026800	0.812500	0.884000
H111	H11	0.046200	0.848800	0.906400
C281	C28	0.998300	0.760500	0.919000
H121	H12	0.997300	0.761600	0.965900
Sm51	Sm5	0.347240	0.506570	0.747340
O171	O17	0.293670	0.549100	0.646970
O181	O18	0.290600	0.458810	0.843160
O191	O19	0.202900	0.411500	0.894180
O201	O20	0.205390	0.582150	0.586390
N51	N5	0.219440	0.500390	0.742830
C291	C29	0.230700	0.554900	0.636500
C301	C30	0.228400	0.445800	0.848500
C311	C31	0.184100	0.473200	0.793300
C321	C32	0.185800	0.526200	0.690300
C331	C33	0.114900	0.470800	0.793600
H131	H13	0.091600	0.451300	0.829300
C341	C34	0.116000	0.526800	0.687500
H141	H14	0.093600	0.546200	0.651200
C351	C35	0.081000	0.498300	0.739500
H151	H15	0.034100	0.497300	0.738400
Sm61	Sm6	0.847240	0.993430	0.252660
O211	O21	0.793670	0.950900	0.353030
O221	O22	0.790600	0.041190	0.156840
O231	O23	0.702900	0.088500	0.105820
O241	O24	0.705390	0.917850	0.413610
N61	N6	0.719440	0.999610	0.257170
C361	C36	0.730700	0.945100	0.363500
C371	C37	0.728400	0.054200	0.151500
C381	C38	0.684100	0.026800	0.206700
C391	C39	0.685800	0.973800	0.309700
C401	C40	0.614900	0.029200	0.206400
H161	H16	0.591600	0.048700	0.170700
C411	C41	0.616000	0.973200	0.312500
H171	H17	0.593600	0.953800	0.348800
C421	C42	0.581000	0.001700	0.260500
H181	H18	0.534100	0.002700	0.261600
Sm71	Sm7	0.152760	0.493430	0.247340
O251	O25	0.206330	0.450900	0.146970
O261	O26	0.209400	0.541190	0.343160
O271	O27	0.297100	0.588500	0.394180
O281	O28	0.294610	0.417850	0.086390
N71	N7	0.280560	0.499610	0.242830
C431	C43	0.269300	0.445100	0.136500
C441	C44	0.271600	0.554200	0.348500
C451	C45	0.315900	0.526800	0.293300
C461	C46	0.314200	0.473800	0.190300
C471	C47	0.385100	0.529200	0.293600
H191	H19	0.408400	0.548700	0.329300
C481	C48	0.384000	0.473200	0.187500
H201	H20	0.406400	0.453800	0.151200
C491	C49	0.419000	0.501700	0.239500
H211	H21	0.465900	0.502700	0.238400
Sm81	Sm8	0.652760	0.006570	0.752660
O291	O29	0.706330	0.049100	0.853030
O301	O30	0.709400	0.958810	0.656840
O311	O31	0.797100	0.911500	0.605820
O321	O32	0.794610	0.082150	0.913610
N81	N8	0.780560	0.000390	0.757170
C501	C50	0.769300	0.054900	0.863500
C511	C51	0.771600	0.945800	0.651500
C521	C52	0.815900	0.973200	0.706700
C531	C53	0.814200	0.026200	0.809700
C541	C54	0.885100	0.970800	0.706400
H221	H22	0.908400	0.951300	0.670700
C551	C55	0.884000	0.026800	0.812500
H231	H23	0.906400	0.046200	0.848800
C561	C56	0.919000	0.998300	0.760500
H241	H24	0.965900	0.997300	0.761600
Sm91	Sm9	0.747340	0.347240	0.506570
O331	O33	0.646970	0.293670	0.549100
O341	O34	0.843160	0.290600	0.458810
O351	O35	0.894180	0.202900	0.411500
O361	O36	0.586390	0.205390	0.582150
N91	N9	0.742830	0.219440	0.500390
C571	C57	0.636500	0.230700	0.554900
C581	C58	0.848500	0.228400	0.445800
C591	C59	0.793300	0.184100	0.473200
C601	C60	0.690300	0.185800	0.526200
C611	C61	0.793600	0.114900	0.470800
H251	H25	0.829300	0.091600	0.451300
C621	C62	0.687500	0.116000	0.526800
H261	H26	0.651200	0.093600	0.546200
C631	C63	0.739500	0.081000	0.498300
H271	H27	0.738400	0.034100	0.497300
Sm101	Sm10	0.252660	0.847240	0.993430
O371	O37	0.353030	0.793670	0.950900
O381	O38	0.156840	0.790600	0.041190
O391	O39	0.105820	0.702900	0.088500
O401	O40	0.413610	0.705390	0.917850
N101	N10	0.257170	0.719440	0.999610
C641	C64	0.363500	0.730700	0.945100
C651	C65	0.151500	0.728400	0.054200
C661	C66	0.206700	0.684100	0.026800
C671	C67	0.309700	0.685800	0.973800
C681	C68	0.206400	0.614900	0.029200
H281	H28	0.170700	0.591600	0.048700
C691	C69	0.312500	0.616000	0.973200
H291	H29	0.348800	0.593600	0.953800
C701	C70	0.260500	0.581000	0.001700
H301	H30	0.261600	0.534100	0.002700
Sm111	Sm11	0.247340	0.152760	0.493430
O411	O41	0.146970	0.206330	0.450900
O421	O42	0.343160	0.209400	0.541190
O431	O43	0.394180	0.297100	0.588500
O441	O44	0.086390	0.294610	0.417850
N111	N11	0.242830	0.280560	0.499610
C711	C71	0.136500	0.269300	0.445100
C721	C72	0.348500	0.271600	0.554200
C731	C73	0.293300	0.315900	0.526800
C741	C74	0.190300	0.314200	0.473800
C751	C75	0.293600	0.385100	0.529200
H311	H31	0.329300	0.408400	0.548700
C761	C76	0.187500	0.384000	0.473200
H321	H32	0.151200	0.406400	0.453800
C771	C77	0.239500	0.419000	0.501700
H331	H33	0.238400	0.465900	0.502700
Sm121	Sm12	0.752660	0.652760	0.006570
O451	O45	0.853030	0.706330	0.049100
O461	O46	0.656840	0.709400	0.958810
O471	O47	0.605820	0.797100	0.911500
O481	O48	0.913610	0.794610	0.082150
N121	N12	0.757170	0.780560	0.000390
C781	C78	0.863500	0.769300	0.054900
C791	C79	0.651500	0.771600	0.945800
C801	C80	0.706700	0.815900	0.973200
C811	C81	0.809700	0.814200	0.026200
C821	C82	0.706400	0.885100	0.970800
H341	H34	0.670700	0.908400	0.951300
C831	C83	0.812500	0.884000	0.026800
H351	H35	0.848800	0.906400	0.046200
C841	C84	0.760500	0.919000	0.998300
H361	H36	0.761600	0.965900	0.997300
Sm131	Sm13	0.493430	0.252660	0.652760
O491	O49	0.450900	0.353030	0.706330
O501	O50	0.541190	0.156840	0.709400
O511	O51	0.588500	0.105820	0.797100
O521	O52	0.417850	0.413610	0.794610
N131	N13	0.499610	0.257170	0.780560
C851	C85	0.445100	0.363500	0.769300
C861	C86	0.554200	0.151500	0.771600
C871	C87	0.526800	0.206700	0.815900
C881	C88	0.473800	0.309700	0.814200
C891	C89	0.529200	0.206400	0.885100
H371	H37	0.548700	0.170700	0.908400
C901	C90	0.473200	0.312500	0.884000
H381	H38	0.453800	0.348800	0.906400
C911	C91	0.501700	0.260500	0.919000
H391	H39	0.502700	0.261600	0.965900
Sm141	Sm14	0.006570	0.747340	0.152760
O531	O53	0.049100	0.646970	0.206330
O541	O54	0.958810	0.843160	0.209400
O551	O55	0.911500	0.894180	0.297100
O561	O56	0.082150	0.586390	0.294610
N141	N14	0.000390	0.742830	0.280560
C921	C92	0.054900	0.636500	0.269300
C931	C93	0.945800	0.848500	0.271600
C941	C94	0.973200	0.793300	0.315900
C951	C95	0.026200	0.690300	0.314200
C961	C96	0.970800	0.793600	0.385100
H401	H40	0.951300	0.829300	0.408400
C971	C97	0.026800	0.687500	0.384000
H411	H41	0.046200	0.651200	0.406400
C981	C98	0.998300	0.739500	0.419000
H421	H42	0.997300	0.738400	0.465900
Sm151	Sm15	0.506570	0.752660	0.847240
O571	O57	0.549100	0.853030	0.793670
O581	O58	0.458810	0.656840	0.790600
O591	O59	0.411500	0.605820	0.702900
O601	O60	0.582150	0.913610	0.705390
N151	N15	0.500390	0.757170	0.719440
C991	C99	0.554900	0.863500	0.730700
C1001	C100	0.445800	0.651500	0.728400
C1011	C101	0.473200	0.706700	0.684100
C1021	C102	0.526200	0.809700	0.685800
C1031	C103	0.470800	0.706400	0.614900
H431	H43	0.451300	0.670700	0.591600
C1041	C104	0.526800	0.812500	0.616000
H441	H44	0.546200	0.848800	0.593600
C1051	C105	0.498300	0.760500	0.581000
H451	H45	0.497300	0.761600	0.534100
Sm161	Sm16	0.993430	0.247340	0.347240
O611	O61	0.950900	0.146970	0.293670
O621	O62	0.041190	0.343160	0.290600
O631	O63	0.088500	0.394180	0.202900
O641	O64	0.917850	0.086390	0.205390
N161	N16	0.999610	0.242830	0.219440
C1061	C106	0.945100	0.136500	0.230700
C1071	C107	0.054200	0.348500	0.228400
C1081	C108	0.026800	0.293300	0.184100
C1091	C109	0.973800	0.190300	0.185800
C1101	C110	0.029200	0.293600	0.114900
H461	H46	0.048700	0.329300	0.091600
C1111	C111	0.973200	0.187500	0.116000
H471	H47	0.953800	0.151200	0.093600
C1121	C112	0.001700	0.239500	0.081000
H481	H48	0.002700	0.238400	0.034100
Sm171	Sm17	0.652760	0.493430	0.252660
O651	O65	0.706330	0.450900	0.353030
O661	O66	0.709400	0.541190	0.156840
O671	O67	0.797100	0.588500	0.105820
O681	O68	0.794610	0.417850	0.413610
N171	N17	0.780560	0.499610	0.257170
C1131	C113	0.769300	0.445100	0.363500
C1141	C114	0.771600	0.554200	0.151500
C1151	C115	0.815900	0.526800	0.206700
C1161	C116	0.814200	0.473800	0.309700
C1171	C117	0.885100	0.529200	0.206400
H491	H49	0.908400	0.548700	0.170700
C1181	C118	0.884000	0.473200	0.312500
H501	H50	0.906400	0.453800	0.348800
C1191	C119	0.919000	0.501700	0.260500
H511	H51	0.965900	0.502700	0.261600
Sm181	Sm18	0.152760	0.006570	0.747340
O691	O69	0.206330	0.049100	0.646970
O701	O70	0.209400	0.958810	0.843160
O711	O71	0.297100	0.911500	0.894180
O721	O72	0.294610	0.082150	0.586390
N181	N18	0.280560	0.000390	0.742830
C1201	C120	0.269300	0.054900	0.636500
C1211	C121	0.271600	0.945800	0.848500
C1221	C122	0.315900	0.973200	0.793300
C1231	C123	0.314200	0.026200	0.690300
C1241	C124	0.385100	0.970800	0.793600
H521	H52	0.408400	0.951300	0.829300
C1251	C125	0.384000	0.026800	0.687500
H531	H53	0.406400	0.046200	0.651200
C1261	C126	0.419000	0.998300	0.739500
H541	H54	0.465900	0.997300	0.738400
Sm191	Sm19	0.847240	0.506570	0.752660
O731	O73	0.793670	0.549100	0.853030
O741	O74	0.790600	0.458810	0.656840
O751	O75	0.702900	0.411500	0.605820
O761	O76	0.705390	0.582150	0.913610
N191	N19	0.719440	0.500390	0.757170
C1271	C127	0.730700	0.554900	0.863500
C1281	C128	0.728400	0.445800	0.651500
C1291	C129	0.684100	0.473200	0.706700
C1301	C130	0.685800	0.526200	0.809700
C1311	C131	0.614900	0.470800	0.706400
H551	H55	0.591600	0.451300	0.670700
C1321	C132	0.616000	0.526800	0.812500
H561	H56	0.593600	0.546200	0.848800
C1331	C133	0.581000	0.498300	0.760500
H571	H57	0.534100	0.497300	0.761600
Sm201	Sm20	0.347240	0.993430	0.247340
O771	O77	0.293670	0.950900	0.146970
O781	O78	0.290600	0.041190	0.343160
O791	O79	0.202900	0.088500	0.394180
O801	O80	0.205390	0.917850	0.086390
N201	N20	0.219440	0.999610	0.242830
C1341	C134	0.230700	0.945100	0.136500
C1351	C135	0.228400	0.054200	0.348500
C1361	C136	0.184100	0.026800	0.293300
C1371	C137	0.185800	0.973800	0.190300
C1381	C138	0.114900	0.029200	0.293600
H581	H58	0.091600	0.048700	0.329300
C1391	C139	0.116000	0.973200	0.187500
H591	H59	0.093600	0.953800	0.151200
C1401	C140	0.081000	0.001700	0.239500
H601	H60	0.034100	0.002700	0.238400
Sm211	Sm21	0.252660	0.652760	0.493430
O811	O81	0.353030	0.706330	0.450900
O821	O82	0.156840	0.709400	0.541190
O831	O83	0.105820	0.797100	0.588500
O841	O84	0.413610	0.794610	0.417850
N211	N21	0.257170	0.780560	0.499610
C1411	C141	0.363500	0.769300	0.445100
C1421	C142	0.151500	0.771600	0.554200
C1431	C143	0.206700	0.815900	0.526800
C1441	C144	0.309700	0.814200	0.473800
C1451	C145	0.206400	0.885100	0.529200
H611	H61	0.170700	0.908400	0.548700
C1461	C146	0.312500	0.884000	0.473200
H621	H62	0.348800	0.906400	0.453800
C1471	C147	0.260500	0.919000	0.501700
H631	H63	0.261600	0.965900	0.502700
Sm221	Sm22	0.747340	0.152760	0.006570
O851	O85	0.646970	0.206330	0.049100
O861	O86	0.843160	0.209400	0.958810
O871	O87	0.894180	0.297100	0.911500
O881	O88	0.586390	0.294610	0.082150
N221	N22	0.742830	0.280560	0.000390
C1481	C148	0.636500	0.269300	0.054900
C1491	C149	0.848500	0.271600	0.945800
C1501	C150	0.793300	0.315900	0.973200
C1511	C151	0.690300	0.314200	0.026200
C1521	C152	0.793600	0.385100	0.970800
H641	H64	0.829300	0.408400	0.951300
C1531	C153	0.687500	0.384000	0.026800
H651	H65	0.651200	0.406400	0.046200
C1541	C154	0.739500	0.419000	0.998300
H661	H66	0.738400	0.465900	0.997300
Sm231	Sm23	0.752660	0.847240	0.506570
O891	O89	0.853030	0.793670	0.549100
O901	O90	0.656840	0.790600	0.458810
O911	O91	0.605820	0.702900	0.411500
O921	O92	0.913610	0.705390	0.582150
N231	N23	0.757170	0.719440	0.500390
C1551	C155	0.863500	0.730700	0.554900
C1561	C156	0.651500	0.728400	0.445800
C1571	C157	0.706700	0.684100	0.473200
C1581	C158	0.809700	0.685800	0.526200
C1591	C159	0.706400	0.614900	0.470800
H671	H67	0.670700	0.591600	0.451300
C1601	C160	0.812500	0.616000	0.526800
H681	H68	0.848800	0.593600	0.546200
C1611	C161	0.760500	0.581000	0.498300
H691	H69	0.761600	0.534100	0.497300
Sm241	Sm24	0.247340	0.347240	0.993430
O931	O93	0.146970	0.293670	0.950900
O941	O94	0.343160	0.290600	0.041190
O951	O95	0.394180	0.202900	0.088500
O961	O96	0.086390	0.205390	0.917850
N241	N24	0.242830	0.219440	0.999610
C1621	C162	0.136500	0.230700	0.945100
C1631	C163	0.348500	0.228400	0.054200
C1641	C164	0.293300	0.184100	0.026800
C1651	C165	0.190300	0.185800	0.973800
C1661	C166	0.293600	0.114900	0.029200
H701	H70	0.329300	0.091600	0.048700
C1671	C167	0.187500	0.116000	0.973200
H711	H71	0.151200	0.093600	0.953800
C1681	C168	0.239500	0.081000	0.001700
H721	H72	0.238400	0.034100	0.002700
