data_SAJRUT_clean_PM
_symmetry_space_group_name_H-M	'P1'
_cell_length_a	18.698000
_cell_length_b	19.292000
_cell_length_c	19.383000
_cell_angle_alpha	90.000000
_cell_angle_beta	91.045000
_cell_angle_gamma	90.000000
_symmetry_Int_Tables_number 1

loop_
_symmetry_equiv_pos_as_xyz
'x,y,z'

loop_
_atom_site_label
_atom_site_type_symbol
_atom_site_fract_x
_atom_site_fract_y
_atom_site_fract_z
O11	O1	0.180700	0.038200	0.582000
O21	O2	0.276300	0.001900	0.642100
C11	C1	0.212400	0.016200	0.640800
C21	C2	0.167400	0.006000	0.702100
C31	C3	0.092800	0.004200	0.691700
H11	H1	0.072900	0.011500	0.648000
Fe11	Fe1	0.729480	0.985910	0.479070
Fe21	Fe2	0.229840	0.522760	0.516960
Fe31	Fe3	0.869620	0.866630	0.455680
Fe41	Fe4	0.367560	0.555820	0.637980
O31	O3	0.778600	0.972400	0.571400
O41	O4	0.731000	0.026900	0.819700
O51	O5	0.824300	0.023000	0.894000
O61	O6	0.320100	0.584600	0.538100
O71	O7	0.224400	0.642300	0.502100
O81	O8	0.770400	0.821000	0.479500
O91	O9	0.145200	0.991000	0.945400
O101	O10	0.718500	0.569900	0.460300
O111	O11	0.257800	0.903000	0.521300
O121	O12	0.677500	0.895400	0.479500
O131	O13	0.252200	0.977400	0.902800
O141	O14	0.617100	0.543200	0.403700
O151	O15	0.880700	0.914100	0.551700
O161	O16	0.360700	0.948400	0.490300
C41	C4	0.290600	0.640800	0.515500
C51	C5	0.452600	0.747500	0.479600
C61	C6	0.866900	0.970300	0.659400
C71	C7	0.967700	0.986700	0.737100
C81	C8	0.847600	0.005200	0.776600
C91	C9	0.630300	0.655700	0.450300
C101	C10	0.821200	0.988300	0.711000
H21	H2	0.772100	0.989200	0.702200
C111	C11	0.350700	0.825100	0.495600
C121	C12	0.654100	0.776300	0.471900
C131	C13	0.079500	0.988200	0.814300
H31	H3	0.050300	0.985100	0.852500
C141	C14	0.839600	0.951500	0.589100
C151	C15	0.706700	0.836700	0.477900
C161	C16	0.531900	0.735400	0.469400
C171	C17	0.406300	0.693800	0.493200
H41	H4	0.425100	0.649200	0.494600
C181	C18	0.336200	0.701200	0.504500
C191	C19	0.185700	0.984200	0.894200
C201	C20	0.580600	0.788300	0.477500
H51	H5	0.564400	0.832900	0.486800
C211	C21	0.941600	0.968300	0.674000
H61	H6	0.972800	0.954300	0.640000
C221	C22	0.154400	0.989900	0.824400
C231	C23	0.307800	0.768800	0.505000
H71	H7	0.259200	0.775200	0.511900
C241	C24	0.048400	0.991000	0.748700
C251	C25	0.796100	0.020200	0.834200
C261	C26	0.678900	0.710000	0.460500
H81	H8	0.727800	0.701400	0.459500
C271	C27	0.920900	0.004700	0.788300
H91	H9	0.938900	0.016800	0.831600
C281	C28	0.421800	0.814700	0.482200
H101	H10	0.450800	0.853100	0.474600
C291	C29	0.557000	0.668600	0.453500
H111	H11	0.524600	0.632900	0.445200
C301	C30	0.321700	0.896200	0.502100
C311	C31	0.659500	0.584000	0.437300
C321	C32	0.196600	0.997800	0.765500
H121	H12	0.246100	0.997300	0.770600
O171	O17	0.819300	0.538200	0.918000
O181	O18	0.723700	0.501900	0.857900
C331	C33	0.787600	0.516200	0.859200
C341	C34	0.832600	0.506000	0.797900
C351	C35	0.907200	0.504200	0.808300
H131	H13	0.927100	0.511500	0.852000
Fe51	Fe5	0.270520	0.485910	0.020930
Fe61	Fe6	0.770160	0.022760	0.983040
Fe71	Fe7	0.130380	0.366630	0.044320
Fe81	Fe8	0.632440	0.055820	0.862020
O191	O19	0.221400	0.472400	0.928600
O201	O20	0.269000	0.526900	0.680300
O211	O21	0.175700	0.523000	0.606000
O221	O22	0.679900	0.084600	0.961900
O231	O23	0.775600	0.142300	0.997900
O241	O24	0.229600	0.321000	0.020500
O251	O25	0.854800	0.491000	0.554600
O261	O26	0.281500	0.069900	0.039700
O271	O27	0.742200	0.403000	0.978700
O281	O28	0.322500	0.395400	0.020500
O291	O29	0.747800	0.477400	0.597200
O301	O30	0.382900	0.043200	0.096300
O311	O31	0.119300	0.414100	0.948300
O321	O32	0.639300	0.448400	0.009700
C361	C36	0.709400	0.140800	0.984500
C371	C37	0.547400	0.247500	0.020400
C381	C38	0.133100	0.470300	0.840600
C391	C39	0.032300	0.486700	0.762900
C401	C40	0.152400	0.505200	0.723400
C411	C41	0.369700	0.155700	0.049700
C421	C42	0.178800	0.488300	0.789000
H141	H14	0.227900	0.489200	0.797800
C431	C43	0.649300	0.325100	0.004400
C441	C44	0.345900	0.276300	0.028100
C451	C45	0.920500	0.488200	0.685700
H151	H15	0.949700	0.485100	0.647500
C461	C46	0.160400	0.451500	0.910900
C471	C47	0.293300	0.336700	0.022100
C481	C48	0.468100	0.235400	0.030600
C491	C49	0.593700	0.193800	0.006800
H161	H16	0.574900	0.149200	0.005400
C501	C50	0.663800	0.201200	0.995500
C511	C51	0.814300	0.484200	0.605800
C521	C52	0.419400	0.288300	0.022500
H171	H17	0.435600	0.332900	0.013200
C531	C53	0.058400	0.468300	0.826000
H181	H18	0.027200	0.454300	0.860000
C541	C54	0.845600	0.489900	0.675600
C551	C55	0.692200	0.268800	0.995000
H191	H19	0.740800	0.275200	0.988100
C561	C56	0.951600	0.491000	0.751300
C571	C57	0.203900	0.520200	0.665800
C581	C58	0.321100	0.210000	0.039500
H201	H20	0.272200	0.201400	0.040500
C591	C59	0.079100	0.504700	0.711700
H211	H21	0.061100	0.516800	0.668400
C601	C60	0.578200	0.314700	0.017800
H221	H22	0.549200	0.353100	0.025400
C611	C61	0.443000	0.168600	0.046500
H231	H23	0.475400	0.132900	0.054800
C621	C62	0.678300	0.396200	0.997900
C631	C63	0.340500	0.084000	0.062700
C641	C64	0.803400	0.497800	0.734500
H241	H24	0.753900	0.497300	0.729400
O331	O33	0.819300	0.961800	0.418000
O341	O34	0.723700	0.998100	0.357900
C651	C65	0.787600	0.983800	0.359200
C661	C66	0.832600	0.994000	0.297900
C671	C67	0.907200	0.995800	0.308300
H251	H25	0.927100	0.988500	0.352000
Fe91	Fe9	0.270520	0.014090	0.520930
Fe101	Fe10	0.770160	0.477240	0.483040
Fe111	Fe11	0.130380	0.133370	0.544320
Fe121	Fe12	0.632440	0.444180	0.362020
O351	O35	0.221400	0.027600	0.428600
O361	O36	0.269000	0.973100	0.180300
O371	O37	0.175700	0.977000	0.106000
O381	O38	0.679900	0.415400	0.461900
O391	O39	0.775600	0.357700	0.497900
O401	O40	0.229600	0.179000	0.520500
O411	O41	0.854800	0.009000	0.054600
O421	O42	0.281500	0.430100	0.539700
O431	O43	0.742200	0.097000	0.478700
O441	O44	0.322500	0.104600	0.520500
O451	O45	0.747800	0.022600	0.097200
O461	O46	0.382900	0.456800	0.596300
O471	O47	0.119300	0.085900	0.448300
O481	O48	0.639300	0.051600	0.509700
C681	C68	0.709400	0.359200	0.484500
C691	C69	0.547400	0.252500	0.520400
C701	C70	0.133100	0.029700	0.340600
C711	C71	0.032300	0.013300	0.262900
C721	C72	0.152400	0.994800	0.223400
C731	C73	0.369700	0.344300	0.549700
C741	C74	0.178800	0.011700	0.289000
H261	H26	0.227900	0.010800	0.297800
C751	C75	0.649300	0.174900	0.504400
C761	C76	0.345900	0.223700	0.528100
C771	C77	0.920500	0.011800	0.185700
H271	H27	0.949700	0.014900	0.147500
C781	C78	0.160400	0.048500	0.410900
C791	C79	0.293300	0.163300	0.522100
C801	C80	0.468100	0.264600	0.530600
C811	C81	0.593700	0.306200	0.506800
H281	H28	0.574900	0.350800	0.505400
C821	C82	0.663800	0.298800	0.495500
C831	C83	0.814300	0.015800	0.105800
C841	C84	0.419400	0.211700	0.522500
H291	H29	0.435600	0.167100	0.513200
C851	C85	0.058400	0.031700	0.326000
H301	H30	0.027200	0.045700	0.360000
C861	C86	0.845600	0.010100	0.175600
C871	C87	0.692200	0.231200	0.495000
H311	H31	0.740800	0.224800	0.488100
C881	C88	0.951600	0.009000	0.251300
C891	C89	0.203900	0.979800	0.165800
C901	C90	0.321100	0.290000	0.539500
H321	H32	0.272200	0.298600	0.540500
C911	C91	0.079100	0.995300	0.211700
H331	H33	0.061100	0.983200	0.168400
C921	C92	0.578200	0.185300	0.517800
H341	H34	0.549200	0.146900	0.525400
C931	C93	0.443000	0.331400	0.546500
H351	H35	0.475400	0.367100	0.554800
C941	C94	0.678300	0.103800	0.497900
C951	C95	0.340500	0.416000	0.562700
C961	C96	0.803400	0.002200	0.234500
H361	H36	0.753900	0.002700	0.229400
O491	O49	0.180700	0.461800	0.082000
O501	O50	0.276300	0.498100	0.142100
C971	C97	0.212400	0.483800	0.140800
C981	C98	0.167400	0.494000	0.202100
C991	C99	0.092800	0.495800	0.191700
H371	H37	0.072900	0.488500	0.148000
Fe131	Fe13	0.729480	0.514090	0.979070
Fe141	Fe14	0.229840	0.977240	0.016960
Fe151	Fe15	0.869620	0.633370	0.955680
Fe161	Fe16	0.367560	0.944180	0.137980
O511	O51	0.778600	0.527600	0.071400
O521	O52	0.731000	0.473100	0.319700
O531	O53	0.824300	0.477000	0.394000
O541	O54	0.320100	0.915400	0.038100
O551	O55	0.224400	0.857700	0.002100
O561	O56	0.770400	0.679000	0.979500
O571	O57	0.145200	0.509000	0.445400
O581	O58	0.718500	0.930100	0.960300
O591	O59	0.257800	0.597000	0.021300
O601	O60	0.677500	0.604600	0.979500
O611	O61	0.252200	0.522600	0.402800
O621	O62	0.617100	0.956800	0.903700
O631	O63	0.880700	0.585900	0.051700
O641	O64	0.360700	0.551600	0.990300
C1001	C100	0.290600	0.859200	0.015500
C1011	C101	0.452600	0.752500	0.979600
C1021	C102	0.866900	0.529700	0.159400
C1031	C103	0.967700	0.513300	0.237100
C1041	C104	0.847600	0.494800	0.276600
C1051	C105	0.630300	0.844300	0.950300
C1061	C106	0.821200	0.511700	0.211000
H381	H38	0.772100	0.510800	0.202200
C1071	C107	0.350700	0.674900	0.995600
C1081	C108	0.654100	0.723700	0.971900
C1091	C109	0.079500	0.511800	0.314300
H391	H39	0.050300	0.514900	0.352500
C1101	C110	0.839600	0.548500	0.089100
C1111	C111	0.706700	0.663300	0.977900
C1121	C112	0.531900	0.764600	0.969400
C1131	C113	0.406300	0.806200	0.993200
H401	H40	0.425100	0.850800	0.994600
C1141	C114	0.336200	0.798800	0.004500
C1151	C115	0.185700	0.515800	0.394200
C1161	C116	0.580600	0.711700	0.977500
H411	H41	0.564400	0.667100	0.986800
C1171	C117	0.941600	0.531700	0.174000
H421	H42	0.972800	0.545700	0.140000
C1181	C118	0.154400	0.510100	0.324400
C1191	C119	0.307800	0.731200	0.005000
H431	H43	0.259200	0.724800	0.011900
C1201	C120	0.048400	0.509000	0.248700
C1211	C121	0.796100	0.479800	0.334200
C1221	C122	0.678900	0.790000	0.960500
H441	H44	0.727800	0.798600	0.959500
C1231	C123	0.920900	0.495300	0.288300
H451	H45	0.938900	0.483200	0.331600
C1241	C124	0.421800	0.685300	0.982200
H461	H46	0.450800	0.646900	0.974600
C1251	C125	0.557000	0.831400	0.953500
H471	H47	0.524600	0.867100	0.945200
C1261	C126	0.321700	0.603800	0.002100
C1271	C127	0.659500	0.916000	0.937300
C1281	C128	0.196600	0.502200	0.265500
H481	H48	0.246100	0.502700	0.270600
