data_SAJSAA_clean_PM
_symmetry_space_group_name_H-M	'P1'
_cell_length_a	13.543000
_cell_length_b	19.340100
_cell_length_c	23.223000
_cell_angle_alpha	90.000000
_cell_angle_beta	123.452000
_cell_angle_gamma	90.000000
_symmetry_Int_Tables_number 1

loop_
_symmetry_equiv_pos_as_xyz
'x,y,z'

loop_
_atom_site_label
_atom_site_type_symbol
_atom_site_fract_x
_atom_site_fract_y
_atom_site_fract_z
Fe11	Fe1	0.609840	0.230670	0.265420
O11	O1	0.932000	0.650900	0.192200
O21	O2	0.107600	0.606200	0.253600
C11	C1	0.002000	0.602000	0.227100
Fe21	Fe2	0.128970	0.237040	0.289480
C21	C2	0.095000	0.229500	0.148800
O31	O3	0.242500	0.251000	0.901500
O41	O4	0.491400	0.254900	0.153300
O51	O5	0.317800	0.266700	0.841800
O61	O6	0.975700	0.295100	0.266200
O71	O7	0.680300	0.250400	0.205100
O81	O8	0.115100	0.348400	0.267700
O91	O9	0.519000	0.671900	0.227000
C31	C3	0.871900	0.263300	0.963400
C41	C4	0.880600	0.242000	0.080200
H11	H1	0.884100	0.233400	0.120700
C51	C5	0.559500	0.430400	0.267700
C61	C6	0.004700	0.475400	0.243300
H21	H2	0.073100	0.473100	0.243100
O101	O10	0.573900	0.313700	0.298100
C71	C7	0.768800	0.265300	0.962100
H31	H3	0.696800	0.273800	0.920900
C81	C8	0.980800	0.241200	0.082900
O111	O11	0.963000	0.275100	0.902500
O121	O12	0.417000	0.621700	0.260100
O131	O13	0.773700	0.284500	0.844900
C91	C9	0.580500	0.256000	0.151600
C101	C10	0.331600	0.257800	0.898000
C111	C11	0.804200	0.482500	0.245700
C121	C12	0.860900	0.420900	0.252800
H41	H4	0.830300	0.380500	0.258800
C131	C13	0.958600	0.416500	0.251400
C141	C14	0.952200	0.537500	0.235600
C151	C15	0.701000	0.486600	0.251300
C161	C16	0.978500	0.251400	0.023900
H51	H5	0.048000	0.250200	0.024800
C171	C17	0.462000	0.258200	0.024500
H61	H6	0.394500	0.257300	0.025800
C181	C18	0.569500	0.259700	0.084300
C191	C19	0.645700	0.547500	0.245300
H71	H7	0.673500	0.587700	0.236900
C201	C20	0.450000	0.257800	0.962200
C211	C21	0.656400	0.428600	0.262000
H81	H8	0.692000	0.386200	0.265700
O141	O14	0.187800	0.243500	0.153200
C221	C22	0.020300	0.351300	0.262200
C231	C23	0.851300	0.540200	0.236000
H91	H9	0.813900	0.582500	0.229400
C241	C24	0.492900	0.619200	0.246700
C251	C25	0.550900	0.551700	0.251200
O151	O15	0.092700	0.206800	0.198300
C261	C26	0.668400	0.259400	0.081800
H101	H10	0.742400	0.260700	0.123100
C271	C27	0.506600	0.493200	0.262400
H111	H11	0.442000	0.495800	0.266300
O161	O16	0.412800	0.368200	0.268700
C281	C28	0.509900	0.365600	0.278200
C291	C29	0.772500	0.254700	0.021500
C301	C30	0.869700	0.274400	0.899800
C311	C31	0.662900	0.257300	0.021800
C321	C32	0.550100	0.256100	0.960800
H121	H12	0.542700	0.253900	0.918600
Na11	Na1	0.871900	0.213810	0.281980
Na21	Na2	0.353500	0.256000	0.260140
Na31	Na3	0.848700	0.659990	0.057220
Fe31	Fe3	0.390160	0.730670	0.234580
O171	O17	0.068000	0.150900	0.307800
O181	O18	0.892400	0.106200	0.246400
C331	C33	0.998000	0.102000	0.272900
Fe41	Fe4	0.871030	0.737040	0.210520
C341	C34	0.905000	0.729500	0.351200
O191	O19	0.757500	0.751000	0.598500
O201	O20	0.508600	0.754900	0.346700
O211	O21	0.682200	0.766700	0.658200
O221	O22	0.024300	0.795100	0.233800
O231	O23	0.319700	0.750400	0.294900
O241	O24	0.884900	0.848400	0.232300
O251	O25	0.481000	0.171900	0.273000
C351	C35	0.128100	0.763300	0.536600
C361	C36	0.119400	0.742000	0.419800
H131	H13	0.115900	0.733400	0.379300
C371	C37	0.440500	0.930400	0.232300
C381	C38	0.995300	0.975400	0.256700
H141	H14	0.926900	0.973100	0.256900
O261	O26	0.426100	0.813700	0.201900
C391	C39	0.231200	0.765300	0.537900
H151	H15	0.303200	0.773800	0.579100
C401	C40	0.019200	0.741200	0.417100
O271	O27	0.037000	0.775100	0.597500
O281	O28	0.583000	0.121700	0.239900
O291	O29	0.226300	0.784500	0.655100
C411	C41	0.419500	0.756000	0.348400
C421	C42	0.668400	0.757800	0.602000
C431	C43	0.195800	0.982500	0.254300
C441	C44	0.139100	0.920900	0.247200
H161	H16	0.169700	0.880500	0.241200
C451	C45	0.041400	0.916500	0.248600
C461	C46	0.047800	0.037500	0.264400
C471	C47	0.299000	0.986600	0.248700
C481	C48	0.021500	0.751400	0.476100
H171	H17	0.952000	0.750200	0.475200
C491	C49	0.538000	0.758200	0.475500
H181	H18	0.605500	0.757300	0.474200
C501	C50	0.430500	0.759700	0.415700
C511	C51	0.354300	0.047500	0.254700
H191	H19	0.326500	0.087700	0.263100
C521	C52	0.550000	0.757800	0.537800
C531	C53	0.343600	0.928600	0.238000
H201	H20	0.308000	0.886200	0.234300
O301	O30	0.812200	0.743500	0.346800
C541	C54	0.979700	0.851300	0.237800
C551	C55	0.148700	0.040200	0.264000
H211	H21	0.186100	0.082500	0.270600
C561	C56	0.507100	0.119200	0.253300
C571	C57	0.449100	0.051700	0.248800
O311	O31	0.907300	0.706800	0.301700
C581	C58	0.331600	0.759400	0.418200
H221	H22	0.257600	0.760700	0.376900
C591	C59	0.493400	0.993200	0.237600
H231	H23	0.558000	0.995800	0.233700
O321	O32	0.587200	0.868200	0.231300
C601	C60	0.490100	0.865600	0.221800
C611	C61	0.227500	0.754700	0.478500
C621	C62	0.130300	0.774400	0.600200
C631	C63	0.337100	0.757300	0.478200
C641	C64	0.449900	0.756100	0.539200
H241	H24	0.457300	0.753900	0.581400
Na41	Na4	0.128100	0.713810	0.218020
Na51	Na5	0.646500	0.756000	0.239860
Na61	Na6	0.151300	0.159990	0.442780
Fe51	Fe5	0.390160	0.769330	0.734580
O331	O33	0.068000	0.349100	0.807800
O341	O34	0.892400	0.393800	0.746400
C651	C65	0.998000	0.398000	0.772900
Fe61	Fe6	0.871030	0.762960	0.710520
C661	C66	0.905000	0.770500	0.851200
O351	O35	0.757500	0.749000	0.098500
O361	O36	0.508600	0.745100	0.846700
O371	O37	0.682200	0.733300	0.158200
O381	O38	0.024300	0.704900	0.733800
O391	O39	0.319700	0.749600	0.794900
O401	O40	0.884900	0.651600	0.732300
O411	O41	0.481000	0.328100	0.773000
C671	C67	0.128100	0.736700	0.036600
C681	C68	0.119400	0.758000	0.919800
H251	H25	0.115900	0.766600	0.879300
C691	C69	0.440500	0.569600	0.732300
C701	C70	0.995300	0.524600	0.756700
H261	H26	0.926900	0.526900	0.756900
O421	O42	0.426100	0.686300	0.701900
C711	C71	0.231200	0.734700	0.037900
H271	H27	0.303200	0.726200	0.079100
C721	C72	0.019200	0.758800	0.917100
O431	O43	0.037000	0.724900	0.097500
O441	O44	0.583000	0.378300	0.739900
O451	O45	0.226300	0.715500	0.155100
C731	C73	0.419500	0.744000	0.848400
C741	C74	0.668400	0.742200	0.102000
C751	C75	0.195800	0.517500	0.754300
C761	C76	0.139100	0.579100	0.747200
H281	H28	0.169700	0.619500	0.741200
C771	C77	0.041400	0.583500	0.748600
C781	C78	0.047800	0.462500	0.764400
C791	C79	0.299000	0.513400	0.748700
C801	C80	0.021500	0.748600	0.976100
H291	H29	0.952000	0.749800	0.975200
C811	C81	0.538000	0.741800	0.975500
H301	H30	0.605500	0.742700	0.974200
C821	C82	0.430500	0.740300	0.915700
C831	C83	0.354300	0.452500	0.754700
H311	H31	0.326500	0.412300	0.763100
C841	C84	0.550000	0.742200	0.037800
C851	C85	0.343600	0.571400	0.738000
H321	H32	0.308000	0.613800	0.734300
O461	O46	0.812200	0.756500	0.846800
C861	C86	0.979700	0.648700	0.737800
C871	C87	0.148700	0.459800	0.764000
H331	H33	0.186100	0.417500	0.770600
C881	C88	0.507100	0.380800	0.753300
C891	C89	0.449100	0.448300	0.748800
O471	O47	0.907300	0.793200	0.801700
C901	C90	0.331600	0.740600	0.918200
H341	H34	0.257600	0.739300	0.876900
C911	C91	0.493400	0.506800	0.737600
H351	H35	0.558000	0.504200	0.733700
O481	O48	0.587200	0.631800	0.731300
C921	C92	0.490100	0.634400	0.721800
C931	C93	0.227500	0.745300	0.978500
C941	C94	0.130300	0.725600	0.100200
C951	C95	0.337100	0.742700	0.978200
C961	C96	0.449900	0.743900	0.039200
H361	H36	0.457300	0.746100	0.081400
Na71	Na7	0.128100	0.786190	0.718020
Na81	Na8	0.646500	0.744000	0.739860
Na91	Na9	0.151300	0.340010	0.942780
Fe71	Fe7	0.609840	0.269330	0.765420
O491	O49	0.932000	0.849100	0.692200
O501	O50	0.107600	0.893800	0.753600
C971	C97	0.002000	0.898000	0.727100
Fe81	Fe8	0.128970	0.262960	0.789480
C981	C98	0.095000	0.270500	0.648800
O511	O51	0.242500	0.249000	0.401500
O521	O52	0.491400	0.245100	0.653300
O531	O53	0.317800	0.233300	0.341800
O541	O54	0.975700	0.204900	0.766200
O551	O55	0.680300	0.249600	0.705100
O561	O56	0.115100	0.151600	0.767700
O571	O57	0.519000	0.828100	0.727000
C991	C99	0.871900	0.236700	0.463400
C1001	C100	0.880600	0.258000	0.580200
H371	H37	0.884100	0.266600	0.620700
C1011	C101	0.559500	0.069600	0.767700
C1021	C102	0.004700	0.024600	0.743300
H381	H38	0.073100	0.026900	0.743100
O581	O58	0.573900	0.186300	0.798100
C1031	C103	0.768800	0.234700	0.462100
H391	H39	0.696800	0.226200	0.420900
C1041	C104	0.980800	0.258800	0.582900
O591	O59	0.963000	0.224900	0.402500
O601	O60	0.417000	0.878300	0.760100
O611	O61	0.773700	0.215500	0.344900
C1051	C105	0.580500	0.244000	0.651600
C1061	C106	0.331600	0.242200	0.398000
C1071	C107	0.804200	0.017500	0.745700
C1081	C108	0.860900	0.079100	0.752800
H401	H40	0.830300	0.119500	0.758800
C1091	C109	0.958600	0.083500	0.751400
C1101	C110	0.952200	0.962500	0.735600
C1111	C111	0.701000	0.013400	0.751300
C1121	C112	0.978500	0.248600	0.523900
H411	H41	0.048000	0.249800	0.524800
C1131	C113	0.462000	0.241800	0.524500
H421	H42	0.394500	0.242700	0.525800
C1141	C114	0.569500	0.240300	0.584300
C1151	C115	0.645700	0.952500	0.745300
H431	H43	0.673500	0.912300	0.736900
C1161	C116	0.450000	0.242200	0.462200
C1171	C117	0.656400	0.071400	0.762000
H441	H44	0.692000	0.113800	0.765700
O621	O62	0.187800	0.256500	0.653200
C1181	C118	0.020300	0.148700	0.762200
C1191	C119	0.851300	0.959800	0.736000
H451	H45	0.813900	0.917500	0.729400
C1201	C120	0.492900	0.880800	0.746700
C1211	C121	0.550900	0.948300	0.751200
O631	O63	0.092700	0.293200	0.698300
C1221	C122	0.668400	0.240600	0.581800
H461	H46	0.742400	0.239300	0.623100
C1231	C123	0.506600	0.006800	0.762400
H471	H47	0.442000	0.004200	0.766300
O641	O64	0.412800	0.131800	0.768700
C1241	C124	0.509900	0.134400	0.778200
C1251	C125	0.772500	0.245300	0.521500
C1261	C126	0.869700	0.225600	0.399800
C1271	C127	0.662900	0.242700	0.521800
C1281	C128	0.550100	0.243900	0.460800
H481	H48	0.542700	0.246100	0.418600
Na101	Na10	0.871900	0.286190	0.781980
Na111	Na11	0.353500	0.244000	0.760140
Na121	Na12	0.848700	0.840010	0.557220
