data_SAKDEP_clean_PM
_symmetry_space_group_name_H-M	'P1'
_cell_length_a	19.330700
_cell_length_b	19.330700
_cell_length_c	19.481000
_cell_angle_alpha	119.745000
_cell_angle_beta	119.745000
_cell_angle_gamma	90.000100
_symmetry_Int_Tables_number 1

loop_
_symmetry_equiv_pos_as_xyz
'x,y,z'

loop_
_atom_site_label
_atom_site_type_symbol
_atom_site_fract_x
_atom_site_fract_y
_atom_site_fract_z
Fe11	Fe1	0.720450	0.720450	0.440900
Fe21	Fe2	0.279550	0.279550	0.559100
Fe31	Fe3	0.529550	0.029550	0.059100
Fe41	Fe4	0.970450	0.470450	0.940900
Fe51	Fe5	0.920240	0.875000	0.250000
Fe61	Fe6	0.329760	0.375000	0.250000
Fe71	Fe7	0.125000	0.670240	0.750000
Fe81	Fe8	0.625000	0.079760	0.750000
H11	H1	0.839000	0.882700	0.995000
H21	H2	0.725000	0.776600	0.841600
H31	H3	0.629500	0.679600	0.818400
H41	H4	0.653600	0.686400	0.950200
H51	H5	0.659600	0.759400	0.082800
H61	H6	0.594800	0.740100	0.153200
H71	H7	0.602400	0.718000	0.263200
H81	H8	0.840300	0.736400	0.377000
H91	H9	0.842300	0.758500	0.272600
H101	H10	0.839500	0.515000	0.429600
H111	H11	0.831700	0.445600	0.494800
H121	H12	0.785700	0.498600	0.599000
H131	H13	0.730700	0.607500	0.614400
H141	H14	0.654400	0.680900	0.584800
H151	H15	0.542700	0.759000	0.569200
H161	H16	0.523800	0.889200	0.621000
H171	H17	0.747100	0.994700	0.703200
H181	H18	0.774100	0.868800	0.654600
H191	H19	0.156000	0.112300	0.995000
H201	H20	0.116600	0.065000	0.841600
H211	H21	0.188900	0.138800	0.818400
H221	H22	0.296600	0.263800	0.950200
H231	H23	0.423200	0.323400	0.082800
H241	H24	0.558400	0.413100	0.153200
H251	H25	0.660800	0.545200	0.263200
H261	H26	0.536700	0.640600	0.377000
H271	H27	0.430300	0.514100	0.272600
H281	H28	0.590100	0.914600	0.429600
H291	H29	0.663100	0.049200	0.494800
H301	H30	0.813300	0.100400	0.599000
H311	H31	0.883700	0.006900	0.614400
H321	H32	0.930400	0.903900	0.584800
H331	H33	0.026500	0.810200	0.569200
H341	H34	0.097200	0.731800	0.621000
H351	H35	0.956100	0.708500	0.703200
H361	H36	0.880500	0.785800	0.654600
H371	H37	0.117300	0.844000	0.005000
H381	H38	0.223400	0.883400	0.158400
H391	H39	0.320400	0.811100	0.181600
H401	H40	0.313600	0.703400	0.049800
H411	H41	0.240600	0.576800	0.917200
H421	H42	0.259900	0.441600	0.846800
H431	H43	0.282000	0.339200	0.736800
H441	H44	0.263600	0.463300	0.623000
H451	H45	0.241500	0.569700	0.727400
H461	H46	0.485000	0.409900	0.570400
H471	H47	0.554400	0.336900	0.505200
H481	H48	0.501400	0.186700	0.401000
H491	H49	0.392500	0.116300	0.385600
H501	H50	0.319100	0.069600	0.415200
H511	H51	0.241000	0.973500	0.430800
H521	H52	0.110800	0.902800	0.379000
H531	H53	0.005300	0.043900	0.296800
H541	H54	0.131200	0.119500	0.345400
H551	H55	0.887700	0.161000	0.005000
H561	H56	0.935000	0.275000	0.158400
H571	H57	0.861200	0.370500	0.181600
H581	H58	0.736200	0.346400	0.049800
H591	H59	0.676600	0.340400	0.917200
H601	H60	0.586900	0.405200	0.846800
H611	H61	0.454800	0.397600	0.736800
H621	H62	0.359400	0.159700	0.623000
H631	H63	0.485900	0.157700	0.727400
H641	H64	0.085400	0.160500	0.570400
H651	H65	0.950800	0.168300	0.505200
H661	H66	0.899600	0.214300	0.401000
H671	H67	0.993100	0.269300	0.385600
H681	H68	0.096100	0.345600	0.415200
H691	H69	0.189800	0.457300	0.430800
H701	H70	0.268200	0.476200	0.379000
H711	H71	0.291500	0.252900	0.296800
H721	H72	0.214200	0.225900	0.345400
H731	H73	0.094000	0.867300	0.505000
H741	H74	0.133400	0.973400	0.658400
H751	H75	0.061100	0.070400	0.681600
H761	H76	0.953400	0.063600	0.549800
H771	H77	0.826800	0.990600	0.417200
H781	H78	0.691600	0.009900	0.346800
H791	H79	0.589200	0.032000	0.236800
H801	H80	0.713300	0.013600	0.123000
H811	H81	0.819700	0.991500	0.227400
H821	H82	0.659900	0.235000	0.070400
H831	H83	0.586900	0.304400	0.005200
H841	H84	0.436700	0.251400	0.901000
H851	H85	0.366300	0.142500	0.885600
H861	H86	0.319600	0.069100	0.915200
H871	H87	0.223500	0.991000	0.930800
H881	H88	0.152800	0.860800	0.879000
H891	H89	0.293900	0.755300	0.796800
H901	H90	0.369500	0.881200	0.845400
H911	H91	0.411000	0.637700	0.505000
H921	H92	0.525000	0.685000	0.658400
H931	H93	0.620500	0.611200	0.681600
H941	H94	0.596400	0.486200	0.549800
H951	H95	0.590400	0.426600	0.417200
H961	H96	0.655200	0.336900	0.346800
H971	H97	0.647600	0.204800	0.236800
H981	H98	0.409700	0.109400	0.123000
H991	H99	0.407700	0.235900	0.227400
H1001	H100	0.410500	0.835400	0.070400
H1011	H101	0.418300	0.700800	0.005200
H1021	H102	0.464300	0.649600	0.901000
H1031	H103	0.519300	0.743100	0.885600
H1041	H104	0.595600	0.846100	0.915200
H1051	H105	0.707300	0.939800	0.930800
H1061	H106	0.726200	0.018200	0.879000
H1071	H107	0.502900	0.041500	0.796800
H1081	H108	0.475900	0.964200	0.845400
H1091	H109	0.362300	0.906000	0.495000
H1101	H110	0.315000	0.866600	0.341600
H1111	H111	0.388800	0.938900	0.318400
H1121	H112	0.513800	0.046600	0.450200
H1131	H113	0.573400	0.173200	0.582800
H1141	H114	0.663100	0.308400	0.653200
H1151	H115	0.795200	0.410800	0.763200
H1161	H116	0.890600	0.286700	0.877000
H1171	H117	0.764100	0.180300	0.772600
H1181	H118	0.164600	0.340100	0.929600
H1191	H119	0.299200	0.413100	0.994800
H1201	H120	0.350400	0.563300	0.099000
H1211	H121	0.256900	0.633700	0.114400
H1221	H122	0.153900	0.680400	0.084800
H1231	H123	0.060200	0.776500	0.069200
H1241	H124	0.981800	0.847200	0.121000
H1251	H125	0.958500	0.706100	0.203200
H1261	H126	0.035800	0.630500	0.154600
H1271	H127	0.132700	0.589000	0.495000
H1281	H128	0.026600	0.475000	0.341600
H1291	H129	0.929600	0.379500	0.318400
H1301	H130	0.936400	0.403600	0.450200
H1311	H131	0.009400	0.409600	0.582800
H1321	H132	0.990100	0.344800	0.653200
H1331	H133	0.968000	0.352400	0.763200
H1341	H134	0.986400	0.590300	0.877000
H1351	H135	0.008500	0.592300	0.772600
H1361	H136	0.765000	0.589500	0.929600
H1371	H137	0.695600	0.581700	0.994800
H1381	H138	0.748600	0.535700	0.099000
H1391	H139	0.857500	0.480700	0.114400
H1401	H140	0.930900	0.404400	0.084800
H1411	H141	0.009000	0.292700	0.069200
H1421	H142	0.139200	0.273800	0.121000
H1431	H143	0.244700	0.497100	0.203200
H1441	H144	0.118800	0.524100	0.154600
C11	C1	0.815600	0.850100	0.068800
C21	C2	0.801400	0.843400	0.987200
C31	C3	0.733200	0.780100	0.895600
C41	C4	0.676900	0.722000	0.881400
C51	C5	0.690900	0.727200	0.959600
C61	C6	0.757200	0.789300	0.052000
C71	C7	0.714120	0.769120	0.133240
C81	C8	0.719900	0.755200	0.202800
C91	C9	0.646400	0.740200	0.199000
C101	C10	0.651400	0.725700	0.264000
C111	C11	0.789800	0.736400	0.330200
C121	C12	0.791900	0.751100	0.269400
C131	C13	0.784700	0.601300	0.476200
C141	C14	0.816000	0.533600	0.466000
C151	C15	0.813400	0.493500	0.506600
C161	C16	0.783600	0.523200	0.566400
C171	C17	0.751900	0.588000	0.575800
C181	C18	0.749800	0.626600	0.530800
C191	C19	0.677380	0.718580	0.577960
C201	C20	0.662170	0.799070	0.606940
C211	C21	0.586200	0.806700	0.597000
C221	C22	0.575700	0.885000	0.628400
C231	C23	0.705100	0.945900	0.675800
C241	C24	0.721800	0.871000	0.647000
C251	C25	0.253200	0.218700	0.068800
C261	C26	0.185800	0.143800	0.987200
C271	C27	0.162400	0.115500	0.895600
C281	C28	0.204500	0.159400	0.881400
C291	C29	0.268700	0.232400	0.959600
C301	C30	0.294800	0.262700	0.052000
C311	C31	0.419120	0.364120	0.133240
C321	C32	0.482900	0.447600	0.202800
C331	C33	0.552600	0.458800	0.199000
C341	C34	0.612600	0.538300	0.264000
C351	C35	0.540400	0.593800	0.330200
C361	C36	0.477500	0.518300	0.269400
C371	C37	0.691500	0.874900	0.476200
C381	C38	0.650000	0.932400	0.466000
C391	C39	0.693200	0.013100	0.506600
C401	C40	0.782800	0.043200	0.566400
C411	C41	0.823900	0.987800	0.575800
C421	C42	0.781000	0.904200	0.530800
C431	C43	0.900580	0.859380	0.577960
C441	C44	0.944770	0.807870	0.606940
C451	C45	0.010800	0.790300	0.597000
C461	C46	0.052700	0.743400	0.628400
C471	C47	0.970700	0.729900	0.675800
C481	C48	0.925200	0.776000	0.647000
C491	C49	0.149900	0.746800	0.931200
C501	C50	0.156600	0.814200	0.012800
C511	C51	0.219900	0.837600	0.104400
C521	C52	0.278000	0.795500	0.118600
C531	C53	0.272800	0.731300	0.040400
C541	C54	0.210700	0.705200	0.948000
C551	C55	0.230880	0.580880	0.866760
C561	C56	0.244800	0.517100	0.797200
C571	C57	0.259800	0.447400	0.801000
C581	C58	0.274300	0.387400	0.736000
C591	C59	0.263600	0.459600	0.669800
C601	C60	0.248900	0.522500	0.730600
C611	C61	0.398700	0.308500	0.523800
C621	C62	0.466400	0.350000	0.534000
C631	C63	0.506500	0.306800	0.493400
C641	C64	0.476800	0.217200	0.433600
C651	C65	0.412000	0.176100	0.424200
C661	C66	0.373400	0.219000	0.469200
C671	C67	0.281420	0.099420	0.422040
C681	C68	0.200930	0.055230	0.393060
C691	C69	0.193300	0.989200	0.403000
C701	C70	0.115000	0.947300	0.371600
C711	C71	0.054100	0.029300	0.324200
C721	C72	0.129000	0.074800	0.353000
C731	C73	0.781300	0.184400	0.931200
C741	C74	0.856200	0.198600	0.012800
C751	C75	0.884500	0.266800	0.104400
C761	C76	0.840600	0.323100	0.118600
C771	C77	0.767600	0.309100	0.040400
C781	C78	0.737300	0.242800	0.948000
C791	C79	0.635880	0.285880	0.866760
C801	C80	0.552400	0.280100	0.797200
C811	C81	0.541200	0.353600	0.801000
C821	C82	0.461700	0.348600	0.736000
C831	C83	0.406200	0.210200	0.669800
C841	C84	0.481700	0.208100	0.730600
C851	C85	0.125100	0.215300	0.523800
C861	C86	0.067600	0.184000	0.534000
C871	C87	0.986900	0.186600	0.493400
C881	C88	0.956800	0.216400	0.433600
C891	C89	0.012200	0.248100	0.424200
C901	C90	0.095800	0.250200	0.469200
C911	C91	0.140620	0.322620	0.422040
C921	C92	0.192130	0.337830	0.393060
C931	C93	0.209700	0.413800	0.403000
C941	C94	0.256600	0.424300	0.371600
C951	C95	0.270100	0.294900	0.324200
C961	C96	0.224000	0.278200	0.353000
C971	C97	0.996800	0.899900	0.431200
C981	C98	0.064200	0.906600	0.512800
C991	C99	0.087600	0.969900	0.604400
C1001	C100	0.045500	0.028000	0.618600
C1011	C101	0.981300	0.022800	0.540400
C1021	C102	0.955200	0.960700	0.448000
C1031	C103	0.830880	0.980880	0.366760
C1041	C104	0.767100	0.994800	0.297200
C1051	C105	0.697400	0.009800	0.301000
C1061	C106	0.637400	0.024300	0.236000
C1071	C107	0.709600	0.013600	0.169800
C1081	C108	0.772500	0.998900	0.230600
C1091	C109	0.558500	0.148700	0.023800
C1101	C110	0.600000	0.216400	0.034000
C1111	C111	0.556800	0.256500	0.993400
C1121	C112	0.467200	0.226800	0.933600
C1131	C113	0.426100	0.162000	0.924200
C1141	C114	0.469000	0.123400	0.969200
C1151	C115	0.349420	0.031420	0.922040
C1161	C116	0.305230	0.950930	0.893060
C1171	C117	0.239200	0.943300	0.903000
C1181	C118	0.197300	0.865000	0.871600
C1191	C119	0.279300	0.804100	0.824200
C1201	C120	0.324800	0.879000	0.853000
C1211	C121	0.434400	0.531300	0.431200
C1221	C122	0.448600	0.606200	0.512800
C1231	C123	0.516800	0.634500	0.604400
C1241	C124	0.573100	0.590600	0.618600
C1251	C125	0.559100	0.517600	0.540400
C1261	C126	0.492800	0.487300	0.448000
C1271	C127	0.535880	0.385880	0.366760
C1281	C128	0.530100	0.302400	0.297200
C1291	C129	0.603600	0.291200	0.301000
C1301	C130	0.598600	0.211700	0.236000
C1311	C131	0.460200	0.156200	0.169800
C1321	C132	0.458100	0.231700	0.230600
C1331	C133	0.465300	0.875100	0.023800
C1341	C134	0.434000	0.817600	0.034000
C1351	C135	0.436600	0.736900	0.993400
C1361	C136	0.466400	0.706800	0.933600
C1371	C137	0.498100	0.762200	0.924200
C1381	C138	0.500200	0.845800	0.969200
C1391	C139	0.572620	0.890620	0.922040
C1401	C140	0.587830	0.942130	0.893060
C1411	C141	0.663800	0.959700	0.903000
C1421	C142	0.674300	0.006600	0.871600
C1431	C143	0.544900	0.020100	0.824200
C1441	C144	0.528200	0.974000	0.853000
C1451	C145	0.468700	0.003200	0.568800
C1461	C146	0.393800	0.935800	0.487200
C1471	C147	0.365500	0.912400	0.395600
C1481	C148	0.409400	0.954500	0.381400
C1491	C149	0.482400	0.018700	0.459600
C1501	C150	0.512700	0.044800	0.552000
C1511	C151	0.614120	0.169120	0.633240
C1521	C152	0.697600	0.232900	0.702800
C1531	C153	0.708800	0.302600	0.699000
C1541	C154	0.788300	0.362600	0.764000
C1551	C155	0.843800	0.290400	0.830200
C1561	C156	0.768300	0.227500	0.769400
C1571	C157	0.124900	0.441500	0.976200
C1581	C158	0.182400	0.400000	0.966000
C1591	C159	0.263100	0.443200	0.006600
C1601	C160	0.293200	0.532800	0.066400
C1611	C161	0.237800	0.573900	0.075800
C1621	C162	0.154200	0.531000	0.030800
C1631	C163	0.109380	0.650580	0.077960
C1641	C164	0.057870	0.694770	0.106940
C1651	C165	0.040300	0.760800	0.097000
C1661	C166	0.993400	0.802700	0.128400
C1671	C167	0.979900	0.720700	0.175800
C1681	C168	0.026000	0.675200	0.147000
C1691	C169	0.100100	0.565600	0.568800
C1701	C170	0.093400	0.551400	0.487200
C1711	C171	0.030100	0.483200	0.395600
C1721	C172	0.972000	0.426900	0.381400
C1731	C173	0.977200	0.440900	0.459600
C1741	C174	0.039300	0.507200	0.552000
C1751	C175	0.019120	0.464120	0.633240
C1761	C176	0.005200	0.469900	0.702800
C1771	C177	0.990200	0.396400	0.699000
C1781	C178	0.975700	0.401400	0.764000
C1791	C179	0.986400	0.539800	0.830200
C1801	C180	0.001100	0.541900	0.769400
C1811	C181	0.851300	0.534700	0.976200
C1821	C182	0.783600	0.566000	0.966000
C1831	C183	0.743500	0.563400	0.006600
C1841	C184	0.773200	0.533600	0.066400
C1851	C185	0.838000	0.501900	0.075800
C1861	C186	0.876600	0.499800	0.030800
C1871	C187	0.968580	0.427380	0.077960
C1881	C188	0.049070	0.412170	0.106940
C1891	C189	0.056700	0.336200	0.097000
C1901	C190	0.135000	0.325700	0.128400
C1911	C191	0.195900	0.455100	0.175800
C1921	C192	0.121000	0.471800	0.147000
N11	N1	0.777390	0.793590	0.134980
N21	N2	0.720160	0.721860	0.327320
N31	N3	0.721980	0.697480	0.542760
N41	N4	0.632840	0.954140	0.667680
N51	N5	0.357590	0.341390	0.134980
N61	N6	0.607160	0.605460	0.327320
N71	N7	0.820780	0.845280	0.542760
N81	N8	0.034840	0.713540	0.667680
N91	N9	0.206410	0.642410	0.865020
N101	N10	0.278140	0.392840	0.672680
N111	N11	0.302520	0.179220	0.457240
N121	N12	0.045860	0.965160	0.332320
N131	N13	0.658610	0.222610	0.865020
N141	N14	0.394540	0.279840	0.672680
N151	N15	0.154720	0.278020	0.457240
N161	N16	0.286460	0.367160	0.332320
N171	N17	0.892410	0.956410	0.365020
N181	N18	0.642840	0.028140	0.172680
N191	N19	0.429220	0.052520	0.957240
N201	N20	0.215160	0.795860	0.832320
N211	N21	0.472610	0.408610	0.365020
N221	N22	0.529840	0.144540	0.172680
N231	N23	0.528020	0.904720	0.957240
N241	N24	0.617160	0.036460	0.832320
N251	N25	0.591390	0.107590	0.634980
N261	N26	0.855460	0.357160	0.827320
N271	N27	0.095280	0.570780	0.042760
N281	N28	0.963540	0.784840	0.167680
N291	N29	0.043590	0.527390	0.634980
N301	N30	0.971860	0.470160	0.827320
N311	N31	0.947480	0.471980	0.042760
N321	N32	0.204140	0.382840	0.167680
O11	O1	0.879140	0.909840	0.157160
O21	O2	0.787770	0.640620	0.438640
O31	O3	0.278020	0.247320	0.157160
O41	O4	0.650870	0.798020	0.438640
O51	O5	0.090160	0.721980	0.842840
O61	O6	0.359380	0.349130	0.561360
O71	O7	0.752680	0.120860	0.842840
O81	O8	0.201980	0.212230	0.561360
O91	O9	0.971980	0.840160	0.342840
O101	O10	0.599130	0.109380	0.061360
O111	O11	0.370860	0.502680	0.342840
O121	O12	0.462230	0.951980	0.061360
O131	O13	0.497320	0.028020	0.657160
O141	O14	0.048020	0.400870	0.938640
O151	O15	0.159840	0.629140	0.657160
O161	O16	0.890620	0.537770	0.938640
