data_SAKDEQ_clean_PM
_symmetry_space_group_name_H-M	'P1'
_cell_length_a	19.782200
_cell_length_b	19.782200
_cell_length_c	19.782200
_cell_angle_alpha	90.000000
_cell_angle_beta	90.000000
_cell_angle_gamma	90.000000
_symmetry_Int_Tables_number 1

loop_
_symmetry_equiv_pos_as_xyz
'x,y,z'

loop_
_atom_site_label
_atom_site_type_symbol
_atom_site_fract_x
_atom_site_fract_y
_atom_site_fract_z
Gd11	Gd1	0.753690	0.846130	0.508830
O11	O1	0.854270	0.794310	0.550460
O21	O2	0.658850	0.790110	0.460020
O31	O3	0.916620	0.706010	0.582500
O41	O4	0.609160	0.703100	0.409270
N11	N1	0.759810	0.718940	0.500690
C11	C1	0.865800	0.731000	0.555500
C21	C2	0.654100	0.728000	0.445300
C31	C3	0.709200	0.683700	0.472600
C41	C4	0.812600	0.685600	0.526200
C51	C5	0.709300	0.614000	0.470000
H11	H1	0.673800	0.590400	0.450100
C61	C6	0.815800	0.615800	0.526400
H21	H2	0.852500	0.593500	0.545600
C71	C7	0.764000	0.580300	0.497900
H31	H3	0.765400	0.533300	0.497200
Gd21	Gd2	0.746310	0.153870	0.008830
O51	O5	0.645730	0.205690	0.050460
O61	O6	0.841150	0.209890	0.960020
O71	O7	0.583380	0.293990	0.082500
O81	O8	0.890840	0.296900	0.909270
N21	N2	0.740190	0.281060	0.000690
C81	C8	0.634200	0.269000	0.055500
C91	C9	0.845900	0.272000	0.945300
C101	C10	0.790800	0.316300	0.972600
C111	C11	0.687400	0.314400	0.026200
C121	C12	0.790700	0.386000	0.970000
H41	H4	0.826200	0.409600	0.950100
C131	C13	0.684200	0.384200	0.026400
H51	H5	0.647500	0.406500	0.045600
C141	C14	0.736000	0.419700	0.997900
H61	H6	0.734600	0.466700	0.997200
Gd31	Gd3	0.246310	0.346130	0.991170
O91	O9	0.145730	0.294310	0.949540
O101	O10	0.341150	0.290110	0.039980
O111	O11	0.083380	0.206010	0.917500
O121	O12	0.390840	0.203100	0.090730
N31	N3	0.240190	0.218940	0.999310
C151	C15	0.134200	0.231000	0.944500
C161	C16	0.345900	0.228000	0.054700
C171	C17	0.290800	0.183700	0.027400
C181	C18	0.187400	0.185600	0.973800
C191	C19	0.290700	0.114000	0.030000
H71	H7	0.326200	0.090400	0.049900
C201	C20	0.184200	0.115800	0.973600
H81	H8	0.147500	0.093500	0.954400
C211	C21	0.236000	0.080300	0.002100
H91	H9	0.234600	0.033300	0.002800
Gd41	Gd4	0.253690	0.653870	0.491170
O131	O13	0.354270	0.705690	0.449540
O141	O14	0.158850	0.709890	0.539980
O151	O15	0.416620	0.793990	0.417500
O161	O16	0.109160	0.796900	0.590730
N41	N4	0.259810	0.781060	0.499310
C221	C22	0.365800	0.769000	0.444500
C231	C23	0.154100	0.772000	0.554700
C241	C24	0.209200	0.816300	0.527400
C251	C25	0.312600	0.814400	0.473800
C261	C26	0.209300	0.886000	0.530000
H101	H10	0.173800	0.909600	0.549900
C271	C27	0.315800	0.884200	0.473600
H111	H11	0.352500	0.906500	0.454400
C281	C28	0.264000	0.919700	0.502100
H121	H12	0.265400	0.966700	0.502800
Gd51	Gd5	0.508830	0.753690	0.846130
O171	O17	0.550460	0.854270	0.794310
O181	O18	0.460020	0.658850	0.790110
O191	O19	0.582500	0.916620	0.706010
O201	O20	0.409270	0.609160	0.703100
N51	N5	0.500690	0.759810	0.718940
C291	C29	0.555500	0.865800	0.731000
C301	C30	0.445300	0.654100	0.728000
C311	C31	0.472600	0.709200	0.683700
C321	C32	0.526200	0.812600	0.685600
C331	C33	0.470000	0.709300	0.614000
H131	H13	0.450100	0.673800	0.590400
C341	C34	0.526400	0.815800	0.615800
H141	H14	0.545600	0.852500	0.593500
C351	C35	0.497900	0.764000	0.580300
H151	H15	0.497200	0.765400	0.533300
Gd61	Gd6	0.008830	0.746310	0.153870
O211	O21	0.050460	0.645730	0.205690
O221	O22	0.960020	0.841150	0.209890
O231	O23	0.082500	0.583380	0.293990
O241	O24	0.909270	0.890840	0.296900
N61	N6	0.000690	0.740190	0.281060
C361	C36	0.055500	0.634200	0.269000
C371	C37	0.945300	0.845900	0.272000
C381	C38	0.972600	0.790800	0.316300
C391	C39	0.026200	0.687400	0.314400
C401	C40	0.970000	0.790700	0.386000
H161	H16	0.950100	0.826200	0.409600
C411	C41	0.026400	0.684200	0.384200
H171	H17	0.045600	0.647500	0.406500
C421	C42	0.997900	0.736000	0.419700
H181	H18	0.997200	0.734600	0.466700
Gd71	Gd7	0.991170	0.246310	0.346130
O251	O25	0.949540	0.145730	0.294310
O261	O26	0.039980	0.341150	0.290110
O271	O27	0.917500	0.083380	0.206010
O281	O28	0.090730	0.390840	0.203100
N71	N7	0.999310	0.240190	0.218940
C431	C43	0.944500	0.134200	0.231000
C441	C44	0.054700	0.345900	0.228000
C451	C45	0.027400	0.290800	0.183700
C461	C46	0.973800	0.187400	0.185600
C471	C47	0.030000	0.290700	0.114000
H191	H19	0.049900	0.326200	0.090400
C481	C48	0.973600	0.184200	0.115800
H201	H20	0.954400	0.147500	0.093500
C491	C49	0.002100	0.236000	0.080300
H211	H21	0.002800	0.234600	0.033300
Gd81	Gd8	0.491170	0.253690	0.653870
O291	O29	0.449540	0.354270	0.705690
O301	O30	0.539980	0.158850	0.709890
O311	O31	0.417500	0.416620	0.793990
O321	O32	0.590730	0.109160	0.796900
N81	N8	0.499310	0.259810	0.781060
C501	C50	0.444500	0.365800	0.769000
C511	C51	0.554700	0.154100	0.772000
C521	C52	0.527400	0.209200	0.816300
C531	C53	0.473800	0.312600	0.814400
C541	C54	0.530000	0.209300	0.886000
H221	H22	0.549900	0.173800	0.909600
C551	C55	0.473600	0.315800	0.884200
H231	H23	0.454400	0.352500	0.906500
C561	C56	0.502100	0.264000	0.919700
H241	H24	0.502800	0.265400	0.966700
Gd91	Gd9	0.846130	0.508830	0.753690
O331	O33	0.794310	0.550460	0.854270
O341	O34	0.790110	0.460020	0.658850
O351	O35	0.706010	0.582500	0.916620
O361	O36	0.703100	0.409270	0.609160
N91	N9	0.718940	0.500690	0.759810
C571	C57	0.731000	0.555500	0.865800
C581	C58	0.728000	0.445300	0.654100
C591	C59	0.683700	0.472600	0.709200
C601	C60	0.685600	0.526200	0.812600
C611	C61	0.614000	0.470000	0.709300
H251	H25	0.590400	0.450100	0.673800
C621	C62	0.615800	0.526400	0.815800
H261	H26	0.593500	0.545600	0.852500
C631	C63	0.580300	0.497900	0.764000
H271	H27	0.533300	0.497200	0.765400
Gd101	Gd10	0.153870	0.008830	0.746310
O371	O37	0.205690	0.050460	0.645730
O381	O38	0.209890	0.960020	0.841150
O391	O39	0.293990	0.082500	0.583380
O401	O40	0.296900	0.909270	0.890840
N101	N10	0.281060	0.000690	0.740190
C641	C64	0.269000	0.055500	0.634200
C651	C65	0.272000	0.945300	0.845900
C661	C66	0.316300	0.972600	0.790800
C671	C67	0.314400	0.026200	0.687400
C681	C68	0.386000	0.970000	0.790700
H281	H28	0.409600	0.950100	0.826200
C691	C69	0.384200	0.026400	0.684200
H291	H29	0.406500	0.045600	0.647500
C701	C70	0.419700	0.997900	0.736000
H301	H30	0.466700	0.997200	0.734600
Gd111	Gd11	0.346130	0.991170	0.246310
O411	O41	0.294310	0.949540	0.145730
O421	O42	0.290110	0.039980	0.341150
O431	O43	0.206010	0.917500	0.083380
O441	O44	0.203100	0.090730	0.390840
N111	N11	0.218940	0.999310	0.240190
C711	C71	0.231000	0.944500	0.134200
C721	C72	0.228000	0.054700	0.345900
C731	C73	0.183700	0.027400	0.290800
C741	C74	0.185600	0.973800	0.187400
C751	C75	0.114000	0.030000	0.290700
H311	H31	0.090400	0.049900	0.326200
C761	C76	0.115800	0.973600	0.184200
H321	H32	0.093500	0.954400	0.147500
C771	C77	0.080300	0.002100	0.236000
H331	H33	0.033300	0.002800	0.234600
Gd121	Gd12	0.653870	0.491170	0.253690
O451	O45	0.705690	0.449540	0.354270
O461	O46	0.709890	0.539980	0.158850
O471	O47	0.793990	0.417500	0.416620
O481	O48	0.796900	0.590730	0.109160
N121	N12	0.781060	0.499310	0.259810
C781	C78	0.769000	0.444500	0.365800
C791	C79	0.772000	0.554700	0.154100
C801	C80	0.816300	0.527400	0.209200
C811	C81	0.814400	0.473800	0.312600
C821	C82	0.886000	0.530000	0.209300
H341	H34	0.909600	0.549900	0.173800
C831	C83	0.884200	0.473600	0.315800
H351	H35	0.906500	0.454400	0.352500
C841	C84	0.919700	0.502100	0.264000
H361	H36	0.966700	0.502800	0.265400
Gd131	Gd13	0.246310	0.153870	0.491170
O491	O49	0.145730	0.205690	0.449540
O501	O50	0.341150	0.209890	0.539980
O511	O51	0.083380	0.293990	0.417500
O521	O52	0.390840	0.296900	0.590730
N131	N13	0.240190	0.281060	0.499310
C851	C85	0.134200	0.269000	0.444500
C861	C86	0.345900	0.272000	0.554700
C871	C87	0.290800	0.316300	0.527400
C881	C88	0.187400	0.314400	0.473800
C891	C89	0.290700	0.386000	0.530000
H371	H37	0.326200	0.409600	0.549900
C901	C90	0.184200	0.384200	0.473600
H381	H38	0.147500	0.406500	0.454400
C911	C91	0.236000	0.419700	0.502100
H391	H39	0.234600	0.466700	0.502800
Gd141	Gd14	0.253690	0.846130	0.991170
O531	O53	0.354270	0.794310	0.949540
O541	O54	0.158850	0.790110	0.039980
O551	O55	0.416620	0.706010	0.917500
O561	O56	0.109160	0.703100	0.090730
N141	N14	0.259810	0.718940	0.999310
C921	C92	0.365800	0.731000	0.944500
C931	C93	0.154100	0.728000	0.054700
C941	C94	0.209200	0.683700	0.027400
C951	C95	0.312600	0.685600	0.973800
C961	C96	0.209300	0.614000	0.030000
H401	H40	0.173800	0.590400	0.049900
C971	C97	0.315800	0.615800	0.973600
H411	H41	0.352500	0.593500	0.954400
C981	C98	0.264000	0.580300	0.002100
H421	H42	0.265400	0.533300	0.002800
Gd151	Gd15	0.753690	0.653870	0.008830
O571	O57	0.854270	0.705690	0.050460
O581	O58	0.658850	0.709890	0.960020
O591	O59	0.916620	0.793990	0.082500
O601	O60	0.609160	0.796900	0.909270
N151	N15	0.759810	0.781060	0.000690
C991	C99	0.865800	0.769000	0.055500
C1001	C100	0.654100	0.772000	0.945300
C1011	C101	0.709200	0.816300	0.972600
C1021	C102	0.812600	0.814400	0.026200
C1031	C103	0.709300	0.886000	0.970000
H431	H43	0.673800	0.909600	0.950100
C1041	C104	0.815800	0.884200	0.026400
H441	H44	0.852500	0.906500	0.045600
C1051	C105	0.764000	0.919700	0.997900
H451	H45	0.765400	0.966700	0.997200
Gd161	Gd16	0.746310	0.346130	0.508830
O611	O61	0.645730	0.294310	0.550460
O621	O62	0.841150	0.290110	0.460020
O631	O63	0.583380	0.206010	0.582500
O641	O64	0.890840	0.203100	0.409270
N161	N16	0.740190	0.218940	0.500690
C1061	C106	0.634200	0.231000	0.555500
C1071	C107	0.845900	0.228000	0.445300
C1081	C108	0.790800	0.183700	0.472600
C1091	C109	0.687400	0.185600	0.526200
C1101	C110	0.790700	0.114000	0.470000
H461	H46	0.826200	0.090400	0.450100
C1111	C111	0.684200	0.115800	0.526400
H471	H47	0.647500	0.093500	0.545600
C1121	C112	0.736000	0.080300	0.497900
H481	H48	0.734600	0.033300	0.497200
Gd171	Gd17	0.491170	0.246310	0.153870
O651	O65	0.449540	0.145730	0.205690
O661	O66	0.539980	0.341150	0.209890
O671	O67	0.417500	0.083380	0.293990
O681	O68	0.590730	0.390840	0.296900
N171	N17	0.499310	0.240190	0.281060
C1131	C113	0.444500	0.134200	0.269000
C1141	C114	0.554700	0.345900	0.272000
C1151	C115	0.527400	0.290800	0.316300
C1161	C116	0.473800	0.187400	0.314400
C1171	C117	0.530000	0.290700	0.386000
H491	H49	0.549900	0.326200	0.409600
C1181	C118	0.473600	0.184200	0.384200
H501	H50	0.454400	0.147500	0.406500
C1191	C119	0.502100	0.236000	0.419700
H511	H51	0.502800	0.234600	0.466700
Gd181	Gd18	0.991170	0.253690	0.846130
O691	O69	0.949540	0.354270	0.794310
O701	O70	0.039980	0.158850	0.790110
O711	O71	0.917500	0.416620	0.706010
O721	O72	0.090730	0.109160	0.703100
N181	N18	0.999310	0.259810	0.718940
C1201	C120	0.944500	0.365800	0.731000
C1211	C121	0.054700	0.154100	0.728000
C1221	C122	0.027400	0.209200	0.683700
C1231	C123	0.973800	0.312600	0.685600
C1241	C124	0.030000	0.209300	0.614000
H521	H52	0.049900	0.173800	0.590400
C1251	C125	0.973600	0.315800	0.615800
H531	H53	0.954400	0.352500	0.593500
C1261	C126	0.002100	0.264000	0.580300
H541	H54	0.002800	0.265400	0.533300
Gd191	Gd19	0.008830	0.753690	0.653870
O731	O73	0.050460	0.854270	0.705690
O741	O74	0.960020	0.658850	0.709890
O751	O75	0.082500	0.916620	0.793990
O761	O76	0.909270	0.609160	0.796900
N191	N19	0.000690	0.759810	0.781060
C1271	C127	0.055500	0.865800	0.769000
C1281	C128	0.945300	0.654100	0.772000
C1291	C129	0.972600	0.709200	0.816300
C1301	C130	0.026200	0.812600	0.814400
C1311	C131	0.970000	0.709300	0.886000
H551	H55	0.950100	0.673800	0.909600
C1321	C132	0.026400	0.815800	0.884200
H561	H56	0.045600	0.852500	0.906500
C1331	C133	0.997900	0.764000	0.919700
H571	H57	0.997200	0.765400	0.966700
Gd201	Gd20	0.508830	0.746310	0.346130
O771	O77	0.550460	0.645730	0.294310
O781	O78	0.460020	0.841150	0.290110
O791	O79	0.582500	0.583380	0.206010
O801	O80	0.409270	0.890840	0.203100
N201	N20	0.500690	0.740190	0.218940
C1341	C134	0.555500	0.634200	0.231000
C1351	C135	0.445300	0.845900	0.228000
C1361	C136	0.472600	0.790800	0.183700
C1371	C137	0.526200	0.687400	0.185600
C1381	C138	0.470000	0.790700	0.114000
H581	H58	0.450100	0.826200	0.090400
C1391	C139	0.526400	0.684200	0.115800
H591	H59	0.545600	0.647500	0.093500
C1401	C140	0.497900	0.736000	0.080300
H601	H60	0.497200	0.734600	0.033300
Gd211	Gd21	0.153870	0.491170	0.246310
O811	O81	0.205690	0.449540	0.145730
O821	O82	0.209890	0.539980	0.341150
O831	O83	0.293990	0.417500	0.083380
O841	O84	0.296900	0.590730	0.390840
N211	N21	0.281060	0.499310	0.240190
C1411	C141	0.269000	0.444500	0.134200
C1421	C142	0.272000	0.554700	0.345900
C1431	C143	0.316300	0.527400	0.290800
C1441	C144	0.314400	0.473800	0.187400
C1451	C145	0.386000	0.530000	0.290700
H611	H61	0.409600	0.549900	0.326200
C1461	C146	0.384200	0.473600	0.184200
H621	H62	0.406500	0.454400	0.147500
C1471	C147	0.419700	0.502100	0.236000
H631	H63	0.466700	0.502800	0.234600
Gd221	Gd22	0.846130	0.991170	0.253690
O851	O85	0.794310	0.949540	0.354270
O861	O86	0.790110	0.039980	0.158850
O871	O87	0.706010	0.917500	0.416620
O881	O88	0.703100	0.090730	0.109160
N221	N22	0.718940	0.999310	0.259810
C1481	C148	0.731000	0.944500	0.365800
C1491	C149	0.728000	0.054700	0.154100
C1501	C150	0.683700	0.027400	0.209200
C1511	C151	0.685600	0.973800	0.312600
C1521	C152	0.614000	0.030000	0.209300
H641	H64	0.590400	0.049900	0.173800
C1531	C153	0.615800	0.973600	0.315800
H651	H65	0.593500	0.954400	0.352500
C1541	C154	0.580300	0.002100	0.264000
H661	H66	0.533300	0.002800	0.265400
Gd231	Gd23	0.653870	0.008830	0.753690
O891	O89	0.705690	0.050460	0.854270
O901	O90	0.709890	0.960020	0.658850
O911	O91	0.793990	0.082500	0.916620
O921	O92	0.796900	0.909270	0.609160
N231	N23	0.781060	0.000690	0.759810
C1551	C155	0.769000	0.055500	0.865800
C1561	C156	0.772000	0.945300	0.654100
C1571	C157	0.816300	0.972600	0.709200
C1581	C158	0.814400	0.026200	0.812600
C1591	C159	0.886000	0.970000	0.709300
H671	H67	0.909600	0.950100	0.673800
C1601	C160	0.884200	0.026400	0.815800
H681	H68	0.906500	0.045600	0.852500
C1611	C161	0.919700	0.997900	0.764000
H691	H69	0.966700	0.997200	0.765400
Gd241	Gd24	0.346130	0.508830	0.746310
O931	O93	0.294310	0.550460	0.645730
O941	O94	0.290110	0.460020	0.841150
O951	O95	0.206010	0.582500	0.583380
O961	O96	0.203100	0.409270	0.890840
N241	N24	0.218940	0.500690	0.740190
C1621	C162	0.231000	0.555500	0.634200
C1631	C163	0.228000	0.445300	0.845900
C1641	C164	0.183700	0.472600	0.790800
C1651	C165	0.185600	0.526200	0.687400
C1661	C166	0.114000	0.470000	0.790700
H701	H70	0.090400	0.450100	0.826200
C1671	C167	0.115800	0.526400	0.684200
H711	H71	0.093500	0.545600	0.647500
C1681	C168	0.080300	0.497900	0.736000
H721	H72	0.033300	0.497200	0.734600
