data_SAKFAO_clean_PM
_symmetry_space_group_name_H-M	'P1'
_cell_length_a	19.834600
_cell_length_b	19.834600
_cell_length_c	19.834600
_cell_angle_alpha	90.000000
_cell_angle_beta	90.000000
_cell_angle_gamma	90.000000
_symmetry_Int_Tables_number 1

loop_
_symmetry_equiv_pos_as_xyz
'x,y,z'

loop_
_atom_site_label
_atom_site_type_symbol
_atom_site_fract_x
_atom_site_fract_y
_atom_site_fract_z
O11	O1	0.454400	0.651800	0.793230
O21	O2	0.415300	0.595500	0.704400
C11	C1	0.445900	0.643900	0.730300
C21	C2	0.473600	0.698400	0.685800
C31	C3	0.472200	0.696600	0.616200
H11	H1	0.453000	0.660500	0.593200
O31	O3	0.954400	0.151800	0.293230
O41	O4	0.915300	0.095500	0.204400
C41	C4	0.945900	0.143900	0.230300
C51	C5	0.973600	0.198400	0.185800
C61	C6	0.972200	0.196600	0.116200
H21	H2	0.953000	0.160500	0.093200
O51	O5	0.045600	0.348200	0.293230
O61	O6	0.084700	0.404500	0.204400
C71	C7	0.054100	0.356100	0.230300
C81	C8	0.026400	0.301600	0.185800
C91	C9	0.027800	0.303400	0.116200
H31	H3	0.047000	0.339500	0.093200
O71	O7	0.545600	0.848200	0.793230
O81	O8	0.584700	0.904500	0.704400
C101	C10	0.554100	0.856100	0.730300
C111	C11	0.526400	0.801600	0.685800
C121	C12	0.527800	0.803400	0.616200
H41	H4	0.547000	0.839500	0.593200
O91	O9	0.545600	0.151800	0.706770
O101	O10	0.584700	0.095500	0.795600
C131	C13	0.554100	0.143900	0.769700
C141	C14	0.526400	0.198400	0.814200
C151	C15	0.527800	0.196600	0.883800
H51	H5	0.547000	0.160500	0.906800
O111	O11	0.045600	0.651800	0.206770
O121	O12	0.084700	0.595500	0.295600
C161	C16	0.054100	0.643900	0.269700
C171	C17	0.026400	0.698400	0.314200
C181	C18	0.027800	0.696600	0.383800
H61	H6	0.047000	0.660500	0.406800
O131	O13	0.954400	0.848200	0.206770
O141	O14	0.915300	0.904500	0.295600
C191	C19	0.945900	0.856100	0.269700
C201	C20	0.973600	0.801600	0.314200
C211	C21	0.972200	0.803400	0.383800
H71	H7	0.953000	0.839500	0.406800
O151	O15	0.454400	0.348200	0.706770
O161	O16	0.415300	0.404500	0.795600
C221	C22	0.445900	0.356100	0.769700
C231	C23	0.473600	0.301600	0.814200
C241	C24	0.472200	0.303400	0.883800
H81	H8	0.453000	0.339500	0.906800
O171	O17	0.793230	0.454400	0.651800
O181	O18	0.704400	0.415300	0.595500
C251	C25	0.730300	0.445900	0.643900
C261	C26	0.685800	0.473600	0.698400
C271	C27	0.616200	0.472200	0.696600
H91	H9	0.593200	0.453000	0.660500
O191	O19	0.293230	0.954400	0.151800
O201	O20	0.204400	0.915300	0.095500
C281	C28	0.230300	0.945900	0.143900
C291	C29	0.185800	0.973600	0.198400
C301	C30	0.116200	0.972200	0.196600
H101	H10	0.093200	0.953000	0.160500
O211	O21	0.293230	0.045600	0.348200
O221	O22	0.204400	0.084700	0.404500
C311	C31	0.230300	0.054100	0.356100
C321	C32	0.185800	0.026400	0.301600
C331	C33	0.116200	0.027800	0.303400
H111	H11	0.093200	0.047000	0.339500
O231	O23	0.793230	0.545600	0.848200
O241	O24	0.704400	0.584700	0.904500
C341	C34	0.730300	0.554100	0.856100
C351	C35	0.685800	0.526400	0.801600
C361	C36	0.616200	0.527800	0.803400
H121	H12	0.593200	0.547000	0.839500
O251	O25	0.706770	0.545600	0.151800
O261	O26	0.795600	0.584700	0.095500
C371	C37	0.769700	0.554100	0.143900
C381	C38	0.814200	0.526400	0.198400
C391	C39	0.883800	0.527800	0.196600
H131	H13	0.906800	0.547000	0.160500
O271	O27	0.206770	0.045600	0.651800
O281	O28	0.295600	0.084700	0.595500
C401	C40	0.269700	0.054100	0.643900
C411	C41	0.314200	0.026400	0.698400
C421	C42	0.383800	0.027800	0.696600
H141	H14	0.406800	0.047000	0.660500
O291	O29	0.206770	0.954400	0.848200
O301	O30	0.295600	0.915300	0.904500
C431	C43	0.269700	0.945900	0.856100
C441	C44	0.314200	0.973600	0.801600
C451	C45	0.383800	0.972200	0.803400
H151	H15	0.406800	0.953000	0.839500
O311	O31	0.706770	0.454400	0.348200
O321	O32	0.795600	0.415300	0.404500
C461	C46	0.769700	0.445900	0.356100
C471	C47	0.814200	0.473600	0.301600
C481	C48	0.883800	0.472200	0.303400
H161	H16	0.906800	0.453000	0.339500
O331	O33	0.651800	0.793230	0.454400
O341	O34	0.595500	0.704400	0.415300
C491	C49	0.643900	0.730300	0.445900
C501	C50	0.698400	0.685800	0.473600
C511	C51	0.696600	0.616200	0.472200
H171	H17	0.660500	0.593200	0.453000
O351	O35	0.151800	0.293230	0.954400
O361	O36	0.095500	0.204400	0.915300
C521	C52	0.143900	0.230300	0.945900
C531	C53	0.198400	0.185800	0.973600
C541	C54	0.196600	0.116200	0.972200
H181	H18	0.160500	0.093200	0.953000
O371	O37	0.348200	0.293230	0.045600
O381	O38	0.404500	0.204400	0.084700
C551	C55	0.356100	0.230300	0.054100
C561	C56	0.301600	0.185800	0.026400
C571	C57	0.303400	0.116200	0.027800
H191	H19	0.339500	0.093200	0.047000
O391	O39	0.848200	0.793230	0.545600
O401	O40	0.904500	0.704400	0.584700
C581	C58	0.856100	0.730300	0.554100
C591	C59	0.801600	0.685800	0.526400
C601	C60	0.803400	0.616200	0.527800
H201	H20	0.839500	0.593200	0.547000
O411	O41	0.151800	0.706770	0.545600
O421	O42	0.095500	0.795600	0.584700
C611	C61	0.143900	0.769700	0.554100
C621	C62	0.198400	0.814200	0.526400
C631	C63	0.196600	0.883800	0.527800
H211	H21	0.160500	0.906800	0.547000
O431	O43	0.651800	0.206770	0.045600
O441	O44	0.595500	0.295600	0.084700
C641	C64	0.643900	0.269700	0.054100
C651	C65	0.698400	0.314200	0.026400
C661	C66	0.696600	0.383800	0.027800
H221	H22	0.660500	0.406800	0.047000
O451	O45	0.848200	0.206770	0.954400
O461	O46	0.904500	0.295600	0.915300
C671	C67	0.856100	0.269700	0.945900
C681	C68	0.801600	0.314200	0.973600
C691	C69	0.803400	0.383800	0.972200
H231	H23	0.839500	0.406800	0.953000
O471	O47	0.348200	0.706770	0.454400
O481	O48	0.404500	0.795600	0.415300
C701	C70	0.356100	0.769700	0.445900
C711	C71	0.301600	0.814200	0.473600
C721	C72	0.303400	0.883800	0.472200
H241	H24	0.339500	0.906800	0.453000
O491	O49	0.545600	0.348200	0.206770
O501	O50	0.584700	0.404500	0.295600
C731	C73	0.554100	0.356100	0.269700
C741	C74	0.526400	0.301600	0.314200
C751	C75	0.527800	0.303400	0.383800
H251	H25	0.547000	0.339500	0.406800
O511	O51	0.045600	0.848200	0.706770
O521	O52	0.084700	0.904500	0.795600
C761	C76	0.054100	0.856100	0.769700
C771	C77	0.026400	0.801600	0.814200
C781	C78	0.027800	0.803400	0.883800
H261	H26	0.047000	0.839500	0.906800
O531	O53	0.954400	0.651800	0.706770
O541	O54	0.915300	0.595500	0.795600
C791	C79	0.945900	0.643900	0.769700
C801	C80	0.973600	0.698400	0.814200
C811	C81	0.972200	0.696600	0.883800
H271	H27	0.953000	0.660500	0.906800
O551	O55	0.454400	0.151800	0.206770
O561	O56	0.415300	0.095500	0.295600
C821	C82	0.445900	0.143900	0.269700
C831	C83	0.473600	0.198400	0.314200
C841	C84	0.472200	0.196600	0.383800
H281	H28	0.453000	0.160500	0.406800
O571	O57	0.454400	0.848200	0.293230
O581	O58	0.415300	0.904500	0.204400
C851	C85	0.445900	0.856100	0.230300
C861	C86	0.473600	0.801600	0.185800
C871	C87	0.472200	0.803400	0.116200
H291	H29	0.453000	0.839500	0.093200
O591	O59	0.954400	0.348200	0.793230
O601	O60	0.915300	0.404500	0.704400
C881	C88	0.945900	0.356100	0.730300
C891	C89	0.973600	0.301600	0.685800
C901	C90	0.972200	0.303400	0.616200
H301	H30	0.953000	0.339500	0.593200
O611	O61	0.045600	0.151800	0.793230
O621	O62	0.084700	0.095500	0.704400
C911	C91	0.054100	0.143900	0.730300
C921	C92	0.026400	0.198400	0.685800
C931	C93	0.027800	0.196600	0.616200
H311	H31	0.047000	0.160500	0.593200
O631	O63	0.545600	0.651800	0.293230
O641	O64	0.584700	0.595500	0.204400
C941	C94	0.554100	0.643900	0.230300
C951	C95	0.526400	0.698400	0.185800
C961	C96	0.527800	0.696600	0.116200
H321	H32	0.547000	0.660500	0.093200
O651	O65	0.206770	0.545600	0.348200
O661	O66	0.295600	0.584700	0.404500
C971	C97	0.269700	0.554100	0.356100
C981	C98	0.314200	0.526400	0.301600
C991	C99	0.383800	0.527800	0.303400
H331	H33	0.406800	0.547000	0.339500
O671	O67	0.706770	0.045600	0.848200
O681	O68	0.795600	0.084700	0.904500
C1001	C100	0.769700	0.054100	0.856100
C1011	C101	0.814200	0.026400	0.801600
C1021	C102	0.883800	0.027800	0.803400
H341	H34	0.906800	0.047000	0.839500
O691	O69	0.706770	0.954400	0.651800
O701	O70	0.795600	0.915300	0.595500
C1031	C103	0.769700	0.945900	0.643900
C1041	C104	0.814200	0.973600	0.698400
C1051	C105	0.883800	0.972200	0.696600
H351	H35	0.906800	0.953000	0.660500
O711	O71	0.206770	0.454400	0.151800
O721	O72	0.295600	0.415300	0.095500
C1061	C106	0.269700	0.445900	0.143900
C1071	C107	0.314200	0.473600	0.198400
C1081	C108	0.383800	0.472200	0.196600
H361	H36	0.406800	0.453000	0.160500
O731	O73	0.293230	0.454400	0.848200
O741	O74	0.204400	0.415300	0.904500
C1091	C109	0.230300	0.445900	0.856100
C1101	C110	0.185800	0.473600	0.801600
C1111	C111	0.116200	0.472200	0.803400
H371	H37	0.093200	0.453000	0.839500
O751	O75	0.793230	0.954400	0.348200
O761	O76	0.704400	0.915300	0.404500
C1121	C112	0.730300	0.945900	0.356100
C1131	C113	0.685800	0.973600	0.301600
C1141	C114	0.616200	0.972200	0.303400
H381	H38	0.593200	0.953000	0.339500
O771	O77	0.793230	0.045600	0.151800
O781	O78	0.704400	0.084700	0.095500
C1151	C115	0.730300	0.054100	0.143900
C1161	C116	0.685800	0.026400	0.198400
C1171	C117	0.616200	0.027800	0.196600
H391	H39	0.593200	0.047000	0.160500
O791	O79	0.293230	0.545600	0.651800
O801	O80	0.204400	0.584700	0.595500
C1181	C118	0.230300	0.554100	0.643900
C1191	C119	0.185800	0.526400	0.698400
C1201	C120	0.116200	0.527800	0.696600
H401	H40	0.093200	0.547000	0.660500
O811	O81	0.348200	0.206770	0.545600
O821	O82	0.404500	0.295600	0.584700
C1211	C121	0.356100	0.269700	0.554100
C1221	C122	0.301600	0.314200	0.526400
C1231	C123	0.303400	0.383800	0.527800
H411	H41	0.339500	0.406800	0.547000
O831	O83	0.848200	0.706770	0.045600
O841	O84	0.904500	0.795600	0.084700
C1241	C124	0.856100	0.769700	0.054100
C1251	C125	0.801600	0.814200	0.026400
C1261	C126	0.803400	0.883800	0.027800
H421	H42	0.839500	0.906800	0.047000
O851	O85	0.651800	0.706770	0.954400
O861	O86	0.595500	0.795600	0.915300
C1271	C127	0.643900	0.769700	0.945900
C1281	C128	0.698400	0.814200	0.973600
C1291	C129	0.696600	0.883800	0.972200
H431	H43	0.660500	0.906800	0.953000
O871	O87	0.151800	0.206770	0.454400
O881	O88	0.095500	0.295600	0.415300
C1301	C130	0.143900	0.269700	0.445900
C1311	C131	0.198400	0.314200	0.473600
C1321	C132	0.196600	0.383800	0.472200
H441	H44	0.160500	0.406800	0.453000
O891	O89	0.848200	0.293230	0.454400
O901	O90	0.904500	0.204400	0.415300
C1331	C133	0.856100	0.230300	0.445900
C1341	C134	0.801600	0.185800	0.473600
C1351	C135	0.803400	0.116200	0.472200
H451	H45	0.839500	0.093200	0.453000
O911	O91	0.348200	0.793230	0.954400
O921	O92	0.404500	0.704400	0.915300
C1361	C136	0.356100	0.730300	0.945900
C1371	C137	0.301600	0.685800	0.973600
C1381	C138	0.303400	0.616200	0.972200
H461	H46	0.339500	0.593200	0.953000
O931	O93	0.151800	0.793230	0.045600
O941	O94	0.095500	0.704400	0.084700
C1391	C139	0.143900	0.730300	0.054100
C1401	C140	0.198400	0.685800	0.026400
C1411	C141	0.196600	0.616200	0.027800
H471	H47	0.160500	0.593200	0.047000
O951	O95	0.651800	0.293230	0.545600
O961	O96	0.595500	0.204400	0.584700
C1421	C142	0.643900	0.230300	0.554100
C1431	C143	0.698400	0.185800	0.526400
C1441	C144	0.696600	0.116200	0.527800
H481	H48	0.660500	0.093200	0.547000
Sm11	Sm1	0.500000	0.750000	0.847960
N11	N1	0.500000	0.750000	0.721000
C1451	C145	0.500000	0.750000	0.582400
H491	H49	0.500000	0.750000	0.535500
Sm21	Sm2	0.000000	0.250000	0.347960
N21	N2	0.000000	0.250000	0.221000
C1461	C146	0.000000	0.250000	0.082400
H501	H50	0.000000	0.250000	0.035500
Sm31	Sm3	0.500000	0.250000	0.652040
N31	N3	0.500000	0.250000	0.779000
C1471	C147	0.500000	0.250000	0.917600
H511	H51	0.500000	0.250000	0.964500
Sm41	Sm4	0.000000	0.750000	0.152040
N41	N4	0.000000	0.750000	0.279000
C1481	C148	0.000000	0.750000	0.417600
H521	H52	0.000000	0.750000	0.464500
Sm51	Sm5	0.847960	0.500000	0.750000
N51	N5	0.721000	0.500000	0.750000
C1491	C149	0.582400	0.500000	0.750000
H531	H53	0.535500	0.500000	0.750000
Sm61	Sm6	0.347960	0.000000	0.250000
N61	N6	0.221000	0.000000	0.250000
C1501	C150	0.082400	0.000000	0.250000
H541	H54	0.035500	0.000000	0.250000
Sm71	Sm7	0.652040	0.500000	0.250000
N71	N7	0.779000	0.500000	0.250000
C1511	C151	0.917600	0.500000	0.250000
H551	H55	0.964500	0.500000	0.250000
Sm81	Sm8	0.152040	0.000000	0.750000
N81	N8	0.279000	0.000000	0.750000
C1521	C152	0.417600	0.000000	0.750000
H561	H56	0.464500	0.000000	0.750000
Sm91	Sm9	0.750000	0.847960	0.500000
N91	N9	0.750000	0.721000	0.500000
C1531	C153	0.750000	0.582400	0.500000
H571	H57	0.750000	0.535500	0.500000
Sm101	Sm10	0.250000	0.347960	0.000000
N101	N10	0.250000	0.221000	0.000000
C1541	C154	0.250000	0.082400	0.000000
H581	H58	0.250000	0.035500	0.000000
Sm111	Sm11	0.250000	0.652040	0.500000
N111	N11	0.250000	0.779000	0.500000
C1551	C155	0.250000	0.917600	0.500000
H591	H59	0.250000	0.964500	0.500000
Sm121	Sm12	0.750000	0.152040	0.000000
N121	N12	0.750000	0.279000	0.000000
C1561	C156	0.750000	0.417600	0.000000
H601	H60	0.750000	0.464500	0.000000
Sm131	Sm13	0.500000	0.250000	0.152040
N131	N13	0.500000	0.250000	0.279000
C1571	C157	0.500000	0.250000	0.417600
H611	H61	0.500000	0.250000	0.464500
Sm141	Sm14	0.000000	0.750000	0.652040
N141	N14	0.000000	0.750000	0.779000
C1581	C158	0.000000	0.750000	0.917600
H621	H62	0.000000	0.750000	0.964500
Sm151	Sm15	0.500000	0.750000	0.347960
N151	N15	0.500000	0.750000	0.221000
C1591	C159	0.500000	0.750000	0.082400
H631	H63	0.500000	0.750000	0.035500
Sm161	Sm16	0.000000	0.250000	0.847960
N161	N16	0.000000	0.250000	0.721000
C1601	C160	0.000000	0.250000	0.582400
H641	H64	0.000000	0.250000	0.535500
Sm171	Sm17	0.152040	0.500000	0.250000
N171	N17	0.279000	0.500000	0.250000
C1611	C161	0.417600	0.500000	0.250000
H651	H65	0.464500	0.500000	0.250000
Sm181	Sm18	0.652040	0.000000	0.750000
N181	N18	0.779000	0.000000	0.750000
C1621	C162	0.917600	0.000000	0.750000
H661	H66	0.964500	0.000000	0.750000
Sm191	Sm19	0.347960	0.500000	0.750000
N191	N19	0.221000	0.500000	0.750000
C1631	C163	0.082400	0.500000	0.750000
H671	H67	0.035500	0.500000	0.750000
Sm201	Sm20	0.847960	0.000000	0.250000
N201	N20	0.721000	0.000000	0.250000
C1641	C164	0.582400	0.000000	0.250000
H681	H68	0.535500	0.000000	0.250000
Sm211	Sm21	0.250000	0.152040	0.500000
N211	N21	0.250000	0.279000	0.500000
C1651	C165	0.250000	0.417600	0.500000
H691	H69	0.250000	0.464500	0.500000
Sm221	Sm22	0.750000	0.652040	0.000000
N221	N22	0.750000	0.779000	0.000000
C1661	C166	0.750000	0.917600	0.000000
H701	H70	0.750000	0.964500	0.000000
Sm231	Sm23	0.750000	0.347960	0.500000
N231	N23	0.750000	0.221000	0.500000
C1671	C167	0.750000	0.082400	0.500000
H711	H71	0.750000	0.035500	0.500000
Sm241	Sm24	0.250000	0.847960	0.000000
N241	N24	0.250000	0.721000	0.000000
C1681	C168	0.250000	0.582400	0.000000
H721	H72	0.250000	0.535500	0.000000
