data_SALXIP_clean_PM
_symmetry_space_group_name_H-M	'P1'
_cell_length_a	25.862700
_cell_length_b	25.862700
_cell_length_c	25.459100
_cell_angle_alpha	90.000000
_cell_angle_beta	90.000000
_cell_angle_gamma	120.000000
_symmetry_Int_Tables_number 1

loop_
_symmetry_equiv_pos_as_xyz
'x,y,z'

loop_
_atom_site_label
_atom_site_type_symbol
_atom_site_fract_x
_atom_site_fract_y
_atom_site_fract_z
Ce11	Ce1	0.383480	0.467050	0.475700
O11	O1	0.418200	0.436500	0.547400
O21	O2	0.324100	0.474800	0.536670
O31	O3	0.378970	0.496800	0.609170
C11	C1	0.331400	0.488900	0.584850
C21	C2	0.296900	0.500400	0.626350
C31	C3	0.277900	0.503400	0.677400
O41	O4	0.371200	0.452700	0.387340
O51	O5	0.441300	0.440600	0.345780
C41	C4	0.392100	0.441500	0.345000
C51	C5	0.355100	0.432200	0.295700
C61	C6	0.303600	0.428400	0.277400
Ce21	Ce2	0.532950	0.916430	0.475700
O61	O6	0.563500	0.981700	0.547400
O71	O7	0.525200	0.849300	0.536670
O81	O8	0.503200	0.882170	0.609170
C71	C7	0.511100	0.842500	0.584850
C81	C8	0.499600	0.796500	0.626350
C91	C9	0.496600	0.774500	0.677400
O91	O9	0.547300	0.918500	0.387340
O101	O10	0.559400	0.000700	0.345780
C101	C10	0.558500	0.950600	0.345000
C111	C11	0.567800	0.922900	0.295700
C121	C12	0.571600	0.875200	0.277400
Ce31	Ce3	0.083570	0.616520	0.475700
O111	O11	0.018300	0.581800	0.547400
O121	O12	0.150700	0.675900	0.536670
O131	O13	0.117830	0.621030	0.609170
C131	C13	0.157500	0.668600	0.584850
C141	C14	0.203500	0.703100	0.626350
C151	C15	0.225500	0.722100	0.677400
O141	O14	0.081500	0.628800	0.387340
O151	O15	0.999300	0.558700	0.345780
C161	C16	0.049400	0.607900	0.345000
C171	C17	0.077100	0.644900	0.295700
C181	C18	0.124800	0.696400	0.277400
Ce41	Ce4	0.616520	0.532950	0.975700
O161	O16	0.581800	0.563500	0.047400
O171	O17	0.675900	0.525200	0.036670
O181	O18	0.621030	0.503200	0.109170
C191	C19	0.668600	0.511100	0.084850
C201	C20	0.703100	0.499600	0.126350
C211	C21	0.722100	0.496600	0.177400
O191	O19	0.628800	0.547300	0.887340
O201	O20	0.558700	0.559400	0.845780
C221	C22	0.607900	0.558500	0.845000
C231	C23	0.644900	0.567800	0.795700
C241	C24	0.696400	0.571600	0.777400
Ce51	Ce5	0.467050	0.083570	0.975700
O211	O21	0.436500	0.018300	0.047400
O221	O22	0.474800	0.150700	0.036670
O231	O23	0.496800	0.117830	0.109170
C251	C25	0.488900	0.157500	0.084850
C261	C26	0.500400	0.203500	0.126350
C271	C27	0.503400	0.225500	0.177400
O241	O24	0.452700	0.081500	0.887340
O251	O25	0.440600	0.999300	0.845780
C281	C28	0.441500	0.049400	0.845000
C291	C29	0.432200	0.077100	0.795700
C301	C30	0.428400	0.124800	0.777400
Ce61	Ce6	0.916430	0.383480	0.975700
O261	O26	0.981700	0.418200	0.047400
O271	O27	0.849300	0.324100	0.036670
O281	O28	0.882170	0.378970	0.109170
C311	C31	0.842500	0.331400	0.084850
C321	C32	0.796500	0.296900	0.126350
C331	C33	0.774500	0.277900	0.177400
O291	O29	0.918500	0.371200	0.887340
O301	O30	0.000700	0.441300	0.845780
C341	C34	0.950600	0.392100	0.845000
C351	C35	0.922900	0.355100	0.795700
C361	C36	0.875200	0.303600	0.777400
Ce71	Ce7	0.467050	0.383480	0.524300
O311	O31	0.436500	0.418200	0.452600
O321	O32	0.474800	0.324100	0.463330
O331	O33	0.496800	0.378970	0.390830
C371	C37	0.488900	0.331400	0.415150
C381	C38	0.500400	0.296900	0.373650
C391	C39	0.503400	0.277900	0.322600
O341	O34	0.452700	0.371200	0.612660
O351	O35	0.440600	0.441300	0.654220
C401	C40	0.441500	0.392100	0.655000
C411	C41	0.432200	0.355100	0.704300
C421	C42	0.428400	0.303600	0.722600
Ce81	Ce8	0.916430	0.532950	0.524300
O361	O36	0.981700	0.563500	0.452600
O371	O37	0.849300	0.525200	0.463330
O381	O38	0.882170	0.503200	0.390830
C431	C43	0.842500	0.511100	0.415150
C441	C44	0.796500	0.499600	0.373650
C451	C45	0.774500	0.496600	0.322600
O391	O39	0.918500	0.547300	0.612660
O401	O40	0.000700	0.559400	0.654220
C461	C46	0.950600	0.558500	0.655000
C471	C47	0.922900	0.567800	0.704300
C481	C48	0.875200	0.571600	0.722600
Ce91	Ce9	0.616520	0.083570	0.524300
O411	O41	0.581800	0.018300	0.452600
O421	O42	0.675900	0.150700	0.463330
O431	O43	0.621030	0.117830	0.390830
C491	C49	0.668600	0.157500	0.415150
C501	C50	0.703100	0.203500	0.373650
C511	C51	0.722100	0.225500	0.322600
O441	O44	0.628800	0.081500	0.612660
O451	O45	0.558700	0.999300	0.654220
C521	C52	0.607900	0.049400	0.655000
C531	C53	0.644900	0.077100	0.704300
C541	C54	0.696400	0.124800	0.722600
Ce101	Ce10	0.532950	0.616520	0.024300
O461	O46	0.563500	0.581800	0.952600
O471	O47	0.525200	0.675900	0.963330
O481	O48	0.503200	0.621030	0.890830
C551	C55	0.511100	0.668600	0.915150
C561	C56	0.499600	0.703100	0.873650
C571	C57	0.496600	0.722100	0.822600
O491	O49	0.547300	0.628800	0.112660
O501	O50	0.559400	0.558700	0.154220
C581	C58	0.558500	0.607900	0.155000
C591	C59	0.567800	0.644900	0.204300
C601	C60	0.571600	0.696400	0.222600
Ce111	Ce11	0.083570	0.467050	0.024300
O511	O51	0.018300	0.436500	0.952600
O521	O52	0.150700	0.474800	0.963330
O531	O53	0.117830	0.496800	0.890830
C611	C61	0.157500	0.488900	0.915150
C621	C62	0.203500	0.500400	0.873650
C631	C63	0.225500	0.503400	0.822600
O541	O54	0.081500	0.452700	0.112660
O551	O55	0.999300	0.440600	0.154220
C641	C64	0.049400	0.441500	0.155000
C651	C65	0.077100	0.432200	0.204300
C661	C66	0.124800	0.428400	0.222600
Ce121	Ce12	0.383480	0.916430	0.024300
O561	O56	0.418200	0.981700	0.952600
O571	O57	0.324100	0.849300	0.963330
O581	O58	0.378970	0.882170	0.890830
C671	C67	0.331400	0.842500	0.915150
C681	C68	0.296900	0.796500	0.873650
C691	C69	0.277900	0.774500	0.822600
O591	O59	0.371200	0.918500	0.112660
O601	O60	0.441300	0.000700	0.154220
C701	C70	0.392100	0.950600	0.155000
C711	C71	0.355100	0.922900	0.204300
C721	C72	0.303600	0.875200	0.222600
Ce131	Ce13	0.616520	0.532950	0.524300
O611	O61	0.581800	0.563500	0.452600
O621	O62	0.675900	0.525200	0.463330
O631	O63	0.621030	0.503200	0.390830
C731	C73	0.668600	0.511100	0.415150
C741	C74	0.703100	0.499600	0.373650
C751	C75	0.722100	0.496600	0.322600
O641	O64	0.628800	0.547300	0.612660
O651	O65	0.558700	0.559400	0.654220
C761	C76	0.607900	0.558500	0.655000
C771	C77	0.644900	0.567800	0.704300
C781	C78	0.696400	0.571600	0.722600
Ce141	Ce14	0.467050	0.083570	0.524300
O661	O66	0.436500	0.018300	0.452600
O671	O67	0.474800	0.150700	0.463330
O681	O68	0.496800	0.117830	0.390830
C791	C79	0.488900	0.157500	0.415150
C801	C80	0.500400	0.203500	0.373650
C811	C81	0.503400	0.225500	0.322600
O691	O69	0.452700	0.081500	0.612660
O701	O70	0.440600	0.999300	0.654220
C821	C82	0.441500	0.049400	0.655000
C831	C83	0.432200	0.077100	0.704300
C841	C84	0.428400	0.124800	0.722600
Ce151	Ce15	0.916430	0.383480	0.524300
O711	O71	0.981700	0.418200	0.452600
O721	O72	0.849300	0.324100	0.463330
O731	O73	0.882170	0.378970	0.390830
C851	C85	0.842500	0.331400	0.415150
C861	C86	0.796500	0.296900	0.373650
C871	C87	0.774500	0.277900	0.322600
O741	O74	0.918500	0.371200	0.612660
O751	O75	0.000700	0.441300	0.654220
C881	C88	0.950600	0.392100	0.655000
C891	C89	0.922900	0.355100	0.704300
C901	C90	0.875200	0.303600	0.722600
Ce161	Ce16	0.383480	0.467050	0.024300
O761	O76	0.418200	0.436500	0.952600
O771	O77	0.324100	0.474800	0.963330
O781	O78	0.378970	0.496800	0.890830
C911	C91	0.331400	0.488900	0.915150
C921	C92	0.296900	0.500400	0.873650
C931	C93	0.277900	0.503400	0.822600
O791	O79	0.371200	0.452700	0.112660
O801	O80	0.441300	0.440600	0.154220
C941	C94	0.392100	0.441500	0.155000
C951	C95	0.355100	0.432200	0.204300
C961	C96	0.303600	0.428400	0.222600
Ce171	Ce17	0.532950	0.916430	0.024300
O811	O81	0.563500	0.981700	0.952600
O821	O82	0.525200	0.849300	0.963330
O831	O83	0.503200	0.882170	0.890830
C971	C97	0.511100	0.842500	0.915150
C981	C98	0.499600	0.796500	0.873650
C991	C99	0.496600	0.774500	0.822600
O841	O84	0.547300	0.918500	0.112660
O851	O85	0.559400	0.000700	0.154220
C1001	C100	0.558500	0.950600	0.155000
C1011	C101	0.567800	0.922900	0.204300
C1021	C102	0.571600	0.875200	0.222600
Ce181	Ce18	0.083570	0.616520	0.024300
O861	O86	0.018300	0.581800	0.952600
O871	O87	0.150700	0.675900	0.963330
O881	O88	0.117830	0.621030	0.890830
C1031	C103	0.157500	0.668600	0.915150
C1041	C104	0.203500	0.703100	0.873650
C1051	C105	0.225500	0.722100	0.822600
O891	O89	0.081500	0.628800	0.112660
O901	O90	0.999300	0.558700	0.154220
C1061	C106	0.049400	0.607900	0.155000
C1071	C107	0.077100	0.644900	0.204300
C1081	C108	0.124800	0.696400	0.222600
Ce191	Ce19	0.532950	0.616520	0.475700
O911	O91	0.563500	0.581800	0.547400
O921	O92	0.525200	0.675900	0.536670
O931	O93	0.503200	0.621030	0.609170
C1091	C109	0.511100	0.668600	0.584850
C1101	C110	0.499600	0.703100	0.626350
C1111	C111	0.496600	0.722100	0.677400
O941	O94	0.547300	0.628800	0.387340
O951	O95	0.559400	0.558700	0.345780
C1121	C112	0.558500	0.607900	0.345000
C1131	C113	0.567800	0.644900	0.295700
C1141	C114	0.571600	0.696400	0.277400
Ce201	Ce20	0.083570	0.467050	0.475700
O961	O96	0.018300	0.436500	0.547400
O971	O97	0.150700	0.474800	0.536670
O981	O98	0.117830	0.496800	0.609170
C1151	C115	0.157500	0.488900	0.584850
C1161	C116	0.203500	0.500400	0.626350
C1171	C117	0.225500	0.503400	0.677400
O991	O99	0.081500	0.452700	0.387340
O1001	O100	0.999300	0.440600	0.345780
C1181	C118	0.049400	0.441500	0.345000
C1191	C119	0.077100	0.432200	0.295700
C1201	C120	0.124800	0.428400	0.277400
Ce211	Ce21	0.383480	0.916430	0.475700
O1011	O101	0.418200	0.981700	0.547400
O1021	O102	0.324100	0.849300	0.536670
O1031	O103	0.378970	0.882170	0.609170
C1211	C121	0.331400	0.842500	0.584850
C1221	C122	0.296900	0.796500	0.626350
C1231	C123	0.277900	0.774500	0.677400
O1041	O104	0.371200	0.918500	0.387340
O1051	O105	0.441300	0.000700	0.345780
C1241	C124	0.392100	0.950600	0.345000
C1251	C125	0.355100	0.922900	0.295700
C1261	C126	0.303600	0.875200	0.277400
Ce221	Ce22	0.467050	0.383480	0.975700
O1061	O106	0.436500	0.418200	0.047400
O1071	O107	0.474800	0.324100	0.036670
O1081	O108	0.496800	0.378970	0.109170
C1271	C127	0.488900	0.331400	0.084850
C1281	C128	0.500400	0.296900	0.126350
C1291	C129	0.503400	0.277900	0.177400
O1091	O109	0.452700	0.371200	0.887340
O1101	O110	0.440600	0.441300	0.845780
C1301	C130	0.441500	0.392100	0.845000
C1311	C131	0.432200	0.355100	0.795700
C1321	C132	0.428400	0.303600	0.777400
Ce231	Ce23	0.916430	0.532950	0.975700
O1111	O111	0.981700	0.563500	0.047400
O1121	O112	0.849300	0.525200	0.036670
O1131	O113	0.882170	0.503200	0.109170
C1331	C133	0.842500	0.511100	0.084850
C1341	C134	0.796500	0.499600	0.126350
C1351	C135	0.774500	0.496600	0.177400
O1141	O114	0.918500	0.547300	0.887340
O1151	O115	0.000700	0.559400	0.845780
C1361	C136	0.950600	0.558500	0.845000
C1371	C137	0.922900	0.567800	0.795700
C1381	C138	0.875200	0.571600	0.777400
Ce241	Ce24	0.616520	0.083570	0.975700
O1161	O116	0.581800	0.018300	0.047400
O1171	O117	0.675900	0.150700	0.036670
O1181	O118	0.621030	0.117830	0.109170
C1391	C139	0.668600	0.157500	0.084850
C1401	C140	0.703100	0.203500	0.126350
C1411	C141	0.722100	0.225500	0.177400
O1191	O119	0.628800	0.081500	0.887340
O1201	O120	0.558700	0.999300	0.845780
C1421	C142	0.607900	0.049400	0.845000
C1431	C143	0.644900	0.077100	0.795700
C1441	C144	0.696400	0.124800	0.777400
Ce251	Ce25	0.480030	0.519970	0.599570
O1211	O121	0.467500	0.532500	0.424400
O1221	O122	0.449700	0.550300	0.525500
Ce261	Ce26	0.480030	0.960060	0.599570
O1231	O123	0.467500	0.935000	0.424400
O1241	O124	0.449700	0.899400	0.525500
Ce271	Ce27	0.039940	0.519970	0.599570
O1251	O125	0.065000	0.532500	0.424400
O1261	O126	0.100600	0.550300	0.525500
Ce281	Ce28	0.519970	0.480030	0.099570
O1271	O127	0.532500	0.467500	0.924400
O1281	O128	0.550300	0.449700	0.025500
Ce291	Ce29	0.519970	0.039940	0.099570
O1291	O129	0.532500	0.065000	0.924400
O1301	O130	0.550300	0.100600	0.025500
Ce301	Ce30	0.960060	0.480030	0.099570
O1311	O131	0.935000	0.467500	0.924400
O1321	O132	0.899400	0.449700	0.025500
Ce311	Ce31	0.519970	0.480030	0.400430
O1331	O133	0.532500	0.467500	0.575600
O1341	O134	0.550300	0.449700	0.474500
Ce321	Ce32	0.960060	0.480030	0.400430
O1351	O135	0.935000	0.467500	0.575600
O1361	O136	0.899400	0.449700	0.474500
Ce331	Ce33	0.519970	0.039940	0.400430
O1371	O137	0.532500	0.065000	0.575600
O1381	O138	0.550300	0.100600	0.474500
Ce341	Ce34	0.480030	0.519970	0.900430
O1391	O139	0.467500	0.532500	0.075600
O1401	O140	0.449700	0.550300	0.974500
Ce351	Ce35	0.039940	0.519970	0.900430
O1411	O141	0.065000	0.532500	0.075600
O1421	O142	0.100600	0.550300	0.974500
Ce361	Ce36	0.480030	0.960060	0.900430
O1431	O143	0.467500	0.935000	0.075600
O1441	O144	0.449700	0.899400	0.974500
O1451	O145	0.246200	0.492400	0.598100
O1461	O146	0.507600	0.753800	0.598100
O1471	O147	0.246200	0.753800	0.598100
O1481	O148	0.753800	0.507600	0.098100
O1491	O149	0.492400	0.246200	0.098100
O1501	O150	0.753800	0.246200	0.098100
O1511	O151	0.492400	0.246200	0.401900
O1521	O152	0.753800	0.507600	0.401900
O1531	O153	0.753800	0.246200	0.401900
O1541	O154	0.507600	0.753800	0.901900
O1551	O155	0.246200	0.492400	0.901900
O1561	O156	0.246200	0.753800	0.901900
O1571	O157	0.385800	0.433200	0.250000
O1581	O158	0.566800	0.952600	0.250000
O1591	O159	0.047400	0.614200	0.250000
O1601	O160	0.614200	0.566800	0.750000
O1611	O161	0.433200	0.047400	0.750000
O1621	O162	0.952600	0.385800	0.750000
O1631	O163	0.433200	0.385800	0.750000
O1641	O164	0.952600	0.566800	0.750000
O1651	O165	0.614200	0.047400	0.750000
O1661	O166	0.566800	0.614200	0.250000
O1671	O167	0.047400	0.433200	0.250000
O1681	O168	0.385800	0.952600	0.250000
