data_SALZAH_clean_PM
_symmetry_space_group_name_H-M	'P1'
_cell_length_a	22.624000
_cell_length_b	12.645000
_cell_length_c	14.735000
_cell_angle_alpha	90.000000
_cell_angle_beta	94.920000
_cell_angle_gamma	90.000000
_symmetry_Int_Tables_number 1

loop_
_symmetry_equiv_pos_as_xyz
'x,y,z'

loop_
_atom_site_label
_atom_site_type_symbol
_atom_site_fract_x
_atom_site_fract_y
_atom_site_fract_z
Cd11	Cd1	0.254390	0.915560	0.753410
C11	C1	0.134400	0.064000	0.769100
H11	H1	0.130400	0.063500	0.703000
H21	H2	0.115000	0.001100	0.789900
C21	C2	0.225500	0.162200	0.771300
H31	H3	0.267300	0.163100	0.792400
H41	H4	0.222500	0.163500	0.705300
C31	C3	0.202600	0.064400	0.904800
H51	H5	0.184800	0.001000	0.927600
H61	H6	0.244000	0.065800	0.928300
C41	C4	0.112500	0.156300	0.902600
H71	H7	0.091800	0.216700	0.925300
H81	H8	0.094200	0.092900	0.924500
C51	C5	0.134300	0.254700	0.769800
H91	H9	0.130500	0.256900	0.703700
H101	H10	0.114700	0.316700	0.791900
C61	C6	0.202500	0.252100	0.904700
H111	H11	0.243600	0.250300	0.926400
H121	H12	0.185400	0.315900	0.928000
C71	C7	0.340900	0.049000	0.433300
C81	C8	0.383900	0.095200	0.506500
H131	H13	0.417400	0.129000	0.488400
C91	C9	0.377300	0.091000	0.594500
H141	H14	0.406500	0.120700	0.634900
C101	C10	0.324000	0.039600	0.632700
N11	N1	0.104700	0.157100	0.801300
N21	N2	0.198750	0.060500	0.801900
N31	N3	0.171800	0.159500	0.938500
N41	N4	0.198060	0.256400	0.803300
O11	O1	0.335010	0.998200	0.712400
O21	O2	0.275720	0.036900	0.591700
O31	O3	0.341630	0.952400	0.417900
O41	O4	0.307330	0.117600	0.389300
Cd21	Cd2	0.745610	0.915560	0.746590
C111	C11	0.865600	0.064000	0.730900
H151	H15	0.869600	0.063500	0.797000
H161	H16	0.885000	0.001100	0.710100
C121	C12	0.774500	0.162200	0.728700
H171	H17	0.732700	0.163100	0.707600
H181	H18	0.777500	0.163500	0.794700
C131	C13	0.797400	0.064400	0.595200
H191	H19	0.815200	0.001000	0.572400
H201	H20	0.756000	0.065800	0.571700
C141	C14	0.887500	0.156300	0.597400
H211	H21	0.908200	0.216700	0.574700
H221	H22	0.905800	0.092900	0.575500
C151	C15	0.865700	0.254700	0.730200
H231	H23	0.869500	0.256900	0.796300
H241	H24	0.885300	0.316700	0.708100
C161	C16	0.797500	0.252100	0.595300
H251	H25	0.756400	0.250300	0.573600
H261	H26	0.814600	0.315900	0.572000
C171	C17	0.659100	0.049000	0.066700
C181	C18	0.616100	0.095200	0.993500
H271	H27	0.582600	0.129000	0.011600
C191	C19	0.622700	0.091000	0.905500
H281	H28	0.593500	0.120700	0.865100
C201	C20	0.676000	0.039600	0.867300
N51	N5	0.895300	0.157100	0.698700
N61	N6	0.801250	0.060500	0.698100
N71	N7	0.828200	0.159500	0.561500
N81	N8	0.801940	0.256400	0.696700
O51	O5	0.664990	0.998200	0.787600
O61	O6	0.724280	0.036900	0.908300
O71	O7	0.658370	0.952400	0.082100
O81	O8	0.692670	0.117600	0.110700
Cd31	Cd3	0.745610	0.084440	0.246590
C211	C21	0.865600	0.936000	0.230900
H291	H29	0.869600	0.936500	0.297000
H301	H30	0.885000	0.998900	0.210100
C221	C22	0.774500	0.837800	0.228700
H311	H31	0.732700	0.836900	0.207600
H321	H32	0.777500	0.836500	0.294700
C231	C23	0.797400	0.935600	0.095200
H331	H33	0.815200	0.999000	0.072400
H341	H34	0.756000	0.934200	0.071700
C241	C24	0.887500	0.843700	0.097400
H351	H35	0.908200	0.783300	0.074700
H361	H36	0.905800	0.907100	0.075500
C251	C25	0.865700	0.745300	0.230200
H371	H37	0.869500	0.743100	0.296300
H381	H38	0.885300	0.683300	0.208100
C261	C26	0.797500	0.747900	0.095300
H391	H39	0.756400	0.749700	0.073600
H401	H40	0.814600	0.684100	0.072000
C271	C27	0.659100	0.951000	0.566700
C281	C28	0.616100	0.904800	0.493500
H411	H41	0.582600	0.871000	0.511600
C291	C29	0.622700	0.909000	0.405500
H421	H42	0.593500	0.879300	0.365100
C301	C30	0.676000	0.960400	0.367300
N91	N9	0.895300	0.842900	0.198700
N101	N10	0.801250	0.939500	0.198100
N111	N11	0.828200	0.840500	0.061500
N121	N12	0.801940	0.743600	0.196700
O91	O9	0.664990	0.001800	0.287600
O101	O10	0.724280	0.963100	0.408300
O111	O11	0.658370	0.047600	0.582100
O121	O12	0.692670	0.882400	0.610700
Cd41	Cd4	0.254390	0.084440	0.253410
C311	C31	0.134400	0.936000	0.269100
H431	H43	0.130400	0.936500	0.203000
H441	H44	0.115000	0.998900	0.289900
C321	C32	0.225500	0.837800	0.271300
H451	H45	0.267300	0.836900	0.292400
H461	H46	0.222500	0.836500	0.205300
C331	C33	0.202600	0.935600	0.404800
H471	H47	0.184800	0.999000	0.427600
H481	H48	0.244000	0.934200	0.428300
C341	C34	0.112500	0.843700	0.402600
H491	H49	0.091800	0.783300	0.425300
H501	H50	0.094200	0.907100	0.424500
C351	C35	0.134300	0.745300	0.269800
H511	H51	0.130500	0.743100	0.203700
H521	H52	0.114700	0.683300	0.291900
C361	C36	0.202500	0.747900	0.404700
H531	H53	0.243600	0.749700	0.426400
H541	H54	0.185400	0.684100	0.428000
C371	C37	0.340900	0.951000	0.933300
C381	C38	0.383900	0.904800	0.006500
H551	H55	0.417400	0.871000	0.988400
C391	C39	0.377300	0.909000	0.094500
H561	H56	0.406500	0.879300	0.134900
C401	C40	0.324000	0.960400	0.132700
N131	N13	0.104700	0.842900	0.301300
N141	N14	0.198750	0.939500	0.301900
N151	N15	0.171800	0.840500	0.438500
N161	N16	0.198060	0.743600	0.303300
O131	O13	0.335010	0.001800	0.212400
O141	O14	0.275720	0.963100	0.091700
O151	O15	0.341630	0.047600	0.917900
O161	O16	0.307330	0.882400	0.889300
Cd51	Cd5	0.000000	0.167910	0.750000
Cd61	Cd6	0.000000	0.832090	0.250000
Cd71	Cd7	0.754390	0.415560	0.753410
C411	C41	0.634400	0.564000	0.769100
H571	H57	0.630400	0.563500	0.703000
H581	H58	0.615000	0.501100	0.789900
C421	C42	0.725500	0.662200	0.771300
H591	H59	0.767300	0.663100	0.792400
H601	H60	0.722500	0.663500	0.705300
C431	C43	0.702600	0.564400	0.904800
H611	H61	0.684800	0.501000	0.927600
H621	H62	0.744000	0.565800	0.928300
C441	C44	0.612500	0.656300	0.902600
H631	H63	0.591800	0.716700	0.925300
H641	H64	0.594200	0.592900	0.924500
C451	C45	0.634300	0.754700	0.769800
H651	H65	0.630500	0.756900	0.703700
H661	H66	0.614700	0.816700	0.791900
C461	C46	0.702500	0.752100	0.904700
H671	H67	0.743600	0.750300	0.926400
H681	H68	0.685400	0.815900	0.928000
C471	C47	0.840900	0.549000	0.433300
C481	C48	0.883900	0.595200	0.506500
H691	H69	0.917400	0.629000	0.488400
C491	C49	0.877300	0.591000	0.594500
H701	H70	0.906500	0.620700	0.634900
C501	C50	0.824000	0.539600	0.632700
N171	N17	0.604700	0.657100	0.801300
N181	N18	0.698750	0.560500	0.801900
N191	N19	0.671800	0.659500	0.938500
N201	N20	0.698060	0.756400	0.803300
O171	O17	0.835010	0.498200	0.712400
O181	O18	0.775720	0.536900	0.591700
O191	O19	0.841630	0.452400	0.417900
O201	O20	0.807330	0.617600	0.389300
Cd81	Cd8	0.245610	0.415560	0.746590
C511	C51	0.365600	0.564000	0.730900
H711	H71	0.369600	0.563500	0.797000
H721	H72	0.385000	0.501100	0.710100
C521	C52	0.274500	0.662200	0.728700
H731	H73	0.232700	0.663100	0.707600
H741	H74	0.277500	0.663500	0.794700
C531	C53	0.297400	0.564400	0.595200
H751	H75	0.315200	0.501000	0.572400
H761	H76	0.256000	0.565800	0.571700
C541	C54	0.387500	0.656300	0.597400
H771	H77	0.408200	0.716700	0.574700
H781	H78	0.405800	0.592900	0.575500
C551	C55	0.365700	0.754700	0.730200
H791	H79	0.369500	0.756900	0.796300
H801	H80	0.385300	0.816700	0.708100
C561	C56	0.297500	0.752100	0.595300
H811	H81	0.256400	0.750300	0.573600
H821	H82	0.314600	0.815900	0.572000
C571	C57	0.159100	0.549000	0.066700
C581	C58	0.116100	0.595200	0.993500
H831	H83	0.082600	0.629000	0.011600
C591	C59	0.122700	0.591000	0.905500
H841	H84	0.093500	0.620700	0.865100
C601	C60	0.176000	0.539600	0.867300
N211	N21	0.395300	0.657100	0.698700
N221	N22	0.301250	0.560500	0.698100
N231	N23	0.328200	0.659500	0.561500
N241	N24	0.301940	0.756400	0.696700
O211	O21	0.164990	0.498200	0.787600
O221	O22	0.224280	0.536900	0.908300
O231	O23	0.158370	0.452400	0.082100
O241	O24	0.192670	0.617600	0.110700
Cd91	Cd9	0.245610	0.584440	0.246590
C611	C61	0.365600	0.436000	0.230900
H851	H85	0.369600	0.436500	0.297000
H861	H86	0.385000	0.498900	0.210100
C621	C62	0.274500	0.337800	0.228700
H871	H87	0.232700	0.336900	0.207600
H881	H88	0.277500	0.336500	0.294700
C631	C63	0.297400	0.435600	0.095200
H891	H89	0.315200	0.499000	0.072400
H901	H90	0.256000	0.434200	0.071700
C641	C64	0.387500	0.343700	0.097400
H911	H91	0.408200	0.283300	0.074700
H921	H92	0.405800	0.407100	0.075500
C651	C65	0.365700	0.245300	0.230200
H931	H93	0.369500	0.243100	0.296300
H941	H94	0.385300	0.183300	0.208100
C661	C66	0.297500	0.247900	0.095300
H951	H95	0.256400	0.249700	0.073600
H961	H96	0.314600	0.184100	0.072000
C671	C67	0.159100	0.451000	0.566700
C681	C68	0.116100	0.404800	0.493500
H971	H97	0.082600	0.371000	0.511600
C691	C69	0.122700	0.409000	0.405500
H981	H98	0.093500	0.379300	0.365100
C701	C70	0.176000	0.460400	0.367300
N251	N25	0.395300	0.342900	0.198700
N261	N26	0.301250	0.439500	0.198100
N271	N27	0.328200	0.340500	0.061500
N281	N28	0.301940	0.243600	0.196700
O251	O25	0.164990	0.501800	0.287600
O261	O26	0.224280	0.463100	0.408300
O271	O27	0.158370	0.547600	0.582100
O281	O28	0.192670	0.382400	0.610700
Cd101	Cd10	0.754390	0.584440	0.253410
C711	C71	0.634400	0.436000	0.269100
H991	H99	0.630400	0.436500	0.203000
H1001	H100	0.615000	0.498900	0.289900
C721	C72	0.725500	0.337800	0.271300
H1011	H101	0.767300	0.336900	0.292400
H1021	H102	0.722500	0.336500	0.205300
C731	C73	0.702600	0.435600	0.404800
H1031	H103	0.684800	0.499000	0.427600
H1041	H104	0.744000	0.434200	0.428300
C741	C74	0.612500	0.343700	0.402600
H1051	H105	0.591800	0.283300	0.425300
H1061	H106	0.594200	0.407100	0.424500
C751	C75	0.634300	0.245300	0.269800
H1071	H107	0.630500	0.243100	0.203700
H1081	H108	0.614700	0.183300	0.291900
C761	C76	0.702500	0.247900	0.404700
H1091	H109	0.743600	0.249700	0.426400
H1101	H110	0.685400	0.184100	0.428000
C771	C77	0.840900	0.451000	0.933300
C781	C78	0.883900	0.404800	0.006500
H1111	H111	0.917400	0.371000	0.988400
C791	C79	0.877300	0.409000	0.094500
H1121	H112	0.906500	0.379300	0.134900
C801	C80	0.824000	0.460400	0.132700
N291	N29	0.604700	0.342900	0.301300
N301	N30	0.698750	0.439500	0.301900
N311	N31	0.671800	0.340500	0.438500
N321	N32	0.698060	0.243600	0.303300
O291	O29	0.835010	0.501800	0.212400
O301	O30	0.775720	0.463100	0.091700
O311	O31	0.841630	0.547600	0.917900
O321	O32	0.807330	0.382400	0.889300
Cd111	Cd11	0.500000	0.667910	0.750000
Cd121	Cd12	0.500000	0.332090	0.250000
