data_SAMVEK_clean_PM
_symmetry_space_group_name_H-M	'P1'
_cell_length_a	12.730000
_cell_length_b	15.810000
_cell_length_c	16.730000
_cell_angle_alpha	90.000000
_cell_angle_beta	90.000000
_cell_angle_gamma	90.000000
_symmetry_Int_Tables_number 1

loop_
_symmetry_equiv_pos_as_xyz
'x,y,z'

loop_
_atom_site_label
_atom_site_type_symbol
_atom_site_fract_x
_atom_site_fract_y
_atom_site_fract_z
Mn11	Mn1	0.731200	0.757360	0.110870
Mn21	Mn2	0.479180	0.735530	0.000160
O11	O1	0.651000	0.716140	0.990140
O21	O2	0.612100	0.707900	0.183120
O31	O3	0.488900	0.653070	0.102800
O41	O4	0.361700	0.372460	0.409670
O51	O5	0.532600	0.343180	0.418310
O61	O6	0.981200	0.670220	0.091400
O71	O7	0.819200	0.645400	0.135100
O81	O8	0.035000	0.359790	0.406210
C11	C1	0.728900	0.744700	0.952500
O91	O9	0.806100	0.774780	0.990450
C21	C2	0.540100	0.655300	0.165600
C31	C3	0.517800	0.588100	0.228500
C41	C4	0.458700	0.385000	0.392200
C51	C5	0.479500	0.457800	0.336200
C61	C6	0.570900	0.505600	0.343100
H11	H1	0.620200	0.493300	0.382500
C71	C7	0.587300	0.572300	0.289800
H21	H2	0.646100	0.606700	0.295700
C81	C8	0.427400	0.539700	0.221500
H31	H3	0.379700	0.550200	0.180500
C91	C9	0.409000	0.475700	0.276100
H41	H4	0.347600	0.444100	0.272200
C101	C10	0.914700	0.630300	0.131500
C111	C11	0.956100	0.558300	0.182600
C121	C12	0.894900	0.525300	0.243600
H51	H5	0.826600	0.544800	0.250600
C131	C13	0.934200	0.463400	0.294400
H61	H6	0.892800	0.442300	0.335600
C141	C14	0.036000	0.433100	0.283400
C151	C15	0.095500	0.463600	0.220500
H71	H7	0.162200	0.441700	0.211400
C161	C16	0.056300	0.527000	0.170300
H81	H8	0.097500	0.548100	0.128900
C171	C17	0.082300	0.370100	0.342400
O101	O10	0.167400	0.334900	0.321050
C181	C18	0.731400	0.742400	0.861900
H91	H9	0.796100	0.766600	0.843300
H101	H10	0.673400	0.774300	0.841100
H111	H11	0.726400	0.684900	0.844000
Mn31	Mn3	0.768800	0.242640	0.610870
Mn41	Mn4	0.020820	0.264470	0.500160
O111	O11	0.849000	0.283860	0.490140
O121	O12	0.887900	0.292100	0.683120
O131	O13	0.011100	0.346930	0.602800
O141	O14	0.138300	0.627540	0.909670
O151	O15	0.967400	0.656820	0.918310
O161	O16	0.518800	0.329780	0.591400
O171	O17	0.680800	0.354600	0.635100
O181	O18	0.465000	0.640210	0.906210
C191	C19	0.771100	0.255300	0.452500
O191	O19	0.693900	0.225220	0.490450
C201	C20	0.959900	0.344700	0.665600
C211	C21	0.982200	0.411900	0.728500
C221	C22	0.041300	0.615000	0.892200
C231	C23	0.020500	0.542200	0.836200
C241	C24	0.929100	0.494400	0.843100
H121	H12	0.879800	0.506700	0.882500
C251	C25	0.912700	0.427700	0.789800
H131	H13	0.853900	0.393300	0.795700
C261	C26	0.072600	0.460300	0.721500
H141	H14	0.120300	0.449800	0.680500
C271	C27	0.091000	0.524300	0.776100
H151	H15	0.152400	0.555900	0.772200
C281	C28	0.585300	0.369700	0.631500
C291	C29	0.543900	0.441700	0.682600
C301	C30	0.605100	0.474700	0.743600
H161	H16	0.673400	0.455200	0.750600
C311	C31	0.565800	0.536600	0.794400
H171	H17	0.607200	0.557700	0.835600
C321	C32	0.464000	0.566900	0.783400
C331	C33	0.404500	0.536400	0.720500
H181	H18	0.337800	0.558300	0.711400
C341	C34	0.443700	0.473000	0.670300
H191	H19	0.402500	0.451900	0.628900
C351	C35	0.417700	0.629900	0.842400
O201	O20	0.332600	0.665100	0.821050
C361	C36	0.768600	0.257600	0.361900
H201	H20	0.703900	0.233400	0.343300
H211	H21	0.826600	0.225700	0.341100
H221	H22	0.773600	0.315100	0.344000
Mn51	Mn5	0.268800	0.257360	0.389130
Mn61	Mn6	0.520820	0.235530	0.499840
O211	O21	0.349000	0.216140	0.509860
O221	O22	0.387900	0.207900	0.316880
O231	O23	0.511100	0.153070	0.397200
O241	O24	0.638300	0.872460	0.090330
O251	O25	0.467400	0.843180	0.081690
O261	O26	0.018800	0.170220	0.408600
O271	O27	0.180800	0.145400	0.364900
O281	O28	0.965000	0.859790	0.093790
C371	C37	0.271100	0.244700	0.547500
O291	O29	0.193900	0.274780	0.509550
C381	C38	0.459900	0.155300	0.334400
C391	C39	0.482200	0.088100	0.271500
C401	C40	0.541300	0.885000	0.107800
C411	C41	0.520500	0.957800	0.163800
C421	C42	0.429100	0.005600	0.156900
H231	H23	0.379800	0.993300	0.117500
C431	C43	0.412700	0.072300	0.210200
H241	H24	0.353900	0.106700	0.204300
C441	C44	0.572600	0.039700	0.278500
H251	H25	0.620300	0.050200	0.319500
C451	C45	0.591000	0.975700	0.223900
H261	H26	0.652400	0.944100	0.227800
C461	C46	0.085300	0.130300	0.368500
C471	C47	0.043900	0.058300	0.317400
C481	C48	0.105100	0.025300	0.256400
H271	H27	0.173400	0.044800	0.249400
C491	C49	0.065800	0.963400	0.205600
H281	H28	0.107200	0.942300	0.164400
C501	C50	0.964000	0.933100	0.216600
C511	C51	0.904500	0.963600	0.279500
H291	H29	0.837800	0.941700	0.288600
C521	C52	0.943700	0.027000	0.329700
H301	H30	0.902500	0.048100	0.371100
C531	C53	0.917700	0.870100	0.157600
O301	O30	0.832600	0.834900	0.178950
C541	C54	0.268600	0.242400	0.638100
H311	H31	0.203900	0.266600	0.656700
H321	H32	0.326600	0.274300	0.658900
H331	H33	0.273600	0.184900	0.656000
Mn71	Mn7	0.231200	0.742640	0.889130
Mn81	Mn8	0.979180	0.764470	0.999840
O311	O31	0.151000	0.783860	0.009860
O321	O32	0.112100	0.792100	0.816880
O331	O33	0.988900	0.846930	0.897200
O341	O34	0.861700	0.127540	0.590330
O351	O35	0.032600	0.156820	0.581690
O361	O36	0.481200	0.829780	0.908600
O371	O37	0.319200	0.854600	0.864900
O381	O38	0.535000	0.140210	0.593790
C551	C55	0.228900	0.755300	0.047500
O391	O39	0.306100	0.725220	0.009550
C561	C56	0.040100	0.844700	0.834400
C571	C57	0.017800	0.911900	0.771500
C581	C58	0.958700	0.115000	0.607800
C591	C59	0.979500	0.042200	0.663800
C601	C60	0.070900	0.994400	0.656900
H341	H34	0.120200	0.006700	0.617500
C611	C61	0.087300	0.927700	0.710200
H351	H35	0.146100	0.893300	0.704300
C621	C62	0.927400	0.960300	0.778500
H361	H36	0.879700	0.949800	0.819500
C631	C63	0.909000	0.024300	0.723900
H371	H37	0.847600	0.055900	0.727800
C641	C64	0.414700	0.869700	0.868500
C651	C65	0.456100	0.941700	0.817400
C661	C66	0.394900	0.974700	0.756400
H381	H38	0.326600	0.955200	0.749400
C671	C67	0.434200	0.036600	0.705600
H391	H39	0.392800	0.057700	0.664400
C681	C68	0.536000	0.066900	0.716600
C691	C69	0.595500	0.036400	0.779500
H401	H40	0.662200	0.058300	0.788600
C701	C70	0.556300	0.973000	0.829700
H411	H41	0.597500	0.951900	0.871100
C711	C71	0.582300	0.129900	0.657600
O401	O40	0.667400	0.165100	0.678950
C721	C72	0.231400	0.757600	0.138100
H421	H42	0.296100	0.733400	0.156700
H431	H43	0.173400	0.725700	0.158900
H441	H44	0.226400	0.815100	0.156000
