data_SANHOH_clean_PM
_symmetry_space_group_name_H-M	'P1'
_cell_length_a	18.378000
_cell_length_b	11.414600
_cell_length_c	18.873600
_cell_angle_alpha	90.000000
_cell_angle_beta	108.426000
_cell_angle_gamma	90.000000
_symmetry_Int_Tables_number 1

loop_
_symmetry_equiv_pos_as_xyz
'x,y,z'

loop_
_atom_site_label
_atom_site_type_symbol
_atom_site_fract_x
_atom_site_fract_y
_atom_site_fract_z
Dy11	Dy1	0.000900	0.934490	0.397950
O11	O1	0.923300	0.100400	0.388200
O21	O2	0.903400	0.811400	0.418200
O31	O3	0.587300	0.476400	0.335800
O41	O4	0.921000	0.928500	0.514100
O51	O5	0.924500	0.173400	0.498100
O61	O6	0.589100	0.428800	0.221900
N11	N1	0.833000	0.208800	0.261300
C11	C1	0.897600	0.167100	0.427900
C21	C2	0.830600	0.244600	0.390200
C31	C3	0.800700	0.255600	0.310900
C41	C4	0.732500	0.318800	0.280900
H11	H1	0.711700	0.327300	0.228300
C51	C5	0.793400	0.300000	0.434400
H21	H2	0.814600	0.295300	0.487200
C61	C6	0.726700	0.361600	0.403400
H31	H3	0.702300	0.399000	0.434800
C71	C7	0.884300	0.848300	0.473000
C81	C8	0.815000	0.795400	0.486900
C91	C9	0.775600	0.701100	0.443400
C101	C10	0.790000	0.841200	0.543400
H41	H4	0.818300	0.902800	0.573600
C111	C11	0.618800	0.429100	0.291800
C121	C12	0.694800	0.369200	0.326100
N21	N2	0.797000	0.647700	0.388500
Dy21	Dy2	0.500900	0.434490	0.397950
O71	O7	0.423300	0.600400	0.388200
O81	O8	0.403400	0.311400	0.418200
O91	O9	0.087300	0.976400	0.335800
O101	O10	0.421000	0.428500	0.514100
O111	O11	0.424500	0.673400	0.498100
O121	O12	0.089100	0.928800	0.221900
N31	N3	0.333000	0.708800	0.261300
C131	C13	0.397600	0.667100	0.427900
C141	C14	0.330600	0.744600	0.390200
C151	C15	0.300700	0.755600	0.310900
C161	C16	0.232500	0.818800	0.280900
H51	H5	0.211700	0.827300	0.228300
C171	C17	0.293400	0.800000	0.434400
H61	H6	0.314600	0.795300	0.487200
C181	C18	0.226700	0.861600	0.403400
H71	H7	0.202300	0.899000	0.434800
C191	C19	0.384300	0.348300	0.473000
C201	C20	0.315000	0.295400	0.486900
C211	C21	0.275600	0.201100	0.443400
C221	C22	0.290000	0.341200	0.543400
H81	H8	0.318300	0.402800	0.573600
C231	C23	0.118800	0.929100	0.291800
C241	C24	0.194800	0.869200	0.326100
N41	N4	0.297000	0.147700	0.388500
Dy31	Dy3	0.999100	0.934490	0.102050
O131	O13	0.076700	0.100400	0.111800
O141	O14	0.096600	0.811400	0.081800
O151	O15	0.412700	0.476400	0.164200
O161	O16	0.079000	0.928500	0.985900
O171	O17	0.075500	0.173400	0.001900
O181	O18	0.410900	0.428800	0.278100
N51	N5	0.167000	0.208800	0.238700
C251	C25	0.102400	0.167100	0.072100
C261	C26	0.169400	0.244600	0.109800
C271	C27	0.199300	0.255600	0.189100
C281	C28	0.267500	0.318800	0.219100
H91	H9	0.288300	0.327300	0.271700
C291	C29	0.206600	0.300000	0.065600
H101	H10	0.185400	0.295300	0.012800
C301	C30	0.273300	0.361600	0.096600
H111	H11	0.297700	0.399000	0.065200
C311	C31	0.115700	0.848300	0.027000
C321	C32	0.185000	0.795400	0.013100
C331	C33	0.224400	0.701100	0.056600
C341	C34	0.210000	0.841200	0.956600
H121	H12	0.181700	0.902800	0.926400
C351	C35	0.381200	0.429100	0.208200
C361	C36	0.305200	0.369200	0.173900
N61	N6	0.203000	0.647700	0.111500
Dy41	Dy4	0.499100	0.434490	0.102050
O191	O19	0.576700	0.600400	0.111800
O201	O20	0.596600	0.311400	0.081800
O211	O21	0.912700	0.976400	0.164200
O221	O22	0.579000	0.428500	0.985900
O231	O23	0.575500	0.673400	0.001900
O241	O24	0.910900	0.928800	0.278100
N71	N7	0.667000	0.708800	0.238700
C371	C37	0.602400	0.667100	0.072100
C381	C38	0.669400	0.744600	0.109800
C391	C39	0.699300	0.755600	0.189100
C401	C40	0.767500	0.818800	0.219100
H131	H13	0.788300	0.827300	0.271700
C411	C41	0.706600	0.800000	0.065600
H141	H14	0.685400	0.795300	0.012800
C421	C42	0.773300	0.861600	0.096600
H151	H15	0.797700	0.899000	0.065200
C431	C43	0.615700	0.348300	0.027000
C441	C44	0.685000	0.295400	0.013100
C451	C45	0.724400	0.201100	0.056600
C461	C46	0.710000	0.341200	0.956600
H161	H16	0.681700	0.402800	0.926400
C471	C47	0.881200	0.929100	0.208200
C481	C48	0.805200	0.869200	0.173900
N81	N8	0.703000	0.147700	0.111500
Dy51	Dy5	0.999100	0.065510	0.602050
O251	O25	0.076700	0.899600	0.611800
O261	O26	0.096600	0.188600	0.581800
O271	O27	0.412700	0.523600	0.664200
O281	O28	0.079000	0.071500	0.485900
O291	O29	0.075500	0.826600	0.501900
O301	O30	0.410900	0.571200	0.778100
N91	N9	0.167000	0.791200	0.738700
C491	C49	0.102400	0.832900	0.572100
C501	C50	0.169400	0.755400	0.609800
C511	C51	0.199300	0.744400	0.689100
C521	C52	0.267500	0.681200	0.719100
H171	H17	0.288300	0.672700	0.771700
C531	C53	0.206600	0.700000	0.565600
H181	H18	0.185400	0.704700	0.512800
C541	C54	0.273300	0.638400	0.596600
H191	H19	0.297700	0.601000	0.565200
C551	C55	0.115700	0.151700	0.527000
C561	C56	0.185000	0.204600	0.513100
C571	C57	0.224400	0.298900	0.556600
C581	C58	0.210000	0.158800	0.456600
H201	H20	0.181700	0.097200	0.426400
C591	C59	0.381200	0.570900	0.708200
C601	C60	0.305200	0.630800	0.673900
N101	N10	0.203000	0.352300	0.611500
Dy61	Dy6	0.499100	0.565510	0.602050
O311	O31	0.576700	0.399600	0.611800
O321	O32	0.596600	0.688600	0.581800
O331	O33	0.912700	0.023600	0.664200
O341	O34	0.579000	0.571500	0.485900
O351	O35	0.575500	0.326600	0.501900
O361	O36	0.910900	0.071200	0.778100
N111	N11	0.667000	0.291200	0.738700
C611	C61	0.602400	0.332900	0.572100
C621	C62	0.669400	0.255400	0.609800
C631	C63	0.699300	0.244400	0.689100
C641	C64	0.767500	0.181200	0.719100
H211	H21	0.788300	0.172700	0.771700
C651	C65	0.706600	0.200000	0.565600
H221	H22	0.685400	0.204700	0.512800
C661	C66	0.773300	0.138400	0.596600
H231	H23	0.797700	0.101000	0.565200
C671	C67	0.615700	0.651700	0.527000
C681	C68	0.685000	0.704600	0.513100
C691	C69	0.724400	0.798900	0.556600
C701	C70	0.710000	0.658800	0.456600
H241	H24	0.681700	0.597200	0.426400
C711	C71	0.881200	0.070900	0.708200
C721	C72	0.805200	0.130800	0.673900
N121	N12	0.703000	0.852300	0.611500
Dy71	Dy7	0.000900	0.065510	0.897950
O371	O37	0.923300	0.899600	0.888200
O381	O38	0.903400	0.188600	0.918200
O391	O39	0.587300	0.523600	0.835800
O401	O40	0.921000	0.071500	0.014100
O411	O41	0.924500	0.826600	0.998100
O421	O42	0.589100	0.571200	0.721900
N131	N13	0.833000	0.791200	0.761300
C731	C73	0.897600	0.832900	0.927900
C741	C74	0.830600	0.755400	0.890200
C751	C75	0.800700	0.744400	0.810900
C761	C76	0.732500	0.681200	0.780900
H251	H25	0.711700	0.672700	0.728300
C771	C77	0.793400	0.700000	0.934400
H261	H26	0.814600	0.704700	0.987200
C781	C78	0.726700	0.638400	0.903400
H271	H27	0.702300	0.601000	0.934800
C791	C79	0.884300	0.151700	0.973000
C801	C80	0.815000	0.204600	0.986900
C811	C81	0.775600	0.298900	0.943400
C821	C82	0.790000	0.158800	0.043400
H281	H28	0.818300	0.097200	0.073600
C831	C83	0.618800	0.570900	0.791800
C841	C84	0.694800	0.630800	0.826100
N141	N14	0.797000	0.352300	0.888500
Dy81	Dy8	0.500900	0.565510	0.897950
O431	O43	0.423300	0.399600	0.888200
O441	O44	0.403400	0.688600	0.918200
O451	O45	0.087300	0.023600	0.835800
O461	O46	0.421000	0.571500	0.014100
O471	O47	0.424500	0.326600	0.998100
O481	O48	0.089100	0.071200	0.721900
N151	N15	0.333000	0.291200	0.761300
C851	C85	0.397600	0.332900	0.927900
C861	C86	0.330600	0.255400	0.890200
C871	C87	0.300700	0.244400	0.810900
C881	C88	0.232500	0.181200	0.780900
H291	H29	0.211700	0.172700	0.728300
C891	C89	0.293400	0.200000	0.934400
H301	H30	0.314600	0.204700	0.987200
C901	C90	0.226700	0.138400	0.903400
H311	H31	0.202300	0.101000	0.934800
C911	C91	0.384300	0.651700	0.973000
C921	C92	0.315000	0.704600	0.986900
C931	C93	0.275600	0.798900	0.943400
C941	C94	0.290000	0.658800	0.043400
H321	H32	0.318300	0.597200	0.073600
C951	C95	0.118800	0.070900	0.791800
C961	C96	0.194800	0.130800	0.826100
N161	N16	0.297000	0.852300	0.888500
