data_SANJAV_clean_PM
_symmetry_space_group_name_H-M	'P1'
_cell_length_a	18.188700
_cell_length_b	11.341600
_cell_length_c	18.683500
_cell_angle_alpha	90.000000
_cell_angle_beta	108.663000
_cell_angle_gamma	90.000000
_symmetry_Int_Tables_number 1

loop_
_symmetry_equiv_pos_as_xyz
'x,y,z'

loop_
_atom_site_label
_atom_site_type_symbol
_atom_site_fract_x
_atom_site_fract_y
_atom_site_fract_z
Y11	Y1	0.501240	0.067070	0.396110
O11	O1	0.911400	0.425700	0.778500
O21	O2	0.422000	0.067400	0.526700
O31	O3	0.579100	0.085100	0.612300
O41	O4	0.914600	0.470200	0.665300
O51	O5	0.574800	0.165900	0.499600
O61	O6	0.405800	0.171600	0.421500
C11	C1	0.698000	0.247900	0.689200
C21	C2	0.316600	0.201700	0.489800
C31	C3	0.706300	0.297600	0.564000
H11	H1	0.685000	0.294900	0.511700
C41	C4	0.773800	0.358900	0.596000
H21	H2	0.797900	0.398100	0.565800
C51	C5	0.806300	0.361700	0.675500
C61	C6	0.288400	0.160800	0.544800
H31	H3	0.315000	0.100200	0.575900
C71	C7	0.667800	0.237300	0.609700
C81	C8	0.222300	0.205100	0.556500
C91	C9	0.385300	0.143700	0.478400
C101	C10	0.602300	0.158600	0.571000
C111	C11	0.768600	0.316000	0.719600
H41	H4	0.788200	0.328300	0.771400
C121	C12	0.885400	0.425000	0.709200
N11	N1	0.665500	0.202000	0.738400
H51	H5	0.685800	0.133000	0.753100
H61	H6	0.673600	0.246400	0.777800
N21	N2	0.197000	0.165000	0.613000
H71	H7	0.235400	0.144600	0.654000
H81	H8	0.167100	0.215600	0.629200
Y21	Y2	0.001240	0.567070	0.396110
O71	O7	0.411400	0.925700	0.778500
O81	O8	0.922000	0.567400	0.526700
O91	O9	0.079100	0.585100	0.612300
O101	O10	0.414600	0.970200	0.665300
O111	O11	0.074800	0.665900	0.499600
O121	O12	0.905800	0.671600	0.421500
C131	C13	0.198000	0.747900	0.689200
C141	C14	0.816600	0.701700	0.489800
C151	C15	0.206300	0.797600	0.564000
H91	H9	0.185000	0.794900	0.511700
C161	C16	0.273800	0.858900	0.596000
H101	H10	0.297900	0.898100	0.565800
C171	C17	0.306300	0.861700	0.675500
C181	C18	0.788400	0.660800	0.544800
H111	H11	0.815000	0.600200	0.575900
C191	C19	0.167800	0.737300	0.609700
C201	C20	0.722300	0.705100	0.556500
C211	C21	0.885300	0.643700	0.478400
C221	C22	0.102300	0.658600	0.571000
C231	C23	0.268600	0.816000	0.719600
H121	H12	0.288200	0.828300	0.771400
C241	C24	0.385400	0.925000	0.709200
N31	N3	0.165500	0.702000	0.738400
H131	H13	0.185800	0.633000	0.753100
H141	H14	0.173600	0.746400	0.777800
N41	N4	0.697000	0.665000	0.613000
H151	H15	0.735400	0.644600	0.654000
H161	H16	0.667100	0.715600	0.629200
Y31	Y3	0.498760	0.067070	0.103890
O131	O13	0.088600	0.425700	0.721500
O141	O14	0.578000	0.067400	0.973300
O151	O15	0.420900	0.085100	0.887700
O161	O16	0.085400	0.470200	0.834700
O171	O17	0.425200	0.165900	0.000400
O181	O18	0.594200	0.171600	0.078500
C251	C25	0.302000	0.247900	0.810800
C261	C26	0.683400	0.201700	0.010200
C271	C27	0.293700	0.297600	0.936000
H171	H17	0.315000	0.294900	0.988300
C281	C28	0.226200	0.358900	0.904000
H181	H18	0.202100	0.398100	0.934200
C291	C29	0.193700	0.361700	0.824500
C301	C30	0.711600	0.160800	0.955200
H191	H19	0.685000	0.100200	0.924100
C311	C31	0.332200	0.237300	0.890300
C321	C32	0.777700	0.205100	0.943500
C331	C33	0.614700	0.143700	0.021600
C341	C34	0.397700	0.158600	0.929000
C351	C35	0.231400	0.316000	0.780400
H201	H20	0.211800	0.328300	0.728600
C361	C36	0.114600	0.425000	0.790800
N51	N5	0.334500	0.202000	0.761600
H211	H21	0.314200	0.133000	0.746900
H221	H22	0.326400	0.246400	0.722200
N61	N6	0.803000	0.165000	0.887000
H231	H23	0.764600	0.144600	0.846000
H241	H24	0.832900	0.215600	0.870800
Y41	Y4	0.998760	0.567070	0.103890
O191	O19	0.588600	0.925700	0.721500
O201	O20	0.078000	0.567400	0.973300
O211	O21	0.920900	0.585100	0.887700
O221	O22	0.585400	0.970200	0.834700
O231	O23	0.925200	0.665900	0.000400
O241	O24	0.094200	0.671600	0.078500
C371	C37	0.802000	0.747900	0.810800
C381	C38	0.183400	0.701700	0.010200
C391	C39	0.793700	0.797600	0.936000
H251	H25	0.815000	0.794900	0.988300
C401	C40	0.726200	0.858900	0.904000
H261	H26	0.702100	0.898100	0.934200
C411	C41	0.693700	0.861700	0.824500
C421	C42	0.211600	0.660800	0.955200
H271	H27	0.185000	0.600200	0.924100
C431	C43	0.832200	0.737300	0.890300
C441	C44	0.277700	0.705100	0.943500
C451	C45	0.114700	0.643700	0.021600
C461	C46	0.897700	0.658600	0.929000
C471	C47	0.731400	0.816000	0.780400
H281	H28	0.711800	0.828300	0.728600
C481	C48	0.614600	0.925000	0.790800
N71	N7	0.834500	0.702000	0.761600
H291	H29	0.814200	0.633000	0.746900
H301	H30	0.826400	0.746400	0.722200
N81	N8	0.303000	0.665000	0.887000
H311	H31	0.264600	0.644600	0.846000
H321	H32	0.332900	0.715600	0.870800
Y51	Y5	0.498760	0.932930	0.603890
O251	O25	0.088600	0.574300	0.221500
O261	O26	0.578000	0.932600	0.473300
O271	O27	0.420900	0.914900	0.387700
O281	O28	0.085400	0.529800	0.334700
O291	O29	0.425200	0.834100	0.500400
O301	O30	0.594200	0.828400	0.578500
C491	C49	0.302000	0.752100	0.310800
C501	C50	0.683400	0.798300	0.510200
C511	C51	0.293700	0.702400	0.436000
H331	H33	0.315000	0.705100	0.488300
C521	C52	0.226200	0.641100	0.404000
H341	H34	0.202100	0.601900	0.434200
C531	C53	0.193700	0.638300	0.324500
C541	C54	0.711600	0.839200	0.455200
H351	H35	0.685000	0.899800	0.424100
C551	C55	0.332200	0.762700	0.390300
C561	C56	0.777700	0.794900	0.443500
C571	C57	0.614700	0.856300	0.521600
C581	C58	0.397700	0.841400	0.429000
C591	C59	0.231400	0.684000	0.280400
H361	H36	0.211800	0.671700	0.228600
C601	C60	0.114600	0.575000	0.290800
N91	N9	0.334500	0.798000	0.261600
H371	H37	0.314200	0.867000	0.246900
H381	H38	0.326400	0.753600	0.222200
N101	N10	0.803000	0.835000	0.387000
H391	H39	0.764600	0.855400	0.346000
H401	H40	0.832900	0.784400	0.370800
Y61	Y6	0.998760	0.432930	0.603890
O311	O31	0.588600	0.074300	0.221500
O321	O32	0.078000	0.432600	0.473300
O331	O33	0.920900	0.414900	0.387700
O341	O34	0.585400	0.029800	0.334700
O351	O35	0.925200	0.334100	0.500400
O361	O36	0.094200	0.328400	0.578500
C611	C61	0.802000	0.252100	0.310800
C621	C62	0.183400	0.298300	0.510200
C631	C63	0.793700	0.202400	0.436000
H411	H41	0.815000	0.205100	0.488300
C641	C64	0.726200	0.141100	0.404000
H421	H42	0.702100	0.101900	0.434200
C651	C65	0.693700	0.138300	0.324500
C661	C66	0.211600	0.339200	0.455200
H431	H43	0.185000	0.399800	0.424100
C671	C67	0.832200	0.262700	0.390300
C681	C68	0.277700	0.294900	0.443500
C691	C69	0.114700	0.356300	0.521600
C701	C70	0.897700	0.341400	0.429000
C711	C71	0.731400	0.184000	0.280400
H441	H44	0.711800	0.171700	0.228600
C721	C72	0.614600	0.075000	0.290800
N111	N11	0.834500	0.298000	0.261600
H451	H45	0.814200	0.367000	0.246900
H461	H46	0.826400	0.253600	0.222200
N121	N12	0.303000	0.335000	0.387000
H471	H47	0.264600	0.355400	0.346000
H481	H48	0.332900	0.284400	0.370800
Y71	Y7	0.501240	0.932930	0.896110
O371	O37	0.911400	0.574300	0.278500
O381	O38	0.422000	0.932600	0.026700
O391	O39	0.579100	0.914900	0.112300
O401	O40	0.914600	0.529800	0.165300
O411	O41	0.574800	0.834100	0.999600
O421	O42	0.405800	0.828400	0.921500
C731	C73	0.698000	0.752100	0.189200
C741	C74	0.316600	0.798300	0.989800
C751	C75	0.706300	0.702400	0.064000
H491	H49	0.685000	0.705100	0.011700
C761	C76	0.773800	0.641100	0.096000
H501	H50	0.797900	0.601900	0.065800
C771	C77	0.806300	0.638300	0.175500
C781	C78	0.288400	0.839200	0.044800
H511	H51	0.315000	0.899800	0.075900
C791	C79	0.667800	0.762700	0.109700
C801	C80	0.222300	0.794900	0.056500
C811	C81	0.385300	0.856300	0.978400
C821	C82	0.602300	0.841400	0.071000
C831	C83	0.768600	0.684000	0.219600
H521	H52	0.788200	0.671700	0.271400
C841	C84	0.885400	0.575000	0.209200
N131	N13	0.665500	0.798000	0.238400
H531	H53	0.685800	0.867000	0.253100
H541	H54	0.673600	0.753600	0.277800
N141	N14	0.197000	0.835000	0.113000
H551	H55	0.235400	0.855400	0.154000
H561	H56	0.167100	0.784400	0.129200
Y81	Y8	0.001240	0.432930	0.896110
O431	O43	0.411400	0.074300	0.278500
O441	O44	0.922000	0.432600	0.026700
O451	O45	0.079100	0.414900	0.112300
O461	O46	0.414600	0.029800	0.165300
O471	O47	0.074800	0.334100	0.999600
O481	O48	0.905800	0.328400	0.921500
C851	C85	0.198000	0.252100	0.189200
C861	C86	0.816600	0.298300	0.989800
C871	C87	0.206300	0.202400	0.064000
H571	H57	0.185000	0.205100	0.011700
C881	C88	0.273800	0.141100	0.096000
H581	H58	0.297900	0.101900	0.065800
C891	C89	0.306300	0.138300	0.175500
C901	C90	0.788400	0.339200	0.044800
H591	H59	0.815000	0.399800	0.075900
C911	C91	0.167800	0.262700	0.109700
C921	C92	0.722300	0.294900	0.056500
C931	C93	0.885300	0.356300	0.978400
C941	C94	0.102300	0.341400	0.071000
C951	C95	0.268600	0.184000	0.219600
H601	H60	0.288200	0.171700	0.271400
C961	C96	0.385400	0.075000	0.209200
N151	N15	0.165500	0.298000	0.238400
H611	H61	0.185800	0.367000	0.253100
H621	H62	0.173600	0.253600	0.277800
N161	N16	0.697000	0.335000	0.113000
H631	H63	0.735400	0.355400	0.154000
H641	H64	0.667100	0.284400	0.129200
