data_SAPBAP_clean_PM
_symmetry_space_group_name_H-M	'P1'
_cell_length_a	7.284000
_cell_length_b	7.284000
_cell_length_c	8.208800
_cell_angle_alpha	90.000000
_cell_angle_beta	90.000000
_cell_angle_gamma	120.000000
_symmetry_Int_Tables_number 1

loop_
_symmetry_equiv_pos_as_xyz
'x,y,z'

loop_
_atom_site_label
_atom_site_type_symbol
_atom_site_fract_x
_atom_site_fract_y
_atom_site_fract_z
O11	O1	0.109570	0.689660	0.105910
O21	O2	0.310340	0.419910	0.105910
O31	O3	0.580090	0.890430	0.105910
O41	O4	0.890430	0.310340	0.605910
O51	O5	0.689660	0.580090	0.605910
O61	O6	0.419910	0.109570	0.605910
O71	O7	0.689660	0.109570	0.894090
O81	O8	0.419910	0.310340	0.894090
O91	O9	0.890430	0.580090	0.894090
O101	O10	0.310340	0.890430	0.394090
O111	O11	0.580090	0.689660	0.394090
O121	O12	0.109570	0.419910	0.394090
Mg11	Mg1	0.333330	0.666670	0.250000
Mg21	Mg2	0.666670	0.333330	0.750000
C11	C1	0.000000	0.560600	0.000000
H11	H1	0.000000	0.432900	0.000000
C21	C2	0.439400	0.439400	0.000000
H21	H2	0.567100	0.567100	0.000000
C31	C3	0.560600	0.000000	0.000000
H31	H3	0.432900	0.000000	0.000000
C41	C4	0.000000	0.439400	0.500000
H41	H4	0.000000	0.567100	0.500000
C51	C5	0.560600	0.560600	0.500000
H51	H5	0.432900	0.432900	0.500000
C61	C6	0.439400	0.000000	0.500000
H61	H6	0.567100	0.000000	0.500000
