data_SAPJEZ_clean_PM
_symmetry_space_group_name_H-M	'P1'
_cell_length_a	13.809000
_cell_length_b	13.809000
_cell_length_c	14.836000
_cell_angle_alpha	90.000000
_cell_angle_beta	90.000000
_cell_angle_gamma	120.000000
_symmetry_Int_Tables_number 1

loop_
_symmetry_equiv_pos_as_xyz
'x,y,z'

loop_
_atom_site_label
_atom_site_type_symbol
_atom_site_fract_x
_atom_site_fract_y
_atom_site_fract_z
Al11	Al1	0.996900	0.225600	0.103400
P11	P1	0.996500	0.224500	0.891200
O11	O1	0.996000	0.255100	0.990900
O21	O2	0.883800	0.122700	0.864600
O31	O3	0.089200	0.195600	0.872900
O41	O4	0.014000	0.323800	0.832200
Al21	Al2	0.663570	0.558930	0.436730
P21	P2	0.663170	0.557830	0.224530
O51	O5	0.662670	0.588430	0.324230
O61	O6	0.550470	0.456030	0.197930
O71	O7	0.755870	0.528930	0.206230
O81	O8	0.680670	0.657130	0.165530
Al31	Al3	0.330230	0.892270	0.770070
P31	P3	0.329830	0.891170	0.557870
O91	O9	0.329330	0.921770	0.657570
O101	O10	0.217130	0.789370	0.531270
O111	O11	0.422530	0.862270	0.539570
O121	O12	0.347330	0.990470	0.498870
Al41	Al4	0.774400	0.771300	0.103400
P41	P4	0.775500	0.772000	0.891200
O131	O13	0.744900	0.740900	0.990900
O141	O14	0.877300	0.761100	0.864600
O151	O15	0.804400	0.893600	0.872900
O161	O16	0.676200	0.690200	0.832200
Al51	Al5	0.441070	0.104630	0.436730
P51	P5	0.442170	0.105330	0.224530
O171	O17	0.411570	0.074230	0.324230
O181	O18	0.543970	0.094430	0.197930
O191	O19	0.471070	0.226930	0.206230
O201	O20	0.342870	0.023530	0.165530
Al61	Al6	0.107730	0.437970	0.770070
P61	P6	0.108830	0.438670	0.557870
O211	O21	0.078230	0.407570	0.657570
O221	O22	0.210630	0.427770	0.531270
O231	O23	0.137730	0.560270	0.539570
O241	O24	0.009530	0.356870	0.498870
Al71	Al7	0.228700	0.003100	0.103400
P71	P7	0.228000	0.003500	0.891200
O251	O25	0.259100	0.004000	0.990900
O261	O26	0.238900	0.116200	0.864600
O271	O27	0.106400	0.910800	0.872900
O281	O28	0.309800	0.986000	0.832200
Al81	Al8	0.895370	0.336430	0.436730
P81	P8	0.894670	0.336830	0.224530
O291	O29	0.925770	0.337330	0.324230
O301	O30	0.905570	0.449530	0.197930
O311	O31	0.773070	0.244130	0.206230
O321	O32	0.976470	0.319330	0.165530
Al91	Al9	0.562030	0.669770	0.770070
P91	P9	0.561330	0.670170	0.557870
O331	O33	0.592430	0.670670	0.657570
O341	O34	0.572230	0.782870	0.531270
O351	O35	0.439730	0.577470	0.539570
O361	O36	0.643130	0.652670	0.498870
Al101	Al10	0.003100	0.774400	0.896600
P101	P10	0.003500	0.775500	0.108800
O371	O37	0.004000	0.744900	0.009100
O381	O38	0.116200	0.877300	0.135400
O391	O39	0.910800	0.804400	0.127100
O401	O40	0.986000	0.676200	0.167800
Al111	Al11	0.669770	0.107730	0.229930
P111	P11	0.670170	0.108830	0.442130
O411	O41	0.670670	0.078230	0.342430
O421	O42	0.782870	0.210630	0.468730
O431	O43	0.577470	0.137730	0.460430
O441	O44	0.652670	0.009530	0.501130
Al121	Al12	0.336430	0.441070	0.563270
P121	P12	0.336830	0.442170	0.775470
O451	O45	0.337330	0.411570	0.675770
O461	O46	0.449530	0.543970	0.802070
O471	O47	0.244130	0.471070	0.793770
O481	O48	0.319330	0.342870	0.834470
Al131	Al13	0.225600	0.228700	0.896600
P131	P13	0.224500	0.228000	0.108800
O491	O49	0.255100	0.259100	0.009100
O501	O50	0.122700	0.238900	0.135400
O511	O51	0.195600	0.106400	0.127100
O521	O52	0.323800	0.309800	0.167800
Al141	Al14	0.892270	0.562030	0.229930
P141	P14	0.891170	0.561330	0.442130
O531	O53	0.921770	0.592430	0.342430
O541	O54	0.789370	0.572230	0.468730
O551	O55	0.862270	0.439730	0.460430
O561	O56	0.990470	0.643130	0.501130
Al151	Al15	0.558930	0.895370	0.563270
P151	P15	0.557830	0.894670	0.775470
O571	O57	0.588430	0.925770	0.675770
O581	O58	0.456030	0.905570	0.802070
O591	O59	0.528930	0.773070	0.793770
O601	O60	0.657130	0.976470	0.834470
Al161	Al16	0.771300	0.996900	0.896600
P161	P16	0.772000	0.996500	0.108800
O611	O61	0.740900	0.996000	0.009100
O621	O62	0.761100	0.883800	0.135400
O631	O63	0.893600	0.089200	0.127100
O641	O64	0.690200	0.014000	0.167800
Al171	Al17	0.437970	0.330230	0.229930
P171	P17	0.438670	0.329830	0.442130
O651	O65	0.407570	0.329330	0.342430
O661	O66	0.427770	0.217130	0.468730
O671	O67	0.560270	0.422530	0.460430
O681	O68	0.356870	0.347330	0.501130
Al181	Al18	0.104630	0.663570	0.563270
P181	P18	0.105330	0.663170	0.775470
O691	O69	0.074230	0.662670	0.675770
O701	O70	0.094430	0.550470	0.802070
O711	O71	0.226930	0.755870	0.793770
O721	O72	0.023530	0.680670	0.834470
