data_SAQQOR_clean_h_PM
_symmetry_space_group_name_H-M	'P1'
_cell_length_a	15.226500
_cell_length_b	15.226500
_cell_length_c	18.579900
_cell_angle_alpha	76.176500
_cell_angle_beta	76.176500
_cell_angle_gamma	68.377700
_symmetry_Int_Tables_number 1

loop_
_symmetry_equiv_pos_as_xyz
'x,y,z'

loop_
_atom_site_label
_atom_site_type_symbol
_atom_site_fract_x
_atom_site_fract_y
_atom_site_fract_z
Y11	Y1	0.461930	0.543570	0.104600
Y21	Y2	0.456430	0.538070	0.395400
Y31	Y3	0.538070	0.456430	0.895400
Y41	Y4	0.543570	0.461930	0.604600
C11	C1	0.476600	0.912200	0.807400
C21	C2	0.468900	0.963900	0.861100
C31	C3	0.465000	0.066200	0.841700
C41	C4	0.515200	0.097600	0.770200
C51	C5	0.515300	0.190500	0.752500
C61	C6	0.473600	0.253200	0.803600
C71	C7	0.425000	0.221800	0.872600
C81	C8	0.420800	0.130200	0.890300
C91	C9	0.482510	0.351110	0.785000
C101	C10	0.954300	0.495500	0.000300
C111	C11	0.876800	0.519000	0.058500
C121	C12	0.789900	0.509300	0.058200
C131	C13	0.775800	0.475000	0.002100
C141	C14	0.854700	0.444900	0.946000
C151	C15	0.939800	0.456600	0.945200
C161	C16	0.680500	0.468700	0.000200
C171	C17	0.466600	0.917800	0.935000
C181	C18	0.470700	0.823500	0.954900
C191	C19	0.480900	0.769700	0.900700
C201	C20	0.481900	0.816100	0.825300
C211	C21	0.508900	0.332300	0.079600
C221	C22	0.087800	0.523400	0.692600
C231	C23	0.036100	0.531100	0.638900
C241	C24	0.933800	0.535000	0.658300
C251	C25	0.902400	0.484800	0.729800
C261	C26	0.809500	0.484700	0.747500
C271	C27	0.746800	0.526400	0.696400
C281	C28	0.778200	0.575000	0.627400
C291	C29	0.869800	0.579200	0.609700
C301	C30	0.648890	0.517490	0.715000
C311	C31	0.504500	0.045700	0.499700
C321	C32	0.481000	0.123200	0.441500
C331	C33	0.490700	0.210100	0.441800
C341	C34	0.525000	0.224200	0.497900
C351	C35	0.555100	0.145300	0.554000
C361	C36	0.543400	0.060200	0.554800
C371	C37	0.531300	0.319500	0.499800
C381	C38	0.082200	0.533400	0.565000
C391	C39	0.176500	0.529300	0.545100
C401	C40	0.230300	0.519100	0.599300
C411	C41	0.183900	0.518100	0.674700
C421	C42	0.667700	0.491100	0.420400
C431	C43	0.523400	0.087800	0.192600
C441	C44	0.531100	0.036100	0.138900
C451	C45	0.535000	0.933800	0.158300
C461	C46	0.484800	0.902400	0.229800
C471	C47	0.484700	0.809500	0.247500
C481	C48	0.526400	0.746800	0.196400
C491	C49	0.575000	0.778200	0.127400
C501	C50	0.579200	0.869800	0.109700
C511	C51	0.517490	0.648890	0.215000
C521	C52	0.045700	0.504500	0.999700
C531	C53	0.123200	0.481000	0.941500
C541	C54	0.210100	0.490700	0.941800
C551	C55	0.224200	0.525000	0.997900
C561	C56	0.145300	0.555100	0.054000
C571	C57	0.060200	0.543400	0.054800
C581	C58	0.319500	0.531300	0.999800
C591	C59	0.533400	0.082200	0.065000
C601	C60	0.529300	0.176500	0.045100
C611	C61	0.519100	0.230300	0.099300
C621	C62	0.518100	0.183900	0.174700
C631	C63	0.491100	0.667700	0.920400
C641	C64	0.912200	0.476600	0.307400
C651	C65	0.963900	0.468900	0.361100
C661	C66	0.066200	0.465000	0.341700
C671	C67	0.097600	0.515200	0.270200
C681	C68	0.190500	0.515300	0.252500
C691	C69	0.253200	0.473600	0.303600
C701	C70	0.221800	0.425000	0.372600
C711	C71	0.130200	0.420800	0.390300
C721	C72	0.351110	0.482510	0.285000
C731	C73	0.495500	0.954300	0.500300
C741	C74	0.519000	0.876800	0.558500
C751	C75	0.509300	0.789900	0.558200
C761	C76	0.475000	0.775800	0.502100
C771	C77	0.444900	0.854700	0.446000
C781	C78	0.456600	0.939800	0.445200
C791	C79	0.468700	0.680500	0.500200
C801	C80	0.917800	0.466600	0.435000
C811	C81	0.823500	0.470700	0.454900
C821	C82	0.769700	0.480900	0.400700
C831	C83	0.816100	0.481900	0.325300
C841	C84	0.332300	0.508900	0.579600
O11	O1	0.491070	0.379270	0.130700
O21	O2	0.517610	0.377610	0.719300
O31	O3	0.621450	0.476450	0.058800
O41	O4	0.460340	0.397540	0.837600
O51	O5	0.484550	0.630150	0.988700
O61	O6	0.668280	0.455680	0.939100
O71	O7	0.620730	0.508930	0.369300
O81	O8	0.622390	0.482390	0.780700
O91	O9	0.523550	0.378550	0.441200
O101	O10	0.602460	0.539660	0.662400
O111	O11	0.369850	0.515450	0.511300
O121	O12	0.544320	0.331720	0.560900
O131	O13	0.508930	0.620730	0.869300
O141	O14	0.482390	0.622390	0.280700
O151	O15	0.378550	0.523550	0.941200
O161	O16	0.539660	0.602460	0.162400
O171	O17	0.515450	0.369850	0.011300
O181	O18	0.331720	0.544320	0.060900
O191	O19	0.379270	0.491070	0.630700
O201	O20	0.377610	0.517610	0.219300
O211	O21	0.476450	0.621450	0.558800
O221	O22	0.397540	0.460340	0.337600
O231	O23	0.630150	0.484550	0.488700
O241	O24	0.455680	0.668280	0.439100
H11	H1	0.478860	0.947530	0.745840
H21	H2	0.554480	0.045650	0.728720
H31	H3	0.550410	0.217820	0.694340
H41	H4	0.387890	0.272190	0.915460
H51	H5	0.379640	0.106070	0.946760
H61	H6	0.884240	0.546880	0.107720
H71	H7	0.727510	0.530310	0.105900
H81	H8	0.848400	0.410200	0.900310
H91	H9	0.002580	0.434140	0.898070
H101	H10	0.461180	0.958010	0.981230
H111	H11	0.465720	0.788390	0.016560
H121	H12	0.487000	0.775220	0.779610
H131	H13	0.052470	0.521140	0.754160
H141	H14	0.954350	0.445520	0.771280
H151	H15	0.782180	0.449590	0.805660
H161	H16	0.727810	0.612110	0.584540
H171	H17	0.891740	0.620920	0.552800
H181	H18	0.453120	0.115760	0.392280
H191	H19	0.469690	0.272490	0.394100
H201	H20	0.589800	0.151600	0.599690
H211	H21	0.565860	0.997420	0.601930
H221	H22	0.041990	0.538820	0.518770
H231	H23	0.211610	0.534280	0.483440
H241	H24	0.224030	0.513030	0.720880
H251	H25	0.521140	0.052470	0.254160
H261	H26	0.445520	0.954350	0.271280
H271	H27	0.449590	0.782180	0.305660
H281	H28	0.612110	0.727810	0.084540
H291	H29	0.620360	0.893930	0.053240
H301	H30	0.115760	0.453120	0.892280
H311	H31	0.272490	0.469690	0.894100
H321	H32	0.151600	0.589800	0.099690
H331	H33	0.999690	0.567000	0.103150
H341	H34	0.538820	0.041990	0.018770
H351	H35	0.534280	0.211610	0.983440
H361	H36	0.513030	0.224030	0.220880
H371	H37	0.947530	0.478860	0.245840
H381	H38	0.045650	0.554480	0.228720
H391	H39	0.217820	0.550410	0.194340
H401	H40	0.272190	0.387890	0.415460
H411	H41	0.108260	0.379080	0.447200
H421	H42	0.546880	0.884240	0.607720
H431	H43	0.530310	0.727510	0.605900
H441	H44	0.410200	0.848400	0.400310
H451	H45	0.433000	0.000310	0.396850
H461	H46	0.958010	0.461180	0.481230
H471	H47	0.788390	0.465720	0.516560
H481	H48	0.775970	0.486970	0.279120
