data_SAQSOU_clean_PM
_symmetry_space_group_name_H-M	'P1'
_cell_length_a	15.165000
_cell_length_b	26.907000
_cell_length_c	23.715000
_cell_angle_alpha	90.000000
_cell_angle_beta	106.910000
_cell_angle_gamma	90.000000
_symmetry_Int_Tables_number 1

loop_
_symmetry_equiv_pos_as_xyz
'x,y,z'

loop_
_atom_site_label
_atom_site_type_symbol
_atom_site_fract_x
_atom_site_fract_y
_atom_site_fract_z
W11	W1	0.368780	0.620420	0.543430
Cu11	Cu1	0.271670	0.550000	0.577220
Cu21	Cu2	0.260150	0.656490	0.605100
Cu31	Cu3	0.192310	0.623270	0.480640
S11	S1	0.283500	0.558220	0.487050
Cu41	Cu4	0.160790	0.768830	0.741640
S21	S2	0.371640	0.600230	0.638170
S31	S3	0.274510	0.688860	0.521670
Cu51	Cu5	0.135890	0.396610	0.634950
N11	N1	0.575600	0.585500	0.554000
N21	N2	0.485200	0.676700	0.585600
N31	N3	0.511600	0.642900	0.469500
N41	N4	0.492700	0.568500	0.557800
C11	C1	0.069300	0.619900	0.431000
N51	N5	0.216600	0.491800	0.598100
C21	C2	0.184500	0.456000	0.611400
N61	N6	0.418500	0.639500	0.464000
N71	N7	0.567500	0.676100	0.571200
N81	N8	0.241600	0.820800	0.784200
N91	N9	0.995000	0.613600	0.403300
N101	N10	0.197900	0.721800	0.692100
C31	C3	0.219000	0.695200	0.659100
C41	C4	0.642400	0.551300	0.573000
C51	C5	0.289300	0.850700	0.812500
C61	C6	0.601300	0.509300	0.587900
H11	H1	0.629900	0.479100	0.601100
C71	C7	0.509300	0.520800	0.579000
C81	C8	0.623900	0.712100	0.601500
C91	C9	0.523400	0.651600	0.416200
C101	C10	0.440400	0.486000	0.590000
H21	H2	0.414600	0.499900	0.618900
H31	H3	0.469700	0.454900	0.604100
H41	H4	0.392300	0.480500	0.553900
C111	C11	0.373800	0.647000	0.406700
C121	C12	0.437800	0.655400	0.376100
H51	H5	0.425100	0.662300	0.336100
C131	C13	0.493800	0.714500	0.624800
C141	C14	0.740800	0.558900	0.575000
H61	H6	0.745200	0.561700	0.535500
H71	H7	0.776800	0.531000	0.594200
H81	H8	0.763600	0.588700	0.596400
C151	C15	0.422900	0.730400	0.654400
H91	H9	0.371600	0.745500	0.625800
H101	H10	0.449900	0.754000	0.684900
H111	H11	0.402000	0.701900	0.671200
C161	C16	0.037300	0.768400	0.747900
B11	B1	0.584400	0.637600	0.528600
C171	C17	0.271800	0.649100	0.379600
H121	H12	0.246500	0.616300	0.378300
H131	H13	0.258300	0.662000	0.340200
H141	H14	0.245000	0.670300	0.402700
C181	C18	0.579100	0.735600	0.635200
H151	H15	0.602100	0.761700	0.661000
C191	C19	0.615800	0.659600	0.407200
H161	H16	0.642200	0.689800	0.426400
H171	H17	0.609200	0.662100	0.365800
H181	H18	0.655400	0.632200	0.423500
C201	C20	0.717900	0.721000	0.593800
H191	H19	0.738700	0.753700	0.607500
H201	H20	0.714500	0.718000	0.552900
H211	H21	0.760500	0.696800	0.616200
W21	W2	0.868780	0.120420	0.543430
Cu61	Cu6	0.771670	0.050000	0.577220
Cu71	Cu7	0.760150	0.156490	0.605100
Cu81	Cu8	0.692310	0.123270	0.480640
S41	S4	0.783500	0.058220	0.487050
Cu91	Cu9	0.660790	0.268830	0.741640
S51	S5	0.871640	0.100230	0.638170
S61	S6	0.774510	0.188860	0.521670
Cu101	Cu10	0.635890	0.896610	0.634950
N111	N11	0.075600	0.085500	0.554000
N121	N12	0.985200	0.176700	0.585600
N131	N13	0.011600	0.142900	0.469500
N141	N14	0.992700	0.068500	0.557800
C211	C21	0.569300	0.119900	0.431000
N151	N15	0.716600	0.991800	0.598100
C221	C22	0.684500	0.956000	0.611400
N161	N16	0.918500	0.139500	0.464000
N171	N17	0.067500	0.176100	0.571200
N181	N18	0.741600	0.320800	0.784200
N191	N19	0.495000	0.113600	0.403300
N201	N20	0.697900	0.221800	0.692100
C231	C23	0.719000	0.195200	0.659100
C241	C24	0.142400	0.051300	0.573000
C251	C25	0.789300	0.350700	0.812500
C261	C26	0.101300	0.009300	0.587900
H221	H22	0.129900	0.979100	0.601100
C271	C27	0.009300	0.020800	0.579000
C281	C28	0.123900	0.212100	0.601500
C291	C29	0.023400	0.151600	0.416200
C301	C30	0.940400	0.986000	0.590000
H231	H23	0.914600	0.999900	0.618900
H241	H24	0.969700	0.954900	0.604100
H251	H25	0.892300	0.980500	0.553900
C311	C31	0.873800	0.147000	0.406700
C321	C32	0.937800	0.155400	0.376100
H261	H26	0.925100	0.162300	0.336100
C331	C33	0.993800	0.214500	0.624800
C341	C34	0.240800	0.058900	0.575000
H271	H27	0.245200	0.061700	0.535500
H281	H28	0.276800	0.031000	0.594200
H291	H29	0.263600	0.088700	0.596400
C351	C35	0.922900	0.230400	0.654400
H301	H30	0.871600	0.245500	0.625800
H311	H31	0.949900	0.254000	0.684900
H321	H32	0.902000	0.201900	0.671200
C361	C36	0.537300	0.268400	0.747900
B21	B2	0.084400	0.137600	0.528600
C371	C37	0.771800	0.149100	0.379600
H331	H33	0.746500	0.116300	0.378300
H341	H34	0.758300	0.162000	0.340200
H351	H35	0.745000	0.170300	0.402700
C381	C38	0.079100	0.235600	0.635200
H361	H36	0.102100	0.261700	0.661000
C391	C39	0.115800	0.159600	0.407200
H371	H37	0.142200	0.189800	0.426400
H381	H38	0.109200	0.162100	0.365800
H391	H39	0.155400	0.132200	0.423500
C401	C40	0.217900	0.221000	0.593800
H401	H40	0.238700	0.253700	0.607500
H411	H41	0.214500	0.218000	0.552900
H421	H42	0.260500	0.196800	0.616200
W31	W3	0.631220	0.620420	0.956570
Cu111	Cu11	0.728330	0.550000	0.922780
Cu121	Cu12	0.739850	0.656490	0.894900
Cu131	Cu13	0.807690	0.623270	0.019360
S71	S7	0.716500	0.558220	0.012950
Cu141	Cu14	0.839210	0.768830	0.758360
S81	S8	0.628360	0.600230	0.861830
S91	S9	0.725490	0.688860	0.978330
Cu151	Cu15	0.864110	0.396610	0.865050
N211	N21	0.424400	0.585500	0.946000
N221	N22	0.514800	0.676700	0.914400
N231	N23	0.488400	0.642900	0.030500
N241	N24	0.507300	0.568500	0.942200
C411	C41	0.930700	0.619900	0.069000
N251	N25	0.783400	0.491800	0.901900
C421	C42	0.815500	0.456000	0.888600
N261	N26	0.581500	0.639500	0.036000
N271	N27	0.432500	0.676100	0.928800
N281	N28	0.758400	0.820800	0.715800
N291	N29	0.005000	0.613600	0.096700
N301	N30	0.802100	0.721800	0.807900
C431	C43	0.781000	0.695200	0.840900
C441	C44	0.357600	0.551300	0.927000
C451	C45	0.710700	0.850700	0.687500
C461	C46	0.398700	0.509300	0.912100
H431	H43	0.370100	0.479100	0.898900
C471	C47	0.490700	0.520800	0.921000
C481	C48	0.376100	0.712100	0.898500
C491	C49	0.476600	0.651600	0.083800
C501	C50	0.559600	0.486000	0.910000
H441	H44	0.585400	0.499900	0.881100
H451	H45	0.530300	0.454900	0.895900
H461	H46	0.607700	0.480500	0.946100
C511	C51	0.626200	0.647000	0.093300
C521	C52	0.562200	0.655400	0.123900
H471	H47	0.574900	0.662300	0.163900
C531	C53	0.506200	0.714500	0.875200
C541	C54	0.259200	0.558900	0.925000
H481	H48	0.254800	0.561700	0.964500
H491	H49	0.223200	0.531000	0.905800
H501	H50	0.236400	0.588700	0.903600
C551	C55	0.577100	0.730400	0.845600
H511	H51	0.628400	0.745500	0.874200
H521	H52	0.550100	0.754000	0.815100
H531	H53	0.598000	0.701900	0.828800
C561	C56	0.962700	0.768400	0.752100
B31	B3	0.415600	0.637600	0.971400
C571	C57	0.728200	0.649100	0.120400
H541	H54	0.753500	0.616300	0.121700
H551	H55	0.741700	0.662000	0.159800
H561	H56	0.755000	0.670300	0.097300
C581	C58	0.420900	0.735600	0.864800
H571	H57	0.397900	0.761700	0.839000
C591	C59	0.384200	0.659600	0.092800
H581	H58	0.357800	0.689800	0.073600
H591	H59	0.390800	0.662100	0.134200
H601	H60	0.344600	0.632200	0.076500
C601	C60	0.282100	0.721000	0.906200
H611	H61	0.261300	0.753700	0.892500
H621	H62	0.285500	0.718000	0.947100
H631	H63	0.239500	0.696800	0.883800
W41	W4	0.131220	0.120420	0.956570
Cu161	Cu16	0.228330	0.050000	0.922780
Cu171	Cu17	0.239850	0.156490	0.894900
Cu181	Cu18	0.307690	0.123270	0.019360
S101	S10	0.216500	0.058220	0.012950
Cu191	Cu19	0.339210	0.268830	0.758360
S111	S11	0.128360	0.100230	0.861830
S121	S12	0.225490	0.188860	0.978330
Cu201	Cu20	0.364110	0.896610	0.865050
N311	N31	0.924400	0.085500	0.946000
N321	N32	0.014800	0.176700	0.914400
N331	N33	0.988400	0.142900	0.030500
N341	N34	0.007300	0.068500	0.942200
C611	C61	0.430700	0.119900	0.069000
N351	N35	0.283400	0.991800	0.901900
C621	C62	0.315500	0.956000	0.888600
N361	N36	0.081500	0.139500	0.036000
N371	N37	0.932500	0.176100	0.928800
N381	N38	0.258400	0.320800	0.715800
N391	N39	0.505000	0.113600	0.096700
N401	N40	0.302100	0.221800	0.807900
C631	C63	0.281000	0.195200	0.840900
C641	C64	0.857600	0.051300	0.927000
C651	C65	0.210700	0.350700	0.687500
C661	C66	0.898700	0.009300	0.912100
H641	H64	0.870100	0.979100	0.898900
C671	C67	0.990700	0.020800	0.921000
C681	C68	0.876100	0.212100	0.898500
C691	C69	0.976600	0.151600	0.083800
C701	C70	0.059600	0.986000	0.910000
H651	H65	0.085400	0.999900	0.881100
H661	H66	0.030300	0.954900	0.895900
H671	H67	0.107700	0.980500	0.946100
C711	C71	0.126200	0.147000	0.093300
C721	C72	0.062200	0.155400	0.123900
H681	H68	0.074900	0.162300	0.163900
C731	C73	0.006200	0.214500	0.875200
C741	C74	0.759200	0.058900	0.925000
H691	H69	0.754800	0.061700	0.964500
H701	H70	0.723200	0.031000	0.905800
H711	H71	0.736400	0.088700	0.903600
C751	C75	0.077100	0.230400	0.845600
H721	H72	0.128400	0.245500	0.874200
H731	H73	0.050100	0.254000	0.815100
H741	H74	0.098000	0.201900	0.828800
C761	C76	0.462700	0.268400	0.752100
B41	B4	0.915600	0.137600	0.971400
C771	C77	0.228200	0.149100	0.120400
H751	H75	0.253500	0.116300	0.121700
H761	H76	0.241700	0.162000	0.159800
H771	H77	0.255000	0.170300	0.097300
C781	C78	0.920900	0.235600	0.864800
H781	H78	0.897900	0.261700	0.839000
C791	C79	0.884200	0.159600	0.092800
H791	H79	0.857800	0.189800	0.073600
H801	H80	0.890800	0.162100	0.134200
H811	H81	0.844600	0.132200	0.076500
C801	C80	0.782100	0.221000	0.906200
H821	H82	0.761300	0.253700	0.892500
H831	H83	0.785500	0.218000	0.947100
H841	H84	0.739500	0.196800	0.883800
W51	W5	0.631220	0.379580	0.456570
Cu211	Cu21	0.728330	0.450000	0.422780
Cu221	Cu22	0.739850	0.343510	0.394900
Cu231	Cu23	0.807690	0.376730	0.519360
S131	S13	0.716500	0.441780	0.512950
Cu241	Cu24	0.839210	0.231170	0.258360
S141	S14	0.628360	0.399770	0.361830
S151	S15	0.725490	0.311140	0.478330
Cu251	Cu25	0.864110	0.603390	0.365050
N411	N41	0.424400	0.414500	0.446000
N421	N42	0.514800	0.323300	0.414400
N431	N43	0.488400	0.357100	0.530500
N441	N44	0.507300	0.431500	0.442200
C811	C81	0.930700	0.380100	0.569000
N451	N45	0.783400	0.508200	0.401900
C821	C82	0.815500	0.544000	0.388600
N461	N46	0.581500	0.360500	0.536000
N471	N47	0.432500	0.323900	0.428800
N481	N48	0.758400	0.179200	0.215800
N491	N49	0.005000	0.386400	0.596700
N501	N50	0.802100	0.278200	0.307900
C831	C83	0.781000	0.304800	0.340900
C841	C84	0.357600	0.448700	0.427000
C851	C85	0.710700	0.149300	0.187500
C861	C86	0.398700	0.490700	0.412100
H851	H85	0.370100	0.520900	0.398900
C871	C87	0.490700	0.479200	0.421000
C881	C88	0.376100	0.287900	0.398500
C891	C89	0.476600	0.348400	0.583800
C901	C90	0.559600	0.514000	0.410000
H861	H86	0.585400	0.500100	0.381100
H871	H87	0.530300	0.545100	0.395900
H881	H88	0.607700	0.519500	0.446100
C911	C91	0.626200	0.353000	0.593300
C921	C92	0.562200	0.344600	0.623900
H891	H89	0.574900	0.337700	0.663900
C931	C93	0.506200	0.285500	0.375200
C941	C94	0.259200	0.441100	0.425000
H901	H90	0.254800	0.438300	0.464500
H911	H91	0.223200	0.469000	0.405800
H921	H92	0.236400	0.411300	0.403600
C951	C95	0.577100	0.269600	0.345600
H931	H93	0.628400	0.254500	0.374200
H941	H94	0.550100	0.246000	0.315100
H951	H95	0.598000	0.298100	0.328800
C961	C96	0.962700	0.231600	0.252100
B51	B5	0.415600	0.362400	0.471400
C971	C97	0.728200	0.350900	0.620400
H961	H96	0.753500	0.383700	0.621700
H971	H97	0.741700	0.338000	0.659800
H981	H98	0.755000	0.329700	0.597300
C981	C98	0.420900	0.264400	0.364800
H991	H99	0.397900	0.238300	0.339000
C991	C99	0.384200	0.340400	0.592800
H1001	H100	0.357800	0.310200	0.573600
H1011	H101	0.390800	0.337900	0.634200
H1021	H102	0.344600	0.367800	0.576500
C1001	C100	0.282100	0.279000	0.406200
H1031	H103	0.261300	0.246300	0.392500
H1041	H104	0.285500	0.282000	0.447100
H1051	H105	0.239500	0.303200	0.383800
W61	W6	0.131220	0.879580	0.456570
Cu261	Cu26	0.228330	0.950000	0.422780
Cu271	Cu27	0.239850	0.843510	0.394900
Cu281	Cu28	0.307690	0.876730	0.519360
S161	S16	0.216500	0.941780	0.512950
Cu291	Cu29	0.339210	0.731170	0.258360
S171	S17	0.128360	0.899770	0.361830
S181	S18	0.225490	0.811140	0.478330
Cu301	Cu30	0.364110	0.103390	0.365050
N511	N51	0.924400	0.914500	0.446000
N521	N52	0.014800	0.823300	0.414400
N531	N53	0.988400	0.857100	0.530500
N541	N54	0.007300	0.931500	0.442200
C1011	C101	0.430700	0.880100	0.569000
N551	N55	0.283400	0.008200	0.401900
C1021	C102	0.315500	0.044000	0.388600
N561	N56	0.081500	0.860500	0.536000
N571	N57	0.932500	0.823900	0.428800
N581	N58	0.258400	0.679200	0.215800
N591	N59	0.505000	0.886400	0.596700
N601	N60	0.302100	0.778200	0.307900
C1031	C103	0.281000	0.804800	0.340900
C1041	C104	0.857600	0.948700	0.427000
C1051	C105	0.210700	0.649300	0.187500
C1061	C106	0.898700	0.990700	0.412100
H1061	H106	0.870100	0.020900	0.398900
C1071	C107	0.990700	0.979200	0.421000
C1081	C108	0.876100	0.787900	0.398500
C1091	C109	0.976600	0.848400	0.583800
C1101	C110	0.059600	0.014000	0.410000
H1071	H107	0.085400	0.000100	0.381100
H1081	H108	0.030300	0.045100	0.395900
H1091	H109	0.107700	0.019500	0.446100
C1111	C111	0.126200	0.853000	0.593300
C1121	C112	0.062200	0.844600	0.623900
H1101	H110	0.074900	0.837700	0.663900
C1131	C113	0.006200	0.785500	0.375200
C1141	C114	0.759200	0.941100	0.425000
H1111	H111	0.754800	0.938300	0.464500
H1121	H112	0.723200	0.969000	0.405800
H1131	H113	0.736400	0.911300	0.403600
C1151	C115	0.077100	0.769600	0.345600
H1141	H114	0.128400	0.754500	0.374200
H1151	H115	0.050100	0.746000	0.315100
H1161	H116	0.098000	0.798100	0.328800
C1161	C116	0.462700	0.731600	0.252100
B61	B6	0.915600	0.862400	0.471400
C1171	C117	0.228200	0.850900	0.620400
H1171	H117	0.253500	0.883700	0.621700
H1181	H118	0.241700	0.838000	0.659800
H1191	H119	0.255000	0.829700	0.597300
C1181	C118	0.920900	0.764400	0.364800
H1201	H120	0.897900	0.738300	0.339000
C1191	C119	0.884200	0.840400	0.592800
H1211	H121	0.857800	0.810200	0.573600
H1221	H122	0.890800	0.837900	0.634200
H1231	H123	0.844600	0.867800	0.576500
C1201	C120	0.782100	0.779000	0.406200
H1241	H124	0.761300	0.746300	0.392500
H1251	H125	0.785500	0.782000	0.447100
H1261	H126	0.739500	0.803200	0.383800
W71	W7	0.368780	0.379580	0.043430
Cu311	Cu31	0.271670	0.450000	0.077220
Cu321	Cu32	0.260150	0.343510	0.105100
Cu331	Cu33	0.192310	0.376730	0.980640
S191	S19	0.283500	0.441780	0.987050
Cu341	Cu34	0.160790	0.231170	0.241640
S201	S20	0.371640	0.399770	0.138170
S211	S21	0.274510	0.311140	0.021670
Cu351	Cu35	0.135890	0.603390	0.134950
N611	N61	0.575600	0.414500	0.054000
N621	N62	0.485200	0.323300	0.085600
N631	N63	0.511600	0.357100	0.969500
N641	N64	0.492700	0.431500	0.057800
C1211	C121	0.069300	0.380100	0.931000
N651	N65	0.216600	0.508200	0.098100
C1221	C122	0.184500	0.544000	0.111400
N661	N66	0.418500	0.360500	0.964000
N671	N67	0.567500	0.323900	0.071200
N681	N68	0.241600	0.179200	0.284200
N691	N69	0.995000	0.386400	0.903300
N701	N70	0.197900	0.278200	0.192100
C1231	C123	0.219000	0.304800	0.159100
C1241	C124	0.642400	0.448700	0.073000
C1251	C125	0.289300	0.149300	0.312500
C1261	C126	0.601300	0.490700	0.087900
H1271	H127	0.629900	0.520900	0.101100
C1271	C127	0.509300	0.479200	0.079000
C1281	C128	0.623900	0.287900	0.101500
C1291	C129	0.523400	0.348400	0.916200
C1301	C130	0.440400	0.514000	0.090000
H1281	H128	0.414600	0.500100	0.118900
H1291	H129	0.469700	0.545100	0.104100
H1301	H130	0.392300	0.519500	0.053900
C1311	C131	0.373800	0.353000	0.906700
C1321	C132	0.437800	0.344600	0.876100
H1311	H131	0.425100	0.337700	0.836100
C1331	C133	0.493800	0.285500	0.124800
C1341	C134	0.740800	0.441100	0.075000
H1321	H132	0.745200	0.438300	0.035500
H1331	H133	0.776800	0.469000	0.094200
H1341	H134	0.763600	0.411300	0.096400
C1351	C135	0.422900	0.269600	0.154400
H1351	H135	0.371600	0.254500	0.125800
H1361	H136	0.449900	0.246000	0.184900
H1371	H137	0.402000	0.298100	0.171200
C1361	C136	0.037300	0.231600	0.247900
B71	B7	0.584400	0.362400	0.028600
C1371	C137	0.271800	0.350900	0.879600
H1381	H138	0.246500	0.383700	0.878300
H1391	H139	0.258300	0.338000	0.840200
H1401	H140	0.245000	0.329700	0.902700
C1381	C138	0.579100	0.264400	0.135200
H1411	H141	0.602100	0.238300	0.161000
C1391	C139	0.615800	0.340400	0.907200
H1421	H142	0.642200	0.310200	0.926400
H1431	H143	0.609200	0.337900	0.865800
H1441	H144	0.655400	0.367800	0.923500
C1401	C140	0.717900	0.279000	0.093800
H1451	H145	0.738700	0.246300	0.107500
H1461	H146	0.714500	0.282000	0.052900
H1471	H147	0.760500	0.303200	0.116200
W81	W8	0.868780	0.879580	0.043430
Cu361	Cu36	0.771670	0.950000	0.077220
Cu371	Cu37	0.760150	0.843510	0.105100
Cu381	Cu38	0.692310	0.876730	0.980640
S221	S22	0.783500	0.941780	0.987050
Cu391	Cu39	0.660790	0.731170	0.241640
S231	S23	0.871640	0.899770	0.138170
S241	S24	0.774510	0.811140	0.021670
Cu401	Cu40	0.635890	0.103390	0.134950
N711	N71	0.075600	0.914500	0.054000
N721	N72	0.985200	0.823300	0.085600
N731	N73	0.011600	0.857100	0.969500
N741	N74	0.992700	0.931500	0.057800
C1411	C141	0.569300	0.880100	0.931000
N751	N75	0.716600	0.008200	0.098100
C1421	C142	0.684500	0.044000	0.111400
N761	N76	0.918500	0.860500	0.964000
N771	N77	0.067500	0.823900	0.071200
N781	N78	0.741600	0.679200	0.284200
N791	N79	0.495000	0.886400	0.903300
N801	N80	0.697900	0.778200	0.192100
C1431	C143	0.719000	0.804800	0.159100
C1441	C144	0.142400	0.948700	0.073000
C1451	C145	0.789300	0.649300	0.312500
C1461	C146	0.101300	0.990700	0.087900
H1481	H148	0.129900	0.020900	0.101100
C1471	C147	0.009300	0.979200	0.079000
C1481	C148	0.123900	0.787900	0.101500
C1491	C149	0.023400	0.848400	0.916200
C1501	C150	0.940400	0.014000	0.090000
H1491	H149	0.914600	0.000100	0.118900
H1501	H150	0.969700	0.045100	0.104100
H1511	H151	0.892300	0.019500	0.053900
C1511	C151	0.873800	0.853000	0.906700
C1521	C152	0.937800	0.844600	0.876100
H1521	H152	0.925100	0.837700	0.836100
C1531	C153	0.993800	0.785500	0.124800
C1541	C154	0.240800	0.941100	0.075000
H1531	H153	0.245200	0.938300	0.035500
H1541	H154	0.276800	0.969000	0.094200
H1551	H155	0.263600	0.911300	0.096400
C1551	C155	0.922900	0.769600	0.154400
H1561	H156	0.871600	0.754500	0.125800
H1571	H157	0.949900	0.746000	0.184900
H1581	H158	0.902000	0.798100	0.171200
C1561	C156	0.537300	0.731600	0.247900
B81	B8	0.084400	0.862400	0.028600
C1571	C157	0.771800	0.850900	0.879600
H1591	H159	0.746500	0.883700	0.878300
H1601	H160	0.758300	0.838000	0.840200
H1611	H161	0.745000	0.829700	0.902700
C1581	C158	0.079100	0.764400	0.135200
H1621	H162	0.102100	0.738300	0.161000
C1591	C159	0.115800	0.840400	0.907200
H1631	H163	0.142200	0.810200	0.926400
H1641	H164	0.109200	0.837900	0.865800
H1651	H165	0.155400	0.867800	0.923500
C1601	C160	0.217900	0.779000	0.093800
H1661	H166	0.238700	0.746300	0.107500
H1671	H167	0.214500	0.782000	0.052900
H1681	H168	0.260500	0.803200	0.116200
