data_SARGID_clean_PM
_symmetry_space_group_name_H-M	'P1'
_cell_length_a	25.920200
_cell_length_b	25.920200
_cell_length_c	6.950500
_cell_angle_alpha	90.000000
_cell_angle_beta	90.000000
_cell_angle_gamma	120.000000
_symmetry_Int_Tables_number 1

loop_
_symmetry_equiv_pos_as_xyz
'x,y,z'

loop_
_atom_site_label
_atom_site_type_symbol
_atom_site_fract_x
_atom_site_fract_y
_atom_site_fract_z
Fe11	Fe1	0.386170	0.351470	0.148500
O11	O1	0.318420	0.292220	0.347500
O21	O2	0.302580	0.226470	0.591500
O31	O3	0.352860	0.271090	0.009400
C11	C1	0.314090	0.245800	0.423300
C21	C2	0.327610	0.205930	0.282200
C31	C3	0.343500	0.221390	0.091200
C41	C4	0.315630	0.152320	0.360500
H11	H1	0.306300	0.142000	0.508400
Fe21	Fe2	0.052840	0.684800	0.481830
O41	O4	0.985090	0.625550	0.680830
O51	O5	0.969250	0.559800	0.924830
O61	O6	0.019530	0.604420	0.342730
C51	C5	0.980760	0.579130	0.756630
C61	C6	0.994280	0.539260	0.615530
C71	C7	0.010170	0.554720	0.424530
C81	C8	0.982300	0.485650	0.693830
H21	H2	0.972970	0.475330	0.841730
Fe31	Fe3	0.719500	0.018140	0.815170
O71	O7	0.651750	0.958890	0.014170
O81	O8	0.635910	0.893140	0.258170
O91	O9	0.686190	0.937760	0.676070
C91	C9	0.647420	0.912470	0.089970
C101	C10	0.660940	0.872600	0.948870
C111	C11	0.676830	0.888060	0.757870
C121	C12	0.648960	0.818990	0.027170
H31	H3	0.639630	0.808670	0.175070
Fe41	Fe4	0.648530	0.034700	0.148500
O101	O10	0.707780	0.026200	0.347500
O111	O11	0.773530	0.076110	0.591500
O121	O12	0.728910	0.081770	0.009400
C131	C13	0.754200	0.068290	0.423300
C141	C14	0.794070	0.121680	0.282200
C151	C15	0.778610	0.122110	0.091200
C161	C16	0.847680	0.163310	0.360500
H41	H4	0.858000	0.164300	0.508400
Fe51	Fe5	0.315200	0.368030	0.481830
O131	O13	0.374450	0.359530	0.680830
O141	O14	0.440200	0.409440	0.924830
O151	O15	0.395580	0.415100	0.342730
C171	C17	0.420870	0.401620	0.756630
C181	C18	0.460740	0.455010	0.615530
C191	C19	0.445280	0.455440	0.424530
C201	C20	0.514350	0.496640	0.693830
H51	H5	0.524670	0.497630	0.841730
Fe61	Fe6	0.981860	0.701370	0.815170
O161	O16	0.041110	0.692870	0.014170
O171	O17	0.106860	0.742780	0.258170
O181	O18	0.062240	0.748440	0.676070
C211	C21	0.087530	0.734960	0.089970
C221	C22	0.127400	0.788350	0.948870
C231	C23	0.111940	0.788780	0.757870
C241	C24	0.181010	0.829980	0.027170
H61	H6	0.191330	0.830970	0.175070
Fe71	Fe7	0.965300	0.613830	0.148500
O191	O19	0.973800	0.681580	0.347500
O201	O20	0.923890	0.697420	0.591500
O211	O21	0.918230	0.647140	0.009400
C251	C25	0.931710	0.685910	0.423300
C261	C26	0.878320	0.672390	0.282200
C271	C27	0.877890	0.656500	0.091200
C281	C28	0.836690	0.684370	0.360500
H71	H7	0.835700	0.693700	0.508400
Fe81	Fe8	0.631970	0.947160	0.481830
O221	O22	0.640470	0.014910	0.680830
O231	O23	0.590560	0.030750	0.924830
O241	O24	0.584900	0.980470	0.342730
C291	C29	0.598380	0.019240	0.756630
C301	C30	0.544990	0.005720	0.615530
C311	C31	0.544560	0.989830	0.424530
C321	C32	0.503360	0.017700	0.693830
H81	H8	0.502370	0.027030	0.841730
Fe91	Fe9	0.298630	0.280500	0.815170
O251	O25	0.307130	0.348250	0.014170
O261	O26	0.257220	0.364090	0.258170
O271	O27	0.251560	0.313810	0.676070
C331	C33	0.265040	0.352580	0.089970
C341	C34	0.211650	0.339060	0.948870
C351	C35	0.211220	0.323170	0.757870
C361	C36	0.170020	0.351040	0.027170
H91	H9	0.169030	0.360370	0.175070
Fe101	Fe10	0.613830	0.648530	0.851500
O281	O28	0.681580	0.707780	0.652500
O291	O29	0.697420	0.773530	0.408500
O301	O30	0.647140	0.728910	0.990600
C371	C37	0.685910	0.754200	0.576700
C381	C38	0.672390	0.794070	0.717800
C391	C39	0.656500	0.778610	0.908800
C401	C40	0.684370	0.847680	0.639500
H101	H10	0.693700	0.858000	0.491600
Fe111	Fe11	0.280500	0.981860	0.184830
O311	O31	0.348250	0.041110	0.985830
O321	O32	0.364090	0.106860	0.741830
O331	O33	0.313810	0.062240	0.323930
C411	C41	0.352580	0.087530	0.910030
C421	C42	0.339060	0.127400	0.051130
C431	C43	0.323170	0.111940	0.242130
C441	C44	0.351040	0.181010	0.972830
H111	H11	0.360370	0.191330	0.824930
Fe121	Fe12	0.947160	0.315200	0.518170
O341	O34	0.014910	0.374450	0.319170
O351	O35	0.030750	0.440200	0.075170
O361	O36	0.980470	0.395580	0.657270
C451	C45	0.019240	0.420870	0.243370
C461	C46	0.005720	0.460740	0.384470
C471	C47	0.989830	0.445280	0.575470
C481	C48	0.017700	0.514350	0.306170
H121	H12	0.027030	0.524670	0.158270
Fe131	Fe13	0.351470	0.965300	0.851500
O371	O37	0.292220	0.973800	0.652500
O381	O38	0.226470	0.923890	0.408500
O391	O39	0.271090	0.918230	0.990600
C491	C49	0.245800	0.931710	0.576700
C501	C50	0.205930	0.878320	0.717800
C511	C51	0.221390	0.877890	0.908800
C521	C52	0.152320	0.836690	0.639500
H131	H13	0.142000	0.835700	0.491600
Fe141	Fe14	0.018140	0.298630	0.184830
O401	O40	0.958890	0.307130	0.985830
O411	O41	0.893140	0.257220	0.741830
O421	O42	0.937760	0.251560	0.323930
C531	C53	0.912470	0.265040	0.910030
C541	C54	0.872600	0.211650	0.051130
C551	C55	0.888060	0.211220	0.242130
C561	C56	0.818990	0.170020	0.972830
H141	H14	0.808670	0.169030	0.824930
Fe151	Fe15	0.684800	0.631970	0.518170
O431	O43	0.625550	0.640470	0.319170
O441	O44	0.559800	0.590560	0.075170
O451	O45	0.604420	0.584900	0.657270
C571	C57	0.579130	0.598380	0.243370
C581	C58	0.539260	0.544990	0.384470
C591	C59	0.554720	0.544560	0.575470
C601	C60	0.485650	0.503360	0.306170
H151	H15	0.475330	0.502370	0.158270
Fe161	Fe16	0.034700	0.386170	0.851500
O461	O46	0.026200	0.318420	0.652500
O471	O47	0.076110	0.302580	0.408500
O481	O48	0.081770	0.352860	0.990600
C611	C61	0.068290	0.314090	0.576700
C621	C62	0.121680	0.327610	0.717800
C631	C63	0.122110	0.343500	0.908800
C641	C64	0.163310	0.315630	0.639500
H161	H16	0.164300	0.306300	0.491600
Fe171	Fe17	0.701370	0.719500	0.184830
O491	O49	0.692870	0.651750	0.985830
O501	O50	0.742780	0.635910	0.741830
O511	O51	0.748440	0.686190	0.323930
C651	C65	0.734960	0.647420	0.910030
C661	C66	0.788350	0.660940	0.051130
C671	C67	0.788780	0.676830	0.242130
C681	C68	0.829980	0.648960	0.972830
H171	H17	0.830970	0.639630	0.824930
Fe181	Fe18	0.368030	0.052840	0.518170
O521	O52	0.359530	0.985090	0.319170
O531	O53	0.409440	0.969250	0.075170
O541	O54	0.415100	0.019530	0.657270
C691	C69	0.401620	0.980760	0.243370
C701	C70	0.455010	0.994280	0.384470
C711	C71	0.455440	0.010170	0.575470
C721	C72	0.496640	0.982300	0.306170
H181	H18	0.497630	0.972970	0.158270
