data_SARGOJ_clean_PM
_symmetry_space_group_name_H-M	'P1'
_cell_length_a	25.878400
_cell_length_b	25.878400
_cell_length_c	6.966900
_cell_angle_alpha	90.000000
_cell_angle_beta	90.000000
_cell_angle_gamma	120.000000
_symmetry_Int_Tables_number 1

loop_
_symmetry_equiv_pos_as_xyz
'x,y,z'

loop_
_atom_site_label
_atom_site_type_symbol
_atom_site_fract_x
_atom_site_fract_y
_atom_site_fract_z
Fe11	Fe1	0.387700	0.352300	0.145000
O11	O1	0.318300	0.293900	0.348800
O21	O2	0.304400	0.227500	0.595200
O31	O3	0.355800	0.274800	0.006300
C11	C1	0.316700	0.247100	0.419300
C21	C2	0.325400	0.205500	0.283600
C31	C3	0.343100	0.224800	0.095400
C41	C4	0.317100	0.152000	0.349300
H11	H1	0.302100	0.138600	0.502000
Fe21	Fe2	0.054370	0.685630	0.478330
O41	O4	0.984970	0.627230	0.682130
O51	O5	0.971070	0.560830	0.928530
O61	O6	0.022470	0.608130	0.339630
C51	C5	0.983370	0.580430	0.752630
C61	C6	0.992070	0.538830	0.616930
C71	C7	0.009770	0.558130	0.428730
C81	C8	0.983770	0.485330	0.682630
H21	H2	0.968770	0.471930	0.835330
Fe31	Fe3	0.721030	0.018970	0.811670
O71	O7	0.651630	0.960570	0.015470
O81	O8	0.637730	0.894170	0.261870
O91	O9	0.689130	0.941470	0.672970
C91	C9	0.650030	0.913770	0.085970
C101	C10	0.658730	0.872170	0.950270
C111	C11	0.676430	0.891470	0.762070
C121	C12	0.650430	0.818670	0.015970
H31	H3	0.635430	0.805270	0.168670
Fe41	Fe4	0.647700	0.035400	0.145000
O101	O10	0.706100	0.024400	0.348800
O111	O11	0.772500	0.076900	0.595200
O121	O12	0.725200	0.081000	0.006300
C131	C13	0.752900	0.069600	0.419300
C141	C14	0.794500	0.119900	0.283600
C151	C15	0.775200	0.118300	0.095400
C161	C16	0.848000	0.165100	0.349300
H41	H4	0.861400	0.163500	0.502000
Fe51	Fe5	0.314370	0.368730	0.478330
O131	O13	0.372770	0.357730	0.682130
O141	O14	0.439170	0.410230	0.928530
O151	O15	0.391870	0.414330	0.339630
C171	C17	0.419570	0.402930	0.752630
C181	C18	0.461170	0.453230	0.616930
C191	C19	0.441870	0.451630	0.428730
C201	C20	0.514670	0.498430	0.682630
H51	H5	0.528070	0.496830	0.835330
Fe61	Fe6	0.981030	0.702070	0.811670
O161	O16	0.039430	0.691070	0.015470
O171	O17	0.105830	0.743570	0.261870
O181	O18	0.058530	0.747670	0.672970
C211	C21	0.086230	0.736270	0.085970
C221	C22	0.127830	0.786570	0.950270
C231	C23	0.108530	0.784970	0.762070
C241	C24	0.181330	0.831770	0.015970
H61	H6	0.194730	0.830170	0.168670
Fe71	Fe7	0.964600	0.612300	0.145000
O191	O19	0.975600	0.681700	0.348800
O201	O20	0.923100	0.695600	0.595200
O211	O21	0.919000	0.644200	0.006300
C251	C25	0.930400	0.683300	0.419300
C261	C26	0.880100	0.674600	0.283600
C271	C27	0.881700	0.656900	0.095400
C281	C28	0.834900	0.682900	0.349300
H71	H7	0.836500	0.697900	0.502000
Fe81	Fe8	0.631270	0.945630	0.478330
O221	O22	0.642270	0.015030	0.682130
O231	O23	0.589770	0.028930	0.928530
O241	O24	0.585670	0.977530	0.339630
C291	C29	0.597070	0.016630	0.752630
C301	C30	0.546770	0.007930	0.616930
C311	C31	0.548370	0.990230	0.428730
C321	C32	0.501570	0.016230	0.682630
H81	H8	0.503170	0.031230	0.835330
Fe91	Fe9	0.297930	0.278970	0.811670
O251	O25	0.308930	0.348370	0.015470
O261	O26	0.256430	0.362270	0.261870
O271	O27	0.252330	0.310870	0.672970
C331	C33	0.263730	0.349970	0.085970
C341	C34	0.213430	0.341270	0.950270
C351	C35	0.215030	0.323570	0.762070
C361	C36	0.168230	0.349570	0.015970
H91	H9	0.169830	0.364570	0.168670
Fe101	Fe10	0.612300	0.647700	0.855000
O281	O28	0.681700	0.706100	0.651200
O291	O29	0.695600	0.772500	0.404800
O301	O30	0.644200	0.725200	0.993700
C371	C37	0.683300	0.752900	0.580700
C381	C38	0.674600	0.794500	0.716400
C391	C39	0.656900	0.775200	0.904600
C401	C40	0.682900	0.848000	0.650700
H101	H10	0.697900	0.861400	0.498000
Fe111	Fe11	0.278970	0.981030	0.188330
O311	O31	0.348370	0.039430	0.984530
O321	O32	0.362270	0.105830	0.738130
O331	O33	0.310870	0.058530	0.327030
C411	C41	0.349970	0.086230	0.914030
C421	C42	0.341270	0.127830	0.049730
C431	C43	0.323570	0.108530	0.237930
C441	C44	0.349570	0.181330	0.984030
H111	H11	0.364570	0.194730	0.831330
Fe121	Fe12	0.945630	0.314370	0.521670
O341	O34	0.015030	0.372770	0.317870
O351	O35	0.028930	0.439170	0.071470
O361	O36	0.977530	0.391870	0.660370
C451	C45	0.016630	0.419570	0.247370
C461	C46	0.007930	0.461170	0.383070
C471	C47	0.990230	0.441870	0.571270
C481	C48	0.016230	0.514670	0.317370
H121	H12	0.031230	0.528070	0.164670
Fe131	Fe13	0.352300	0.964600	0.855000
O371	O37	0.293900	0.975600	0.651200
O381	O38	0.227500	0.923100	0.404800
O391	O39	0.274800	0.919000	0.993700
C491	C49	0.247100	0.930400	0.580700
C501	C50	0.205500	0.880100	0.716400
C511	C51	0.224800	0.881700	0.904600
C521	C52	0.152000	0.834900	0.650700
H131	H13	0.138600	0.836500	0.498000
Fe141	Fe14	0.018970	0.297930	0.188330
O401	O40	0.960570	0.308930	0.984530
O411	O41	0.894170	0.256430	0.738130
O421	O42	0.941470	0.252330	0.327030
C531	C53	0.913770	0.263730	0.914030
C541	C54	0.872170	0.213430	0.049730
C551	C55	0.891470	0.215030	0.237930
C561	C56	0.818670	0.168230	0.984030
H141	H14	0.805270	0.169830	0.831330
Fe151	Fe15	0.685630	0.631270	0.521670
O431	O43	0.627230	0.642270	0.317870
O441	O44	0.560830	0.589770	0.071470
O451	O45	0.608130	0.585670	0.660370
C571	C57	0.580430	0.597070	0.247370
C581	C58	0.538830	0.546770	0.383070
C591	C59	0.558130	0.548370	0.571270
C601	C60	0.485330	0.501570	0.317370
H151	H15	0.471930	0.503170	0.164670
Fe161	Fe16	0.035400	0.387700	0.855000
O461	O46	0.024400	0.318300	0.651200
O471	O47	0.076900	0.304400	0.404800
O481	O48	0.081000	0.355800	0.993700
C611	C61	0.069600	0.316700	0.580700
C621	C62	0.119900	0.325400	0.716400
C631	C63	0.118300	0.343100	0.904600
C641	C64	0.165100	0.317100	0.650700
H161	H16	0.163500	0.302100	0.498000
Fe171	Fe17	0.702070	0.721030	0.188330
O491	O49	0.691070	0.651630	0.984530
O501	O50	0.743570	0.637730	0.738130
O511	O51	0.747670	0.689130	0.327030
C651	C65	0.736270	0.650030	0.914030
C661	C66	0.786570	0.658730	0.049730
C671	C67	0.784970	0.676430	0.237930
C681	C68	0.831770	0.650430	0.984030
H171	H17	0.830170	0.635430	0.831330
Fe181	Fe18	0.368730	0.054370	0.521670
O521	O52	0.357730	0.984970	0.317870
O531	O53	0.410230	0.971070	0.071470
O541	O54	0.414330	0.022470	0.660370
C691	C69	0.402930	0.983370	0.247370
C701	C70	0.453230	0.992070	0.383070
C711	C71	0.451630	0.009770	0.571270
C721	C72	0.498430	0.983770	0.317370
H181	H18	0.496830	0.968770	0.164670
