data_SARHEA_clean_PM
_symmetry_space_group_name_H-M	'P1'
_cell_length_a	6.828200
_cell_length_b	15.209400
_cell_length_c	15.209400
_cell_angle_alpha	62.198600
_cell_angle_beta	81.393500
_cell_angle_gamma	98.606500
_symmetry_Int_Tables_number 1

loop_
_symmetry_equiv_pos_as_xyz
'x,y,z'

loop_
_atom_site_label
_atom_site_type_symbol
_atom_site_fract_x
_atom_site_fract_y
_atom_site_fract_z
Fe11	Fe1	0.886190	0.683440	0.588370
Fe21	Fe2	0.474560	0.588370	0.728190
Fe31	Fe3	0.202750	0.728190	0.683440
Fe41	Fe4	0.113810	0.316560	0.411630
Fe51	Fe5	0.525440	0.411630	0.271810
Fe61	Fe6	0.797250	0.271810	0.316560
H11	H1	0.670300	0.032000	0.532500
H21	H2	0.202800	0.532500	0.435500
H31	H3	0.638300	0.435500	0.032000
H41	H4	0.329700	0.968000	0.467500
H51	H5	0.797200	0.467500	0.564500
H61	H6	0.361700	0.564500	0.968000
C11	C1	0.655900	0.827000	0.610400
C21	C2	0.822580	0.917060	0.548120
C31	C3	0.028400	0.894900	0.537900
C41	C4	0.806700	0.012900	0.517600
C51	C5	0.266300	0.610400	0.562600
C61	C6	0.370700	0.548120	0.534820
C71	C7	0.566300	0.537900	0.567200
C81	C8	0.324300	0.517600	0.469500
C91	C9	0.828900	0.562600	0.827000
C101	C10	0.905520	0.534820	0.917060
C111	C11	0.133500	0.567200	0.894900
C121	C12	0.793800	0.469500	0.012900
C131	C13	0.344100	0.173000	0.389600
C141	C14	0.177420	0.082940	0.451880
C151	C15	0.971600	0.105100	0.462100
C161	C16	0.193300	0.987100	0.482400
C171	C17	0.733700	0.389600	0.437400
C181	C18	0.629300	0.451880	0.465180
C191	C19	0.433700	0.462100	0.432800
C201	C20	0.675700	0.482400	0.530500
C211	C21	0.171100	0.437400	0.173000
C221	C22	0.094480	0.465180	0.082940
C231	C23	0.866500	0.432800	0.105100
C241	C24	0.206200	0.530500	0.987100
O11	O1	0.682900	0.739000	0.638800
O21	O2	0.516100	0.863100	0.614700
O31	O3	0.070600	0.810300	0.576900
O41	O4	0.321700	0.638800	0.622200
O51	O5	0.130800	0.614700	0.522200
O61	O6	0.647500	0.576900	0.612800
O71	O7	0.943900	0.622200	0.739000
O81	O8	0.653000	0.522200	0.863100
O91	O9	0.260300	0.612800	0.810300
O101	O10	0.317100	0.261000	0.361200
O111	O11	0.483900	0.136900	0.385300
O121	O12	0.929400	0.189700	0.423100
O131	O13	0.678300	0.361200	0.377800
O141	O14	0.869200	0.385300	0.477800
O151	O15	0.352500	0.423100	0.387200
O161	O16	0.056100	0.377800	0.261000
O171	O17	0.347000	0.477800	0.136900
O181	O18	0.739700	0.387200	0.189700
