data_SASKIH_clean_PM
_symmetry_space_group_name_H-M	'P1'
_cell_length_a	12.305200
_cell_length_b	11.812400
_cell_length_c	12.687700
_cell_angle_alpha	90.000000
_cell_angle_beta	98.840000
_cell_angle_gamma	90.000000
_symmetry_Int_Tables_number 1

loop_
_symmetry_equiv_pos_as_xyz
'x,y,z'

loop_
_atom_site_label
_atom_site_type_symbol
_atom_site_fract_x
_atom_site_fract_y
_atom_site_fract_z
V11	V1	0.302040	0.201650	0.118040
V21	V2	0.263940	0.495960	0.208210
V31	V3	0.821400	0.244260	0.160860
P11	P1	0.324710	0.205500	0.864750
H11	H1	0.438000	0.192000	0.876000
P21	P2	0.569270	0.161040	0.133500
H21	H2	0.559000	0.094000	0.039000
P31	P3	0.232950	0.751750	0.099740
H31	H3	0.337000	0.800000	0.103000
P41	P4	0.059040	0.335610	0.112600
H41	H4	0.010000	0.352000	0.007000
O11	O1	0.140700	0.244900	0.095600
O21	O2	0.324300	0.404800	0.142400
O31	O3	0.302000	0.253100	0.968100
O41	O4	0.463200	0.222500	0.144900
O51	O5	0.303800	0.294000	0.777700
O61	O6	0.259900	0.097200	0.836600
O71	O7	0.110000	0.446900	0.155400
O81	O8	0.599500	0.074100	0.221800
O91	O9	0.243300	0.623500	0.105200
O101	O10	0.168500	0.784900	0.992600
O111	O11	0.978000	0.292600	0.183700
O121	O12	0.169500	0.612400	0.302500
O131	O13	0.180600	0.803000	0.190800
O141	O14	0.657900	0.249600	0.129000
V41	V4	0.697960	0.701650	0.381960
V51	V5	0.736060	0.995960	0.291790
V61	V6	0.178600	0.744260	0.339140
P51	P5	0.675290	0.705500	0.635250
H51	H5	0.562000	0.692000	0.624000
P61	P6	0.430730	0.661040	0.366500
H61	H6	0.441000	0.594000	0.461000
P71	P7	0.767050	0.251750	0.400260
H71	H7	0.663000	0.300000	0.397000
P81	P8	0.940960	0.835610	0.387400
H81	H8	0.990000	0.852000	0.493000
O151	O15	0.859300	0.744900	0.404400
O161	O16	0.675700	0.904800	0.357600
O171	O17	0.698000	0.753100	0.531900
O181	O18	0.536800	0.722500	0.355100
O191	O19	0.696200	0.794000	0.722300
O201	O20	0.740100	0.597200	0.663400
O211	O21	0.890000	0.946900	0.344600
O221	O22	0.400500	0.574100	0.278200
O231	O23	0.756700	0.123500	0.394800
O241	O24	0.831500	0.284900	0.507400
O251	O25	0.022000	0.792600	0.316300
O261	O26	0.830500	0.112400	0.197500
O271	O27	0.819400	0.303000	0.309200
O281	O28	0.342100	0.749600	0.371000
V71	V7	0.697960	0.798350	0.881960
V81	V8	0.736060	0.504040	0.791790
V91	V9	0.178600	0.755740	0.839140
P91	P9	0.675290	0.794500	0.135250
H91	H9	0.562000	0.808000	0.124000
P101	P10	0.430730	0.838960	0.866500
H101	H10	0.441000	0.906000	0.961000
P111	P11	0.767050	0.248250	0.900260
H111	H11	0.663000	0.200000	0.897000
P121	P12	0.940960	0.664390	0.887400
H121	H12	0.990000	0.648000	0.993000
O291	O29	0.859300	0.755100	0.904400
O301	O30	0.675700	0.595200	0.857600
O311	O31	0.698000	0.746900	0.031900
O321	O32	0.536800	0.777500	0.855100
O331	O33	0.696200	0.706000	0.222300
O341	O34	0.740100	0.902800	0.163400
O351	O35	0.890000	0.553100	0.844600
O361	O36	0.400500	0.925900	0.778200
O371	O37	0.756700	0.376500	0.894800
O381	O38	0.831500	0.215100	0.007400
O391	O39	0.022000	0.707400	0.816300
O401	O40	0.830500	0.387600	0.697500
O411	O41	0.819400	0.197000	0.809200
O421	O42	0.342100	0.750400	0.871000
V101	V10	0.302040	0.298350	0.618040
V111	V11	0.263940	0.004040	0.708210
V121	V12	0.821400	0.255740	0.660860
P131	P13	0.324710	0.294500	0.364750
H131	H13	0.438000	0.308000	0.376000
P141	P14	0.569270	0.338960	0.633500
H141	H14	0.559000	0.406000	0.539000
P151	P15	0.232950	0.748250	0.599740
H151	H15	0.337000	0.700000	0.603000
P161	P16	0.059040	0.164390	0.612600
H161	H16	0.010000	0.148000	0.507000
O431	O43	0.140700	0.255100	0.595600
O441	O44	0.324300	0.095200	0.642400
O451	O45	0.302000	0.246900	0.468100
O461	O46	0.463200	0.277500	0.644900
O471	O47	0.303800	0.206000	0.277700
O481	O48	0.259900	0.402800	0.336600
O491	O49	0.110000	0.053100	0.655400
O501	O50	0.599500	0.425900	0.721800
O511	O51	0.243300	0.876500	0.605200
O521	O52	0.168500	0.715100	0.492600
O531	O53	0.978000	0.207400	0.683700
O541	O54	0.169500	0.887600	0.802500
O551	O55	0.180600	0.697000	0.690800
O561	O56	0.657900	0.250400	0.629000
