data_SATCIB_clean_PM
_symmetry_space_group_name_H-M	'P1'
_cell_length_a	19.425600
_cell_length_b	21.194900
_cell_length_c	26.646800
_cell_angle_alpha	90.000000
_cell_angle_beta	90.000000
_cell_angle_gamma	90.000000
_symmetry_Int_Tables_number 1

loop_
_symmetry_equiv_pos_as_xyz
'x,y,z'

loop_
_atom_site_label
_atom_site_type_symbol
_atom_site_fract_x
_atom_site_fract_y
_atom_site_fract_z
C11	C1	0.672600	0.378400	0.668800
C21	C2	0.653800	0.333000	0.596900
C31	C3	0.581900	0.311700	0.662700
C41	C4	0.714700	0.418300	0.704400
C51	C5	0.696800	0.426600	0.753200
H11	H1	0.659900	0.404800	0.767200
C61	C6	0.734600	0.467900	0.780900
H21	H2	0.719800	0.474600	0.813700
C71	C7	0.808700	0.495300	0.717200
H31	H3	0.844700	0.519700	0.704800
C81	C8	0.771200	0.450700	0.682400
H41	H4	0.784200	0.444900	0.649100
C91	C9	0.662300	0.320800	0.542600
C101	C10	0.716900	0.358300	0.520300
H51	H5	0.740300	0.388300	0.539200
C111	C11	0.734000	0.348200	0.468200
H61	H6	0.768000	0.372600	0.453000
C121	C12	0.645500	0.270000	0.464400
H71	H7	0.615800	0.245400	0.445200
C131	C13	0.634200	0.273700	0.515600
H81	H8	0.607100	0.243500	0.531400
C141	C14	0.523200	0.278000	0.682400
C151	C15	0.493100	0.229500	0.657100
H91	H9	0.510700	0.217000	0.626200
C161	C16	0.435600	0.198200	0.677400
H101	H10	0.416200	0.164500	0.660100
C171	C17	0.439700	0.258600	0.747100
H111	H11	0.423700	0.268600	0.779000
C181	C18	0.495700	0.290300	0.731400
H121	H12	0.516400	0.320000	0.752200
C191	C19	0.944200	0.559800	0.022100
C201	C20	0.944900	0.522300	0.102200
C211	C21	0.020200	0.595800	0.076900
C221	C22	0.922200	0.559100	0.968300
C231	C23	0.956700	0.593500	0.930100
H131	H13	0.997000	0.615400	0.937300
C241	C24	0.930900	0.593800	0.884100
H141	H14	0.952000	0.619800	0.860600
C251	C25	0.845400	0.522700	0.904600
H151	H15	0.807900	0.498000	0.895400
C261	C26	0.867200	0.520000	0.954700
H161	H16	0.846100	0.493400	0.977900
C271	C27	0.911500	0.482900	0.138700
C281	C28	0.852900	0.442400	0.124700
H171	H17	0.832900	0.445700	0.093100
C291	C29	0.829600	0.402000	0.157400
H181	H18	0.793100	0.376200	0.148000
C301	C30	0.912600	0.434700	0.219400
H191	H19	0.929900	0.432300	0.251900
C311	C31	0.941800	0.475700	0.186800
H201	H20	0.980800	0.498500	0.195700
C321	C32	0.081200	0.636900	0.089200
C331	C33	0.117600	0.634500	0.137500
H211	H21	0.104200	0.606100	0.162300
C341	C34	0.167500	0.671700	0.144700
H221	H22	0.190100	0.668400	0.175400
C351	C35	0.155700	0.722000	0.071200
H231	H23	0.164900	0.756700	0.050900
C361	C36	0.103300	0.678300	0.055700
H241	H24	0.085600	0.679100	0.023300
Cu11	Cu1	0.829510	0.574190	0.801980
Cu21	Cu2	0.726910	0.277740	0.371610
I11	I1	0.848710	0.630360	0.600630
N11	N1	0.693300	0.371400	0.623500
N21	N2	0.596200	0.300100	0.615800
N31	N3	0.617000	0.349600	0.691200
N41	N4	0.790800	0.500300	0.766500
N51	N5	0.699100	0.301200	0.440100
N61	N6	0.406900	0.217600	0.724000
N71	N7	0.917500	0.520800	0.054400
N81	N8	0.996900	0.560100	0.114900
N91	N9	0.003000	0.596500	0.031200
N101	N10	0.875300	0.559100	0.868300
Cu31	Cu3	0.319850	0.173490	0.746190
N111	N11	0.856500	0.395300	0.206000
N121	N12	0.191400	0.715200	0.113100
Cu41	Cu4	0.838320	0.665350	0.683980
S11	S1	0.897190	0.637250	0.752540
S21	S2	0.243170	0.235660	0.787890
S31	S3	0.737950	0.638940	0.823760
S41	S4	0.648010	0.226100	0.324470
W11	W1	0.812940	0.697920	0.777360
C371	C37	0.827400	0.621600	0.168800
C381	C38	0.846200	0.667000	0.096900
C391	C39	0.918100	0.688300	0.162700
C401	C40	0.785300	0.581700	0.204400
C411	C41	0.803200	0.573400	0.253200
H251	H25	0.840100	0.595200	0.267200
C421	C42	0.765400	0.532100	0.280900
H261	H26	0.780200	0.525400	0.313700
C431	C43	0.691300	0.504700	0.217200
H271	H27	0.655300	0.480300	0.204800
C441	C44	0.728800	0.549300	0.182400
H281	H28	0.715800	0.555100	0.149100
C451	C45	0.837700	0.679200	0.042600
C461	C46	0.783100	0.641700	0.020300
H291	H29	0.759700	0.611700	0.039200
C471	C47	0.766000	0.651800	0.968200
H301	H30	0.732000	0.627400	0.953000
C481	C48	0.854500	0.730000	0.964400
H311	H31	0.884200	0.754600	0.945200
C491	C49	0.865800	0.726300	0.015600
H321	H32	0.892900	0.756500	0.031400
C501	C50	0.976800	0.722000	0.182400
C511	C51	0.006900	0.770500	0.157100
H331	H33	0.989300	0.783000	0.126200
C521	C52	0.064400	0.801800	0.177400
H341	H34	0.083800	0.835500	0.160100
C531	C53	0.060300	0.741400	0.247100
H351	H35	0.076300	0.731400	0.279000
C541	C54	0.004300	0.709700	0.231400
H361	H36	0.983600	0.680000	0.252200
C551	C55	0.555800	0.440200	0.522100
C561	C56	0.555100	0.477700	0.602200
C571	C57	0.479800	0.404200	0.576900
C581	C58	0.577800	0.440900	0.468300
C591	C59	0.543300	0.406500	0.430100
H371	H37	0.503000	0.384600	0.437300
C601	C60	0.569100	0.406200	0.384100
H381	H38	0.548000	0.380200	0.360600
C611	C61	0.654600	0.477300	0.404600
H391	H39	0.692100	0.502000	0.395400
C621	C62	0.632800	0.480000	0.454700
H401	H40	0.653900	0.506600	0.477900
C631	C63	0.588500	0.517100	0.638700
C641	C64	0.647100	0.557600	0.624700
H411	H41	0.667100	0.554300	0.593100
C651	C65	0.670400	0.598000	0.657400
H421	H42	0.706900	0.623800	0.648000
C661	C66	0.587400	0.565300	0.719400
H431	H43	0.570100	0.567700	0.751900
C671	C67	0.558200	0.524300	0.686800
H441	H44	0.519200	0.501500	0.695700
C681	C68	0.418800	0.363100	0.589200
C691	C69	0.382400	0.365500	0.637500
H451	H45	0.395800	0.393900	0.662300
C701	C70	0.332500	0.328300	0.644700
H461	H46	0.309900	0.331600	0.675400
C711	C71	0.344300	0.278000	0.571200
H471	H47	0.335100	0.243300	0.550900
C721	C72	0.396700	0.321700	0.555700
H481	H48	0.414400	0.320900	0.523300
Cu51	Cu5	0.670490	0.425810	0.301980
Cu61	Cu6	0.773090	0.722260	0.871610
I21	I2	0.651290	0.369640	0.100630
N131	N13	0.806700	0.628600	0.123500
N141	N14	0.903800	0.699900	0.115800
N151	N15	0.883000	0.650400	0.191200
N161	N16	0.709200	0.499700	0.266500
N171	N17	0.800900	0.698800	0.940100
N181	N18	0.093100	0.782400	0.224000
N191	N19	0.582500	0.479200	0.554400
N201	N20	0.503100	0.439900	0.614900
N211	N21	0.497000	0.403500	0.531200
N221	N22	0.624700	0.440900	0.368300
Cu71	Cu7	0.180150	0.826510	0.246190
N231	N23	0.643500	0.604700	0.706000
N241	N24	0.308600	0.284800	0.613100
Cu81	Cu8	0.661680	0.334650	0.183980
S51	S5	0.602810	0.362750	0.252540
S61	S6	0.256830	0.764340	0.287890
S71	S7	0.762050	0.361060	0.323760
S81	S8	0.851990	0.773900	0.824470
W21	W2	0.687060	0.302080	0.277360
C731	C73	0.327400	0.878400	0.831200
C741	C74	0.346200	0.833000	0.903100
C751	C75	0.418100	0.811700	0.837300
C761	C76	0.285300	0.918300	0.795600
C771	C77	0.303200	0.926600	0.746800
H491	H49	0.340100	0.904800	0.732800
C781	C78	0.265400	0.967900	0.719100
H501	H50	0.280200	0.974600	0.686300
C791	C79	0.191300	0.995300	0.782800
H511	H51	0.155300	0.019700	0.795200
C801	C80	0.228800	0.950700	0.817600
H521	H52	0.215800	0.944900	0.850900
C811	C81	0.337700	0.820800	0.957400
C821	C82	0.283100	0.858300	0.979700
H531	H53	0.259700	0.888300	0.960800
C831	C83	0.266000	0.848200	0.031800
H541	H54	0.232000	0.872600	0.047000
C841	C84	0.354500	0.770000	0.035600
H551	H55	0.384200	0.745400	0.054800
C851	C85	0.365800	0.773700	0.984400
H561	H56	0.392900	0.743500	0.968600
C861	C86	0.476800	0.778000	0.817600
C871	C87	0.506900	0.729500	0.842900
H571	H57	0.489300	0.717000	0.873800
C881	C88	0.564400	0.698200	0.822600
H581	H58	0.583800	0.664500	0.839900
C891	C89	0.560300	0.758600	0.752900
H591	H59	0.576300	0.768600	0.721000
C901	C90	0.504300	0.790300	0.768600
H601	H60	0.483600	0.820000	0.747800
C911	C91	0.055800	0.059800	0.477900
C921	C92	0.055100	0.022300	0.397800
C931	C93	0.979800	0.095800	0.423100
C941	C94	0.077800	0.059100	0.531700
C951	C95	0.043300	0.093500	0.569900
H611	H61	0.003000	0.115400	0.562700
C961	C96	0.069100	0.093800	0.615900
H621	H62	0.048000	0.119800	0.639400
C971	C97	0.154600	0.022700	0.595400
H631	H63	0.192100	0.998000	0.604600
C981	C98	0.132800	0.020000	0.545300
H641	H64	0.153900	0.993400	0.522100
C991	C99	0.088500	0.982900	0.361300
C1001	C100	0.147100	0.942400	0.375300
H651	H65	0.167100	0.945700	0.406900
C1011	C101	0.170400	0.902000	0.342600
H661	H66	0.206900	0.876200	0.352000
C1021	C102	0.087400	0.934700	0.280600
H671	H67	0.070100	0.932300	0.248100
C1031	C103	0.058200	0.975700	0.313200
H681	H68	0.019200	0.998500	0.304300
C1041	C104	0.918800	0.136900	0.410800
C1051	C105	0.882400	0.134500	0.362500
H691	H69	0.895800	0.106100	0.337700
C1061	C106	0.832500	0.171700	0.355300
H701	H70	0.809900	0.168400	0.324600
C1071	C107	0.844300	0.222000	0.428800
H711	H71	0.835100	0.256700	0.449100
C1081	C108	0.896700	0.178300	0.444300
H721	H72	0.914400	0.179100	0.476700
Cu91	Cu9	0.170490	0.074190	0.698020
Cu101	Cu10	0.273090	0.777740	0.128390
I31	I3	0.151290	0.130360	0.899370
N251	N25	0.306700	0.871400	0.876500
N261	N26	0.403800	0.800100	0.884200
N271	N27	0.383000	0.849600	0.808800
N281	N28	0.209200	0.000300	0.733500
N291	N29	0.300900	0.801200	0.059900
N301	N30	0.593100	0.717600	0.776000
N311	N31	0.082500	0.020800	0.445600
N321	N32	0.003100	0.060100	0.385100
N331	N33	0.997000	0.096500	0.468800
N341	N34	0.124700	0.059100	0.631700
Cu111	Cu11	0.680150	0.673490	0.753810
N351	N35	0.143500	0.895300	0.294000
N361	N36	0.808600	0.215200	0.386900
Cu121	Cu12	0.161680	0.165350	0.816020
S91	S9	0.102810	0.137250	0.747460
S101	S10	0.756830	0.735660	0.712110
S111	S11	0.262050	0.138940	0.676240
S121	S12	0.351990	0.726100	0.175530
W31	W3	0.187060	0.197920	0.722640
C1091	C109	0.172600	0.121600	0.331200
C1101	C110	0.153800	0.167000	0.403100
C1111	C111	0.081900	0.188300	0.337300
C1121	C112	0.214700	0.081700	0.295600
C1131	C113	0.196800	0.073400	0.246800
H731	H73	0.159900	0.095200	0.232800
C1141	C114	0.234600	0.032100	0.219100
H741	H74	0.219800	0.025400	0.186300
C1151	C115	0.308700	0.004700	0.282800
H751	H75	0.344700	0.980300	0.295200
C1161	C116	0.271200	0.049300	0.317600
H761	H76	0.284200	0.055100	0.350900
C1171	C117	0.162300	0.179200	0.457400
C1181	C118	0.216900	0.141700	0.479700
H771	H77	0.240300	0.111700	0.460800
C1191	C119	0.234000	0.151800	0.531800
H781	H78	0.268000	0.127400	0.547000
C1201	C120	0.145500	0.230000	0.535600
H791	H79	0.115800	0.254600	0.554800
C1211	C121	0.134200	0.226300	0.484400
H801	H80	0.107100	0.256500	0.468600
C1221	C122	0.023200	0.222000	0.317600
C1231	C123	0.993100	0.270500	0.342900
H811	H81	0.010700	0.283000	0.373800
C1241	C124	0.935600	0.301800	0.322600
H821	H82	0.916200	0.335500	0.339900
C1251	C125	0.939700	0.241400	0.252900
H831	H83	0.923700	0.231400	0.221000
C1261	C126	0.995700	0.209700	0.268600
H841	H84	0.016400	0.180000	0.247800
C1271	C127	0.444200	0.940200	0.977900
C1281	C128	0.444900	0.977700	0.897800
C1291	C129	0.520200	0.904200	0.923100
C1301	C130	0.422200	0.940900	0.031700
C1311	C131	0.456700	0.906500	0.069900
H851	H85	0.497000	0.884600	0.062700
C1321	C132	0.430900	0.906200	0.115900
H861	H86	0.452000	0.880200	0.139400
C1331	C133	0.345400	0.977300	0.095400
H871	H87	0.307900	0.002000	0.104600
C1341	C134	0.367200	0.980000	0.045300
H881	H88	0.346100	0.006600	0.022100
C1351	C135	0.411500	0.017100	0.861300
C1361	C136	0.352900	0.057600	0.875300
H891	H89	0.332900	0.054300	0.906900
C1371	C137	0.329600	0.098000	0.842600
H901	H90	0.293100	0.123800	0.852000
C1381	C138	0.412600	0.065300	0.780600
H911	H91	0.429900	0.067700	0.748100
C1391	C139	0.441800	0.024300	0.813200
H921	H92	0.480800	0.001500	0.804300
C1401	C140	0.581200	0.863100	0.910800
C1411	C141	0.617600	0.865500	0.862500
H931	H93	0.604200	0.893900	0.837700
C1421	C142	0.667500	0.828300	0.855300
H941	H94	0.690100	0.831600	0.824600
C1431	C143	0.655700	0.778000	0.928800
H951	H95	0.664900	0.743300	0.949100
C1441	C144	0.603300	0.821700	0.944300
H961	H96	0.585600	0.820900	0.976700
Cu131	Cu13	0.329510	0.925810	0.198020
Cu141	Cu14	0.226910	0.222260	0.628390
I41	I4	0.348710	0.869640	0.399370
N371	N37	0.193300	0.128600	0.376500
N381	N38	0.096200	0.199900	0.384200
N391	N39	0.117000	0.150400	0.308800
N401	N40	0.290800	0.999700	0.233500
N411	N41	0.199100	0.198800	0.559900
N421	N42	0.906900	0.282400	0.276000
N431	N43	0.417500	0.979200	0.945600
N441	N44	0.496900	0.939900	0.885100
N451	N45	0.503000	0.903500	0.968800
N461	N46	0.375300	0.940900	0.131700
Cu151	Cu15	0.819850	0.326510	0.253810
N471	N47	0.356500	0.104700	0.794000
N481	N48	0.691400	0.784800	0.886900
Cu161	Cu16	0.338320	0.834650	0.316020
S131	S13	0.397190	0.862750	0.247460
S141	S14	0.743170	0.264340	0.212110
S151	S15	0.237950	0.861060	0.176240
S161	S16	0.148010	0.273900	0.675530
W41	W4	0.312940	0.802080	0.222640
C1451	C145	0.327400	0.621600	0.331200
C1461	C146	0.346200	0.667000	0.403100
C1471	C147	0.418100	0.688300	0.337300
C1481	C148	0.285300	0.581700	0.295600
C1491	C149	0.303200	0.573400	0.246800
H971	H97	0.340100	0.595200	0.232800
C1501	C150	0.265400	0.532100	0.219100
H981	H98	0.280200	0.525400	0.186300
C1511	C151	0.191300	0.504700	0.282800
H991	H99	0.155300	0.480300	0.295200
C1521	C152	0.228800	0.549300	0.317600
H1001	H100	0.215800	0.555100	0.350900
C1531	C153	0.337700	0.679200	0.457400
C1541	C154	0.283100	0.641700	0.479700
H1011	H101	0.259700	0.611700	0.460800
C1551	C155	0.266000	0.651800	0.531800
H1021	H102	0.232000	0.627400	0.547000
C1561	C156	0.354500	0.730000	0.535600
H1031	H103	0.384200	0.754600	0.554800
C1571	C157	0.365800	0.726300	0.484400
H1041	H104	0.392900	0.756500	0.468600
C1581	C158	0.476800	0.722000	0.317600
C1591	C159	0.506900	0.770500	0.342900
H1051	H105	0.489300	0.783000	0.373800
C1601	C160	0.564400	0.801800	0.322600
H1061	H106	0.583800	0.835500	0.339900
C1611	C161	0.560300	0.741400	0.252900
H1071	H107	0.576300	0.731400	0.221000
C1621	C162	0.504300	0.709700	0.268600
H1081	H108	0.483600	0.680000	0.247800
C1631	C163	0.055800	0.440200	0.977900
C1641	C164	0.055100	0.477700	0.897800
C1651	C165	0.979800	0.404200	0.923100
C1661	C166	0.077800	0.440900	0.031700
C1671	C167	0.043300	0.406500	0.069900
H1091	H109	0.003000	0.384600	0.062700
C1681	C168	0.069100	0.406200	0.115900
H1101	H110	0.048000	0.380200	0.139400
C1691	C169	0.154600	0.477300	0.095400
H1111	H111	0.192100	0.502000	0.104600
C1701	C170	0.132800	0.480000	0.045300
H1121	H112	0.153900	0.506600	0.022100
C1711	C171	0.088500	0.517100	0.861300
C1721	C172	0.147100	0.557600	0.875300
H1131	H113	0.167100	0.554300	0.906900
C1731	C173	0.170400	0.598000	0.842600
H1141	H114	0.206900	0.623800	0.852000
C1741	C174	0.087400	0.565300	0.780600
H1151	H115	0.070100	0.567700	0.748100
C1751	C175	0.058200	0.524300	0.813200
H1161	H116	0.019200	0.501500	0.804300
C1761	C176	0.918800	0.363100	0.910800
C1771	C177	0.882400	0.365500	0.862500
H1171	H117	0.895800	0.393900	0.837700
C1781	C178	0.832500	0.328300	0.855300
H1181	H118	0.809900	0.331600	0.824600
C1791	C179	0.844300	0.278000	0.928800
H1191	H119	0.835100	0.243300	0.949100
C1801	C180	0.896700	0.321700	0.944300
H1201	H120	0.914400	0.320900	0.976700
Cu171	Cu17	0.170490	0.425810	0.198020
Cu181	Cu18	0.273090	0.722260	0.628390
I51	I5	0.151290	0.369640	0.399370
N491	N49	0.306700	0.628600	0.376500
N501	N50	0.403800	0.699900	0.384200
N511	N51	0.383000	0.650400	0.308800
N521	N52	0.209200	0.499700	0.233500
N531	N53	0.300900	0.698800	0.559900
N541	N54	0.593100	0.782400	0.276000
N551	N55	0.082500	0.479200	0.945600
N561	N56	0.003100	0.439900	0.885100
N571	N57	0.997000	0.403500	0.968800
N581	N58	0.124700	0.440900	0.131700
Cu191	Cu19	0.680150	0.826510	0.253810
N591	N59	0.143500	0.604700	0.794000
N601	N60	0.808600	0.284800	0.886900
Cu201	Cu20	0.161680	0.334650	0.316020
S171	S17	0.102810	0.362750	0.247460
S181	S18	0.756830	0.764340	0.212110
S191	S19	0.262050	0.361060	0.176240
S201	S20	0.351990	0.773900	0.675530
W51	W5	0.187060	0.302080	0.222640
C1811	C181	0.172600	0.378400	0.831200
C1821	C182	0.153800	0.333000	0.903100
C1831	C183	0.081900	0.311700	0.837300
C1841	C184	0.214700	0.418300	0.795600
C1851	C185	0.196800	0.426600	0.746800
H1211	H121	0.159900	0.404800	0.732800
C1861	C186	0.234600	0.467900	0.719100
H1221	H122	0.219800	0.474600	0.686300
C1871	C187	0.308700	0.495300	0.782800
H1231	H123	0.344700	0.519700	0.795200
C1881	C188	0.271200	0.450700	0.817600
H1241	H124	0.284200	0.444900	0.850900
C1891	C189	0.162300	0.320800	0.957400
C1901	C190	0.216900	0.358300	0.979700
H1251	H125	0.240300	0.388300	0.960800
C1911	C191	0.234000	0.348200	0.031800
H1261	H126	0.268000	0.372600	0.047000
C1921	C192	0.145500	0.270000	0.035600
H1271	H127	0.115800	0.245400	0.054800
C1931	C193	0.134200	0.273700	0.984400
H1281	H128	0.107100	0.243500	0.968600
C1941	C194	0.023200	0.278000	0.817600
C1951	C195	0.993100	0.229500	0.842900
H1291	H129	0.010700	0.217000	0.873800
C1961	C196	0.935600	0.198200	0.822600
H1301	H130	0.916200	0.164500	0.839900
C1971	C197	0.939700	0.258600	0.752900
H1311	H131	0.923700	0.268600	0.721000
C1981	C198	0.995700	0.290300	0.768600
H1321	H132	0.016400	0.320000	0.747800
C1991	C199	0.444200	0.559800	0.477900
C2001	C200	0.444900	0.522300	0.397800
C2011	C201	0.520200	0.595800	0.423100
C2021	C202	0.422200	0.559100	0.531700
C2031	C203	0.456700	0.593500	0.569900
H1331	H133	0.497000	0.615400	0.562700
C2041	C204	0.430900	0.593800	0.615900
H1341	H134	0.452000	0.619800	0.639400
C2051	C205	0.345400	0.522700	0.595400
H1351	H135	0.307900	0.498000	0.604600
C2061	C206	0.367200	0.520000	0.545300
H1361	H136	0.346100	0.493400	0.522100
C2071	C207	0.411500	0.482900	0.361300
C2081	C208	0.352900	0.442400	0.375300
H1371	H137	0.332900	0.445700	0.406900
C2091	C209	0.329600	0.402000	0.342600
H1381	H138	0.293100	0.376200	0.352000
C2101	C210	0.412600	0.434700	0.280600
H1391	H139	0.429900	0.432300	0.248100
C2111	C211	0.441800	0.475700	0.313200
H1401	H140	0.480800	0.498500	0.304300
C2121	C212	0.581200	0.636900	0.410800
C2131	C213	0.617600	0.634500	0.362500
H1411	H141	0.604200	0.606100	0.337700
C2141	C214	0.667500	0.671700	0.355300
H1421	H142	0.690100	0.668400	0.324600
C2151	C215	0.655700	0.722000	0.428800
H1431	H143	0.664900	0.756700	0.449100
C2161	C216	0.603300	0.678300	0.444300
H1441	H144	0.585600	0.679100	0.476700
Cu211	Cu21	0.329510	0.574190	0.698020
Cu221	Cu22	0.226910	0.277740	0.128390
I61	I6	0.348710	0.630360	0.899370
N611	N61	0.193300	0.371400	0.876500
N621	N62	0.096200	0.300100	0.884200
N631	N63	0.117000	0.349600	0.808800
N641	N64	0.290800	0.500300	0.733500
N651	N65	0.199100	0.301200	0.059900
N661	N66	0.906900	0.217600	0.776000
N671	N67	0.417500	0.520800	0.445600
N681	N68	0.496900	0.560100	0.385100
N691	N69	0.503000	0.596500	0.468800
N701	N70	0.375300	0.559100	0.631700
Cu231	Cu23	0.819850	0.173490	0.753810
N711	N71	0.356500	0.395300	0.294000
N721	N72	0.691400	0.715200	0.386900
Cu241	Cu24	0.338320	0.665350	0.816020
S211	S21	0.397190	0.637250	0.747460
S221	S22	0.743170	0.235660	0.712110
S231	S23	0.237950	0.638940	0.676240
S241	S24	0.148010	0.226100	0.175530
W61	W6	0.312940	0.697920	0.722640
C2171	C217	0.672600	0.121600	0.168800
C2181	C218	0.653800	0.167000	0.096900
C2191	C219	0.581900	0.188300	0.162700
C2201	C220	0.714700	0.081700	0.204400
C2211	C221	0.696800	0.073400	0.253200
H1451	H145	0.659900	0.095200	0.267200
C2221	C222	0.734600	0.032100	0.280900
H1461	H146	0.719800	0.025400	0.313700
C2231	C223	0.808700	0.004700	0.217200
H1471	H147	0.844700	0.980300	0.204800
C2241	C224	0.771200	0.049300	0.182400
H1481	H148	0.784200	0.055100	0.149100
C2251	C225	0.662300	0.179200	0.042600
C2261	C226	0.716900	0.141700	0.020300
H1491	H149	0.740300	0.111700	0.039200
C2271	C227	0.734000	0.151800	0.968200
H1501	H150	0.768000	0.127400	0.953000
C2281	C228	0.645500	0.230000	0.964400
H1511	H151	0.615800	0.254600	0.945200
C2291	C229	0.634200	0.226300	0.015600
H1521	H152	0.607100	0.256500	0.031400
C2301	C230	0.523200	0.222000	0.182400
C2311	C231	0.493100	0.270500	0.157100
H1531	H153	0.510700	0.283000	0.126200
C2321	C232	0.435600	0.301800	0.177400
H1541	H154	0.416200	0.335500	0.160100
C2331	C233	0.439700	0.241400	0.247100
H1551	H155	0.423700	0.231400	0.279000
C2341	C234	0.495700	0.209700	0.231400
H1561	H156	0.516400	0.180000	0.252200
C2351	C235	0.944200	0.940200	0.522100
C2361	C236	0.944900	0.977700	0.602200
C2371	C237	0.020200	0.904200	0.576900
C2381	C238	0.922200	0.940900	0.468300
C2391	C239	0.956700	0.906500	0.430100
H1571	H157	0.997000	0.884600	0.437300
C2401	C240	0.930900	0.906200	0.384100
H1581	H158	0.952000	0.880200	0.360600
C2411	C241	0.845400	0.977300	0.404600
H1591	H159	0.807900	0.002000	0.395400
C2421	C242	0.867200	0.980000	0.454700
H1601	H160	0.846100	0.006600	0.477900
C2431	C243	0.911500	0.017100	0.638700
C2441	C244	0.852900	0.057600	0.624700
H1611	H161	0.832900	0.054300	0.593100
C2451	C245	0.829600	0.098000	0.657400
H1621	H162	0.793100	0.123800	0.648000
C2461	C246	0.912600	0.065300	0.719400
H1631	H163	0.929900	0.067700	0.751900
C2471	C247	0.941800	0.024300	0.686800
H1641	H164	0.980800	0.001500	0.695700
C2481	C248	0.081200	0.863100	0.589200
C2491	C249	0.117600	0.865500	0.637500
H1651	H165	0.104200	0.893900	0.662300
C2501	C250	0.167500	0.828300	0.644700
H1661	H166	0.190100	0.831600	0.675400
C2511	C251	0.155700	0.778000	0.571200
H1671	H167	0.164900	0.743300	0.550900
C2521	C252	0.103300	0.821700	0.555700
H1681	H168	0.085600	0.820900	0.523300
Cu251	Cu25	0.829510	0.925810	0.301980
Cu261	Cu26	0.726910	0.222260	0.871610
I71	I7	0.848710	0.869640	0.100630
N731	N73	0.693300	0.128600	0.123500
N741	N74	0.596200	0.199900	0.115800
N751	N75	0.617000	0.150400	0.191200
N761	N76	0.790800	0.999700	0.266500
N771	N77	0.699100	0.198800	0.940100
N781	N78	0.406900	0.282400	0.224000
N791	N79	0.917500	0.979200	0.554400
N801	N80	0.996900	0.939900	0.614900
N811	N81	0.003000	0.903500	0.531200
N821	N82	0.875300	0.940900	0.368300
Cu271	Cu27	0.319850	0.326510	0.246190
N831	N83	0.856500	0.104700	0.706000
N841	N84	0.191400	0.784800	0.613100
Cu281	Cu28	0.838320	0.834650	0.183980
S251	S25	0.897190	0.862750	0.252540
S261	S26	0.243170	0.264340	0.287890
S271	S27	0.737950	0.861060	0.323760
S281	S28	0.648010	0.273900	0.824470
W71	W7	0.812940	0.802080	0.277360
C2531	C253	0.827400	0.878400	0.668800
C2541	C254	0.846200	0.833000	0.596900
C2551	C255	0.918100	0.811700	0.662700
C2561	C256	0.785300	0.918300	0.704400
C2571	C257	0.803200	0.926600	0.753200
H1691	H169	0.840100	0.904800	0.767200
C2581	C258	0.765400	0.967900	0.780900
H1701	H170	0.780200	0.974600	0.813700
C2591	C259	0.691300	0.995300	0.717200
H1711	H171	0.655300	0.019700	0.704800
C2601	C260	0.728800	0.950700	0.682400
H1721	H172	0.715800	0.944900	0.649100
C2611	C261	0.837700	0.820800	0.542600
C2621	C262	0.783100	0.858300	0.520300
H1731	H173	0.759700	0.888300	0.539200
C2631	C263	0.766000	0.848200	0.468200
H1741	H174	0.732000	0.872600	0.453000
C2641	C264	0.854500	0.770000	0.464400
H1751	H175	0.884200	0.745400	0.445200
C2651	C265	0.865800	0.773700	0.515600
H1761	H176	0.892900	0.743500	0.531400
C2661	C266	0.976800	0.778000	0.682400
C2671	C267	0.006900	0.729500	0.657100
H1771	H177	0.989300	0.717000	0.626200
C2681	C268	0.064400	0.698200	0.677400
H1781	H178	0.083800	0.664500	0.660100
C2691	C269	0.060300	0.758600	0.747100
H1791	H179	0.076300	0.768600	0.779000
C2701	C270	0.004300	0.790300	0.731400
H1801	H180	0.983600	0.820000	0.752200
C2711	C271	0.555800	0.059800	0.022100
C2721	C272	0.555100	0.022300	0.102200
C2731	C273	0.479800	0.095800	0.076900
C2741	C274	0.577800	0.059100	0.968300
C2751	C275	0.543300	0.093500	0.930100
H1811	H181	0.503000	0.115400	0.937300
C2761	C276	0.569100	0.093800	0.884100
H1821	H182	0.548000	0.119800	0.860600
C2771	C277	0.654600	0.022700	0.904600
H1831	H183	0.692100	0.998000	0.895400
C2781	C278	0.632800	0.020000	0.954700
H1841	H184	0.653900	0.993400	0.977900
C2791	C279	0.588500	0.982900	0.138700
C2801	C280	0.647100	0.942400	0.124700
H1851	H185	0.667100	0.945700	0.093100
C2811	C281	0.670400	0.902000	0.157400
H1861	H186	0.706900	0.876200	0.148000
C2821	C282	0.587400	0.934700	0.219400
H1871	H187	0.570100	0.932300	0.251900
C2831	C283	0.558200	0.975700	0.186800
H1881	H188	0.519200	0.998500	0.195700
C2841	C284	0.418800	0.136900	0.089200
C2851	C285	0.382400	0.134500	0.137500
H1891	H189	0.395800	0.106100	0.162300
C2861	C286	0.332500	0.171700	0.144700
H1901	H190	0.309900	0.168400	0.175400
C2871	C287	0.344300	0.222000	0.071200
H1911	H191	0.335100	0.256700	0.050900
C2881	C288	0.396700	0.178300	0.055700
H1921	H192	0.414400	0.179100	0.023300
Cu291	Cu29	0.670490	0.074190	0.801980
Cu301	Cu30	0.773090	0.777740	0.371610
I81	I8	0.651290	0.130360	0.600630
N851	N85	0.806700	0.871400	0.623500
N861	N86	0.903800	0.800100	0.615800
N871	N87	0.883000	0.849600	0.691200
N881	N88	0.709200	0.000300	0.766500
N891	N89	0.800900	0.801200	0.440100
N901	N90	0.093100	0.717600	0.724000
N911	N91	0.582500	0.020800	0.054400
N921	N92	0.503100	0.060100	0.114900
N931	N93	0.497000	0.096500	0.031200
N941	N94	0.624700	0.059100	0.868300
Cu311	Cu31	0.180150	0.673490	0.746190
N951	N95	0.643500	0.895300	0.206000
N961	N96	0.308600	0.215200	0.113100
Cu321	Cu32	0.661680	0.165350	0.683980
S291	S29	0.602810	0.137250	0.752540
S301	S30	0.256830	0.735660	0.787890
S311	S31	0.762050	0.138940	0.823760
S321	S32	0.851990	0.726100	0.324470
W81	W8	0.687060	0.197920	0.777360
