data_SATROV_clean_PM
_symmetry_space_group_name_H-M	'P1'
_cell_length_a	8.533000
_cell_length_b	9.370000
_cell_length_c	10.003000
_cell_angle_alpha	63.283000
_cell_angle_beta	75.905000
_cell_angle_gamma	74.276000
_symmetry_Int_Tables_number 1

loop_
_symmetry_equiv_pos_as_xyz
'x,y,z'

loop_
_atom_site_label
_atom_site_type_symbol
_atom_site_fract_x
_atom_site_fract_y
_atom_site_fract_z
Gd11	Gd1	0.332500	0.368230	0.840500
O11	O1	0.083200	0.302300	0.017000
O21	O2	0.320400	0.086600	0.919000
O31	O3	0.529900	0.307000	0.646500
O41	O4	0.533100	0.523300	0.813300
O51	O5	0.431400	0.824500	0.039400
O61	O6	0.862900	0.394800	0.149800
O71	O7	0.658100	0.608400	0.925500
O81	O8	0.657300	0.399900	0.408200
C11	C1	0.984700	0.413100	0.048400
C21	C2	0.428700	0.973400	0.988100
C31	C3	0.554800	0.415000	0.515700
C41	C4	0.556300	0.539000	0.924100
Gd21	Gd2	0.667500	0.631770	0.159500
O91	O9	0.916800	0.697700	0.983000
O101	O10	0.679600	0.913400	0.081000
O111	O11	0.470100	0.693000	0.353500
O121	O12	0.466900	0.476700	0.186700
O131	O13	0.568600	0.175500	0.960600
O141	O14	0.137100	0.605200	0.850200
O151	O15	0.341900	0.391600	0.074500
O161	O16	0.342700	0.600100	0.591800
C51	C5	0.015300	0.586900	0.951600
C61	C6	0.571300	0.026600	0.011900
C71	C7	0.445200	0.585000	0.484300
C81	C8	0.443700	0.461000	0.075900
