data_SATRIP_clean_PM
_symmetry_space_group_name_H-M	'P1'
_cell_length_a	8.417000
_cell_length_b	9.716000
_cell_length_c	10.117000
_cell_angle_alpha	61.951000
_cell_angle_beta	77.816000
_cell_angle_gamma	74.279000
_symmetry_Int_Tables_number 1

loop_
_symmetry_equiv_pos_as_xyz
'x,y,z'

loop_
_atom_site_label
_atom_site_type_symbol
_atom_site_fract_x
_atom_site_fract_y
_atom_site_fract_z
Nd11	Nd1	0.328630	0.369950	0.838490
O11	O1	0.074000	0.308300	0.013700
O21	O2	0.311900	0.091900	0.922400
O31	O3	0.526700	0.308400	0.647200
O41	O4	0.538300	0.518200	0.816600
O51	O5	0.430000	0.831800	0.033100
O61	O6	0.873700	0.393800	0.157600
O71	O7	0.656000	0.609700	0.927500
O81	O8	0.659800	0.401500	0.415500
C11	C1	0.985700	0.413000	0.049000
C21	C2	0.425400	0.976600	0.988600
C31	C3	0.553500	0.415800	0.517400
C41	C4	0.557200	0.536700	0.926600
Nd21	Nd2	0.671370	0.630050	0.161510
O91	O9	0.926000	0.691700	0.986300
O101	O10	0.688100	0.908100	0.077600
O111	O11	0.473300	0.691600	0.352800
O121	O12	0.461700	0.481800	0.183400
O131	O13	0.570000	0.168200	0.966900
O141	O14	0.126300	0.606200	0.842400
O151	O15	0.344000	0.390300	0.072500
O161	O16	0.340200	0.598500	0.584500
C51	C5	0.014300	0.587000	0.951000
C61	C6	0.574600	0.023400	0.011400
C71	C7	0.446500	0.584200	0.482600
C81	C8	0.442800	0.463300	0.073400
