data_SAYKIO_clean_PM
_symmetry_space_group_name_H-M	'P1'
_cell_length_a	9.292500
_cell_length_b	18.406600
_cell_length_c	20.426000
_cell_angle_alpha	113.807000
_cell_angle_beta	90.000000
_cell_angle_gamma	104.621000
_symmetry_Int_Tables_number 1

loop_
_symmetry_equiv_pos_as_xyz
'x,y,z'

loop_
_atom_site_label
_atom_site_type_symbol
_atom_site_fract_x
_atom_site_fract_y
_atom_site_fract_z
U11	U1	0.218180	0.321660	0.094260
U21	U2	0.896520	0.678340	0.405740
U31	U3	0.781820	0.678340	0.905740
U41	U4	0.103480	0.321660	0.594260
U51	U5	0.000000	0.000000	0.000000
U61	U6	0.000000	0.000000	0.500000
H11	H1	0.922200	0.773600	0.105300
H21	H2	0.797700	0.726800	0.137600
H31	H3	0.037700	0.927800	0.175700
H41	H4	0.054300	0.923600	0.250600
H51	H5	0.826500	0.848600	0.296600
H61	H6	0.691600	0.783000	0.239000
H71	H7	0.795300	0.867400	0.102400
H81	H8	0.724600	0.919400	0.169100
H91	H9	0.592700	0.790200	0.325500
H101	H10	0.359000	0.764000	0.383500
H111	H11	0.272700	0.947800	0.349300
H121	H12	0.473100	0.969600	0.291900
H131	H13	0.355300	0.701200	0.076700
H141	H14	0.142100	0.713800	0.029700
H151	H15	0.375700	0.927200	0.031100
H161	H16	0.586900	0.918400	0.081100
H171	H17	0.216700	0.740400	0.231600
H181	H18	0.286300	0.621200	0.203700
H191	H19	0.918600	0.496200	0.067800
H201	H20	0.850500	0.617600	0.091700
H211	H21	0.148600	0.226400	0.394700
H221	H22	0.070900	0.273200	0.362400
H231	H23	0.109900	0.072200	0.324300
H241	H24	0.130700	0.076400	0.249400
H251	H25	0.977900	0.151400	0.203400
H261	H26	0.908600	0.217000	0.261000
H271	H27	0.927900	0.132600	0.397600
H281	H28	0.805200	0.080600	0.330900
H291	H29	0.802500	0.209800	0.174500
H301	H30	0.595000	0.236000	0.116500
H311	H31	0.324900	0.052200	0.150700
H321	H32	0.503500	0.030400	0.208100
H331	H33	0.654100	0.298800	0.423300
H341	H34	0.428300	0.286200	0.470300
H351	H35	0.448500	0.072800	0.468900
H361	H36	0.668500	0.081600	0.418900
H371	H37	0.476300	0.259600	0.268400
H381	H38	0.665100	0.378800	0.296300
H391	H39	0.422400	0.503800	0.432200
H401	H40	0.232900	0.382400	0.408300
H411	H41	0.077800	0.226400	0.894700
H421	H42	0.202300	0.273200	0.862400
H431	H43	0.962300	0.072200	0.824300
H441	H44	0.945700	0.076400	0.749400
H451	H45	0.173500	0.151400	0.703400
H461	H46	0.308400	0.217000	0.761000
H471	H47	0.204700	0.132600	0.897600
H481	H48	0.275400	0.080600	0.830900
H491	H49	0.407300	0.209800	0.674500
H501	H50	0.641000	0.236000	0.616500
H511	H51	0.727300	0.052200	0.650700
H521	H52	0.526900	0.030400	0.708100
H531	H53	0.644700	0.298800	0.923300
H541	H54	0.857900	0.286200	0.970300
H551	H55	0.624300	0.072800	0.968900
H561	H56	0.413100	0.081600	0.918900
H571	H57	0.783300	0.259600	0.768400
H581	H58	0.713700	0.378800	0.796300
H591	H59	0.081400	0.503800	0.932200
H601	H60	0.149500	0.382400	0.908300
H611	H61	0.851400	0.773600	0.605300
H621	H62	0.929100	0.726800	0.637600
H631	H63	0.890100	0.927800	0.675700
H641	H64	0.869300	0.923600	0.750600
H651	H65	0.022100	0.848600	0.796600
H661	H66	0.091400	0.783000	0.739000
H671	H67	0.072100	0.867400	0.602400
H681	H68	0.194800	0.919400	0.669100
H691	H69	0.197500	0.790200	0.825500
H701	H70	0.405000	0.764000	0.883500
H711	H71	0.675100	0.947800	0.849300
H721	H72	0.496500	0.969600	0.791900
H731	H73	0.345900	0.701200	0.576700
H741	H74	0.571700	0.713800	0.529700
H751	H75	0.551500	0.927200	0.531100
H761	H76	0.331500	0.918400	0.581100
H771	H77	0.523700	0.740400	0.731600
H781	H78	0.334900	0.621200	0.703700
H791	H79	0.577600	0.496200	0.567800
H801	H80	0.767100	0.617600	0.591700
C11	C1	0.845700	0.853800	0.192800
C21	C2	0.885900	0.773200	0.149800
C31	C3	0.986300	0.927600	0.217000
C41	C4	0.757700	0.838600	0.256200
C51	C5	0.745900	0.866600	0.144100
C61	C6	0.542200	0.882400	0.307600
C71	C7	0.523500	0.820400	0.331000
C81	C8	0.382300	0.804600	0.366100
C91	C9	0.289900	0.855000	0.370800
C101	C10	0.335500	0.914000	0.343500
C111	C11	0.454000	0.930000	0.310500
C121	C12	0.152900	0.847400	0.403800
C131	C13	0.491600	0.810000	0.088000
C141	C14	0.359100	0.748400	0.069400
C151	C15	0.231600	0.755000	0.040200
C161	C16	0.238200	0.825200	0.026300
C171	C17	0.370000	0.882000	0.041500
C181	C18	0.497600	0.877200	0.071700
C191	C19	0.102300	0.833800	0.999500
C201	C20	0.026000	0.690200	0.166500
C211	C21	0.155100	0.690600	0.198200
C221	C22	0.196800	0.619800	0.182200
C231	C23	0.103500	0.546800	0.133800
C241	C24	0.979400	0.546400	0.101300
C251	C25	0.936400	0.618600	0.115700
C261	C26	0.145600	0.469800	0.121500
C271	C27	0.991900	0.146200	0.307200
C281	C28	0.112700	0.226800	0.350200
C291	C29	0.058700	0.072400	0.283000
C301	C30	0.919100	0.161400	0.243800
C311	C31	0.879300	0.133400	0.355900
C321	C32	0.659800	0.117600	0.192400
C331	C33	0.703100	0.179600	0.169000
C341	C34	0.577700	0.195400	0.133900
C351	C35	0.434900	0.145000	0.129200
C361	C36	0.421500	0.086000	0.156500
C371	C37	0.524000	0.070000	0.189500
C381	C38	0.305500	0.152600	0.096200
C391	C39	0.681600	0.190000	0.412000
C401	C40	0.610700	0.251600	0.430600
C411	C41	0.476600	0.245000	0.459800
C421	C42	0.413000	0.174800	0.473700
C431	C43	0.488000	0.118000	0.458500
C441	C44	0.620400	0.122800	0.428300
C451	C45	0.268500	0.166200	0.500500
C461	C46	0.335800	0.309800	0.333500
C471	C47	0.464500	0.309400	0.301800
C481	C48	0.577000	0.380200	0.317800
C491	C49	0.556700	0.453200	0.366200
C501	C50	0.433000	0.453600	0.398700
C511	C51	0.317800	0.381400	0.384300
C521	C52	0.675800	0.530200	0.378500
C531	C53	0.154300	0.146200	0.807200
C541	C54	0.114100	0.226800	0.850200
C551	C55	0.013700	0.072400	0.783000
C561	C56	0.242300	0.161400	0.743800
C571	C57	0.254100	0.133400	0.855900
C581	C58	0.457800	0.117600	0.692400
C591	C59	0.476500	0.179600	0.669000
C601	C60	0.617700	0.195400	0.633900
C611	C61	0.710100	0.145000	0.629200
C621	C62	0.664500	0.086000	0.656500
C631	C63	0.546000	0.070000	0.689500
C641	C64	0.847100	0.152600	0.596200
C651	C65	0.508400	0.190000	0.912000
C661	C66	0.640900	0.251600	0.930600
C671	C67	0.768400	0.245000	0.959800
C681	C68	0.761800	0.174800	0.973700
C691	C69	0.630000	0.118000	0.958500
C701	C70	0.502400	0.122800	0.928300
C711	C71	0.897700	0.166200	0.000500
C721	C72	0.974000	0.309800	0.833500
C731	C73	0.844900	0.309400	0.801800
C741	C74	0.803200	0.380200	0.817800
C751	C75	0.896500	0.453200	0.866200
C761	C76	0.020600	0.453600	0.898700
C771	C77	0.063600	0.381400	0.884300
C781	C78	0.854400	0.530200	0.878500
C791	C79	0.008100	0.853800	0.692800
C801	C80	0.887300	0.773200	0.649800
C811	C81	0.941300	0.927600	0.717000
C821	C82	0.080900	0.838600	0.756200
C831	C83	0.120700	0.866600	0.644100
C841	C84	0.340200	0.882400	0.807600
C851	C85	0.296900	0.820400	0.831000
C861	C86	0.422300	0.804600	0.866100
C871	C87	0.565100	0.855000	0.870800
C881	C88	0.578500	0.914000	0.843500
C891	C89	0.476000	0.930000	0.810500
C901	C90	0.694500	0.847400	0.903800
C911	C91	0.318400	0.810000	0.588000
C921	C92	0.389300	0.748400	0.569400
C931	C93	0.523400	0.755000	0.540200
C941	C94	0.587000	0.825200	0.526300
C951	C95	0.512000	0.882000	0.541500
C961	C96	0.379600	0.877200	0.571700
C971	C97	0.731500	0.833800	0.499500
C981	C98	0.664200	0.690200	0.666500
C991	C99	0.535500	0.690600	0.698200
C1001	C100	0.423000	0.619800	0.682200
C1011	C101	0.443300	0.546800	0.633800
C1021	C102	0.567000	0.546400	0.601300
C1031	C103	0.682200	0.618600	0.615700
C1041	C104	0.324200	0.469800	0.621500
O11	O1	0.994700	0.765200	0.189900
O21	O2	0.675300	0.898600	0.275100
O31	O3	0.606810	0.800620	0.120900
O41	O4	0.263400	0.470600	0.150500
O51	O5	0.056600	0.400400	0.079800
O61	O6	0.112600	0.900400	0.992900
O71	O7	0.983100	0.779400	0.981700
O81	O8	0.101700	0.787000	0.418300
O91	O9	0.086600	0.900400	0.415300
O101	O10	0.229500	0.234800	0.310100
O111	O11	0.776700	0.101400	0.224900
O121	O12	0.806190	0.199380	0.379100
O131	O13	0.792800	0.529400	0.349500
O141	O14	0.656200	0.599600	0.420200
O151	O15	0.212200	0.099600	0.507100
O161	O16	0.203700	0.220600	0.518300
O171	O17	0.314700	0.213000	0.081700
O181	O18	0.186200	0.099600	0.084700
O191	O19	0.005300	0.234800	0.810100
O201	O20	0.324700	0.101400	0.724900
O211	O21	0.393190	0.199380	0.879100
O221	O22	0.736600	0.529400	0.849500
O231	O23	0.943400	0.599600	0.920200
O241	O24	0.887400	0.099600	0.007100
O251	O25	0.016900	0.220600	0.018300
O261	O26	0.898300	0.213000	0.581700
O271	O27	0.913400	0.099600	0.584700
O281	O28	0.770500	0.765200	0.689900
O291	O29	0.223300	0.898600	0.775100
O301	O30	0.193810	0.800620	0.620900
O311	O31	0.207200	0.470600	0.650500
O321	O32	0.343800	0.400400	0.579800
O331	O33	0.787800	0.900400	0.492900
O341	O34	0.796300	0.779400	0.481700
O351	O35	0.685300	0.787000	0.918300
O361	O36	0.813800	0.900400	0.915300
O371	O37	0.941800	0.000000	0.250000
O381	O38	0.058200	0.000000	0.750000
