data_SAYTUJ_clean_PM
_symmetry_space_group_name_H-M	'P1'
_cell_length_a	7.096200
_cell_length_b	12.454900
_cell_length_c	13.158000
_cell_angle_alpha	68.160000
_cell_angle_beta	83.115000
_cell_angle_gamma	81.834000
_symmetry_Int_Tables_number 1

loop_
_symmetry_equiv_pos_as_xyz
'x,y,z'

loop_
_atom_site_label
_atom_site_type_symbol
_atom_site_fract_x
_atom_site_fract_y
_atom_site_fract_z
Cu11	Cu1	0.317710	0.979020	0.251080
Cu21	Cu2	0.480330	0.369160	0.196570
Cu31	Cu3	0.686010	0.933000	0.162250
Br11	Br1	0.512040	0.791440	0.338050
C11	C1	0.504700	0.448200	0.387300
C21	C2	0.448800	0.211400	0.226900
C31	C3	0.077200	0.950600	0.223300
C41	C4	0.537800	0.983100	0.037500
C51	C5	0.493100	0.471500	0.044500
N11	N1	0.495500	0.418700	0.315500
N21	N2	0.412200	0.122300	0.237900
N31	N3	0.931500	0.941900	0.202000
N41	N4	0.462200	0.016900	0.962500
N51	N5	0.506900	0.528500	0.955500
Cu41	Cu4	0.682290	0.020980	0.748920
Cu51	Cu5	0.519670	0.630840	0.803430
Cu61	Cu6	0.313990	0.067000	0.837750
Br21	Br2	0.487960	0.208560	0.661950
C61	C6	0.495300	0.551800	0.612700
C71	C7	0.551200	0.788600	0.773100
C81	C8	0.922800	0.049400	0.776700
N61	N6	0.504500	0.581300	0.684500
N71	N7	0.587800	0.877700	0.762100
N81	N8	0.068500	0.058100	0.798000
Cu71	Cu7	0.500000	0.500000	0.500000
