data_SEFSOM_clean_PM
_symmetry_space_group_name_H-M	'P1'
_cell_length_a	10.080000
_cell_length_b	13.063000
_cell_length_c	17.815000
_cell_angle_alpha	79.029000
_cell_angle_beta	86.325000
_cell_angle_gamma	78.211000
_symmetry_Int_Tables_number 1

loop_
_symmetry_equiv_pos_as_xyz
'x,y,z'

loop_
_atom_site_label
_atom_site_type_symbol
_atom_site_fract_x
_atom_site_fract_y
_atom_site_fract_z
Cd11	Cd1	0.957090	0.903440	0.800990
Cd21	Cd2	0.042910	0.096560	0.199010
H11	H1	0.593200	0.187600	0.696200
H21	H2	0.470800	0.917700	0.789600
H31	H3	0.196700	0.177100	0.704800
H41	H4	0.213100	0.735500	0.723200
H51	H5	0.186200	0.578600	0.671500
H61	H6	0.829000	0.718900	0.743400
H71	H7	0.824300	0.581500	0.659500
H81	H8	0.964200	0.527500	0.627500
H91	H9	0.072600	0.450800	0.796000
H101	H10	0.060600	0.296100	0.882000
H111	H11	0.739300	0.261800	0.772100
H121	H12	0.756400	0.414700	0.684500
H131	H13	0.891800	0.107000	0.866100
H141	H14	0.784800	0.176300	0.913000
H151	H15	0.153800	0.099400	0.909900
H161	H16	0.237700	0.070000	0.037700
H171	H17	0.849500	0.168700	0.048500
H181	H18	0.406800	0.812400	0.303800
H191	H19	0.529200	0.082300	0.210400
H201	H20	0.803300	0.822900	0.295200
H211	H21	0.786900	0.264500	0.276800
H221	H22	0.813800	0.421400	0.328500
H231	H23	0.171000	0.281100	0.256600
H241	H24	0.175700	0.418500	0.340500
H251	H25	0.035800	0.472500	0.372500
H261	H26	0.927400	0.549200	0.204000
H271	H27	0.939400	0.703900	0.118000
H281	H28	0.260700	0.738200	0.227900
H291	H29	0.243600	0.585300	0.315500
H301	H30	0.108200	0.893000	0.133900
H311	H31	0.215200	0.823700	0.087000
H321	H32	0.846200	0.900600	0.090100
H331	H33	0.762300	0.930000	0.962300
H341	H34	0.150500	0.831300	0.951500
C11	C1	0.387100	0.198700	0.695810
C21	C2	0.523800	0.150200	0.710800
C31	C3	0.551200	0.045100	0.748010
C41	C4	0.694500	0.989900	0.768170
C51	C5	0.448900	0.988900	0.766580
C61	C6	0.312200	0.035400	0.751970
C71	C7	0.204600	0.975500	0.772110
C81	C8	0.285700	0.143200	0.715560
C91	C9	0.132200	0.712400	0.721340
C101	C10	0.118300	0.626000	0.691870
C111	C11	0.921500	0.703600	0.732100
C121	C12	0.916500	0.547340	0.673210
C131	C13	0.915700	0.447540	0.731780
C141	C14	0.006100	0.412580	0.791280
C151	C15	0.997100	0.320600	0.843700
C161	C16	0.896000	0.265000	0.840100
C171	C17	0.805300	0.300100	0.777400
C181	C18	0.816100	0.391400	0.724700
C191	C19	0.877300	0.166600	0.892900
C201	C20	0.101800	0.109800	0.953790
C211	C21	0.147600	0.094900	0.024370
C221	C22	0.937500	0.148000	0.030110
C231	C23	0.612900	0.801300	0.304190
C241	C24	0.476200	0.849800	0.289200
C251	C25	0.448800	0.954900	0.251990
C261	C26	0.305500	0.010100	0.231830
C271	C27	0.551100	0.011100	0.233420
C281	C28	0.687800	0.964600	0.248030
C291	C29	0.795400	0.024500	0.227890
C301	C30	0.714300	0.856800	0.284440
C311	C31	0.867800	0.287600	0.278660
C321	C32	0.881700	0.374000	0.308130
C331	C33	0.078500	0.296400	0.267900
C341	C34	0.083500	0.452660	0.326790
C351	C35	0.084300	0.552460	0.268220
C361	C36	0.993900	0.587420	0.208720
C371	C37	0.002900	0.679400	0.156300
C381	C38	0.104000	0.735000	0.159900
C391	C39	0.194700	0.699900	0.222600
C401	C40	0.183900	0.608600	0.275300
C411	C41	0.122700	0.833400	0.107100
C421	C42	0.898200	0.890200	0.046210
C431	C43	0.852400	0.905100	0.975630
C441	C44	0.062500	0.852000	0.969890
S11	S1	0.344970	0.334150	0.650770
S21	S2	0.655030	0.665850	0.349230
N11	N1	0.006500	0.760200	0.748170
N21	N2	0.978500	0.624480	0.698980
N31	N3	0.968200	0.142400	0.957750
N41	N4	0.044800	0.121100	0.073550
N51	N5	0.993500	0.239800	0.251830
N61	N6	0.021500	0.375520	0.301020
N71	N7	0.031800	0.857600	0.042250
N81	N8	0.955200	0.878900	0.926450
O11	O1	0.457900	0.356690	0.600610
O21	O2	0.325100	0.393090	0.709820
O31	O3	0.227700	0.340370	0.608880
O41	O4	0.787300	0.042220	0.752570
O51	O5	0.718500	0.895470	0.796580
O61	O6	0.231300	0.881820	0.805440
O71	O7	0.084200	0.022370	0.757460
O81	O8	0.542100	0.643310	0.399390
O91	O9	0.674900	0.606910	0.290180
O101	O10	0.772300	0.659630	0.391120
O111	O11	0.212700	0.957780	0.247430
O121	O12	0.281500	0.104530	0.203420
O131	O13	0.768700	0.118180	0.194560
O141	O14	0.915800	0.977630	0.242540
Cd31	Cd3	0.500000	0.500000	0.500000
H351	H35	0.851400	0.499500	0.480200
H361	H36	0.033200	0.351000	0.535000
H371	H37	0.682800	0.257300	0.559500
H381	H38	0.030300	0.166500	0.615900
H391	H39	0.889400	0.136200	0.640500
H401	H40	0.026700	0.955200	0.629000
H411	H41	0.926200	0.174100	0.445900
H421	H42	0.631400	0.707300	0.514200
H431	H43	0.523500	0.697400	0.732200
H441	H44	0.465400	0.542700	0.686900
H451	H45	0.737800	0.827000	0.604500
H461	H46	0.628300	0.861200	0.666500
H471	H47	0.376700	0.909500	0.591400
H481	H48	0.731500	0.964100	0.501800
H491	H49	0.148600	0.500500	0.519800
H501	H50	0.966800	0.649000	0.465000
H511	H51	0.317200	0.742700	0.440500
H521	H52	0.969700	0.833500	0.384100
H531	H53	0.110600	0.863800	0.359500
H541	H54	0.973300	0.044800	0.371000
H551	H55	0.073800	0.825900	0.554100
H561	H56	0.368600	0.292700	0.485800
H571	H57	0.476500	0.302600	0.267800
H581	H58	0.534600	0.457300	0.313100
H591	H59	0.262200	0.173000	0.395500
H601	H60	0.371700	0.138800	0.333500
H611	H61	0.623300	0.090500	0.408600
H621	H62	0.268500	0.035900	0.498200
C451	C45	0.839000	0.431800	0.502980
C461	C46	0.941500	0.349900	0.533160
C471	C47	0.747800	0.299400	0.546200
C481	C48	0.944600	0.160900	0.596830
C491	C49	0.971300	0.078600	0.544890
C501	C50	0.015500	0.974300	0.576440
C511	C51	0.956200	0.103500	0.468690
C521	C52	0.596400	0.685400	0.562890
C531	C53	0.537900	0.681900	0.683120
C541	C54	0.506000	0.595200	0.657330
C551	C55	0.641600	0.838200	0.617420
C561	C56	0.567400	0.921300	0.558490
C571	C57	0.427700	0.945500	0.554030
C581	C58	0.637300	0.977800	0.501270
C591	C59	0.161000	0.568200	0.497020
C601	C60	0.058500	0.650100	0.466840
C611	C61	0.252200	0.700600	0.453800
C621	C62	0.055400	0.839100	0.403170
C631	C63	0.028700	0.921400	0.455110
C641	C64	0.984500	0.025700	0.423560
C651	C65	0.043800	0.896500	0.531310
C661	C66	0.403600	0.314600	0.437110
C671	C67	0.462100	0.318100	0.316880
C681	C68	0.494000	0.404800	0.342670
C691	C69	0.358400	0.161800	0.382580
C701	C70	0.432600	0.078700	0.441510
C711	C71	0.572300	0.054500	0.445970
C721	C72	0.362700	0.022200	0.498730
N91	N9	0.719500	0.401200	0.510750
N101	N10	0.877100	0.265610	0.560040
N111	N11	0.543300	0.599900	0.583510
N121	N12	0.593300	0.737600	0.622850
N131	N13	0.280500	0.598800	0.489250
N141	N14	0.122900	0.734390	0.439960
N151	N15	0.456700	0.400100	0.416490
N161	N16	0.406700	0.262400	0.377150
