data_SEFVEG_clean_PM
_symmetry_space_group_name_H-M	'P1'
_cell_length_a	17.123600
_cell_length_b	17.123600
_cell_length_c	17.123600
_cell_angle_alpha	90.000000
_cell_angle_beta	90.000000
_cell_angle_gamma	90.000000
_symmetry_Int_Tables_number 1

loop_
_symmetry_equiv_pos_as_xyz
'x,y,z'

loop_
_atom_site_label
_atom_site_type_symbol
_atom_site_fract_x
_atom_site_fract_y
_atom_site_fract_z
N11	N1	0.033020	0.681040	0.411580
C11	C1	0.109110	0.666180	0.389970
H11	H1	0.154100	0.691000	0.410800
H21	H2	0.885900	0.638800	0.427200
N21	N2	0.533020	0.181040	0.911580
C21	C2	0.609110	0.166180	0.889970
H31	H3	0.654100	0.191000	0.910800
H41	H4	0.385900	0.138800	0.927200
N31	N3	0.966980	0.318960	0.411580
C31	C3	0.890890	0.333820	0.389970
H51	H5	0.845900	0.309000	0.410800
H61	H6	0.114100	0.361200	0.427200
N41	N4	0.466980	0.818960	0.911580
C41	C4	0.390890	0.833820	0.889970
H71	H7	0.345900	0.809000	0.910800
H81	H8	0.614100	0.861200	0.927200
N51	N5	0.966980	0.681040	0.588420
C51	C5	0.890890	0.666180	0.610030
H91	H9	0.845900	0.691000	0.589200
H101	H10	0.114100	0.638800	0.572800
N61	N6	0.466980	0.181040	0.088420
C61	C6	0.390890	0.166180	0.110030
H111	H11	0.345900	0.191000	0.089200
H121	H12	0.614100	0.138800	0.072800
N71	N7	0.033020	0.318960	0.588420
C71	C7	0.109110	0.333820	0.610030
H131	H13	0.154100	0.309000	0.589200
H141	H14	0.885900	0.361200	0.572800
N81	N8	0.533020	0.818960	0.088420
C81	C8	0.609110	0.833820	0.110030
H151	H15	0.654100	0.809000	0.089200
H161	H16	0.385900	0.861200	0.072800
N91	N9	0.411580	0.033020	0.681040
C91	C9	0.389970	0.109110	0.666180
H171	H17	0.410800	0.154100	0.691000
H181	H18	0.427200	0.885900	0.638800
N101	N10	0.911580	0.533020	0.181040
C101	C10	0.889970	0.609110	0.166180
H191	H19	0.910800	0.654100	0.191000
H201	H20	0.927200	0.385900	0.138800
N111	N11	0.411580	0.966980	0.318960
C111	C11	0.389970	0.890890	0.333820
H211	H21	0.410800	0.845900	0.309000
H221	H22	0.427200	0.114100	0.361200
N121	N12	0.911580	0.466980	0.818960
C121	C12	0.889970	0.390890	0.833820
H231	H23	0.910800	0.345900	0.809000
H241	H24	0.927200	0.614100	0.861200
N131	N13	0.588420	0.966980	0.681040
C131	C13	0.610030	0.890890	0.666180
H251	H25	0.589200	0.845900	0.691000
H261	H26	0.572800	0.114100	0.638800
N141	N14	0.088420	0.466980	0.181040
C141	C14	0.110030	0.390890	0.166180
H271	H27	0.089200	0.345900	0.191000
H281	H28	0.072800	0.614100	0.138800
N151	N15	0.588420	0.033020	0.318960
C151	C15	0.610030	0.109110	0.333820
H291	H29	0.589200	0.154100	0.309000
H301	H30	0.572800	0.885900	0.361200
N161	N16	0.088420	0.533020	0.818960
C161	C16	0.110030	0.609110	0.833820
H311	H31	0.089200	0.654100	0.809000
H321	H32	0.072800	0.385900	0.861200
N171	N17	0.681040	0.411580	0.033020
C171	C17	0.666180	0.389970	0.109110
H331	H33	0.691000	0.410800	0.154100
H341	H34	0.638800	0.427200	0.885900
N181	N18	0.181040	0.911580	0.533020
C181	C18	0.166180	0.889970	0.609110
H351	H35	0.191000	0.910800	0.654100
H361	H36	0.138800	0.927200	0.385900
N191	N19	0.318960	0.411580	0.966980
C191	C19	0.333820	0.389970	0.890890
H371	H37	0.309000	0.410800	0.845900
H381	H38	0.361200	0.427200	0.114100
N201	N20	0.818960	0.911580	0.466980
C201	C20	0.833820	0.889970	0.390890
H391	H39	0.809000	0.910800	0.345900
H401	H40	0.861200	0.927200	0.614100
N211	N21	0.681040	0.588420	0.966980
C211	C21	0.666180	0.610030	0.890890
H411	H41	0.691000	0.589200	0.845900
H421	H42	0.638800	0.572800	0.114100
N221	N22	0.181040	0.088420	0.466980
C221	C22	0.166180	0.110030	0.390890
H431	H43	0.191000	0.089200	0.345900
H441	H44	0.138800	0.072800	0.614100
N231	N23	0.318960	0.588420	0.033020
C231	C23	0.333820	0.610030	0.109110
H451	H45	0.309000	0.589200	0.154100
H461	H46	0.361200	0.572800	0.885900
N241	N24	0.818960	0.088420	0.533020
C241	C24	0.833820	0.110030	0.609110
H471	H47	0.809000	0.089200	0.654100
H481	H48	0.861200	0.072800	0.385900
N251	N25	0.681040	0.033020	0.411580
C251	C25	0.666180	0.109110	0.389970
H491	H49	0.691000	0.154100	0.410800
H501	H50	0.638800	0.885900	0.427200
N261	N26	0.181040	0.533020	0.911580
C261	C26	0.166180	0.609110	0.889970
H511	H51	0.191000	0.654100	0.910800
H521	H52	0.138800	0.385900	0.927200
N271	N27	0.318960	0.966980	0.411580
C271	C27	0.333820	0.890890	0.389970
H531	H53	0.309000	0.845900	0.410800
H541	H54	0.361200	0.114100	0.427200
N281	N28	0.818960	0.466980	0.911580
C281	C28	0.833820	0.390890	0.889970
H551	H55	0.809000	0.345900	0.910800
H561	H56	0.861200	0.614100	0.927200
N291	N29	0.681040	0.966980	0.588420
C291	C29	0.666180	0.890890	0.610030
H571	H57	0.691000	0.845900	0.589200
H581	H58	0.638800	0.114100	0.572800
N301	N30	0.181040	0.466980	0.088420
C301	C30	0.166180	0.390890	0.110030
H591	H59	0.191000	0.345900	0.089200
H601	H60	0.138800	0.614100	0.072800
N311	N31	0.318960	0.033020	0.588420
C311	C31	0.333820	0.109110	0.610030
H611	H61	0.309000	0.154100	0.589200
H621	H62	0.361200	0.885900	0.572800
N321	N32	0.818960	0.533020	0.088420
C321	C32	0.833820	0.609110	0.110030
H631	H63	0.809000	0.654100	0.089200
H641	H64	0.861200	0.385900	0.072800
N331	N33	0.033020	0.411580	0.681040
C331	C33	0.109110	0.389970	0.666180
H651	H65	0.154100	0.410800	0.691000
H661	H66	0.885900	0.427200	0.638800
N341	N34	0.533020	0.911580	0.181040
C341	C34	0.609110	0.889970	0.166180
H671	H67	0.654100	0.910800	0.191000
H681	H68	0.385900	0.927200	0.138800
N351	N35	0.966980	0.411580	0.318960
C351	C35	0.890890	0.389970	0.333820
H691	H69	0.845900	0.410800	0.309000
H701	H70	0.114100	0.427200	0.361200
N361	N36	0.466980	0.911580	0.818960
C361	C36	0.390890	0.889970	0.833820
H711	H71	0.345900	0.910800	0.809000
H721	H72	0.614100	0.927200	0.861200
N371	N37	0.966980	0.588420	0.681040
C371	C37	0.890890	0.610030	0.666180
H731	H73	0.845900	0.589200	0.691000
H741	H74	0.114100	0.572800	0.638800
N381	N38	0.466980	0.088420	0.181040
C381	C38	0.390890	0.110030	0.166180
H751	H75	0.345900	0.089200	0.191000
H761	H76	0.614100	0.072800	0.138800
N391	N39	0.033020	0.588420	0.318960
C391	C39	0.109110	0.610030	0.333820
H771	H77	0.154100	0.589200	0.309000
H781	H78	0.885900	0.572800	0.361200
N401	N40	0.533020	0.088420	0.818960
C401	C40	0.609110	0.110030	0.833820
H791	H79	0.654100	0.089200	0.809000
H801	H80	0.385900	0.072800	0.861200
N411	N41	0.411580	0.681040	0.033020
C411	C41	0.389970	0.666180	0.109110
H811	H81	0.410800	0.691000	0.154100
H821	H82	0.427200	0.638800	0.885900
N421	N42	0.911580	0.181040	0.533020
C421	C42	0.889970	0.166180	0.609110
H831	H83	0.910800	0.191000	0.654100
H841	H84	0.927200	0.138800	0.385900
N431	N43	0.411580	0.318960	0.966980
C431	C43	0.389970	0.333820	0.890890
H851	H85	0.410800	0.309000	0.845900
H861	H86	0.427200	0.361200	0.114100
N441	N44	0.911580	0.818960	0.466980
C441	C44	0.889970	0.833820	0.390890
H871	H87	0.910800	0.809000	0.345900
H881	H88	0.927200	0.861200	0.614100
N451	N45	0.588420	0.681040	0.966980
C451	C45	0.610030	0.666180	0.890890
H891	H89	0.589200	0.691000	0.845900
H901	H90	0.572800	0.638800	0.114100
N461	N46	0.088420	0.181040	0.466980
C461	C46	0.110030	0.166180	0.390890
H911	H91	0.089200	0.191000	0.345900
H921	H92	0.072800	0.138800	0.614100
N471	N47	0.588420	0.318960	0.033020
C471	C47	0.610030	0.333820	0.109110
H931	H93	0.589200	0.309000	0.154100
H941	H94	0.572800	0.361200	0.885900
N481	N48	0.088420	0.818960	0.533020
C481	C48	0.110030	0.833820	0.609110
H951	H95	0.089200	0.809000	0.654100
H961	H96	0.072800	0.861200	0.385900
Zn11	Zn1	0.000000	0.750000	0.500000
Zn21	Zn2	0.000000	0.250000	0.500000
Zn31	Zn3	0.500000	0.000000	0.750000
Zn41	Zn4	0.500000	0.000000	0.250000
Zn51	Zn5	0.750000	0.500000	0.000000
Zn61	Zn6	0.250000	0.500000	0.000000
Zn71	Zn7	0.750000	0.000000	0.500000
Zn81	Zn8	0.250000	0.000000	0.500000
Zn91	Zn9	0.000000	0.500000	0.750000
Zn101	Zn10	0.000000	0.500000	0.250000
Zn111	Zn11	0.500000	0.750000	0.000000
Zn121	Zn12	0.500000	0.250000	0.000000
C491	C49	0.990100	0.632220	0.367780
C501	C50	0.902200	0.626130	0.373870
H971	H97	0.878000	0.662800	0.337200
C511	C51	0.490100	0.132220	0.867780
C521	C52	0.402200	0.126130	0.873870
H981	H98	0.378000	0.162800	0.837200
C531	C53	0.009900	0.367780	0.367780
C541	C54	0.097800	0.373870	0.373870
H991	H99	0.122000	0.337200	0.337200
C551	C55	0.509900	0.867780	0.867780
C561	C56	0.597800	0.873870	0.873870
H1001	H100	0.622000	0.837200	0.837200
C571	C57	0.009900	0.632220	0.632220
C581	C58	0.097800	0.626130	0.626130
H1011	H101	0.122000	0.662800	0.662800
C591	C59	0.509900	0.132220	0.132220
C601	C60	0.597800	0.126130	0.126130
H1021	H102	0.622000	0.162800	0.162800
C611	C61	0.990100	0.367780	0.632220
C621	C62	0.902200	0.373870	0.626130
H1031	H103	0.878000	0.337200	0.662800
C631	C63	0.490100	0.867780	0.132220
C641	C64	0.402200	0.873870	0.126130
H1041	H104	0.378000	0.837200	0.162800
C651	C65	0.367780	0.990100	0.632220
C661	C66	0.373870	0.902200	0.626130
H1051	H105	0.337200	0.878000	0.662800
C671	C67	0.867780	0.490100	0.132220
C681	C68	0.873870	0.402200	0.126130
H1061	H106	0.837200	0.378000	0.162800
C691	C69	0.367780	0.009900	0.367780
C701	C70	0.373870	0.097800	0.373870
H1071	H107	0.337200	0.122000	0.337200
C711	C71	0.867780	0.509900	0.867780
C721	C72	0.873870	0.597800	0.873870
H1081	H108	0.837200	0.622000	0.837200
C731	C73	0.632220	0.009900	0.632220
C741	C74	0.626130	0.097800	0.626130
H1091	H109	0.662800	0.122000	0.662800
C751	C75	0.132220	0.509900	0.132220
C761	C76	0.126130	0.597800	0.126130
H1101	H110	0.162800	0.622000	0.162800
C771	C77	0.632220	0.990100	0.367780
C781	C78	0.626130	0.902200	0.373870
H1111	H111	0.662800	0.878000	0.337200
C791	C79	0.132220	0.490100	0.867780
C801	C80	0.126130	0.402200	0.873870
H1121	H112	0.162800	0.378000	0.837200
C811	C81	0.632220	0.367780	0.990100
C821	C82	0.626130	0.373870	0.902200
H1131	H113	0.662800	0.337200	0.878000
C831	C83	0.132220	0.867780	0.490100
C841	C84	0.126130	0.873870	0.402200
H1141	H114	0.162800	0.837200	0.378000
C851	C85	0.367780	0.367780	0.009900
C861	C86	0.373870	0.373870	0.097800
H1151	H115	0.337200	0.337200	0.122000
C871	C87	0.867780	0.867780	0.509900
C881	C88	0.873870	0.873870	0.597800
H1161	H116	0.837200	0.837200	0.622000
C891	C89	0.632220	0.632220	0.009900
C901	C90	0.626130	0.626130	0.097800
H1171	H117	0.662800	0.662800	0.122000
C911	C91	0.132220	0.132220	0.509900
C921	C92	0.126130	0.126130	0.597800
H1181	H118	0.162800	0.162800	0.622000
C931	C93	0.367780	0.632220	0.990100
C941	C94	0.373870	0.626130	0.902200
H1191	H119	0.337200	0.662800	0.878000
C951	C95	0.867780	0.132220	0.490100
C961	C96	0.873870	0.126130	0.402200
H1201	H120	0.837200	0.162800	0.378000
