data_SEFVEG02_clean_PM
_symmetry_space_group_name_H-M	'P1'
_cell_length_a	17.133000
_cell_length_b	17.133000
_cell_length_c	17.133000
_cell_angle_alpha	90.000000
_cell_angle_beta	90.000000
_cell_angle_gamma	90.000000
_symmetry_Int_Tables_number 1

loop_
_symmetry_equiv_pos_as_xyz
'x,y,z'

loop_
_atom_site_label
_atom_site_type_symbol
_atom_site_fract_x
_atom_site_fract_y
_atom_site_fract_z
N11	N1	0.033140	0.681140	0.411280
C11	C1	0.109310	0.666100	0.390100
H11	H1	0.154200	0.690800	0.411200
H21	H2	0.885900	0.638700	0.427300
N21	N2	0.533140	0.181140	0.911280
C21	C2	0.609310	0.166100	0.890100
H31	H3	0.654200	0.190800	0.911200
H41	H4	0.385900	0.138700	0.927300
N31	N3	0.966860	0.318860	0.411280
C31	C3	0.890690	0.333900	0.390100
H51	H5	0.845800	0.309200	0.411200
H61	H6	0.114100	0.361300	0.427300
N41	N4	0.466860	0.818860	0.911280
C41	C4	0.390690	0.833900	0.890100
H71	H7	0.345800	0.809200	0.911200
H81	H8	0.614100	0.861300	0.927300
N51	N5	0.966860	0.681140	0.588720
C51	C5	0.890690	0.666100	0.609900
H91	H9	0.845800	0.690800	0.588800
H101	H10	0.114100	0.638700	0.572700
N61	N6	0.466860	0.181140	0.088720
C61	C6	0.390690	0.166100	0.109900
H111	H11	0.345800	0.190800	0.088800
H121	H12	0.614100	0.138700	0.072700
N71	N7	0.033140	0.318860	0.588720
C71	C7	0.109310	0.333900	0.609900
H131	H13	0.154200	0.309200	0.588800
H141	H14	0.885900	0.361300	0.572700
N81	N8	0.533140	0.818860	0.088720
C81	C8	0.609310	0.833900	0.109900
H151	H15	0.654200	0.809200	0.088800
H161	H16	0.385900	0.861300	0.072700
N91	N9	0.411280	0.033140	0.681140
C91	C9	0.390100	0.109310	0.666100
H171	H17	0.411200	0.154200	0.690800
H181	H18	0.427300	0.885900	0.638700
N101	N10	0.911280	0.533140	0.181140
C101	C10	0.890100	0.609310	0.166100
H191	H19	0.911200	0.654200	0.190800
H201	H20	0.927300	0.385900	0.138700
N111	N11	0.411280	0.966860	0.318860
C111	C11	0.390100	0.890690	0.333900
H211	H21	0.411200	0.845800	0.309200
H221	H22	0.427300	0.114100	0.361300
N121	N12	0.911280	0.466860	0.818860
C121	C12	0.890100	0.390690	0.833900
H231	H23	0.911200	0.345800	0.809200
H241	H24	0.927300	0.614100	0.861300
N131	N13	0.588720	0.966860	0.681140
C131	C13	0.609900	0.890690	0.666100
H251	H25	0.588800	0.845800	0.690800
H261	H26	0.572700	0.114100	0.638700
N141	N14	0.088720	0.466860	0.181140
C141	C14	0.109900	0.390690	0.166100
H271	H27	0.088800	0.345800	0.190800
H281	H28	0.072700	0.614100	0.138700
N151	N15	0.588720	0.033140	0.318860
C151	C15	0.609900	0.109310	0.333900
H291	H29	0.588800	0.154200	0.309200
H301	H30	0.572700	0.885900	0.361300
N161	N16	0.088720	0.533140	0.818860
C161	C16	0.109900	0.609310	0.833900
H311	H31	0.088800	0.654200	0.809200
H321	H32	0.072700	0.385900	0.861300
N171	N17	0.681140	0.411280	0.033140
C171	C17	0.666100	0.390100	0.109310
H331	H33	0.690800	0.411200	0.154200
H341	H34	0.638700	0.427300	0.885900
N181	N18	0.181140	0.911280	0.533140
C181	C18	0.166100	0.890100	0.609310
H351	H35	0.190800	0.911200	0.654200
H361	H36	0.138700	0.927300	0.385900
N191	N19	0.318860	0.411280	0.966860
C191	C19	0.333900	0.390100	0.890690
H371	H37	0.309200	0.411200	0.845800
H381	H38	0.361300	0.427300	0.114100
N201	N20	0.818860	0.911280	0.466860
C201	C20	0.833900	0.890100	0.390690
H391	H39	0.809200	0.911200	0.345800
H401	H40	0.861300	0.927300	0.614100
N211	N21	0.681140	0.588720	0.966860
C211	C21	0.666100	0.609900	0.890690
H411	H41	0.690800	0.588800	0.845800
H421	H42	0.638700	0.572700	0.114100
N221	N22	0.181140	0.088720	0.466860
C221	C22	0.166100	0.109900	0.390690
H431	H43	0.190800	0.088800	0.345800
H441	H44	0.138700	0.072700	0.614100
N231	N23	0.318860	0.588720	0.033140
C231	C23	0.333900	0.609900	0.109310
H451	H45	0.309200	0.588800	0.154200
H461	H46	0.361300	0.572700	0.885900
N241	N24	0.818860	0.088720	0.533140
C241	C24	0.833900	0.109900	0.609310
H471	H47	0.809200	0.088800	0.654200
H481	H48	0.861300	0.072700	0.385900
N251	N25	0.681140	0.033140	0.411280
C251	C25	0.666100	0.109310	0.390100
H491	H49	0.690800	0.154200	0.411200
H501	H50	0.638700	0.885900	0.427300
N261	N26	0.181140	0.533140	0.911280
C261	C26	0.166100	0.609310	0.890100
H511	H51	0.190800	0.654200	0.911200
H521	H52	0.138700	0.385900	0.927300
N271	N27	0.318860	0.966860	0.411280
C271	C27	0.333900	0.890690	0.390100
H531	H53	0.309200	0.845800	0.411200
H541	H54	0.361300	0.114100	0.427300
N281	N28	0.818860	0.466860	0.911280
C281	C28	0.833900	0.390690	0.890100
H551	H55	0.809200	0.345800	0.911200
H561	H56	0.861300	0.614100	0.927300
N291	N29	0.681140	0.966860	0.588720
C291	C29	0.666100	0.890690	0.609900
H571	H57	0.690800	0.845800	0.588800
H581	H58	0.638700	0.114100	0.572700
N301	N30	0.181140	0.466860	0.088720
C301	C30	0.166100	0.390690	0.109900
H591	H59	0.190800	0.345800	0.088800
H601	H60	0.138700	0.614100	0.072700
N311	N31	0.318860	0.033140	0.588720
C311	C31	0.333900	0.109310	0.609900
H611	H61	0.309200	0.154200	0.588800
H621	H62	0.361300	0.885900	0.572700
N321	N32	0.818860	0.533140	0.088720
C321	C32	0.833900	0.609310	0.109900
H631	H63	0.809200	0.654200	0.088800
H641	H64	0.861300	0.385900	0.072700
N331	N33	0.033140	0.411280	0.681140
C331	C33	0.109310	0.390100	0.666100
H651	H65	0.154200	0.411200	0.690800
H661	H66	0.885900	0.427300	0.638700
N341	N34	0.533140	0.911280	0.181140
C341	C34	0.609310	0.890100	0.166100
H671	H67	0.654200	0.911200	0.190800
H681	H68	0.385900	0.927300	0.138700
N351	N35	0.966860	0.411280	0.318860
C351	C35	0.890690	0.390100	0.333900
H691	H69	0.845800	0.411200	0.309200
H701	H70	0.114100	0.427300	0.361300
N361	N36	0.466860	0.911280	0.818860
C361	C36	0.390690	0.890100	0.833900
H711	H71	0.345800	0.911200	0.809200
H721	H72	0.614100	0.927300	0.861300
N371	N37	0.966860	0.588720	0.681140
C371	C37	0.890690	0.609900	0.666100
H731	H73	0.845800	0.588800	0.690800
H741	H74	0.114100	0.572700	0.638700
N381	N38	0.466860	0.088720	0.181140
C381	C38	0.390690	0.109900	0.166100
H751	H75	0.345800	0.088800	0.190800
H761	H76	0.614100	0.072700	0.138700
N391	N39	0.033140	0.588720	0.318860
C391	C39	0.109310	0.609900	0.333900
H771	H77	0.154200	0.588800	0.309200
H781	H78	0.885900	0.572700	0.361300
N401	N40	0.533140	0.088720	0.818860
C401	C40	0.609310	0.109900	0.833900
H791	H79	0.654200	0.088800	0.809200
H801	H80	0.385900	0.072700	0.861300
N411	N41	0.411280	0.681140	0.033140
C411	C41	0.390100	0.666100	0.109310
H811	H81	0.411200	0.690800	0.154200
H821	H82	0.427300	0.638700	0.885900
N421	N42	0.911280	0.181140	0.533140
C421	C42	0.890100	0.166100	0.609310
H831	H83	0.911200	0.190800	0.654200
H841	H84	0.927300	0.138700	0.385900
N431	N43	0.411280	0.318860	0.966860
C431	C43	0.390100	0.333900	0.890690
H851	H85	0.411200	0.309200	0.845800
H861	H86	0.427300	0.361300	0.114100
N441	N44	0.911280	0.818860	0.466860
C441	C44	0.890100	0.833900	0.390690
H871	H87	0.911200	0.809200	0.345800
H881	H88	0.927300	0.861300	0.614100
N451	N45	0.588720	0.681140	0.966860
C451	C45	0.609900	0.666100	0.890690
H891	H89	0.588800	0.690800	0.845800
H901	H90	0.572700	0.638700	0.114100
N461	N46	0.088720	0.181140	0.466860
C461	C46	0.109900	0.166100	0.390690
H911	H91	0.088800	0.190800	0.345800
H921	H92	0.072700	0.138700	0.614100
N471	N47	0.588720	0.318860	0.033140
C471	C47	0.609900	0.333900	0.109310
H931	H93	0.588800	0.309200	0.154200
H941	H94	0.572700	0.361300	0.885900
N481	N48	0.088720	0.818860	0.533140
C481	C48	0.109900	0.833900	0.609310
H951	H95	0.088800	0.809200	0.654200
H961	H96	0.072700	0.861300	0.385900
Zn11	Zn1	0.000000	0.750000	0.500000
Zn21	Zn2	0.000000	0.250000	0.500000
Zn31	Zn3	0.500000	0.000000	0.750000
Zn41	Zn4	0.500000	0.000000	0.250000
Zn51	Zn5	0.750000	0.500000	0.000000
Zn61	Zn6	0.250000	0.500000	0.000000
Zn71	Zn7	0.750000	0.000000	0.500000
Zn81	Zn8	0.250000	0.000000	0.500000
Zn91	Zn9	0.000000	0.500000	0.750000
Zn101	Zn10	0.000000	0.500000	0.250000
Zn111	Zn11	0.500000	0.750000	0.000000
Zn121	Zn12	0.500000	0.250000	0.000000
C491	C49	0.990000	0.632190	0.367810
C501	C50	0.902200	0.626000	0.374000
H971	H97	0.877900	0.662600	0.337400
C511	C51	0.490000	0.132190	0.867810
C521	C52	0.402200	0.126000	0.874000
H981	H98	0.377900	0.162600	0.837400
C531	C53	0.010000	0.367810	0.367810
C541	C54	0.097800	0.374000	0.374000
H991	H99	0.122100	0.337400	0.337400
C551	C55	0.510000	0.867810	0.867810
C561	C56	0.597800	0.874000	0.874000
H1001	H100	0.622100	0.837400	0.837400
C571	C57	0.010000	0.632190	0.632190
C581	C58	0.097800	0.626000	0.626000
H1011	H101	0.122100	0.662600	0.662600
C591	C59	0.510000	0.132190	0.132190
C601	C60	0.597800	0.126000	0.126000
H1021	H102	0.622100	0.162600	0.162600
C611	C61	0.990000	0.367810	0.632190
C621	C62	0.902200	0.374000	0.626000
H1031	H103	0.877900	0.337400	0.662600
C631	C63	0.490000	0.867810	0.132190
C641	C64	0.402200	0.874000	0.126000
H1041	H104	0.377900	0.837400	0.162600
C651	C65	0.367810	0.990000	0.632190
C661	C66	0.374000	0.902200	0.626000
H1051	H105	0.337400	0.877900	0.662600
C671	C67	0.867810	0.490000	0.132190
C681	C68	0.874000	0.402200	0.126000
H1061	H106	0.837400	0.377900	0.162600
C691	C69	0.367810	0.010000	0.367810
C701	C70	0.374000	0.097800	0.374000
H1071	H107	0.337400	0.122100	0.337400
C711	C71	0.867810	0.510000	0.867810
C721	C72	0.874000	0.597800	0.874000
H1081	H108	0.837400	0.622100	0.837400
C731	C73	0.632190	0.010000	0.632190
C741	C74	0.626000	0.097800	0.626000
H1091	H109	0.662600	0.122100	0.662600
C751	C75	0.132190	0.510000	0.132190
C761	C76	0.126000	0.597800	0.126000
H1101	H110	0.162600	0.622100	0.162600
C771	C77	0.632190	0.990000	0.367810
C781	C78	0.626000	0.902200	0.374000
H1111	H111	0.662600	0.877900	0.337400
C791	C79	0.132190	0.490000	0.867810
C801	C80	0.126000	0.402200	0.874000
H1121	H112	0.162600	0.377900	0.837400
C811	C81	0.632190	0.367810	0.990000
C821	C82	0.626000	0.374000	0.902200
H1131	H113	0.662600	0.337400	0.877900
C831	C83	0.132190	0.867810	0.490000
C841	C84	0.126000	0.874000	0.402200
H1141	H114	0.162600	0.837400	0.377900
C851	C85	0.367810	0.367810	0.010000
C861	C86	0.374000	0.374000	0.097800
H1151	H115	0.337400	0.337400	0.122100
C871	C87	0.867810	0.867810	0.510000
C881	C88	0.874000	0.874000	0.597800
H1161	H116	0.837400	0.837400	0.622100
C891	C89	0.632190	0.632190	0.010000
C901	C90	0.626000	0.626000	0.097800
H1171	H117	0.662600	0.662600	0.122100
C911	C91	0.132190	0.132190	0.510000
C921	C92	0.126000	0.126000	0.597800
H1181	H118	0.162600	0.162600	0.622100
C931	C93	0.367810	0.632190	0.990000
C941	C94	0.374000	0.626000	0.902200
H1191	H119	0.337400	0.662600	0.877900
C951	C95	0.867810	0.132190	0.490000
C961	C96	0.874000	0.126000	0.402200
H1201	H120	0.837400	0.162600	0.377900
