data_SEFWOR_clean_PM
_symmetry_space_group_name_H-M	'P1'
_cell_length_a	17.079700
_cell_length_b	17.079700
_cell_length_c	17.079700
_cell_angle_alpha	90.000000
_cell_angle_beta	90.000000
_cell_angle_gamma	90.000000
_symmetry_Int_Tables_number 1

loop_
_symmetry_equiv_pos_as_xyz
'x,y,z'

loop_
_atom_site_label
_atom_site_type_symbol
_atom_site_fract_x
_atom_site_fract_y
_atom_site_fract_z
N11	N1	0.030590	0.680370	0.411200
C11	C1	0.106580	0.663260	0.391840
H11	H1	0.151800	0.686800	0.414100
H21	H2	0.880600	0.644700	0.421600
N21	N2	0.106580	0.608160	0.336740
N31	N3	0.530590	0.180370	0.911200
C21	C2	0.606580	0.163260	0.891840
H31	H3	0.651800	0.186800	0.914100
H41	H4	0.380600	0.144700	0.921600
N41	N4	0.606580	0.108160	0.836740
N51	N5	0.969410	0.319630	0.411200
C31	C3	0.893420	0.336740	0.391840
H51	H5	0.848200	0.313200	0.414100
H61	H6	0.119400	0.355300	0.421600
N61	N6	0.893420	0.391840	0.336740
N71	N7	0.469410	0.819630	0.911200
C41	C4	0.393420	0.836740	0.891840
H71	H7	0.348200	0.813200	0.914100
H81	H8	0.619400	0.855300	0.921600
N81	N8	0.393420	0.891840	0.836740
N91	N9	0.969410	0.680370	0.588800
C51	C5	0.893420	0.663260	0.608160
H91	H9	0.848200	0.686800	0.585900
H101	H10	0.119400	0.644700	0.578400
N101	N10	0.893420	0.608160	0.663260
N111	N11	0.469410	0.180370	0.088800
C61	C6	0.393420	0.163260	0.108160
H111	H11	0.348200	0.186800	0.085900
H121	H12	0.619400	0.144700	0.078400
N121	N12	0.393420	0.108160	0.163260
N131	N13	0.030590	0.319630	0.588800
C71	C7	0.106580	0.336740	0.608160
H131	H13	0.151800	0.313200	0.585900
H141	H14	0.880600	0.355300	0.578400
N141	N14	0.106580	0.391840	0.663260
N151	N15	0.530590	0.819630	0.088800
C81	C8	0.606580	0.836740	0.108160
H151	H15	0.651800	0.813200	0.085900
H161	H16	0.380600	0.855300	0.078400
N161	N16	0.606580	0.891840	0.163260
N171	N17	0.411200	0.030590	0.680370
C91	C9	0.391840	0.106580	0.663260
H171	H17	0.414100	0.151800	0.686800
H181	H18	0.421600	0.880600	0.644700
N181	N18	0.336740	0.106580	0.608160
N191	N19	0.911200	0.530590	0.180370
C101	C10	0.891840	0.606580	0.163260
H191	H19	0.914100	0.651800	0.186800
H201	H20	0.921600	0.380600	0.144700
N201	N20	0.836740	0.606580	0.108160
N211	N21	0.411200	0.969410	0.319630
C111	C11	0.391840	0.893420	0.336740
H211	H21	0.414100	0.848200	0.313200
H221	H22	0.421600	0.119400	0.355300
N221	N22	0.336740	0.893420	0.391840
N231	N23	0.911200	0.469410	0.819630
C121	C12	0.891840	0.393420	0.836740
H231	H23	0.914100	0.348200	0.813200
H241	H24	0.921600	0.619400	0.855300
N241	N24	0.836740	0.393420	0.891840
N251	N25	0.588800	0.969410	0.680370
C131	C13	0.608160	0.893420	0.663260
H251	H25	0.585900	0.848200	0.686800
H261	H26	0.578400	0.119400	0.644700
N261	N26	0.663260	0.893420	0.608160
N271	N27	0.088800	0.469410	0.180370
C141	C14	0.108160	0.393420	0.163260
H271	H27	0.085900	0.348200	0.186800
H281	H28	0.078400	0.619400	0.144700
N281	N28	0.163260	0.393420	0.108160
N291	N29	0.588800	0.030590	0.319630
C151	C15	0.608160	0.106580	0.336740
H291	H29	0.585900	0.151800	0.313200
H301	H30	0.578400	0.880600	0.355300
N301	N30	0.663260	0.106580	0.391840
N311	N31	0.088800	0.530590	0.819630
C161	C16	0.108160	0.606580	0.836740
H311	H31	0.085900	0.651800	0.813200
H321	H32	0.078400	0.380600	0.855300
N321	N32	0.163260	0.606580	0.891840
N331	N33	0.680370	0.411200	0.030590
C171	C17	0.663260	0.391840	0.106580
H331	H33	0.686800	0.414100	0.151800
H341	H34	0.644700	0.421600	0.880600
N341	N34	0.608160	0.336740	0.106580
N351	N35	0.180370	0.911200	0.530590
C181	C18	0.163260	0.891840	0.606580
H351	H35	0.186800	0.914100	0.651800
H361	H36	0.144700	0.921600	0.380600
N361	N36	0.108160	0.836740	0.606580
N371	N37	0.319630	0.411200	0.969410
C191	C19	0.336740	0.391840	0.893420
H371	H37	0.313200	0.414100	0.848200
H381	H38	0.355300	0.421600	0.119400
N381	N38	0.391840	0.336740	0.893420
N391	N39	0.819630	0.911200	0.469410
C201	C20	0.836740	0.891840	0.393420
H391	H39	0.813200	0.914100	0.348200
H401	H40	0.855300	0.921600	0.619400
N401	N40	0.891840	0.836740	0.393420
N411	N41	0.680370	0.588800	0.969410
C211	C21	0.663260	0.608160	0.893420
H411	H41	0.686800	0.585900	0.848200
H421	H42	0.644700	0.578400	0.119400
N421	N42	0.608160	0.663260	0.893420
N431	N43	0.180370	0.088800	0.469410
C221	C22	0.163260	0.108160	0.393420
H431	H43	0.186800	0.085900	0.348200
H441	H44	0.144700	0.078400	0.619400
N441	N44	0.108160	0.163260	0.393420
N451	N45	0.319630	0.588800	0.030590
C231	C23	0.336740	0.608160	0.106580
H451	H45	0.313200	0.585900	0.151800
H461	H46	0.355300	0.578400	0.880600
N461	N46	0.391840	0.663260	0.106580
N471	N47	0.819630	0.088800	0.530590
C241	C24	0.836740	0.108160	0.606580
H471	H47	0.813200	0.085900	0.651800
H481	H48	0.855300	0.078400	0.380600
N481	N48	0.891840	0.163260	0.606580
N491	N49	0.680370	0.030590	0.411200
H491	H49	0.686800	0.151800	0.414100
H501	H50	0.644700	0.880600	0.421600
N501	N50	0.180370	0.530590	0.911200
H511	H51	0.186800	0.651800	0.914100
H521	H52	0.144700	0.380600	0.921600
N511	N51	0.319630	0.969410	0.411200
H531	H53	0.313200	0.848200	0.414100
H541	H54	0.355300	0.119400	0.421600
N521	N52	0.819630	0.469410	0.911200
H551	H55	0.813200	0.348200	0.914100
H561	H56	0.855300	0.619400	0.921600
N531	N53	0.680370	0.969410	0.588800
H571	H57	0.686800	0.848200	0.585900
H581	H58	0.644700	0.119400	0.578400
N541	N54	0.180370	0.469410	0.088800
H591	H59	0.186800	0.348200	0.085900
H601	H60	0.144700	0.619400	0.078400
N551	N55	0.319630	0.030590	0.588800
H611	H61	0.313200	0.151800	0.585900
H621	H62	0.355300	0.880600	0.578400
N561	N56	0.819630	0.530590	0.088800
H631	H63	0.813200	0.651800	0.085900
H641	H64	0.855300	0.380600	0.078400
N571	N57	0.030590	0.411200	0.680370
H651	H65	0.151800	0.414100	0.686800
H661	H66	0.880600	0.421600	0.644700
N581	N58	0.530590	0.911200	0.180370
H671	H67	0.651800	0.914100	0.186800
H681	H68	0.380600	0.921600	0.144700
N591	N59	0.969410	0.411200	0.319630
H691	H69	0.848200	0.414100	0.313200
H701	H70	0.119400	0.421600	0.355300
N601	N60	0.469410	0.911200	0.819630
H711	H71	0.348200	0.914100	0.813200
H721	H72	0.619400	0.921600	0.855300
N611	N61	0.969410	0.588800	0.680370
H731	H73	0.848200	0.585900	0.686800
H741	H74	0.119400	0.578400	0.644700
N621	N62	0.469410	0.088800	0.180370
H751	H75	0.348200	0.085900	0.186800
H761	H76	0.619400	0.078400	0.144700
N631	N63	0.030590	0.588800	0.319630
H771	H77	0.151800	0.585900	0.313200
H781	H78	0.880600	0.578400	0.355300
N641	N64	0.530590	0.088800	0.819630
H791	H79	0.651800	0.085900	0.813200
H801	H80	0.380600	0.078400	0.855300
N651	N65	0.411200	0.680370	0.030590
H811	H81	0.414100	0.686800	0.151800
H821	H82	0.421600	0.644700	0.880600
N661	N66	0.911200	0.180370	0.530590
H831	H83	0.914100	0.186800	0.651800
H841	H84	0.921600	0.144700	0.380600
N671	N67	0.411200	0.319630	0.969410
H851	H85	0.414100	0.313200	0.848200
H861	H86	0.421600	0.355300	0.119400
N681	N68	0.911200	0.819630	0.469410
H871	H87	0.914100	0.813200	0.348200
H881	H88	0.921600	0.855300	0.619400
N691	N69	0.588800	0.680370	0.969410
H891	H89	0.585900	0.686800	0.848200
H901	H90	0.578400	0.644700	0.119400
N701	N70	0.088800	0.180370	0.469410
H911	H91	0.085900	0.186800	0.348200
H921	H92	0.078400	0.144700	0.619400
N711	N71	0.588800	0.319630	0.030590
H931	H93	0.585900	0.313200	0.151800
H941	H94	0.578400	0.355300	0.880600
N721	N72	0.088800	0.819630	0.530590
H951	H95	0.085900	0.813200	0.651800
H961	H96	0.078400	0.855300	0.380600
Zn11	Zn1	0.000000	0.750000	0.500000
Zn21	Zn2	0.000000	0.250000	0.500000
Zn31	Zn3	0.500000	0.000000	0.750000
Zn41	Zn4	0.500000	0.000000	0.250000
Zn51	Zn5	0.750000	0.500000	0.000000
Zn61	Zn6	0.250000	0.500000	0.000000
Zn71	Zn7	0.750000	0.000000	0.500000
Zn81	Zn8	0.250000	0.000000	0.500000
Zn91	Zn9	0.000000	0.500000	0.750000
Zn101	Zn10	0.000000	0.500000	0.250000
Zn111	Zn11	0.500000	0.750000	0.000000
Zn121	Zn12	0.500000	0.250000	0.000000
C251	C25	0.986700	0.633820	0.366180
C261	C26	0.898600	0.631200	0.368790
H971	H97	0.877200	0.668850	0.331150
C271	C27	0.486700	0.133820	0.866180
C281	C28	0.398600	0.131200	0.868790
H981	H98	0.377200	0.168850	0.831150
C291	C29	0.013300	0.366180	0.366180
C301	C30	0.101400	0.368800	0.368790
H991	H99	0.122800	0.331150	0.331150
C311	C31	0.513300	0.866180	0.866180
C321	C32	0.601400	0.868800	0.868790
H1001	H100	0.622800	0.831150	0.831150
C331	C33	0.013300	0.633820	0.633820
C341	C34	0.101400	0.631200	0.631210
H1011	H101	0.122800	0.668850	0.668850
C351	C35	0.513300	0.133820	0.133820
C361	C36	0.601400	0.131200	0.131210
H1021	H102	0.622800	0.168850	0.168850
C371	C37	0.986700	0.366180	0.633820
C381	C38	0.898600	0.368800	0.631210
H1031	H103	0.877200	0.331150	0.668850
C391	C39	0.486700	0.866180	0.133820
C401	C40	0.398600	0.868800	0.131210
H1041	H104	0.377200	0.831150	0.168850
C411	C41	0.366180	0.986700	0.633820
C421	C42	0.368790	0.898600	0.631200
H1051	H105	0.331150	0.877200	0.668850
C431	C43	0.866180	0.486700	0.133820
C441	C44	0.868790	0.398600	0.131200
H1061	H106	0.831150	0.377200	0.168850
C451	C45	0.366180	0.013300	0.366180
C461	C46	0.368790	0.101400	0.368800
H1071	H107	0.331150	0.122800	0.331150
C471	C47	0.866180	0.513300	0.866180
C481	C48	0.868790	0.601400	0.868800
H1081	H108	0.831150	0.622800	0.831150
C491	C49	0.633820	0.013300	0.633820
C501	C50	0.631210	0.101400	0.631200
H1091	H109	0.668850	0.122800	0.668850
C511	C51	0.133820	0.513300	0.133820
C521	C52	0.131210	0.601400	0.131200
H1101	H110	0.168850	0.622800	0.168850
C531	C53	0.633820	0.986700	0.366180
C541	C54	0.631210	0.898600	0.368800
H1111	H111	0.668850	0.877200	0.331150
C551	C55	0.133820	0.486700	0.866180
C561	C56	0.131210	0.398600	0.868800
H1121	H112	0.168850	0.377200	0.831150
C571	C57	0.633820	0.366180	0.986700
C581	C58	0.631200	0.368790	0.898600
H1131	H113	0.668850	0.331150	0.877200
C591	C59	0.133820	0.866180	0.486700
C601	C60	0.131200	0.868790	0.398600
H1141	H114	0.168850	0.831150	0.377200
C611	C61	0.366180	0.366180	0.013300
C621	C62	0.368800	0.368790	0.101400
H1151	H115	0.331150	0.331150	0.122800
C631	C63	0.866180	0.866180	0.513300
C641	C64	0.868790	0.868790	0.601400
H1161	H116	0.831150	0.831150	0.622800
C651	C65	0.633820	0.633820	0.013300
C661	C66	0.631200	0.631210	0.101400
H1171	H117	0.668850	0.668850	0.122800
C671	C67	0.133820	0.133820	0.513300
C681	C68	0.131200	0.131210	0.601400
H1181	H118	0.168850	0.168850	0.622800
C691	C69	0.366180	0.633820	0.986700
C701	C70	0.368800	0.631210	0.898600
H1191	H119	0.331150	0.668850	0.877200
C711	C71	0.866180	0.133820	0.486700
C721	C72	0.868790	0.131210	0.398600
H1201	H120	0.831150	0.168850	0.377200
