data_SEGBIR_clean_PM
_symmetry_space_group_name_H-M	'P1'
_cell_length_a	4.801300
_cell_length_b	19.495100
_cell_length_c	19.495100
_cell_angle_alpha	60.666600
_cell_angle_beta	85.291000
_cell_angle_gamma	94.709000
_symmetry_Int_Tables_number 1

loop_
_symmetry_equiv_pos_as_xyz
'x,y,z'

loop_
_atom_site_label
_atom_site_type_symbol
_atom_site_fract_x
_atom_site_fract_y
_atom_site_fract_z
Cu11	Cu1	0.500000	0.500000	0.500000
Cu21	Cu2	0.000000	0.500000	0.000000
Cu31	Cu3	0.000000	0.000000	0.500000
H11	H1	0.517000	0.557500	0.629400
H21	H2	0.184600	0.340200	0.740900
H31	H3	0.708700	0.525100	0.782100
H41	H4	0.228000	0.354800	0.851200
H51	H5	0.916300	0.409800	0.599900
H61	H6	0.146400	0.629400	0.813100
H71	H7	0.925500	0.740900	0.918900
H81	H8	0.490800	0.782100	0.692800
H91	H9	0.079200	0.851200	0.794000
H101	H10	0.516200	0.599900	0.990300
H111	H11	0.959500	0.813100	0.557500
H121	H12	0.844400	0.918900	0.340200
H131	H13	0.183600	0.692800	0.525100
H141	H14	0.873200	0.794000	0.354800
H151	H15	0.506500	0.990300	0.409800
H161	H16	0.483000	0.442500	0.370600
H171	H17	0.815400	0.659800	0.259100
H181	H18	0.291300	0.474900	0.217900
H191	H19	0.772000	0.645200	0.148800
H201	H20	0.083700	0.590200	0.400100
H211	H21	0.853600	0.370600	0.186900
H221	H22	0.074500	0.259100	0.081100
H231	H23	0.509200	0.217900	0.307200
H241	H24	0.920800	0.148800	0.206000
H251	H25	0.483800	0.400100	0.009700
H261	H26	0.040500	0.186900	0.442500
H271	H27	0.155600	0.081100	0.659800
H281	H28	0.816400	0.307200	0.474900
H291	H29	0.126800	0.206000	0.645200
H301	H30	0.493500	0.009700	0.590200
C11	C1	0.631850	0.516920	0.639370
C21	C2	0.971790	0.440690	0.826720
C31	C3	0.090140	0.377150	0.748930
C41	C4	0.803970	0.488510	0.773500
C51	C5	0.779790	0.481250	0.705580
C61	C6	0.112890	0.386200	0.813630
C71	C7	0.918560	0.425930	0.694750
C81	C8	0.563620	0.653710	0.447150
C91	C9	0.271220	0.639370	0.843710
C101	C10	0.798510	0.826720	0.732590
C111	C11	0.839070	0.748930	0.873920
C121	C12	0.577470	0.773500	0.737990
C131	C13	0.485370	0.705580	0.813170
C141	C14	0.926520	0.813630	0.800170
C151	C15	0.613310	0.694750	0.879320
C161	C16	0.010770	0.447150	0.899140
C171	C17	0.114930	0.843710	0.516920
C181	C18	0.531100	0.732590	0.440690
C191	C19	0.712990	0.873920	0.377150
C201	C20	0.315460	0.737990	0.488510
C211	C21	0.298540	0.813170	0.481250
C221	C22	0.726690	0.800170	0.386200
C231	C23	0.492630	0.879320	0.425930
C241	C24	0.909910	0.899140	0.653710
C251	C25	0.368150	0.483080	0.360630
C261	C26	0.028210	0.559310	0.173280
C271	C27	0.909860	0.622850	0.251070
C281	C28	0.196030	0.511490	0.226500
C291	C29	0.220210	0.518750	0.294420
C301	C30	0.887110	0.613800	0.186370
C311	C31	0.081440	0.574070	0.305250
C321	C32	0.436380	0.346290	0.552850
C331	C33	0.728780	0.360630	0.156290
C341	C34	0.201490	0.173280	0.267410
C351	C35	0.160930	0.251070	0.126080
C361	C36	0.422530	0.226500	0.262010
C371	C37	0.514630	0.294420	0.186830
C381	C38	0.073480	0.186370	0.199830
C391	C39	0.386690	0.305250	0.120680
C401	C40	0.989230	0.552850	0.100860
C411	C41	0.885070	0.156290	0.483080
C421	C42	0.468900	0.267410	0.559310
C431	C43	0.287010	0.126080	0.622850
C441	C44	0.684540	0.262010	0.511490
C451	C45	0.701460	0.186830	0.518750
C461	C46	0.273310	0.199830	0.613800
C471	C47	0.507370	0.120680	0.574070
C481	C48	0.090090	0.100860	0.346290
N11	N1	0.677160	0.485690	0.593410
N21	N2	0.850370	0.430120	0.627210
N31	N3	0.270570	0.593410	0.920900
N41	N4	0.477580	0.627210	0.942670
N51	N5	0.191470	0.920900	0.485690
N61	N6	0.420250	0.942670	0.430120
N71	N7	0.322840	0.514310	0.406590
N81	N8	0.149630	0.569880	0.372790
N91	N9	0.729430	0.406590	0.079100
N101	N10	0.522420	0.372790	0.057330
N111	N11	0.808530	0.079100	0.514310
N121	N12	0.579750	0.057330	0.569880
O11	O1	0.370970	0.595840	0.491730
O21	O2	0.774770	0.648110	0.409900
O31	O3	0.862700	0.491730	0.912430
O41	O4	0.184670	0.409900	0.941990
O51	O5	0.775130	0.912430	0.595840
O61	O6	0.126660	0.941990	0.648110
O71	O7	0.629030	0.404160	0.508270
O81	O8	0.225230	0.351890	0.590100
O91	O9	0.137300	0.508270	0.087570
O101	O10	0.815330	0.590100	0.058010
O111	O11	0.224870	0.087570	0.404160
O121	O12	0.873340	0.058010	0.351890
