data_SEHSOO_clean_PM
_symmetry_space_group_name_H-M	'P1'
_cell_length_a	10.844000
_cell_length_b	10.961000
_cell_length_c	15.585000
_cell_angle_alpha	90.000000
_cell_angle_beta	90.000000
_cell_angle_gamma	100.557000
_symmetry_Int_Tables_number 1

loop_
_symmetry_equiv_pos_as_xyz
'x,y,z'

loop_
_atom_site_label
_atom_site_type_symbol
_atom_site_fract_x
_atom_site_fract_y
_atom_site_fract_z
Ho11	Ho1	0.857070	0.103000	0.897970
Ho21	Ho2	0.642930	0.397000	0.397970
Ho31	Ho3	0.142930	0.897000	0.102030
Ho41	Ho4	0.357070	0.603000	0.602030
H11	H1	0.398800	0.088200	0.953300
H21	H2	0.552400	0.320000	0.766100
H31	H3	0.184200	0.277700	0.814600
H41	H4	0.101200	0.411800	0.453300
H51	H5	0.947600	0.180000	0.266100
H61	H6	0.315800	0.222300	0.314600
H71	H7	0.601200	0.911800	0.046700
H81	H8	0.447600	0.680000	0.233900
H91	H9	0.815800	0.722300	0.185400
H101	H10	0.898800	0.588200	0.546700
H111	H11	0.052400	0.820000	0.733900
H121	H12	0.684200	0.777700	0.685400
C11	C1	0.160700	0.116400	0.943500
C21	C2	0.622300	0.165500	0.878200
C31	C3	0.357100	0.404200	0.709400
C41	C4	0.273900	0.175200	0.892400
C51	C5	0.390700	0.144500	0.910000
C61	C6	0.495300	0.199100	0.862100
C71	C7	0.482500	0.283300	0.797500
C81	C8	0.366200	0.313100	0.779500
C91	C9	0.262400	0.258400	0.826900
C101	C10	0.339300	0.383600	0.443500
C111	C11	0.877700	0.334500	0.378200
C121	C12	0.142900	0.095800	0.209400
C131	C13	0.226100	0.324800	0.392400
C141	C14	0.109300	0.355500	0.410000
C151	C15	0.004700	0.300900	0.362100
C161	C16	0.017500	0.216700	0.297500
C171	C17	0.133800	0.186900	0.279500
C181	C18	0.237600	0.241600	0.326900
C191	C19	0.839300	0.883600	0.056500
C201	C20	0.377700	0.834500	0.121800
C211	C21	0.642900	0.595800	0.290600
C221	C22	0.726100	0.824800	0.107600
C231	C23	0.609300	0.855500	0.090000
C241	C24	0.504700	0.800900	0.137900
C251	C25	0.517500	0.716700	0.202500
C261	C26	0.633800	0.686900	0.220500
C271	C27	0.737600	0.741600	0.173100
C281	C28	0.660700	0.616400	0.556500
C291	C29	0.122300	0.665500	0.621800
C301	C30	0.857100	0.904200	0.790600
C311	C31	0.773900	0.675200	0.607600
C321	C32	0.890700	0.644500	0.590000
C331	C33	0.995300	0.699100	0.637900
C341	C34	0.982500	0.783300	0.702500
C351	C35	0.866200	0.813100	0.720500
C361	C36	0.762400	0.758400	0.673100
O11	O1	0.063500	0.163200	0.937900
O21	O2	0.170700	0.025400	0.989400
O31	O3	0.636300	0.090600	0.935600
O41	O4	0.711500	0.212400	0.829800
O51	O5	0.451100	0.440500	0.663200
O61	O6	0.256800	0.446400	0.699400
O71	O7	0.436500	0.336800	0.437900
O81	O8	0.329300	0.474600	0.489400
O91	O9	0.863700	0.409400	0.435600
O101	O10	0.788500	0.287600	0.329800
O111	O11	0.048900	0.059500	0.163200
O121	O12	0.243200	0.053600	0.199400
O131	O13	0.936500	0.836800	0.062100
O141	O14	0.829300	0.974600	0.010600
O151	O15	0.363700	0.909400	0.064400
O161	O16	0.288500	0.787600	0.170200
O171	O17	0.548900	0.559500	0.336800
O181	O18	0.743200	0.553600	0.300600
O191	O19	0.563500	0.663200	0.562100
O201	O20	0.670700	0.525400	0.510600
O211	O21	0.136300	0.590600	0.564400
O221	O22	0.211500	0.712400	0.670200
O231	O23	0.951100	0.940500	0.836800
O241	O24	0.756800	0.946400	0.800600
