data_SEHSUU_clean_PM
_symmetry_space_group_name_H-M	'P1'
_cell_length_a	10.815800
_cell_length_b	10.933100
_cell_length_c	15.551400
_cell_angle_alpha	90.000000
_cell_angle_beta	90.000000
_cell_angle_gamma	100.557000
_symmetry_Int_Tables_number 1

loop_
_symmetry_equiv_pos_as_xyz
'x,y,z'

loop_
_atom_site_label
_atom_site_type_symbol
_atom_site_fract_x
_atom_site_fract_y
_atom_site_fract_z
Er11	Er1	0.643030	0.397230	0.898010
Er21	Er2	0.856970	0.102770	0.398010
Er31	Er3	0.356970	0.602770	0.101990
Er41	Er4	0.143030	0.897230	0.601990
H11	H1	0.100200	0.409900	0.953600
H21	H2	0.948000	0.181100	0.765600
H31	H3	0.315700	0.221800	0.814100
H41	H4	0.399800	0.090100	0.453600
H51	H5	0.552000	0.318900	0.265600
H61	H6	0.184300	0.278200	0.314100
H71	H7	0.899800	0.590100	0.046400
H81	H8	0.052000	0.818900	0.234400
H91	H9	0.684300	0.778200	0.185900
H101	H10	0.600200	0.909900	0.546400
H111	H11	0.448000	0.681100	0.734400
H121	H12	0.815700	0.721800	0.685900
C11	C1	0.339700	0.384500	0.944400
C21	C2	0.877700	0.335900	0.877500
C31	C3	0.143000	0.096100	0.708200
C41	C4	0.227100	0.324900	0.892000
C51	C5	0.108600	0.354400	0.909600
C61	C6	0.004700	0.301700	0.862200
C71	C7	0.018100	0.217500	0.797200
C81	C8	0.133900	0.186800	0.778800
C91	C9	0.237400	0.241400	0.826400
C101	C10	0.160300	0.115500	0.444400
C111	C11	0.622300	0.164100	0.377500
C121	C12	0.357000	0.403900	0.208200
C131	C13	0.272900	0.175100	0.392000
C141	C14	0.391400	0.145600	0.409600
C151	C15	0.495300	0.198300	0.362200
C161	C16	0.481900	0.282500	0.297200
C171	C17	0.366100	0.313200	0.278800
C181	C18	0.262600	0.258600	0.326400
C191	C19	0.660300	0.615500	0.055600
C201	C20	0.122300	0.664100	0.122500
C211	C21	0.857000	0.903900	0.291800
C221	C22	0.772900	0.675100	0.108000
C231	C23	0.891400	0.645600	0.090400
C241	C24	0.995300	0.698300	0.137800
C251	C25	0.981900	0.782500	0.202800
C261	C26	0.866100	0.813200	0.221200
C271	C27	0.762600	0.758600	0.173600
C281	C28	0.839700	0.884500	0.555600
C291	C29	0.377700	0.835900	0.622500
C301	C30	0.643000	0.596100	0.791800
C311	C31	0.727100	0.824900	0.608000
C321	C32	0.608600	0.854400	0.590400
C331	C33	0.504700	0.801700	0.637800
C341	C34	0.518100	0.717500	0.702800
C351	C35	0.633900	0.686800	0.721200
C361	C36	0.737400	0.741400	0.673600
O11	O1	0.437800	0.336900	0.937100
O21	O2	0.329400	0.475000	0.989700
O31	O3	0.863500	0.409400	0.936500
O41	O4	0.787900	0.288300	0.829500
O51	O5	0.048200	0.059000	0.662400
O61	O6	0.243500	0.053400	0.699000
O71	O7	0.062200	0.163100	0.437100
O81	O8	0.170600	0.025000	0.489700
O91	O9	0.636500	0.090600	0.436500
O101	O10	0.712100	0.211700	0.329500
O111	O11	0.451800	0.441000	0.162400
O121	O12	0.256500	0.446600	0.199000
O131	O13	0.562200	0.663100	0.062900
O141	O14	0.670600	0.525000	0.010300
O151	O15	0.136500	0.590600	0.063500
O161	O16	0.212100	0.711700	0.170500
O171	O17	0.951800	0.941000	0.337600
O181	O18	0.756500	0.946600	0.301000
O191	O19	0.937800	0.836900	0.562900
O201	O20	0.829400	0.975000	0.510300
O211	O21	0.363500	0.909400	0.563500
O221	O22	0.287900	0.788300	0.670500
O231	O23	0.548200	0.559000	0.837600
O241	O24	0.743500	0.553400	0.801000
