data_SEHTAB_clean_PM
_symmetry_space_group_name_H-M	'P1'
_cell_length_a	10.782000
_cell_length_b	10.881000
_cell_length_c	15.510000
_cell_angle_alpha	90.000000
_cell_angle_beta	90.000000
_cell_angle_gamma	100.260000
_symmetry_Int_Tables_number 1

loop_
_symmetry_equiv_pos_as_xyz
'x,y,z'

loop_
_atom_site_label
_atom_site_type_symbol
_atom_site_fract_x
_atom_site_fract_y
_atom_site_fract_z
Yb11	Yb1	0.143970	0.398560	0.898000
Yb21	Yb2	0.356030	0.101440	0.398000
Yb31	Yb3	0.856030	0.601440	0.102000
Yb41	Yb4	0.643970	0.898560	0.602000
H11	H1	0.448200	0.183500	0.765000
H21	H2	0.818700	0.222900	0.813600
H31	H3	0.601400	0.412200	0.954200
H41	H4	0.051800	0.316500	0.265000
H51	H5	0.681300	0.277100	0.313600
H61	H6	0.898600	0.087800	0.454200
H71	H7	0.551800	0.816500	0.235000
H81	H8	0.181300	0.777100	0.186400
H91	H9	0.398600	0.587800	0.045800
H101	H10	0.948200	0.683500	0.735000
H111	H11	0.318700	0.722900	0.686400
H121	H12	0.101400	0.912200	0.545800
C11	C1	0.378600	0.336200	0.877600
C21	C2	0.505200	0.302900	0.862200
C31	C3	0.518300	0.219800	0.796800
C41	C4	0.636000	0.189700	0.778100
C51	C5	0.740300	0.243100	0.825700
C61	C6	0.728100	0.326900	0.891700
C71	C7	0.609900	0.356500	0.910000
C81	C8	0.644500	0.097800	0.707600
C91	C9	0.842000	0.385500	0.943000
C101	C10	0.121400	0.163800	0.377600
C111	C11	0.994800	0.197100	0.362200
C121	C12	0.981700	0.280200	0.296800
C131	C13	0.864000	0.310300	0.278100
C141	C14	0.759700	0.256900	0.325700
C151	C15	0.771900	0.173100	0.391700
C161	C16	0.890100	0.143500	0.410000
C171	C17	0.855500	0.402200	0.207600
C181	C18	0.658000	0.114500	0.443000
C191	C19	0.621400	0.663800	0.122400
C201	C20	0.494800	0.697100	0.137800
C211	C21	0.481700	0.780200	0.203200
C221	C22	0.364000	0.810300	0.221900
C231	C23	0.259700	0.756900	0.174300
C241	C24	0.271900	0.673100	0.108300
C251	C25	0.390100	0.643500	0.090000
C261	C26	0.355500	0.902200	0.292400
C271	C27	0.158000	0.614500	0.057000
C281	C28	0.878600	0.836200	0.622400
C291	C29	0.005200	0.802900	0.637800
C301	C30	0.018300	0.719800	0.703200
C311	C31	0.136000	0.689700	0.721900
C321	C32	0.240300	0.743100	0.674300
C331	C33	0.228100	0.826900	0.608300
C341	C34	0.109900	0.856500	0.590000
C351	C35	0.144500	0.597800	0.792400
C361	C36	0.342000	0.885500	0.557000
O11	O1	0.288300	0.290300	0.829900
O21	O2	0.364000	0.411800	0.936800
O31	O3	0.745300	0.055000	0.697100
O41	O4	0.550000	0.061100	0.661400
O51	O5	0.830900	0.477200	0.988900
O61	O6	0.939600	0.338200	0.936800
O71	O7	0.211700	0.209700	0.329900
O81	O8	0.136000	0.088200	0.436800
O91	O9	0.754700	0.445000	0.197100
O101	O10	0.950000	0.438900	0.161400
O111	O11	0.669100	0.022800	0.488900
O121	O12	0.560400	0.161800	0.436800
O131	O13	0.711700	0.709700	0.170100
O141	O14	0.636000	0.588200	0.063200
O151	O15	0.254700	0.945000	0.302900
O161	O16	0.450000	0.938900	0.338600
O171	O17	0.169100	0.522800	0.011100
O181	O18	0.060400	0.661800	0.063200
O191	O19	0.788300	0.790300	0.670100
O201	O20	0.864000	0.911800	0.563200
O211	O21	0.245300	0.555000	0.802900
O221	O22	0.050000	0.561100	0.838600
O231	O23	0.330900	0.977200	0.511100
O241	O24	0.439600	0.838200	0.563200
