data_SERCEZ_clean_PM
_symmetry_space_group_name_H-M	'P1'
_cell_length_a	17.123800
_cell_length_b	20.115000
_cell_length_c	27.129100
_cell_angle_alpha	90.000000
_cell_angle_beta	90.000000
_cell_angle_gamma	90.000000
_symmetry_Int_Tables_number 1

loop_
_symmetry_equiv_pos_as_xyz
'x,y,z'

loop_
_atom_site_label
_atom_site_type_symbol
_atom_site_fract_x
_atom_site_fract_y
_atom_site_fract_z
Zn11	Zn1	0.260050	0.828620	0.590430
Zn21	Zn2	0.239950	0.171380	0.090430
Zn31	Zn3	0.260050	0.671380	0.590430
Zn41	Zn4	0.239950	0.328620	0.090430
Zn51	Zn5	0.386280	0.750000	0.649120
Zn61	Zn6	0.394550	0.750000	0.532650
Zn71	Zn7	0.113720	0.250000	0.149120
Zn81	Zn8	0.105450	0.250000	0.032650
H11	H1	0.213700	0.971000	0.478600
H21	H2	0.349000	0.851200	0.403000
H31	H3	0.315500	0.904800	0.332100
H41	H4	0.141000	0.057100	0.338500
H51	H5	0.315500	0.977300	0.274800
H61	H6	0.124500	0.125600	0.272300
H71	H7	0.281900	0.027100	0.203800
H81	H8	0.882600	0.847100	0.603300
H91	H9	0.015000	0.845800	0.599600
H101	H10	0.286300	0.029000	0.978600
H111	H11	0.151000	0.148800	0.903000
H121	H12	0.184500	0.095200	0.832100
H131	H13	0.359000	0.942900	0.838500
H141	H14	0.184500	0.022700	0.774800
H151	H15	0.375500	0.874400	0.772300
H161	H16	0.218100	0.972900	0.703800
H171	H17	0.617400	0.152900	0.103300
H181	H18	0.485000	0.154200	0.099600
H191	H19	0.213700	0.529000	0.478600
H201	H20	0.349000	0.648800	0.403000
H211	H21	0.315500	0.595200	0.332100
H221	H22	0.141000	0.442900	0.338500
H231	H23	0.315500	0.522700	0.274800
H241	H24	0.124500	0.374400	0.272300
H251	H25	0.281900	0.472900	0.203800
H261	H26	0.882600	0.652900	0.603300
H271	H27	0.015000	0.654200	0.599600
H281	H28	0.286300	0.471000	0.978600
H291	H29	0.151000	0.351200	0.903000
H301	H30	0.184500	0.404800	0.832100
H311	H31	0.359000	0.557100	0.838500
H321	H32	0.184500	0.477300	0.774800
H331	H33	0.375500	0.625600	0.772300
H341	H34	0.218100	0.527100	0.703800
H351	H35	0.617400	0.347100	0.103300
H361	H36	0.485000	0.345800	0.099600
H371	H37	0.637400	0.750000	0.673100
H381	H38	0.622300	0.750000	0.528700
H391	H39	0.764100	0.750000	0.531900
H401	H40	0.767500	0.750000	0.667400
H411	H41	0.862600	0.250000	0.173100
H421	H42	0.877700	0.250000	0.028700
H431	H43	0.735900	0.250000	0.031900
H441	H44	0.732500	0.250000	0.167400
C11	C1	0.297900	0.865000	0.494200
C21	C2	0.286900	0.906600	0.448700
C31	C3	0.237900	0.958200	0.449500
C41	C4	0.315900	0.887700	0.404600
C51	C5	0.297600	0.921200	0.362100
C61	C6	0.223400	0.993300	0.404500
C71	C7	0.254700	0.977000	0.362500
C81	C8	0.237700	0.014700	0.317200
C91	C9	0.177100	0.055300	0.312900
C101	C10	0.274400	0.007500	0.275500
C111	C11	0.165300	0.095100	0.271700
C121	C12	0.258300	0.040200	0.233100
C131	C13	0.207800	0.091800	0.233300
C141	C14	0.191700	0.131200	0.188300
C151	C15	0.908100	0.806500	0.600600
C161	C16	0.988100	0.805700	0.598500
C171	C17	0.202100	0.135000	0.994200
C181	C18	0.213100	0.093400	0.948700
C191	C19	0.262100	0.041800	0.949500
C201	C20	0.184100	0.112300	0.904600
C211	C21	0.202400	0.078800	0.862100
C221	C22	0.276600	0.006700	0.904500
C231	C23	0.245300	0.023000	0.862500
C241	C24	0.262300	0.985300	0.817200
C251	C25	0.322900	0.944700	0.812900
C261	C26	0.225600	0.992500	0.775500
C271	C27	0.334700	0.904900	0.771700
C281	C28	0.241700	0.959800	0.733100
C291	C29	0.292200	0.908200	0.733300
C301	C30	0.308300	0.868800	0.688300
C311	C31	0.591900	0.193500	0.100600
C321	C32	0.511900	0.194300	0.098500
C331	C33	0.297900	0.635000	0.494200
C341	C34	0.286900	0.593400	0.448700
C351	C35	0.237900	0.541800	0.449500
C361	C36	0.315900	0.612300	0.404600
C371	C37	0.297600	0.578800	0.362100
C381	C38	0.223400	0.506700	0.404500
C391	C39	0.254700	0.523000	0.362500
C401	C40	0.237700	0.485300	0.317200
C411	C41	0.177100	0.444700	0.312900
C421	C42	0.274400	0.492500	0.275500
C431	C43	0.165300	0.404900	0.271700
C441	C44	0.258300	0.459800	0.233100
C451	C45	0.207800	0.408200	0.233300
C461	C46	0.191700	0.368800	0.188300
C471	C47	0.908100	0.693500	0.600600
C481	C48	0.988100	0.694300	0.598500
C491	C49	0.202100	0.365000	0.994200
C501	C50	0.213100	0.406600	0.948700
C511	C51	0.262100	0.458200	0.949500
C521	C52	0.184100	0.387700	0.904600
C531	C53	0.202400	0.421200	0.862100
C541	C54	0.276600	0.493300	0.904500
C551	C55	0.245300	0.477000	0.862500
C561	C56	0.262300	0.514700	0.817200
C571	C57	0.322900	0.555300	0.812900
C581	C58	0.225600	0.507500	0.775500
C591	C59	0.334700	0.595100	0.771700
C601	C60	0.241700	0.540200	0.733100
C611	C61	0.292200	0.591800	0.733300
C621	C62	0.308300	0.631200	0.688300
C631	C63	0.591900	0.306500	0.100600
C641	C64	0.511900	0.305700	0.098500
C651	C65	0.529000	0.750000	0.604300
C661	C66	0.618800	0.750000	0.601500
C671	C67	0.661100	0.750000	0.642300
C681	C68	0.650100	0.750000	0.558100
C691	C69	0.737800	0.750000	0.561900
C701	C70	0.739700	0.750000	0.637900
C711	C71	0.780500	0.750000	0.599100
C721	C72	0.865000	0.750000	0.599000
C731	C73	0.028200	0.750000	0.594800
C741	C74	0.115300	0.750000	0.594100
C751	C75	0.971000	0.250000	0.104300
C761	C76	0.881200	0.250000	0.101500
C771	C77	0.838900	0.250000	0.142300
C781	C78	0.849900	0.250000	0.058100
C791	C79	0.762200	0.250000	0.061900
C801	C80	0.760300	0.250000	0.137900
C811	C81	0.719500	0.250000	0.099100
C821	C82	0.635000	0.250000	0.099000
C831	C83	0.471800	0.250000	0.094800
C841	C84	0.384700	0.250000	0.094100
O11	O1	0.264000	0.883800	0.532490
O21	O2	0.353000	0.823900	0.492900
O31	O3	0.231600	0.120200	0.150080
O41	O4	0.141300	0.176100	0.192940
O51	O5	0.148300	0.803800	0.592800
O61	O6	0.236000	0.116200	0.032490
O71	O7	0.147000	0.176100	0.992900
O81	O8	0.268400	0.879800	0.650080
O91	O9	0.358700	0.823900	0.692940
O101	O10	0.351700	0.196200	0.092800
O111	O11	0.264000	0.616200	0.532490
O121	O12	0.353000	0.676100	0.492900
O131	O13	0.231600	0.379800	0.150080
O141	O14	0.141300	0.323900	0.192940
O151	O15	0.148300	0.696200	0.592800
O161	O16	0.236000	0.383800	0.032490
O171	O17	0.147000	0.323900	0.992900
O181	O18	0.268400	0.620200	0.650080
O191	O19	0.358700	0.676100	0.692940
O201	O20	0.351700	0.303800	0.092800
O211	O21	0.498300	0.750000	0.644600
O221	O22	0.494600	0.750000	0.563500
O231	O23	0.323400	0.750000	0.590540
O241	O24	0.001700	0.250000	0.144600
O251	O25	0.005400	0.250000	0.063500
O261	O26	0.176600	0.250000	0.090540
Zn91	Zn9	0.739950	0.328620	0.409570
Zn101	Zn10	0.760050	0.671380	0.909570
Zn111	Zn11	0.739950	0.171380	0.409570
Zn121	Zn12	0.760050	0.828620	0.909570
Zn131	Zn13	0.613720	0.250000	0.350880
Zn141	Zn14	0.605450	0.250000	0.467350
Zn151	Zn15	0.886280	0.750000	0.850880
Zn161	Zn16	0.894550	0.750000	0.967350
H451	H45	0.786300	0.471000	0.521400
H461	H46	0.651000	0.351200	0.597000
H471	H47	0.684500	0.404800	0.667900
H481	H48	0.859000	0.557100	0.661500
H491	H49	0.684500	0.477300	0.725200
H501	H50	0.875500	0.625600	0.727700
H511	H51	0.718100	0.527100	0.796200
H521	H52	0.117400	0.347100	0.396700
H531	H53	0.985000	0.345800	0.400400
H541	H54	0.713700	0.529000	0.021400
H551	H55	0.849000	0.648800	0.097000
H561	H56	0.815500	0.595200	0.167900
H571	H57	0.641000	0.442900	0.161500
H581	H58	0.815500	0.522700	0.225200
H591	H59	0.624500	0.374400	0.227700
H601	H60	0.781900	0.472900	0.296200
H611	H61	0.382600	0.652900	0.896700
H621	H62	0.515000	0.654200	0.900400
H631	H63	0.786300	0.029000	0.521400
H641	H64	0.651000	0.148800	0.597000
H651	H65	0.684500	0.095200	0.667900
H661	H66	0.859000	0.942900	0.661500
H671	H67	0.684500	0.022700	0.725200
H681	H68	0.875500	0.874400	0.727700
H691	H69	0.718100	0.972900	0.796200
H701	H70	0.117400	0.152900	0.396700
H711	H71	0.985000	0.154200	0.400400
H721	H72	0.713700	0.971000	0.021400
H731	H73	0.849000	0.851200	0.097000
H741	H74	0.815500	0.904800	0.167900
H751	H75	0.641000	0.057100	0.161500
H761	H76	0.815500	0.977300	0.225200
H771	H77	0.624500	0.125600	0.227700
H781	H78	0.781900	0.027100	0.296200
H791	H79	0.382600	0.847100	0.896700
H801	H80	0.515000	0.845800	0.900400
H811	H81	0.362600	0.250000	0.326900
H821	H82	0.377700	0.250000	0.471300
H831	H83	0.235900	0.250000	0.468100
H841	H84	0.232500	0.250000	0.332600
H851	H85	0.137400	0.750000	0.826900
H861	H86	0.122300	0.750000	0.971300
H871	H87	0.264100	0.750000	0.968100
H881	H88	0.267500	0.750000	0.832600
C851	C85	0.702100	0.365000	0.505800
C861	C86	0.713100	0.406600	0.551300
C871	C87	0.762100	0.458200	0.550500
C881	C88	0.684100	0.387700	0.595400
C891	C89	0.702400	0.421200	0.637900
C901	C90	0.776600	0.493300	0.595500
C911	C91	0.745300	0.477000	0.637500
C921	C92	0.762300	0.514700	0.682800
C931	C93	0.822900	0.555300	0.687100
C941	C94	0.725600	0.507500	0.724500
C951	C95	0.834700	0.595100	0.728300
C961	C96	0.741700	0.540200	0.766900
C971	C97	0.792200	0.591800	0.766700
C981	C98	0.808300	0.631200	0.811700
C991	C99	0.091900	0.306500	0.399400
C1001	C100	0.011900	0.305700	0.401500
C1011	C101	0.797900	0.635000	0.005800
C1021	C102	0.786900	0.593400	0.051300
C1031	C103	0.737900	0.541800	0.050500
C1041	C104	0.815900	0.612300	0.095400
C1051	C105	0.797600	0.578800	0.137900
C1061	C106	0.723400	0.506700	0.095500
C1071	C107	0.754700	0.523000	0.137500
C1081	C108	0.737700	0.485300	0.182800
C1091	C109	0.677100	0.444700	0.187100
C1101	C110	0.774400	0.492500	0.224500
C1111	C111	0.665300	0.404900	0.228300
C1121	C112	0.758300	0.459800	0.266900
C1131	C113	0.707800	0.408200	0.266700
C1141	C114	0.691700	0.368800	0.311700
C1151	C115	0.408100	0.693500	0.899400
C1161	C116	0.488100	0.694300	0.901500
C1171	C117	0.702100	0.135000	0.505800
C1181	C118	0.713100	0.093400	0.551300
C1191	C119	0.762100	0.041800	0.550500
C1201	C120	0.684100	0.112300	0.595400
C1211	C121	0.702400	0.078800	0.637900
C1221	C122	0.776600	0.006700	0.595500
C1231	C123	0.745300	0.023000	0.637500
C1241	C124	0.762300	0.985300	0.682800
C1251	C125	0.822900	0.944700	0.687100
C1261	C126	0.725600	0.992500	0.724500
C1271	C127	0.834700	0.904900	0.728300
C1281	C128	0.741700	0.959800	0.766900
C1291	C129	0.792200	0.908200	0.766700
C1301	C130	0.808300	0.868800	0.811700
C1311	C131	0.091900	0.193500	0.399400
C1321	C132	0.011900	0.194300	0.401500
C1331	C133	0.797900	0.865000	0.005800
C1341	C134	0.786900	0.906600	0.051300
C1351	C135	0.737900	0.958200	0.050500
C1361	C136	0.815900	0.887700	0.095400
C1371	C137	0.797600	0.921200	0.137900
C1381	C138	0.723400	0.993300	0.095500
C1391	C139	0.754700	0.977000	0.137500
C1401	C140	0.737700	0.014700	0.182800
C1411	C141	0.677100	0.055300	0.187100
C1421	C142	0.774400	0.007500	0.224500
C1431	C143	0.665300	0.095100	0.228300
C1441	C144	0.758300	0.040200	0.266900
C1451	C145	0.707800	0.091800	0.266700
C1461	C146	0.691700	0.131200	0.311700
C1471	C147	0.408100	0.806500	0.899400
C1481	C148	0.488100	0.805700	0.901500
C1491	C149	0.471000	0.250000	0.395700
C1501	C150	0.381200	0.250000	0.398500
C1511	C151	0.338900	0.250000	0.357700
C1521	C152	0.349900	0.250000	0.441900
C1531	C153	0.262200	0.250000	0.438100
C1541	C154	0.260300	0.250000	0.362100
C1551	C155	0.219500	0.250000	0.400900
C1561	C156	0.135000	0.250000	0.401000
C1571	C157	0.971800	0.250000	0.405200
C1581	C158	0.884700	0.250000	0.405900
C1591	C159	0.029000	0.750000	0.895700
C1601	C160	0.118800	0.750000	0.898500
C1611	C161	0.161100	0.750000	0.857700
C1621	C162	0.150100	0.750000	0.941900
C1631	C163	0.237800	0.750000	0.938100
C1641	C164	0.239700	0.750000	0.862100
C1651	C165	0.280500	0.750000	0.900900
C1661	C166	0.365000	0.750000	0.901000
C1671	C167	0.528200	0.750000	0.905200
C1681	C168	0.615300	0.750000	0.905900
O271	O27	0.736000	0.383800	0.467510
O281	O28	0.647000	0.323900	0.507100
O291	O29	0.768400	0.620200	0.849920
O301	O30	0.858700	0.676100	0.807060
O311	O31	0.851700	0.303800	0.407200
O321	O32	0.764000	0.616200	0.967510
O331	O33	0.853000	0.676100	0.007100
O341	O34	0.731600	0.379800	0.349920
O351	O35	0.641300	0.323900	0.307060
O361	O36	0.648300	0.696200	0.907200
O371	O37	0.736000	0.116200	0.467510
O381	O38	0.647000	0.176100	0.507100
O391	O39	0.768400	0.879800	0.849920
O401	O40	0.858700	0.823900	0.807060
O411	O41	0.851700	0.196200	0.407200
O421	O42	0.764000	0.883800	0.967510
O431	O43	0.853000	0.823900	0.007100
O441	O44	0.731600	0.120200	0.349920
O451	O45	0.641300	0.176100	0.307060
O461	O46	0.648300	0.803800	0.907200
O471	O47	0.501700	0.250000	0.355400
O481	O48	0.505400	0.250000	0.436500
O491	O49	0.676600	0.250000	0.409460
O501	O50	0.998300	0.750000	0.855400
O511	O51	0.994600	0.750000	0.936500
O521	O52	0.823400	0.750000	0.909460
