data_SERJUV_clean_PM
_symmetry_space_group_name_H-M	'P1'
_cell_length_a	8.508300
_cell_length_b	15.704000
_cell_length_c	28.452000
_cell_angle_alpha	90.000000
_cell_angle_beta	90.000000
_cell_angle_gamma	90.000000
_symmetry_Int_Tables_number 1

loop_
_symmetry_equiv_pos_as_xyz
'x,y,z'

loop_
_atom_site_label
_atom_site_type_symbol
_atom_site_fract_x
_atom_site_fract_y
_atom_site_fract_z
Y11	Y1	0.973780	0.801420	0.584860
Y21	Y2	0.526220	0.301420	0.415140
Y31	Y3	0.026220	0.198580	0.084860
Y41	Y4	0.473780	0.698580	0.915140
Y51	Y5	0.026220	0.198580	0.415140
Y61	Y6	0.473780	0.698580	0.584860
Y71	Y7	0.973780	0.801420	0.915140
Y81	Y8	0.526220	0.301420	0.084860
H11	H1	0.898700	0.464300	0.398400
H21	H2	0.277300	0.526400	0.476300
H31	H3	0.902400	0.681800	0.464700
H41	H4	0.326300	0.595500	0.680700
H51	H5	0.601300	0.964300	0.601600
H61	H6	0.222700	0.026400	0.523700
H71	H7	0.597600	0.181800	0.535300
H81	H8	0.173700	0.095500	0.319300
H91	H9	0.101300	0.535700	0.898400
H101	H10	0.722700	0.473600	0.976300
H111	H11	0.097600	0.318200	0.964700
H121	H12	0.673700	0.404500	0.180700
H131	H13	0.398700	0.035700	0.101600
H141	H14	0.777300	0.973600	0.023700
H151	H15	0.402400	0.818200	0.035300
H161	H16	0.826300	0.904500	0.819300
H171	H17	0.101300	0.535700	0.601600
H181	H18	0.722700	0.473600	0.523700
H191	H19	0.097600	0.318200	0.535300
H201	H20	0.673700	0.404500	0.319300
H211	H21	0.398700	0.035700	0.398400
H221	H22	0.777300	0.973600	0.476300
H231	H23	0.402400	0.818200	0.464700
H241	H24	0.826300	0.904500	0.680700
H251	H25	0.898700	0.464300	0.101600
H261	H26	0.277300	0.526400	0.023700
H271	H27	0.902400	0.681800	0.035300
H281	H28	0.326300	0.595500	0.819300
H291	H29	0.601300	0.964300	0.898400
H301	H30	0.222700	0.026400	0.976300
H311	H31	0.597600	0.181800	0.964700
H321	H32	0.173700	0.095500	0.180700
H331	H33	0.103200	0.782900	0.750000
H341	H34	0.396800	0.282900	0.250000
H351	H35	0.896800	0.217100	0.250000
H361	H36	0.603200	0.717100	0.750000
C11	C1	0.951400	0.503800	0.418160
C21	C2	0.099200	0.482200	0.434780
C31	C3	0.175700	0.539100	0.464330
C41	C4	0.102100	0.614000	0.475950
C51	C5	0.953100	0.629800	0.456730
C61	C6	0.172700	0.676400	0.510580
C71	C7	0.170800	0.398000	0.423960
C81	C8	0.295200	0.620500	0.709640
C91	C9	0.210500	0.695500	0.707960
C101	C10	0.166500	0.733300	0.662010
C111	C11	0.548600	0.003800	0.581840
C121	C12	0.400800	0.982200	0.565220
C131	C13	0.324300	0.039100	0.535670
C141	C14	0.397900	0.114000	0.524050
C151	C15	0.546900	0.129800	0.543270
C161	C16	0.327300	0.176400	0.489420
C171	C17	0.329200	0.898000	0.576040
C181	C18	0.204800	0.120500	0.290360
C191	C19	0.289500	0.195500	0.292040
C201	C20	0.333500	0.233300	0.337990
C211	C21	0.048600	0.496200	0.918160
C221	C22	0.900800	0.517800	0.934780
C231	C23	0.824300	0.460900	0.964330
C241	C24	0.897900	0.386000	0.975950
C251	C25	0.046900	0.370200	0.956730
C261	C26	0.827300	0.323600	0.010580
C271	C27	0.829200	0.602000	0.923960
C281	C28	0.704800	0.379500	0.209640
C291	C29	0.789500	0.304500	0.207960
C301	C30	0.833500	0.266700	0.162010
C311	C31	0.451400	0.996200	0.081840
C321	C32	0.599200	0.017800	0.065220
C331	C33	0.675700	0.960900	0.035670
C341	C34	0.602100	0.886000	0.024050
C351	C35	0.453100	0.870200	0.043270
C361	C36	0.672700	0.823600	0.989420
C371	C37	0.670800	0.102000	0.076040
C381	C38	0.795200	0.879500	0.790360
C391	C39	0.710500	0.804500	0.792040
C401	C40	0.666500	0.766700	0.837990
C411	C41	0.048600	0.496200	0.581840
C421	C42	0.900800	0.517800	0.565220
C431	C43	0.824300	0.460900	0.535670
C441	C44	0.897900	0.386000	0.524050
C451	C45	0.046900	0.370200	0.543270
C461	C46	0.827300	0.323600	0.489420
C471	C47	0.829200	0.602000	0.576040
C481	C48	0.704800	0.379500	0.290360
C491	C49	0.789500	0.304500	0.292040
C501	C50	0.833500	0.266700	0.337990
C511	C51	0.451400	0.996200	0.418160
C521	C52	0.599200	0.017800	0.434780
C531	C53	0.675700	0.960900	0.464330
C541	C54	0.602100	0.886000	0.475950
C551	C55	0.453100	0.870200	0.456730
C561	C56	0.672700	0.823600	0.510580
C571	C57	0.670800	0.102000	0.423960
C581	C58	0.795200	0.879500	0.709640
C591	C59	0.710500	0.804500	0.707960
C601	C60	0.666500	0.766700	0.662010
C611	C61	0.951400	0.503800	0.081840
C621	C62	0.099200	0.482200	0.065220
C631	C63	0.175700	0.539100	0.035670
C641	C64	0.102100	0.614000	0.024050
C651	C65	0.953100	0.629800	0.043270
C661	C66	0.172700	0.676400	0.989420
C671	C67	0.170800	0.398000	0.076040
C681	C68	0.295200	0.620500	0.790360
C691	C69	0.210500	0.695500	0.792040
C701	C70	0.166500	0.733300	0.837990
C711	C71	0.548600	0.003800	0.918160
C721	C72	0.400800	0.982200	0.934780
C731	C73	0.324300	0.039100	0.964330
C741	C74	0.397900	0.114000	0.975950
C751	C75	0.546900	0.129800	0.956730
C761	C76	0.327300	0.176400	0.010580
C771	C77	0.329200	0.898000	0.923960
C781	C78	0.204800	0.120500	0.209640
C791	C79	0.289500	0.195500	0.207960
C801	C80	0.333500	0.233300	0.162010
C811	C81	0.165000	0.732600	0.750000
C821	C82	0.335000	0.232600	0.250000
C831	C83	0.835000	0.267400	0.250000
C841	C84	0.665000	0.767400	0.750000
N11	N1	0.878900	0.576800	0.428250
N21	N2	0.621100	0.076800	0.571750
N31	N3	0.121100	0.423200	0.928250
N41	N4	0.378900	0.923200	0.071750
N51	N5	0.121100	0.423200	0.571750
N61	N6	0.378900	0.923200	0.428250
N71	N7	0.878900	0.576800	0.071750
N81	N8	0.621100	0.076800	0.928250
N91	N9	0.336800	0.580100	0.750000
N101	N10	0.163200	0.080100	0.250000
N111	N11	0.663200	0.419900	0.250000
N121	N12	0.836800	0.919900	0.750000
O11	O1	0.060900	0.789700	0.661350
O21	O2	0.229200	0.707700	0.624300
O31	O3	0.093000	0.740700	0.520720
O41	O4	0.308600	0.658800	0.525800
O51	O5	0.081300	0.340800	0.408260
O61	O6	0.316100	0.388700	0.431530
O71	O7	0.439100	0.289700	0.338650
O81	O8	0.270800	0.207700	0.375700
O91	O9	0.407000	0.240700	0.479280
O101	O10	0.191400	0.158800	0.474200
O111	O11	0.418700	0.840800	0.591740
O121	O12	0.183900	0.888700	0.568470
O131	O13	0.939100	0.210300	0.161350
O141	O14	0.770800	0.292300	0.124300
O151	O15	0.907000	0.259300	0.020720
O161	O16	0.691400	0.341200	0.025800
O171	O17	0.918700	0.659200	0.908260
O181	O18	0.683900	0.611300	0.931530
O191	O19	0.560900	0.710300	0.838650
O201	O20	0.729200	0.792300	0.875700
O211	O21	0.593000	0.759300	0.979280
O221	O22	0.808600	0.841200	0.974200
O231	O23	0.581300	0.159200	0.091740
O241	O24	0.816100	0.111300	0.068470
O251	O25	0.939100	0.210300	0.338650
O261	O26	0.770800	0.292300	0.375700
O271	O27	0.907000	0.259300	0.479280
O281	O28	0.691400	0.341200	0.474200
O291	O29	0.918700	0.659200	0.591740
O301	O30	0.683900	0.611300	0.568470
O311	O31	0.560900	0.710300	0.661350
O321	O32	0.729200	0.792300	0.624300
O331	O33	0.593000	0.759300	0.520720
O341	O34	0.808600	0.841200	0.525800
O351	O35	0.581300	0.159200	0.408260
O361	O36	0.816100	0.111300	0.431530
O371	O37	0.060900	0.789700	0.838650
O381	O38	0.229200	0.707700	0.875700
O391	O39	0.093000	0.740700	0.979280
O401	O40	0.308600	0.658800	0.974200
O411	O41	0.081300	0.340800	0.091740
O421	O42	0.316100	0.388700	0.068470
O431	O43	0.439100	0.289700	0.161350
O441	O44	0.270800	0.207700	0.124300
O451	O45	0.407000	0.240700	0.020720
O461	O46	0.191400	0.158800	0.025800
O471	O47	0.418700	0.840800	0.908260
O481	O48	0.183900	0.888700	0.931530
