data_SETDUS_clean_PM
_symmetry_space_group_name_H-M	'P1'
_cell_length_a	12.813000
_cell_length_b	18.557000
_cell_length_c	7.259000
_cell_angle_alpha	90.000000
_cell_angle_beta	111.973000
_cell_angle_gamma	90.000000
_symmetry_Int_Tables_number 1

loop_
_symmetry_equiv_pos_as_xyz
'x,y,z'

loop_
_atom_site_label
_atom_site_type_symbol
_atom_site_fract_x
_atom_site_fract_y
_atom_site_fract_z
N11	N1	0.114600	0.048400	0.235000
N21	N2	0.118000	0.044800	0.423000
C11	C1	0.198000	0.088600	0.245000
H11	H1	0.216200	0.100100	0.132500
N31	N3	0.258000	0.112700	0.426000
C21	C2	0.205000	0.084700	0.537000
H21	H2	0.226900	0.091900	0.675900
C31	C3	0.297000	0.239800	0.516000
H31	H3	0.350800	0.277500	0.558100
C41	C4	0.347000	0.171300	0.504000
H41	H4	0.401200	0.157600	0.637300
H51	H5	0.389200	0.175600	0.414400
N41	N4	0.614600	0.548400	0.235000
N51	N5	0.618000	0.544800	0.423000
C51	C5	0.698000	0.588600	0.245000
H61	H6	0.716200	0.600100	0.132500
N61	N6	0.758000	0.612700	0.426000
C61	C6	0.705000	0.584700	0.537000
H71	H7	0.726900	0.591900	0.675900
C71	C7	0.797000	0.739800	0.516000
H81	H8	0.850800	0.777500	0.558100
C81	C8	0.847000	0.671300	0.504000
H91	H9	0.901200	0.657600	0.637300
H101	H10	0.889200	0.675600	0.414400
N71	N7	0.885400	0.048400	0.265000
N81	N8	0.882000	0.044800	0.077000
C91	C9	0.802000	0.088600	0.255000
H111	H11	0.783800	0.100100	0.367500
N91	N9	0.742000	0.112700	0.074000
C101	C10	0.795000	0.084700	0.963000
H121	H12	0.773100	0.091900	0.824100
C111	C11	0.703000	0.239800	0.984000
H131	H13	0.649200	0.277500	0.941900
C121	C12	0.653000	0.171300	0.996000
H141	H14	0.598800	0.157600	0.862700
H151	H15	0.610800	0.175600	0.085600
N101	N10	0.385400	0.548400	0.265000
N111	N11	0.382000	0.544800	0.077000
C131	C13	0.302000	0.588600	0.255000
H161	H16	0.283800	0.600100	0.367500
N121	N12	0.242000	0.612700	0.074000
C141	C14	0.295000	0.584700	0.963000
H171	H17	0.273100	0.591900	0.824100
C151	C15	0.203000	0.739800	0.984000
H181	H18	0.149200	0.777500	0.941900
C161	C16	0.153000	0.671300	0.996000
H191	H19	0.098800	0.657600	0.862700
H201	H20	0.110800	0.675600	0.085600
N131	N13	0.885400	0.951600	0.765000
N141	N14	0.882000	0.955200	0.577000
C171	C17	0.802000	0.911400	0.755000
H211	H21	0.783800	0.899900	0.867500
N151	N15	0.742000	0.887300	0.574000
C181	C18	0.795000	0.915300	0.463000
H221	H22	0.773100	0.908100	0.324100
C191	C19	0.703000	0.760200	0.484000
H231	H23	0.649200	0.722500	0.441900
C201	C20	0.653000	0.828700	0.496000
H241	H24	0.598800	0.842400	0.362700
H251	H25	0.610800	0.824400	0.585600
N161	N16	0.385400	0.451600	0.765000
N171	N17	0.382000	0.455200	0.577000
C211	C21	0.302000	0.411400	0.755000
H261	H26	0.283800	0.399900	0.867500
N181	N18	0.242000	0.387300	0.574000
C221	C22	0.295000	0.415300	0.463000
H271	H27	0.273100	0.408100	0.324100
C231	C23	0.203000	0.260200	0.484000
H281	H28	0.149200	0.222500	0.441900
C241	C24	0.153000	0.328700	0.496000
H291	H29	0.098800	0.342400	0.362700
H301	H30	0.110800	0.324400	0.585600
N191	N19	0.114600	0.951600	0.735000
N201	N20	0.118000	0.955200	0.923000
C251	C25	0.198000	0.911400	0.745000
H311	H31	0.216200	0.899900	0.632500
N211	N21	0.258000	0.887300	0.926000
C261	C26	0.205000	0.915300	0.037000
H321	H32	0.226900	0.908100	0.175900
C271	C27	0.297000	0.760200	0.016000
H331	H33	0.350800	0.722500	0.058100
C281	C28	0.347000	0.828700	0.004000
H341	H34	0.401200	0.842400	0.137300
H351	H35	0.389200	0.824400	0.914400
N221	N22	0.614600	0.451600	0.735000
N231	N23	0.618000	0.455200	0.923000
C291	C29	0.698000	0.411400	0.745000
H361	H36	0.716200	0.399900	0.632500
N241	N24	0.758000	0.387300	0.926000
C301	C30	0.705000	0.415300	0.037000
H371	H37	0.726900	0.408100	0.175900
C311	C31	0.797000	0.260200	0.016000
H381	H38	0.850800	0.222500	0.058100
C321	C32	0.847000	0.328700	0.004000
H391	H39	0.901200	0.342400	0.137300
H401	H40	0.889200	0.324400	0.914400
Cu11	Cu1	0.000000	0.000000	0.000000
Cu21	Cu2	0.500000	0.500000	0.000000
Cu31	Cu3	0.000000	0.000000	0.500000
Cu41	Cu4	0.500000	0.500000	0.500000
