data_SETQOZ_SL_PM
_symmetry_space_group_name_H-M	'P1'
_cell_length_a	6.903500
_cell_length_b	15.995900
_cell_length_c	14.340600
_cell_angle_alpha	90.000000
_cell_angle_beta	90.000000
_cell_angle_gamma	90.000000
_symmetry_Int_Tables_number 1

loop_
_symmetry_equiv_pos_as_xyz
'x,y,z'

loop_
_atom_site_label
_atom_site_type_symbol
_atom_site_fract_x
_atom_site_fract_y
_atom_site_fract_z
H11	H1	0.703340	0.554950	0.555150
C21	C2	0.826270	0.532180	0.532290
O31	O3	0.840820	0.662190	0.662760
H41	H4	0.203340	0.054950	0.055150
C51	C5	0.326270	0.032180	0.032290
O61	O6	0.340820	0.162190	0.162760
H71	H7	0.296660	0.945050	0.555150
C81	C8	0.173730	0.967820	0.532290
O91	O9	0.159180	0.837810	0.662760
H101	H10	0.796660	0.445050	0.055150
C111	C11	0.673730	0.467820	0.032290
O121	O12	0.659180	0.337810	0.162760
H131	H13	0.296660	0.054950	0.444850
C141	C14	0.173730	0.032180	0.467710
O151	O15	0.159180	0.162190	0.337240
H161	H16	0.796660	0.554950	0.944850
C171	C17	0.673730	0.532180	0.967710
O181	O18	0.659180	0.662190	0.837240
H191	H19	0.703340	0.445050	0.444850
C201	C20	0.826270	0.467820	0.467710
O211	O21	0.840820	0.337810	0.337240
H221	H22	0.203340	0.945050	0.944850
C231	C23	0.326270	0.967820	0.967710
O241	O24	0.340820	0.837810	0.837240
H251	H25	0.296660	0.445050	0.444850
C261	C26	0.173730	0.467820	0.467710
O271	O27	0.159180	0.337810	0.337240
H281	H28	0.796660	0.945050	0.944850
C291	C29	0.673730	0.967820	0.967710
O301	O30	0.659180	0.837810	0.837240
H311	H31	0.703340	0.054950	0.444850
C321	C32	0.826270	0.032180	0.467710
O331	O33	0.840820	0.162190	0.337240
H341	H34	0.203340	0.554950	0.944850
C351	C35	0.326270	0.532180	0.967710
O361	O36	0.340820	0.662190	0.837240
H371	H37	0.703340	0.945050	0.555150
C381	C38	0.826270	0.967820	0.532290
O391	O39	0.840820	0.837810	0.662760
H401	H40	0.203340	0.445050	0.055150
C411	C41	0.326270	0.467820	0.032290
O421	O42	0.340820	0.337810	0.162760
H431	H43	0.296660	0.554950	0.555150
C441	C44	0.173730	0.532180	0.532290
O451	O45	0.159180	0.662190	0.662760
H461	H46	0.796660	0.054950	0.055150
C471	C47	0.673730	0.032180	0.032290
O481	O48	0.659180	0.162190	0.162760
H491	H49	0.500000	0.250000	0.382150
H501	H50	0.000000	0.750000	0.882150
H511	H51	0.500000	0.750000	0.617850
H521	H52	0.000000	0.250000	0.117850
Fe531	Fe53	0.750000	0.250000	0.250000
Fe541	Fe54	0.250000	0.250000	0.250000
Fe551	Fe55	0.250000	0.750000	0.750000
Fe561	Fe56	0.750000	0.750000	0.750000
C571	C57	0.000000	0.564360	0.564590
C581	C58	0.000000	0.632680	0.633140
C591	C59	0.500000	0.064360	0.064590
C601	C60	0.500000	0.132680	0.133140
C611	C61	0.000000	0.935640	0.564590
C621	C62	0.000000	0.867320	0.633140
C631	C63	0.500000	0.435640	0.064590
C641	C64	0.500000	0.367320	0.133140
C651	C65	0.000000	0.064360	0.435410
C661	C66	0.000000	0.132680	0.366860
C671	C67	0.500000	0.564360	0.935410
C681	C68	0.500000	0.632680	0.866860
C691	C69	0.000000	0.435640	0.435410
C701	C70	0.000000	0.367320	0.366860
C711	C71	0.500000	0.935640	0.935410
C721	C72	0.500000	0.867320	0.866860
O731	O73	0.500000	0.750000	0.687580
O741	O74	0.000000	0.250000	0.187580
O751	O75	0.500000	0.250000	0.312420
O761	O76	0.000000	0.750000	0.812420
