data_SETQAL_clean_PM
_symmetry_space_group_name_H-M	'P1'
_cell_length_a	20.526600
_cell_length_b	9.192500
_cell_length_c	6.876300
_cell_angle_alpha	90.000000
_cell_angle_beta	113.084000
_cell_angle_gamma	90.000000
_symmetry_Int_Tables_number 1

loop_
_symmetry_equiv_pos_as_xyz
'x,y,z'

loop_
_atom_site_label
_atom_site_type_symbol
_atom_site_fract_x
_atom_site_fract_y
_atom_site_fract_z
Fe11	Fe1	0.995900	0.005300	0.961200
O11	O1	0.061700	0.126700	0.635700
O21	O2	0.079000	0.097300	0.969800
O31	O3	0.410600	0.365100	0.939400
O41	O4	0.427800	0.335600	0.273500
C11	C1	0.176300	0.184400	0.895000
C21	C2	0.202500	0.215400	0.744600
C31	C3	0.271000	0.262200	0.804200
C41	C4	0.313200	0.278000	0.014200
C51	C5	0.287000	0.247000	0.164600
C61	C6	0.218500	0.200200	0.105000
C71	C7	0.102100	0.133700	0.830400
C81	C8	0.387400	0.328700	0.078800
H11	H1	0.172300	0.204100	0.594400
H21	H2	0.289700	0.284300	0.696600
H31	H3	0.317300	0.258300	0.314900
H41	H4	0.199800	0.178000	0.212600
O51	O5	0.996800	0.903100	0.703000
Fe21	Fe2	0.495900	0.505300	0.961200
O61	O6	0.561700	0.626700	0.635700
O71	O7	0.579000	0.597300	0.969800
O81	O8	0.910600	0.865100	0.939400
O91	O9	0.927800	0.835600	0.273500
C91	C9	0.676300	0.684400	0.895000
C101	C10	0.702500	0.715400	0.744600
C111	C11	0.771000	0.762200	0.804200
C121	C12	0.813200	0.778000	0.014200
C131	C13	0.787000	0.747000	0.164600
C141	C14	0.718500	0.700200	0.105000
C151	C15	0.602100	0.633700	0.830400
C161	C16	0.887400	0.828700	0.078800
H51	H5	0.672300	0.704100	0.594400
H61	H6	0.789700	0.784300	0.696600
H71	H7	0.817300	0.758300	0.314900
H81	H8	0.699800	0.678000	0.212600
O101	O10	0.496800	0.403100	0.703000
Fe31	Fe3	0.995900	0.994700	0.461200
O111	O11	0.061700	0.873300	0.135700
O121	O12	0.079000	0.902700	0.469800
O131	O13	0.410600	0.634900	0.439400
O141	O14	0.427800	0.664400	0.773500
C171	C17	0.176300	0.815600	0.395000
C181	C18	0.202500	0.784600	0.244600
C191	C19	0.271000	0.737800	0.304200
C201	C20	0.313200	0.722000	0.514200
C211	C21	0.287000	0.753000	0.664600
C221	C22	0.218500	0.799800	0.605000
C231	C23	0.102100	0.866300	0.330400
C241	C24	0.387400	0.671300	0.578800
H91	H9	0.172300	0.795900	0.094400
H101	H10	0.289700	0.715700	0.196600
H111	H11	0.317300	0.741700	0.814900
H121	H12	0.199800	0.822000	0.712600
O151	O15	0.996800	0.096900	0.203000
Fe41	Fe4	0.495900	0.494700	0.461200
O161	O16	0.561700	0.373300	0.135700
O171	O17	0.579000	0.402700	0.469800
O181	O18	0.910600	0.134900	0.439400
O191	O19	0.927800	0.164400	0.773500
C251	C25	0.676300	0.315600	0.395000
C261	C26	0.702500	0.284600	0.244600
C271	C27	0.771000	0.237800	0.304200
C281	C28	0.813200	0.222000	0.514200
C291	C29	0.787000	0.253000	0.664600
C301	C30	0.718500	0.299800	0.605000
C311	C31	0.602100	0.366300	0.330400
C321	C32	0.887400	0.171300	0.578800
H131	H13	0.672300	0.295900	0.094400
H141	H14	0.789700	0.215700	0.196600
H151	H15	0.817300	0.241700	0.814900
H161	H16	0.699800	0.322000	0.712600
O201	O20	0.496800	0.596900	0.203000
