data_SETQIT_clean_PM
_symmetry_space_group_name_H-M	'P1'
_cell_length_a	20.530800
_cell_length_b	9.170900
_cell_length_c	6.880100
_cell_angle_alpha	90.000000
_cell_angle_beta	113.072000
_cell_angle_gamma	90.000000
_symmetry_Int_Tables_number 1

loop_
_symmetry_equiv_pos_as_xyz
'x,y,z'

loop_
_atom_site_label
_atom_site_type_symbol
_atom_site_fract_x
_atom_site_fract_y
_atom_site_fract_z
Fe11	Fe1	0.005400	0.003800	0.954000
O11	O1	0.071400	0.125300	0.624100
O21	O2	0.088500	0.097300	0.958100
O31	O3	0.420100	0.361500	0.926700
O41	O4	0.437200	0.333500	0.260700
C11	C1	0.185800	0.183000	0.882900
C21	C2	0.211800	0.215000	0.732500
C31	C3	0.280300	0.261400	0.792000
C41	C4	0.322800	0.275800	0.001900
C51	C5	0.296800	0.243800	0.152300
C61	C6	0.228300	0.197400	0.092800
C71	C7	0.111700	0.132800	0.818700
C81	C8	0.396900	0.326000	0.066100
H11	H1	0.181400	0.204700	0.582300
H21	H2	0.299000	0.284300	0.684300
H31	H3	0.327200	0.254100	0.302500
H41	H4	0.209600	0.174500	0.200500
O51	O5	0.006700	0.901100	0.696000
Fe21	Fe2	0.505400	0.503800	0.954000
O61	O6	0.571400	0.625300	0.624100
O71	O7	0.588500	0.597300	0.958100
O81	O8	0.920100	0.861500	0.926700
O91	O9	0.937200	0.833500	0.260700
C91	C9	0.685800	0.683000	0.882900
C101	C10	0.711800	0.715000	0.732500
C111	C11	0.780300	0.761400	0.792000
C121	C12	0.822800	0.775800	0.001900
C131	C13	0.796800	0.743800	0.152300
C141	C14	0.728300	0.697400	0.092800
C151	C15	0.611700	0.632800	0.818700
C161	C16	0.896900	0.826000	0.066100
H51	H5	0.681400	0.704700	0.582300
H61	H6	0.799000	0.784300	0.684300
H71	H7	0.827200	0.754100	0.302500
H81	H8	0.709600	0.674500	0.200500
O101	O10	0.506700	0.401100	0.696000
Fe31	Fe3	0.005400	0.996200	0.454000
O111	O11	0.071400	0.874700	0.124100
O121	O12	0.088500	0.902700	0.458100
O131	O13	0.420100	0.638500	0.426700
O141	O14	0.437200	0.666500	0.760700
C171	C17	0.185800	0.817000	0.382900
C181	C18	0.211800	0.785000	0.232500
C191	C19	0.280300	0.738600	0.292000
C201	C20	0.322800	0.724200	0.501900
C211	C21	0.296800	0.756200	0.652300
C221	C22	0.228300	0.802600	0.592800
C231	C23	0.111700	0.867200	0.318700
C241	C24	0.396900	0.674000	0.566100
H91	H9	0.181400	0.795300	0.082300
H101	H10	0.299000	0.715700	0.184300
H111	H11	0.327200	0.745900	0.802500
H121	H12	0.209600	0.825500	0.700500
O151	O15	0.006700	0.098900	0.196000
Fe41	Fe4	0.505400	0.496200	0.454000
O161	O16	0.571400	0.374700	0.124100
O171	O17	0.588500	0.402700	0.458100
O181	O18	0.920100	0.138500	0.426700
O191	O19	0.937200	0.166500	0.760700
C251	C25	0.685800	0.317000	0.382900
C261	C26	0.711800	0.285000	0.232500
C271	C27	0.780300	0.238600	0.292000
C281	C28	0.822800	0.224200	0.501900
C291	C29	0.796800	0.256200	0.652300
C301	C30	0.728300	0.302600	0.592800
C311	C31	0.611700	0.367200	0.318700
C321	C32	0.896900	0.174000	0.566100
H131	H13	0.681400	0.295300	0.082300
H141	H14	0.799000	0.215700	0.184300
H151	H15	0.827200	0.245900	0.802500
H161	H16	0.709600	0.325500	0.700500
O201	O20	0.506700	0.598900	0.196000
