data_SETQEP_clean_PM
_symmetry_space_group_name_H-M	'P1'
_cell_length_a	20.463300
_cell_length_b	9.287600
_cell_length_c	6.883900
_cell_angle_alpha	90.000000
_cell_angle_beta	112.718000
_cell_angle_gamma	90.000000
_symmetry_Int_Tables_number 1

loop_
_symmetry_equiv_pos_as_xyz
'x,y,z'

loop_
_atom_site_label
_atom_site_type_symbol
_atom_site_fract_x
_atom_site_fract_y
_atom_site_fract_z
Fe11	Fe1	0.005000	0.010500	0.014700
O11	O1	0.069000	0.127100	0.693700
O21	O2	0.085300	0.098400	0.026400
O31	O3	0.418500	0.369500	0.999100
O41	O4	0.434800	0.340800	0.331800
C11	C1	0.183500	0.186500	0.953000
C21	C2	0.210500	0.216100	0.803600
C31	C3	0.278900	0.263600	0.863300
C41	C4	0.320300	0.281400	0.072500
C51	C5	0.293300	0.251700	0.222000
C61	C6	0.224900	0.204300	0.162200
C71	C7	0.108900	0.134700	0.887800
C81	C8	0.395000	0.333100	0.137800
H11	H1	0.180900	0.203400	0.653900
H21	H2	0.298200	0.284800	0.756400
H31	H3	0.323000	0.264500	0.371600
H41	H4	0.205700	0.183100	0.269100
O51	O5	0.005200	0.903300	0.762900
Fe21	Fe2	0.505000	0.510500	0.014700
O61	O6	0.569000	0.627100	0.693700
O71	O7	0.585300	0.598400	0.026400
O81	O8	0.918500	0.869500	0.999100
O91	O9	0.934800	0.840800	0.331800
C91	C9	0.683500	0.686500	0.953000
C101	C10	0.710500	0.716100	0.803600
C111	C11	0.778900	0.763600	0.863300
C121	C12	0.820300	0.781400	0.072500
C131	C13	0.793300	0.751700	0.222000
C141	C14	0.724900	0.704300	0.162200
C151	C15	0.608900	0.634700	0.887800
C161	C16	0.895000	0.833100	0.137800
H51	H5	0.680900	0.703400	0.653900
H61	H6	0.798200	0.784800	0.756400
H71	H7	0.823000	0.764500	0.371600
H81	H8	0.705700	0.683100	0.269100
O101	O10	0.505200	0.403300	0.762900
Fe31	Fe3	0.005000	0.989500	0.514700
O111	O11	0.069000	0.872900	0.193700
O121	O12	0.085300	0.901600	0.526400
O131	O13	0.418500	0.630500	0.499100
O141	O14	0.434800	0.659200	0.831800
C171	C17	0.183500	0.813500	0.453000
C181	C18	0.210500	0.783900	0.303600
C191	C19	0.278900	0.736400	0.363300
C201	C20	0.320300	0.718600	0.572500
C211	C21	0.293300	0.748300	0.722000
C221	C22	0.224900	0.795700	0.662200
C231	C23	0.108900	0.865300	0.387800
C241	C24	0.395000	0.666900	0.637800
H91	H9	0.180900	0.796600	0.153900
H101	H10	0.298200	0.715200	0.256400
H111	H11	0.323000	0.735500	0.871600
H121	H12	0.205700	0.816900	0.769100
O151	O15	0.005200	0.096700	0.262900
Fe41	Fe4	0.505000	0.489500	0.514700
O161	O16	0.569000	0.372900	0.193700
O171	O17	0.585300	0.401600	0.526400
O181	O18	0.918500	0.130500	0.499100
O191	O19	0.934800	0.159200	0.831800
C251	C25	0.683500	0.313500	0.453000
C261	C26	0.710500	0.283900	0.303600
C271	C27	0.778900	0.236400	0.363300
C281	C28	0.820300	0.218600	0.572500
C291	C29	0.793300	0.248300	0.722000
C301	C30	0.724900	0.295700	0.662200
C311	C31	0.608900	0.365300	0.387800
C321	C32	0.895000	0.166900	0.637800
H131	H13	0.680900	0.296600	0.153900
H141	H14	0.798200	0.215200	0.256400
H151	H15	0.823000	0.235500	0.871600
H161	H16	0.705700	0.316900	0.769100
O201	O20	0.505200	0.596700	0.262900
