data_SETRAM_clean_PM
_symmetry_space_group_name_H-M	'P1'
_cell_length_a	31.722300
_cell_length_b	28.923400
_cell_length_c	6.896500
_cell_angle_alpha	90.000000
_cell_angle_beta	90.000000
_cell_angle_gamma	90.000000
_symmetry_Int_Tables_number 1

loop_
_symmetry_equiv_pos_as_xyz
'x,y,z'

loop_
_atom_site_label
_atom_site_type_symbol
_atom_site_fract_x
_atom_site_fract_y
_atom_site_fract_z
O11	O1	0.541400	0.951900	0.074000
O21	O2	0.543200	0.953800	0.392700
O31	O3	0.704900	0.791800	0.071600
O41	O4	0.702400	0.788600	0.390000
C11	C1	0.591200	0.903600	0.232600
C21	C2	0.607100	0.887800	0.060200
C31	C3	0.638900	0.855700	0.059600
C41	C4	0.654800	0.839500	0.231600
C51	C5	0.638900	0.855300	0.404000
C61	C6	0.607000	0.887400	0.404500
C71	C7	0.557100	0.938000	0.233100
C81	C8	0.688900	0.805100	0.231000
H11	H1	0.595700	0.899400	0.937300
H21	H2	0.650300	0.844400	0.936400
H31	H3	0.650200	0.843700	0.526900
H41	H4	0.595700	0.898700	0.527800
O51	O5	0.041400	0.451900	0.074000
O61	O6	0.043200	0.453800	0.392700
O71	O7	0.204900	0.291800	0.071600
O81	O8	0.202400	0.288600	0.390000
C91	C9	0.091200	0.403600	0.232600
C101	C10	0.107100	0.387800	0.060200
C111	C11	0.138900	0.355700	0.059600
C121	C12	0.154800	0.339500	0.231600
C131	C13	0.138900	0.355300	0.404000
C141	C14	0.107000	0.387400	0.404500
C151	C15	0.057100	0.438000	0.233100
C161	C16	0.188900	0.305100	0.231000
H51	H5	0.095700	0.399400	0.937300
H61	H6	0.150300	0.344400	0.936400
H71	H7	0.150200	0.343700	0.526900
H81	H8	0.095700	0.398700	0.527800
O91	O9	0.458600	0.548100	0.574000
O101	O10	0.456800	0.546200	0.892700
O111	O11	0.295100	0.708200	0.571600
O121	O12	0.297600	0.711400	0.890000
C171	C17	0.408800	0.596400	0.732600
C181	C18	0.392900	0.612200	0.560200
C191	C19	0.361100	0.644300	0.559600
C201	C20	0.345200	0.660500	0.731600
C211	C21	0.361100	0.644700	0.904000
C221	C22	0.393000	0.612600	0.904500
C231	C23	0.442900	0.562000	0.733100
C241	C24	0.311100	0.694900	0.731000
H91	H9	0.404300	0.600600	0.437300
H101	H10	0.349700	0.655600	0.436400
H111	H11	0.349800	0.656300	0.026900
H121	H12	0.404300	0.601300	0.027800
O131	O13	0.958600	0.048100	0.574000
O141	O14	0.956800	0.046200	0.892700
O151	O15	0.795100	0.208200	0.571600
O161	O16	0.797600	0.211400	0.890000
C251	C25	0.908800	0.096400	0.732600
C261	C26	0.892900	0.112200	0.560200
C271	C27	0.861100	0.144300	0.559600
C281	C28	0.845200	0.160500	0.731600
C291	C29	0.861100	0.144700	0.904000
C301	C30	0.893000	0.112600	0.904500
C311	C31	0.942900	0.062000	0.733100
C321	C32	0.811100	0.194900	0.731000
H131	H13	0.904300	0.100600	0.437300
H141	H14	0.849700	0.155600	0.436400
H151	H15	0.849800	0.156300	0.026900
H161	H16	0.904300	0.101300	0.027800
O171	O17	0.458600	0.451900	0.426000
O181	O18	0.456800	0.453800	0.107300
O191	O19	0.295100	0.291800	0.428400
O201	O20	0.297600	0.288600	0.110000
C331	C33	0.408800	0.403600	0.267400
C341	C34	0.392900	0.387800	0.439800
C351	C35	0.361100	0.355700	0.440400
C361	C36	0.345200	0.339500	0.268400
C371	C37	0.361100	0.355300	0.096000
C381	C38	0.393000	0.387400	0.095500
C391	C39	0.442900	0.438000	0.266900
C401	C40	0.311100	0.305100	0.269000
H171	H17	0.404300	0.399400	0.562700
H181	H18	0.349700	0.344400	0.563600
H191	H19	0.349800	0.343700	0.973100
H201	H20	0.404300	0.398700	0.972200
O211	O21	0.958600	0.951900	0.426000
O221	O22	0.956800	0.953800	0.107300
O231	O23	0.795100	0.791800	0.428400
O241	O24	0.797600	0.788600	0.110000
C411	C41	0.908800	0.903600	0.267400
C421	C42	0.892900	0.887800	0.439800
C431	C43	0.861100	0.855700	0.440400
C441	C44	0.845200	0.839500	0.268400
C451	C45	0.861100	0.855300	0.096000
C461	C46	0.893000	0.887400	0.095500
C471	C47	0.942900	0.938000	0.266900
C481	C48	0.811100	0.805100	0.269000
H211	H21	0.904300	0.899400	0.562700
H221	H22	0.849700	0.844400	0.563600
H231	H23	0.849800	0.843700	0.973100
H241	H24	0.904300	0.898700	0.972200
O251	O25	0.541400	0.048100	0.926000
O261	O26	0.543200	0.046200	0.607300
O271	O27	0.704900	0.208200	0.928400
O281	O28	0.702400	0.211400	0.610000
C491	C49	0.591200	0.096400	0.767400
C501	C50	0.607100	0.112200	0.939800
C511	C51	0.638900	0.144300	0.940400
C521	C52	0.654800	0.160500	0.768400
C531	C53	0.638900	0.144700	0.596000
C541	C54	0.607000	0.112600	0.595500
C551	C55	0.557100	0.062000	0.766900
C561	C56	0.688900	0.194900	0.769000
H251	H25	0.595700	0.100600	0.062700
H261	H26	0.650300	0.155600	0.063600
H271	H27	0.650200	0.156300	0.473100
H281	H28	0.595700	0.101300	0.472200
O291	O29	0.041400	0.548100	0.926000
O301	O30	0.043200	0.546200	0.607300
O311	O31	0.204900	0.708200	0.928400
O321	O32	0.202400	0.711400	0.610000
C571	C57	0.091200	0.596400	0.767400
C581	C58	0.107100	0.612200	0.939800
C591	C59	0.138900	0.644300	0.940400
C601	C60	0.154800	0.660500	0.768400
C611	C61	0.138900	0.644700	0.596000
C621	C62	0.107000	0.612600	0.595500
C631	C63	0.057100	0.562000	0.766900
C641	C64	0.188900	0.694900	0.769000
H291	H29	0.095700	0.600600	0.062700
H301	H30	0.150300	0.655600	0.063600
H311	H31	0.150200	0.656300	0.473100
H321	H32	0.095700	0.601300	0.472200
O331	O33	0.458600	0.048100	0.926000
O341	O34	0.456800	0.046200	0.607300
O351	O35	0.295100	0.208200	0.928400
O361	O36	0.297600	0.211400	0.610000
C651	C65	0.408800	0.096400	0.767400
C661	C66	0.392900	0.112200	0.939800
C671	C67	0.361100	0.144300	0.940400
C681	C68	0.345200	0.160500	0.768400
C691	C69	0.361100	0.144700	0.596000
C701	C70	0.393000	0.112600	0.595500
C711	C71	0.442900	0.062000	0.766900
C721	C72	0.311100	0.194900	0.769000
H331	H33	0.404300	0.100600	0.062700
H341	H34	0.349700	0.155600	0.063600
H351	H35	0.349800	0.156300	0.473100
H361	H36	0.404300	0.101300	0.472200
O371	O37	0.958600	0.548100	0.926000
O381	O38	0.956800	0.546200	0.607300
O391	O39	0.795100	0.708200	0.928400
O401	O40	0.797600	0.711400	0.610000
C731	C73	0.908800	0.596400	0.767400
C741	C74	0.892900	0.612200	0.939800
C751	C75	0.861100	0.644300	0.940400
C761	C76	0.845200	0.660500	0.768400
C771	C77	0.861100	0.644700	0.596000
C781	C78	0.893000	0.612600	0.595500
C791	C79	0.942900	0.562000	0.766900
C801	C80	0.811100	0.694900	0.769000
H371	H37	0.904300	0.600600	0.062700
H381	H38	0.849700	0.655600	0.063600
H391	H39	0.849800	0.656300	0.473100
H401	H40	0.904300	0.601300	0.472200
O411	O41	0.541400	0.451900	0.426000
O421	O42	0.543200	0.453800	0.107300
O431	O43	0.704900	0.291800	0.428400
O441	O44	0.702400	0.288600	0.110000
C811	C81	0.591200	0.403600	0.267400
C821	C82	0.607100	0.387800	0.439800
C831	C83	0.638900	0.355700	0.440400
C841	C84	0.654800	0.339500	0.268400
C851	C85	0.638900	0.355300	0.096000
C861	C86	0.607000	0.387400	0.095500
C871	C87	0.557100	0.438000	0.266900
C881	C88	0.688900	0.305100	0.269000
H411	H41	0.595700	0.399400	0.562700
H421	H42	0.650300	0.344400	0.563600
H431	H43	0.650200	0.343700	0.973100
H441	H44	0.595700	0.398700	0.972200
O451	O45	0.041400	0.951900	0.426000
O461	O46	0.043200	0.953800	0.107300
O471	O47	0.204900	0.791800	0.428400
O481	O48	0.202400	0.788600	0.110000
C891	C89	0.091200	0.903600	0.267400
C901	C90	0.107100	0.887800	0.439800
C911	C91	0.138900	0.855700	0.440400
C921	C92	0.154800	0.839500	0.268400
C931	C93	0.138900	0.855300	0.096000
C941	C94	0.107000	0.887400	0.095500
C951	C95	0.057100	0.938000	0.266900
C961	C96	0.188900	0.805100	0.269000
H451	H45	0.095700	0.899400	0.562700
H461	H46	0.150300	0.844400	0.563600
H471	H47	0.150200	0.843700	0.973100
H481	H48	0.095700	0.898700	0.972200
O491	O49	0.541400	0.548100	0.574000
O501	O50	0.543200	0.546200	0.892700
O511	O51	0.704900	0.708200	0.571600
O521	O52	0.702400	0.711400	0.890000
C971	C97	0.591200	0.596400	0.732600
C981	C98	0.607100	0.612200	0.560200
C991	C99	0.638900	0.644300	0.559600
C1001	C100	0.654800	0.660500	0.731600
C1011	C101	0.638900	0.644700	0.904000
C1021	C102	0.607000	0.612600	0.904500
C1031	C103	0.557100	0.562000	0.733100
C1041	C104	0.688900	0.694900	0.731000
H491	H49	0.595700	0.600600	0.437300
H501	H50	0.650300	0.655600	0.436400
H511	H51	0.650200	0.656300	0.026900
H521	H52	0.595700	0.601300	0.027800
O531	O53	0.041400	0.048100	0.574000
O541	O54	0.043200	0.046200	0.892700
O551	O55	0.204900	0.208200	0.571600
O561	O56	0.202400	0.211400	0.890000
C1051	C105	0.091200	0.096400	0.732600
C1061	C106	0.107100	0.112200	0.560200
C1071	C107	0.138900	0.144300	0.559600
C1081	C108	0.154800	0.160500	0.731600
C1091	C109	0.138900	0.144700	0.904000
C1101	C110	0.107000	0.112600	0.904500
C1111	C111	0.057100	0.062000	0.733100
C1121	C112	0.188900	0.194900	0.731000
H531	H53	0.095700	0.100600	0.437300
H541	H54	0.150300	0.155600	0.436400
H551	H55	0.150200	0.156300	0.026900
H561	H56	0.095700	0.101300	0.027800
O571	O57	0.458600	0.951900	0.074000
O581	O58	0.456800	0.953800	0.392700
O591	O59	0.295100	0.791800	0.071600
O601	O60	0.297600	0.788600	0.390000
C1131	C113	0.408800	0.903600	0.232600
C1141	C114	0.392900	0.887800	0.060200
C1151	C115	0.361100	0.855700	0.059600
C1161	C116	0.345200	0.839500	0.231600
C1171	C117	0.361100	0.855300	0.404000
C1181	C118	0.393000	0.887400	0.404500
C1191	C119	0.442900	0.938000	0.233100
C1201	C120	0.311100	0.805100	0.231000
H571	H57	0.404300	0.899400	0.937300
H581	H58	0.349700	0.844400	0.936400
H591	H59	0.349800	0.843700	0.526900
H601	H60	0.404300	0.898700	0.527800
O611	O61	0.958600	0.451900	0.074000
O621	O62	0.956800	0.453800	0.392700
O631	O63	0.795100	0.291800	0.071600
O641	O64	0.797600	0.288600	0.390000
C1211	C121	0.908800	0.403600	0.232600
C1221	C122	0.892900	0.387800	0.060200
C1231	C123	0.861100	0.355700	0.059600
C1241	C124	0.845200	0.339500	0.231600
C1251	C125	0.861100	0.355300	0.404000
C1261	C126	0.893000	0.387400	0.404500
C1271	C127	0.942900	0.438000	0.233100
C1281	C128	0.811100	0.305100	0.231000
H611	H61	0.904300	0.399400	0.937300
H621	H62	0.849700	0.344400	0.936400
H631	H63	0.849800	0.343700	0.526900
H641	H64	0.904300	0.398700	0.527800
Fe11	Fe1	0.750000	0.750000	0.000000
Fe21	Fe2	0.250000	0.750000	0.500000
Fe31	Fe3	0.250000	0.250000	0.500000
Fe41	Fe4	0.750000	0.250000	0.000000
Fe51	Fe5	0.250000	0.250000	0.000000
Fe61	Fe6	0.750000	0.250000	0.500000
Fe71	Fe7	0.750000	0.750000	0.500000
Fe81	Fe8	0.250000	0.750000	0.000000
O651	O65	0.750000	0.720900	0.250000
O661	O66	0.250000	0.779100	0.750000
O671	O67	0.250000	0.220900	0.250000
O681	O68	0.750000	0.279100	0.750000
O691	O69	0.250000	0.279100	0.750000
O701	O70	0.750000	0.220900	0.250000
O711	O71	0.750000	0.779100	0.750000
O721	O72	0.250000	0.720900	0.250000
Fe91	Fe9	0.500000	0.000000	0.000000
Fe101	Fe10	0.000000	0.500000	0.000000
Fe111	Fe11	0.500000	0.500000	0.500000
Fe121	Fe12	0.000000	0.000000	0.500000
O731	O73	0.500000	0.963700	0.750000
O741	O74	0.000000	0.463700	0.750000
O751	O75	0.500000	0.536300	0.250000
O761	O76	0.000000	0.036300	0.250000
O771	O77	0.500000	0.463700	0.750000
O781	O78	0.000000	0.963700	0.750000
O791	O79	0.500000	0.036300	0.250000
O801	O80	0.000000	0.536300	0.250000
Fe131	Fe13	0.500000	0.000000	0.500000
Fe141	Fe14	0.000000	0.500000	0.500000
Fe151	Fe15	0.500000	0.500000	0.000000
Fe161	Fe16	0.000000	0.000000	0.000000
