data_SETWOF_clean_PM
_symmetry_space_group_name_H-M	'P1'
_cell_length_a	12.113000
_cell_length_b	12.226000
_cell_length_c	12.289000
_cell_angle_alpha	102.178000
_cell_angle_beta	100.545000
_cell_angle_gamma	119.663000
_symmetry_Int_Tables_number 1

loop_
_symmetry_equiv_pos_as_xyz
'x,y,z'

loop_
_atom_site_label
_atom_site_type_symbol
_atom_site_fract_x
_atom_site_fract_y
_atom_site_fract_z
Co11	Co1	0.688030	0.994320	0.336100
Co21	Co2	0.311970	0.005680	0.663900
Mo11	Mo1	0.598320	0.512950	0.215580
Mo21	Mo2	0.389930	0.378240	0.363340
Mo31	Mo3	0.460540	0.683700	0.407330
Mo41	Mo4	0.293810	0.581330	0.586830
Mo51	Mo5	0.401680	0.487050	0.784420
Mo61	Mo6	0.610070	0.621760	0.636660
Mo71	Mo7	0.539460	0.316300	0.592670
Mo81	Mo8	0.706190	0.418670	0.413170
H11	H1	0.008000	0.240000	0.862800
H21	H2	0.983800	0.218700	0.979500
H31	H3	0.314700	0.513000	0.091700
H41	H4	0.362200	0.218700	0.028500
H51	H5	0.103100	0.370600	0.173100
H61	H6	0.080000	0.467100	0.256700
H71	H7	0.971000	0.263100	0.342400
H81	H8	0.637800	0.034100	0.084900
H91	H9	0.925700	0.507400	0.248800
H101	H10	0.894900	0.604700	0.206800
H111	H11	0.044400	0.687900	0.465900
H121	H12	0.336100	0.969500	0.406700
H131	H13	0.992000	0.760000	0.137200
H141	H14	0.016200	0.781300	0.020500
H151	H15	0.685300	0.487000	0.908300
H161	H16	0.637800	0.781300	0.971500
H171	H17	0.896900	0.629400	0.826900
H181	H18	0.920000	0.532900	0.743300
H191	H19	0.029000	0.736900	0.657600
H201	H20	0.362200	0.965900	0.915100
H211	H21	0.074300	0.492600	0.751200
H221	H22	0.105100	0.395300	0.793200
H231	H23	0.955600	0.312100	0.534100
H241	H24	0.663900	0.030500	0.593300
C11	C1	0.029500	0.404400	0.977600
C21	C2	0.014400	0.443800	0.085400
C31	C3	0.983300	0.542200	0.109300
C41	C4	0.041700	0.283100	0.948100
C51	C5	0.299300	0.428000	0.064600
C61	C6	0.320700	0.265500	0.029300
C71	C7	0.038800	0.394200	0.181400
C81	C8	0.903000	0.225700	0.270100
C91	C9	0.725700	0.105100	0.131000
C101	C10	0.962100	0.583300	0.222000
C111	C11	0.101900	0.738400	0.429900
C121	C12	0.257500	0.888700	0.395500
C131	C13	0.970500	0.595600	0.022400
C141	C14	0.985600	0.556200	0.914600
C151	C15	0.016700	0.457800	0.890700
C161	C16	0.958300	0.716900	0.051900
C171	C17	0.700700	0.572000	0.935400
C181	C18	0.679300	0.734500	0.970700
C191	C19	0.961200	0.605800	0.818600
C201	C20	0.097000	0.774300	0.729900
C211	C21	0.274300	0.894900	0.869000
C221	C22	0.037900	0.416700	0.778000
C231	C23	0.898100	0.261600	0.570100
C241	C24	0.742500	0.111300	0.604500
N11	N1	0.390100	0.400800	0.089000
N21	N2	0.179000	0.314100	0.993800
N31	N3	0.192700	0.206600	0.973800
N41	N4	0.783200	0.117600	0.241400
N51	N5	0.916600	0.276100	0.184800
N61	N6	0.800300	0.198400	0.092100
N71	N7	0.212300	0.858700	0.487500
N81	N8	0.081200	0.696700	0.315800
N91	N9	0.180800	0.794200	0.291600
N101	N10	0.609900	0.599200	0.911000
N111	N11	0.821000	0.685900	0.006200
N121	N12	0.807300	0.793400	0.026200
N131	N13	0.216800	0.882400	0.758600
N141	N14	0.083400	0.723900	0.815200
N151	N15	0.199700	0.801600	0.907900
N161	N16	0.787700	0.141300	0.512500
N171	N17	0.918800	0.303300	0.684200
N181	N18	0.819200	0.205800	0.708400
O11	O1	0.738600	0.566500	0.352500
O21	O2	0.500200	0.351000	0.284600
O31	O3	0.498000	0.560400	0.326400
O41	O4	0.356900	0.262600	0.436900
O51	O5	0.392400	0.515800	0.479400
O61	O6	0.578400	0.837500	0.402000
O71	O7	0.406000	0.730300	0.539000
O81	O8	0.261400	0.433500	0.647500
O91	O9	0.499800	0.649000	0.715400
O101	O10	0.502000	0.439600	0.673600
O111	O11	0.643100	0.737400	0.563100
O121	O12	0.607600	0.484200	0.520600
O131	O13	0.421600	0.162500	0.598000
O141	O14	0.594000	0.269700	0.461000
