data_SETXEW_clean_PM
_symmetry_space_group_name_H-M	'P1'
_cell_length_a	26.774100
_cell_length_b	10.053500
_cell_length_c	22.086500
_cell_angle_alpha	90.000000
_cell_angle_beta	97.275000
_cell_angle_gamma	90.000000
_symmetry_Int_Tables_number 1

loop_
_symmetry_equiv_pos_as_xyz
'x,y,z'

loop_
_atom_site_label
_atom_site_type_symbol
_atom_site_fract_x
_atom_site_fract_y
_atom_site_fract_z
Zn11	Zn1	0.100450	0.667970	0.492710
Mo11	Mo1	0.201300	0.474770	0.437400
Mo21	Mo2	0.307520	0.547220	0.519330
Mo31	Mo3	0.391590	0.317420	0.554360
Mo41	Mo4	0.294420	0.235900	0.450340
Mo51	Mo5	0.476260	0.137200	0.471730
C11	C1	0.026150	0.526800	0.747700
C21	C2	0.051800	0.647700	0.746700
C31	C3	0.025720	0.767600	0.747900
C41	C4	0.052300	0.395600	0.743800
H11	H1	0.030900	0.335600	0.717700
H21	H2	0.083200	0.408400	0.725900
C51	C5	0.073660	0.393800	0.858600
H31	H3	0.073600	0.484900	0.865600
C61	C6	0.079100	0.187400	0.869600
H41	H4	0.084500	0.104600	0.888000
C71	C7	0.108200	0.645600	0.745100
H51	H5	0.123800	0.716900	0.770400
H61	H6	0.121900	0.561900	0.761700
C81	C8	0.092030	0.648600	0.629400
H71	H7	0.058000	0.626700	0.624400
C91	C9	0.165000	0.694600	0.613400
H81	H8	0.192400	0.713400	0.592800
C101	C10	0.054100	0.896800	0.746100
H91	H9	0.037700	0.964500	0.767900
H101	H10	0.088100	0.885300	0.766500
C111	C11	0.023100	0.928700	0.634500
H111	H11	0.992700	0.883200	0.633100
C121	C12	0.083100	0.040100	0.611200
H121	H12	0.103300	0.089900	0.588500
N11	N1	0.083520	0.302200	0.901010
N21	N2	0.063860	0.337300	0.804700
N31	N3	0.066550	0.202200	0.810700
N41	N4	0.118560	0.671100	0.584760
N51	N5	0.120170	0.661400	0.682600
N61	N6	0.168130	0.688600	0.673600
N71	N7	0.038760	0.989400	0.587600
N81	N8	0.056120	0.941000	0.683480
N91	N9	0.095500	0.013500	0.669000
H131	H13	0.122300	0.036600	0.692300
O11	O1	0.167710	0.579800	0.479390
O21	O2	0.169200	0.315800	0.460260
O31	O3	0.263680	0.569200	0.443510
O41	O4	0.345530	0.438200	0.583210
O51	O5	0.436050	0.436200	0.539440
O61	O6	0.417370	0.196800	0.495250
O71	O7	0.339050	0.377400	0.470710
O81	O8	0.248790	0.117700	0.485380
O91	O9	0.250700	0.316700	0.396460
O101	O10	0.459310	0.960600	0.505690
Zn21	Zn2	0.600450	0.167970	0.492710
Mo61	Mo6	0.701300	0.974770	0.437400
Mo71	Mo7	0.807520	0.047220	0.519330
Mo81	Mo8	0.891590	0.817420	0.554360
Mo91	Mo9	0.794420	0.735900	0.450340
Mo101	Mo10	0.976260	0.637200	0.471730
C131	C13	0.526150	0.026800	0.747700
C141	C14	0.551800	0.147700	0.746700
C151	C15	0.525720	0.267600	0.747900
C161	C16	0.552300	0.895600	0.743800
H141	H14	0.530900	0.835600	0.717700
H151	H15	0.583200	0.908400	0.725900
C171	C17	0.573660	0.893800	0.858600
H161	H16	0.573600	0.984900	0.865600
C181	C18	0.579100	0.687400	0.869600
H171	H17	0.584500	0.604600	0.888000
C191	C19	0.608200	0.145600	0.745100
H181	H18	0.623800	0.216900	0.770400
H191	H19	0.621900	0.061900	0.761700
C201	C20	0.592030	0.148600	0.629400
H201	H20	0.558000	0.126700	0.624400
C211	C21	0.665000	0.194600	0.613400
H211	H21	0.692400	0.213400	0.592800
C221	C22	0.554100	0.396800	0.746100
H221	H22	0.537700	0.464500	0.767900
H231	H23	0.588100	0.385300	0.766500
C231	C23	0.523100	0.428700	0.634500
H241	H24	0.492700	0.383200	0.633100
C241	C24	0.583100	0.540100	0.611200
H251	H25	0.603300	0.589900	0.588500
N101	N10	0.583520	0.802200	0.901010
N111	N11	0.563860	0.837300	0.804700
N121	N12	0.566550	0.702200	0.810700
N131	N13	0.618560	0.171100	0.584760
N141	N14	0.620170	0.161400	0.682600
N151	N15	0.668130	0.188600	0.673600
N161	N16	0.538760	0.489400	0.587600
N171	N17	0.556120	0.441000	0.683480
N181	N18	0.595500	0.513500	0.669000
H261	H26	0.622300	0.536600	0.692300
O111	O11	0.667710	0.079800	0.479390
O121	O12	0.669200	0.815800	0.460260
O131	O13	0.763680	0.069200	0.443510
O141	O14	0.845530	0.938200	0.583210
O151	O15	0.936050	0.936200	0.539440
O161	O16	0.917370	0.696800	0.495250
O171	O17	0.839050	0.877400	0.470710
O181	O18	0.748790	0.617700	0.485380
O191	O19	0.750700	0.816700	0.396460
O201	O20	0.959310	0.460600	0.505690
Zn31	Zn3	0.899550	0.667970	0.007290
Mo111	Mo11	0.798700	0.474770	0.062600
Mo121	Mo12	0.692480	0.547220	0.980670
Mo131	Mo13	0.608410	0.317420	0.945640
Mo141	Mo14	0.705580	0.235900	0.049660
Mo151	Mo15	0.523740	0.137200	0.028270
C251	C25	0.973850	0.526800	0.752300
C261	C26	0.948200	0.647700	0.753300
C271	C27	0.974280	0.767600	0.752100
C281	C28	0.947700	0.395600	0.756200
H271	H27	0.969100	0.335600	0.782300
H281	H28	0.916800	0.408400	0.774100
C291	C29	0.926340	0.393800	0.641400
H291	H29	0.926400	0.484900	0.634400
C301	C30	0.920900	0.187400	0.630400
H301	H30	0.915500	0.104600	0.612000
C311	C31	0.891800	0.645600	0.754900
H311	H31	0.876200	0.716900	0.729600
H321	H32	0.878100	0.561900	0.738300
C321	C32	0.907970	0.648600	0.870600
H331	H33	0.942000	0.626700	0.875600
C331	C33	0.835000	0.694600	0.886600
H341	H34	0.807600	0.713400	0.907200
C341	C34	0.945900	0.896800	0.753900
H351	H35	0.962300	0.964500	0.732100
H361	H36	0.911900	0.885300	0.733500
C351	C35	0.976900	0.928700	0.865500
H371	H37	0.007300	0.883200	0.866900
C361	C36	0.916900	0.040100	0.888800
H381	H38	0.896700	0.089900	0.911500
N191	N19	0.916480	0.302200	0.598990
N201	N20	0.936140	0.337300	0.695300
N211	N21	0.933450	0.202200	0.689300
N221	N22	0.881440	0.671100	0.915240
N231	N23	0.879830	0.661400	0.817400
N241	N24	0.831870	0.688600	0.826400
N251	N25	0.961240	0.989400	0.912400
N261	N26	0.943880	0.941000	0.816520
N271	N27	0.904500	0.013500	0.831000
H391	H39	0.877700	0.036600	0.807700
O211	O21	0.832290	0.579800	0.020610
O221	O22	0.830800	0.315800	0.039740
O231	O23	0.736320	0.569200	0.056490
O241	O24	0.654470	0.438200	0.916790
O251	O25	0.563950	0.436200	0.960560
O261	O26	0.582630	0.196800	0.004750
O271	O27	0.660950	0.377400	0.029290
O281	O28	0.751210	0.117700	0.014620
O291	O29	0.749300	0.316700	0.103540
O301	O30	0.540690	0.960600	0.994310
Zn41	Zn4	0.399550	0.167970	0.007290
Mo161	Mo16	0.298700	0.974770	0.062600
Mo171	Mo17	0.192480	0.047220	0.980670
Mo181	Mo18	0.108410	0.817420	0.945640
Mo191	Mo19	0.205580	0.735900	0.049660
Mo201	Mo20	0.023740	0.637200	0.028270
C371	C37	0.473850	0.026800	0.752300
C381	C38	0.448200	0.147700	0.753300
C391	C39	0.474280	0.267600	0.752100
C401	C40	0.447700	0.895600	0.756200
H401	H40	0.469100	0.835600	0.782300
H411	H41	0.416800	0.908400	0.774100
C411	C41	0.426340	0.893800	0.641400
H421	H42	0.426400	0.984900	0.634400
C421	C42	0.420900	0.687400	0.630400
H431	H43	0.415500	0.604600	0.612000
C431	C43	0.391800	0.145600	0.754900
H441	H44	0.376200	0.216900	0.729600
H451	H45	0.378100	0.061900	0.738300
C441	C44	0.407970	0.148600	0.870600
H461	H46	0.442000	0.126700	0.875600
C451	C45	0.335000	0.194600	0.886600
H471	H47	0.307600	0.213400	0.907200
C461	C46	0.445900	0.396800	0.753900
H481	H48	0.462300	0.464500	0.732100
H491	H49	0.411900	0.385300	0.733500
C471	C47	0.476900	0.428700	0.865500
H501	H50	0.507300	0.383200	0.866900
C481	C48	0.416900	0.540100	0.888800
H511	H51	0.396700	0.589900	0.911500
N281	N28	0.416480	0.802200	0.598990
N291	N29	0.436140	0.837300	0.695300
N301	N30	0.433450	0.702200	0.689300
N311	N31	0.381440	0.171100	0.915240
N321	N32	0.379830	0.161400	0.817400
N331	N33	0.331870	0.188600	0.826400
N341	N34	0.461240	0.489400	0.912400
N351	N35	0.443880	0.441000	0.816520
N361	N36	0.404500	0.513500	0.831000
H521	H52	0.377700	0.536600	0.807700
O311	O31	0.332290	0.079800	0.020610
O321	O32	0.330800	0.815800	0.039740
O331	O33	0.236320	0.069200	0.056490
O341	O34	0.154470	0.938200	0.916790
O351	O35	0.063950	0.936200	0.960560
O361	O36	0.082630	0.696800	0.004750
O371	O37	0.160950	0.877400	0.029290
O381	O38	0.251210	0.617700	0.014620
O391	O39	0.249300	0.816700	0.103540
O401	O40	0.040690	0.460600	0.994310
Zn51	Zn5	0.899550	0.332030	0.507290
Mo211	Mo21	0.798700	0.525230	0.562600
Mo221	Mo22	0.692480	0.452780	0.480670
Mo231	Mo23	0.608410	0.682580	0.445640
Mo241	Mo24	0.705580	0.764100	0.549660
Mo251	Mo25	0.523740	0.862800	0.528270
C491	C49	0.973850	0.473200	0.252300
C501	C50	0.948200	0.352300	0.253300
C511	C51	0.974280	0.232400	0.252100
C521	C52	0.947700	0.604400	0.256200
H531	H53	0.969100	0.664400	0.282300
H541	H54	0.916800	0.591600	0.274100
C531	C53	0.926340	0.606200	0.141400
H551	H55	0.926400	0.515100	0.134400
C541	C54	0.920900	0.812600	0.130400
H561	H56	0.915500	0.895400	0.112000
C551	C55	0.891800	0.354400	0.254900
H571	H57	0.876200	0.283100	0.229600
H581	H58	0.878100	0.438100	0.238300
C561	C56	0.907970	0.351400	0.370600
H591	H59	0.942000	0.373300	0.375600
C571	C57	0.835000	0.305400	0.386600
H601	H60	0.807600	0.286600	0.407200
C581	C58	0.945900	0.103200	0.253900
H611	H61	0.962300	0.035500	0.232100
H621	H62	0.911900	0.114700	0.233500
C591	C59	0.976900	0.071300	0.365500
H631	H63	0.007300	0.116800	0.366900
C601	C60	0.916900	0.959900	0.388800
H641	H64	0.896700	0.910100	0.411500
N371	N37	0.916480	0.697800	0.098990
N381	N38	0.936140	0.662700	0.195300
N391	N39	0.933450	0.797800	0.189300
N401	N40	0.881440	0.328900	0.415240
N411	N41	0.879830	0.338600	0.317400
N421	N42	0.831870	0.311400	0.326400
N431	N43	0.961240	0.010600	0.412400
N441	N44	0.943880	0.059000	0.316520
N451	N45	0.904500	0.986500	0.331000
H651	H65	0.877700	0.963400	0.307700
O411	O41	0.832290	0.420200	0.520610
O421	O42	0.830800	0.684200	0.539740
O431	O43	0.736320	0.430800	0.556490
O441	O44	0.654470	0.561800	0.416790
O451	O45	0.563950	0.563800	0.460560
O461	O46	0.582630	0.803200	0.504750
O471	O47	0.660950	0.622600	0.529290
O481	O48	0.751210	0.882300	0.514620
O491	O49	0.749300	0.683300	0.603540
O501	O50	0.540690	0.039400	0.494310
Zn61	Zn6	0.399550	0.832030	0.507290
Mo261	Mo26	0.298700	0.025230	0.562600
Mo271	Mo27	0.192480	0.952780	0.480670
Mo281	Mo28	0.108410	0.182580	0.445640
Mo291	Mo29	0.205580	0.264100	0.549660
Mo301	Mo30	0.023740	0.362800	0.528270
C611	C61	0.473850	0.973200	0.252300
C621	C62	0.448200	0.852300	0.253300
C631	C63	0.474280	0.732400	0.252100
C641	C64	0.447700	0.104400	0.256200
H661	H66	0.469100	0.164400	0.282300
H671	H67	0.416800	0.091600	0.274100
C651	C65	0.426340	0.106200	0.141400
H681	H68	0.426400	0.015100	0.134400
C661	C66	0.420900	0.312600	0.130400
H691	H69	0.415500	0.395400	0.112000
C671	C67	0.391800	0.854400	0.254900
H701	H70	0.376200	0.783100	0.229600
H711	H71	0.378100	0.938100	0.238300
C681	C68	0.407970	0.851400	0.370600
H721	H72	0.442000	0.873300	0.375600
C691	C69	0.335000	0.805400	0.386600
H731	H73	0.307600	0.786600	0.407200
C701	C70	0.445900	0.603200	0.253900
H741	H74	0.462300	0.535500	0.232100
H751	H75	0.411900	0.614700	0.233500
C711	C71	0.476900	0.571300	0.365500
H761	H76	0.507300	0.616800	0.366900
C721	C72	0.416900	0.459900	0.388800
H771	H77	0.396700	0.410100	0.411500
N461	N46	0.416480	0.197800	0.098990
N471	N47	0.436140	0.162700	0.195300
N481	N48	0.433450	0.297800	0.189300
N491	N49	0.381440	0.828900	0.415240
N501	N50	0.379830	0.838600	0.317400
N511	N51	0.331870	0.811400	0.326400
N521	N52	0.461240	0.510600	0.412400
N531	N53	0.443880	0.559000	0.316520
N541	N54	0.404500	0.486500	0.331000
H781	H78	0.377700	0.463400	0.307700
O511	O51	0.332290	0.920200	0.520610
O521	O52	0.330800	0.184200	0.539740
O531	O53	0.236320	0.930800	0.556490
O541	O54	0.154470	0.061800	0.416790
O551	O55	0.063950	0.063800	0.460560
O561	O56	0.082630	0.303200	0.504750
O571	O57	0.160950	0.122600	0.529290
O581	O58	0.251210	0.382300	0.514620
O591	O59	0.249300	0.183300	0.603540
O601	O60	0.040690	0.539400	0.494310
Zn71	Zn7	0.100450	0.332030	0.992710
Mo311	Mo31	0.201300	0.525230	0.937400
Mo321	Mo32	0.307520	0.452780	0.019330
Mo331	Mo33	0.391590	0.682580	0.054360
Mo341	Mo34	0.294420	0.764100	0.950340
Mo351	Mo35	0.476260	0.862800	0.971730
C731	C73	0.026150	0.473200	0.247700
C741	C74	0.051800	0.352300	0.246700
C751	C75	0.025720	0.232400	0.247900
C761	C76	0.052300	0.604400	0.243800
H791	H79	0.030900	0.664400	0.217700
H801	H80	0.083200	0.591600	0.225900
C771	C77	0.073660	0.606200	0.358600
H811	H81	0.073600	0.515100	0.365600
C781	C78	0.079100	0.812600	0.369600
H821	H82	0.084500	0.895400	0.388000
C791	C79	0.108200	0.354400	0.245100
H831	H83	0.123800	0.283100	0.270400
H841	H84	0.121900	0.438100	0.261700
C801	C80	0.092030	0.351400	0.129400
H851	H85	0.058000	0.373300	0.124400
C811	C81	0.165000	0.305400	0.113400
H861	H86	0.192400	0.286600	0.092800
C821	C82	0.054100	0.103200	0.246100
H871	H87	0.037700	0.035500	0.267900
H881	H88	0.088100	0.114700	0.266500
C831	C83	0.023100	0.071300	0.134500
H891	H89	0.992700	0.116800	0.133100
C841	C84	0.083100	0.959900	0.111200
H901	H90	0.103300	0.910100	0.088500
N551	N55	0.083520	0.697800	0.401010
N561	N56	0.063860	0.662700	0.304700
N571	N57	0.066550	0.797800	0.310700
N581	N58	0.118560	0.328900	0.084760
N591	N59	0.120170	0.338600	0.182600
N601	N60	0.168130	0.311400	0.173600
N611	N61	0.038760	0.010600	0.087600
N621	N62	0.056120	0.059000	0.183480
N631	N63	0.095500	0.986500	0.169000
H911	H91	0.122300	0.963400	0.192300
O611	O61	0.167710	0.420200	0.979390
O621	O62	0.169200	0.684200	0.960260
O631	O63	0.263680	0.430800	0.943510
O641	O64	0.345530	0.561800	0.083210
O651	O65	0.436050	0.563800	0.039440
O661	O66	0.417370	0.803200	0.995250
O671	O67	0.339050	0.622600	0.970710
O681	O68	0.248790	0.882300	0.985380
O691	O69	0.250700	0.683300	0.896460
O701	O70	0.459310	0.039400	0.005690
Zn81	Zn8	0.600450	0.832030	0.992710
Mo361	Mo36	0.701300	0.025230	0.937400
Mo371	Mo37	0.807520	0.952780	0.019330
Mo381	Mo38	0.891590	0.182580	0.054360
Mo391	Mo39	0.794420	0.264100	0.950340
Mo401	Mo40	0.976260	0.362800	0.971730
C851	C85	0.526150	0.973200	0.247700
C861	C86	0.551800	0.852300	0.246700
C871	C87	0.525720	0.732400	0.247900
C881	C88	0.552300	0.104400	0.243800
H921	H92	0.530900	0.164400	0.217700
H931	H93	0.583200	0.091600	0.225900
C891	C89	0.573660	0.106200	0.358600
H941	H94	0.573600	0.015100	0.365600
C901	C90	0.579100	0.312600	0.369600
H951	H95	0.584500	0.395400	0.388000
C911	C91	0.608200	0.854400	0.245100
H961	H96	0.623800	0.783100	0.270400
H971	H97	0.621900	0.938100	0.261700
C921	C92	0.592030	0.851400	0.129400
H981	H98	0.558000	0.873300	0.124400
C931	C93	0.665000	0.805400	0.113400
H991	H99	0.692400	0.786600	0.092800
C941	C94	0.554100	0.603200	0.246100
H1001	H100	0.537700	0.535500	0.267900
H1011	H101	0.588100	0.614700	0.266500
C951	C95	0.523100	0.571300	0.134500
H1021	H102	0.492700	0.616800	0.133100
C961	C96	0.583100	0.459900	0.111200
H1031	H103	0.603300	0.410100	0.088500
N641	N64	0.583520	0.197800	0.401010
N651	N65	0.563860	0.162700	0.304700
N661	N66	0.566550	0.297800	0.310700
N671	N67	0.618560	0.828900	0.084760
N681	N68	0.620170	0.838600	0.182600
N691	N69	0.668130	0.811400	0.173600
N701	N70	0.538760	0.510600	0.087600
N711	N71	0.556120	0.559000	0.183480
N721	N72	0.595500	0.486500	0.169000
H1041	H104	0.622300	0.463400	0.192300
O711	O71	0.667710	0.920200	0.979390
O721	O72	0.669200	0.184200	0.960260
O731	O73	0.763680	0.930800	0.943510
O741	O74	0.845530	0.061800	0.083210
O751	O75	0.936050	0.063800	0.039440
O761	O76	0.917370	0.303200	0.995250
O771	O77	0.839050	0.122600	0.970710
O781	O78	0.748790	0.382300	0.985380
O791	O79	0.750700	0.183300	0.896460
O801	O80	0.959310	0.539400	0.005690
Zn91	Zn9	0.500000	0.500000	0.500000
Zn101	Zn10	0.000000	0.000000	0.500000
Zn111	Zn11	0.500000	0.500000	0.000000
Zn121	Zn12	0.000000	0.000000	0.000000
