data_SEYFAE_clean_PM
_symmetry_space_group_name_H-M	'P1'
_cell_length_a	9.008500
_cell_length_b	9.008500
_cell_length_c	15.799000
_cell_angle_alpha	90.000000
_cell_angle_beta	90.000000
_cell_angle_gamma	90.000000
_symmetry_Int_Tables_number 1

loop_
_symmetry_equiv_pos_as_xyz
'x,y,z'

loop_
_atom_site_label
_atom_site_type_symbol
_atom_site_fract_x
_atom_site_fract_y
_atom_site_fract_z
Er11	Er1	0.032120	0.389410	0.395680
Er21	Er2	0.467880	0.610590	0.895680
Er31	Er3	0.967880	0.889410	0.104320
Er41	Er4	0.532120	0.110590	0.604320
P11	P1	0.126670	0.066730	0.294040
P21	P2	0.373330	0.933270	0.794040
P31	P3	0.873330	0.566730	0.205960
P41	P4	0.626670	0.433270	0.705960
H11	H1	0.142900	0.250300	0.189700
H21	H2	0.299400	0.176800	0.203000
H31	H3	0.440600	0.220200	0.313400
H41	H4	0.460200	0.388800	0.334400
H51	H5	0.377700	0.480200	0.217200
H61	H6	0.207000	0.487400	0.197000
H71	H7	0.269100	0.903900	0.323000
H81	H8	0.357100	0.749700	0.689700
H91	H9	0.200600	0.823200	0.703000
H101	H10	0.059400	0.779800	0.813400
H111	H11	0.039800	0.611200	0.834400
H121	H12	0.122300	0.519800	0.717200
H131	H13	0.293000	0.512600	0.697000
H141	H14	0.230900	0.096100	0.823000
H151	H15	0.857100	0.750300	0.310300
H161	H16	0.700600	0.676800	0.297000
H171	H17	0.559400	0.720200	0.186600
H181	H18	0.539800	0.888800	0.165600
H191	H19	0.622300	0.980200	0.282800
H201	H20	0.793000	0.987400	0.303000
H211	H21	0.730900	0.403900	0.177000
H221	H22	0.642900	0.249700	0.810300
H231	H23	0.799400	0.323200	0.797000
H241	H24	0.940600	0.279800	0.686600
H251	H25	0.960200	0.111200	0.665600
H261	H26	0.877700	0.019800	0.782800
H271	H27	0.707000	0.012600	0.803000
H281	H28	0.769100	0.596100	0.677000
C11	C1	0.212400	0.214700	0.232000
C21	C2	0.392500	0.305400	0.339100
C31	C3	0.368000	0.273000	0.431200
C41	C4	0.279400	0.480000	0.242200
C51	C5	0.263100	0.613000	0.302400
C61	C6	0.287600	0.785300	0.732000
C71	C7	0.107500	0.694600	0.839100
C81	C8	0.132000	0.727000	0.931200
C91	C9	0.220600	0.520000	0.742200
C101	C10	0.236900	0.387000	0.802400
C111	C11	0.787600	0.714700	0.268000
C121	C12	0.607500	0.805400	0.160900
C131	C13	0.632000	0.773000	0.068800
C141	C14	0.720600	0.980000	0.257800
C151	C15	0.736900	0.113000	0.197600
C161	C16	0.712400	0.285300	0.768000
C171	C17	0.892500	0.194600	0.660900
C181	C18	0.868000	0.227000	0.568800
C191	C19	0.779400	0.020000	0.757800
C201	C20	0.763100	0.887000	0.697600
N11	N1	0.256200	0.340100	0.289800
N21	N2	0.243800	0.659900	0.789800
N31	N3	0.743800	0.840100	0.210200
N41	N4	0.756200	0.159900	0.710200
O11	O1	0.245000	0.313600	0.465300
O21	O2	0.469200	0.207500	0.471100
O31	O3	0.316100	0.737400	0.276200
O41	O4	0.189300	0.596600	0.370100
O51	O5	0.248800	0.982500	0.346500
O61	O6	0.050700	0.962800	0.233300
O71	O7	0.025700	0.143700	0.355400
O81	O8	0.255000	0.686400	0.965300
O91	O9	0.030800	0.792500	0.971100
O101	O10	0.183900	0.262600	0.776200
O111	O11	0.310700	0.403400	0.870100
O121	O12	0.251200	0.017500	0.846500
O131	O13	0.449300	0.037200	0.733300
O141	O14	0.474300	0.856300	0.855400
O151	O15	0.755000	0.813600	0.034700
O161	O16	0.530800	0.707500	0.028900
O171	O17	0.683900	0.237400	0.223800
O181	O18	0.810700	0.096600	0.129900
O191	O19	0.751200	0.482500	0.153500
O201	O20	0.949300	0.462800	0.266700
O211	O21	0.974300	0.643700	0.144600
O221	O22	0.745000	0.186400	0.534700
O231	O23	0.969200	0.292500	0.528900
O241	O24	0.816100	0.762600	0.723800
O251	O25	0.689300	0.903400	0.629900
O261	O26	0.748800	0.517500	0.653500
O271	O27	0.550700	0.537200	0.766700
O281	O28	0.525700	0.356300	0.644600
