data_SEZPOE_clean_PM
_symmetry_space_group_name_H-M	'P1'
_cell_length_a	9.585200
_cell_length_b	20.394100
_cell_length_c	10.533900
_cell_angle_alpha	90.000000
_cell_angle_beta	94.125000
_cell_angle_gamma	90.000000
_symmetry_Int_Tables_number 1

loop_
_symmetry_equiv_pos_as_xyz
'x,y,z'

loop_
_atom_site_label
_atom_site_type_symbol
_atom_site_fract_x
_atom_site_fract_y
_atom_site_fract_z
Zn11	Zn1	0.181660	0.303710	0.363520
Zn21	Zn2	0.309300	0.551210	0.404000
Zn31	Zn3	0.036630	0.566140	0.866040
P11	P1	0.098790	0.201430	0.570760
H11	H1	0.975000	0.219000	0.529000
P21	P2	0.435840	0.407270	0.423160
H21	H2	0.502000	0.431000	0.333000
P31	P3	0.162090	0.558190	0.140320
H31	H3	0.119000	0.625000	0.148400
P41	P4	0.110130	0.620360	0.593320
H41	H4	0.187000	0.670000	0.582600
O11	O1	0.100000	0.127050	0.576200
O21	O2	0.128300	0.233410	0.698700
O31	O3	0.199000	0.224140	0.474000
O41	O4	0.359500	0.347450	0.370000
O51	O5	0.545000	0.389410	0.528700
O61	O6	0.340200	0.461330	0.465200
O71	O7	0.299900	0.552550	0.220000
O81	O8	0.046800	0.516860	0.192700
O91	O9	0.180300	0.544700	0.000500
O101	O10	0.144400	0.591990	0.724100
O111	O11	0.141500	0.573190	0.488800
O121	O12	0.960400	0.642290	0.568500
Zn41	Zn4	0.818340	0.803710	0.136480
Zn51	Zn5	0.690700	0.051210	0.096000
Zn61	Zn6	0.963370	0.066140	0.633960
P51	P5	0.901210	0.701430	0.929240
H51	H5	0.025000	0.719000	0.971000
P61	P6	0.564160	0.907270	0.076840
H61	H6	0.498000	0.931000	0.167000
P71	P7	0.837910	0.058190	0.359680
H71	H7	0.881000	0.125000	0.351600
P81	P8	0.889870	0.120360	0.906680
H81	H8	0.813000	0.170000	0.917400
O131	O13	0.900000	0.627050	0.923800
O141	O14	0.871700	0.733410	0.801300
O151	O15	0.801000	0.724140	0.026000
O161	O16	0.640500	0.847450	0.130000
O171	O17	0.455000	0.889410	0.971300
O181	O18	0.659800	0.961330	0.034800
O191	O19	0.700100	0.052550	0.280000
O201	O20	0.953200	0.016860	0.307300
O211	O21	0.819700	0.044700	0.499500
O221	O22	0.855600	0.091990	0.775900
O231	O23	0.858500	0.073190	0.011200
O241	O24	0.039600	0.142290	0.931500
Zn71	Zn7	0.818340	0.696290	0.636480
Zn81	Zn8	0.690700	0.448790	0.596000
Zn91	Zn9	0.963370	0.433860	0.133960
P91	P9	0.901210	0.798570	0.429240
H91	H9	0.025000	0.781000	0.471000
P101	P10	0.564160	0.592730	0.576840
H101	H10	0.498000	0.569000	0.667000
P111	P11	0.837910	0.441810	0.859680
H111	H11	0.881000	0.375000	0.851600
P121	P12	0.889870	0.379640	0.406680
H121	H12	0.813000	0.330000	0.417400
O251	O25	0.900000	0.872950	0.423800
O261	O26	0.871700	0.766590	0.301300
O271	O27	0.801000	0.775860	0.526000
O281	O28	0.640500	0.652550	0.630000
O291	O29	0.455000	0.610590	0.471300
O301	O30	0.659800	0.538670	0.534800
O311	O31	0.700100	0.447450	0.780000
O321	O32	0.953200	0.483140	0.807300
O331	O33	0.819700	0.455300	0.999500
O341	O34	0.855600	0.408010	0.275900
O351	O35	0.858500	0.426810	0.511200
O361	O36	0.039600	0.357710	0.431500
Zn101	Zn10	0.181660	0.196290	0.863520
Zn111	Zn11	0.309300	0.948790	0.904000
Zn121	Zn12	0.036630	0.933860	0.366040
P131	P13	0.098790	0.298570	0.070760
H131	H13	0.975000	0.281000	0.029000
P141	P14	0.435840	0.092730	0.923160
H141	H14	0.502000	0.069000	0.833000
P151	P15	0.162090	0.941810	0.640320
H151	H15	0.119000	0.875000	0.648400
P161	P16	0.110130	0.879640	0.093320
H161	H16	0.187000	0.830000	0.082600
O371	O37	0.100000	0.372950	0.076200
O381	O38	0.128300	0.266590	0.198700
O391	O39	0.199000	0.275860	0.974000
O401	O40	0.359500	0.152550	0.870000
O411	O41	0.545000	0.110590	0.028700
O421	O42	0.340200	0.038670	0.965200
O431	O43	0.299900	0.947450	0.720000
O441	O44	0.046800	0.983140	0.692700
O451	O45	0.180300	0.955300	0.500500
O461	O46	0.144400	0.908010	0.224100
O471	O47	0.141500	0.926810	0.988800
O481	O48	0.960400	0.857710	0.068500
