data_SIBDEO_clean_PM
_symmetry_space_group_name_H-M	'P1'
_cell_length_a	16.128400
_cell_length_b	16.128400
_cell_length_c	5.213400
_cell_angle_alpha	90.000000
_cell_angle_beta	90.000000
_cell_angle_gamma	90.000000
_symmetry_Int_Tables_number 1

loop_
_symmetry_equiv_pos_as_xyz
'x,y,z'

loop_
_atom_site_label
_atom_site_type_symbol
_atom_site_fract_x
_atom_site_fract_y
_atom_site_fract_z
C11	C1	0.246130	0.056120	0.758100
H11	H1	0.285200	0.075500	0.641300
C21	C2	0.226910	0.973530	0.757200
H21	H2	0.252700	0.937600	0.642500
C31	C3	0.168670	0.944190	0.929000
H31	H3	0.155000	0.888200	0.932400
C41	C4	0.131040	0.999120	0.096000
C51	C5	0.154700	0.081820	0.085100
H41	H4	0.130100	0.119100	0.198000
C61	C6	0.067970	0.970740	0.278600
H51	H5	0.056600	0.914300	0.290400
N11	N1	0.211080	0.110170	0.920000
N21	N2	0.028710	0.020370	0.419800
C71	C7	0.253870	0.443880	0.758100
H61	H6	0.214800	0.424500	0.641300
C81	C8	0.273090	0.526470	0.757200
H71	H7	0.247300	0.562400	0.642500
C91	C9	0.331330	0.555810	0.929000
H81	H8	0.345000	0.611800	0.932400
C101	C10	0.368960	0.500880	0.096000
C111	C11	0.345300	0.418180	0.085100
H91	H9	0.369900	0.380900	0.198000
C121	C12	0.432030	0.529260	0.278600
H101	H10	0.443400	0.585700	0.290400
N31	N3	0.288920	0.389830	0.920000
N41	N4	0.471290	0.479630	0.419800
C131	C13	0.443880	0.246130	0.758100
H111	H11	0.424500	0.285200	0.641300
C141	C14	0.526470	0.226910	0.757200
H121	H12	0.562400	0.252700	0.642500
C151	C15	0.555810	0.168670	0.929000
H131	H13	0.611800	0.155000	0.932400
C161	C16	0.500880	0.131040	0.096000
C171	C17	0.418180	0.154700	0.085100
H141	H14	0.380900	0.130100	0.198000
C181	C18	0.529260	0.067970	0.278600
H151	H15	0.585700	0.056600	0.290400
N51	N5	0.389830	0.211080	0.920000
N61	N6	0.479630	0.028710	0.419800
C191	C19	0.056120	0.253870	0.758100
H161	H16	0.075500	0.214800	0.641300
C201	C20	0.973530	0.273090	0.757200
H171	H17	0.937600	0.247300	0.642500
C211	C21	0.944190	0.331330	0.929000
H181	H18	0.888200	0.345000	0.932400
C221	C22	0.999120	0.368960	0.096000
C231	C23	0.081820	0.345300	0.085100
H191	H19	0.119100	0.369900	0.198000
C241	C24	0.970740	0.432030	0.278600
H201	H20	0.914300	0.443400	0.290400
N71	N7	0.110170	0.288920	0.920000
N81	N8	0.020370	0.471290	0.419800
C251	C25	0.753870	0.943880	0.241900
H211	H21	0.714800	0.924500	0.358700
C261	C26	0.773090	0.026470	0.242800
H221	H22	0.747300	0.062400	0.357500
C271	C27	0.831330	0.055810	0.071000
H231	H23	0.845000	0.111800	0.067600
C281	C28	0.868960	0.000880	0.904000
C291	C29	0.845300	0.918180	0.914900
H241	H24	0.869900	0.880900	0.802000
C301	C30	0.932030	0.029260	0.721400
H251	H25	0.943400	0.085700	0.709600
N91	N9	0.788920	0.889830	0.080000
N101	N10	0.971290	0.979630	0.580200
C311	C31	0.746130	0.556120	0.241900
H261	H26	0.785200	0.575500	0.358700
C321	C32	0.726910	0.473530	0.242800
H271	H27	0.752700	0.437600	0.357500
C331	C33	0.668670	0.444190	0.071000
H281	H28	0.655000	0.388200	0.067600
C341	C34	0.631040	0.499120	0.904000
C351	C35	0.654700	0.581820	0.914900
H291	H29	0.630100	0.619100	0.802000
C361	C36	0.567970	0.470740	0.721400
H301	H30	0.556600	0.414300	0.709600
N111	N11	0.711080	0.610170	0.080000
N121	N12	0.528710	0.520370	0.580200
C371	C37	0.556120	0.753870	0.241900
H311	H31	0.575500	0.714800	0.358700
C381	C38	0.473530	0.773090	0.242800
H321	H32	0.437600	0.747300	0.357500
C391	C39	0.444190	0.831330	0.071000
H331	H33	0.388200	0.845000	0.067600
C401	C40	0.499120	0.868960	0.904000
C411	C41	0.581820	0.845300	0.914900
H341	H34	0.619100	0.869900	0.802000
C421	C42	0.470740	0.932030	0.721400
H351	H35	0.414300	0.943400	0.709600
N131	N13	0.610170	0.788920	0.080000
N141	N14	0.520370	0.971290	0.580200
C431	C43	0.943880	0.746130	0.241900
H361	H36	0.924500	0.785200	0.358700
C441	C44	0.026470	0.726910	0.242800
H371	H37	0.062400	0.752700	0.357500
C451	C45	0.055810	0.668670	0.071000
H381	H38	0.111800	0.655000	0.067600
C461	C46	0.000880	0.631040	0.904000
C471	C47	0.918180	0.654700	0.914900
H391	H39	0.880900	0.630100	0.802000
C481	C48	0.029260	0.567970	0.721400
H401	H40	0.085700	0.556600	0.709600
N151	N15	0.889830	0.711080	0.080000
N161	N16	0.979630	0.528710	0.580200
Cl11	Cl1	0.250000	0.250000	0.418770
Cd11	Cd1	0.250000	0.250000	0.918270
Cl21	Cl2	0.750000	0.750000	0.581230
Cd21	Cd2	0.750000	0.750000	0.081730
