data_SIBLAQ_clean_PM
_symmetry_space_group_name_H-M	'P1'
_cell_length_a	17.669000
_cell_length_b	8.537000
_cell_length_c	10.252000
_cell_angle_alpha	90.000000
_cell_angle_beta	103.420000
_cell_angle_gamma	90.000000
_symmetry_Int_Tables_number 1

loop_
_symmetry_equiv_pos_as_xyz
'x,y,z'

loop_
_atom_site_label
_atom_site_type_symbol
_atom_site_fract_x
_atom_site_fract_y
_atom_site_fract_z
P11	P1	0.290600	0.602100	0.885200
Al11	Al1	0.329200	0.350600	0.683200
O11	O1	0.301800	0.449500	0.812100
O21	O2	0.206100	0.657600	0.822200
O31	O3	0.429300	0.344000	0.715900
O41	O4	0.348600	0.726800	0.881700
O51	O5	0.290500	0.550800	0.031600
O61	O6	0.495100	0.131600	0.868000
P21	P2	0.790600	0.102100	0.885200
Al21	Al2	0.829200	0.850600	0.683200
O71	O7	0.801800	0.949500	0.812100
O81	O8	0.706100	0.157600	0.822200
O91	O9	0.929300	0.844000	0.715900
O101	O10	0.848600	0.226800	0.881700
O111	O11	0.790500	0.050800	0.031600
O121	O12	0.995100	0.631600	0.868000
P31	P3	0.709400	0.602100	0.614800
Al31	Al3	0.670800	0.350600	0.816800
O131	O13	0.698200	0.449500	0.687900
O141	O14	0.793900	0.657600	0.677800
O151	O15	0.570700	0.344000	0.784100
O161	O16	0.651400	0.726800	0.618300
O171	O17	0.709500	0.550800	0.468400
O181	O18	0.504900	0.131600	0.632000
P41	P4	0.209400	0.102100	0.614800
Al41	Al4	0.170800	0.850600	0.816800
O191	O19	0.198200	0.949500	0.687900
O201	O20	0.293900	0.157600	0.677800
O211	O21	0.070700	0.844000	0.784100
O221	O22	0.151400	0.226800	0.618300
O231	O23	0.209500	0.050800	0.468400
O241	O24	0.004900	0.631600	0.632000
P51	P5	0.709400	0.397900	0.114800
Al51	Al5	0.670800	0.649400	0.316800
O251	O25	0.698200	0.550500	0.187900
O261	O26	0.793900	0.342400	0.177800
O271	O27	0.570700	0.656000	0.284100
O281	O28	0.651400	0.273200	0.118300
O291	O29	0.709500	0.449200	0.968400
O301	O30	0.504900	0.868400	0.132000
P61	P6	0.209400	0.897900	0.114800
Al61	Al6	0.170800	0.149400	0.316800
O311	O31	0.198200	0.050500	0.187900
O321	O32	0.293900	0.842400	0.177800
O331	O33	0.070700	0.156000	0.284100
O341	O34	0.151400	0.773200	0.118300
O351	O35	0.209500	0.949200	0.968400
O361	O36	0.004900	0.368400	0.132000
P71	P7	0.290600	0.397900	0.385200
Al71	Al7	0.329200	0.649400	0.183200
O371	O37	0.301800	0.550500	0.312100
O381	O38	0.206100	0.342400	0.322200
O391	O39	0.429300	0.656000	0.215900
O401	O40	0.348600	0.273200	0.381700
O411	O41	0.290500	0.449200	0.531600
O421	O42	0.495100	0.868400	0.368000
P81	P8	0.790600	0.897900	0.385200
Al81	Al8	0.829200	0.149400	0.183200
O431	O43	0.801800	0.050500	0.312100
O441	O44	0.706100	0.842400	0.322200
O451	O45	0.929300	0.156000	0.215900
O461	O46	0.848600	0.773200	0.381700
O471	O47	0.790500	0.949200	0.531600
O481	O48	0.995100	0.368400	0.368000
P91	P9	0.500000	0.233300	0.750000
P101	P10	0.000000	0.733300	0.750000
P111	P11	0.500000	0.766700	0.250000
P121	P12	0.000000	0.266700	0.250000
