data_SICZOV_clean_PM
_symmetry_space_group_name_H-M	'P1'
_cell_length_a	23.441500
_cell_length_b	23.441500
_cell_length_c	23.441500
_cell_angle_alpha	83.119600
_cell_angle_beta	83.119600
_cell_angle_gamma	83.119600
_symmetry_Int_Tables_number 1

loop_
_symmetry_equiv_pos_as_xyz
'x,y,z'

loop_
_atom_site_label
_atom_site_type_symbol
_atom_site_fract_x
_atom_site_fract_y
_atom_site_fract_z
In11	In1	0.642910	0.705850	0.773050
In21	In2	0.226910	0.294110	0.357020
In31	In3	0.773050	0.642910	0.705850
In41	In4	0.357020	0.226910	0.294110
In51	In5	0.705850	0.773050	0.642910
In61	In6	0.294110	0.357020	0.226910
P11	P1	0.649420	0.495010	0.098250
P21	P2	0.098250	0.649420	0.495010
P31	P3	0.495010	0.098250	0.649420
H11	H1	0.700800	0.668400	0.944100
H21	H2	0.821700	0.556600	0.872600
H31	H3	0.722200	0.620300	0.037100
H41	H4	0.847700	0.520300	0.961500
H51	H5	0.878300	0.516100	0.044600
H61	H6	0.955200	0.470500	0.114700
H71	H7	0.801700	0.431300	0.257600
H81	H8	0.897000	0.409300	0.274900
H91	H9	0.790300	0.560100	0.239500
H101	H10	0.963200	0.340300	0.266600
H111	H11	0.027200	0.454400	0.144600
H121	H12	0.602200	0.486100	0.338700
H131	H13	0.651100	0.532300	0.393300
H141	H14	0.796400	0.597300	0.326400
H151	H15	0.058300	0.306100	0.284000
H161	H16	0.119300	0.416800	0.163000
H171	H17	0.598300	0.365200	0.313200
H181	H18	0.542700	0.481900	0.180700
H191	H19	0.521300	0.307500	0.313200
H201	H20	0.456500	0.423700	0.180800
H211	H21	0.760400	0.510800	0.462700
H221	H22	0.725200	0.676300	0.384300
H231	H23	0.764100	0.553300	0.551800
H241	H24	0.725700	0.715400	0.474900
H251	H25	0.944100	0.700800	0.668400
H261	H26	0.872600	0.821700	0.556600
H271	H27	0.037100	0.722200	0.620300
H281	H28	0.961500	0.847700	0.520300
H291	H29	0.044600	0.878300	0.516100
H301	H30	0.114700	0.955200	0.470500
H311	H31	0.257600	0.801700	0.431300
H321	H32	0.274900	0.897000	0.409300
H331	H33	0.239500	0.790300	0.560100
H341	H34	0.266600	0.963200	0.340300
H351	H35	0.144600	0.027200	0.454400
H361	H36	0.338700	0.602200	0.486100
H371	H37	0.393300	0.651100	0.532300
H381	H38	0.326400	0.796400	0.597300
H391	H39	0.284000	0.058300	0.306100
H401	H40	0.163000	0.119300	0.416800
H411	H41	0.313200	0.598300	0.365200
H421	H42	0.180700	0.542700	0.481900
H431	H43	0.313200	0.521300	0.307500
H441	H44	0.180800	0.456500	0.423700
H451	H45	0.462700	0.760400	0.510800
H461	H46	0.384300	0.725200	0.676300
H471	H47	0.551800	0.764100	0.553300
H481	H48	0.474900	0.725700	0.715400
H491	H49	0.668400	0.944100	0.700800
H501	H50	0.556600	0.872600	0.821700
H511	H51	0.620300	0.037100	0.722200
H521	H52	0.520300	0.961500	0.847700
H531	H53	0.516100	0.044600	0.878300
H541	H54	0.470500	0.114700	0.955200
H551	H55	0.431300	0.257600	0.801700
H561	H56	0.409300	0.274900	0.897000
H571	H57	0.560100	0.239500	0.790300
H581	H58	0.340300	0.266600	0.963200
H591	H59	0.454400	0.144600	0.027200
H601	H60	0.486100	0.338700	0.602200
H611	H61	0.532300	0.393300	0.651100
H621	H62	0.597300	0.326400	0.796400
H631	H63	0.306100	0.284000	0.058300
H641	H64	0.416800	0.163000	0.119300
H651	H65	0.365200	0.313200	0.598300
H661	H66	0.481900	0.180700	0.542700
H671	H67	0.307500	0.313200	0.521300
H681	H68	0.423700	0.180800	0.456500
H691	H69	0.510800	0.462700	0.760400
H701	H70	0.676300	0.384300	0.725200
H711	H71	0.553300	0.551800	0.764100
H721	H72	0.715400	0.474900	0.725700
C11	C1	0.748100	0.650200	0.840900
C21	C2	0.762800	0.616000	0.901800
C31	C3	0.729800	0.636600	0.947800
C41	C4	0.801900	0.571500	0.906300
C51	C5	0.742200	0.606700	0.002800
C61	C6	0.814200	0.547300	0.959000
C71	C7	0.782500	0.558600	0.007000
C81	C8	0.790200	0.527100	0.063500
C91	C9	0.848400	0.508900	0.074800
C101	C10	0.750600	0.521700	0.110600
C111	C11	0.863800	0.481200	0.127000
C121	C12	0.758600	0.496800	0.162300
C131	C13	0.817300	0.469600	0.174000
C141	C14	0.923200	0.460500	0.141400
C151	C15	0.712900	0.494100	0.211900
C161	C16	0.831600	0.439900	0.227800
C171	C17	0.932900	0.427300	0.192200
C181	C18	0.718800	0.518000	0.267000
C191	C19	0.665400	0.469400	0.207300
C201	C20	0.888000	0.423600	0.236900
C211	C21	0.991700	0.399300	0.203100
C221	C22	0.676100	0.515100	0.309900
C231	C23	0.762600	0.552500	0.271800
C241	C24	0.623300	0.461600	0.254500
C251	C25	0.995600	0.356600	0.245500
C261	C26	0.033500	0.423400	0.173800
C271	C27	0.631000	0.488500	0.306600
C281	C28	0.680100	0.537500	0.361800
C291	C29	0.765800	0.575400	0.322500
C301	C30	0.574000	0.430900	0.252900
C311	C31	0.052500	0.338400	0.256000
C321	C32	0.087600	0.401900	0.186800
C331	C33	0.724000	0.565800	0.366700
C341	C34	0.569000	0.378500	0.288400
C351	C35	0.536100	0.449700	0.208400
C361	C36	0.099400	0.361700	0.230500
C371	C37	0.734200	0.590000	0.419300
C381	C38	0.521400	0.343300	0.289300
C391	C39	0.483500	0.413900	0.208600
C401	C40	0.159190	0.349030	0.251810
C411	C41	0.751700	0.551100	0.465300
C421	C42	0.729800	0.651500	0.418900
C431	C43	0.477210	0.361310	0.256410
C441	C44	0.755200	0.578100	0.518200
C451	C45	0.732900	0.674800	0.473200
C461	C46	0.423050	0.334650	0.252750
C471	C47	0.746340	0.638540	0.522840
C481	C48	0.747770	0.662570	0.576970
C491	C49	0.840900	0.748100	0.650200
C501	C50	0.901800	0.762800	0.616000
C511	C51	0.947800	0.729800	0.636600
C521	C52	0.906300	0.801900	0.571500
C531	C53	0.002800	0.742200	0.606700
C541	C54	0.959000	0.814200	0.547300
C551	C55	0.007000	0.782500	0.558600
C561	C56	0.063500	0.790200	0.527100
C571	C57	0.074800	0.848400	0.508900
C581	C58	0.110600	0.750600	0.521700
C591	C59	0.127000	0.863800	0.481200
C601	C60	0.162300	0.758600	0.496800
C611	C61	0.174000	0.817300	0.469600
C621	C62	0.141400	0.923200	0.460500
C631	C63	0.211900	0.712900	0.494100
C641	C64	0.227800	0.831600	0.439900
C651	C65	0.192200	0.932900	0.427300
C661	C66	0.267000	0.718800	0.518000
C671	C67	0.207300	0.665400	0.469400
C681	C68	0.236900	0.888000	0.423600
C691	C69	0.203100	0.991700	0.399300
C701	C70	0.309900	0.676100	0.515100
C711	C71	0.271800	0.762600	0.552500
C721	C72	0.254500	0.623300	0.461600
C731	C73	0.245500	0.995600	0.356600
C741	C74	0.173800	0.033500	0.423400
C751	C75	0.306600	0.631000	0.488500
C761	C76	0.361800	0.680100	0.537500
C771	C77	0.322500	0.765800	0.575400
C781	C78	0.252900	0.574000	0.430900
C791	C79	0.256000	0.052500	0.338400
C801	C80	0.186800	0.087600	0.401900
C811	C81	0.366700	0.724000	0.565800
C821	C82	0.288400	0.569000	0.378500
C831	C83	0.208400	0.536100	0.449700
C841	C84	0.230500	0.099400	0.361700
C851	C85	0.419300	0.734200	0.590000
C861	C86	0.289300	0.521400	0.343300
C871	C87	0.208600	0.483500	0.413900
C881	C88	0.251810	0.159190	0.349030
C891	C89	0.465300	0.751700	0.551100
C901	C90	0.418900	0.729800	0.651500
C911	C91	0.256410	0.477210	0.361310
C921	C92	0.518200	0.755200	0.578100
C931	C93	0.473200	0.732900	0.674800
C941	C94	0.252750	0.423050	0.334650
C951	C95	0.522840	0.746340	0.638540
C961	C96	0.576970	0.747770	0.662570
C971	C97	0.650200	0.840900	0.748100
C981	C98	0.616000	0.901800	0.762800
C991	C99	0.636600	0.947800	0.729800
C1001	C100	0.571500	0.906300	0.801900
C1011	C101	0.606700	0.002800	0.742200
C1021	C102	0.547300	0.959000	0.814200
C1031	C103	0.558600	0.007000	0.782500
C1041	C104	0.527100	0.063500	0.790200
C1051	C105	0.508900	0.074800	0.848400
C1061	C106	0.521700	0.110600	0.750600
C1071	C107	0.481200	0.127000	0.863800
C1081	C108	0.496800	0.162300	0.758600
C1091	C109	0.469600	0.174000	0.817300
C1101	C110	0.460500	0.141400	0.923200
C1111	C111	0.494100	0.211900	0.712900
C1121	C112	0.439900	0.227800	0.831600
C1131	C113	0.427300	0.192200	0.932900
C1141	C114	0.518000	0.267000	0.718800
C1151	C115	0.469400	0.207300	0.665400
C1161	C116	0.423600	0.236900	0.888000
C1171	C117	0.399300	0.203100	0.991700
C1181	C118	0.515100	0.309900	0.676100
C1191	C119	0.552500	0.271800	0.762600
C1201	C120	0.461600	0.254500	0.623300
C1211	C121	0.356600	0.245500	0.995600
C1221	C122	0.423400	0.173800	0.033500
C1231	C123	0.488500	0.306600	0.631000
C1241	C124	0.537500	0.361800	0.680100
C1251	C125	0.575400	0.322500	0.765800
C1261	C126	0.430900	0.252900	0.574000
C1271	C127	0.338400	0.256000	0.052500
C1281	C128	0.401900	0.186800	0.087600
C1291	C129	0.565800	0.366700	0.724000
C1301	C130	0.378500	0.288400	0.569000
C1311	C131	0.449700	0.208400	0.536100
C1321	C132	0.361700	0.230500	0.099400
C1331	C133	0.590000	0.419300	0.734200
C1341	C134	0.343300	0.289300	0.521400
C1351	C135	0.413900	0.208600	0.483500
C1361	C136	0.349030	0.251810	0.159190
C1371	C137	0.551100	0.465300	0.751700
C1381	C138	0.651500	0.418900	0.729800
C1391	C139	0.361310	0.256410	0.477210
C1401	C140	0.578100	0.518200	0.755200
C1411	C141	0.674800	0.473200	0.732900
C1421	C142	0.334650	0.252750	0.423050
C1431	C143	0.638540	0.522840	0.746340
C1441	C144	0.662570	0.576970	0.747770
O11	O1	0.702320	0.682590	0.839020
O21	O2	0.772480	0.636360	0.613720
O31	O3	0.720760	0.713620	0.577020
O41	O4	0.780650	0.635050	0.798360
O51	O5	0.694610	0.541410	0.100110
O61	O6	0.660720	0.448920	0.154820
O71	O7	0.594750	0.527050	0.104350
O81	O8	0.669200	0.462600	0.053100
O91	O9	0.160730	0.317140	0.297880
O101	O10	0.202030	0.365360	0.219640
O111	O11	0.423250	0.286090	0.278760
O121	O12	0.386100	0.362930	0.227730
O131	O13	0.839020	0.702320	0.682590
O141	O14	0.613720	0.772480	0.636360
O151	O15	0.577020	0.720760	0.713620
O161	O16	0.798360	0.780650	0.635050
O171	O17	0.100110	0.694610	0.541410
O181	O18	0.154820	0.660720	0.448920
O191	O19	0.104350	0.594750	0.527050
O201	O20	0.053100	0.669200	0.462600
O211	O21	0.297880	0.160730	0.317140
O221	O22	0.219640	0.202030	0.365360
O231	O23	0.278760	0.423250	0.286090
O241	O24	0.227730	0.386100	0.362930
O251	O25	0.682590	0.839020	0.702320
O261	O26	0.636360	0.613720	0.772480
O271	O27	0.713620	0.577020	0.720760
O281	O28	0.635050	0.798360	0.780650
O291	O29	0.541410	0.100110	0.694610
O301	O30	0.448920	0.154820	0.660720
O311	O31	0.527050	0.104350	0.594750
O321	O32	0.462600	0.053100	0.669200
O331	O33	0.317140	0.297880	0.160730
O341	O34	0.365360	0.219640	0.202030
O351	O35	0.286090	0.278760	0.423250
O361	O36	0.362930	0.227730	0.386100
O371	O37	0.708530	0.708530	0.708530
O381	O38	0.291880	0.291880	0.291880
