data_SIHLUQ_clean_PM
_symmetry_space_group_name_H-M	'P1'
_cell_length_a	13.549400
_cell_length_b	13.549400
_cell_length_c	15.279500
_cell_angle_alpha	90.000000
_cell_angle_beta	90.000000
_cell_angle_gamma	120.000000
_symmetry_Int_Tables_number 1

loop_
_symmetry_equiv_pos_as_xyz
'x,y,z'

loop_
_atom_site_label
_atom_site_type_symbol
_atom_site_fract_x
_atom_site_fract_y
_atom_site_fract_z
Al11	Al1	0.097300	0.662100	0.069500
P11	P1	0.328300	0.897900	0.063000
O11	O1	0.216000	0.789600	0.043600
O21	O2	0.125900	0.552800	0.052000
O31	O3	0.989800	0.649600	0.001900
O41	O4	0.053900	0.660700	0.177300
Al21	Al2	0.763970	0.995430	0.402830
P21	P2	0.994970	0.231230	0.396330
O51	O5	0.882670	0.122930	0.376930
O61	O6	0.792570	0.886130	0.385330
O71	O7	0.656470	0.982930	0.335230
O81	O8	0.720570	0.994030	0.510630
Al31	Al3	0.430630	0.328770	0.736170
P31	P3	0.661630	0.564570	0.729670
O91	O9	0.549330	0.456270	0.710270
O101	O10	0.459230	0.219470	0.718670
O111	O11	0.323130	0.316270	0.668570
O121	O12	0.387230	0.327370	0.843970
Al41	Al4	0.337900	0.435200	0.069500
P41	P4	0.102100	0.430400	0.063000
O131	O13	0.210400	0.426400	0.043600
O141	O14	0.447200	0.573100	0.052000
O151	O15	0.350400	0.340200	0.001900
O161	O16	0.339300	0.393200	0.177300
Al51	Al5	0.004570	0.768530	0.402830
P51	P5	0.768770	0.763730	0.396330
O171	O17	0.877070	0.759730	0.376930
O181	O18	0.113870	0.906430	0.385330
O191	O19	0.017070	0.673530	0.335230
O201	O20	0.005970	0.726530	0.510630
Al61	Al6	0.671230	0.101870	0.736170
P61	P6	0.435430	0.097070	0.729670
O211	O21	0.543730	0.093070	0.710270
O221	O22	0.780530	0.239770	0.718670
O231	O23	0.683730	0.006870	0.668570
O241	O24	0.672630	0.059870	0.843970
Al71	Al7	0.564800	0.902700	0.069500
P71	P7	0.569600	0.671700	0.063000
O251	O25	0.573600	0.784000	0.043600
O261	O26	0.426900	0.874100	0.052000
O271	O27	0.659800	0.010200	0.001900
O281	O28	0.606800	0.946100	0.177300
Al81	Al8	0.231470	0.236030	0.402830
P81	P8	0.236270	0.005030	0.396330
O291	O29	0.240270	0.117330	0.376930
O301	O30	0.093570	0.207430	0.385330
O311	O31	0.326470	0.343530	0.335230
O321	O32	0.273470	0.279430	0.510630
Al91	Al9	0.898130	0.569370	0.736170
P91	P9	0.902930	0.338370	0.729670
O331	O33	0.906930	0.450670	0.710270
O341	O34	0.760230	0.540770	0.718670
O351	O35	0.993130	0.676870	0.668570
O361	O36	0.940130	0.612770	0.843970
Al101	Al10	0.902700	0.337900	0.930500
P101	P10	0.671700	0.102100	0.937000
O371	O37	0.784000	0.210400	0.956400
O381	O38	0.874100	0.447200	0.948000
O391	O39	0.010200	0.350400	0.998100
O401	O40	0.946100	0.339300	0.822700
Al111	Al11	0.569370	0.671230	0.263830
P111	P11	0.338370	0.435430	0.270330
O411	O41	0.450670	0.543730	0.289730
O421	O42	0.540770	0.780530	0.281330
O431	O43	0.676870	0.683730	0.331430
O441	O44	0.612770	0.672630	0.156030
Al121	Al12	0.236030	0.004570	0.597170
P121	P12	0.005030	0.768770	0.603670
O451	O45	0.117330	0.877070	0.623070
O461	O46	0.207430	0.113870	0.614670
O471	O47	0.343530	0.017070	0.664770
O481	O48	0.279430	0.005970	0.489370
Al131	Al13	0.662100	0.564800	0.930500
P131	P13	0.897900	0.569600	0.937000
O491	O49	0.789600	0.573600	0.956400
O501	O50	0.552800	0.426900	0.948000
O511	O51	0.649600	0.659800	0.998100
O521	O52	0.660700	0.606800	0.822700
Al141	Al14	0.328770	0.898130	0.263830
P141	P14	0.564570	0.902930	0.270330
O531	O53	0.456270	0.906930	0.289730
O541	O54	0.219470	0.760230	0.281330
O551	O55	0.316270	0.993130	0.331430
O561	O56	0.327370	0.940130	0.156030
Al151	Al15	0.995430	0.231470	0.597170
P151	P15	0.231230	0.236270	0.603670
O571	O57	0.122930	0.240270	0.623070
O581	O58	0.886130	0.093570	0.614670
O591	O59	0.982930	0.326470	0.664770
O601	O60	0.994030	0.273470	0.489370
Al161	Al16	0.435200	0.097300	0.930500
P161	P16	0.430400	0.328300	0.937000
O611	O61	0.426400	0.216000	0.956400
O621	O62	0.573100	0.125900	0.948000
O631	O63	0.340200	0.989800	0.998100
O641	O64	0.393200	0.053900	0.822700
Al171	Al17	0.101870	0.430630	0.263830
P171	P17	0.097070	0.661630	0.270330
O651	O65	0.093070	0.549330	0.289730
O661	O66	0.239770	0.459230	0.281330
O671	O67	0.006870	0.323130	0.331430
O681	O68	0.059870	0.387230	0.156030
Al181	Al18	0.768530	0.763970	0.597170
P181	P18	0.763730	0.994970	0.603670
O691	O69	0.759730	0.882670	0.623070
O701	O70	0.906430	0.792570	0.614670
O711	O71	0.673530	0.656470	0.664770
O721	O72	0.726530	0.720570	0.489370
