data_SIKJOM_clean_PM
_symmetry_space_group_name_H-M	'P1'
_cell_length_a	5.682000
_cell_length_b	13.702000
_cell_length_c	28.274000
_cell_angle_alpha	90.000000
_cell_angle_beta	93.207000
_cell_angle_gamma	90.000000
_symmetry_Int_Tables_number 1

loop_
_symmetry_equiv_pos_as_xyz
'x,y,z'

loop_
_atom_site_label
_atom_site_type_symbol
_atom_site_fract_x
_atom_site_fract_y
_atom_site_fract_z
Cu11	Cu1	0.045720	0.086960	0.031690
O11	O1	0.183800	0.957900	0.018090
H11	H1	0.194000	0.921000	0.042300
O21	O2	0.256900	0.112200	0.086900
O31	O3	0.591700	0.038900	0.065640
O41	O4	0.294800	0.808400	0.479440
O51	O5	0.596700	0.713400	0.459380
N11	N1	0.800400	0.148300	0.229050
N21	N2	0.801800	0.029900	0.390780
C11	C1	0.466900	0.083500	0.093930
C21	C2	0.584900	0.106100	0.142500
C31	C3	0.486100	0.174100	0.172030
H21	H2	0.346600	0.205800	0.162600
C41	C4	0.598300	0.193700	0.215540
H31	H3	0.533200	0.238700	0.235700
C51	C5	0.897000	0.082100	0.201020
H41	H4	0.035000	0.050300	0.211400
C61	C6	0.793000	0.060800	0.156880
H51	H5	0.862800	0.016400	0.137100
C71	C7	0.910800	0.166900	0.277410
H61	H6	0.885300	0.234100	0.286600
H71	H7	0.079200	0.155100	0.277800
C81	C8	0.797500	0.098200	0.311520
H81	H8	0.629700	0.111600	0.311200
H91	H9	0.817600	0.031500	0.301000
C91	C9	0.902800	0.108600	0.361670
H101	H10	0.073000	0.102500	0.362100
H111	H11	0.864600	0.172100	0.374300
C101	C10	0.610800	0.046100	0.415800
H121	H12	0.548800	0.108800	0.417200
C111	C11	0.506400	0.971900	0.439220
H131	H13	0.373800	0.983800	0.456200
C121	C12	0.600900	0.878800	0.437320
C131	C13	0.801200	0.862900	0.412150
H141	H14	0.868500	0.801100	0.411000
C141	C14	0.896600	0.939800	0.389240
H151	H15	0.029900	0.929900	0.372200
C151	C15	0.485100	0.793900	0.460870
Cu21	Cu2	0.454280	0.586960	0.468310
O61	O6	0.316200	0.457900	0.481910
H161	H16	0.306000	0.421000	0.457700
O71	O7	0.243100	0.612200	0.413100
O81	O8	0.908300	0.538900	0.434360
O91	O9	0.205200	0.308400	0.020560
O101	O10	0.903300	0.213400	0.040620
N31	N3	0.699600	0.648300	0.270950
N41	N4	0.698200	0.529900	0.109220
C161	C16	0.033100	0.583500	0.406070
C171	C17	0.915100	0.606100	0.357500
C181	C18	0.013900	0.674100	0.327970
H171	H17	0.153400	0.705800	0.337400
C191	C19	0.901700	0.693700	0.284460
H181	H18	0.966800	0.738700	0.264300
C201	C20	0.603000	0.582100	0.298980
H191	H19	0.465000	0.550300	0.288600
C211	C21	0.707000	0.560800	0.343120
H201	H20	0.637200	0.516400	0.362900
C221	C22	0.589200	0.666900	0.222590
H211	H21	0.614700	0.734100	0.213400
H221	H22	0.420800	0.655100	0.222200
C231	C23	0.702500	0.598200	0.188480
H231	H23	0.870300	0.611600	0.188800
H241	H24	0.682400	0.531500	0.199000
C241	C24	0.597200	0.608600	0.138330
H251	H25	0.427000	0.602500	0.137900
H261	H26	0.635400	0.672100	0.125700
C251	C25	0.889200	0.546100	0.084200
H271	H27	0.951200	0.608800	0.082800
C261	C26	0.993600	0.471900	0.060780
H281	H28	0.126200	0.483800	0.043800
C271	C27	0.899100	0.378800	0.062680
C281	C28	0.698800	0.362900	0.087850
H291	H29	0.631500	0.301100	0.089000
C291	C29	0.603400	0.439800	0.110760
H301	H30	0.470100	0.429900	0.127800
C301	C30	0.014900	0.293900	0.039130
Cu31	Cu3	0.954280	0.913040	0.968310
O111	O11	0.816200	0.042100	0.981910
H311	H31	0.806000	0.079000	0.957700
O121	O12	0.743100	0.887800	0.913100
O131	O13	0.408300	0.961100	0.934360
O141	O14	0.705200	0.191600	0.520560
O151	O15	0.403300	0.286600	0.540620
N51	N5	0.199600	0.851700	0.770950
N61	N6	0.198200	0.970100	0.609220
C311	C31	0.533100	0.916500	0.906070
C321	C32	0.415100	0.893900	0.857500
C331	C33	0.513900	0.825900	0.827970
H321	H32	0.653400	0.794200	0.837400
C341	C34	0.401700	0.806300	0.784460
H331	H33	0.466800	0.761300	0.764300
C351	C35	0.103000	0.917900	0.798980
H341	H34	0.965000	0.949700	0.788600
C361	C36	0.207000	0.939200	0.843120
H351	H35	0.137200	0.983600	0.862900
C371	C37	0.089200	0.833100	0.722590
H361	H36	0.114700	0.765900	0.713400
H371	H37	0.920800	0.844900	0.722200
C381	C38	0.202500	0.901800	0.688480
H381	H38	0.370300	0.888400	0.688800
H391	H39	0.182400	0.968500	0.699000
C391	C39	0.097200	0.891400	0.638330
H401	H40	0.927000	0.897500	0.637900
H411	H41	0.135400	0.827900	0.625700
C401	C40	0.389200	0.953900	0.584200
H421	H42	0.451200	0.891200	0.582800
C411	C41	0.493600	0.028100	0.560780
H431	H43	0.626200	0.016200	0.543800
C421	C42	0.399100	0.121200	0.562680
C431	C43	0.198800	0.137100	0.587850
H441	H44	0.131500	0.198900	0.589000
C441	C44	0.103400	0.060200	0.610760
H451	H45	0.970100	0.070100	0.627800
C451	C45	0.514900	0.206100	0.539130
Cu41	Cu4	0.545720	0.413040	0.531690
O161	O16	0.683800	0.542100	0.518090
H461	H46	0.694000	0.579000	0.542300
O171	O17	0.756900	0.387800	0.586900
O181	O18	0.091700	0.461100	0.565640
O191	O19	0.794800	0.691600	0.979440
O201	O20	0.096700	0.786600	0.959380
N71	N7	0.300400	0.351700	0.729050
N81	N8	0.301800	0.470100	0.890780
C461	C46	0.966900	0.416500	0.593930
C471	C47	0.084900	0.393900	0.642500
C481	C48	0.986100	0.325900	0.672030
H471	H47	0.846600	0.294200	0.662600
C491	C49	0.098300	0.306300	0.715540
H481	H48	0.033200	0.261300	0.735700
C501	C50	0.397000	0.417900	0.701020
H491	H49	0.535000	0.449700	0.711400
C511	C51	0.293000	0.439200	0.656880
H501	H50	0.362800	0.483600	0.637100
C521	C52	0.410800	0.333100	0.777410
H511	H51	0.385300	0.265900	0.786600
H521	H52	0.579200	0.344900	0.777800
C531	C53	0.297500	0.401800	0.811520
H531	H53	0.129700	0.388400	0.811200
H541	H54	0.317600	0.468500	0.801000
C541	C54	0.402800	0.391400	0.861670
H551	H55	0.573000	0.397500	0.862100
H561	H56	0.364600	0.327900	0.874300
C551	C55	0.110800	0.453900	0.915800
H571	H57	0.048800	0.391200	0.917200
C561	C56	0.006400	0.528100	0.939220
H581	H58	0.873800	0.516200	0.956200
C571	C57	0.100900	0.621200	0.937320
C581	C58	0.301200	0.637100	0.912150
H591	H59	0.368500	0.698900	0.911000
C591	C59	0.396600	0.560200	0.889240
H601	H60	0.529900	0.570100	0.872200
C601	C60	0.985100	0.706100	0.960870
Cu51	Cu5	0.500000	0.000000	0.000000
Cu61	Cu6	0.000000	0.500000	0.500000
