data_SINZIA_clean_PM
_symmetry_space_group_name_H-M	'P1'
_cell_length_a	14.909000
_cell_length_b	7.196300
_cell_length_c	24.592000
_cell_angle_alpha	90.000000
_cell_angle_beta	104.312000
_cell_angle_gamma	90.000000
_symmetry_Int_Tables_number 1

loop_
_symmetry_equiv_pos_as_xyz
'x,y,z'

loop_
_atom_site_label
_atom_site_type_symbol
_atom_site_fract_x
_atom_site_fract_y
_atom_site_fract_z
C11	C1	0.414600	0.287900	0.416600
C21	C2	0.356600	0.198500	0.364710
C31	C3	0.379000	0.024200	0.347130
H11	H1	0.429100	0.959200	0.368900
C41	C4	0.328900	0.948500	0.298800
H21	H2	0.346000	0.833300	0.287500
C51	C5	0.253000	0.038100	0.266050
C61	C6	0.228400	0.210700	0.283500
H31	H3	0.176200	0.271900	0.262600
C71	C7	0.280700	0.289600	0.331000
H41	H4	0.265400	0.407500	0.341200
C81	C8	0.135900	0.790100	0.239610
H51	H5	0.110100	0.848300	0.267400
H61	H6	0.176300	0.691000	0.256600
H71	H7	0.086900	0.740900	0.210200
C91	C9	0.191200	0.934400	0.214980
C101	C10	0.121500	0.058700	0.175800
H81	H8	0.153700	0.150600	0.159700
H91	H9	0.083100	0.119100	0.196600
H101	H10	0.083500	0.984800	0.146500
C111	C11	0.250800	0.845600	0.178970
C121	C12	0.318400	0.953400	0.165280
H111	H11	0.330100	0.072000	0.180400
C131	C13	0.369000	0.886300	0.129000
H121	H12	0.412100	0.963900	0.118900
C141	C14	0.357500	0.707500	0.107360
C151	C15	0.288200	0.597300	0.121000
H131	H13	0.276800	0.478100	0.106300
C161	C16	0.236000	0.667500	0.157100
H141	H14	0.191000	0.593200	0.166400
C171	C17	0.412100	0.635800	0.068150
C181	C18	0.707000	0.034600	0.518400
H151	H15	0.670600	0.970200	0.488100
C191	C19	0.750900	0.225300	0.586500
H161	H16	0.751500	0.320500	0.612100
C201	C20	0.819200	0.101900	0.588300
H171	H17	0.875500	0.098700	0.615000
C211	C21	0.851600	0.842400	0.532280
C221	C22	0.896800	0.718800	0.573300
H181	H18	0.889800	0.728400	0.609700
C231	C23	0.952600	0.580100	0.559600
H191	H19	0.981300	0.499600	0.588200
C241	C24	0.964600	0.567400	0.505800
C251	C25	0.919300	0.691100	0.464900
H201	H20	0.924700	0.687500	0.428000
C261	C26	0.863000	0.829500	0.478400
H211	H21	0.833100	0.913200	0.451000
Co11	Co1	0.560780	0.337940	0.511740
N11	N1	0.679500	0.187000	0.540050
N21	N2	0.792600	0.984100	0.545010
O11	O1	0.484000	0.203500	0.444550
O21	O2	0.388400	0.445200	0.429840
O31	O3	0.475790	0.731200	0.061000
O41	O4	0.383500	0.482400	0.044110
C271	C27	0.585400	0.287900	0.083400
C281	C28	0.643400	0.198500	0.135290
C291	C29	0.621000	0.024200	0.152870
H221	H22	0.570900	0.959200	0.131100
C301	C30	0.671100	0.948500	0.201200
H231	H23	0.654000	0.833300	0.212500
C311	C31	0.747000	0.038100	0.233950
C321	C32	0.771600	0.210700	0.216500
H241	H24	0.823800	0.271900	0.237400
C331	C33	0.719300	0.289600	0.169000
H251	H25	0.734600	0.407500	0.158800
C341	C34	0.864100	0.790100	0.260390
H261	H26	0.889900	0.848300	0.232600
H271	H27	0.823700	0.691000	0.243400
H281	H28	0.913100	0.740900	0.289800
C351	C35	0.808800	0.934400	0.285020
C361	C36	0.878500	0.058700	0.324200
H291	H29	0.846300	0.150600	0.340300
H301	H30	0.916900	0.119100	0.303400
H311	H31	0.916500	0.984800	0.353500
C371	C37	0.749200	0.845600	0.321030
C381	C38	0.681600	0.953400	0.334720
H321	H32	0.669900	0.072000	0.319600
C391	C39	0.631000	0.886300	0.371000
H331	H33	0.587900	0.963900	0.381100
C401	C40	0.642500	0.707500	0.392640
C411	C41	0.711800	0.597300	0.379000
H341	H34	0.723200	0.478100	0.393700
C421	C42	0.764000	0.667500	0.342900
H351	H35	0.809000	0.593200	0.333600
C431	C43	0.587900	0.635800	0.431850
C441	C44	0.293000	0.034600	0.981600
H361	H36	0.329400	0.970200	0.011900
C451	C45	0.249100	0.225300	0.913500
H371	H37	0.248500	0.320500	0.887900
C461	C46	0.180800	0.101900	0.911700
H381	H38	0.124500	0.098700	0.885000
C471	C47	0.148400	0.842400	0.967720
C481	C48	0.103200	0.718800	0.926700
H391	H39	0.110200	0.728400	0.890300
C491	C49	0.047400	0.580100	0.940400
H401	H40	0.018700	0.499600	0.911800
C501	C50	0.035400	0.567400	0.994200
C511	C51	0.080700	0.691100	0.035100
H411	H41	0.075300	0.687500	0.072000
C521	C52	0.137000	0.829500	0.021600
H421	H42	0.166900	0.913200	0.049000
Co21	Co2	0.439220	0.337940	0.988260
N31	N3	0.320500	0.187000	0.959950
N41	N4	0.207400	0.984100	0.954990
O51	O5	0.516000	0.203500	0.055450
O61	O6	0.611600	0.445200	0.070160
O71	O7	0.524210	0.731200	0.439000
O81	O8	0.616500	0.482400	0.455890
C531	C53	0.585400	0.712100	0.583400
C541	C54	0.643400	0.801500	0.635290
C551	C55	0.621000	0.975800	0.652870
H431	H43	0.570900	0.040800	0.631100
C561	C56	0.671100	0.051500	0.701200
H441	H44	0.654000	0.166700	0.712500
C571	C57	0.747000	0.961900	0.733950
C581	C58	0.771600	0.789300	0.716500
H451	H45	0.823800	0.728100	0.737400
C591	C59	0.719300	0.710400	0.669000
H461	H46	0.734600	0.592500	0.658800
C601	C60	0.864100	0.209900	0.760390
H471	H47	0.889900	0.151700	0.732600
H481	H48	0.823700	0.309000	0.743400
H491	H49	0.913100	0.259100	0.789800
C611	C61	0.808800	0.065600	0.785020
C621	C62	0.878500	0.941300	0.824200
H501	H50	0.846300	0.849400	0.840300
H511	H51	0.916900	0.880900	0.803400
H521	H52	0.916500	0.015200	0.853500
C631	C63	0.749200	0.154400	0.821030
C641	C64	0.681600	0.046600	0.834720
H531	H53	0.669900	0.928000	0.819600
C651	C65	0.631000	0.113700	0.871000
H541	H54	0.587900	0.036100	0.881100
C661	C66	0.642500	0.292500	0.892640
C671	C67	0.711800	0.402700	0.879000
H551	H55	0.723200	0.521900	0.893700
C681	C68	0.764000	0.332500	0.842900
H561	H56	0.809000	0.406800	0.833600
C691	C69	0.587900	0.364200	0.931850
C701	C70	0.293000	0.965400	0.481600
H571	H57	0.329400	0.029800	0.511900
C711	C71	0.249100	0.774700	0.413500
H581	H58	0.248500	0.679500	0.387900
C721	C72	0.180800	0.898100	0.411700
H591	H59	0.124500	0.901300	0.385000
C731	C73	0.148400	0.157600	0.467720
C741	C74	0.103200	0.281200	0.426700
H601	H60	0.110200	0.271600	0.390300
C751	C75	0.047400	0.419900	0.440400
H611	H61	0.018700	0.500400	0.411800
C761	C76	0.035400	0.432600	0.494200
C771	C77	0.080700	0.308900	0.535100
H621	H62	0.075300	0.312500	0.572000
C781	C78	0.137000	0.170500	0.521600
H631	H63	0.166900	0.086800	0.549000
Co31	Co3	0.439220	0.662060	0.488260
N51	N5	0.320500	0.813000	0.459950
N61	N6	0.207400	0.015900	0.454990
O91	O9	0.516000	0.796500	0.555450
O101	O10	0.611600	0.554800	0.570160
O111	O11	0.524210	0.268800	0.939000
O121	O12	0.616500	0.517600	0.955890
C791	C79	0.414600	0.712100	0.916600
C801	C80	0.356600	0.801500	0.864710
C811	C81	0.379000	0.975800	0.847130
H641	H64	0.429100	0.040800	0.868900
C821	C82	0.328900	0.051500	0.798800
H651	H65	0.346000	0.166700	0.787500
C831	C83	0.253000	0.961900	0.766050
C841	C84	0.228400	0.789300	0.783500
H661	H66	0.176200	0.728100	0.762600
C851	C85	0.280700	0.710400	0.831000
H671	H67	0.265400	0.592500	0.841200
C861	C86	0.135900	0.209900	0.739610
H681	H68	0.110100	0.151700	0.767400
H691	H69	0.176300	0.309000	0.756600
H701	H70	0.086900	0.259100	0.710200
C871	C87	0.191200	0.065600	0.714980
C881	C88	0.121500	0.941300	0.675800
H711	H71	0.153700	0.849400	0.659700
H721	H72	0.083100	0.880900	0.696600
H731	H73	0.083500	0.015200	0.646500
C891	C89	0.250800	0.154400	0.678970
C901	C90	0.318400	0.046600	0.665280
H741	H74	0.330100	0.928000	0.680400
C911	C91	0.369000	0.113700	0.629000
H751	H75	0.412100	0.036100	0.618900
C921	C92	0.357500	0.292500	0.607360
C931	C93	0.288200	0.402700	0.621000
H761	H76	0.276800	0.521900	0.606300
C941	C94	0.236000	0.332500	0.657100
H771	H77	0.191000	0.406800	0.666400
C951	C95	0.412100	0.364200	0.568150
C961	C96	0.707000	0.965400	0.018400
H781	H78	0.670600	0.029800	0.988100
C971	C97	0.750900	0.774700	0.086500
H791	H79	0.751500	0.679500	0.112100
C981	C98	0.819200	0.898100	0.088300
H801	H80	0.875500	0.901300	0.115000
C991	C99	0.851600	0.157600	0.032280
C1001	C100	0.896800	0.281200	0.073300
H811	H81	0.889800	0.271600	0.109700
C1011	C101	0.952600	0.419900	0.059600
H821	H82	0.981300	0.500400	0.088200
C1021	C102	0.964600	0.432600	0.005800
C1031	C103	0.919300	0.308900	0.964900
H831	H83	0.924700	0.312500	0.928000
C1041	C104	0.863000	0.170500	0.978400
H841	H84	0.833100	0.086800	0.951000
Co41	Co4	0.560780	0.662060	0.011740
N71	N7	0.679500	0.813000	0.040050
N81	N8	0.792600	0.015900	0.045010
O131	O13	0.484000	0.796500	0.944550
O141	O14	0.388400	0.554800	0.929840
O151	O15	0.475790	0.268800	0.561000
O161	O16	0.383500	0.517600	0.544110
