data_SIPCID_clean_PM
_symmetry_space_group_name_H-M	'P1'
_cell_length_a	16.210000
_cell_length_b	16.210000
_cell_length_c	16.210000
_cell_angle_alpha	90.000000
_cell_angle_beta	90.000000
_cell_angle_gamma	90.000000
_symmetry_Int_Tables_number 1

loop_
_symmetry_equiv_pos_as_xyz
'x,y,z'

loop_
_atom_site_label
_atom_site_type_symbol
_atom_site_fract_x
_atom_site_fract_y
_atom_site_fract_z
S11	S1	0.911620	0.108960	0.840460
C11	C1	0.836600	0.172100	0.895000
O11	O1	0.905900	0.030200	0.874700
O21	O2	0.991200	0.151400	0.865900
O31	O3	0.898100	0.877900	0.743400
F11	F1	0.839000	0.247100	0.867300
F21	F2	0.850100	0.173100	0.971000
F31	F3	0.763100	0.142000	0.881400
H11	H1	0.009000	0.141300	0.920400
S21	S2	0.411620	0.608960	0.340460
C21	C2	0.336600	0.672100	0.395000
O41	O4	0.405900	0.530200	0.374700
O51	O5	0.491200	0.651400	0.365900
O61	O6	0.398100	0.377900	0.243400
F41	F4	0.339000	0.747100	0.367300
F51	F5	0.350100	0.673100	0.471000
F61	F6	0.263100	0.642000	0.381400
H21	H2	0.509000	0.641300	0.420400
S31	S3	0.588380	0.891040	0.340460
C31	C3	0.663400	0.827900	0.395000
O71	O7	0.594100	0.969800	0.374700
O81	O8	0.508800	0.848600	0.365900
O91	O9	0.601900	0.122100	0.243400
F71	F7	0.661000	0.752900	0.367300
F81	F8	0.649900	0.826900	0.471000
F91	F9	0.736900	0.858000	0.381400
H31	H3	0.491000	0.858700	0.420400
S41	S4	0.088380	0.391040	0.840460
C41	C4	0.163400	0.327900	0.895000
O101	O10	0.094100	0.469800	0.874700
O111	O11	0.008800	0.348600	0.865900
O121	O12	0.101900	0.622100	0.743400
F101	F10	0.161000	0.252900	0.867300
F111	F11	0.149900	0.326900	0.971000
F121	F12	0.236900	0.358000	0.881400
H41	H4	0.991000	0.358700	0.920400
S51	S5	0.088380	0.608960	0.659540
C51	C5	0.163400	0.672100	0.605000
O131	O13	0.094100	0.530200	0.625300
O141	O14	0.008800	0.651400	0.634100
O151	O15	0.101900	0.377900	0.756600
F131	F13	0.161000	0.747100	0.632700
F141	F14	0.149900	0.673100	0.529000
F151	F15	0.236900	0.642000	0.618600
H51	H5	0.991000	0.641300	0.579600
S61	S6	0.588380	0.108960	0.159540
C61	C6	0.663400	0.172100	0.105000
O161	O16	0.594100	0.030200	0.125300
O171	O17	0.508800	0.151400	0.134100
O181	O18	0.601900	0.877900	0.256600
F161	F16	0.661000	0.247100	0.132700
F171	F17	0.649900	0.173100	0.029000
F181	F18	0.736900	0.142000	0.118600
H61	H6	0.491000	0.141300	0.079600
S71	S7	0.411620	0.391040	0.159540
C71	C7	0.336600	0.327900	0.105000
O191	O19	0.405900	0.469800	0.125300
O201	O20	0.491200	0.348600	0.134100
O211	O21	0.398100	0.622100	0.256600
F191	F19	0.339000	0.252900	0.132700
F201	F20	0.350100	0.326900	0.029000
F211	F21	0.263100	0.358000	0.118600
H71	H7	0.509000	0.358700	0.079600
S81	S8	0.911620	0.891040	0.659540
C81	C8	0.836600	0.827900	0.605000
O221	O22	0.905900	0.969800	0.625300
O231	O23	0.991200	0.848600	0.634100
O241	O24	0.898100	0.122100	0.756600
F221	F22	0.839000	0.752900	0.632700
F231	F23	0.850100	0.826900	0.529000
F241	F24	0.763100	0.858000	0.618600
H81	H8	0.009000	0.858700	0.579600
S91	S9	0.840460	0.911620	0.108960
C91	C9	0.895000	0.836600	0.172100
O251	O25	0.874700	0.905900	0.030200
O261	O26	0.865900	0.991200	0.151400
O271	O27	0.743400	0.898100	0.877900
F251	F25	0.867300	0.839000	0.247100
F261	F26	0.971000	0.850100	0.173100
F271	F27	0.881400	0.763100	0.142000
H91	H9	0.920400	0.009000	0.141300
S101	S10	0.340460	0.411620	0.608960
C101	C10	0.395000	0.336600	0.672100
O281	O28	0.374700	0.405900	0.530200
O291	O29	0.365900	0.491200	0.651400
O301	O30	0.243400	0.398100	0.377900
F281	F28	0.367300	0.339000	0.747100
F291	F29	0.471000	0.350100	0.673100
F301	F30	0.381400	0.263100	0.642000
H101	H10	0.420400	0.509000	0.641300
S111	S11	0.340460	0.588380	0.891040
C111	C11	0.395000	0.663400	0.827900
O311	O31	0.374700	0.594100	0.969800
O321	O32	0.365900	0.508800	0.848600
O331	O33	0.243400	0.601900	0.122100
F311	F31	0.367300	0.661000	0.752900
F321	F32	0.471000	0.649900	0.826900
F331	F33	0.381400	0.736900	0.858000
H111	H11	0.420400	0.491000	0.858700
S121	S12	0.840460	0.088380	0.391040
C121	C12	0.895000	0.163400	0.327900
O341	O34	0.874700	0.094100	0.469800
O351	O35	0.865900	0.008800	0.348600
O361	O36	0.743400	0.101900	0.622100
F341	F34	0.867300	0.161000	0.252900
F351	F35	0.971000	0.149900	0.326900
F361	F36	0.881400	0.236900	0.358000
H121	H12	0.920400	0.991000	0.358700
S131	S13	0.659540	0.088380	0.608960
C131	C13	0.605000	0.163400	0.672100
O371	O37	0.625300	0.094100	0.530200
O381	O38	0.634100	0.008800	0.651400
O391	O39	0.756600	0.101900	0.377900
F371	F37	0.632700	0.161000	0.747100
F381	F38	0.529000	0.149900	0.673100
F391	F39	0.618600	0.236900	0.642000
H131	H13	0.579600	0.991000	0.641300
S141	S14	0.159540	0.588380	0.108960
C141	C14	0.105000	0.663400	0.172100
O401	O40	0.125300	0.594100	0.030200
O411	O41	0.134100	0.508800	0.151400
O421	O42	0.256600	0.601900	0.877900
F401	F40	0.132700	0.661000	0.247100
F411	F41	0.029000	0.649900	0.173100
F421	F42	0.118600	0.736900	0.142000
H141	H14	0.079600	0.491000	0.141300
S151	S15	0.159540	0.411620	0.391040
C151	C15	0.105000	0.336600	0.327900
O431	O43	0.125300	0.405900	0.469800
O441	O44	0.134100	0.491200	0.348600
O451	O45	0.256600	0.398100	0.622100
F431	F43	0.132700	0.339000	0.252900
F441	F44	0.029000	0.350100	0.326900
F451	F45	0.118600	0.263100	0.358000
H151	H15	0.079600	0.509000	0.358700
S161	S16	0.659540	0.911620	0.891040
C161	C16	0.605000	0.836600	0.827900
O461	O46	0.625300	0.905900	0.969800
O471	O47	0.634100	0.991200	0.848600
O481	O48	0.756600	0.898100	0.122100
F461	F46	0.632700	0.839000	0.752900
F471	F47	0.529000	0.850100	0.826900
F481	F48	0.618600	0.763100	0.858000
H161	H16	0.579600	0.009000	0.858700
S171	S17	0.108960	0.840460	0.911620
C171	C17	0.172100	0.895000	0.836600
O491	O49	0.030200	0.874700	0.905900
O501	O50	0.151400	0.865900	0.991200
O511	O51	0.877900	0.743400	0.898100
F491	F49	0.247100	0.867300	0.839000
F501	F50	0.173100	0.971000	0.850100
F511	F51	0.142000	0.881400	0.763100
H171	H17	0.141300	0.920400	0.009000
S181	S18	0.608960	0.340460	0.411620
C181	C18	0.672100	0.395000	0.336600
O521	O52	0.530200	0.374700	0.405900
O531	O53	0.651400	0.365900	0.491200
O541	O54	0.377900	0.243400	0.398100
F521	F52	0.747100	0.367300	0.339000
F531	F53	0.673100	0.471000	0.350100
F541	F54	0.642000	0.381400	0.263100
H181	H18	0.641300	0.420400	0.509000
S191	S19	0.891040	0.340460	0.588380
C191	C19	0.827900	0.395000	0.663400
O551	O55	0.969800	0.374700	0.594100
O561	O56	0.848600	0.365900	0.508800
O571	O57	0.122100	0.243400	0.601900
F551	F55	0.752900	0.367300	0.661000
F561	F56	0.826900	0.471000	0.649900
F571	F57	0.858000	0.381400	0.736900
H191	H19	0.858700	0.420400	0.491000
S201	S20	0.391040	0.840460	0.088380
C201	C20	0.327900	0.895000	0.163400
O581	O58	0.469800	0.874700	0.094100
O591	O59	0.348600	0.865900	0.008800
O601	O60	0.622100	0.743400	0.101900
F581	F58	0.252900	0.867300	0.161000
F591	F59	0.326900	0.971000	0.149900
F601	F60	0.358000	0.881400	0.236900
H201	H20	0.358700	0.920400	0.991000
S211	S21	0.608960	0.659540	0.088380
C211	C21	0.672100	0.605000	0.163400
O611	O61	0.530200	0.625300	0.094100
O621	O62	0.651400	0.634100	0.008800
O631	O63	0.377900	0.756600	0.101900
F611	F61	0.747100	0.632700	0.161000
F621	F62	0.673100	0.529000	0.149900
F631	F63	0.642000	0.618600	0.236900
H211	H21	0.641300	0.579600	0.991000
S221	S22	0.108960	0.159540	0.588380
C221	C22	0.172100	0.105000	0.663400
O641	O64	0.030200	0.125300	0.594100
O651	O65	0.151400	0.134100	0.508800
O661	O66	0.877900	0.256600	0.601900
F641	F64	0.247100	0.132700	0.661000
F651	F65	0.173100	0.029000	0.649900
F661	F66	0.142000	0.118600	0.736900
H221	H22	0.141300	0.079600	0.491000
S231	S23	0.391040	0.159540	0.411620
C231	C23	0.327900	0.105000	0.336600
O671	O67	0.469800	0.125300	0.405900
O681	O68	0.348600	0.134100	0.491200
O691	O69	0.622100	0.256600	0.398100
F671	F67	0.252900	0.132700	0.339000
F681	F68	0.326900	0.029000	0.350100
F691	F69	0.358000	0.118600	0.263100
H231	H23	0.358700	0.079600	0.509000
S241	S24	0.891040	0.659540	0.911620
C241	C24	0.827900	0.605000	0.836600
O701	O70	0.969800	0.625300	0.905900
O711	O71	0.848600	0.634100	0.991200
O721	O72	0.122100	0.756600	0.898100
F701	F70	0.752900	0.632700	0.839000
F711	F71	0.826900	0.529000	0.850100
F721	F72	0.858000	0.618600	0.763100
H241	H24	0.858700	0.579600	0.009000
Na11	Na1	0.886650	0.886650	0.886650
Na21	Na2	0.386650	0.386650	0.386650
Na31	Na3	0.613350	0.113350	0.386650
Na41	Na4	0.113350	0.613350	0.886650
Na51	Na5	0.113350	0.386650	0.613350
Na61	Na6	0.613350	0.886650	0.113350
Na71	Na7	0.386650	0.613350	0.113350
Na81	Na8	0.886650	0.113350	0.613350
