data_SIPWUK_clean_PM
_symmetry_space_group_name_H-M	'P1'
_cell_length_a	6.692100
_cell_length_b	13.223900
_cell_length_c	13.702300
_cell_angle_alpha	90.000000
_cell_angle_beta	90.000000
_cell_angle_gamma	90.000000
_symmetry_Int_Tables_number 1

loop_
_symmetry_equiv_pos_as_xyz
'x,y,z'

loop_
_atom_site_label
_atom_site_type_symbol
_atom_site_fract_x
_atom_site_fract_y
_atom_site_fract_z
Ca11	Ca1	0.000000	0.750000	0.784710
Ca21	Ca2	0.500000	0.250000	0.715290
Ca31	Ca3	0.000000	0.250000	0.215290
Ca41	Ca4	0.500000	0.750000	0.284710
Cu11	Cu1	0.500000	0.000000	0.500000
Cu21	Cu2	0.000000	0.500000	0.000000
Cu31	Cu3	0.500000	0.500000	0.500000
Cu41	Cu4	0.000000	0.000000	0.000000
H11	H1	0.372600	0.899300	0.779900
H21	H2	0.577700	0.886800	0.727000
H31	H3	0.127400	0.399300	0.720100
H41	H4	0.922300	0.386800	0.773000
H51	H5	0.627400	0.600700	0.779900
H61	H6	0.422300	0.613200	0.727000
H71	H7	0.872600	0.100700	0.720100
H81	H8	0.077700	0.113200	0.773000
H91	H9	0.627400	0.100700	0.220100
H101	H10	0.422300	0.113200	0.273000
H111	H11	0.872600	0.600700	0.279900
H121	H12	0.077700	0.613200	0.227000
H131	H13	0.372600	0.399300	0.220100
H141	H14	0.577700	0.386800	0.273000
H151	H15	0.127400	0.899300	0.279900
H161	H16	0.922300	0.886800	0.227000
C11	C1	0.341500	0.852700	0.638700
C21	C2	0.443100	0.912900	0.719400
C31	C3	0.457100	0.025600	0.707500
C41	C4	0.158500	0.352700	0.861300
C51	C5	0.056900	0.412900	0.780600
C61	C6	0.042900	0.525600	0.792500
C71	C7	0.658500	0.647300	0.638700
C81	C8	0.556900	0.587100	0.719400
C91	C9	0.542900	0.474400	0.707500
C101	C10	0.841500	0.147300	0.861300
C111	C11	0.943100	0.087100	0.780600
C121	C12	0.957100	0.974400	0.792500
C131	C13	0.658500	0.147300	0.361300
C141	C14	0.556900	0.087100	0.280600
C151	C15	0.542900	0.974400	0.292500
C161	C16	0.841500	0.647300	0.138700
C171	C17	0.943100	0.587100	0.219400
C181	C18	0.957100	0.474400	0.207500
C191	C19	0.341500	0.352700	0.361300
C201	C20	0.443100	0.412900	0.280600
C211	C21	0.457100	0.525600	0.292500
C221	C22	0.158500	0.852700	0.138700
C231	C23	0.056900	0.912900	0.219400
C241	C24	0.042900	0.025600	0.207500
O11	O1	0.367200	0.879100	0.551000
O21	O2	0.244800	0.776500	0.663200
O31	O3	0.501800	0.066200	0.626400
O41	O4	0.433500	0.080700	0.779800
O51	O5	0.132800	0.379100	0.949000
O61	O6	0.255200	0.276500	0.836800
O71	O7	0.998200	0.566200	0.873600
O81	O8	0.066500	0.580700	0.720200
O91	O9	0.632800	0.620900	0.551000
O101	O10	0.755200	0.723500	0.663200
O111	O11	0.498200	0.433800	0.626400
O121	O12	0.566500	0.419300	0.779800
O131	O13	0.867200	0.120900	0.949000
O141	O14	0.744800	0.223500	0.836800
O151	O15	0.001800	0.933800	0.873600
O161	O16	0.933500	0.919300	0.720200
O171	O17	0.632800	0.120900	0.449000
O181	O18	0.755200	0.223500	0.336800
O191	O19	0.498200	0.933800	0.373600
O201	O20	0.566500	0.919300	0.220200
O211	O21	0.867200	0.620900	0.051000
O221	O22	0.744800	0.723500	0.163200
O231	O23	0.001800	0.433800	0.126400
O241	O24	0.933500	0.419300	0.279800
O251	O25	0.367200	0.379100	0.449000
O261	O26	0.244800	0.276500	0.336800
O271	O27	0.501800	0.566200	0.373600
O281	O28	0.433500	0.580700	0.220200
O291	O29	0.132800	0.879100	0.051000
O301	O30	0.255200	0.776500	0.163200
O311	O31	0.998200	0.066200	0.126400
O321	O32	0.066500	0.080700	0.279800
