data_SIQQEO_clean_PM
_symmetry_space_group_name_H-M	'P1'
_cell_length_a	11.071100
_cell_length_b	11.071100
_cell_length_c	11.622400
_cell_angle_alpha	117.998000
_cell_angle_beta	117.998000
_cell_angle_gamma	90.823400
_symmetry_Int_Tables_number 1

loop_
_symmetry_equiv_pos_as_xyz
'x,y,z'

loop_
_atom_site_label
_atom_site_type_symbol
_atom_site_fract_x
_atom_site_fract_y
_atom_site_fract_z
Sr11	Sr1	0.733540	0.266460	0.000000
Sr21	Sr2	0.983540	0.016460	0.500000
H11	H1	0.748700	0.860500	0.606400
H21	H2	0.806900	0.866500	0.874800
H31	H3	0.925500	0.878300	0.835600
H41	H4	0.795200	0.733600	0.726400
H51	H5	0.541200	0.749400	0.574000
H61	H6	0.530800	0.894200	0.575800
H71	H7	0.569900	0.892300	0.726000
H81	H8	0.139500	0.251300	0.393600
H91	H9	0.133500	0.193100	0.125200
H101	H10	0.121700	0.074500	0.164400
H111	H11	0.266400	0.204800	0.273600
H121	H12	0.250600	0.458800	0.426000
H131	H13	0.105800	0.469200	0.424200
H141	H14	0.107700	0.430100	0.274000
H151	H15	0.995900	0.607700	0.106400
H161	H16	0.258300	0.817900	0.374800
H171	H17	0.207300	0.660100	0.335600
H181	H18	0.242800	0.681200	0.226400
H191	H19	0.074600	0.782800	0.074000
H201	H20	0.931600	0.795000	0.075800
H211	H21	0.083700	0.906100	0.226000
H221	H22	0.392300	0.004100	0.893600
H231	H23	0.182100	0.741700	0.625200
H241	H24	0.339900	0.792700	0.664400
H251	H25	0.318800	0.757200	0.773600
H261	H26	0.217200	0.925400	0.926000
H271	H27	0.205000	0.068400	0.924200
H281	H28	0.093900	0.916300	0.774000
C11	C1	0.879000	0.117000	0.217800
C21	C2	0.737000	0.894400	0.695800
C31	C3	0.823500	0.838500	0.791200
C41	C4	0.581400	0.854000	0.638000
C51	C5	0.883000	0.121000	0.782200
C61	C6	0.105600	0.263000	0.304200
C71	C7	0.161500	0.176500	0.208800
C81	C8	0.146000	0.418600	0.362000
C91	C9	0.350800	0.088800	0.717800
C101	C10	0.051400	0.708800	0.195800
C111	C11	0.202700	0.717700	0.291200
C121	C12	0.034000	0.806600	0.138000
C131	C13	0.911200	0.649200	0.282200
C141	C14	0.291200	0.948600	0.804200
C151	C15	0.282300	0.797300	0.708800
C161	C16	0.193400	0.966000	0.862000
S11	S1	0.698350	0.053910	0.088460
S21	S2	0.946090	0.301650	0.911540
S31	S3	0.284550	0.140110	0.588460
S41	S4	0.859890	0.715450	0.411540
O11	O1	0.947700	0.088500	0.314200
O21	O2	0.947200	0.211400	0.206600
O31	O3	0.911500	0.052300	0.685800
O41	O4	0.788600	0.052800	0.793400
O51	O5	0.475700	0.116500	0.814200
O61	O6	0.245200	0.009400	0.706600
O71	O7	0.883500	0.524300	0.185800
O81	O8	0.990600	0.754800	0.293400
