data_SIRBIG07_clean_PM
_symmetry_space_group_name_H-M	'P1'
_cell_length_a	8.990000
_cell_length_b	12.140000
_cell_length_c	8.511000
_cell_angle_alpha	90.000000
_cell_angle_beta	90.000000
_cell_angle_gamma	90.000000
_symmetry_Int_Tables_number 1

loop_
_symmetry_equiv_pos_as_xyz
'x,y,z'

loop_
_atom_site_label
_atom_site_type_symbol
_atom_site_fract_x
_atom_site_fract_y
_atom_site_fract_z
O11	O1	0.161500	0.546700	0.163400
O21	O2	0.661500	0.046700	0.663400
O31	O3	0.838500	0.953300	0.163400
O41	O4	0.338500	0.453300	0.663400
O51	O5	0.838500	0.046700	0.836600
O61	O6	0.338500	0.546700	0.336600
O71	O7	0.161500	0.453300	0.836600
O81	O8	0.661500	0.953300	0.336600
O91	O9	0.838500	0.453300	0.836600
O101	O10	0.338500	0.953300	0.336600
O111	O11	0.161500	0.046700	0.836600
O121	O12	0.661500	0.546700	0.336600
O131	O13	0.161500	0.953300	0.163400
O141	O14	0.661500	0.453300	0.663400
O151	O15	0.838500	0.546700	0.163400
O161	O16	0.338500	0.046700	0.663400
Mg11	Mg1	0.000000	0.500000	0.000000
Mg21	Mg2	0.500000	0.000000	0.500000
Mg31	Mg3	0.000000	0.000000	0.000000
Mg41	Mg4	0.500000	0.500000	0.500000
O171	O17	0.000000	0.339900	0.081000
O181	O18	0.500000	0.839900	0.581000
O191	O19	0.000000	0.160100	0.081000
O201	O20	0.500000	0.660100	0.581000
O211	O21	0.000000	0.839900	0.919000
O221	O22	0.500000	0.339900	0.419000
O231	O23	0.000000	0.660100	0.919000
O241	O24	0.500000	0.160100	0.419000
C11	C1	0.000000	0.250000	0.054400
C21	C2	0.500000	0.750000	0.554400
C31	C3	0.000000	0.750000	0.945600
C41	C4	0.500000	0.250000	0.445600
C51	C5	0.250000	0.501500	0.250000
C61	C6	0.750000	0.998500	0.250000
C71	C7	0.750000	0.001500	0.750000
C81	C8	0.250000	0.498500	0.750000
C91	C9	0.750000	0.498500	0.750000
C101	C10	0.250000	0.998500	0.250000
C111	C11	0.250000	0.001500	0.750000
C121	C12	0.750000	0.501500	0.250000
