data_SIRBIG06_clean_PM
_symmetry_space_group_name_H-M	'P1'
_cell_length_a	8.395700
_cell_length_b	8.395700
_cell_length_c	21.733200
_cell_angle_alpha	90.000000
_cell_angle_beta	90.000000
_cell_angle_gamma	120.000000
_symmetry_Int_Tables_number 1

loop_
_symmetry_equiv_pos_as_xyz
'x,y,z'

loop_
_atom_site_label
_atom_site_type_symbol
_atom_site_fract_x
_atom_site_fract_y
_atom_site_fract_z
O11	O1	0.200600	0.212000	0.052820
O21	O2	0.325000	0.462200	0.110040
C11	C1	0.197700	0.324400	0.088500
H11	H1	0.081300	0.299900	0.100600
O31	O3	0.867270	0.545330	0.386150
O41	O4	0.991670	0.795530	0.443370
C21	C2	0.864370	0.657730	0.421830
H21	H2	0.747970	0.633230	0.433930
O51	O5	0.533930	0.878670	0.719490
O61	O6	0.658330	0.128870	0.776710
C31	C3	0.531030	0.991070	0.755170
H31	H3	0.414630	0.966570	0.767270
O71	O7	0.788000	0.988600	0.052820
O81	O8	0.537800	0.862800	0.110040
C41	C4	0.675600	0.873300	0.088500
H41	H4	0.700100	0.781400	0.100600
O91	O9	0.454670	0.321930	0.386150
O101	O10	0.204470	0.196130	0.443370
C51	C5	0.342270	0.206630	0.421830
H51	H5	0.366770	0.114730	0.433930
O111	O11	0.121330	0.655270	0.719490
O121	O12	0.871130	0.529470	0.776710
C61	C6	0.008930	0.539970	0.755170
H61	H6	0.033430	0.448070	0.767270
O131	O13	0.011400	0.799400	0.052820
O141	O14	0.137200	0.675000	0.110040
C71	C7	0.126700	0.802300	0.088500
H71	H7	0.218600	0.918700	0.100600
O151	O15	0.678070	0.132730	0.386150
O161	O16	0.803870	0.008330	0.443370
C81	C8	0.793370	0.135630	0.421830
H81	H8	0.885270	0.252030	0.433930
O171	O17	0.344730	0.466070	0.719490
O181	O18	0.470530	0.341670	0.776710
C91	C9	0.460030	0.468970	0.755170
H91	H9	0.551930	0.585370	0.767270
O191	O19	0.799400	0.788000	0.947180
O201	O20	0.675000	0.537800	0.889960
C101	C10	0.802300	0.675600	0.911500
H101	H10	0.918700	0.700100	0.899400
O211	O21	0.466070	0.121330	0.280510
O221	O22	0.341670	0.871130	0.223290
C111	C11	0.468970	0.008930	0.244830
H111	H11	0.585370	0.033430	0.232730
O231	O23	0.132730	0.454670	0.613850
O241	O24	0.008330	0.204470	0.556630
C121	C12	0.135630	0.342270	0.578170
H121	H12	0.252030	0.366770	0.566070
O251	O25	0.212000	0.011400	0.947180
O261	O26	0.462200	0.137200	0.889960
C131	C13	0.324400	0.126700	0.911500
H131	H13	0.299900	0.218600	0.899400
O271	O27	0.878670	0.344730	0.280510
O281	O28	0.128870	0.470530	0.223290
C141	C14	0.991070	0.460030	0.244830
H141	H14	0.966570	0.551930	0.232730
O291	O29	0.545330	0.678070	0.613850
O301	O30	0.795530	0.803870	0.556630
C151	C15	0.657730	0.793370	0.578170
H151	H15	0.633230	0.885270	0.566070
O311	O31	0.988600	0.200600	0.947180
O321	O32	0.862800	0.325000	0.889960
C161	C16	0.873300	0.197700	0.911500
H161	H16	0.781400	0.081300	0.899400
O331	O33	0.655270	0.533930	0.280510
O341	O34	0.529470	0.658330	0.223290
C171	C17	0.539970	0.531030	0.244830
H171	H17	0.448070	0.414630	0.232730
O351	O35	0.321930	0.867270	0.613850
O361	O36	0.196130	0.991670	0.556630
C181	C18	0.206630	0.864370	0.578170
H181	H18	0.114730	0.747970	0.566070
Mg11	Mg1	0.000000	0.000000	0.000000
Mg21	Mg2	0.666670	0.333330	0.333330
Mg31	Mg3	0.333330	0.666670	0.666670
Mg41	Mg4	0.333330	0.666670	0.166670
Mg51	Mg5	0.000000	0.000000	0.500000
Mg61	Mg6	0.666670	0.333330	0.833330
