data_SISPUH_clean_PM
_symmetry_space_group_name_H-M	'P1'
_cell_length_a	10.925300
_cell_length_b	17.735000
_cell_length_c	16.853000
_cell_angle_alpha	89.673000
_cell_angle_beta	90.000000
_cell_angle_gamma	90.000000
_symmetry_Int_Tables_number 1

loop_
_symmetry_equiv_pos_as_xyz
'x,y,z'

loop_
_atom_site_label
_atom_site_type_symbol
_atom_site_fract_x
_atom_site_fract_y
_atom_site_fract_z
Gd11	Gd1	0.961720	0.332640	0.474500
Gd21	Gd2	0.589720	0.830940	0.407530
Gd31	Gd3	0.141570	0.325130	0.260190
Gd41	Gd4	0.858430	0.325130	0.760190
Gd51	Gd5	0.604450	0.829310	0.124940
Gd61	Gd6	0.395550	0.829310	0.624940
Gd71	Gd7	0.410280	0.830940	0.907530
Gd81	Gd8	0.038280	0.332640	0.974500
H11	H1	0.165600	0.138300	0.556300
H21	H2	0.615900	0.637200	0.816000
H31	H3	0.093800	0.512900	0.654000
H41	H4	0.610200	0.025100	0.713900
H51	H5	0.384100	0.637200	0.316000
H61	H6	0.264100	0.013400	0.575000
H71	H7	0.879300	0.547700	0.492200
H81	H8	0.120700	0.547700	0.992200
H91	H9	0.188100	0.638200	0.642200
H101	H10	0.569700	0.873900	0.765300
H111	H11	0.430300	0.786300	0.266300
H121	H12	0.654400	0.050300	0.392100
H131	H13	0.225600	0.168900	0.910300
H141	H14	0.345600	0.050300	0.892100
H151	H15	0.569700	0.786300	0.766300
H161	H16	0.811900	0.638200	0.142200
H171	H17	0.692800	0.152000	0.722700
H181	H18	0.282800	0.513200	0.298000
H191	H19	0.906200	0.512900	0.154000
H201	H20	0.430300	0.873900	0.265300
H211	H21	0.225100	0.667600	0.973700
H221	H22	0.389800	0.025100	0.213900
H231	H23	0.717200	0.513200	0.798000
H241	H24	0.774900	0.667600	0.473700
H251	H25	0.735900	0.013400	0.075000
H261	H26	0.774400	0.168900	0.410300
H271	H27	0.307200	0.152000	0.222700
H281	H28	0.834400	0.138300	0.056300
C11	C1	0.317600	0.011600	0.106000
C21	C2	0.739700	0.034100	0.285500
C31	C3	0.260300	0.034100	0.785500
C41	C4	0.830500	0.212500	0.597500
C51	C5	0.697900	0.708900	0.270200
C61	C6	0.602900	0.946900	0.954200
C71	C7	0.188800	0.610100	0.689000
C81	C8	0.810900	0.214100	0.913000
C91	C9	0.211000	0.113500	0.517800
C101	C10	0.307200	0.956400	0.763600
C111	C11	0.855500	0.509800	0.269600
C121	C12	0.670500	0.018300	0.964200
C131	C13	0.637000	0.938100	0.578200
C141	C14	0.144500	0.509800	0.769600
C151	C15	0.664400	0.614100	0.854400
C161	C16	0.343400	0.047100	0.173800
C171	C17	0.779300	0.138800	0.365400
C181	C18	0.771600	0.138600	0.614400
C191	C19	0.223200	0.528700	0.090200
C201	C20	0.133000	0.537700	0.695400
C211	C21	0.295100	0.120200	0.179700
C221	C22	0.776800	0.528700	0.590200
C231	C23	0.363000	0.938100	0.078200
C241	C24	0.767800	0.140200	0.943600
C251	C25	0.682400	0.011600	0.606000
C261	C26	0.302100	0.708900	0.770200
C271	C27	0.268700	0.041300	0.528300
C281	C28	0.150800	0.154400	0.803600
C291	C29	0.819900	0.451500	0.617100
C301	C30	0.648600	0.721100	0.957800
C311	C31	0.848100	0.450400	0.924700
C321	C32	0.064700	0.220100	0.793000
C331	C33	0.325300	0.649500	0.072500
C341	C34	0.232200	0.140200	0.443600
C351	C35	0.721400	0.541700	0.844000
C361	C36	0.397100	0.946900	0.454200
C371	C37	0.781500	0.521100	0.910100
C381	C38	0.169500	0.212500	0.097500
C391	C39	0.220700	0.138800	0.865400
C401	C40	0.710700	0.068900	0.355500
C411	C41	0.241400	0.634800	0.015600
C421	C42	0.151900	0.450400	0.424700
C431	C43	0.351400	0.721100	0.457800
C441	C44	0.704900	0.120200	0.679700
C451	C45	0.867000	0.537700	0.195400
C461	C46	0.692800	0.956400	0.263600
C471	C47	0.656600	0.047100	0.673800
C481	C48	0.181500	0.565700	0.025700
C491	C49	0.278600	0.541700	0.344000
C501	C50	0.789000	0.113500	0.017800
C511	C51	0.189100	0.214100	0.413000
C521	C52	0.818500	0.565700	0.525700
C531	C53	0.674700	0.649500	0.572500
C541	C54	0.289300	0.068900	0.855500
C551	C55	0.228400	0.138600	0.114400
C561	C56	0.758000	0.634400	0.255200
C571	C57	0.329500	0.018300	0.464200
C581	C58	0.935300	0.220100	0.293000
C591	C59	0.218500	0.521100	0.410100
C601	C60	0.093800	0.438400	0.801400
C611	C61	0.689000	0.645600	0.926600
C621	C62	0.811200	0.610100	0.189000
C631	C63	0.758600	0.634800	0.515600
C641	C64	0.731300	0.041300	0.028300
C651	C65	0.242000	0.634400	0.755200
C661	C66	0.407300	0.716600	0.080900
C671	C67	0.335600	0.614100	0.354400
C681	C68	0.592700	0.716600	0.580900
C691	C69	0.180100	0.451500	0.117100
C701	C70	0.906200	0.438400	0.301400
C711	C71	0.311000	0.645600	0.426600
C721	C72	0.849200	0.154400	0.303600
S11	S1	0.839900	0.085430	0.230530
S21	S2	0.776000	0.587750	0.984310
S31	S3	0.773400	0.067350	0.547770
S41	S4	0.678200	0.081800	0.889380
S51	S5	0.226600	0.067350	0.047770
S61	S6	0.670200	0.578550	0.642200
S71	S7	0.224000	0.587750	0.484310
S81	S8	0.774300	0.569580	0.330590
S91	S9	0.329800	0.578550	0.142200
S101	S10	0.160100	0.085430	0.730530
S111	S11	0.225700	0.569580	0.830590
S121	S12	0.321800	0.081800	0.389380
O11	O1	0.791100	0.227500	0.842100
O21	O2	0.327500	0.736600	0.527100
O31	O3	0.949700	0.263700	0.352600
O41	O4	0.208900	0.227500	0.342100
O51	O5	0.450800	0.935600	0.389600
O61	O6	0.038100	0.396400	0.750200
O71	O7	0.534000	0.724700	0.644400
O81	O8	0.667400	0.942700	0.195000
O91	O9	0.689100	0.911100	0.320900
O101	O10	0.351400	0.719700	0.834900
O111	O11	0.594700	0.761700	0.907000
O121	O12	0.133200	0.255600	0.462100
O131	O13	0.154200	0.399800	0.370500
O141	O14	0.672500	0.736600	0.027100
O151	O15	0.417500	0.897700	0.127300
O161	O16	0.104900	0.219300	0.039200
O171	O17	0.400100	0.900700	0.509800
O181	O18	0.342000	0.921100	0.005900
O191	O19	0.292900	0.755500	0.714100
O201	O20	0.405300	0.761700	0.407000
O211	O21	0.332600	0.942700	0.695000
O221	O22	0.961900	0.396400	0.250200
O231	O23	0.123000	0.414300	0.067600
O241	O24	0.466000	0.724700	0.144400
O251	O25	0.549200	0.935600	0.889600
O261	O26	0.797500	0.432400	0.685900
O271	O27	0.895100	0.219300	0.539200
O281	O28	0.599900	0.900700	0.009800
O291	O29	0.800800	0.265700	0.645000
O301	O30	0.582500	0.897700	0.627300
O311	O31	0.866800	0.255600	0.962100
O321	O32	0.906400	0.441800	0.987300
O331	O33	0.707100	0.755500	0.214100
O341	O34	0.310900	0.911100	0.820900
O351	O35	0.093600	0.441800	0.487300
O361	O36	0.985700	0.228600	0.229600
O371	O37	0.877000	0.414300	0.567600
O381	O38	0.411000	0.761900	0.025700
O391	O39	0.483600	0.830100	0.266700
O401	O40	0.648600	0.719700	0.334900
O411	O41	0.893500	0.424700	0.373000
O421	O42	0.658000	0.921100	0.505900
O431	O43	0.014300	0.228600	0.729600
O441	O44	0.845800	0.399800	0.870500
O451	O45	0.199200	0.265700	0.145000
O461	O46	0.050300	0.263700	0.852600
O471	O47	0.106500	0.424700	0.873000
O481	O48	0.202500	0.432400	0.185900
O491	O49	0.516400	0.830100	0.766700
O501	O50	0.589000	0.761900	0.525700
