data_SISQES_clean_PM
_symmetry_space_group_name_H-M	'P1'
_cell_length_a	10.911100
_cell_length_b	17.820400
_cell_length_c	16.881300
_cell_angle_alpha	89.762000
_cell_angle_beta	90.000000
_cell_angle_gamma	90.000000
_symmetry_Int_Tables_number 1

loop_
_symmetry_equiv_pos_as_xyz
'x,y,z'

loop_
_atom_site_label
_atom_site_type_symbol
_atom_site_fract_x
_atom_site_fract_y
_atom_site_fract_z
Sm11	Sm1	0.411170	0.831050	0.908370
Sm21	Sm2	0.588830	0.831050	0.408370
Sm31	Sm3	0.393570	0.829120	0.624270
Sm41	Sm4	0.041650	0.332760	0.973660
Sm51	Sm5	0.606430	0.829120	0.124270
Sm61	Sm6	0.958350	0.332760	0.473660
Sm71	Sm7	0.140390	0.325190	0.260740
Sm81	Sm8	0.859610	0.325190	0.760740
H11	H1	0.606300	0.024900	0.714500
H21	H2	0.569900	0.787300	0.767300
H31	H3	0.835400	0.136800	0.054600
H41	H4	0.568900	0.874400	0.766300
H51	H5	0.265700	0.014600	0.574300
H61	H6	0.283900	0.511100	0.301200
H71	H7	0.773100	0.667900	0.477100
H81	H8	0.430100	0.787300	0.267300
H91	H9	0.226900	0.667900	0.977100
H101	H10	0.164600	0.136800	0.554600
H111	H11	0.092800	0.515300	0.654700
H121	H12	0.308900	0.151200	0.226100
H131	H13	0.218000	0.164800	0.912400
H141	H14	0.431100	0.874400	0.266300
H151	H15	0.691100	0.151200	0.726100
H161	H16	0.867200	0.543800	0.488600
H171	H17	0.782000	0.164800	0.412400
H181	H18	0.132800	0.543800	0.988600
H191	H19	0.907200	0.515300	0.154700
H201	H20	0.619500	0.635900	0.816200
H211	H21	0.346100	0.049500	0.890700
H221	H22	0.807700	0.636400	0.140800
H231	H23	0.393700	0.024900	0.214500
H241	H24	0.192300	0.636400	0.640800
H251	H25	0.734300	0.014600	0.074300
H261	H26	0.653900	0.049500	0.390700
H271	H27	0.380500	0.635900	0.316200
H281	H28	0.716100	0.511100	0.801200
C11	C1	0.269400	0.041300	0.526900
C21	C2	0.588500	0.715900	0.582700
C31	C3	0.671700	0.017000	0.965300
C41	C4	0.255000	0.033600	0.786500
C51	C5	0.242300	0.634500	0.755100
C61	C6	0.745000	0.033600	0.286500
C71	C7	0.767900	0.139100	0.942700
C81	C8	0.855300	0.450700	0.926700
C91	C9	0.277400	0.540600	0.346300
C101	C10	0.411500	0.715900	0.082700
C111	C11	0.348300	0.719000	0.457400
C121	C12	0.397000	0.946500	0.452800
C131	C13	0.722600	0.540600	0.846300
C141	C14	0.188400	0.563500	0.024700
C151	C15	0.300500	0.708800	0.769500
C161	C16	0.696000	0.955700	0.264800
C171	C17	0.190500	0.609500	0.688100
C181	C18	0.328300	0.017000	0.465300
C191	C19	0.699500	0.708800	0.269500
C201	C20	0.185100	0.451400	0.116700
C211	C21	0.309800	0.643600	0.427600
C221	C22	0.855100	0.510900	0.269500
C231	C23	0.233700	0.139900	0.114800
C241	C24	0.783800	0.135900	0.366700
C251	C25	0.210800	0.112500	0.516200
C261	C26	0.786300	0.520600	0.912100
C271	C27	0.789200	0.112500	0.016200
C281	C28	0.304000	0.955700	0.764800
C291	C29	0.185900	0.211600	0.413700
C301	C30	0.213700	0.520600	0.412100
C311	C31	0.603000	0.946500	0.952800
C321	C32	0.902300	0.438700	0.300000
C331	C33	0.064500	0.218300	0.792000
C341	C34	0.097700	0.438700	0.800000
C351	C35	0.682000	0.011900	0.607800
C361	C36	0.298000	0.120400	0.182300
C371	C37	0.328900	0.648900	0.074000
C381	C38	0.287200	0.067500	0.855600
C391	C39	0.774400	0.529100	0.590500
C401	C40	0.809500	0.609500	0.188100
C411	C41	0.814100	0.211600	0.913700
C421	C42	0.730600	0.041300	0.026900
C431	C43	0.702000	0.120400	0.682300
C441	C44	0.133600	0.539400	0.695700
C451	C45	0.757700	0.634500	0.255100
C461	C46	0.245500	0.634200	0.017600
C471	C47	0.866400	0.539400	0.195700
C481	C48	0.825900	0.213800	0.597600
C491	C49	0.144700	0.450700	0.426700
C501	C50	0.651700	0.719000	0.957400
C511	C51	0.712800	0.067500	0.355600
C521	C52	0.671100	0.648900	0.574000
C531	C53	0.814900	0.451400	0.616700
C541	C54	0.346000	0.047100	0.175100
C551	C55	0.852200	0.152200	0.302900
C561	C56	0.147800	0.152200	0.802900
C571	C57	0.811600	0.563500	0.524700
C581	C58	0.174100	0.213800	0.097600
C591	C59	0.225600	0.529100	0.090500
C601	C60	0.144900	0.510900	0.769500
C611	C61	0.666500	0.612800	0.855200
C621	C62	0.636300	0.938200	0.579200
C631	C63	0.690200	0.643600	0.927600
C641	C64	0.232100	0.139100	0.442700
C651	C65	0.363700	0.938200	0.079200
C661	C66	0.654000	0.047100	0.675100
C671	C67	0.318000	0.011900	0.107800
C681	C68	0.216200	0.135900	0.866700
C691	C69	0.333500	0.612800	0.355200
C701	C70	0.935500	0.218300	0.292000
C711	C71	0.754500	0.634200	0.517600
C721	C72	0.766300	0.139900	0.614800
S11	S1	0.229400	0.068410	0.049300
S21	S2	0.839500	0.085320	0.230000
S31	S3	0.780000	0.587980	0.984600
S41	S4	0.227100	0.569790	0.829400
S51	S5	0.667400	0.578160	0.643100
S61	S6	0.332600	0.578160	0.143100
S71	S7	0.679700	0.081230	0.889200
S81	S8	0.160500	0.085320	0.730000
S91	S9	0.320300	0.081230	0.389200
S101	S10	0.770600	0.068410	0.549300
S111	S11	0.772900	0.569790	0.329400
S121	S12	0.220000	0.587980	0.484600
O11	O1	0.986600	0.228400	0.227100
O21	O2	0.950000	0.263500	0.349700
O31	O3	0.598600	0.899500	0.007100
O41	O4	0.130900	0.412800	0.067900
O51	O5	0.869100	0.412800	0.567900
O61	O6	0.548600	0.936800	0.886800
O71	O7	0.671600	0.942600	0.194900
O81	O8	0.467200	0.723200	0.147000
O91	O9	0.204100	0.432700	0.186400
O101	O10	0.289700	0.756300	0.715500
O111	O11	0.350000	0.720300	0.835600
O121	O12	0.130300	0.252500	0.462700
O131	O13	0.532800	0.723200	0.647000
O141	O14	0.147600	0.400400	0.373500
O151	O15	0.579800	0.899700	0.627700
O161	O16	0.852400	0.400400	0.873500
O171	O17	0.869700	0.252500	0.962700
O181	O18	0.110600	0.425300	0.871200
O191	O19	0.791100	0.227300	0.844300
O201	O20	0.420200	0.899700	0.127700
O211	O21	0.328400	0.942600	0.694900
O221	O22	0.795800	0.264800	0.646000
O231	O23	0.650000	0.720300	0.335600
O241	O24	0.959100	0.397500	0.249600
O251	O25	0.013400	0.228400	0.727100
O261	O26	0.404500	0.760200	0.406800
O271	O27	0.109500	0.219000	0.040800
O281	O28	0.204200	0.264800	0.146000
O291	O29	0.208900	0.227300	0.344300
O301	O30	0.483900	0.830600	0.267800
O311	O31	0.415000	0.761000	0.029000
O321	O32	0.674300	0.736800	0.026000
O331	O33	0.710300	0.756300	0.215500
O341	O34	0.795900	0.432700	0.686400
O351	O35	0.889400	0.425300	0.371200
O361	O36	0.451400	0.936800	0.386800
O371	O37	0.595500	0.760200	0.906800
O381	O38	0.585000	0.761000	0.529000
O391	O39	0.691500	0.910200	0.321200
O401	O40	0.909600	0.443700	0.989600
O411	O41	0.325700	0.736800	0.526000
O421	O42	0.308500	0.910200	0.821200
O431	O43	0.516100	0.830600	0.767800
O441	O44	0.401400	0.899500	0.507100
O451	O45	0.040900	0.397500	0.749600
O461	O46	0.340900	0.921500	0.009000
O471	O47	0.090400	0.443700	0.489600
O481	O48	0.890500	0.219000	0.540800
O491	O49	0.050000	0.263500	0.849700
O501	O50	0.659100	0.921500	0.509000
