data_SIVGUB_clean_PM
_symmetry_space_group_name_H-M	'P1'
_cell_length_a	17.493000
_cell_length_b	15.092000
_cell_length_c	23.745000
_cell_angle_alpha	90.000000
_cell_angle_beta	97.060000
_cell_angle_gamma	90.000000
_symmetry_Int_Tables_number 1

loop_
_symmetry_equiv_pos_as_xyz
'x,y,z'

loop_
_atom_site_label
_atom_site_type_symbol
_atom_site_fract_x
_atom_site_fract_y
_atom_site_fract_z
Zn11	Zn1	0.166250	0.866690	0.482190
Zn21	Zn2	0.310190	0.933530	0.410300
O11	O1	0.191700	0.769700	0.437000
O21	O2	0.300500	0.805200	0.403100
O31	O3	0.243200	0.599400	0.042550
O41	O4	0.344800	0.571500	0.997170
O51	O5	0.599200	0.458900	0.198500
O61	O6	0.586200	0.469800	0.104040
O71	O7	0.922700	0.289000	0.474300
O81	O8	0.929800	0.144100	0.487300
O91	O9	0.249700	0.041900	0.418800
O101	O10	0.144800	0.973600	0.437000
O111	O11	0.331500	0.548500	0.243570
O121	O12	0.181700	0.356600	0.401900
C11	C1	0.248200	0.751400	0.412200
C21	C2	0.254100	0.657600	0.392500
C31	C3	0.309900	0.634200	0.358100
H11	H1	0.344100	0.676700	0.347800
C41	C4	0.314500	0.548400	0.339400
C51	C5	0.263400	0.485000	0.355600
H21	H2	0.266000	0.426900	0.342800
C61	C6	0.209100	0.508300	0.390600
C71	C7	0.205200	0.593800	0.409300
H31	H3	0.169300	0.608900	0.433500
C81	C8	0.369400	0.525300	0.296800
H41	H4	0.417100	0.558300	0.304800
H51	H5	0.381100	0.462500	0.298200
C91	C9	0.313400	0.578000	0.040500
C101	C10	0.562000	0.475200	0.151500
C111	C11	0.360800	0.556300	0.095300
C121	C12	0.436700	0.527000	0.098300
H61	H6	0.459400	0.522200	0.065000
C131	C13	0.478200	0.505200	0.148200
C141	C14	0.445600	0.511600	0.199600
H71	H7	0.474300	0.497000	0.234000
C151	C15	0.371000	0.539700	0.197900
C161	C16	0.326200	0.561400	0.146000
H81	H8	0.275100	0.578700	0.145300
C171	C17	0.150800	0.441200	0.408400
H91	H9	0.142700	0.450900	0.447600
H101	H10	0.101800	0.447300	0.384700
C181	C18	0.183400	0.041200	0.429400
C191	C19	0.954800	0.219800	0.472200
C201	C20	0.140500	0.128800	0.429900
C211	C21	0.069400	0.133200	0.448600
H111	H11	0.044800	0.081600	0.458000
C221	C22	0.034700	0.213400	0.453300
C231	C23	0.069700	0.290700	0.437100
H121	H12	0.045000	0.345000	0.439000
C241	C24	0.141000	0.286500	0.418300
C251	C25	0.175300	0.205500	0.413700
H131	H13	0.222500	0.202000	0.399600
Zn31	Zn3	0.833750	0.366690	0.017810
Zn41	Zn4	0.689810	0.433530	0.089700
O131	O13	0.808300	0.269700	0.063000
O141	O14	0.699500	0.305200	0.096900
O151	O15	0.756800	0.099400	0.457450
O161	O16	0.655200	0.071500	0.502830
O171	O17	0.400800	0.958900	0.301500
O181	O18	0.413800	0.969800	0.395960
O191	O19	0.077300	0.789000	0.025700
O201	O20	0.070200	0.644100	0.012700
O211	O21	0.750300	0.541900	0.081200
O221	O22	0.855200	0.473600	0.063000
O231	O23	0.668500	0.048500	0.256430
O241	O24	0.818300	0.856600	0.098100
C261	C26	0.751800	0.251400	0.087800
C271	C27	0.745900	0.157600	0.107500
C281	C28	0.690100	0.134200	0.141900
H141	H14	0.655900	0.176700	0.152200
C291	C29	0.685500	0.048400	0.160600
C301	C30	0.736600	0.985000	0.144400
H151	H15	0.734000	0.926900	0.157200
C311	C31	0.790900	0.008300	0.109400
C321	C32	0.794800	0.093800	0.090700
H161	H16	0.830700	0.108900	0.066500
C331	C33	0.630600	0.025300	0.203200
H171	H17	0.582900	0.058300	0.195200
H181	H18	0.618900	0.962500	0.201800
C341	C34	0.686600	0.078000	0.459500
C351	C35	0.438000	0.975200	0.348500
C361	C36	0.639200	0.056300	0.404700
C371	C37	0.563300	0.027000	0.401700
H191	H19	0.540600	0.022200	0.435000
C381	C38	0.521800	0.005200	0.351800
C391	C39	0.554400	0.011600	0.300400
H201	H20	0.525700	0.997000	0.266000
C401	C40	0.629000	0.039700	0.302100
C411	C41	0.673800	0.061400	0.354000
H211	H21	0.724900	0.078700	0.354700
C421	C42	0.849200	0.941200	0.091600
H221	H22	0.857300	0.950900	0.052400
H231	H23	0.898200	0.947300	0.115300
C431	C43	0.816600	0.541200	0.070600
C441	C44	0.045200	0.719800	0.027800
C451	C45	0.859500	0.628800	0.070100
C461	C46	0.930600	0.633200	0.051400
H241	H24	0.955200	0.581600	0.042000
C471	C47	0.965300	0.713400	0.046700
C481	C48	0.930300	0.790700	0.062900
H251	H25	0.955000	0.845000	0.061000
C491	C49	0.859000	0.786500	0.081700
C501	C50	0.824700	0.705500	0.086300
H261	H26	0.777500	0.702000	0.100400
Zn51	Zn5	0.833750	0.133310	0.517810
Zn61	Zn6	0.689810	0.066470	0.589700
O251	O25	0.808300	0.230300	0.563000
O261	O26	0.699500	0.194800	0.596900
O271	O27	0.756800	0.400600	0.957450
O281	O28	0.655200	0.428500	0.002830
O291	O29	0.400800	0.541100	0.801500
O301	O30	0.413800	0.530200	0.895960
O311	O31	0.077300	0.711000	0.525700
O321	O32	0.070200	0.855900	0.512700
O331	O33	0.750300	0.958100	0.581200
O341	O34	0.855200	0.026400	0.563000
O351	O35	0.668500	0.451500	0.756430
O361	O36	0.818300	0.643400	0.598100
C511	C51	0.751800	0.248600	0.587800
C521	C52	0.745900	0.342400	0.607500
C531	C53	0.690100	0.365800	0.641900
H271	H27	0.655900	0.323300	0.652200
C541	C54	0.685500	0.451600	0.660600
C551	C55	0.736600	0.515000	0.644400
H281	H28	0.734000	0.573100	0.657200
C561	C56	0.790900	0.491700	0.609400
C571	C57	0.794800	0.406200	0.590700
H291	H29	0.830700	0.391100	0.566500
C581	C58	0.630600	0.474700	0.703200
H301	H30	0.582900	0.441700	0.695200
H311	H31	0.618900	0.537500	0.701800
C591	C59	0.686600	0.422000	0.959500
C601	C60	0.438000	0.524800	0.848500
C611	C61	0.639200	0.443700	0.904700
C621	C62	0.563300	0.473000	0.901700
H321	H32	0.540600	0.477800	0.935000
C631	C63	0.521800	0.494800	0.851800
C641	C64	0.554400	0.488400	0.800400
H331	H33	0.525700	0.503000	0.766000
C651	C65	0.629000	0.460300	0.802100
C661	C66	0.673800	0.438600	0.854000
H341	H34	0.724900	0.421300	0.854700
C671	C67	0.849200	0.558800	0.591600
H351	H35	0.857300	0.549100	0.552400
H361	H36	0.898200	0.552700	0.615300
C681	C68	0.816600	0.958800	0.570600
C691	C69	0.045200	0.780200	0.527800
C701	C70	0.859500	0.871200	0.570100
C711	C71	0.930600	0.866800	0.551400
H371	H37	0.955200	0.918400	0.542000
C721	C72	0.965300	0.786600	0.546700
C731	C73	0.930300	0.709300	0.562900
H381	H38	0.955000	0.655000	0.561000
C741	C74	0.859000	0.713500	0.581700
C751	C75	0.824700	0.794500	0.586300
H391	H39	0.777500	0.798000	0.600400
Zn71	Zn7	0.166250	0.633310	0.982190
Zn81	Zn8	0.310190	0.566470	0.910300
O371	O37	0.191700	0.730300	0.937000
O381	O38	0.300500	0.694800	0.903100
O391	O39	0.243200	0.900600	0.542550
O401	O40	0.344800	0.928500	0.497170
O411	O41	0.599200	0.041100	0.698500
O421	O42	0.586200	0.030200	0.604040
O431	O43	0.922700	0.211000	0.974300
O441	O44	0.929800	0.355900	0.987300
O451	O45	0.249700	0.458100	0.918800
O461	O46	0.144800	0.526400	0.937000
O471	O47	0.331500	0.951500	0.743570
O481	O48	0.181700	0.143400	0.901900
C761	C76	0.248200	0.748600	0.912200
C771	C77	0.254100	0.842400	0.892500
C781	C78	0.309900	0.865800	0.858100
H401	H40	0.344100	0.823300	0.847800
C791	C79	0.314500	0.951600	0.839400
C801	C80	0.263400	0.015000	0.855600
H411	H41	0.266000	0.073100	0.842800
C811	C81	0.209100	0.991700	0.890600
C821	C82	0.205200	0.906200	0.909300
H421	H42	0.169300	0.891100	0.933500
C831	C83	0.369400	0.974700	0.796800
H431	H43	0.417100	0.941700	0.804800
H441	H44	0.381100	0.037500	0.798200
C841	C84	0.313400	0.922000	0.540500
C851	C85	0.562000	0.024800	0.651500
C861	C86	0.360800	0.943700	0.595300
C871	C87	0.436700	0.973000	0.598300
H451	H45	0.459400	0.977800	0.565000
C881	C88	0.478200	0.994800	0.648200
C891	C89	0.445600	0.988400	0.699600
H461	H46	0.474300	0.003000	0.734000
C901	C90	0.371000	0.960300	0.697900
C911	C91	0.326200	0.938600	0.646000
H471	H47	0.275100	0.921300	0.645300
C921	C92	0.150800	0.058800	0.908400
H481	H48	0.142700	0.049100	0.947600
H491	H49	0.101800	0.052700	0.884700
C931	C93	0.183400	0.458800	0.929400
C941	C94	0.954800	0.280200	0.972200
C951	C95	0.140500	0.371200	0.929900
C961	C96	0.069400	0.366800	0.948600
H501	H50	0.044800	0.418400	0.958000
C971	C97	0.034700	0.286600	0.953300
C981	C98	0.069700	0.209300	0.937100
H511	H51	0.045000	0.155000	0.939000
C991	C99	0.141000	0.213500	0.918300
C1001	C100	0.175300	0.294500	0.913700
H521	H52	0.222500	0.298000	0.899600
