data_SIVGIP_clean_PM
_symmetry_space_group_name_H-M	'P1'
_cell_length_a	13.292500
_cell_length_b	13.660000
_cell_length_c	9.563100
_cell_angle_alpha	90.000000
_cell_angle_beta	126.840000
_cell_angle_gamma	90.000000
_symmetry_Int_Tables_number 1

loop_
_symmetry_equiv_pos_as_xyz
'x,y,z'

loop_
_atom_site_label
_atom_site_type_symbol
_atom_site_fract_x
_atom_site_fract_y
_atom_site_fract_z
Zn11	Zn1	0.166400	0.356450	0.870100
N11	N1	0.494100	0.200400	0.208900
N21	N2	0.312500	0.268200	0.020700
N31	N3	0.180700	0.465000	0.738200
N41	N4	0.176300	0.567700	0.562200
N51	N5	0.261000	0.598300	0.729600
N61	N6	0.402300	0.130300	0.136900
N71	N7	0.262900	0.537800	0.834800
C11	C1	0.033000	0.423200	0.422300
H11	H1	0.014300	0.367300	0.463900
H21	H2	0.065200	0.401700	0.360600
H31	H3	0.957700	0.460600	0.345100
C21	C2	0.435600	0.283300	0.132300
C31	C3	0.127700	0.484500	0.571800
N81	N8	0.295700	0.170700	0.026100
C41	C4	0.498300	0.381600	0.172000
H41	H4	0.435900	0.430800	0.102500
H51	H5	0.557200	0.380200	0.145100
H61	H6	0.541800	0.396400	0.293600
Zn21	Zn2	0.666400	0.856450	0.870100
N91	N9	0.994100	0.700400	0.208900
N101	N10	0.812500	0.768200	0.020700
N111	N11	0.680700	0.965000	0.738200
N121	N12	0.676300	0.067700	0.562200
N131	N13	0.761000	0.098300	0.729600
N141	N14	0.902300	0.630300	0.136900
N151	N15	0.762900	0.037800	0.834800
C51	C5	0.533000	0.923200	0.422300
H71	H7	0.514300	0.867300	0.463900
H81	H8	0.565200	0.901700	0.360600
H91	H9	0.457700	0.960600	0.345100
C61	C6	0.935600	0.783300	0.132300
C71	C7	0.627700	0.984500	0.571800
N161	N16	0.795700	0.670700	0.026100
C81	C8	0.998300	0.881600	0.172000
H101	H10	0.935900	0.930800	0.102500
H111	H11	0.057200	0.880200	0.145100
H121	H12	0.041800	0.896400	0.293600
Zn31	Zn3	0.166400	0.643550	0.370100
N171	N17	0.494100	0.799600	0.708900
N181	N18	0.312500	0.731800	0.520700
N191	N19	0.180700	0.535000	0.238200
N201	N20	0.176300	0.432300	0.062200
N211	N21	0.261000	0.401700	0.229600
N221	N22	0.402300	0.869700	0.636900
N231	N23	0.262900	0.462200	0.334800
C91	C9	0.033000	0.576800	0.922300
H131	H13	0.014300	0.632700	0.963900
H141	H14	0.065200	0.598300	0.860600
H151	H15	0.957700	0.539400	0.845100
C101	C10	0.435600	0.716700	0.632300
C111	C11	0.127700	0.515500	0.071800
N241	N24	0.295700	0.829300	0.526100
C121	C12	0.498300	0.618400	0.672000
H161	H16	0.435900	0.569200	0.602500
H171	H17	0.557200	0.619800	0.645100
H181	H18	0.541800	0.603600	0.793600
Zn41	Zn4	0.666400	0.143550	0.370100
N251	N25	0.994100	0.299600	0.708900
N261	N26	0.812500	0.231800	0.520700
N271	N27	0.680700	0.035000	0.238200
N281	N28	0.676300	0.932300	0.062200
N291	N29	0.761000	0.901700	0.229600
N301	N30	0.902300	0.369700	0.636900
N311	N31	0.762900	0.962200	0.334800
C131	C13	0.533000	0.076800	0.922300
H191	H19	0.514300	0.132700	0.963900
H201	H20	0.565200	0.098300	0.860600
H211	H21	0.457700	0.039400	0.845100
C141	C14	0.935600	0.216700	0.632300
C151	C15	0.627700	0.015500	0.071800
N321	N32	0.795700	0.329300	0.526100
C161	C16	0.998300	0.118400	0.672000
H221	H22	0.935900	0.069200	0.602500
H231	H23	0.057200	0.119800	0.645100
H241	H24	0.041800	0.103600	0.793600
