data_SIVJIS_clean_PM
_symmetry_space_group_name_H-M	'P1'
_cell_length_a	12.048000
_cell_length_b	12.280000
_cell_length_c	19.092000
_cell_angle_alpha	91.920000
_cell_angle_beta	98.100000
_cell_angle_gamma	117.880000
_symmetry_Int_Tables_number 1

loop_
_symmetry_equiv_pos_as_xyz
'x,y,z'

loop_
_atom_site_label
_atom_site_type_symbol
_atom_site_fract_x
_atom_site_fract_y
_atom_site_fract_z
Cd11	Cd1	0.766250	0.507090	0.279210
Cd21	Cd2	0.578760	0.670860	0.200260
Cd31	Cd3	0.420960	0.325410	0.299190
O11	O1	0.430800	0.314800	0.181330
O21	O2	0.615800	0.513900	0.341420
O31	O3	0.610300	0.493700	0.181080
O41	O4	0.522800	0.212400	0.316140
O51	O5	0.607000	0.688200	0.320930
O61	O6	0.319200	0.437400	0.279180
O71	O7	0.365200	0.564700	0.193560
O81	O8	0.786000	0.791700	0.197300
N11	N1	0.459000	0.330300	0.923870
O91	O9	0.670000	0.299700	0.247900
N21	N2	0.230100	0.135600	0.272490
N31	N3	0.609800	0.674100	0.582670
N41	N4	0.569900	0.856800	0.218740
N51	N5	0.937700	0.496200	0.237300
O101	O10	0.874200	0.710400	0.275740
C11	C1	0.613200	0.612200	0.360560
C21	C2	0.614100	0.637700	0.438890
C31	C3	0.496500	0.367300	0.072000
C41	C4	0.512400	0.392700	0.151160
C51	C5	0.294300	0.499800	0.235090
C61	C6	0.668100	0.588700	0.489340
H11	H1	0.704600	0.541300	0.475400
C71	C7	0.169700	0.498200	0.233100
C81	C8	0.558300	0.720900	0.533900
H21	H2	0.519600	0.765400	0.549000
C91	C9	0.560000	0.706300	0.462360
H31	H3	0.525100	0.742100	0.430200
C101	C10	0.592500	0.210200	0.275000
C111	C11	0.597200	0.423800	0.035960
H41	H4	0.679100	0.475900	0.060900
C121	C12	0.361500	0.273800	0.959100
H51	H5	0.280100	0.223200	0.933200
C131	C13	0.876400	0.794600	0.239200
C141	C14	0.378300	0.288500	0.032500
H61	H6	0.309500	0.245000	0.055300
C151	C15	0.002200	0.913400	0.249800
C161	C16	0.666700	0.611700	0.560330
H71	H7	0.706900	0.582600	0.594000
C171	C17	0.103800	0.928900	0.300400
H81	H8	0.097200	0.865500	0.327800
C181	C18	0.575300	0.402400	0.962660
H91	H9	0.644200	0.439500	0.939100
C191	C19	0.583900	0.085500	0.254600
C201	C20	0.131500	0.118000	0.223000
H101	H10	0.140300	0.182500	0.196200
C211	C21	0.216300	0.041300	0.309800
H111	H11	0.285000	0.051100	0.343500
C221	C22	0.508000	0.982300	0.285600
H121	H12	0.460700	0.987900	0.318700
C231	C23	0.650400	0.071800	0.204400
H131	H13	0.699900	0.138900	0.181400
C241	C24	0.503800	0.870400	0.266500
H141	H14	0.452900	0.801300	0.287700
C251	C25	0.017300	0.009500	0.209700
H151	H15	0.951400	0.001100	0.174200
C261	C26	0.642100	0.957400	0.188900
H161	H16	0.689000	0.949800	0.156100
C271	C27	0.145600	0.590400	0.208000
H171	H17	0.207000	0.655100	0.188600
C281	C28	0.030100	0.586700	0.211700
H181	H18	0.016900	0.651000	0.195500
C291	C29	0.072100	0.402500	0.260800
H191	H19	0.083600	0.338700	0.279300
C301	C30	0.959100	0.404900	0.260100
H201	H20	0.893500	0.339000	0.276400
C311	C31	0.975900	0.568000	0.413000
C321	C32	0.034000	0.548300	0.482600
O111	O11	0.032700	0.652500	0.384600
C331	C33	0.800700	0.398200	0.420800
C341	C34	0.856600	0.380000	0.487100
N61	N6	0.857300	0.490600	0.389700
O121	O12	0.142700	0.509400	0.610300
Cd41	Cd4	0.233750	0.492910	0.720790
Cd51	Cd5	0.421240	0.329140	0.799750
Cd61	Cd6	0.579040	0.674590	0.700810
O131	O13	0.569200	0.685200	0.818670
O141	O14	0.384200	0.486100	0.658580
O151	O15	0.389700	0.506300	0.818920
O161	O16	0.477200	0.787600	0.683860
O171	O17	0.393000	0.311800	0.679070
O181	O18	0.680800	0.562600	0.720820
O191	O19	0.634800	0.435300	0.806440
O201	O20	0.214000	0.208300	0.802700
N71	N7	0.541000	0.669700	0.076130
O211	O21	0.330000	0.700300	0.752100
N81	N8	0.769900	0.864400	0.727510
N91	N9	0.390200	0.325900	0.417330
N101	N10	0.430100	0.143200	0.781260
N111	N11	0.062300	0.503800	0.762700
O221	O22	0.125800	0.289600	0.724260
C351	C35	0.386800	0.387800	0.639440
C361	C36	0.385900	0.362300	0.561110
C371	C37	0.503500	0.632700	0.928000
C381	C38	0.487600	0.607300	0.848840
C391	C39	0.705700	0.500200	0.764910
C401	C40	0.331900	0.411300	0.510660
H211	H21	0.295400	0.458700	0.524600
C411	C41	0.830300	0.501800	0.766900
C421	C42	0.441700	0.279100	0.466100
H221	H22	0.480400	0.234600	0.451000
C431	C43	0.440000	0.293700	0.537640
H231	H23	0.474900	0.257900	0.569800
C441	C44	0.407500	0.789800	0.725000
C451	C45	0.402800	0.576200	0.964040
H241	H24	0.320900	0.524100	0.939100
C461	C46	0.638500	0.726200	0.040900
H251	H25	0.719900	0.776800	0.066800
C471	C47	0.123600	0.205400	0.760800
C481	C48	0.621700	0.711500	0.967500
H261	H26	0.690500	0.755000	0.944700
C491	C49	0.997800	0.086600	0.750200
C501	C50	0.333300	0.388300	0.439670
H271	H27	0.293100	0.417400	0.406000
C511	C51	0.896200	0.071100	0.699600
H281	H28	0.902800	0.134500	0.672200
C521	C52	0.424700	0.597600	0.037340
H291	H29	0.355800	0.560500	0.060900
C531	C53	0.416100	0.914500	0.745400
C541	C54	0.868500	0.882000	0.777000
H301	H30	0.859700	0.817500	0.803800
C551	C55	0.783700	0.958700	0.690200
H311	H31	0.715000	0.948900	0.656500
C561	C56	0.492000	0.017700	0.714400
H321	H32	0.539300	0.012100	0.681300
C571	C57	0.349600	0.928200	0.795600
H331	H33	0.300100	0.861100	0.818600
C581	C58	0.496200	0.129600	0.733500
H341	H34	0.547100	0.198700	0.712300
C591	C59	0.982700	0.990500	0.790300
H351	H35	0.048600	0.998900	0.825800
C601	C60	0.357900	0.042600	0.811100
H361	H36	0.311000	0.050200	0.843900
C611	C61	0.854400	0.409600	0.792000
H371	H37	0.793000	0.344900	0.811400
C621	C62	0.969900	0.413300	0.788300
H381	H38	0.983100	0.349000	0.804500
C631	C63	0.927900	0.597500	0.739200
H391	H39	0.916400	0.661300	0.720700
C641	C64	0.040900	0.595100	0.739900
H401	H40	0.106500	0.661000	0.723600
C651	C65	0.024100	0.432000	0.587000
C661	C66	0.966000	0.451700	0.517400
O231	O23	0.967300	0.347500	0.615400
C671	C67	0.199300	0.601800	0.579200
C681	C68	0.143400	0.620000	0.512900
