data_SIVKAK_clean_PM
_symmetry_space_group_name_H-M	'P1'
_cell_length_a	7.583100
_cell_length_b	13.798900
_cell_length_c	31.086400
_cell_angle_alpha	90.000000
_cell_angle_beta	90.000000
_cell_angle_gamma	90.000000
_symmetry_Int_Tables_number 1

loop_
_symmetry_equiv_pos_as_xyz
'x,y,z'

loop_
_atom_site_label
_atom_site_type_symbol
_atom_site_fract_x
_atom_site_fract_y
_atom_site_fract_z
Mn11	Mn1	0.946000	0.087020	0.250000
Mn21	Mn2	0.554000	0.587020	0.750000
Mn31	Mn3	0.054000	0.912980	0.750000
Mn41	Mn4	0.446000	0.412980	0.250000
Mn51	Mn5	0.500000	0.500000	0.500000
Mn61	Mn6	0.000000	0.000000	0.500000
Mn71	Mn7	0.500000	0.500000	0.000000
Mn81	Mn8	0.000000	0.000000	0.000000
Ag11	Ag1	0.495850	0.056190	0.381290
Ag21	Ag2	0.237040	0.242060	0.389740
Ag31	Ag3	0.004150	0.556190	0.618710
Ag41	Ag4	0.262960	0.742060	0.610260
Ag51	Ag5	0.504150	0.943810	0.881290
Ag61	Ag6	0.762960	0.757940	0.889740
Ag71	Ag7	0.995850	0.443810	0.118710
Ag81	Ag8	0.737040	0.257940	0.110260
Ag91	Ag9	0.504150	0.943810	0.618710
Ag101	Ag10	0.762960	0.757940	0.610260
Ag111	Ag11	0.995850	0.443810	0.381290
Ag121	Ag12	0.737040	0.257940	0.389740
Ag131	Ag13	0.495850	0.056190	0.118710
Ag141	Ag14	0.237040	0.242060	0.110260
Ag151	Ag15	0.004150	0.556190	0.881290
Ag161	Ag16	0.262960	0.742060	0.889740
H11	H1	0.643700	0.371300	0.654100
H21	H2	0.696300	0.167600	0.563000
H31	H3	0.574300	0.479900	0.601000
H41	H4	0.636800	0.283600	0.512400
H51	H5	0.856300	0.871300	0.345900
H61	H6	0.803700	0.667600	0.437000
H71	H7	0.925700	0.979900	0.399000
H81	H8	0.863200	0.783600	0.487600
H91	H9	0.356300	0.628700	0.154100
H101	H10	0.303700	0.832400	0.063000
H111	H11	0.425700	0.520100	0.101000
H121	H12	0.363200	0.716400	0.012400
H131	H13	0.143700	0.128700	0.845900
H141	H14	0.196300	0.332400	0.937000
H151	H15	0.074300	0.020100	0.899000
H161	H16	0.136800	0.216400	0.987600
H171	H17	0.356300	0.628700	0.345900
H181	H18	0.303700	0.832400	0.437000
H191	H19	0.425700	0.520100	0.399000
H201	H20	0.363200	0.716400	0.487600
H211	H21	0.143700	0.128700	0.654100
H221	H22	0.196300	0.332400	0.563000
H231	H23	0.074300	0.020100	0.601000
H241	H24	0.136800	0.216400	0.512400
H251	H25	0.643700	0.371300	0.845900
H261	H26	0.696300	0.167600	0.937000
H271	H27	0.574300	0.479900	0.899000
H281	H28	0.636800	0.283600	0.987600
H291	H29	0.856300	0.871300	0.154100
H301	H30	0.803700	0.667600	0.063000
H311	H31	0.925700	0.979900	0.101000
H321	H32	0.863200	0.783600	0.012400
C11	C1	0.657200	0.056500	0.328270
C21	C2	0.336200	0.039230	0.434110
C31	C3	0.639500	0.351800	0.625510
C41	C4	0.708300	0.185500	0.647240
C51	C5	0.672600	0.256700	0.613960
C61	C6	0.672200	0.231000	0.571350
C71	C7	0.600100	0.416300	0.593380
C81	C8	0.162800	0.166440	0.335610
C91	C9	0.319400	0.327400	0.440140
C101	C10	0.635200	0.300750	0.541340
C111	C11	0.842800	0.556500	0.671730
C121	C12	0.163800	0.539230	0.565890
C131	C13	0.860500	0.851800	0.374490
C141	C14	0.791700	0.685500	0.352760
C151	C15	0.827400	0.756700	0.386040
C161	C16	0.827800	0.731000	0.428650
C171	C17	0.899900	0.916300	0.406620
C181	C18	0.337200	0.666440	0.664390
C191	C19	0.180600	0.827400	0.559860
C201	C20	0.864800	0.800750	0.458660
C211	C21	0.342800	0.943500	0.828270
C221	C22	0.663800	0.960770	0.934110
C231	C23	0.360500	0.648200	0.125510
C241	C24	0.291700	0.814500	0.147240
C251	C25	0.327400	0.743300	0.113960
C261	C26	0.327800	0.769000	0.071350
C271	C27	0.399900	0.583700	0.093380
C281	C28	0.837200	0.833560	0.835610
C291	C29	0.680600	0.672600	0.940140
C301	C30	0.364800	0.699250	0.041340
C311	C31	0.157200	0.443500	0.171730
C321	C32	0.836200	0.460770	0.065890
C331	C33	0.139500	0.148200	0.874490
C341	C34	0.208300	0.314500	0.852760
C351	C35	0.172600	0.243300	0.886040
C361	C36	0.172200	0.269000	0.928650
C371	C37	0.100100	0.083700	0.906620
C381	C38	0.662800	0.333560	0.164390
C391	C39	0.819400	0.172600	0.059860
C401	C40	0.135200	0.199250	0.958660
C411	C41	0.342800	0.943500	0.671730
C421	C42	0.663800	0.960770	0.565890
C431	C43	0.360500	0.648200	0.374490
C441	C44	0.291700	0.814500	0.352760
C451	C45	0.327400	0.743300	0.386040
C461	C46	0.327800	0.769000	0.428650
C471	C47	0.399900	0.583700	0.406620
C481	C48	0.837200	0.833560	0.664390
C491	C49	0.680600	0.672600	0.559860
C501	C50	0.364800	0.699250	0.458660
C511	C51	0.157200	0.443500	0.328270
C521	C52	0.836200	0.460770	0.434110
C531	C53	0.139500	0.148200	0.625510
C541	C54	0.208300	0.314500	0.647240
C551	C55	0.172600	0.243300	0.613960
C561	C56	0.172200	0.269000	0.571350
C571	C57	0.100100	0.083700	0.593380
C581	C58	0.662800	0.333560	0.335610
C591	C59	0.819400	0.172600	0.440140
C601	C60	0.135200	0.199250	0.541340
C611	C61	0.657200	0.056500	0.171730
C621	C62	0.336200	0.039230	0.065890
C631	C63	0.639500	0.351800	0.874490
C641	C64	0.708300	0.185500	0.852760
C651	C65	0.672600	0.256700	0.886040
C661	C66	0.672200	0.231000	0.928650
C671	C67	0.600100	0.416300	0.906620
C681	C68	0.162800	0.166440	0.164390
C691	C69	0.319400	0.327400	0.059860
C701	C70	0.635200	0.300750	0.958660
C711	C71	0.842800	0.556500	0.828270
C721	C72	0.163800	0.539230	0.934110
C731	C73	0.860500	0.851800	0.125510
C741	C74	0.791700	0.685500	0.147240
C751	C75	0.827400	0.756700	0.113960
C761	C76	0.827800	0.731000	0.071350
C771	C77	0.899900	0.916300	0.093380
C781	C78	0.337200	0.666440	0.835610
C791	C79	0.180600	0.827400	0.940140
C801	C80	0.864800	0.800750	0.041340
N11	N1	0.750800	0.055600	0.299840
N21	N2	0.370200	0.378950	0.465710
N31	N3	0.736700	0.130900	0.673490
N41	N4	0.596800	0.392470	0.551810
N51	N5	0.235300	0.027690	0.460670
N61	N6	0.120900	0.130050	0.304600
N71	N7	0.749200	0.555600	0.700160
N81	N8	0.129800	0.878950	0.534290
N91	N9	0.763300	0.630900	0.326510
N101	N10	0.903200	0.892470	0.448190
N111	N11	0.264700	0.527690	0.539330
N121	N12	0.379100	0.630050	0.695400
N131	N13	0.249200	0.944400	0.799840
N141	N14	0.629800	0.621050	0.965710
N151	N15	0.263300	0.869100	0.173490
N161	N16	0.403200	0.607530	0.051810
N171	N17	0.764700	0.972310	0.960670
N181	N18	0.879100	0.869950	0.804600
N191	N19	0.250800	0.444400	0.200160
N201	N20	0.870200	0.121050	0.034290
N211	N21	0.236700	0.369100	0.826510
N221	N22	0.096800	0.107530	0.948190
N231	N23	0.735300	0.472310	0.039330
N241	N24	0.620900	0.369950	0.195400
N251	N25	0.249200	0.944400	0.700160
N261	N26	0.629800	0.621050	0.534290
N271	N27	0.263300	0.869100	0.326510
N281	N28	0.403200	0.607530	0.448190
N291	N29	0.764700	0.972310	0.539330
N301	N30	0.879100	0.869950	0.695400
N311	N31	0.250800	0.444400	0.299840
N321	N32	0.870200	0.121050	0.465710
N331	N33	0.236700	0.369100	0.673490
N341	N34	0.096800	0.107530	0.551810
N351	N35	0.735300	0.472310	0.460670
N361	N36	0.620900	0.369950	0.304600
N371	N37	0.750800	0.055600	0.200160
N381	N38	0.370200	0.378950	0.034290
N391	N39	0.736700	0.130900	0.826510
N401	N40	0.596800	0.392470	0.948190
N411	N41	0.235300	0.027690	0.039330
N421	N42	0.120900	0.130050	0.195400
N431	N43	0.749200	0.555600	0.799840
N441	N44	0.129800	0.878950	0.965710
N451	N45	0.763300	0.630900	0.173490
N461	N46	0.903200	0.892470	0.051810
N471	N47	0.264700	0.527690	0.960670
N481	N48	0.379100	0.630050	0.804600
