data_SIVQAR_clean_PM
_symmetry_space_group_name_H-M	'P1'
_cell_length_a	10.390000
_cell_length_b	12.295000
_cell_length_c	12.497000
_cell_angle_alpha	79.310000
_cell_angle_beta	68.200000
_cell_angle_gamma	69.580000
_symmetry_Int_Tables_number 1

loop_
_symmetry_equiv_pos_as_xyz
'x,y,z'

loop_
_atom_site_label
_atom_site_type_symbol
_atom_site_fract_x
_atom_site_fract_y
_atom_site_fract_z
Cd11	Cd1	0.400380	0.696320	0.021580
Cd21	Cd2	0.048690	0.527070	0.814380
S11	S1	0.735200	0.514930	0.004920
O11	O1	0.383500	0.876600	0.064500
O21	O2	0.190700	0.867900	0.040700
O31	O3	0.826600	0.504300	0.069000
O41	O4	0.668700	0.422100	0.042300
O51	O5	0.821100	0.508500	0.884500
O61	O6	0.629700	0.628900	0.026800
O71	O7	0.029500	0.578500	0.630200
O81	O8	0.247000	0.541500	0.638100
N11	N1	0.317300	0.641500	0.216700
N21	N2	0.049200	0.280300	0.142600
C11	C1	0.159500	0.568900	0.584100
C21	C2	0.216800	0.593800	0.453800
C31	C3	0.122100	0.625100	0.390000
H11	H1	0.024600	0.629300	0.425300
C41	C4	0.178800	0.649500	0.273000
H21	H2	0.115500	0.673200	0.230700
C51	C5	0.407400	0.610600	0.279600
H31	H3	0.505000	0.605200	0.241800
C61	C6	0.361100	0.586700	0.396800
H41	H4	0.426100	0.566000	0.437400
C71	C7	0.258500	0.922000	0.063200
C81	C8	0.183400	0.047400	0.089600
C91	C9	0.045700	0.107500	0.082500
H51	H5	0.995600	0.070400	0.061100
C101	C10	0.250300	0.108600	0.123600
H61	H6	0.342600	0.071800	0.129300
C111	C11	0.984300	0.223100	0.107600
H71	H7	0.893700	0.263300	0.100000
C121	C12	0.180700	0.223300	0.148800
H81	H8	0.228000	0.262400	0.171200
Cd31	Cd3	0.599620	0.303680	0.978420
Cd41	Cd4	0.951310	0.472930	0.185620
S21	S2	0.264800	0.485070	0.995080
O91	O9	0.616500	0.123400	0.935500
O101	O10	0.809300	0.132100	0.959300
O111	O11	0.173400	0.495700	0.931000
O121	O12	0.331300	0.577900	0.957700
O131	O13	0.178900	0.491500	0.115500
O141	O14	0.370300	0.371100	0.973200
O151	O15	0.970500	0.421500	0.369800
O161	O16	0.753000	0.458500	0.361900
N31	N3	0.682700	0.358500	0.783300
N41	N4	0.950800	0.719700	0.857400
C131	C13	0.840500	0.431100	0.415900
C141	C14	0.783200	0.406200	0.546200
C151	C15	0.877900	0.374900	0.610000
H91	H9	0.975400	0.370700	0.574700
C161	C16	0.821200	0.350500	0.727000
H101	H10	0.884500	0.326800	0.769300
C171	C17	0.592600	0.389400	0.720400
H111	H11	0.495000	0.394800	0.758200
C181	C18	0.638900	0.413300	0.603200
H121	H12	0.573900	0.434000	0.562600
C191	C19	0.741500	0.078000	0.936800
C201	C20	0.816600	0.952600	0.910400
C211	C21	0.954300	0.892500	0.917500
H131	H13	0.004400	0.929600	0.938900
C221	C22	0.749700	0.891400	0.876400
H141	H14	0.657400	0.928200	0.870700
C231	C23	0.015700	0.776900	0.892400
H151	H15	0.106300	0.736700	0.900000
C241	C24	0.819300	0.776700	0.851200
H161	H16	0.772000	0.737600	0.828800
