data_SIVSOH_clean_PM
_symmetry_space_group_name_H-M	'P1'
_cell_length_a	13.328200
_cell_length_b	13.328200
_cell_length_c	13.050100
_cell_angle_alpha	90.000000
_cell_angle_beta	90.000000
_cell_angle_gamma	120.000000
_symmetry_Int_Tables_number 1

loop_
_symmetry_equiv_pos_as_xyz
'x,y,z'

loop_
_atom_site_label
_atom_site_type_symbol
_atom_site_fract_x
_atom_site_fract_y
_atom_site_fract_z
N11	N1	0.074300	0.648800	0.552100
N21	N2	0.182700	0.637700	0.673200
C11	C1	0.180400	0.670200	0.578900
H11	H1	0.244500	0.704100	0.535800
N31	N3	0.517700	0.211200	0.364200
C21	C2	0.004600	0.598900	0.634600
H21	H2	0.926000	0.574100	0.639300
N41	N4	0.343400	0.082300	0.414400
C31	C3	0.039400	0.672200	0.452000
H31	H3	0.957100	0.619600	0.442800
H41	H4	0.079800	0.655900	0.398600
C41	C4	0.071400	0.592600	0.707500
H51	H5	0.045800	0.562000	0.772600
C51	C5	0.522000	0.179800	0.463900
H61	H6	0.588900	0.208900	0.503500
C61	C6	0.416000	0.101500	0.495300
H71	H7	0.395500	0.066800	0.559500
C71	C7	0.407600	0.147900	0.336900
H81	H8	0.378900	0.149100	0.272300
C81	C8	0.218500	0.000700	0.414000
H91	H9	0.181600	0.022700	0.466500
H101	H10	0.186400	0.004000	0.348200
C91	C9	0.063100	0.792600	0.439400
H111	H11	0.030000	0.812400	0.496700
H121	H12	0.025900	0.797700	0.377200
C101	C10	0.193700	0.880100	0.433400
H131	H13	0.227600	0.857200	0.378900
H141	H14	0.230000	0.878300	0.497300
N51	N5	0.351200	0.425500	0.552100
N61	N6	0.362300	0.545000	0.673200
C111	C11	0.329800	0.510200	0.578900
H151	H15	0.295900	0.540400	0.535800
N71	N7	0.788800	0.306500	0.364200
C121	C12	0.401100	0.405700	0.634600
H161	H16	0.425900	0.351900	0.639300
N81	N8	0.917700	0.261100	0.414400
C131	C13	0.327800	0.367200	0.452000
H171	H17	0.380400	0.337500	0.442800
H181	H18	0.344100	0.423900	0.398600
C141	C14	0.407400	0.478800	0.707500
H191	H19	0.438000	0.483800	0.772600
C151	C15	0.820200	0.342200	0.463900
H201	H20	0.791100	0.380000	0.503500
C161	C16	0.898500	0.314500	0.495300
H211	H21	0.933200	0.328700	0.559500
C171	C17	0.852100	0.259700	0.336900
H221	H22	0.850900	0.229800	0.272300
C181	C18	0.999300	0.217800	0.414000
H231	H23	0.977300	0.158900	0.466500
H241	H24	0.996000	0.182400	0.348200
C191	C19	0.207400	0.270500	0.439400
H251	H25	0.187600	0.217600	0.496700
H261	H26	0.202300	0.228200	0.377200
C201	C20	0.119900	0.313600	0.433400
H271	H27	0.142800	0.370400	0.378900
H281	H28	0.121700	0.351700	0.497300
N91	N9	0.574500	0.925700	0.552100
N101	N10	0.455000	0.817300	0.673200
C211	C21	0.489800	0.819600	0.578900
H291	H29	0.459600	0.755500	0.535800
N111	N11	0.693500	0.482300	0.364200
C221	C22	0.594300	0.995400	0.634600
H301	H30	0.648100	0.074000	0.639300
N121	N12	0.738900	0.656600	0.414400
C231	C23	0.632800	0.960600	0.452000
H311	H31	0.662500	0.042900	0.442800
H321	H32	0.576100	0.920200	0.398600
C241	C24	0.521200	0.928600	0.707500
H331	H33	0.516200	0.954200	0.772600
C251	C25	0.657800	0.478000	0.463900
H341	H34	0.620000	0.411100	0.503500
C261	C26	0.685500	0.584000	0.495300
H351	H35	0.671300	0.604500	0.559500
C271	C27	0.740300	0.592400	0.336900
H361	H36	0.770200	0.621100	0.272300
C281	C28	0.782200	0.781500	0.414000
H371	H37	0.841100	0.818400	0.466500
H381	H38	0.817600	0.813600	0.348200
C291	C29	0.729500	0.936900	0.439400
H391	H39	0.782400	0.970000	0.496700
H401	H40	0.771800	0.974100	0.377200
C301	C30	0.686400	0.806300	0.433400
H411	H41	0.629600	0.772400	0.378900
H421	H42	0.648300	0.770000	0.497300
N131	N13	0.648800	0.074300	0.052100
N141	N14	0.637700	0.182700	0.173200
C311	C31	0.670200	0.180400	0.078900
H431	H43	0.704100	0.244500	0.035800
N151	N15	0.211200	0.517700	0.864200
C321	C32	0.598900	0.004600	0.134600
H441	H44	0.574100	0.926000	0.139300
N161	N16	0.082300	0.343400	0.914400
C331	C33	0.672200	0.039400	0.952000
H451	H45	0.619600	0.957100	0.942800
H461	H46	0.655900	0.079800	0.898600
C341	C34	0.592600	0.071400	0.207500
H471	H47	0.562000	0.045800	0.272600
C351	C35	0.179800	0.522000	0.963900
H481	H48	0.208900	0.588900	0.003500
C361	C36	0.101500	0.416000	0.995300
H491	H49	0.066800	0.395500	0.059500
C371	C37	0.147900	0.407600	0.836900
H501	H50	0.149100	0.378900	0.772300
C381	C38	0.000700	0.218500	0.914000
H511	H51	0.022700	0.181600	0.966500
H521	H52	0.004000	0.186400	0.848200
C391	C39	0.792600	0.063100	0.939400
H531	H53	0.812400	0.030000	0.996700
H541	H54	0.797700	0.025900	0.877200
C401	C40	0.880100	0.193700	0.933400
H551	H55	0.857200	0.227600	0.878900
H561	H56	0.878300	0.230000	0.997300
N171	N17	0.425500	0.351200	0.052100
N181	N18	0.545000	0.362300	0.173200
C411	C41	0.510200	0.329800	0.078900
H571	H57	0.540400	0.295900	0.035800
N191	N19	0.306500	0.788800	0.864200
C421	C42	0.405700	0.401100	0.134600
H581	H58	0.351900	0.425900	0.139300
N201	N20	0.261100	0.917700	0.914400
C431	C43	0.367200	0.327800	0.952000
H591	H59	0.337500	0.380400	0.942800
H601	H60	0.423900	0.344100	0.898600
C441	C44	0.478800	0.407400	0.207500
H611	H61	0.483800	0.438000	0.272600
C451	C45	0.342200	0.820200	0.963900
H621	H62	0.380000	0.791100	0.003500
C461	C46	0.314500	0.898500	0.995300
H631	H63	0.328700	0.933200	0.059500
C471	C47	0.259700	0.852100	0.836900
H641	H64	0.229800	0.850900	0.772300
C481	C48	0.217800	0.999300	0.914000
H651	H65	0.158900	0.977300	0.966500
H661	H66	0.182400	0.996000	0.848200
C491	C49	0.270500	0.207400	0.939400
H671	H67	0.217600	0.187600	0.996700
H681	H68	0.228200	0.202300	0.877200
C501	C50	0.313600	0.119900	0.933400
H691	H69	0.370400	0.142800	0.878900
H701	H70	0.351700	0.121700	0.997300
N211	N21	0.925700	0.574500	0.052100
N221	N22	0.817300	0.455000	0.173200
C511	C51	0.819600	0.489800	0.078900
H711	H71	0.755500	0.459600	0.035800
N231	N23	0.482300	0.693500	0.864200
C521	C52	0.995400	0.594300	0.134600
H721	H72	0.074000	0.648100	0.139300
N241	N24	0.656600	0.738900	0.914400
C531	C53	0.960600	0.632800	0.952000
H731	H73	0.042900	0.662500	0.942800
H741	H74	0.920200	0.576100	0.898600
C541	C54	0.928600	0.521200	0.207500
H751	H75	0.954200	0.516200	0.272600
C551	C55	0.478000	0.657800	0.963900
H761	H76	0.411100	0.620000	0.003500
C561	C56	0.584000	0.685500	0.995300
H771	H77	0.604500	0.671300	0.059500
C571	C57	0.592400	0.740300	0.836900
H781	H78	0.621100	0.770200	0.772300
C581	C58	0.781500	0.782200	0.914000
H791	H79	0.818400	0.841100	0.966500
H801	H80	0.813600	0.817600	0.848200
C591	C59	0.936900	0.729500	0.939400
H811	H81	0.970000	0.782400	0.996700
H821	H82	0.974100	0.771800	0.877200
C601	C60	0.806300	0.686400	0.933400
H831	H83	0.772400	0.629600	0.878900
H841	H84	0.770000	0.648300	0.997300
Fe11	Fe1	0.333330	0.666670	0.766890
Fe21	Fe2	0.666670	0.333330	0.266890
