data_SIVWUR_clean_PM
_symmetry_space_group_name_H-M	'P1'
_cell_length_a	10.660000
_cell_length_b	12.489700
_cell_length_c	12.489700
_cell_angle_alpha	92.128100
_cell_angle_beta	92.857400
_cell_angle_gamma	92.857400
_symmetry_Int_Tables_number 1

loop_
_symmetry_equiv_pos_as_xyz
'x,y,z'

loop_
_atom_site_label
_atom_site_type_symbol
_atom_site_fract_x
_atom_site_fract_y
_atom_site_fract_z
Cd11	Cd1	0.750000	0.140520	0.859480
Cd21	Cd2	0.500000	0.000000	0.000000
Cd31	Cd3	0.250000	0.859480	0.140520
Cd41	Cd4	0.000000	0.000000	0.000000
H11	H1	0.997000	0.169600	0.436400
H21	H2	0.011800	0.098200	0.745400
H31	H3	0.508200	0.704600	0.677800
H41	H4	0.488200	0.254600	0.901800
H51	H5	0.670500	0.422900	0.113100
H61	H6	0.140600	0.882100	0.696100
H71	H7	0.303600	0.814400	0.387600
H81	H8	0.450000	0.772800	0.840200
H91	H9	0.011700	0.562100	0.085100
H101	H10	0.008200	0.677800	0.704600
H111	H11	0.550000	0.227200	0.159800
H121	H12	0.950000	0.840200	0.772800
H131	H13	0.640600	0.696100	0.882100
H141	H14	0.988300	0.437900	0.914900
H151	H15	0.511800	0.745400	0.098200
H161	H16	0.859400	0.117900	0.303900
H171	H17	0.881300	0.407900	0.093500
H181	H18	0.329500	0.577100	0.886900
H191	H19	0.497000	0.436400	0.169600
H201	H20	0.618700	0.906500	0.592100
H211	H21	0.503000	0.563600	0.830400
H221	H22	0.696400	0.185600	0.612400
H231	H23	0.382800	0.722600	0.524800
H241	H24	0.381300	0.093500	0.407900
H251	H25	0.991800	0.322200	0.295400
H261	H26	0.617200	0.277400	0.475200
H271	H27	0.882800	0.524800	0.722600
H281	H28	0.359400	0.303900	0.117900
H291	H29	0.003000	0.830400	0.563600
H301	H30	0.196400	0.612400	0.185600
H311	H31	0.788100	0.890300	0.256100
H321	H32	0.488300	0.914900	0.437900
H331	H33	0.803600	0.387600	0.814400
H341	H34	0.170500	0.113100	0.422900
H351	H35	0.118700	0.592100	0.906500
H361	H36	0.211900	0.109700	0.743900
H371	H37	0.829500	0.886900	0.577100
H381	H38	0.491800	0.295400	0.322200
H391	H39	0.511700	0.085100	0.562100
H401	H40	0.288100	0.256100	0.890300
H411	H41	0.711900	0.743900	0.109700
H421	H42	0.050000	0.159800	0.227200
H431	H43	0.117200	0.475200	0.277400
H441	H44	0.988200	0.901800	0.254600
C11	C1	0.751700	0.195100	0.405700
C21	C2	0.425600	0.090600	0.568000
C31	C3	0.574400	0.909400	0.432000
C41	C4	0.214300	0.845700	0.692700
C51	C5	0.331800	0.504700	0.175900
C61	C6	0.538700	0.921000	0.234000
C71	C7	0.777800	0.891100	0.515300
C81	C8	0.958300	0.160400	0.500800
C91	C9	0.152200	0.524700	0.902900
C101	C10	0.752800	0.123000	0.107400
C111	C11	0.831000	0.885500	0.415100
C121	C12	0.246200	0.106200	0.677000
C131	C13	0.458300	0.500800	0.160400
C141	C14	0.747200	0.892600	0.877000
C151	C15	0.253800	0.323000	0.893800
C161	C16	0.858900	0.590100	0.751300
C171	C17	0.713400	0.166400	0.213800
C181	C18	0.714300	0.692700	0.845700
C191	C19	0.961300	0.766000	0.079000
C201	C20	0.124400	0.330100	0.907700
C211	C21	0.669000	0.584900	0.114500
C221	C22	0.041700	0.839600	0.499200
C231	C23	0.031900	0.878600	0.315000
C241	C24	0.785700	0.154300	0.307300
C251	C25	0.652200	0.902900	0.524700
C261	C26	0.222200	0.108900	0.484700
C271	C27	0.601200	0.219400	0.221200
C281	C28	0.433700	0.739900	0.681700
C291	C29	0.251700	0.405700	0.195100
C301	C30	0.141100	0.409900	0.248700
C311	C31	0.933700	0.681700	0.739900
C321	C32	0.277800	0.515300	0.891100
C331	C33	0.468100	0.685000	0.121400
C341	C34	0.358900	0.751300	0.590100
C351	C35	0.347800	0.097100	0.475300
C361	C36	0.719700	0.394100	0.829700
C371	C37	0.566300	0.260100	0.318300
C381	C38	0.280300	0.605900	0.170300
C391	C39	0.168200	0.824100	0.495300
C401	C40	0.968100	0.121400	0.685000
C411	C41	0.375600	0.092300	0.669900
C421	C42	0.530700	0.590600	0.131200
C431	C43	0.219700	0.829700	0.394100
C441	C44	0.285700	0.307300	0.154300
C451	C45	0.169000	0.114500	0.584900
C461	C46	0.780300	0.170300	0.605900
C471	C47	0.461300	0.079000	0.766000
C481	C48	0.247200	0.877000	0.892600
C491	C49	0.898800	0.778800	0.780600
C501	C50	0.624400	0.907700	0.330100
C511	C51	0.286600	0.833600	0.786200
C521	C52	0.748300	0.594300	0.804900
C531	C53	0.831800	0.175900	0.504700
C541	C54	0.252800	0.107400	0.123000
C551	C55	0.875600	0.669900	0.092300
C561	C56	0.925600	0.568000	0.090600
C571	C57	0.248300	0.804900	0.594300
C581	C58	0.469300	0.409400	0.868800
C591	C59	0.541700	0.499200	0.839600
C601	C60	0.030700	0.131200	0.590600
C611	C61	0.066300	0.318300	0.260100
C621	C62	0.398800	0.780600	0.778800
C631	C63	0.668200	0.495300	0.824100
C641	C64	0.722200	0.484700	0.108900
C651	C65	0.786600	0.786200	0.833600
C661	C66	0.969300	0.868800	0.409400
C671	C67	0.213400	0.213800	0.166400
C681	C68	0.101200	0.221200	0.219400
C691	C69	0.641100	0.248700	0.409900
C701	C70	0.074400	0.432000	0.909400
C711	C71	0.753800	0.893800	0.323000
C721	C72	0.531900	0.315000	0.878600
C731	C73	0.038700	0.234000	0.921000
C741	C74	0.331000	0.415100	0.885500
C751	C75	0.746200	0.677000	0.106200
C761	C76	0.847800	0.475300	0.097100
N11	N1	0.153000	0.855900	0.307700
N21	N2	0.347000	0.692300	0.144100
N31	N3	0.847000	0.144100	0.692300
N41	N4	0.653000	0.307700	0.855900
O11	O1	0.826100	0.972400	0.872200
O21	O2	0.589300	0.931300	0.145100
O31	O3	0.860300	0.088100	0.105100
O41	O4	0.422700	0.918900	0.246500
O51	O5	0.077300	0.753500	0.081100
O61	O6	0.910700	0.854900	0.068700
O71	O7	0.922700	0.246500	0.918900
O81	O8	0.360300	0.105100	0.088100
O91	O9	0.410700	0.068700	0.854900
O101	O10	0.639700	0.894900	0.911900
O111	O11	0.577300	0.081100	0.753500
O121	O12	0.173900	0.027600	0.127800
O131	O13	0.139700	0.911900	0.894900
O141	O14	0.326100	0.872200	0.972400
O151	O15	0.673900	0.127800	0.027600
O161	O16	0.089300	0.145100	0.931300
