data_SIWPUL11_clean_PM
_symmetry_space_group_name_H-M	'P1'
_cell_length_a	16.137000
_cell_length_b	7.605000
_cell_length_c	16.140000
_cell_angle_alpha	90.000000
_cell_angle_beta	119.984000
_cell_angle_gamma	90.000000
_symmetry_Int_Tables_number 1

loop_
_symmetry_equiv_pos_as_xyz
'x,y,z'

loop_
_atom_site_label
_atom_site_type_symbol
_atom_site_fract_x
_atom_site_fract_y
_atom_site_fract_z
Mn11	Mn1	0.183120	0.376700	0.333960
Mn21	Mn2	0.334000	0.876600	0.151010
Mn31	Mn3	0.849230	0.876590	0.182890
Mn41	Mn4	0.666780	0.357220	0.333320
C11	C1	0.014500	0.612500	0.289000
H11	H1	0.996700	0.578200	0.225600
C21	C2	0.226500	0.631900	0.216900
H21	H2	0.288300	0.624600	0.272100
C31	C3	0.739700	0.602600	0.236100
H31	H3	0.796800	0.595000	0.296300
C41	C4	0.300500	0.605800	0.507500
H41	H4	0.242300	0.593100	0.508300
C51	C5	0.274200	0.611800	0.986100
H51	H5	0.229100	0.577300	0.004300
C61	C6	0.495700	0.603700	0.260400
H61	H6	0.497600	0.594100	0.202600
C71	C7	0.011700	0.131500	0.227900
H71	H7	0.020000	0.121900	0.290300
C81	C8	0.793800	0.105500	0.298800
H81	H8	0.735700	0.095000	0.239700
C91	C9	0.782900	0.630000	0.010500
H91	H9	0.728800	0.618100	0.018700
C101	C10	0.506700	0.105700	0.207400
H101	H10	0.506900	0.094200	0.266100
C111	C11	0.765400	0.603200	0.505700
H111	H11	0.706300	0.592500	0.504800
C121	C12	0.288800	0.112700	0.274000
H121	H12	0.225300	0.079500	0.228000
O11	O1	0.218500	0.724000	0.148200
O21	O2	0.082000	0.530600	0.356300
O31	O3	0.739800	0.705700	0.175200
O41	O4	0.968400	0.736600	0.298900
O51	O5	0.671800	0.510300	0.224300
O61	O6	0.161400	0.550700	0.218800
O71	O7	0.070400	0.223800	0.218400
O81	O8	0.776000	0.511500	0.447800
O91	O9	0.864500	0.021800	0.307300
O101	O10	0.569200	0.203700	0.206900
O111	O11	0.356200	0.030800	0.274600
O121	O12	0.307200	0.522400	0.443200
O131	O13	0.852000	0.724000	0.070200
O141	O14	0.330700	0.736800	0.031200
O151	O15	0.274600	0.530900	0.918500
O161	O16	0.792800	0.202900	0.361900
O171	O17	0.443400	0.021100	0.136200
O181	O18	0.552700	0.512100	0.328100
O191	O19	0.942600	0.050200	0.161600
O201	O20	0.781300	0.553100	0.942300
O211	O21	0.362000	0.702100	0.569200
O221	O22	0.824500	0.706500	0.564200
O231	O23	0.436000	0.707500	0.260300
O241	O24	0.299400	0.236700	0.330500
Mn51	Mn5	0.816880	0.876700	0.666040
Mn61	Mn6	0.666000	0.376600	0.848990
Mn71	Mn7	0.150770	0.376590	0.817110
Mn81	Mn8	0.333220	0.857220	0.666680
C131	C13	0.985500	0.112500	0.711000
H131	H13	0.003300	0.078200	0.774400
C141	C14	0.773500	0.131900	0.783100
H141	H14	0.711700	0.124600	0.727900
C151	C15	0.260300	0.102600	0.763900
H151	H15	0.203200	0.095000	0.703700
C161	C16	0.699500	0.105800	0.492500
H161	H16	0.757700	0.093100	0.491700
C171	C17	0.725800	0.111800	0.013900
H171	H17	0.770900	0.077300	0.995700
C181	C18	0.504300	0.103700	0.739600
H181	H18	0.502400	0.094100	0.797400
C191	C19	0.988300	0.631500	0.772100
H191	H19	0.980000	0.621900	0.709700
C201	C20	0.206200	0.605500	0.701200
H201	H20	0.264300	0.595000	0.760300
C211	C21	0.217100	0.130000	0.989500
H211	H21	0.271200	0.118100	0.981300
C221	C22	0.493300	0.605700	0.792600
H221	H22	0.493100	0.594200	0.733900
C231	C23	0.234600	0.103200	0.494300
H231	H23	0.293700	0.092500	0.495200
C241	C24	0.711200	0.612700	0.726000
H241	H24	0.774700	0.579500	0.772000
O251	O25	0.781500	0.224000	0.851800
O261	O26	0.918000	0.030600	0.643700
O271	O27	0.260200	0.205700	0.824800
O281	O28	0.031600	0.236600	0.701100
O291	O29	0.328200	0.010300	0.775700
O301	O30	0.838600	0.050700	0.781200
O311	O31	0.929600	0.723800	0.781600
O321	O32	0.224000	0.011500	0.552200
O331	O33	0.135500	0.521800	0.692700
O341	O34	0.430800	0.703700	0.793100
O351	O35	0.643800	0.530800	0.725400
O361	O36	0.692800	0.022400	0.556800
O371	O37	0.148000	0.224000	0.929800
O381	O38	0.669300	0.236800	0.968800
O391	O39	0.725400	0.030900	0.081500
O401	O40	0.207200	0.702900	0.638100
O411	O41	0.556600	0.521100	0.863800
O421	O42	0.447300	0.012100	0.671900
O431	O43	0.057400	0.550200	0.838400
O441	O44	0.218700	0.053100	0.057700
O451	O45	0.638000	0.202100	0.430800
O461	O46	0.175500	0.206500	0.435800
O471	O47	0.564000	0.207500	0.739700
O481	O48	0.700600	0.736700	0.669500
