data_SIWSUO_clean_PM
_symmetry_space_group_name_H-M	'P1'
_cell_length_a	9.429300
_cell_length_b	10.225900
_cell_length_c	17.153300
_cell_angle_alpha	91.634000
_cell_angle_beta	99.933000
_cell_angle_gamma	93.062000
_symmetry_Int_Tables_number 1

loop_
_symmetry_equiv_pos_as_xyz
'x,y,z'

loop_
_atom_site_label
_atom_site_type_symbol
_atom_site_fract_x
_atom_site_fract_y
_atom_site_fract_z
Co11	Co1	0.802480	0.178900	0.708490
Co21	Co2	0.821720	0.392790	0.868780
C11	C1	0.729400	0.580700	0.644000
C21	C2	0.744500	0.709900	0.675300
H11	H1	0.770400	0.726600	0.729600
C31	C3	0.720400	0.812200	0.624400
C41	C4	0.684100	0.788300	0.543100
H21	H2	0.666400	0.857300	0.509300
C51	C5	0.674500	0.659600	0.513000
C61	C6	0.695100	0.556900	0.563100
H31	H3	0.686000	0.471300	0.542300
C71	C7	0.761600	0.470400	0.699300
C81	C8	0.744600	0.950800	0.657400
C91	C9	0.650100	0.718500	0.377000
H41	H4	0.588700	0.787600	0.387500
H51	H5	0.611000	0.679300	0.325000
C101	C10	0.966400	0.913700	0.390800
H61	H6	0.023600	0.990300	0.405500
C111	C11	0.901400	0.726900	0.344700
H71	H7	0.896900	0.643700	0.320700
C121	C12	0.173200	0.200200	0.831800
C131	C13	0.311800	0.251000	0.832600
H81	H8	0.335700	0.339800	0.843800
C141	C14	0.415800	0.166800	0.816300
C151	C15	0.379800	0.034700	0.803000
H91	H9	0.448200	0.979300	0.790300
C161	C16	0.244400	0.983700	0.808300
C171	C17	0.138200	0.067300	0.819700
H101	H10	0.044200	0.034400	0.819200
C181	C18	0.054600	0.288000	0.842200
C191	C19	0.566900	0.219200	0.810000
C201	C20	0.096900	0.785000	0.818500
H111	H11	0.083700	0.697200	0.794500
H121	H12	0.013800	0.832800	0.796900
C211	C21	0.112900	0.840300	0.020300
H131	H13	0.111400	0.893100	0.065100
C221	C22	0.135300	0.677800	0.950800
H141	H14	0.150500	0.594000	0.932800
N11	N1	0.794900	0.775900	0.376000
N21	N2	0.835800	0.898700	0.406200
N31	N3	0.014500	0.811200	0.352100
N41	N4	0.105900	0.777700	0.903800
N51	N5	0.088700	0.885800	0.949000
N61	N6	0.140200	0.711600	0.025100
O11	O1	0.745700	0.356500	0.668860
O21	O2	0.803300	0.500900	0.771400
O31	O3	0.823200	0.972000	0.724060
O41	O4	0.692700	0.043000	0.616600
O51	O5	0.646700	0.622900	0.433780
O61	O6	0.925800	0.245300	0.817230
O71	O7	0.081800	0.397100	0.876700
O81	O8	0.611700	0.324900	0.847500
O91	O9	0.631700	0.152900	0.768500
O101	O10	0.223300	0.848400	0.799300
Co31	Co3	0.197520	0.821100	0.291510
Co41	Co4	0.178280	0.607210	0.131220
C231	C23	0.270600	0.419300	0.356000
C241	C24	0.255500	0.290100	0.324700
H151	H15	0.229600	0.273400	0.270400
C251	C25	0.279600	0.187800	0.375600
C261	C26	0.315900	0.211700	0.456900
H161	H16	0.333600	0.142700	0.490700
C271	C27	0.325500	0.340400	0.487000
C281	C28	0.304900	0.443100	0.436900
H171	H17	0.314000	0.528700	0.457700
C291	C29	0.238400	0.529600	0.300700
C301	C30	0.255400	0.049200	0.342600
C311	C31	0.349900	0.281500	0.623000
H181	H18	0.411300	0.212400	0.612500
H191	H19	0.389000	0.320700	0.675000
C321	C32	0.033600	0.086300	0.609200
H201	H20	0.976400	0.009700	0.594500
C331	C33	0.098600	0.273100	0.655300
H211	H21	0.103100	0.356300	0.679300
C341	C34	0.826800	0.799800	0.168200
C351	C35	0.688200	0.749000	0.167400
H221	H22	0.664300	0.660200	0.156200
C361	C36	0.584200	0.833200	0.183700
C371	C37	0.620200	0.965300	0.197000
H231	H23	0.551800	0.020700	0.209700
C381	C38	0.755600	0.016300	0.191700
C391	C39	0.861800	0.932700	0.180300
H241	H24	0.955800	0.965600	0.180800
C401	C40	0.945400	0.712000	0.157800
C411	C41	0.433100	0.780800	0.190000
C421	C42	0.903100	0.215000	0.181500
H251	H25	0.916300	0.302800	0.205500
H261	H26	0.986200	0.167200	0.203100
C431	C43	0.887100	0.159700	0.979700
H271	H27	0.888600	0.106900	0.934900
C441	C44	0.864700	0.322200	0.049200
H281	H28	0.849500	0.406000	0.067200
N71	N7	0.205100	0.224100	0.624000
N81	N8	0.164200	0.101300	0.593800
N91	N9	0.985500	0.188800	0.647900
N101	N10	0.894100	0.222300	0.096200
N111	N11	0.911300	0.114200	0.051000
N121	N12	0.859800	0.288400	0.974900
O111	O11	0.254300	0.643500	0.331140
O121	O12	0.196700	0.499100	0.228600
O131	O13	0.176800	0.028000	0.275940
O141	O14	0.307300	0.957000	0.383400
O151	O15	0.353300	0.377100	0.566220
O161	O16	0.074200	0.754700	0.182770
O171	O17	0.918200	0.602900	0.123300
O181	O18	0.388300	0.675100	0.152500
O191	O19	0.368300	0.847100	0.231500
O201	O20	0.776700	0.151600	0.200700
