data_SIWTOJ_clean_PM
_symmetry_space_group_name_H-M	'P1'
_cell_length_a	8.805600
_cell_length_b	17.551600
_cell_length_c	13.919600
_cell_angle_alpha	90.000000
_cell_angle_beta	126.483000
_cell_angle_gamma	90.000000
_symmetry_Int_Tables_number 1

loop_
_symmetry_equiv_pos_as_xyz
'x,y,z'

loop_
_atom_site_label
_atom_site_type_symbol
_atom_site_fract_x
_atom_site_fract_y
_atom_site_fract_z
Cd11	Cd1	0.388510	0.547390	0.342900
C11	C1	0.533500	0.682800	0.157400
C21	C2	0.535000	0.761000	0.161500
H11	H1	0.507200	0.785900	0.208400
C31	C3	0.578000	0.803100	0.095700
C41	C4	0.612200	0.765800	0.023000
H21	H2	0.639300	0.793700	0.978000
C51	C5	0.606500	0.687600	0.016800
C61	C6	0.572000	0.645300	0.085700
H31	H3	0.574500	0.592300	0.084400
C71	C7	0.483700	0.635000	0.225700
C81	C8	0.585700	0.888500	0.101100
C91	C9	0.624800	0.576700	0.923000
H41	H4	0.612400	0.563400	0.851000
H51	H5	0.514900	0.557500	0.915500
C101	C10	0.963900	0.469900	0.170200
H61	H6	0.003500	0.431300	0.226200
C111	C11	0.972700	0.562200	0.082700
H71	H7	0.013200	0.603100	0.060900
N11	N1	0.794300	0.542200	0.025900
N21	N2	0.783900	0.481500	0.082100
N31	N3	0.085500	0.517600	0.173200
O11	O1	0.537700	0.568000	0.249500
O21	O2	0.389000	0.664800	0.254600
O31	O3	0.559600	0.921200	0.169700
O41	O4	0.623600	0.925080	0.039700
O51	O5	0.634800	0.656370	0.936700
Cd21	Cd2	0.611490	0.047390	0.157100
C121	C12	0.466500	0.182800	0.342600
C131	C13	0.465000	0.261000	0.338500
H81	H8	0.492800	0.285900	0.291600
C141	C14	0.422000	0.303100	0.404300
C151	C15	0.387800	0.265800	0.477000
H91	H9	0.360700	0.293700	0.522000
C161	C16	0.393500	0.187600	0.483200
C171	C17	0.428000	0.145300	0.414300
H101	H10	0.425500	0.092300	0.415600
C181	C18	0.516300	0.135000	0.274300
C191	C19	0.414300	0.388500	0.398900
C201	C20	0.375200	0.076700	0.577000
H111	H11	0.387600	0.063400	0.649000
H121	H12	0.485100	0.057500	0.584500
C211	C21	0.036100	0.969900	0.329800
H131	H13	0.996500	0.931300	0.273800
C221	C22	0.027300	0.062200	0.417300
H141	H14	0.986800	0.103100	0.439100
N41	N4	0.205700	0.042200	0.474100
N51	N5	0.216100	0.981500	0.417900
N61	N6	0.914500	0.017600	0.326800
O61	O6	0.462300	0.068000	0.250500
O71	O7	0.611000	0.164800	0.245400
O81	O8	0.440400	0.421200	0.330300
O91	O9	0.376400	0.425080	0.460300
O101	O10	0.365200	0.156370	0.563300
Cd31	Cd3	0.611490	0.452610	0.657100
C231	C23	0.466500	0.317200	0.842600
C241	C24	0.465000	0.239000	0.838500
H151	H15	0.492800	0.214100	0.791600
C251	C25	0.422000	0.196900	0.904300
C261	C26	0.387800	0.234200	0.977000
H161	H16	0.360700	0.206300	0.022000
C271	C27	0.393500	0.312400	0.983200
C281	C28	0.428000	0.354700	0.914300
H171	H17	0.425500	0.407700	0.915600
C291	C29	0.516300	0.365000	0.774300
C301	C30	0.414300	0.111500	0.898900
C311	C31	0.375200	0.423300	0.077000
H181	H18	0.387600	0.436600	0.149000
H191	H19	0.485100	0.442500	0.084500
C321	C32	0.036100	0.530100	0.829800
H201	H20	0.996500	0.568700	0.773800
C331	C33	0.027300	0.437800	0.917300
H211	H21	0.986800	0.396900	0.939100
N71	N7	0.205700	0.457800	0.974100
N81	N8	0.216100	0.518500	0.917900
N91	N9	0.914500	0.482400	0.826800
O111	O11	0.462300	0.432000	0.750500
O121	O12	0.611000	0.335200	0.745400
O131	O13	0.440400	0.078800	0.830300
O141	O14	0.376400	0.074920	0.960300
O151	O15	0.365200	0.343630	0.063300
Cd41	Cd4	0.388510	0.952610	0.842900
C341	C34	0.533500	0.817200	0.657400
C351	C35	0.535000	0.739000	0.661500
H221	H22	0.507200	0.714100	0.708400
C361	C36	0.578000	0.696900	0.595700
C371	C37	0.612200	0.734200	0.523000
H231	H23	0.639300	0.706300	0.478000
C381	C38	0.606500	0.812400	0.516800
C391	C39	0.572000	0.854700	0.585700
H241	H24	0.574500	0.907700	0.584400
C401	C40	0.483700	0.865000	0.725700
C411	C41	0.585700	0.611500	0.601100
C421	C42	0.624800	0.923300	0.423000
H251	H25	0.612400	0.936600	0.351000
H261	H26	0.514900	0.942500	0.415500
C431	C43	0.963900	0.030100	0.670200
H271	H27	0.003500	0.068700	0.726200
C441	C44	0.972700	0.937800	0.582700
H281	H28	0.013200	0.896900	0.560900
N101	N10	0.794300	0.957800	0.525900
N111	N11	0.783900	0.018500	0.582100
N121	N12	0.085500	0.982400	0.673200
O161	O16	0.537700	0.932000	0.749500
O171	O17	0.389000	0.835200	0.754600
O181	O18	0.559600	0.578800	0.669700
O191	O19	0.623600	0.574920	0.539700
O201	O20	0.634800	0.843630	0.436700
