data_SIWTEZ_clean_PM
_symmetry_space_group_name_H-M	'P1'
_cell_length_a	11.078800
_cell_length_b	12.696500
_cell_length_c	12.787900
_cell_angle_alpha	65.776000
_cell_angle_beta	86.620000
_cell_angle_gamma	83.387000
_symmetry_Int_Tables_number 1

loop_
_symmetry_equiv_pos_as_xyz
'x,y,z'

loop_
_atom_site_label
_atom_site_type_symbol
_atom_site_fract_x
_atom_site_fract_y
_atom_site_fract_z
Co11	Co1	0.750450	0.115330	0.051590
Co21	Co2	0.102160	0.818730	0.231370
C11	C1	0.023900	0.091100	0.295700
C21	C2	0.947800	0.136300	0.360700
H11	H1	0.865500	0.155300	0.344000
C31	C3	0.993900	0.153300	0.450300
C41	C4	0.116700	0.125000	0.474400
H21	H2	0.148500	0.135100	0.535100
C51	C5	0.191800	0.081700	0.407800
C61	C6	0.146700	0.063600	0.319100
H31	H3	0.198000	0.033500	0.275700
C71	C7	0.970500	0.069000	0.202000
C81	C8	0.909200	0.191900	0.528300
C91	C9	0.389400	0.983100	0.402000
H41	H4	0.339500	0.932900	0.387100
H51	H5	0.446000	0.934500	0.462000
C101	C10	0.485600	0.143900	0.124300
H61	H6	0.472400	0.192300	0.047500
C111	C11	0.575700	0.037600	0.276600
H71	H7	0.634500	0.994900	0.331100
C121	C12	0.510500	0.184200	0.768200
C131	C13	0.400700	0.153800	0.825200
H81	H8	0.399400	0.110300	0.904100
C141	C14	0.293700	0.188300	0.764700
C151	C15	0.294200	0.256800	0.646400
H91	H9	0.221800	0.282400	0.606200
C161	C16	0.404400	0.285700	0.590300
C171	C17	0.511700	0.249200	0.650200
H101	H10	0.585200	0.268100	0.611500
C181	C18	0.629900	0.148200	0.830500
C191	C19	0.172700	0.154900	0.822700
C201	C20	0.327800	0.359900	0.397700
H111	H11	0.284800	0.291000	0.430300
H121	H12	0.366100	0.362700	0.326600
C211	C21	0.082200	0.560600	0.378200
H131	H13	0.003900	0.582400	0.397300
C221	C22	0.249800	0.570200	0.300300
H141	H14	0.317600	0.596200	0.254300
N11	N1	0.456800	0.046900	0.298400
N21	N2	0.397800	0.115400	0.199800
N31	N3	0.598000	0.097500	0.166400
N41	N4	0.241600	0.461300	0.373400
N51	N5	0.132300	0.453800	0.425300
N61	N6	0.150900	0.636400	0.300900
O11	O1	0.039400	0.017200	0.151200
O21	O2	0.861100	0.104400	0.180100
O31	O3	0.801600	0.224000	0.501600
O41	O4	0.957800	0.182500	0.618600
O51	O5	0.314900	0.058300	0.439600
O61	O6	0.723000	0.148000	0.770600
O71	O7	0.625200	0.123000	0.936300
O81	O8	0.172300	0.063600	0.915500
O91	O9	0.081400	0.220000	0.775500
O101	O10	0.417900	0.351900	0.474000
H151	H15	0.077000	0.796000	0.050000
O111	O11	0.106300	0.848200	0.062700
Co31	Co3	0.249550	0.884670	0.948410
Co41	Co4	0.897840	0.181270	0.768630
C231	C23	0.976100	0.908900	0.704300
C241	C24	0.052200	0.863700	0.639300
H161	H16	0.134500	0.844700	0.656000
C251	C25	0.006100	0.846700	0.549700
C261	C26	0.883300	0.875000	0.525600
H171	H17	0.851500	0.864900	0.464900
C271	C27	0.808200	0.918300	0.592200
C281	C28	0.853300	0.936400	0.680900
H181	H18	0.802000	0.966500	0.724300
C291	C29	0.029500	0.931000	0.798000
C301	C30	0.090800	0.808100	0.471700
C311	C31	0.610600	0.016900	0.598000
H191	H19	0.660500	0.067100	0.612900
H201	H20	0.554000	0.065500	0.538000
C321	C32	0.514400	0.856100	0.875700
H211	H21	0.527600	0.807700	0.952500
C331	C33	0.424300	0.962400	0.723400
H221	H22	0.365500	0.005100	0.668900
C341	C34	0.489500	0.815800	0.231800
C351	C35	0.599300	0.846200	0.174800
H231	H23	0.600600	0.889700	0.095900
C361	C36	0.706300	0.811700	0.235300
C371	C37	0.705800	0.743200	0.353600
H241	H24	0.778200	0.717600	0.393800
C381	C38	0.595600	0.714300	0.409700
C391	C39	0.488300	0.750800	0.349800
H251	H25	0.414800	0.731900	0.388500
C401	C40	0.370100	0.851800	0.169500
C411	C41	0.827300	0.845100	0.177300
C421	C42	0.672200	0.640100	0.602300
H261	H26	0.715200	0.709000	0.569700
H271	H27	0.633900	0.637300	0.673400
C431	C43	0.917800	0.439400	0.621800
H281	H28	0.996100	0.417600	0.602700
C441	C44	0.750200	0.429800	0.699700
H291	H29	0.682400	0.403800	0.745700
N71	N7	0.543200	0.953100	0.701600
N81	N8	0.602200	0.884600	0.800200
N91	N9	0.402000	0.902500	0.833600
N101	N10	0.758400	0.538700	0.626600
N111	N11	0.867700	0.546200	0.574700
N121	N12	0.849100	0.363600	0.699100
O121	O12	0.960600	0.982800	0.848800
O131	O13	0.138900	0.895600	0.819900
O141	O14	0.198400	0.776000	0.498400
O151	O15	0.042200	0.817500	0.381400
O161	O16	0.685100	0.941700	0.560400
O171	O17	0.277000	0.852000	0.229400
O181	O18	0.374800	0.877000	0.063700
O191	O19	0.827700	0.936400	0.084500
O201	O20	0.918600	0.780000	0.224500
O211	O21	0.582100	0.648100	0.526000
H301	H30	0.923000	0.204000	0.950000
O221	O22	0.893700	0.151800	0.937300
Co51	Co5	0.000000	0.000000	0.000000
