data_SIWZOP02_clean_PM
_symmetry_space_group_name_H-M	'P1'
_cell_length_a	7.888800
_cell_length_b	13.779900
_cell_length_c	7.429500
_cell_angle_alpha	90.000000
_cell_angle_beta	90.000000
_cell_angle_gamma	90.000000
_symmetry_Int_Tables_number 1

loop_
_symmetry_equiv_pos_as_xyz
'x,y,z'

loop_
_atom_site_label
_atom_site_type_symbol
_atom_site_fract_x
_atom_site_fract_y
_atom_site_fract_z
Mg11	Mg1	0.225870	0.164610	0.258580
O11	O1	0.107630	0.269880	0.108340
O21	O2	0.932980	0.334050	0.909490
O31	O3	0.315960	0.285200	0.401690
O41	O4	0.510440	0.351450	0.579510
O51	O5	0.120160	0.048890	0.117860
O61	O6	0.133510	0.929600	0.918320
C11	C1	0.993100	0.265610	0.995800
H11	H1	0.947200	0.204600	0.973700
C21	C2	0.447000	0.283980	0.495100
H21	H2	0.503600	0.224900	0.501800
C31	C3	0.193600	0.998420	0.003000
H31	H3	0.305800	0.014300	0.978400
Mg21	Mg2	0.274130	0.835390	0.758580
O71	O7	0.392370	0.730120	0.608340
O81	O8	0.567020	0.665950	0.409490
O91	O9	0.184040	0.714800	0.901690
O101	O10	0.989560	0.648550	0.079510
O111	O11	0.379840	0.951110	0.617860
O121	O12	0.366490	0.070400	0.418320
C41	C4	0.506900	0.734390	0.495800
H41	H4	0.552800	0.795400	0.473700
C51	C5	0.053000	0.716020	0.995100
H51	H5	0.996400	0.775100	0.001800
C61	C6	0.306400	0.001580	0.503000
H61	H6	0.194200	0.985700	0.478400
Mg31	Mg3	0.774130	0.664610	0.241420
O131	O13	0.892370	0.769880	0.391660
O141	O14	0.067020	0.834050	0.590510
O151	O15	0.684040	0.785200	0.098310
O161	O16	0.489560	0.851450	0.920490
O171	O17	0.879840	0.548890	0.382140
O181	O18	0.866490	0.429600	0.581680
C71	C7	0.006900	0.765610	0.504200
H71	H7	0.052800	0.704600	0.526300
C81	C8	0.553000	0.783980	0.004900
H81	H8	0.496400	0.724900	0.998200
C91	C9	0.806400	0.498420	0.497000
H91	H9	0.694200	0.514300	0.521600
Mg41	Mg4	0.725870	0.335390	0.741420
O191	O19	0.607630	0.230120	0.891660
O201	O20	0.432980	0.165950	0.090510
O211	O21	0.815960	0.214800	0.598310
O221	O22	0.010440	0.148550	0.420490
O231	O23	0.620160	0.451110	0.882140
O241	O24	0.633510	0.570400	0.081680
C101	C10	0.493100	0.234390	0.004200
H101	H10	0.447200	0.295400	0.026300
C111	C11	0.947000	0.216020	0.504900
H111	H11	0.003600	0.275100	0.498200
C121	C12	0.693600	0.501580	0.997000
H121	H12	0.805800	0.485700	0.021600
