data_SIZGIS_clean_PM
_symmetry_space_group_name_H-M	'P1'
_cell_length_a	12.613900
_cell_length_b	15.700500
_cell_length_c	16.647300
_cell_angle_alpha	90.000000
_cell_angle_beta	90.000000
_cell_angle_gamma	90.000000
_symmetry_Int_Tables_number 1

loop_
_symmetry_equiv_pos_as_xyz
'x,y,z'

loop_
_atom_site_label
_atom_site_type_symbol
_atom_site_fract_x
_atom_site_fract_y
_atom_site_fract_z
Cd11	Cd1	0.899420	0.003860	0.581150
C11	C1	0.903380	0.263580	0.909280
C21	C2	0.803880	0.089800	0.866930
H11	H1	0.774200	0.036500	0.857800
O11	O1	0.908170	0.135070	0.676190
O21	O2	0.973770	0.375380	0.003140
O31	O3	0.996080	0.402380	0.873390
C31	C3	0.859540	0.132970	0.811250
C41	C4	0.960790	0.354240	0.930980
C51	C5	0.867540	0.084010	0.729090
O41	O4	0.706770	0.142320	0.058720
C61	C6	0.845760	0.220310	0.964080
H21	H2	0.836900	0.242700	0.015400
C71	C7	0.907880	0.219180	0.832670
H31	H3	0.944700	0.246600	0.791800
C81	C8	0.795020	0.135100	0.942690
C91	C9	0.729280	0.089980	0.999740
O51	O5	0.834680	0.997310	0.714990
O61	O6	0.696550	0.003150	0.982890
Cd21	Cd2	0.600580	0.996140	0.081150
C101	C10	0.596620	0.736420	0.409280
C111	C11	0.696120	0.910200	0.366930
H41	H4	0.725800	0.963500	0.357800
O71	O7	0.591830	0.864930	0.176190
O81	O8	0.526230	0.624620	0.503140
O91	O9	0.503920	0.597620	0.373390
C121	C12	0.640460	0.867030	0.311250
C131	C13	0.539210	0.645760	0.430980
C141	C14	0.632460	0.915990	0.229090
O101	O10	0.793230	0.857680	0.558720
C151	C15	0.654240	0.779690	0.464080
H51	H5	0.663100	0.757300	0.515400
C161	C16	0.592120	0.780820	0.332670
H61	H6	0.555300	0.753400	0.291800
C171	C17	0.704980	0.864900	0.442690
C181	C18	0.770720	0.910020	0.499740
O111	O11	0.665320	0.002690	0.214990
O121	O12	0.803450	0.996850	0.482890
Cd31	Cd3	0.100580	0.503860	0.918850
C191	C19	0.096620	0.763580	0.590720
C201	C20	0.196120	0.589800	0.633070
H71	H7	0.225800	0.536500	0.642200
O131	O13	0.091830	0.635070	0.823810
O141	O14	0.026230	0.875380	0.496860
O151	O15	0.003920	0.902380	0.626610
C211	C21	0.140460	0.632970	0.688750
C221	C22	0.039210	0.854240	0.569020
C231	C23	0.132460	0.584010	0.770910
O161	O16	0.293230	0.642320	0.441280
C241	C24	0.154240	0.720310	0.535920
H81	H8	0.163100	0.742700	0.484600
C251	C25	0.092120	0.719180	0.667330
H91	H9	0.055300	0.746600	0.708200
C261	C26	0.204980	0.635100	0.557310
C271	C27	0.270720	0.589980	0.500260
O171	O17	0.165320	0.497310	0.785010
O181	O18	0.303450	0.503150	0.517110
Cd41	Cd4	0.399420	0.496140	0.418850
C281	C28	0.403380	0.236420	0.090720
C291	C29	0.303880	0.410200	0.133070
H101	H10	0.274200	0.463500	0.142200
O191	O19	0.408170	0.364930	0.323810
O201	O20	0.473770	0.124620	0.996860
O211	O21	0.496080	0.097620	0.126610
C301	C30	0.359540	0.367030	0.188750
C311	C31	0.460790	0.145760	0.069020
C321	C32	0.367540	0.415990	0.270910
O221	O22	0.206770	0.357680	0.941280
C331	C33	0.345760	0.279690	0.035920
H111	H11	0.336900	0.257300	0.984600
C341	C34	0.407880	0.280820	0.167330
H121	H12	0.444700	0.253400	0.208200
C351	C35	0.295020	0.364900	0.057310
C361	C36	0.229280	0.410020	0.000260
O231	O23	0.334680	0.502690	0.285010
O241	O24	0.196550	0.496850	0.017110
Cd51	Cd5	0.100580	0.996140	0.418850
C371	C37	0.096620	0.736420	0.090720
C381	C38	0.196120	0.910200	0.133070
H131	H13	0.225800	0.963500	0.142200
O251	O25	0.091830	0.864930	0.323810
O261	O26	0.026230	0.624620	0.996860
O271	O27	0.003920	0.597620	0.126610
C391	C39	0.140460	0.867030	0.188750
C401	C40	0.039210	0.645760	0.069020
C411	C41	0.132460	0.915990	0.270910
O281	O28	0.293230	0.857680	0.941280
C421	C42	0.154240	0.779690	0.035920
H141	H14	0.163100	0.757300	0.984600
C431	C43	0.092120	0.780820	0.167330
H151	H15	0.055300	0.753400	0.208200
C441	C44	0.204980	0.864900	0.057310
C451	C45	0.270720	0.910020	0.000260
O291	O29	0.165320	0.002690	0.285010
O301	O30	0.303450	0.996850	0.017110
Cd61	Cd6	0.399420	0.003860	0.918850
C461	C46	0.403380	0.263580	0.590720
C471	C47	0.303880	0.089800	0.633070
H161	H16	0.274200	0.036500	0.642200
O311	O31	0.408170	0.135070	0.823810
O321	O32	0.473770	0.375380	0.496860
O331	O33	0.496080	0.402380	0.626610
C481	C48	0.359540	0.132970	0.688750
C491	C49	0.460790	0.354240	0.569020
C501	C50	0.367540	0.084010	0.770910
O341	O34	0.206770	0.142320	0.441280
C511	C51	0.345760	0.220310	0.535920
H171	H17	0.336900	0.242700	0.484600
C521	C52	0.407880	0.219180	0.667330
H181	H18	0.444700	0.246600	0.708200
C531	C53	0.295020	0.135100	0.557310
C541	C54	0.229280	0.089980	0.500260
O351	O35	0.334680	0.997310	0.785010
O361	O36	0.196550	0.003150	0.517110
Cd71	Cd7	0.899420	0.496140	0.081150
C551	C55	0.903380	0.236420	0.409280
C561	C56	0.803880	0.410200	0.366930
H191	H19	0.774200	0.463500	0.357800
O371	O37	0.908170	0.364930	0.176190
O381	O38	0.973770	0.124620	0.503140
O391	O39	0.996080	0.097620	0.373390
C571	C57	0.859540	0.367030	0.311250
C581	C58	0.960790	0.145760	0.430980
C591	C59	0.867540	0.415990	0.229090
O401	O40	0.706770	0.357680	0.558720
C601	C60	0.845760	0.279690	0.464080
H201	H20	0.836900	0.257300	0.515400
C611	C61	0.907880	0.280820	0.332670
H211	H21	0.944700	0.253400	0.291800
C621	C62	0.795020	0.364900	0.442690
C631	C63	0.729280	0.410020	0.499740
O411	O41	0.834680	0.502690	0.214990
O421	O42	0.696550	0.496850	0.482890
Cd81	Cd8	0.600580	0.503860	0.581150
C641	C64	0.596620	0.763580	0.909280
C651	C65	0.696120	0.589800	0.866930
H221	H22	0.725800	0.536500	0.857800
O431	O43	0.591830	0.635070	0.676190
O441	O44	0.526230	0.875380	0.003140
O451	O45	0.503920	0.902380	0.873390
C661	C66	0.640460	0.632970	0.811250
C671	C67	0.539210	0.854240	0.930980
C681	C68	0.632460	0.584010	0.729090
O461	O46	0.793230	0.642320	0.058720
C691	C69	0.654240	0.720310	0.964080
H231	H23	0.663100	0.742700	0.015400
C701	C70	0.592120	0.719180	0.832670
H241	H24	0.555300	0.746600	0.791800
C711	C71	0.704980	0.635100	0.942690
C721	C72	0.770720	0.589980	0.999740
O471	O47	0.665320	0.497310	0.714990
O481	O48	0.803450	0.503150	0.982890
