data_SIZGEO_clean_PM
_symmetry_space_group_name_H-M	'P1'
_cell_length_a	9.380300
_cell_length_b	10.139500
_cell_length_c	10.981600
_cell_angle_alpha	87.659000
_cell_angle_beta	81.273000
_cell_angle_gamma	63.599000
_symmetry_Int_Tables_number 1

loop_
_symmetry_equiv_pos_as_xyz
'x,y,z'

loop_
_atom_site_label
_atom_site_type_symbol
_atom_site_fract_x
_atom_site_fract_y
_atom_site_fract_z
Cd11	Cd1	0.201890	0.376020	0.379990
Cd21	Cd2	0.401470	0.100630	0.150320
C11	C1	0.972160	0.066910	0.344560
C21	C2	0.028990	0.915010	0.349870
H11	H1	0.140400	0.853800	0.336800
C31	C3	0.922120	0.852600	0.374360
C41	C4	0.756570	0.943530	0.386150
H21	H2	0.683900	0.902000	0.398800
C51	C5	0.699310	0.095630	0.379130
C61	C6	0.807330	0.157570	0.363460
H31	H3	0.768500	0.260500	0.365700
C71	C7	0.091480	0.129500	0.310920
C81	C8	0.986780	0.689010	0.385850
C91	C9	0.522890	0.192330	0.382660
O11	O1	0.218030	0.044630	0.244340
O21	O2	0.055110	0.256300	0.349030
O31	O3	0.890570	0.632730	0.417120
O41	O4	0.136600	0.612850	0.360560
O51	O5	0.464000	0.326020	0.411550
O61	O6	0.435870	0.134820	0.353840
Cl11	Cl1	0.299760	0.370510	0.129570
Cl21	Cl2	0.681640	0.945630	0.063980
Cd31	Cd3	0.798110	0.623980	0.620010
Cd41	Cd4	0.598530	0.899370	0.849680
C101	C10	0.027840	0.933090	0.655440
C111	C11	0.971010	0.084990	0.650130
H41	H4	0.859600	0.146200	0.663200
C121	C12	0.077880	0.147400	0.625640
C131	C13	0.243430	0.056470	0.613850
H51	H5	0.316100	0.098000	0.601200
C141	C14	0.300690	0.904370	0.620870
C151	C15	0.192670	0.842430	0.636540
H61	H6	0.231500	0.739500	0.634300
C161	C16	0.908520	0.870500	0.689080
C171	C17	0.013220	0.310990	0.614150
C181	C18	0.477110	0.807670	0.617340
O71	O7	0.781970	0.955370	0.755660
O81	O8	0.944890	0.743700	0.650970
O91	O9	0.109430	0.367270	0.582880
O101	O10	0.863400	0.387150	0.639440
O111	O11	0.536000	0.673980	0.588450
O121	O12	0.564130	0.865180	0.646160
Cl31	Cl3	0.700240	0.629490	0.870430
Cl41	Cl4	0.318360	0.054370	0.936020
