data_SIZJUH_clean_PM
_symmetry_space_group_name_H-M	'P1'
_cell_length_a	30.317000
_cell_length_b	21.295000
_cell_length_c	13.384000
_cell_angle_alpha	90.000000
_cell_angle_beta	114.190000
_cell_angle_gamma	90.000000
_symmetry_Int_Tables_number 1

loop_
_symmetry_equiv_pos_as_xyz
'x,y,z'

loop_
_atom_site_label
_atom_site_type_symbol
_atom_site_fract_x
_atom_site_fract_y
_atom_site_fract_z
Mo11	Mo1	0.225330	0.210060	0.376970
Mo21	Mo2	0.085690	0.152430	0.098410
Mo31	Mo3	0.331330	0.297760	0.463930
Mo41	Mo4	0.125300	0.299440	0.263480
Mo51	Mo5	0.228900	0.369500	0.324480
Na11	Na1	0.177900	0.034400	0.258300
Na21	Na2	0.233700	0.964900	0.501000
Na31	Na3	0.141900	0.371100	0.008400
Na41	Na4	0.393400	0.232100	0.265900
O11	O1	0.980800	0.290900	0.934700
O21	O2	0.284250	0.209300	0.383200
O31	O3	0.201400	0.141000	0.314700
O41	O4	0.106300	0.214300	0.200000
O51	O5	0.105000	0.333600	0.136900
O61	O6	0.197230	0.271700	0.267600
O71	O7	0.258930	0.307790	0.470400
O81	O8	0.098780	0.086800	0.176200
O91	O9	0.206900	0.394000	0.190600
O101	O10	0.165060	0.242100	0.407000
O111	O11	0.033990	0.101400	0.967000
O121	O12	0.169190	0.365400	0.343600
O131	O13	0.251800	0.435000	0.400300
O141	O14	0.287210	0.332300	0.324600
O151	O15	0.373160	0.259400	0.430300
O161	O16	0.962700	0.054600	0.890400
O171	O17	0.042060	0.224000	0.985400
O181	O18	0.154500	0.018800	0.398800
O191	O19	0.256800	0.004400	0.370500
O201	O20	0.199700	0.063700	0.110700
O211	O21	0.314700	0.921700	0.597000
O221	O22	0.087400	0.304500	0.884000
N11	N1	0.012210	0.159600	0.120400
C11	C1	0.004700	0.247700	0.993200
C21	C2	0.990800	0.221900	0.079100
H11	H1	0.000800	0.251100	0.139900
H21	H2	0.955800	0.218400	0.049500
C31	C3	0.981600	0.105500	0.058800
H31	H3	0.987200	0.070100	0.108200
H41	H4	0.947800	0.117100	0.032700
C41	C4	0.992000	0.085900	0.963500
C51	C5	0.022700	0.154000	0.239300
H51	H5	0.043200	0.188700	0.278500
H61	H6	0.040400	0.115400	0.267600
Mo61	Mo6	0.725330	0.710060	0.376970
Mo71	Mo7	0.585690	0.652430	0.098410
Mo81	Mo8	0.831330	0.797760	0.463930
Mo91	Mo9	0.625300	0.799440	0.263480
Mo101	Mo10	0.728900	0.869500	0.324480
Na51	Na5	0.677900	0.534400	0.258300
Na61	Na6	0.733700	0.464900	0.501000
Na71	Na7	0.641900	0.871100	0.008400
Na81	Na8	0.893400	0.732100	0.265900
O231	O23	0.480800	0.790900	0.934700
O241	O24	0.784250	0.709300	0.383200
O251	O25	0.701400	0.641000	0.314700
O261	O26	0.606300	0.714300	0.200000
O271	O27	0.605000	0.833600	0.136900
O281	O28	0.697230	0.771700	0.267600
O291	O29	0.758930	0.807790	0.470400
O301	O30	0.598780	0.586800	0.176200
O311	O31	0.706900	0.894000	0.190600
O321	O32	0.665060	0.742100	0.407000
O331	O33	0.533990	0.601400	0.967000
O341	O34	0.669190	0.865400	0.343600
O351	O35	0.751800	0.935000	0.400300
O361	O36	0.787210	0.832300	0.324600
O371	O37	0.873160	0.759400	0.430300
O381	O38	0.462700	0.554600	0.890400
O391	O39	0.542060	0.724000	0.985400
O401	O40	0.654500	0.518800	0.398800
O411	O41	0.756800	0.504400	0.370500
O421	O42	0.699700	0.563700	0.110700
O431	O43	0.814700	0.421700	0.597000
O441	O44	0.587400	0.804500	0.884000
N21	N2	0.512210	0.659600	0.120400
C61	C6	0.504700	0.747700	0.993200
C71	C7	0.490800	0.721900	0.079100
H71	H7	0.500800	0.751100	0.139900
H81	H8	0.455800	0.718400	0.049500
C81	C8	0.481600	0.605500	0.058800
H91	H9	0.487200	0.570100	0.108200
H101	H10	0.447800	0.617100	0.032700
C91	C9	0.492000	0.585900	0.963500
C101	C10	0.522700	0.654000	0.239300
H111	H11	0.543200	0.688700	0.278500
H121	H12	0.540400	0.615400	0.267600
Mo111	Mo11	0.774670	0.210060	0.123030
Mo121	Mo12	0.914310	0.152430	0.401590
Mo131	Mo13	0.668670	0.297760	0.036070
Mo141	Mo14	0.874700	0.299440	0.236520
Mo151	Mo15	0.771100	0.369500	0.175520
Na91	Na9	0.822100	0.034400	0.241700
Na101	Na10	0.766300	0.964900	0.999000
Na111	Na11	0.858100	0.371100	0.491600
Na121	Na12	0.606600	0.232100	0.234100
O451	O45	0.019200	0.290900	0.565300
O461	O46	0.715750	0.209300	0.116800
O471	O47	0.798600	0.141000	0.185300
O481	O48	0.893700	0.214300	0.300000
O491	O49	0.895000	0.333600	0.363100
O501	O50	0.802770	0.271700	0.232400
O511	O51	0.741070	0.307790	0.029600
O521	O52	0.901220	0.086800	0.323800
O531	O53	0.793100	0.394000	0.309400
O541	O54	0.834940	0.242100	0.093000
O551	O55	0.966010	0.101400	0.533000
O561	O56	0.830810	0.365400	0.156400
O571	O57	0.748200	0.435000	0.099700
O581	O58	0.712790	0.332300	0.175400
O591	O59	0.626840	0.259400	0.069700
O601	O60	0.037300	0.054600	0.609600
O611	O61	0.957940	0.224000	0.514600
O621	O62	0.845500	0.018800	0.101200
O631	O63	0.743200	0.004400	0.129500
O641	O64	0.800300	0.063700	0.389300
O651	O65	0.685300	0.921700	0.903000
O661	O66	0.912600	0.304500	0.616000
N31	N3	0.987790	0.159600	0.379600
C111	C11	0.995300	0.247700	0.506800
C121	C12	0.009200	0.221900	0.420900
H131	H13	0.999200	0.251100	0.360100
H141	H14	0.044200	0.218400	0.450500
C131	C13	0.018400	0.105500	0.441200
H151	H15	0.012800	0.070100	0.391800
H161	H16	0.052200	0.117100	0.467300
C141	C14	0.008000	0.085900	0.536500
C151	C15	0.977300	0.154000	0.260700
H171	H17	0.956800	0.188700	0.221500
H181	H18	0.959600	0.115400	0.232400
Mo161	Mo16	0.274670	0.710060	0.123030
Mo171	Mo17	0.414310	0.652430	0.401590
Mo181	Mo18	0.168670	0.797760	0.036070
Mo191	Mo19	0.374700	0.799440	0.236520
Mo201	Mo20	0.271100	0.869500	0.175520
Na131	Na13	0.322100	0.534400	0.241700
Na141	Na14	0.266300	0.464900	0.999000
Na151	Na15	0.358100	0.871100	0.491600
Na161	Na16	0.106600	0.732100	0.234100
O671	O67	0.519200	0.790900	0.565300
O681	O68	0.215750	0.709300	0.116800
O691	O69	0.298600	0.641000	0.185300
O701	O70	0.393700	0.714300	0.300000
O711	O71	0.395000	0.833600	0.363100
O721	O72	0.302770	0.771700	0.232400
O731	O73	0.241070	0.807790	0.029600
O741	O74	0.401220	0.586800	0.323800
O751	O75	0.293100	0.894000	0.309400
O761	O76	0.334940	0.742100	0.093000
O771	O77	0.466010	0.601400	0.533000
O781	O78	0.330810	0.865400	0.156400
O791	O79	0.248200	0.935000	0.099700
O801	O80	0.212790	0.832300	0.175400
O811	O81	0.126840	0.759400	0.069700
O821	O82	0.537300	0.554600	0.609600
O831	O83	0.457940	0.724000	0.514600
O841	O84	0.345500	0.518800	0.101200
O851	O85	0.243200	0.504400	0.129500
O861	O86	0.300300	0.563700	0.389300
O871	O87	0.185300	0.421700	0.903000
O881	O88	0.412600	0.804500	0.616000
N41	N4	0.487790	0.659600	0.379600
C161	C16	0.495300	0.747700	0.506800
C171	C17	0.509200	0.721900	0.420900
H191	H19	0.499200	0.751100	0.360100
H201	H20	0.544200	0.718400	0.450500
C181	C18	0.518400	0.605500	0.441200
H211	H21	0.512800	0.570100	0.391800
H221	H22	0.552200	0.617100	0.467300
C191	C19	0.508000	0.585900	0.536500
C201	C20	0.477300	0.654000	0.260700
H231	H23	0.456800	0.688700	0.221500
H241	H24	0.459600	0.615400	0.232400
Mo211	Mo21	0.774670	0.789940	0.623030
Mo221	Mo22	0.914310	0.847570	0.901590
Mo231	Mo23	0.668670	0.702240	0.536070
Mo241	Mo24	0.874700	0.700560	0.736520
Mo251	Mo25	0.771100	0.630500	0.675520
Na171	Na17	0.822100	0.965600	0.741700
Na181	Na18	0.766300	0.035100	0.499000
Na191	Na19	0.858100	0.628900	0.991600
Na201	Na20	0.606600	0.767900	0.734100
O891	O89	0.019200	0.709100	0.065300
O901	O90	0.715750	0.790700	0.616800
O911	O91	0.798600	0.859000	0.685300
O921	O92	0.893700	0.785700	0.800000
O931	O93	0.895000	0.666400	0.863100
O941	O94	0.802770	0.728300	0.732400
O951	O95	0.741070	0.692210	0.529600
O961	O96	0.901220	0.913200	0.823800
O971	O97	0.793100	0.606000	0.809400
O981	O98	0.834940	0.757900	0.593000
O991	O99	0.966010	0.898600	0.033000
O1001	O100	0.830810	0.634600	0.656400
O1011	O101	0.748200	0.565000	0.599700
O1021	O102	0.712790	0.667700	0.675400
O1031	O103	0.626840	0.740600	0.569700
O1041	O104	0.037300	0.945400	0.109600
O1051	O105	0.957940	0.776000	0.014600
O1061	O106	0.845500	0.981200	0.601200
O1071	O107	0.743200	0.995600	0.629500
O1081	O108	0.800300	0.936300	0.889300
O1091	O109	0.685300	0.078300	0.403000
O1101	O110	0.912600	0.695500	0.116000
N51	N5	0.987790	0.840400	0.879600
C211	C21	0.995300	0.752300	0.006800
C221	C22	0.009200	0.778100	0.920900
H251	H25	0.999200	0.748900	0.860100
H261	H26	0.044200	0.781600	0.950500
C231	C23	0.018400	0.894500	0.941200
H271	H27	0.012800	0.929900	0.891800
H281	H28	0.052200	0.882900	0.967300
C241	C24	0.008000	0.914100	0.036500
C251	C25	0.977300	0.846000	0.760700
H291	H29	0.956800	0.811300	0.721500
H301	H30	0.959600	0.884600	0.732400
Mo261	Mo26	0.274670	0.289940	0.623030
Mo271	Mo27	0.414310	0.347570	0.901590
Mo281	Mo28	0.168670	0.202240	0.536070
Mo291	Mo29	0.374700	0.200560	0.736520
Mo301	Mo30	0.271100	0.130500	0.675520
Na211	Na21	0.322100	0.465600	0.741700
Na221	Na22	0.266300	0.535100	0.499000
Na231	Na23	0.358100	0.128900	0.991600
Na241	Na24	0.106600	0.267900	0.734100
O1111	O111	0.519200	0.209100	0.065300
O1121	O112	0.215750	0.290700	0.616800
O1131	O113	0.298600	0.359000	0.685300
O1141	O114	0.393700	0.285700	0.800000
O1151	O115	0.395000	0.166400	0.863100
O1161	O116	0.302770	0.228300	0.732400
O1171	O117	0.241070	0.192210	0.529600
O1181	O118	0.401220	0.413200	0.823800
O1191	O119	0.293100	0.106000	0.809400
O1201	O120	0.334940	0.257900	0.593000
O1211	O121	0.466010	0.398600	0.033000
O1221	O122	0.330810	0.134600	0.656400
O1231	O123	0.248200	0.065000	0.599700
O1241	O124	0.212790	0.167700	0.675400
O1251	O125	0.126840	0.240600	0.569700
O1261	O126	0.537300	0.445400	0.109600
O1271	O127	0.457940	0.276000	0.014600
O1281	O128	0.345500	0.481200	0.601200
O1291	O129	0.243200	0.495600	0.629500
O1301	O130	0.300300	0.436300	0.889300
O1311	O131	0.185300	0.578300	0.403000
O1321	O132	0.412600	0.195500	0.116000
N61	N6	0.487790	0.340400	0.879600
C261	C26	0.495300	0.252300	0.006800
C271	C27	0.509200	0.278100	0.920900
H311	H31	0.499200	0.248900	0.860100
H321	H32	0.544200	0.281600	0.950500
C281	C28	0.518400	0.394500	0.941200
H331	H33	0.512800	0.429900	0.891800
H341	H34	0.552200	0.382900	0.967300
C291	C29	0.508000	0.414100	0.036500
C301	C30	0.477300	0.346000	0.760700
H351	H35	0.456800	0.311300	0.721500
H361	H36	0.459600	0.384600	0.732400
Mo311	Mo31	0.225330	0.789940	0.876970
Mo321	Mo32	0.085690	0.847570	0.598410
Mo331	Mo33	0.331330	0.702240	0.963930
Mo341	Mo34	0.125300	0.700560	0.763480
Mo351	Mo35	0.228900	0.630500	0.824480
Na251	Na25	0.177900	0.965600	0.758300
Na261	Na26	0.233700	0.035100	0.001000
Na271	Na27	0.141900	0.628900	0.508400
Na281	Na28	0.393400	0.767900	0.765900
O1331	O133	0.980800	0.709100	0.434700
O1341	O134	0.284250	0.790700	0.883200
O1351	O135	0.201400	0.859000	0.814700
O1361	O136	0.106300	0.785700	0.700000
O1371	O137	0.105000	0.666400	0.636900
O1381	O138	0.197230	0.728300	0.767600
O1391	O139	0.258930	0.692210	0.970400
O1401	O140	0.098780	0.913200	0.676200
O1411	O141	0.206900	0.606000	0.690600
O1421	O142	0.165060	0.757900	0.907000
O1431	O143	0.033990	0.898600	0.467000
O1441	O144	0.169190	0.634600	0.843600
O1451	O145	0.251800	0.565000	0.900300
O1461	O146	0.287210	0.667700	0.824600
O1471	O147	0.373160	0.740600	0.930300
O1481	O148	0.962700	0.945400	0.390400
O1491	O149	0.042060	0.776000	0.485400
O1501	O150	0.154500	0.981200	0.898800
O1511	O151	0.256800	0.995600	0.870500
O1521	O152	0.199700	0.936300	0.610700
O1531	O153	0.314700	0.078300	0.097000
O1541	O154	0.087400	0.695500	0.384000
N71	N7	0.012210	0.840400	0.620400
C311	C31	0.004700	0.752300	0.493200
C321	C32	0.990800	0.778100	0.579100
H371	H37	0.000800	0.748900	0.639900
H381	H38	0.955800	0.781600	0.549500
C331	C33	0.981600	0.894500	0.558800
H391	H39	0.987200	0.929900	0.608200
H401	H40	0.947800	0.882900	0.532700
C341	C34	0.992000	0.914100	0.463500
C351	C35	0.022700	0.846000	0.739300
H411	H41	0.043200	0.811300	0.778500
H421	H42	0.040400	0.884600	0.767600
Mo361	Mo36	0.725330	0.289940	0.876970
Mo371	Mo37	0.585690	0.347570	0.598410
Mo381	Mo38	0.831330	0.202240	0.963930
Mo391	Mo39	0.625300	0.200560	0.763480
Mo401	Mo40	0.728900	0.130500	0.824480
Na291	Na29	0.677900	0.465600	0.758300
Na301	Na30	0.733700	0.535100	0.001000
Na311	Na31	0.641900	0.128900	0.508400
Na321	Na32	0.893400	0.267900	0.765900
O1551	O155	0.480800	0.209100	0.434700
O1561	O156	0.784250	0.290700	0.883200
O1571	O157	0.701400	0.359000	0.814700
O1581	O158	0.606300	0.285700	0.700000
O1591	O159	0.605000	0.166400	0.636900
O1601	O160	0.697230	0.228300	0.767600
O1611	O161	0.758930	0.192210	0.970400
O1621	O162	0.598780	0.413200	0.676200
O1631	O163	0.706900	0.106000	0.690600
O1641	O164	0.665060	0.257900	0.907000
O1651	O165	0.533990	0.398600	0.467000
O1661	O166	0.669190	0.134600	0.843600
O1671	O167	0.751800	0.065000	0.900300
O1681	O168	0.787210	0.167700	0.824600
O1691	O169	0.873160	0.240600	0.930300
O1701	O170	0.462700	0.445400	0.390400
O1711	O171	0.542060	0.276000	0.485400
O1721	O172	0.654500	0.481200	0.898800
O1731	O173	0.756800	0.495600	0.870500
O1741	O174	0.699700	0.436300	0.610700
O1751	O175	0.814700	0.578300	0.097000
O1761	O176	0.587400	0.195500	0.384000
N81	N8	0.512210	0.340400	0.620400
C361	C36	0.504700	0.252300	0.493200
C371	C37	0.490800	0.278100	0.579100
H431	H43	0.500800	0.248900	0.639900
H441	H44	0.455800	0.281600	0.549500
C381	C38	0.481600	0.394500	0.558800
H451	H45	0.487200	0.429900	0.608200
H461	H46	0.447800	0.382900	0.532700
C391	C39	0.492000	0.414100	0.463500
C401	C40	0.522700	0.346000	0.739300
H471	H47	0.543200	0.311300	0.778500
H481	H48	0.540400	0.384600	0.767600
