data_SIZPUN_clean_PM
_symmetry_space_group_name_H-M	'P1'
_cell_length_a	29.702000
_cell_length_b	29.702000
_cell_length_c	29.702000
_cell_angle_alpha	60.000000
_cell_angle_beta	60.000000
_cell_angle_gamma	60.000000
_symmetry_Int_Tables_number 1

loop_
_symmetry_equiv_pos_as_xyz
'x,y,z'

loop_
_atom_site_label
_atom_site_type_symbol
_atom_site_fract_x
_atom_site_fract_y
_atom_site_fract_z
Zn11	Zn1	0.864630	0.500000	0.135370
Zn21	Zn2	0.763020	0.500000	0.236980
Zn31	Zn3	0.500000	0.864630	0.500000
Zn41	Zn4	0.500000	0.763020	0.500000
Zn51	Zn5	0.135370	0.500000	0.864630
Zn61	Zn6	0.236980	0.500000	0.763020
Zn71	Zn7	0.500000	0.135370	0.500000
Zn81	Zn8	0.500000	0.236980	0.500000
Zn91	Zn9	0.864630	0.135370	0.500000
Zn101	Zn10	0.763020	0.236980	0.500000
Zn111	Zn11	0.500000	0.500000	0.135370
Zn121	Zn12	0.500000	0.500000	0.236980
Zn131	Zn13	0.135370	0.864630	0.500000
Zn141	Zn14	0.236980	0.763020	0.500000
Zn151	Zn15	0.500000	0.500000	0.864630
Zn161	Zn16	0.500000	0.500000	0.763020
Zn171	Zn17	0.864630	0.500000	0.500000
Zn181	Zn18	0.763020	0.500000	0.500000
Zn191	Zn19	0.500000	0.135370	0.864630
Zn201	Zn20	0.500000	0.236980	0.763020
Zn211	Zn21	0.135370	0.500000	0.500000
Zn221	Zn22	0.236980	0.500000	0.500000
Zn231	Zn23	0.500000	0.864630	0.135370
Zn241	Zn24	0.500000	0.763020	0.236980
H11	H1	0.805900	0.477100	0.043300
H21	H2	0.477100	0.805900	0.673700
H31	H3	0.043300	0.673700	0.805900
H41	H4	0.673700	0.043300	0.477100
H51	H5	0.805900	0.043300	0.673700
H61	H6	0.477100	0.673700	0.043300
H71	H7	0.043300	0.805900	0.477100
H81	H8	0.673700	0.477100	0.805900
H91	H9	0.805900	0.673700	0.477100
H101	H10	0.477100	0.043300	0.805900
H111	H11	0.043300	0.477100	0.673700
H121	H12	0.673700	0.805900	0.043300
H131	H13	0.522900	0.194100	0.956700
H141	H14	0.194100	0.522900	0.326300
H151	H15	0.326300	0.956700	0.194100
H161	H16	0.956700	0.326300	0.522900
H171	H17	0.956700	0.194100	0.326300
H181	H18	0.326300	0.522900	0.956700
H191	H19	0.194100	0.956700	0.522900
H201	H20	0.522900	0.326300	0.194100
H211	H21	0.326300	0.194100	0.522900
H221	H22	0.956700	0.522900	0.194100
H231	H23	0.522900	0.956700	0.326300
H241	H24	0.194100	0.326300	0.956700
H251	H25	0.194100	0.522900	0.956700
H261	H26	0.522900	0.194100	0.326300
H271	H27	0.956700	0.326300	0.194100
H281	H28	0.326300	0.956700	0.522900
H291	H29	0.194100	0.956700	0.326300
H301	H30	0.522900	0.326300	0.956700
H311	H31	0.956700	0.194100	0.522900
H321	H32	0.326300	0.522900	0.194100
H331	H33	0.194100	0.326300	0.522900
H341	H34	0.522900	0.956700	0.194100
H351	H35	0.956700	0.522900	0.326300
H361	H36	0.326300	0.194100	0.956700
H371	H37	0.477100	0.805900	0.043300
H381	H38	0.805900	0.477100	0.673700
H391	H39	0.673700	0.043300	0.805900
H401	H40	0.043300	0.673700	0.477100
H411	H41	0.043300	0.805900	0.673700
H421	H42	0.673700	0.477100	0.043300
H431	H43	0.805900	0.043300	0.477100
H441	H44	0.477100	0.673700	0.805900
H451	H45	0.673700	0.805900	0.477100
H461	H46	0.043300	0.477100	0.805900
H471	H47	0.477100	0.043300	0.673700
H481	H48	0.805900	0.673700	0.043300
H491	H49	0.669800	0.483000	0.177400
H501	H50	0.483000	0.669800	0.669800
H511	H51	0.177400	0.669800	0.669800
H521	H52	0.669800	0.177400	0.483000
H531	H53	0.669800	0.177400	0.669800
H541	H54	0.483000	0.669800	0.177400
H551	H55	0.177400	0.669800	0.483000
H561	H56	0.669800	0.483000	0.669800
H571	H57	0.669800	0.669800	0.483000
H581	H58	0.483000	0.177400	0.669800
H591	H59	0.177400	0.483000	0.669800
H601	H60	0.669800	0.669800	0.177400
H611	H61	0.517000	0.330200	0.822600
H621	H62	0.330200	0.517000	0.330200
H631	H63	0.330200	0.822600	0.330200
H641	H64	0.822600	0.330200	0.517000
H651	H65	0.822600	0.330200	0.330200
H661	H66	0.330200	0.517000	0.822600
H671	H67	0.330200	0.822600	0.517000
H681	H68	0.517000	0.330200	0.330200
H691	H69	0.330200	0.330200	0.517000
H701	H70	0.822600	0.517000	0.330200
H711	H71	0.517000	0.822600	0.330200
H721	H72	0.330200	0.330200	0.822600
C11	C1	0.770300	0.490700	0.138700
C21	C2	0.747200	0.478600	0.115200
C31	C3	0.769900	0.474700	0.063900
C41	C4	0.762800	0.462800	0.947800
C51	C5	0.798500	0.463300	0.891900
C61	C6	0.490700	0.770300	0.600300
C71	C7	0.478600	0.747200	0.659000
C81	C8	0.474700	0.769900	0.691500
C91	C9	0.462800	0.762800	0.826600
C101	C10	0.463300	0.798500	0.846300
C111	C11	0.138700	0.600300	0.770300
C121	C12	0.115200	0.659000	0.747200
C131	C13	0.063900	0.691500	0.769900
C141	C14	0.947800	0.826600	0.762800
C151	C15	0.891900	0.846300	0.798500
C161	C16	0.600300	0.138700	0.490700
C171	C17	0.659000	0.115200	0.478600
C181	C18	0.691500	0.063900	0.474700
C191	C19	0.826600	0.947800	0.462800
C201	C20	0.846300	0.891900	0.463300
C211	C21	0.770300	0.138700	0.600300
C221	C22	0.747200	0.115200	0.659000
C231	C23	0.769900	0.063900	0.691500
C241	C24	0.762800	0.947800	0.826600
C251	C25	0.798500	0.891900	0.846300
C261	C26	0.490700	0.600300	0.138700
C271	C27	0.478600	0.659000	0.115200
C281	C28	0.474700	0.691500	0.063900
C291	C29	0.462800	0.826600	0.947800
C301	C30	0.463300	0.846300	0.891900
C311	C31	0.138700	0.770300	0.490700
C321	C32	0.115200	0.747200	0.478600
C331	C33	0.063900	0.769900	0.474700
C341	C34	0.947800	0.762800	0.462800
C351	C35	0.891900	0.798500	0.463300
C361	C36	0.600300	0.490700	0.770300
C371	C37	0.659000	0.478600	0.747200
C381	C38	0.691500	0.474700	0.769900
C391	C39	0.826600	0.462800	0.762800
C401	C40	0.846300	0.463300	0.798500
C411	C41	0.770300	0.600300	0.490700
C421	C42	0.747200	0.659000	0.478600
C431	C43	0.769900	0.691500	0.474700
C441	C44	0.762800	0.826600	0.462800
C451	C45	0.798500	0.846300	0.463300
C461	C46	0.490700	0.138700	0.770300
C471	C47	0.478600	0.115200	0.747200
C481	C48	0.474700	0.063900	0.769900
C491	C49	0.462800	0.947800	0.762800
C501	C50	0.463300	0.891900	0.798500
C511	C51	0.138700	0.490700	0.600300
C521	C52	0.115200	0.478600	0.659000
C531	C53	0.063900	0.474700	0.691500
C541	C54	0.947800	0.462800	0.826600
C551	C55	0.891900	0.463300	0.846300
C561	C56	0.600300	0.770300	0.138700
C571	C57	0.659000	0.747200	0.115200
C581	C58	0.691500	0.769900	0.063900
C591	C59	0.826600	0.762800	0.947800
C601	C60	0.846300	0.798500	0.891900
C611	C61	0.509300	0.229700	0.861300
C621	C62	0.521400	0.252800	0.884800
C631	C63	0.525300	0.230100	0.936100
C641	C64	0.537200	0.237200	0.052200
C651	C65	0.536700	0.201500	0.108100
C661	C66	0.229700	0.509300	0.399700
C671	C67	0.252800	0.521400	0.341000
C681	C68	0.230100	0.525300	0.308500
C691	C69	0.237200	0.537200	0.173400
C701	C70	0.201500	0.536700	0.153700
C711	C71	0.399700	0.861300	0.229700
C721	C72	0.341000	0.884800	0.252800
C731	C73	0.308500	0.936100	0.230100
C741	C74	0.173400	0.052200	0.237200
C751	C75	0.153700	0.108100	0.201500
C761	C76	0.861300	0.399700	0.509300
C771	C77	0.884800	0.341000	0.521400
C781	C78	0.936100	0.308500	0.525300
C791	C79	0.052200	0.173400	0.537200
C801	C80	0.108100	0.153700	0.536700
C811	C81	0.861300	0.229700	0.399700
C821	C82	0.884800	0.252800	0.341000
C831	C83	0.936100	0.230100	0.308500
C841	C84	0.052200	0.237200	0.173400
C851	C85	0.108100	0.201500	0.153700
C861	C86	0.399700	0.509300	0.861300
C871	C87	0.341000	0.521400	0.884800
C881	C88	0.308500	0.525300	0.936100
C891	C89	0.173400	0.537200	0.052200
C901	C90	0.153700	0.536700	0.108100
C911	C91	0.229700	0.861300	0.509300
C921	C92	0.252800	0.884800	0.521400
C931	C93	0.230100	0.936100	0.525300
C941	C94	0.237200	0.052200	0.537200
C951	C95	0.201500	0.108100	0.536700
C961	C96	0.509300	0.399700	0.229700
C971	C97	0.521400	0.341000	0.252800
C981	C98	0.525300	0.308500	0.230100
C991	C99	0.537200	0.173400	0.237200
C1001	C100	0.536700	0.153700	0.201500
C1011	C101	0.399700	0.229700	0.509300
C1021	C102	0.341000	0.252800	0.521400
C1031	C103	0.308500	0.230100	0.525300
C1041	C104	0.173400	0.237200	0.537200
C1051	C105	0.153700	0.201500	0.536700
C1061	C106	0.861300	0.509300	0.229700
C1071	C107	0.884800	0.521400	0.252800
C1081	C108	0.936100	0.525300	0.230100
C1091	C109	0.052200	0.537200	0.237200
C1101	C110	0.108100	0.536700	0.201500
C1111	C111	0.509300	0.861300	0.399700
C1121	C112	0.521400	0.884800	0.341000
C1131	C113	0.525300	0.936100	0.308500
C1141	C114	0.537200	0.052200	0.173400
C1151	C115	0.536700	0.108100	0.153700
C1161	C116	0.229700	0.399700	0.861300
C1171	C117	0.252800	0.341000	0.884800
C1181	C118	0.230100	0.308500	0.936100
C1191	C119	0.237200	0.173400	0.052200
C1201	C120	0.201500	0.153700	0.108100
C1211	C121	0.229700	0.509300	0.861300
C1221	C122	0.252800	0.521400	0.884800
C1231	C123	0.230100	0.525300	0.936100
C1241	C124	0.237200	0.537200	0.052200
C1251	C125	0.201500	0.536700	0.108100
C1261	C126	0.509300	0.229700	0.399700
C1271	C127	0.521400	0.252800	0.341000
C1281	C128	0.525300	0.230100	0.308500
C1291	C129	0.537200	0.237200	0.173400
C1301	C130	0.536700	0.201500	0.153700
C1311	C131	0.861300	0.399700	0.229700
C1321	C132	0.884800	0.341000	0.252800
C1331	C133	0.936100	0.308500	0.230100
C1341	C134	0.052200	0.173400	0.237200
C1351	C135	0.108100	0.153700	0.201500
C1361	C136	0.399700	0.861300	0.509300
C1371	C137	0.341000	0.884800	0.521400
C1381	C138	0.308500	0.936100	0.525300
C1391	C139	0.173400	0.052200	0.537200
C1401	C140	0.153700	0.108100	0.536700
C1411	C141	0.229700	0.861300	0.399700
C1421	C142	0.252800	0.884800	0.341000
C1431	C143	0.230100	0.936100	0.308500
C1441	C144	0.237200	0.052200	0.173400
C1451	C145	0.201500	0.108100	0.153700
C1461	C146	0.509300	0.399700	0.861300
C1471	C147	0.521400	0.341000	0.884800
C1481	C148	0.525300	0.308500	0.936100
C1491	C149	0.537200	0.173400	0.052200
C1501	C150	0.536700	0.153700	0.108100
C1511	C151	0.861300	0.229700	0.509300
C1521	C152	0.884800	0.252800	0.521400
C1531	C153	0.936100	0.230100	0.525300
C1541	C154	0.052200	0.237200	0.537200
C1551	C155	0.108100	0.201500	0.536700
C1561	C156	0.399700	0.509300	0.229700
C1571	C157	0.341000	0.521400	0.252800
C1581	C158	0.308500	0.525300	0.230100
C1591	C159	0.173400	0.537200	0.237200
C1601	C160	0.153700	0.536700	0.201500
C1611	C161	0.229700	0.399700	0.509300
C1621	C162	0.252800	0.341000	0.521400
C1631	C163	0.230100	0.308500	0.525300
C1641	C164	0.237200	0.173400	0.537200
C1651	C165	0.201500	0.153700	0.536700
C1661	C166	0.509300	0.861300	0.229700
C1671	C167	0.521400	0.884800	0.252800
C1681	C168	0.525300	0.936100	0.230100
C1691	C169	0.537200	0.052200	0.237200
C1701	C170	0.536700	0.108100	0.201500
C1711	C171	0.861300	0.509300	0.399700
C1721	C172	0.884800	0.521400	0.341000
C1731	C173	0.936100	0.525300	0.308500
C1741	C174	0.052200	0.537200	0.173400
C1751	C175	0.108100	0.536700	0.153700
C1761	C176	0.399700	0.229700	0.861300
C1771	C177	0.341000	0.252800	0.884800
C1781	C178	0.308500	0.230100	0.936100
C1791	C179	0.173400	0.237200	0.052200
C1801	C180	0.153700	0.201500	0.108100
C1811	C181	0.490700	0.770300	0.138700
C1821	C182	0.478600	0.747200	0.115200
C1831	C183	0.474700	0.769900	0.063900
C1841	C184	0.462800	0.762800	0.947800
C1851	C185	0.463300	0.798500	0.891900
C1861	C186	0.770300	0.490700	0.600300
C1871	C187	0.747200	0.478600	0.659000
C1881	C188	0.769900	0.474700	0.691500
C1891	C189	0.762800	0.462800	0.826600
C1901	C190	0.798500	0.463300	0.846300
C1911	C191	0.600300	0.138700	0.770300
C1921	C192	0.659000	0.115200	0.747200
C1931	C193	0.691500	0.063900	0.769900
C1941	C194	0.826600	0.947800	0.762800
C1951	C195	0.846300	0.891900	0.798500
C1961	C196	0.138700	0.600300	0.490700
C1971	C197	0.115200	0.659000	0.478600
C1981	C198	0.063900	0.691500	0.474700
C1991	C199	0.947800	0.826600	0.462800
C2001	C200	0.891900	0.846300	0.463300
C2011	C201	0.138700	0.770300	0.600300
C2021	C202	0.115200	0.747200	0.659000
C2031	C203	0.063900	0.769900	0.691500
C2041	C204	0.947800	0.762800	0.826600
C2051	C205	0.891900	0.798500	0.846300
C2061	C206	0.600300	0.490700	0.138700
C2071	C207	0.659000	0.478600	0.115200
C2081	C208	0.691500	0.474700	0.063900
C2091	C209	0.826600	0.462800	0.947800
C2101	C210	0.846300	0.463300	0.891900
C2111	C211	0.770300	0.138700	0.490700
C2121	C212	0.747200	0.115200	0.478600
C2131	C213	0.769900	0.063900	0.474700
C2141	C214	0.762800	0.947800	0.462800
C2151	C215	0.798500	0.891900	0.463300
C2161	C216	0.490700	0.600300	0.770300
C2171	C217	0.478600	0.659000	0.747200
C2181	C218	0.474700	0.691500	0.769900
C2191	C219	0.462800	0.826600	0.762800
C2201	C220	0.463300	0.846300	0.798500
C2211	C221	0.600300	0.770300	0.490700
C2221	C222	0.659000	0.747200	0.478600
C2231	C223	0.691500	0.769900	0.474700
C2241	C224	0.826600	0.762800	0.462800
C2251	C225	0.846300	0.798500	0.463300
C2261	C226	0.138700	0.490700	0.770300
C2271	C227	0.115200	0.478600	0.747200
C2281	C228	0.063900	0.474700	0.769900
C2291	C229	0.947800	0.462800	0.762800
C2301	C230	0.891900	0.463300	0.798500
C2311	C231	0.490700	0.138700	0.600300
C2321	C232	0.478600	0.115200	0.659000
C2331	C233	0.474700	0.063900	0.691500
C2341	C234	0.462800	0.947800	0.826600
C2351	C235	0.463300	0.891900	0.846300
C2361	C236	0.770300	0.600300	0.138700
C2371	C237	0.747200	0.659000	0.115200
C2381	C238	0.769900	0.691500	0.063900
C2391	C239	0.762800	0.826600	0.947800
C2401	C240	0.798500	0.846300	0.891900
C2411	C241	0.746700	0.467500	0.039100
C2421	C242	0.689000	0.480600	0.141400
C2431	C243	0.467500	0.746700	0.746700
C2441	C244	0.480600	0.689000	0.689000
C2451	C245	0.039100	0.746700	0.746700
C2461	C246	0.141400	0.689000	0.689000
C2471	C247	0.746700	0.039100	0.467500
C2481	C248	0.689000	0.141400	0.480600
C2491	C249	0.746700	0.039100	0.746700
C2501	C250	0.689000	0.141400	0.689000
C2511	C251	0.467500	0.746700	0.039100
C2521	C252	0.480600	0.689000	0.141400
C2531	C253	0.039100	0.746700	0.467500
C2541	C254	0.141400	0.689000	0.480600
C2551	C255	0.746700	0.467500	0.746700
C2561	C256	0.689000	0.480600	0.689000
C2571	C257	0.746700	0.746700	0.467500
C2581	C258	0.689000	0.689000	0.480600
C2591	C259	0.467500	0.039100	0.746700
C2601	C260	0.480600	0.141400	0.689000
C2611	C261	0.039100	0.467500	0.746700
C2621	C262	0.141400	0.480600	0.689000
C2631	C263	0.746700	0.746700	0.039100
C2641	C264	0.689000	0.689000	0.141400
C2651	C265	0.532500	0.253300	0.960900
C2661	C266	0.519400	0.311000	0.858600
C2671	C267	0.253300	0.532500	0.253300
C2681	C268	0.311000	0.519400	0.311000
C2691	C269	0.253300	0.960900	0.253300
C2701	C270	0.311000	0.858600	0.311000
C2711	C271	0.960900	0.253300	0.532500
C2721	C272	0.858600	0.311000	0.519400
C2731	C273	0.960900	0.253300	0.253300
C2741	C274	0.858600	0.311000	0.311000
C2751	C275	0.253300	0.532500	0.960900
C2761	C276	0.311000	0.519400	0.858600
C2771	C277	0.253300	0.960900	0.532500
C2781	C278	0.311000	0.858600	0.519400
C2791	C279	0.532500	0.253300	0.253300
C2801	C280	0.519400	0.311000	0.311000
C2811	C281	0.253300	0.253300	0.532500
C2821	C282	0.311000	0.311000	0.519400
C2831	C283	0.960900	0.532500	0.253300
C2841	C284	0.858600	0.519400	0.311000
C2851	C285	0.532500	0.960900	0.253300
C2861	C286	0.519400	0.858600	0.311000
C2871	C287	0.253300	0.253300	0.960900
C2881	C288	0.311000	0.311000	0.858600
N11	N1	0.775700	0.463900	0.984700
N21	N2	0.463900	0.775700	0.775700
N31	N3	0.984700	0.775700	0.775700
N41	N4	0.775700	0.984700	0.463900
N51	N5	0.775700	0.984700	0.775700
N61	N6	0.463900	0.775700	0.984700
N71	N7	0.984700	0.775700	0.463900
N81	N8	0.775700	0.463900	0.775700
N91	N9	0.775700	0.775700	0.463900
N101	N10	0.463900	0.984700	0.775700
N111	N11	0.984700	0.463900	0.775700
N121	N12	0.775700	0.775700	0.984700
N131	N13	0.536100	0.224300	0.015300
N141	N14	0.224300	0.536100	0.224300
N151	N15	0.224300	0.015300	0.224300
N161	N16	0.015300	0.224300	0.536100
N171	N17	0.015300	0.224300	0.224300
N181	N18	0.224300	0.536100	0.015300
N191	N19	0.224300	0.015300	0.536100
N201	N20	0.536100	0.224300	0.224300
N211	N21	0.224300	0.224300	0.536100
N221	N22	0.015300	0.536100	0.224300
N231	N23	0.536100	0.015300	0.224300
N241	N24	0.224300	0.224300	0.015300
O11	O1	0.820080	0.486320	0.116400
O21	O2	0.743560	0.488040	0.191960
O31	O3	0.717300	0.454300	0.973100
O41	O4	0.486320	0.820080	0.577200
O51	O5	0.488040	0.743560	0.576440
O61	O6	0.454300	0.717300	0.855300
O71	O7	0.116400	0.577200	0.820080
O81	O8	0.191960	0.576440	0.743560
O91	O9	0.973100	0.855300	0.717300
O101	O10	0.577200	0.116400	0.486320
O111	O11	0.576440	0.191960	0.488040
O121	O12	0.855300	0.973100	0.454300
O131	O13	0.820080	0.116400	0.577200
O141	O14	0.743560	0.191960	0.576440
O151	O15	0.717300	0.973100	0.855300
O161	O16	0.486320	0.577200	0.116400
O171	O17	0.488040	0.576440	0.191960
O181	O18	0.454300	0.855300	0.973100
O191	O19	0.116400	0.820080	0.486320
O201	O20	0.191960	0.743560	0.488040
O211	O21	0.973100	0.717300	0.454300
O221	O22	0.577200	0.486320	0.820080
O231	O23	0.576440	0.488040	0.743560
O241	O24	0.855300	0.454300	0.717300
O251	O25	0.820080	0.577200	0.486320
O261	O26	0.743560	0.576440	0.488040
O271	O27	0.717300	0.855300	0.454300
O281	O28	0.486320	0.116400	0.820080
O291	O29	0.488040	0.191960	0.743560
O301	O30	0.454300	0.973100	0.717300
O311	O31	0.116400	0.486320	0.577200
O321	O32	0.191960	0.488040	0.576440
O331	O33	0.973100	0.454300	0.855300
O341	O34	0.577200	0.820080	0.116400
O351	O35	0.576440	0.743560	0.191960
O361	O36	0.855300	0.717300	0.973100
O371	O37	0.513680	0.179920	0.883600
O381	O38	0.511960	0.256440	0.808040
O391	O39	0.545700	0.282700	0.026900
O401	O40	0.179920	0.513680	0.422800
O411	O41	0.256440	0.511960	0.423560
O421	O42	0.282700	0.545700	0.144700
O431	O43	0.422800	0.883600	0.179920
O441	O44	0.423560	0.808040	0.256440
O451	O45	0.144700	0.026900	0.282700
O461	O46	0.883600	0.422800	0.513680
O471	O47	0.808040	0.423560	0.511960
O481	O48	0.026900	0.144700	0.545700
O491	O49	0.883600	0.179920	0.422800
O501	O50	0.808040	0.256440	0.423560
O511	O51	0.026900	0.282700	0.144700
O521	O52	0.422800	0.513680	0.883600
O531	O53	0.423560	0.511960	0.808040
O541	O54	0.144700	0.545700	0.026900
O551	O55	0.179920	0.883600	0.513680
O561	O56	0.256440	0.808040	0.511960
O571	O57	0.282700	0.026900	0.545700
O581	O58	0.513680	0.422800	0.179920
O591	O59	0.511960	0.423560	0.256440
O601	O60	0.545700	0.144700	0.282700
O611	O61	0.422800	0.179920	0.513680
O621	O62	0.423560	0.256440	0.511960
O631	O63	0.144700	0.282700	0.545700
O641	O64	0.883600	0.513680	0.179920
O651	O65	0.808040	0.511960	0.256440
O661	O66	0.026900	0.545700	0.282700
O671	O67	0.513680	0.883600	0.422800
O681	O68	0.511960	0.808040	0.423560
O691	O69	0.545700	0.026900	0.144700
O701	O70	0.179920	0.422800	0.883600
O711	O71	0.256440	0.423560	0.808040
O721	O72	0.282700	0.144700	0.026900
O731	O73	0.179920	0.513680	0.883600
O741	O74	0.256440	0.511960	0.808040
O751	O75	0.282700	0.545700	0.026900
O761	O76	0.513680	0.179920	0.422800
O771	O77	0.511960	0.256440	0.423560
O781	O78	0.545700	0.282700	0.144700
O791	O79	0.883600	0.422800	0.179920
O801	O80	0.808040	0.423560	0.256440
O811	O81	0.026900	0.144700	0.282700
O821	O82	0.422800	0.883600	0.513680
O831	O83	0.423560	0.808040	0.511960
O841	O84	0.144700	0.026900	0.545700
O851	O85	0.179920	0.883600	0.422800
O861	O86	0.256440	0.808040	0.423560
O871	O87	0.282700	0.026900	0.144700
O881	O88	0.513680	0.422800	0.883600
O891	O89	0.511960	0.423560	0.808040
O901	O90	0.545700	0.144700	0.026900
O911	O91	0.883600	0.179920	0.513680
O921	O92	0.808040	0.256440	0.511960
O931	O93	0.026900	0.282700	0.545700
O941	O94	0.422800	0.513680	0.179920
O951	O95	0.423560	0.511960	0.256440
O961	O96	0.144700	0.545700	0.282700
O971	O97	0.179920	0.422800	0.513680
O981	O98	0.256440	0.423560	0.511960
O991	O99	0.282700	0.144700	0.545700
O1001	O100	0.513680	0.883600	0.179920
O1011	O101	0.511960	0.808040	0.256440
O1021	O102	0.545700	0.026900	0.282700
O1031	O103	0.883600	0.513680	0.422800
O1041	O104	0.808040	0.511960	0.423560
O1051	O105	0.026900	0.545700	0.144700
O1061	O106	0.422800	0.179920	0.883600
O1071	O107	0.423560	0.256440	0.808040
O1081	O108	0.144700	0.282700	0.026900
O1091	O109	0.486320	0.820080	0.116400
O1101	O110	0.488040	0.743560	0.191960
O1111	O111	0.454300	0.717300	0.973100
O1121	O112	0.820080	0.486320	0.577200
O1131	O113	0.743560	0.488040	0.576440
O1141	O114	0.717300	0.454300	0.855300
O1151	O115	0.577200	0.116400	0.820080
O1161	O116	0.576440	0.191960	0.743560
O1171	O117	0.855300	0.973100	0.717300
O1181	O118	0.116400	0.577200	0.486320
O1191	O119	0.191960	0.576440	0.488040
O1201	O120	0.973100	0.855300	0.454300
O1211	O121	0.116400	0.820080	0.577200
O1221	O122	0.191960	0.743560	0.576440
O1231	O123	0.973100	0.717300	0.855300
O1241	O124	0.577200	0.486320	0.116400
O1251	O125	0.576440	0.488040	0.191960
O1261	O126	0.855300	0.454300	0.973100
O1271	O127	0.820080	0.116400	0.486320
O1281	O128	0.743560	0.191960	0.488040
O1291	O129	0.717300	0.973100	0.454300
O1301	O130	0.486320	0.577200	0.820080
O1311	O131	0.488040	0.576440	0.743560
O1321	O132	0.454300	0.855300	0.717300
O1331	O133	0.577200	0.820080	0.486320
O1341	O134	0.576440	0.743560	0.488040
O1351	O135	0.855300	0.717300	0.454300
O1361	O136	0.116400	0.486320	0.820080
O1371	O137	0.191960	0.488040	0.743560
O1381	O138	0.973100	0.454300	0.717300
O1391	O139	0.486320	0.116400	0.577200
O1401	O140	0.488040	0.191960	0.576440
O1411	O141	0.454300	0.973100	0.855300
O1421	O142	0.820080	0.577200	0.116400
O1431	O143	0.743560	0.576440	0.191960
O1441	O144	0.717300	0.855300	0.973100
