data_SOBZOY_clean_PM
_symmetry_space_group_name_H-M	'P1'
_cell_length_a	11.348000
_cell_length_b	7.652000
_cell_length_c	7.042000
_cell_angle_alpha	90.000000
_cell_angle_beta	106.070000
_cell_angle_gamma	90.000000
_symmetry_Int_Tables_number 1

loop_
_symmetry_equiv_pos_as_xyz
'x,y,z'

loop_
_atom_site_label
_atom_site_type_symbol
_atom_site_fract_x
_atom_site_fract_y
_atom_site_fract_z
N11	N1	0.941700	0.221600	0.188300
C11	C1	0.961300	0.328500	0.305700
N21	N2	0.058300	0.221600	0.811700
C21	C2	0.038700	0.328500	0.694300
N31	N3	0.058300	0.778400	0.811700
C31	C3	0.038700	0.671500	0.694300
N41	N4	0.941700	0.778400	0.188300
C41	C4	0.961300	0.671500	0.305700
Cd11	Cd1	0.000000	0.000000	0.000000
Ni11	Ni1	0.000000	0.500000	0.500000
N51	N5	0.195900	0.000000	0.210600
C51	C5	0.211200	0.000000	0.427300
C61	C6	0.343000	0.000000	0.548400
C71	C7	0.358800	0.000000	0.768700
C81	C8	0.493500	0.000000	0.887300
N61	N6	0.804100	0.000000	0.789400
C91	C9	0.788800	0.000000	0.572700
C101	C10	0.657000	0.000000	0.451600
C111	C11	0.641200	0.000000	0.231300
C121	C12	0.506500	0.000000	0.112700
