data_SOCKOM_clean_PM
_symmetry_space_group_name_H-M	'P1'
_cell_length_a	10.188400
_cell_length_b	10.188400
_cell_length_c	11.733200
_cell_angle_alpha	85.062000
_cell_angle_beta	85.062000
_cell_angle_gamma	70.541400
_symmetry_Int_Tables_number 1

loop_
_symmetry_equiv_pos_as_xyz
'x,y,z'

loop_
_atom_site_label
_atom_site_type_symbol
_atom_site_fract_x
_atom_site_fract_y
_atom_site_fract_z
Cd11	Cd1	0.978250	0.021750	0.000000
Cd21	Cd2	0.786080	0.213920	0.500000
H11	H1	0.360700	0.610100	0.669900
H21	H2	0.136800	0.165400	0.350500
H31	H3	0.383200	0.077800	0.721700
H41	H4	0.683500	0.056700	0.141700
H51	H5	0.939600	0.936000	0.372200
H61	H6	0.303800	0.160400	0.474500
H71	H7	0.064000	0.060400	0.627800
H81	H8	0.922200	0.616800	0.278300
H91	H9	0.018500	0.732500	0.139100
H101	H10	0.264100	0.869900	0.635300
H111	H11	0.943300	0.316500	0.858300
H121	H12	0.541700	0.410700	0.663500
H131	H13	0.689600	0.719000	0.340500
H141	H14	0.834600	0.863200	0.649500
H151	H15	0.589300	0.458300	0.336500
H161	H16	0.281000	0.310400	0.659500
H171	H17	0.267500	0.981500	0.860900
H181	H18	0.389900	0.639300	0.330100
H191	H19	0.839600	0.696200	0.525500
H201	H20	0.432400	0.913400	0.149100
H211	H21	0.130100	0.735900	0.364700
H221	H22	0.086600	0.567600	0.850900
C11	C1	0.422000	0.597600	0.400600
C21	C2	0.574900	0.062500	0.456500
C31	C3	0.028200	0.489400	0.717500
C41	C4	0.968100	0.841700	0.839600
C51	C5	0.034500	0.593300	0.786500
C61	C6	0.294900	0.129500	0.750800
C71	C7	0.158300	0.031900	0.160400
C81	C8	0.928000	0.776400	0.168500
C91	C9	0.513900	0.461300	0.594800
C101	C10	0.964200	0.733000	0.760000
C111	C11	0.406700	0.965500	0.213500
C121	C12	0.885900	0.669300	0.593000
C131	C13	0.729900	0.965700	0.168400
C141	C14	0.200400	0.879000	0.580500
C151	C15	0.953300	0.528500	0.620300
C161	C16	0.222900	0.777100	0.500000
C171	C17	0.402400	0.578000	0.599400
C181	C18	0.350400	0.649600	0.500000
C191	C19	0.267000	0.035800	0.240000
C201	C20	0.229700	0.113300	0.334600
C211	C21	0.471500	0.046700	0.379700
C221	C22	0.732600	0.767000	0.287300
C231	C23	0.330700	0.114100	0.407000
C241	C24	0.121000	0.799600	0.419500
C251	C25	0.006200	0.921000	0.425600
C261	C26	0.659100	0.900300	0.246200
C271	C27	0.870500	0.705100	0.249200
C281	C28	0.079000	0.993800	0.574400
C291	C29	0.886700	0.770300	0.665400
C301	C30	0.937500	0.425100	0.543500
C311	C31	0.223600	0.072000	0.831500
C321	C32	0.099700	0.340900	0.753800
C331	C33	0.538700	0.486100	0.405200
C341	C34	0.510600	0.971800	0.282500
C351	C35	0.233000	0.267400	0.712700
C361	C36	0.034300	0.270100	0.831600
N11	N1	0.094900	0.137900	0.870600
N21	N2	0.862100	0.905100	0.129400
N31	N3	0.586400	0.413600	0.500000
N41	N4	0.984200	0.015800	0.500000
O11	O1	0.960200	0.445000	0.438800
O21	O2	0.190150	0.937550	0.093200
O31	O3	0.671640	0.101840	0.410200
O41	O4	0.555000	0.039800	0.561200
O51	O5	0.040100	0.123100	0.165700
O61	O6	0.876900	0.959900	0.834300
O71	O7	0.062450	0.809850	0.906800
O81	O8	0.898160	0.328360	0.589800
