data_SOCPOQ_charged_PM
_symmetry_space_group_name_H-M	'P1'
_cell_length_a	21.445700
_cell_length_b	21.445700
_cell_length_c	21.445700
_cell_angle_alpha	109.471000
_cell_angle_beta	109.471000
_cell_angle_gamma	109.471000
_symmetry_Int_Tables_number 1

loop_
_symmetry_equiv_pos_as_xyz
'x,y,z'

loop_
_atom_site_label
_atom_site_type_symbol
_atom_site_fract_x
_atom_site_fract_y
_atom_site_fract_z
Cd11	Cd1	0.500000	0.500000	0.000000
Cd21	Cd2	0.000000	0.500000	0.500000
Cd31	Cd3	0.500000	0.000000	0.500000
Cd41	Cd4	0.000000	0.000000	0.000000
H11	H1	0.861200	0.540800	0.154400
H21	H2	0.580100	0.421200	0.087700
H31	H3	0.689000	0.417000	0.137200
H41	H4	0.792900	0.589600	0.102900
H51	H5	0.679400	0.589200	0.054200
H61	H6	0.972500	0.599700	0.266400
H71	H7	0.886400	0.706800	0.345600
H81	H8	0.833500	0.492400	0.412300
H91	H9	0.779800	0.551800	0.362800
H101	H10	0.986700	0.690000	0.397100
H111	H11	0.035000	0.625200	0.445800
H121	H12	0.833300	0.706100	0.233600
H131	H13	0.613600	0.959200	0.820400
H141	H14	0.666500	0.078800	0.658900
H151	H15	0.720200	0.083000	0.772000
H161	H16	0.513300	0.910400	0.703300
H171	H17	0.465000	0.910800	0.590200
H181	H18	0.666700	0.900300	0.872800
H191	H19	0.638800	0.793200	0.679600
H201	H20	0.919900	0.007600	0.841100
H211	H21	0.811000	0.948200	0.728000
H221	H22	0.707100	0.810000	0.796700
H231	H23	0.820600	0.874800	0.909800
H241	H24	0.527500	0.793900	0.627200
H251	H25	0.320400	0.613600	0.459200
H261	H26	0.158900	0.666500	0.578800
H271	H27	0.272000	0.720200	0.583000
H281	H28	0.203300	0.513300	0.410400
H291	H29	0.090200	0.465000	0.410800
H301	H30	0.372800	0.666700	0.400300
H311	H31	0.179600	0.638800	0.293200
H321	H32	0.341100	0.919900	0.507600
H331	H33	0.228000	0.811000	0.448200
H341	H34	0.296700	0.707100	0.310000
H351	H35	0.409800	0.820600	0.374800
H361	H36	0.127200	0.527500	0.293900
H371	H37	0.654400	0.861200	0.040800
H381	H38	0.587700	0.580100	0.921200
H391	H39	0.637200	0.689000	0.917000
H401	H40	0.602900	0.792900	0.089600
H411	H41	0.554200	0.679400	0.089200
H421	H42	0.766400	0.972500	0.099700
H431	H43	0.845600	0.886400	0.206800
H441	H44	0.912300	0.833500	0.992400
H451	H45	0.862800	0.779800	0.051800
H461	H46	0.897100	0.986700	0.190000
H471	H47	0.945800	0.035000	0.125200
H481	H48	0.733600	0.833300	0.206100
H491	H49	0.706800	0.845600	0.386400
H501	H50	0.492400	0.912300	0.333500
H511	H51	0.551800	0.862800	0.279800
H521	H52	0.690000	0.897100	0.486700
H531	H53	0.625200	0.945800	0.535000
H541	H54	0.706100	0.733600	0.333300
H551	H55	0.540800	0.654400	0.361200
H561	H56	0.421200	0.587700	0.080100
H571	H57	0.417000	0.637200	0.189000
H581	H58	0.589600	0.602900	0.292900
H591	H59	0.589200	0.554200	0.179400
H601	H60	0.599700	0.766400	0.472500
H611	H61	0.793200	0.179600	0.138800
H621	H62	0.007600	0.341100	0.419900
H631	H63	0.948200	0.228000	0.311000
H641	H64	0.810000	0.296700	0.207100
H651	H65	0.874800	0.409800	0.320600
H661	H66	0.793900	0.127200	0.027500
H671	H67	0.959200	0.320400	0.113600
H681	H68	0.078800	0.158900	0.166500
H691	H69	0.083000	0.272000	0.220200
H701	H70	0.910400	0.203300	0.013300
H711	H71	0.910800	0.090200	0.965000
H721	H72	0.900300	0.372800	0.166700
H731	H73	0.138800	0.459200	0.845600
H741	H74	0.419900	0.578800	0.912300
H751	H75	0.311000	0.583000	0.862800
H761	H76	0.207100	0.410400	0.897100
H771	H77	0.320600	0.410800	0.945800
H781	H78	0.027500	0.400300	0.733600
H791	H79	0.113600	0.293200	0.654400
H801	H80	0.166500	0.507600	0.587700
H811	H81	0.220200	0.448200	0.637200
H821	H82	0.013300	0.310000	0.602900
H831	H83	0.965000	0.374800	0.554200
H841	H84	0.166700	0.293900	0.766400
H851	H85	0.386400	0.040800	0.179600
H861	H86	0.333500	0.921200	0.341100
H871	H87	0.279800	0.917000	0.228000
H881	H88	0.486700	0.089600	0.296700
H891	H89	0.535000	0.089200	0.409800
H901	H90	0.333300	0.099700	0.127200
H911	H91	0.361200	0.206800	0.320400
H921	H92	0.080100	0.992400	0.158900
H931	H93	0.189000	0.051800	0.272000
H941	H94	0.292900	0.190000	0.203300
H951	H95	0.179400	0.125200	0.090200
H961	H96	0.472500	0.206100	0.372800
H971	H97	0.679600	0.386400	0.540800
H981	H98	0.841100	0.333500	0.421200
H991	H99	0.728000	0.279800	0.417000
H1001	H100	0.796700	0.486700	0.589600
H1011	H101	0.909800	0.535000	0.589200
H1021	H102	0.627200	0.333300	0.599700
H1031	H103	0.820400	0.361200	0.706800
H1041	H104	0.658900	0.080100	0.492400
H1051	H105	0.772000	0.189000	0.551800
H1061	H106	0.703300	0.292900	0.690000
H1071	H107	0.590200	0.179400	0.625200
H1081	H108	0.872800	0.472500	0.706100
H1091	H109	0.345600	0.138800	0.959200
H1101	H110	0.412300	0.419900	0.078800
H1111	H111	0.362800	0.311000	0.083000
H1121	H112	0.397100	0.207100	0.910400
H1131	H113	0.445800	0.320600	0.910800
H1141	H114	0.233600	0.027500	0.900300
H1151	H115	0.154400	0.113600	0.793200
H1161	H116	0.087700	0.166500	0.007600
H1171	H117	0.137200	0.220200	0.948200
H1181	H118	0.102900	0.013300	0.810000
H1191	H119	0.054200	0.965000	0.874800
H1201	H120	0.266400	0.166700	0.793900
H1211	H121	0.293200	0.154400	0.613600
H1221	H122	0.507600	0.087700	0.666500
H1231	H123	0.448200	0.137200	0.720200
H1241	H124	0.310000	0.102900	0.513300
H1251	H125	0.374800	0.054200	0.465000
H1261	H126	0.293900	0.266400	0.666700
H1271	H127	0.459200	0.345600	0.638800
H1281	H128	0.578800	0.412300	0.919900
H1291	H129	0.583000	0.362800	0.811000
H1301	H130	0.410400	0.397100	0.707100
H1311	H131	0.410800	0.445800	0.820600
H1321	H132	0.400300	0.233600	0.527500
H1331	H133	0.206800	0.820400	0.861200
H1341	H134	0.992400	0.658900	0.580100
H1351	H135	0.051800	0.772000	0.689000
H1361	H136	0.190000	0.703300	0.792900
H1371	H137	0.125200	0.590200	0.679400
H1381	H138	0.206100	0.872800	0.972500
H1391	H139	0.040800	0.679600	0.886400
H1401	H140	0.921200	0.841100	0.833500
H1411	H141	0.917000	0.728000	0.779800
H1421	H142	0.089600	0.796700	0.986700
H1431	H143	0.089200	0.909800	0.035000
H1441	H144	0.099700	0.627200	0.833300
C11	C1	0.623390	0.456920	0.090070
C21	C2	0.689020	0.453620	0.120800
C31	C3	0.754440	0.504350	0.126410
C41	C4	0.748990	0.554490	0.100300
C51	C5	0.680700	0.553190	0.071110
C61	C6	0.843220	0.464290	0.183130
C71	C7	0.925060	0.483880	0.212440
C81	C8	0.983790	0.558860	0.257030
C91	C9	0.866850	0.533320	0.409930
C101	C10	0.832820	0.568220	0.379200
C111	C11	0.877940	0.628030	0.373590
C121	C12	0.954190	0.648690	0.399700
C131	C13	0.982080	0.609590	0.428890
C141	C14	0.781160	0.660090	0.316870
C151	C15	0.771440	0.712620	0.287560
C161	C16	0.801830	0.726760	0.242970
C171	C17	0.633150	0.043080	0.666470
C181	C18	0.667180	0.046380	0.735400
C191	C19	0.622060	0.995650	0.750090
C201	C20	0.545810	0.945510	0.694500
C211	C21	0.517920	0.946810	0.627510
C221	C22	0.718840	0.035710	0.878930
C231	C23	0.728560	0.016120	0.941180
C241	C24	0.698170	0.941140	0.924930
C251	C25	0.876610	0.966680	0.833530
C261	C26	0.810980	0.931780	0.764600
C271	C27	0.745560	0.871970	0.749910
C281	C28	0.751010	0.851310	0.805500
C291	C29	0.819300	0.890410	0.872490
C301	C30	0.656780	0.839910	0.621070
C311	C31	0.574940	0.787380	0.558820
C321	C32	0.516210	0.773240	0.575070
C331	C33	0.166470	0.633150	0.543080
C341	C34	0.235400	0.667180	0.546380
C351	C35	0.250090	0.622060	0.495650
C361	C36	0.194500	0.545810	0.445510
C371	C37	0.127510	0.517920	0.446810
C381	C38	0.378930	0.718840	0.535710
C391	C39	0.441180	0.728560	0.516120
C401	C40	0.424930	0.698170	0.441140
C411	C41	0.333530	0.876610	0.466680
C421	C42	0.264600	0.810980	0.431780
C431	C43	0.249910	0.745560	0.371970
C441	C44	0.305500	0.751010	0.351310
C451	C45	0.372490	0.819300	0.390410
C461	C46	0.121070	0.656780	0.339910
C471	C47	0.058820	0.574940	0.287380
C481	C48	0.075070	0.516210	0.273240
C491	C49	0.590070	0.623390	0.956920
C501	C50	0.620800	0.689020	0.953620
C511	C51	0.626410	0.754440	0.004350
C521	C52	0.600300	0.748990	0.054490
C531	C53	0.571110	0.680700	0.053190
C541	C54	0.683130	0.843220	0.964290
C551	C55	0.712440	0.925060	0.983880
C561	C56	0.757030	0.983790	0.058860
C571	C57	0.909930	0.866850	0.033320
C581	C58	0.879200	0.832820	0.068220
C591	C59	0.873590	0.877940	0.128030
C601	C60	0.899700	0.954190	0.148690
C611	C61	0.928890	0.982080	0.109590
C621	C62	0.816870	0.781160	0.160090
C631	C63	0.787560	0.771440	0.212620
C641	C64	0.742970	0.801830	0.226760
C651	C65	0.533320	0.909930	0.366850
C661	C66	0.568220	0.879200	0.332820
C671	C67	0.628030	0.873590	0.377940
C681	C68	0.648690	0.899700	0.454190
C691	C69	0.609590	0.928890	0.482080
C701	C70	0.660090	0.816870	0.281160
C711	C71	0.712620	0.787560	0.271440
C721	C72	0.726760	0.742970	0.301830
C731	C73	0.456920	0.590070	0.123390
C741	C74	0.453620	0.620800	0.189020
C751	C75	0.504350	0.626410	0.254440
C761	C76	0.554490	0.600300	0.248990
C771	C77	0.553190	0.571110	0.180700
C781	C78	0.464290	0.683130	0.343220
C791	C79	0.483880	0.712440	0.425060
C801	C80	0.558860	0.757030	0.483790
C811	C81	0.966680	0.333530	0.376610
C821	C82	0.931780	0.264600	0.310980
C831	C83	0.871970	0.249910	0.245560
C841	C84	0.851310	0.305500	0.251010
C851	C85	0.890410	0.372490	0.319300
C861	C86	0.839910	0.121070	0.156780
C871	C87	0.787380	0.058820	0.074940
C881	C88	0.773240	0.075070	0.016210
C891	C89	0.043080	0.166470	0.133150
C901	C90	0.046380	0.235400	0.167180
C911	C91	0.995650	0.250090	0.122060
C921	C92	0.945510	0.194500	0.045810
C931	C93	0.946810	0.127510	0.017920
C941	C94	0.035710	0.378930	0.218840
C951	C95	0.016120	0.441180	0.228560
C961	C96	0.941140	0.424930	0.198170
C971	C97	0.376610	0.543080	0.909930
C981	C98	0.310980	0.546380	0.879200
C991	C99	0.245560	0.495650	0.873590
C1001	C100	0.251010	0.445510	0.899700
C1011	C101	0.319300	0.446810	0.928890
C1021	C102	0.156780	0.535710	0.816870
C1031	C103	0.074940	0.516120	0.787560
C1041	C104	0.016210	0.441140	0.742970
C1051	C105	0.133150	0.466680	0.590070
C1061	C106	0.167180	0.431780	0.620800
C1071	C107	0.122060	0.371970	0.626410
C1081	C108	0.045810	0.351310	0.600300
C1091	C109	0.017920	0.390410	0.571110
C1101	C110	0.218840	0.339910	0.683130
C1111	C111	0.228560	0.287380	0.712440
C1121	C112	0.198170	0.273240	0.757030
C1131	C113	0.366850	0.956920	0.333530
C1141	C114	0.332820	0.953620	0.264600
C1151	C115	0.377940	0.004350	0.249910
C1161	C116	0.454190	0.054490	0.305500
C1171	C117	0.482080	0.053190	0.372490
C1181	C118	0.281160	0.964290	0.121070
C1191	C119	0.271440	0.983880	0.058820
C1201	C120	0.301830	0.058860	0.075070
C1211	C121	0.123390	0.033320	0.166470
C1221	C122	0.189020	0.068220	0.235400
C1231	C123	0.254440	0.128030	0.250090
C1241	C124	0.248990	0.148690	0.194500
C1251	C125	0.180700	0.109590	0.127510
C1261	C126	0.343220	0.160090	0.378930
C1271	C127	0.425060	0.212620	0.441180
C1281	C128	0.483790	0.226760	0.424930
C1291	C129	0.833530	0.366850	0.456920
C1301	C130	0.764600	0.332820	0.453620
C1311	C131	0.749910	0.377940	0.504350
C1321	C132	0.805500	0.454190	0.554490
C1331	C133	0.872490	0.482080	0.553190
C1341	C134	0.621070	0.281160	0.464290
C1351	C135	0.558820	0.271440	0.483880
C1361	C136	0.575070	0.301830	0.558860
C1371	C137	0.666470	0.123390	0.533320
C1381	C138	0.735400	0.189020	0.568220
C1391	C139	0.750090	0.254440	0.628030
C1401	C140	0.694500	0.248990	0.648690
C1411	C141	0.627510	0.180700	0.609590
C1421	C142	0.878930	0.343220	0.660090
C1431	C143	0.941180	0.425060	0.712620
C1441	C144	0.924930	0.483790	0.726760
C1451	C145	0.409930	0.376610	0.043080
C1461	C146	0.379200	0.310980	0.046380
C1471	C147	0.373590	0.245560	0.995650
C1481	C148	0.399700	0.251010	0.945510
C1491	C149	0.428890	0.319300	0.946810
C1501	C150	0.316870	0.156780	0.035710
C1511	C151	0.287560	0.074940	0.016120
C1521	C152	0.242970	0.016210	0.941140
C1531	C153	0.090070	0.133150	0.966680
C1541	C154	0.120800	0.167180	0.931780
C1551	C155	0.126410	0.122060	0.871970
C1561	C156	0.100300	0.045810	0.851310
C1571	C157	0.071110	0.017920	0.890410
C1581	C158	0.183130	0.218840	0.839910
C1591	C159	0.212440	0.228560	0.787380
C1601	C160	0.257030	0.198170	0.773240
C1611	C161	0.466680	0.090070	0.633150
C1621	C162	0.431780	0.120800	0.667180
C1631	C163	0.371970	0.126410	0.622060
C1641	C164	0.351310	0.100300	0.545810
C1651	C165	0.390410	0.071110	0.517920
C1661	C166	0.339910	0.183130	0.718840
C1671	C167	0.287380	0.212440	0.728560
C1681	C168	0.273240	0.257030	0.698170
C1691	C169	0.543080	0.409930	0.876610
C1701	C170	0.546380	0.379200	0.810980
C1711	C171	0.495650	0.373590	0.745560
C1721	C172	0.445510	0.399700	0.751010
C1731	C173	0.446810	0.428890	0.819300
C1741	C174	0.535710	0.316870	0.656780
C1751	C175	0.516120	0.287560	0.574940
C1761	C176	0.441140	0.242970	0.516210
C1771	C177	0.033320	0.666470	0.623390
C1781	C178	0.068220	0.735400	0.689020
C1791	C179	0.128030	0.750090	0.754440
C1801	C180	0.148690	0.694500	0.748990
C1811	C181	0.109590	0.627510	0.680700
C1821	C182	0.160090	0.878930	0.843220
C1831	C183	0.212620	0.941180	0.925060
C1841	C184	0.226760	0.924930	0.983790
C1851	C185	0.956920	0.833530	0.866850
C1861	C186	0.953620	0.764600	0.832820
C1871	C187	0.004350	0.749910	0.877940
C1881	C188	0.054490	0.805500	0.954190
C1891	C189	0.053190	0.872490	0.982080
C1901	C190	0.964290	0.621070	0.781160
C1911	C191	0.983880	0.558820	0.771440
C1921	C192	0.058860	0.575070	0.801830
N11	N1	0.617020	0.504380	0.064660
N21	N2	0.824550	0.507050	0.154880
N31	N3	0.939720	0.552360	0.435340
N41	N4	0.852170	0.669670	0.345120
N51	N5	0.560280	0.995620	0.612640
N61	N6	0.647830	0.992950	0.817500
N71	N7	0.882980	0.947640	0.887360
N81	N8	0.675450	0.830330	0.682500
N91	N9	0.112640	0.560280	0.495620
N101	N10	0.317500	0.647830	0.492950
N111	N11	0.387360	0.882980	0.447640
N121	N12	0.182500	0.675450	0.330330
N131	N13	0.564660	0.617020	0.004380
N141	N14	0.654880	0.824550	0.007050
N151	N15	0.935340	0.939720	0.052360
N161	N16	0.845120	0.852170	0.169670
N171	N17	0.552360	0.935340	0.439720
N181	N18	0.669670	0.845120	0.352170
N191	N19	0.504380	0.564660	0.117020
N201	N20	0.507050	0.654880	0.324550
N211	N21	0.947640	0.387360	0.382980
N221	N22	0.830330	0.182500	0.175450
N231	N23	0.995620	0.112640	0.060280
N241	N24	0.992950	0.317500	0.147830
N251	N25	0.382980	0.495620	0.935340
N261	N26	0.175450	0.492950	0.845120
N271	N27	0.060280	0.447640	0.564660
N281	N28	0.147830	0.330330	0.654880
N291	N29	0.439720	0.004380	0.387360
N301	N30	0.352170	0.007050	0.182500
N311	N31	0.117020	0.052360	0.112640
N321	N32	0.324550	0.169670	0.317500
N331	N33	0.887360	0.439720	0.504380
N341	N34	0.682500	0.352170	0.507050
N351	N35	0.612640	0.117020	0.552360
N361	N36	0.817500	0.324550	0.669670
N371	N37	0.435340	0.382980	0.995620
N381	N38	0.345120	0.175450	0.992950
N391	N39	0.064660	0.060280	0.947640
N401	N40	0.154880	0.147830	0.830330
N411	N41	0.447640	0.064660	0.560280
N421	N42	0.330330	0.154880	0.647830
N431	N43	0.495620	0.435340	0.882980
N441	N44	0.492950	0.345120	0.675450
N451	N45	0.052360	0.612640	0.617020
N461	N46	0.169670	0.817500	0.824550
N471	N47	0.004380	0.887360	0.939720
N481	N48	0.007050	0.682500	0.852170
O11	O1	0.798530	0.413090	0.185440
O21	O2	0.727650	0.613090	0.314560
O31	O3	0.772350	0.086910	0.885440
O41	O4	0.701470	0.886910	0.614560
O51	O5	0.385440	0.772350	0.586910
O61	O6	0.114560	0.701470	0.386910
O71	O7	0.685440	0.798530	0.913090
O81	O8	0.814560	0.727650	0.113090
O91	O9	0.613090	0.814560	0.227650
O101	O10	0.413090	0.685440	0.298530
O111	O11	0.886910	0.114560	0.201470
O121	O12	0.086910	0.385440	0.272350
O131	O13	0.201470	0.586910	0.814560
O141	O14	0.272350	0.386910	0.685440
O151	O15	0.227650	0.913090	0.114560
O161	O16	0.298530	0.113090	0.385440
O171	O17	0.614560	0.227650	0.413090
O181	O18	0.885440	0.298530	0.613090
O191	O19	0.314560	0.201470	0.086910
O201	O20	0.185440	0.272350	0.886910
O211	O21	0.386910	0.185440	0.772350
O221	O22	0.586910	0.314560	0.701470
O231	O23	0.113090	0.885440	0.798530
O241	O24	0.913090	0.614560	0.727650
Cl11	Cl1	0.499040	0.249040	0.250000
O251	O25	0.549500	0.307300	0.327400
O261	O26	0.543000	0.215800	0.232800
O271	O27	0.479900	0.222100	0.172600
O281	O28	0.483000	0.310200	0.267200
Cl21	Cl2	0.000960	0.250960	0.750000
O291	O29	0.020100	0.192700	0.742200
O301	O30	0.017000	0.284200	0.827200
O311	O31	0.950500	0.277900	0.757800
O321	O32	0.957000	0.189800	0.672800
Cl31	Cl3	0.250000	0.000960	0.750960
O331	O33	0.242200	0.020100	0.692700
O341	O34	0.327200	0.017000	0.784200
O351	O35	0.257800	0.950500	0.777900
O361	O36	0.172800	0.957000	0.689800
Cl41	Cl4	0.750000	0.499040	0.749040
O371	O37	0.827400	0.549500	0.807300
O381	O38	0.732800	0.543000	0.715800
O391	O39	0.672600	0.479900	0.722100
O401	O40	0.767200	0.483000	0.810200
Cl51	Cl5	0.249040	0.750000	0.999040
O411	O41	0.222100	0.672600	0.979900
O421	O42	0.310200	0.767200	0.983000
O431	O43	0.307300	0.827400	0.049500
O441	O44	0.215800	0.732800	0.043000
Cl61	Cl6	0.250960	0.250000	0.500960
O451	O45	0.277900	0.257800	0.450500
O461	O46	0.189800	0.172800	0.457000
O471	O47	0.192700	0.242200	0.520100
O481	O48	0.284200	0.327200	0.517000
Cl71	Cl7	0.500960	0.750960	0.750000
O491	O49	0.450500	0.692700	0.672600
O501	O50	0.457000	0.784200	0.767200
O511	O51	0.520100	0.777900	0.827400
O521	O52	0.517000	0.689800	0.732800
Cl81	Cl8	0.999040	0.749040	0.250000
O531	O53	0.979900	0.807300	0.257800
O541	O54	0.983000	0.715800	0.172800
O551	O55	0.049500	0.722100	0.242200
O561	O56	0.043000	0.810200	0.327200
Cl91	Cl9	0.750000	0.999040	0.249040
O571	O57	0.757800	0.979900	0.307300
O581	O58	0.672800	0.983000	0.215800
O591	O59	0.742200	0.049500	0.222100
O601	O60	0.827200	0.043000	0.310200
Cl101	Cl10	0.250000	0.500960	0.250960
O611	O61	0.172600	0.450500	0.192700
O621	O62	0.267200	0.457000	0.284200
O631	O63	0.327400	0.520100	0.277900
O641	O64	0.232800	0.517000	0.189800
Cl111	Cl11	0.750960	0.250000	0.000960
O651	O65	0.777900	0.327400	0.020100
O661	O66	0.689800	0.232800	0.017000
O671	O67	0.692700	0.172600	0.950500
O681	O68	0.784200	0.267200	0.957000
Cl121	Cl12	0.749040	0.750000	0.499040
O691	O69	0.722100	0.742200	0.549500
O701	O70	0.810200	0.827200	0.543000
O711	O71	0.807300	0.757800	0.479900
O721	O72	0.715800	0.672800	0.483000
