data_SOCWOX_clean_PM
_symmetry_space_group_name_H-M	'P1'
_cell_length_a	13.908000
_cell_length_b	8.409000
_cell_length_c	13.042000
_cell_angle_alpha	90.000000
_cell_angle_beta	90.000000
_cell_angle_gamma	90.000000
_symmetry_Int_Tables_number 1

loop_
_symmetry_equiv_pos_as_xyz
'x,y,z'

loop_
_atom_site_label
_atom_site_type_symbol
_atom_site_fract_x
_atom_site_fract_y
_atom_site_fract_z
C11	C1	0.112900	0.031500	0.080600
C21	C2	0.039100	0.063600	0.996200
H11	H1	0.010500	0.168800	0.006700
C31	C3	0.088500	0.058600	0.891300
H21	H2	0.040100	0.068800	0.838200
H31	H3	0.119300	0.955900	0.882900
C41	C4	0.162900	0.187700	0.877000
O11	O1	0.124200	0.124100	0.152600
O21	O2	0.161900	0.905800	0.077300
O31	O3	0.163200	0.301500	0.936700
O41	O4	0.220400	0.173700	0.803200
O51	O5	0.212100	0.461700	0.282400
C51	C5	0.387100	0.968500	0.080600
C61	C6	0.460900	0.936400	0.996200
H41	H4	0.489500	0.831200	0.006700
C71	C7	0.411500	0.941400	0.891300
H51	H5	0.459900	0.931200	0.838200
H61	H6	0.380700	0.044100	0.882900
C81	C8	0.337100	0.812300	0.877000
O61	O6	0.375800	0.875900	0.152600
O71	O7	0.338100	0.094200	0.077300
O81	O8	0.336800	0.698500	0.936700
O91	O9	0.279600	0.826300	0.803200
O101	O10	0.287900	0.538300	0.282400
C91	C9	0.887100	0.031500	0.419400
C101	C10	0.960900	0.063600	0.503800
H71	H7	0.989500	0.168800	0.493300
C111	C11	0.911500	0.058600	0.608700
H81	H8	0.959900	0.068800	0.661800
H91	H9	0.880700	0.955900	0.617100
C121	C12	0.837100	0.187700	0.623000
O111	O11	0.875800	0.124100	0.347400
O121	O12	0.838100	0.905800	0.422700
O131	O13	0.836800	0.301500	0.563300
O141	O14	0.779600	0.173700	0.696800
O151	O15	0.787900	0.461700	0.217600
C131	C13	0.612900	0.968500	0.419400
C141	C14	0.539100	0.936400	0.503800
H101	H10	0.510500	0.831200	0.493300
C151	C15	0.588500	0.941400	0.608700
H111	H11	0.540100	0.931200	0.661800
H121	H12	0.619300	0.044100	0.617100
C161	C16	0.662900	0.812300	0.623000
O161	O16	0.624200	0.875900	0.347400
O171	O17	0.661900	0.094200	0.422700
O181	O18	0.663200	0.698500	0.563300
O191	O19	0.720400	0.826300	0.696800
O201	O20	0.712100	0.538300	0.217600
C171	C17	0.887100	0.968500	0.919400
C181	C18	0.960900	0.936400	0.003800
H131	H13	0.989500	0.831200	0.993300
C191	C19	0.911500	0.941400	0.108700
H141	H14	0.959900	0.931200	0.161800
H151	H15	0.880700	0.044100	0.117100
C201	C20	0.837100	0.812300	0.123000
O211	O21	0.875800	0.875900	0.847400
O221	O22	0.838100	0.094200	0.922700
O231	O23	0.836800	0.698500	0.063300
O241	O24	0.779600	0.826300	0.196800
O251	O25	0.787900	0.538300	0.717600
C211	C21	0.612900	0.031500	0.919400
C221	C22	0.539100	0.063600	0.003800
H161	H16	0.510500	0.168800	0.993300
C231	C23	0.588500	0.058600	0.108700
H171	H17	0.540100	0.068800	0.161800
H181	H18	0.619300	0.955900	0.117100
C241	C24	0.662900	0.187700	0.123000
O261	O26	0.624200	0.124100	0.847400
O271	O27	0.661900	0.905800	0.922700
O281	O28	0.663200	0.301500	0.063300
O291	O29	0.720400	0.173700	0.196800
O301	O30	0.712100	0.461700	0.717600
C251	C25	0.112900	0.968500	0.580600
C261	C26	0.039100	0.936400	0.496200
H191	H19	0.010500	0.831200	0.506700
C271	C27	0.088500	0.941400	0.391300
H201	H20	0.040100	0.931200	0.338200
H211	H21	0.119300	0.044100	0.382900
C281	C28	0.162900	0.812300	0.377000
O311	O31	0.124200	0.875900	0.652600
O321	O32	0.161900	0.094200	0.577300
O331	O33	0.163200	0.698500	0.436700
O341	O34	0.220400	0.826300	0.303200
O351	O35	0.212100	0.538300	0.782400
C291	C29	0.387100	0.031500	0.580600
C301	C30	0.460900	0.063600	0.496200
H221	H22	0.489500	0.168800	0.506700
C311	C31	0.411500	0.058600	0.391300
H231	H23	0.459900	0.068800	0.338200
H241	H24	0.380700	0.955900	0.382900
C321	C32	0.337100	0.187700	0.377000
O361	O36	0.375800	0.124100	0.652600
O371	O37	0.338100	0.905800	0.577300
O381	O38	0.336800	0.301500	0.436700
O391	O39	0.279600	0.173700	0.303200
O401	O40	0.287900	0.461700	0.782400
Zn11	Zn1	0.250000	0.000000	0.205780
Zn21	Zn2	0.750000	0.000000	0.294220
Zn31	Zn3	0.750000	0.000000	0.794220
Zn41	Zn4	0.250000	0.000000	0.705780
Zn51	Zn5	0.250000	0.500000	0.930790
Zn61	Zn6	0.750000	0.500000	0.569210
Zn71	Zn7	0.750000	0.500000	0.069210
Zn81	Zn8	0.250000	0.500000	0.430790
