data_SOHBUO_clean_PM
_symmetry_space_group_name_H-M	'P1'
_cell_length_a	13.631000
_cell_length_b	16.780400
_cell_length_c	10.926100
_cell_angle_alpha	90.000000
_cell_angle_beta	115.623000
_cell_angle_gamma	90.000000
_symmetry_Int_Tables_number 1

loop_
_symmetry_equiv_pos_as_xyz
'x,y,z'

loop_
_atom_site_label
_atom_site_type_symbol
_atom_site_fract_x
_atom_site_fract_y
_atom_site_fract_z
Ag11	Ag1	0.552860	0.557420	0.830750
C11	C1	0.638400	0.553800	0.608600
H11	H1	0.675500	0.529500	0.557500
H21	H2	0.677700	0.603300	0.651600
C21	C2	0.465200	0.444590	0.552800
H31	H3	0.425900	0.395100	0.509500
H41	H4	0.427700	0.469100	0.603300
N11	N1	0.641200	0.497750	0.715200
N21	N2	0.463300	0.500170	0.447400
C31	C3	0.827200	0.439100	0.769500
C41	C4	0.280800	0.561600	0.402300
C51	C5	0.949900	0.441500	0.656300
H51	H5	0.986700	0.470800	0.614500
C61	C6	0.209500	0.686600	0.435500
C71	C7	0.164600	0.566300	0.514000
H61	H6	0.128000	0.539000	0.558300
C81	C8	0.522800	0.573500	0.512800
H71	H7	0.486400	0.599700	0.563300
H81	H8	0.522100	0.611100	0.442500
C91	C9	0.350600	0.517600	0.345400
H91	H9	0.314300	0.466700	0.304900
H101	H10	0.354100	0.550200	0.271900
C101	C10	0.581500	0.424500	0.650400
H111	H11	0.581500	0.387400	0.720900
H121	H12	0.618100	0.397800	0.600700
C111	C11	0.906100	0.318200	0.729600
C121	C12	0.754900	0.481700	0.818400
H131	H13	0.789300	0.533400	0.857500
H141	H14	0.751300	0.450100	0.892700
C131	C13	0.839100	0.357600	0.779100
H151	H15	0.801700	0.327600	0.819500
C141	C14	0.270800	0.645100	0.384200
H161	H16	0.305700	0.672200	0.337600
C151	C15	0.883600	0.481400	0.706100
H171	H17	0.876300	0.537700	0.697200
C161	C16	0.917600	0.234200	0.743700
C171	C17	0.961200	0.360600	0.668200
H181	H18	0.005900	0.333500	0.635100
C181	C18	0.224900	0.522900	0.462400
H191	H19	0.227300	0.466400	0.468800
C191	C19	0.199500	0.772700	0.420500
N31	N3	0.190800	0.839700	0.413100
N41	N4	0.928200	0.165700	0.756700
C201	C20	0.156600	0.647900	0.502700
H201	H20	0.116000	0.677100	0.539700
Ag21	Ag2	0.052860	0.057420	0.830750
C211	C21	0.138400	0.053800	0.608600
H211	H21	0.175500	0.029500	0.557500
H221	H22	0.177700	0.103300	0.651600
C221	C22	0.965200	0.944590	0.552800
H231	H23	0.925900	0.895100	0.509500
H241	H24	0.927700	0.969100	0.603300
N51	N5	0.141200	0.997750	0.715200
N61	N6	0.963300	0.000170	0.447400
C231	C23	0.327200	0.939100	0.769500
C241	C24	0.780800	0.061600	0.402300
C251	C25	0.449900	0.941500	0.656300
H251	H25	0.486700	0.970800	0.614500
C261	C26	0.709500	0.186600	0.435500
C271	C27	0.664600	0.066300	0.514000
H261	H26	0.628000	0.039000	0.558300
C281	C28	0.022800	0.073500	0.512800
H271	H27	0.986400	0.099700	0.563300
H281	H28	0.022100	0.111100	0.442500
C291	C29	0.850600	0.017600	0.345400
H291	H29	0.814300	0.966700	0.304900
H301	H30	0.854100	0.050200	0.271900
C301	C30	0.081500	0.924500	0.650400
H311	H31	0.081500	0.887400	0.720900
H321	H32	0.118100	0.897800	0.600700
C311	C31	0.406100	0.818200	0.729600
C321	C32	0.254900	0.981700	0.818400
H331	H33	0.289300	0.033400	0.857500
H341	H34	0.251300	0.950100	0.892700
C331	C33	0.339100	0.857600	0.779100
H351	H35	0.301700	0.827600	0.819500
C341	C34	0.770800	0.145100	0.384200
H361	H36	0.805700	0.172200	0.337600
C351	C35	0.383600	0.981400	0.706100
H371	H37	0.376300	0.037700	0.697200
C361	C36	0.417600	0.734200	0.743700
C371	C37	0.461200	0.860600	0.668200
H381	H38	0.505900	0.833500	0.635100
C381	C38	0.724900	0.022900	0.462400
H391	H39	0.727300	0.966400	0.468800
C391	C39	0.699500	0.272700	0.420500
N71	N7	0.690800	0.339700	0.413100
N81	N8	0.428200	0.665700	0.756700
C401	C40	0.656600	0.147900	0.502700
H401	H40	0.616000	0.177100	0.539700
Ag31	Ag3	0.552860	0.442580	0.330750
C411	C41	0.638400	0.446200	0.108600
H411	H41	0.675500	0.470500	0.057500
H421	H42	0.677700	0.396700	0.151600
C421	C42	0.465200	0.555410	0.052800
H431	H43	0.425900	0.604900	0.009500
H441	H44	0.427700	0.530900	0.103300
N91	N9	0.641200	0.502250	0.215200
N101	N10	0.463300	0.499830	0.947400
C431	C43	0.827200	0.560900	0.269500
C441	C44	0.280800	0.438400	0.902300
C451	C45	0.949900	0.558500	0.156300
H451	H45	0.986700	0.529200	0.114500
C461	C46	0.209500	0.313400	0.935500
C471	C47	0.164600	0.433700	0.014000
H461	H46	0.128000	0.461000	0.058300
C481	C48	0.522800	0.426500	0.012800
H471	H47	0.486400	0.400300	0.063300
H481	H48	0.522100	0.388900	0.942500
C491	C49	0.350600	0.482400	0.845400
H491	H49	0.314300	0.533300	0.804900
H501	H50	0.354100	0.449800	0.771900
C501	C50	0.581500	0.575500	0.150400
H511	H51	0.581500	0.612600	0.220900
H521	H52	0.618100	0.602200	0.100700
C511	C51	0.906100	0.681800	0.229600
C521	C52	0.754900	0.518300	0.318400
H531	H53	0.789300	0.466600	0.357500
H541	H54	0.751300	0.549900	0.392700
C531	C53	0.839100	0.642400	0.279100
H551	H55	0.801700	0.672400	0.319500
C541	C54	0.270800	0.354900	0.884200
H561	H56	0.305700	0.327800	0.837600
C551	C55	0.883600	0.518600	0.206100
H571	H57	0.876300	0.462300	0.197200
C561	C56	0.917600	0.765800	0.243700
C571	C57	0.961200	0.639400	0.168200
H581	H58	0.005900	0.666500	0.135100
C581	C58	0.224900	0.477100	0.962400
H591	H59	0.227300	0.533600	0.968800
C591	C59	0.199500	0.227300	0.920500
N111	N11	0.190800	0.160300	0.913100
N121	N12	0.928200	0.834300	0.256700
C601	C60	0.156600	0.352100	0.002700
H601	H60	0.116000	0.322900	0.039700
Ag41	Ag4	0.052860	0.942580	0.330750
C611	C61	0.138400	0.946200	0.108600
H611	H61	0.175500	0.970500	0.057500
H621	H62	0.177700	0.896700	0.151600
C621	C62	0.965200	0.055410	0.052800
H631	H63	0.925900	0.104900	0.009500
H641	H64	0.927700	0.030900	0.103300
N131	N13	0.141200	0.002250	0.215200
N141	N14	0.963300	0.999830	0.947400
C631	C63	0.327200	0.060900	0.269500
C641	C64	0.780800	0.938400	0.902300
C651	C65	0.449900	0.058500	0.156300
H651	H65	0.486700	0.029200	0.114500
C661	C66	0.709500	0.813400	0.935500
C671	C67	0.664600	0.933700	0.014000
H661	H66	0.628000	0.961000	0.058300
C681	C68	0.022800	0.926500	0.012800
H671	H67	0.986400	0.900300	0.063300
H681	H68	0.022100	0.888900	0.942500
C691	C69	0.850600	0.982400	0.845400
H691	H69	0.814300	0.033300	0.804900
H701	H70	0.854100	0.949800	0.771900
C701	C70	0.081500	0.075500	0.150400
H711	H71	0.081500	0.112600	0.220900
H721	H72	0.118100	0.102200	0.100700
C711	C71	0.406100	0.181800	0.229600
C721	C72	0.254900	0.018300	0.318400
H731	H73	0.289300	0.966600	0.357500
H741	H74	0.251300	0.049900	0.392700
C731	C73	0.339100	0.142400	0.279100
H751	H75	0.301700	0.172400	0.319500
C741	C74	0.770800	0.854900	0.884200
H761	H76	0.805700	0.827800	0.837600
C751	C75	0.383600	0.018600	0.206100
H771	H77	0.376300	0.962300	0.197200
C761	C76	0.417600	0.265800	0.243700
C771	C77	0.461200	0.139400	0.168200
H781	H78	0.505900	0.166500	0.135100
C781	C78	0.724900	0.977100	0.962400
H791	H79	0.727300	0.033600	0.968800
C791	C79	0.699500	0.727300	0.920500
N151	N15	0.690800	0.660300	0.913100
N161	N16	0.428200	0.334300	0.256700
C801	C80	0.656600	0.852100	0.002700
H801	H80	0.616000	0.822900	0.039700
