data_SOHMIM_clean_PM
_symmetry_space_group_name_H-M	'P1'
_cell_length_a	27.749000
_cell_length_b	13.817000
_cell_length_c	44.362000
_cell_angle_alpha	90.000000
_cell_angle_beta	90.000000
_cell_angle_gamma	90.000000
_symmetry_Int_Tables_number 1

loop_
_symmetry_equiv_pos_as_xyz
'x,y,z'

loop_
_atom_site_label
_atom_site_type_symbol
_atom_site_fract_x
_atom_site_fract_y
_atom_site_fract_z
Zn11	Zn1	0.975430	0.622230	0.415160
Zn21	Zn2	0.952650	0.856410	0.586140
Zn31	Zn3	0.760490	0.818290	0.318940
I11	I1	0.994350	0.695370	0.466770
I21	I2	0.925980	0.710610	0.376090
I31	I3	0.945940	0.673070	0.580130
I41	I4	0.017480	0.940410	0.616450
I51	I5	0.671290	0.817220	0.332530
I61	I6	0.804150	0.657520	0.312730
C11	C1	0.802100	0.995300	0.347780
H11	H1	0.789900	0.027200	0.330400
C21	C2	0.825100	0.050000	0.369730
H21	H2	0.828900	0.117800	0.367200
C31	C3	0.814400	0.856600	0.374450
H31	H3	0.811200	0.788400	0.376200
C41	C4	0.837300	0.905800	0.397300
H41	H4	0.849400	0.872100	0.414300
C51	C5	0.842300	0.004700	0.395080
C61	C6	0.867200	0.059900	0.418990
C71	C7	0.927900	0.867500	0.520950
H51	H5	0.923000	0.799700	0.523000
C81	C8	0.915000	0.911400	0.494110
H61	H6	0.901700	0.874700	0.478000
C91	C9	0.955900	0.012000	0.540310
H71	H7	0.971500	0.046600	0.556000
C101	C10	0.943300	0.060500	0.514320
H81	H8	0.949300	0.128000	0.512400
C111	C11	0.922000	0.010100	0.491230
C121	C12	0.906100	0.061300	0.463730
C131	C13	0.945400	0.448200	0.450580
H91	H9	0.956500	0.485500	0.467200
C141	C14	0.930400	0.355000	0.455470
H101	H10	0.931600	0.328200	0.475200
C151	C15	0.927700	0.435200	0.400160
H111	H11	0.926400	0.463600	0.380700
C161	C16	0.912100	0.342400	0.403400
H121	H12	0.900500	0.307200	0.386500
C171	C17	0.913400	0.300100	0.431680
C181	C18	0.900200	0.197500	0.436310
C191	C19	0.041500	0.570700	0.364910
H131	H13	0.012000	0.566600	0.354100
C201	C20	0.083700	0.556100	0.349390
H141	H14	0.083300	0.541900	0.328400
C211	C21	0.081900	0.594400	0.409410
H151	H15	0.081300	0.606800	0.430500
C221	C22	0.125800	0.581200	0.395360
H161	H16	0.154900	0.585000	0.406600
C231	C23	0.126900	0.562400	0.364870
C241	C24	0.173800	0.550000	0.349380
C251	C25	0.346200	0.613900	0.409780
H171	H17	0.347000	0.634600	0.430200
C261	C26	0.301800	0.597600	0.396570
H181	H18	0.272800	0.606200	0.407700
C271	C27	0.386400	0.570800	0.366660
H191	H19	0.416000	0.559500	0.356400
C281	C28	0.344200	0.554700	0.351700
H201	H20	0.344500	0.534400	0.331300
C291	C29	0.300600	0.568500	0.366680
C301	C30	0.254400	0.553700	0.350550
C311	C31	0.266800	0.437700	0.233430
H211	H21	0.296900	0.440900	0.223200
C321	C32	0.263600	0.477000	0.261970
H221	H22	0.291200	0.504700	0.271300
C331	C33	0.187200	0.396000	0.233810
H231	H23	0.160400	0.367700	0.223900
C341	C34	0.180700	0.435100	0.261920
H241	H24	0.149800	0.434500	0.271100
C351	C35	0.220200	0.475700	0.276760
C361	C36	0.216400	0.511400	0.307820
N11	N1	0.796590	0.899300	0.350110
N21	N2	0.946790	0.916600	0.544050
N31	N3	0.944810	0.488600	0.422860
N41	N4	0.881920	0.009700	0.442890
N51	N5	0.916700	0.154500	0.461180
N61	N6	0.874530	0.154500	0.414710
N71	N7	0.039700	0.590300	0.394200
N81	N8	0.387610	0.602000	0.395450
N91	N9	0.230100	0.396000	0.219770
N101	N10	0.213570	0.566500	0.365450
N111	N11	0.257830	0.526400	0.321640
N121	N12	0.172670	0.522000	0.320390
Zn41	Zn4	0.524570	0.377770	0.915160
Zn51	Zn5	0.547350	0.143590	0.086140
Zn61	Zn6	0.739510	0.181710	0.818940
I71	I7	0.505650	0.304630	0.966770
I81	I8	0.574020	0.289390	0.876090
I91	I9	0.554060	0.326930	0.080130
I101	I10	0.482520	0.059590	0.116450
I111	I11	0.828710	0.182780	0.832530
I121	I12	0.695850	0.342480	0.812730
C371	C37	0.697900	0.004700	0.847780
H251	H25	0.710100	0.972800	0.830400
C381	C38	0.674900	0.950000	0.869730
H261	H26	0.671100	0.882200	0.867200
C391	C39	0.685600	0.143400	0.874450
H271	H27	0.688800	0.211600	0.876200
C401	C40	0.662700	0.094200	0.897300
H281	H28	0.650600	0.127900	0.914300
C411	C41	0.657700	0.995300	0.895080
C421	C42	0.632800	0.940100	0.918990
C431	C43	0.572100	0.132500	0.020950
H291	H29	0.577000	0.200300	0.023000
C441	C44	0.585000	0.088600	0.994110
H301	H30	0.598300	0.125300	0.978000
C451	C45	0.544100	0.988000	0.040310
H311	H31	0.528500	0.953400	0.056000
C461	C46	0.556700	0.939500	0.014320
H321	H32	0.550700	0.872000	0.012400
C471	C47	0.578000	0.989900	0.991230
C481	C48	0.593900	0.938700	0.963730
C491	C49	0.554600	0.551800	0.950580
H331	H33	0.543500	0.514500	0.967200
C501	C50	0.569600	0.645000	0.955470
H341	H34	0.568400	0.671800	0.975200
C511	C51	0.572300	0.564800	0.900160
H351	H35	0.573600	0.536400	0.880700
C521	C52	0.587900	0.657600	0.903400
H361	H36	0.599500	0.692800	0.886500
C531	C53	0.586600	0.699900	0.931680
C541	C54	0.599800	0.802500	0.936310
C551	C55	0.458500	0.429300	0.864910
H371	H37	0.488000	0.433400	0.854100
C561	C56	0.416300	0.443900	0.849390
H381	H38	0.416700	0.458100	0.828400
C571	C57	0.418100	0.405600	0.909410
H391	H39	0.418700	0.393200	0.930500
C581	C58	0.374200	0.418800	0.895360
H401	H40	0.345100	0.415000	0.906600
C591	C59	0.373100	0.437600	0.864870
C601	C60	0.326200	0.450000	0.849380
C611	C61	0.153800	0.386100	0.909780
H411	H41	0.153000	0.365400	0.930200
C621	C62	0.198200	0.402400	0.896570
H421	H42	0.227200	0.393800	0.907700
C631	C63	0.113600	0.429200	0.866660
H431	H43	0.084000	0.440500	0.856400
C641	C64	0.155800	0.445300	0.851700
H441	H44	0.155500	0.465600	0.831300
C651	C65	0.199400	0.431500	0.866680
C661	C66	0.245600	0.446300	0.850550
C671	C67	0.233200	0.562300	0.733430
H451	H45	0.203100	0.559100	0.723200
C681	C68	0.236400	0.523000	0.761970
H461	H46	0.208800	0.495300	0.771300
C691	C69	0.312800	0.604000	0.733810
H471	H47	0.339600	0.632300	0.723900
C701	C70	0.319300	0.564900	0.761920
H481	H48	0.350200	0.565500	0.771100
C711	C71	0.279800	0.524300	0.776760
C721	C72	0.283600	0.488600	0.807820
N131	N13	0.703410	0.100700	0.850110
N141	N14	0.553210	0.083400	0.044050
N151	N15	0.555190	0.511400	0.922860
N161	N16	0.618080	0.990300	0.942890
N171	N17	0.583300	0.845500	0.961180
N181	N18	0.625470	0.845500	0.914710
N191	N19	0.460300	0.409700	0.894200
N201	N20	0.112390	0.398000	0.895450
N211	N21	0.269900	0.604000	0.719770
N221	N22	0.286430	0.433500	0.865450
N231	N23	0.242170	0.473600	0.821640
N241	N24	0.327330	0.478000	0.820390
Zn71	Zn7	0.024570	0.122230	0.084840
Zn81	Zn8	0.047350	0.356410	0.913860
Zn91	Zn9	0.239510	0.318290	0.181060
I131	I13	0.005650	0.195370	0.033230
I141	I14	0.074020	0.210610	0.123910
I151	I15	0.054060	0.173070	0.919870
I161	I16	0.982520	0.440410	0.883550
I171	I17	0.328710	0.317220	0.167470
I181	I18	0.195850	0.157520	0.187270
C731	C73	0.197900	0.495300	0.152220
H491	H49	0.210100	0.527200	0.169600
C741	C74	0.174900	0.550000	0.130270
H501	H50	0.171100	0.617800	0.132800
C751	C75	0.185600	0.356600	0.125550
H511	H51	0.188800	0.288400	0.123800
C761	C76	0.162700	0.405800	0.102700
H521	H52	0.150600	0.372100	0.085700
C771	C77	0.157700	0.504700	0.104920
C781	C78	0.132800	0.559900	0.081010
C791	C79	0.072100	0.367500	0.979050
H531	H53	0.077000	0.299700	0.977000
C801	C80	0.085000	0.411400	0.005890
H541	H54	0.098300	0.374700	0.022000
C811	C81	0.044100	0.512000	0.959690
H551	H55	0.028500	0.546600	0.944000
C821	C82	0.056700	0.560500	0.985680
H561	H56	0.050700	0.628000	0.987600
C831	C83	0.078000	0.510100	0.008770
C841	C84	0.093900	0.561300	0.036270
C851	C85	0.054600	0.948200	0.049420
H571	H57	0.043500	0.985500	0.032800
C861	C86	0.069600	0.855000	0.044530
H581	H58	0.068400	0.828200	0.024800
C871	C87	0.072300	0.935200	0.099840
H591	H59	0.073600	0.963600	0.119300
C881	C88	0.087900	0.842400	0.096600
H601	H60	0.099500	0.807200	0.113500
C891	C89	0.086600	0.800100	0.068320
C901	C90	0.099800	0.697500	0.063690
C911	C91	0.958500	0.070700	0.135090
H611	H61	0.988000	0.066600	0.145900
C921	C92	0.916300	0.056100	0.150610
H621	H62	0.916700	0.041900	0.171600
C931	C93	0.918100	0.094400	0.090590
H631	H63	0.918700	0.106800	0.069500
C941	C94	0.874200	0.081200	0.104640
H641	H64	0.845100	0.085000	0.093400
C951	C95	0.873100	0.062400	0.135130
C961	C96	0.826200	0.050000	0.150620
C971	C97	0.653800	0.113900	0.090220
H651	H65	0.653000	0.134600	0.069800
C981	C98	0.698200	0.097600	0.103430
H661	H66	0.727200	0.106200	0.092300
C991	C99	0.613600	0.070800	0.133340
H671	H67	0.584000	0.059500	0.143600
C1001	C100	0.655800	0.054700	0.148300
H681	H68	0.655500	0.034400	0.168700
C1011	C101	0.699400	0.068500	0.133320
C1021	C102	0.745600	0.053700	0.149450
C1031	C103	0.733200	0.937700	0.266570
H691	H69	0.703100	0.940900	0.276800
C1041	C104	0.736400	0.977000	0.238030
H701	H70	0.708800	0.004700	0.228700
C1051	C105	0.812800	0.896000	0.266190
H711	H71	0.839600	0.867700	0.276100
C1061	C106	0.819300	0.935100	0.238080
H721	H72	0.850200	0.934500	0.228900
C1071	C107	0.779800	0.975700	0.223240
C1081	C108	0.783600	0.011400	0.192180
N251	N25	0.203410	0.399300	0.149890
N261	N26	0.053210	0.416600	0.955950
N271	N27	0.055190	0.988600	0.077140
N281	N28	0.118080	0.509700	0.057110
N291	N29	0.083300	0.654500	0.038820
N301	N30	0.125470	0.654500	0.085290
N311	N31	0.960300	0.090300	0.105800
N321	N32	0.612390	0.102000	0.104550
N331	N33	0.769900	0.896000	0.280230
N341	N34	0.786430	0.066500	0.134550
N351	N35	0.742170	0.026400	0.178360
N361	N36	0.827330	0.022000	0.179610
Zn101	Zn10	0.475430	0.877770	0.584840
Zn111	Zn11	0.452650	0.643590	0.413860
Zn121	Zn12	0.260490	0.681710	0.681060
I191	I19	0.494350	0.804630	0.533230
I201	I20	0.425980	0.789390	0.623910
I211	I21	0.445940	0.826930	0.419870
I221	I22	0.517480	0.559590	0.383550
I231	I23	0.171290	0.682780	0.667470
I241	I24	0.304150	0.842480	0.687270
C1091	C109	0.302100	0.504700	0.652220
H731	H73	0.289900	0.472800	0.669600
C1101	C110	0.325100	0.450000	0.630270
H741	H74	0.328900	0.382200	0.632800
C1111	C111	0.314400	0.643400	0.625550
H751	H75	0.311200	0.711600	0.623800
C1121	C112	0.337300	0.594200	0.602700
H761	H76	0.349400	0.627900	0.585700
C1131	C113	0.342300	0.495300	0.604920
C1141	C114	0.367200	0.440100	0.581010
C1151	C115	0.427900	0.632500	0.479050
H771	H77	0.423000	0.700300	0.477000
C1161	C116	0.415000	0.588600	0.505890
H781	H78	0.401700	0.625300	0.522000
C1171	C117	0.455900	0.488000	0.459690
H791	H79	0.471500	0.453400	0.444000
C1181	C118	0.443300	0.439500	0.485680
H801	H80	0.449300	0.372000	0.487600
C1191	C119	0.422000	0.489900	0.508770
C1201	C120	0.406100	0.438700	0.536270
C1211	C121	0.445400	0.051800	0.549420
H811	H81	0.456500	0.014500	0.532800
C1221	C122	0.430400	0.145000	0.544530
H821	H82	0.431600	0.171800	0.524800
C1231	C123	0.427700	0.064800	0.599840
H831	H83	0.426400	0.036400	0.619300
C1241	C124	0.412100	0.157600	0.596600
H841	H84	0.400500	0.192800	0.613500
C1251	C125	0.413400	0.199900	0.568320
C1261	C126	0.400200	0.302500	0.563690
C1271	C127	0.541500	0.929300	0.635090
H851	H85	0.512000	0.933400	0.645900
C1281	C128	0.583700	0.943900	0.650610
H861	H86	0.583300	0.958100	0.671600
C1291	C129	0.581900	0.905600	0.590590
H871	H87	0.581300	0.893200	0.569500
C1301	C130	0.625800	0.918800	0.604640
H881	H88	0.654900	0.915000	0.593400
C1311	C131	0.626900	0.937600	0.635130
C1321	C132	0.673800	0.950000	0.650620
C1331	C133	0.846200	0.886100	0.590220
H891	H89	0.847000	0.865400	0.569800
C1341	C134	0.801800	0.902400	0.603430
H901	H90	0.772800	0.893800	0.592300
C1351	C135	0.886400	0.929200	0.633340
H911	H91	0.916000	0.940500	0.643600
C1361	C136	0.844200	0.945300	0.648300
H921	H92	0.844500	0.965600	0.668700
C1371	C137	0.800600	0.931500	0.633320
C1381	C138	0.754400	0.946300	0.649450
C1391	C139	0.766800	0.062300	0.766570
H931	H93	0.796900	0.059100	0.776800
C1401	C140	0.763600	0.023000	0.738030
H941	H94	0.791200	0.995300	0.728700
C1411	C141	0.687200	0.104000	0.766190
H951	H95	0.660400	0.132300	0.776100
C1421	C142	0.680700	0.064900	0.738080
H961	H96	0.649800	0.065500	0.728900
C1431	C143	0.720200	0.024300	0.723240
C1441	C144	0.716400	0.988600	0.692180
N371	N37	0.296590	0.600700	0.649890
N381	N38	0.446790	0.583400	0.455950
N391	N39	0.444810	0.011400	0.577140
N401	N40	0.381920	0.490300	0.557110
N411	N41	0.416700	0.345500	0.538820
N421	N42	0.374530	0.345500	0.585290
N431	N43	0.539700	0.909700	0.605800
N441	N44	0.887610	0.898000	0.604550
N451	N45	0.730100	0.104000	0.780230
N461	N46	0.713570	0.933500	0.634550
N471	N47	0.757830	0.973600	0.678360
N481	N48	0.672670	0.978000	0.679610
Zn131	Zn13	0.024570	0.377770	0.584840
Zn141	Zn14	0.047350	0.143590	0.413860
Zn151	Zn15	0.239510	0.181710	0.681060
I251	I25	0.005650	0.304630	0.533230
I261	I26	0.074020	0.289390	0.623910
I271	I27	0.054060	0.326930	0.419870
I281	I28	0.982520	0.059590	0.383550
I291	I29	0.328710	0.182780	0.667470
I301	I30	0.195850	0.342480	0.687270
C1451	C145	0.197900	0.004700	0.652220
H971	H97	0.210100	0.972800	0.669600
C1461	C146	0.174900	0.950000	0.630270
H981	H98	0.171100	0.882200	0.632800
C1471	C147	0.185600	0.143400	0.625550
H991	H99	0.188800	0.211600	0.623800
C1481	C148	0.162700	0.094200	0.602700
H1001	H100	0.150600	0.127900	0.585700
C1491	C149	0.157700	0.995300	0.604920
C1501	C150	0.132800	0.940100	0.581010
C1511	C151	0.072100	0.132500	0.479050
H1011	H101	0.077000	0.200300	0.477000
C1521	C152	0.085000	0.088600	0.505890
H1021	H102	0.098300	0.125300	0.522000
C1531	C153	0.044100	0.988000	0.459690
H1031	H103	0.028500	0.953400	0.444000
C1541	C154	0.056700	0.939500	0.485680
H1041	H104	0.050700	0.872000	0.487600
C1551	C155	0.078000	0.989900	0.508770
C1561	C156	0.093900	0.938700	0.536270
C1571	C157	0.054600	0.551800	0.549420
H1051	H105	0.043500	0.514500	0.532800
C1581	C158	0.069600	0.645000	0.544530
H1061	H106	0.068400	0.671800	0.524800
C1591	C159	0.072300	0.564800	0.599840
H1071	H107	0.073600	0.536400	0.619300
C1601	C160	0.087900	0.657600	0.596600
H1081	H108	0.099500	0.692800	0.613500
C1611	C161	0.086600	0.699900	0.568320
C1621	C162	0.099800	0.802500	0.563690
C1631	C163	0.958500	0.429300	0.635090
H1091	H109	0.988000	0.433400	0.645900
C1641	C164	0.916300	0.443900	0.650610
H1101	H110	0.916700	0.458100	0.671600
C1651	C165	0.918100	0.405600	0.590590
H1111	H111	0.918700	0.393200	0.569500
C1661	C166	0.874200	0.418800	0.604640
H1121	H112	0.845100	0.415000	0.593400
C1671	C167	0.873100	0.437600	0.635130
C1681	C168	0.826200	0.450000	0.650620
C1691	C169	0.653800	0.386100	0.590220
H1131	H113	0.653000	0.365400	0.569800
C1701	C170	0.698200	0.402400	0.603430
H1141	H114	0.727200	0.393800	0.592300
C1711	C171	0.613600	0.429200	0.633340
H1151	H115	0.584000	0.440500	0.643600
C1721	C172	0.655800	0.445300	0.648300
H1161	H116	0.655500	0.465600	0.668700
C1731	C173	0.699400	0.431500	0.633320
C1741	C174	0.745600	0.446300	0.649450
C1751	C175	0.733200	0.562300	0.766570
H1171	H117	0.703100	0.559100	0.776800
C1761	C176	0.736400	0.523000	0.738030
H1181	H118	0.708800	0.495300	0.728700
C1771	C177	0.812800	0.604000	0.766190
H1191	H119	0.839600	0.632300	0.776100
C1781	C178	0.819300	0.564900	0.738080
H1201	H120	0.850200	0.565500	0.728900
C1791	C179	0.779800	0.524300	0.723240
C1801	C180	0.783600	0.488600	0.692180
N491	N49	0.203410	0.100700	0.649890
N501	N50	0.053210	0.083400	0.455950
N511	N51	0.055190	0.511400	0.577140
N521	N52	0.118080	0.990300	0.557110
N531	N53	0.083300	0.845500	0.538820
N541	N54	0.125470	0.845500	0.585290
N551	N55	0.960300	0.409700	0.605800
N561	N56	0.612390	0.398000	0.604550
N571	N57	0.769900	0.604000	0.780230
N581	N58	0.786430	0.433500	0.634550
N591	N59	0.742170	0.473600	0.678360
N601	N60	0.827330	0.478000	0.679610
Zn161	Zn16	0.475430	0.622230	0.084840
Zn171	Zn17	0.452650	0.856410	0.913860
Zn181	Zn18	0.260490	0.818290	0.181060
I311	I31	0.494350	0.695370	0.033230
I321	I32	0.425980	0.710610	0.123910
I331	I33	0.445940	0.673070	0.919870
I341	I34	0.517480	0.940410	0.883550
I351	I35	0.171290	0.817220	0.167470
I361	I36	0.304150	0.657520	0.187270
C1811	C181	0.302100	0.995300	0.152220
H1211	H121	0.289900	0.027200	0.169600
C1821	C182	0.325100	0.050000	0.130270
H1221	H122	0.328900	0.117800	0.132800
C1831	C183	0.314400	0.856600	0.125550
H1231	H123	0.311200	0.788400	0.123800
C1841	C184	0.337300	0.905800	0.102700
H1241	H124	0.349400	0.872100	0.085700
C1851	C185	0.342300	0.004700	0.104920
C1861	C186	0.367200	0.059900	0.081010
C1871	C187	0.427900	0.867500	0.979050
H1251	H125	0.423000	0.799700	0.977000
C1881	C188	0.415000	0.911400	0.005890
H1261	H126	0.401700	0.874700	0.022000
C1891	C189	0.455900	0.012000	0.959690
H1271	H127	0.471500	0.046600	0.944000
C1901	C190	0.443300	0.060500	0.985680
H1281	H128	0.449300	0.128000	0.987600
C1911	C191	0.422000	0.010100	0.008770
C1921	C192	0.406100	0.061300	0.036270
C1931	C193	0.445400	0.448200	0.049420
H1291	H129	0.456500	0.485500	0.032800
C1941	C194	0.430400	0.355000	0.044530
H1301	H130	0.431600	0.328200	0.024800
C1951	C195	0.427700	0.435200	0.099840
H1311	H131	0.426400	0.463600	0.119300
C1961	C196	0.412100	0.342400	0.096600
H1321	H132	0.400500	0.307200	0.113500
C1971	C197	0.413400	0.300100	0.068320
C1981	C198	0.400200	0.197500	0.063690
C1991	C199	0.541500	0.570700	0.135090
H1331	H133	0.512000	0.566600	0.145900
C2001	C200	0.583700	0.556100	0.150610
H1341	H134	0.583300	0.541900	0.171600
C2011	C201	0.581900	0.594400	0.090590
H1351	H135	0.581300	0.606800	0.069500
C2021	C202	0.625800	0.581200	0.104640
H1361	H136	0.654900	0.585000	0.093400
C2031	C203	0.626900	0.562400	0.135130
C2041	C204	0.673800	0.550000	0.150620
C2051	C205	0.846200	0.613900	0.090220
H1371	H137	0.847000	0.634600	0.069800
C2061	C206	0.801800	0.597600	0.103430
H1381	H138	0.772800	0.606200	0.092300
C2071	C207	0.886400	0.570800	0.133340
H1391	H139	0.916000	0.559500	0.143600
C2081	C208	0.844200	0.554700	0.148300
H1401	H140	0.844500	0.534400	0.168700
C2091	C209	0.800600	0.568500	0.133320
C2101	C210	0.754400	0.553700	0.149450
C2111	C211	0.766800	0.437700	0.266570
H1411	H141	0.796900	0.440900	0.276800
C2121	C212	0.763600	0.477000	0.238030
H1421	H142	0.791200	0.504700	0.228700
C2131	C213	0.687200	0.396000	0.266190
H1431	H143	0.660400	0.367700	0.276100
C2141	C214	0.680700	0.435100	0.238080
H1441	H144	0.649800	0.434500	0.228900
C2151	C215	0.720200	0.475700	0.223240
C2161	C216	0.716400	0.511400	0.192180
N611	N61	0.296590	0.899300	0.149890
N621	N62	0.446790	0.916600	0.955950
N631	N63	0.444810	0.488600	0.077140
N641	N64	0.381920	0.009700	0.057110
N651	N65	0.416700	0.154500	0.038820
N661	N66	0.374530	0.154500	0.085290
N671	N67	0.539700	0.590300	0.105800
N681	N68	0.887610	0.602000	0.104550
N691	N69	0.730100	0.396000	0.280230
N701	N70	0.713570	0.566500	0.134550
N711	N71	0.757830	0.526400	0.178360
N721	N72	0.672670	0.522000	0.179610
Zn191	Zn19	0.975430	0.877770	0.915160
Zn201	Zn20	0.952650	0.643590	0.086140
Zn211	Zn21	0.760490	0.681710	0.818940
I371	I37	0.994350	0.804630	0.966770
I381	I38	0.925980	0.789390	0.876090
I391	I39	0.945940	0.826930	0.080130
I401	I40	0.017480	0.559590	0.116450
I411	I41	0.671290	0.682780	0.832530
I421	I42	0.804150	0.842480	0.812730
C2171	C217	0.802100	0.504700	0.847780
H1451	H145	0.789900	0.472800	0.830400
C2181	C218	0.825100	0.450000	0.869730
H1461	H146	0.828900	0.382200	0.867200
C2191	C219	0.814400	0.643400	0.874450
H1471	H147	0.811200	0.711600	0.876200
C2201	C220	0.837300	0.594200	0.897300
H1481	H148	0.849400	0.627900	0.914300
C2211	C221	0.842300	0.495300	0.895080
C2221	C222	0.867200	0.440100	0.918990
C2231	C223	0.927900	0.632500	0.020950
H1491	H149	0.923000	0.700300	0.023000
C2241	C224	0.915000	0.588600	0.994110
H1501	H150	0.901700	0.625300	0.978000
C2251	C225	0.955900	0.488000	0.040310
H1511	H151	0.971500	0.453400	0.056000
C2261	C226	0.943300	0.439500	0.014320
H1521	H152	0.949300	0.372000	0.012400
C2271	C227	0.922000	0.489900	0.991230
C2281	C228	0.906100	0.438700	0.963730
C2291	C229	0.945400	0.051800	0.950580
H1531	H153	0.956500	0.014500	0.967200
C2301	C230	0.930400	0.145000	0.955470
H1541	H154	0.931600	0.171800	0.975200
C2311	C231	0.927700	0.064800	0.900160
H1551	H155	0.926400	0.036400	0.880700
C2321	C232	0.912100	0.157600	0.903400
H1561	H156	0.900500	0.192800	0.886500
C2331	C233	0.913400	0.199900	0.931680
C2341	C234	0.900200	0.302500	0.936310
C2351	C235	0.041500	0.929300	0.864910
H1571	H157	0.012000	0.933400	0.854100
C2361	C236	0.083700	0.943900	0.849390
H1581	H158	0.083300	0.958100	0.828400
C2371	C237	0.081900	0.905600	0.909410
H1591	H159	0.081300	0.893200	0.930500
C2381	C238	0.125800	0.918800	0.895360
H1601	H160	0.154900	0.915000	0.906600
C2391	C239	0.126900	0.937600	0.864870
C2401	C240	0.173800	0.950000	0.849380
C2411	C241	0.346200	0.886100	0.909780
H1611	H161	0.347000	0.865400	0.930200
C2421	C242	0.301800	0.902400	0.896570
H1621	H162	0.272800	0.893800	0.907700
C2431	C243	0.386400	0.929200	0.866660
H1631	H163	0.416000	0.940500	0.856400
C2441	C244	0.344200	0.945300	0.851700
H1641	H164	0.344500	0.965600	0.831300
C2451	C245	0.300600	0.931500	0.866680
C2461	C246	0.254400	0.946300	0.850550
C2471	C247	0.266800	0.062300	0.733430
H1651	H165	0.296900	0.059100	0.723200
C2481	C248	0.263600	0.023000	0.761970
H1661	H166	0.291200	0.995300	0.771300
C2491	C249	0.187200	0.104000	0.733810
H1671	H167	0.160400	0.132300	0.723900
C2501	C250	0.180700	0.064900	0.761920
H1681	H168	0.149800	0.065500	0.771100
C2511	C251	0.220200	0.024300	0.776760
C2521	C252	0.216400	0.988600	0.807820
N731	N73	0.796590	0.600700	0.850110
N741	N74	0.946790	0.583400	0.044050
N751	N75	0.944810	0.011400	0.922860
N761	N76	0.881920	0.490300	0.942890
N771	N77	0.916700	0.345500	0.961180
N781	N78	0.874530	0.345500	0.914710
N791	N79	0.039700	0.909700	0.894200
N801	N80	0.387610	0.898000	0.895450
N811	N81	0.230100	0.104000	0.719770
N821	N82	0.213570	0.933500	0.865450
N831	N83	0.257830	0.973600	0.821640
N841	N84	0.172670	0.978000	0.820390
Zn221	Zn22	0.524570	0.122230	0.415160
Zn231	Zn23	0.547350	0.356410	0.586140
Zn241	Zn24	0.739510	0.318290	0.318940
I431	I43	0.505650	0.195370	0.466770
I441	I44	0.574020	0.210610	0.376090
I451	I45	0.554060	0.173070	0.580130
I461	I46	0.482520	0.440410	0.616450
I471	I47	0.828710	0.317220	0.332530
I481	I48	0.695850	0.157520	0.312730
C2531	C253	0.697900	0.495300	0.347780
H1691	H169	0.710100	0.527200	0.330400
C2541	C254	0.674900	0.550000	0.369730
H1701	H170	0.671100	0.617800	0.367200
C2551	C255	0.685600	0.356600	0.374450
H1711	H171	0.688800	0.288400	0.376200
C2561	C256	0.662700	0.405800	0.397300
H1721	H172	0.650600	0.372100	0.414300
C2571	C257	0.657700	0.504700	0.395080
C2581	C258	0.632800	0.559900	0.418990
C2591	C259	0.572100	0.367500	0.520950
H1731	H173	0.577000	0.299700	0.523000
C2601	C260	0.585000	0.411400	0.494110
H1741	H174	0.598300	0.374700	0.478000
C2611	C261	0.544100	0.512000	0.540310
H1751	H175	0.528500	0.546600	0.556000
C2621	C262	0.556700	0.560500	0.514320
H1761	H176	0.550700	0.628000	0.512400
C2631	C263	0.578000	0.510100	0.491230
C2641	C264	0.593900	0.561300	0.463730
C2651	C265	0.554600	0.948200	0.450580
H1771	H177	0.543500	0.985500	0.467200
C2661	C266	0.569600	0.855000	0.455470
H1781	H178	0.568400	0.828200	0.475200
C2671	C267	0.572300	0.935200	0.400160
H1791	H179	0.573600	0.963600	0.380700
C2681	C268	0.587900	0.842400	0.403400
H1801	H180	0.599500	0.807200	0.386500
C2691	C269	0.586600	0.800100	0.431680
C2701	C270	0.599800	0.697500	0.436310
C2711	C271	0.458500	0.070700	0.364910
H1811	H181	0.488000	0.066600	0.354100
C2721	C272	0.416300	0.056100	0.349390
H1821	H182	0.416700	0.041900	0.328400
C2731	C273	0.418100	0.094400	0.409410
H1831	H183	0.418700	0.106800	0.430500
C2741	C274	0.374200	0.081200	0.395360
H1841	H184	0.345100	0.085000	0.406600
C2751	C275	0.373100	0.062400	0.364870
C2761	C276	0.326200	0.050000	0.349380
C2771	C277	0.153800	0.113900	0.409780
H1851	H185	0.153000	0.134600	0.430200
C2781	C278	0.198200	0.097600	0.396570
H1861	H186	0.227200	0.106200	0.407700
C2791	C279	0.113600	0.070800	0.366660
H1871	H187	0.084000	0.059500	0.356400
C2801	C280	0.155800	0.054700	0.351700
H1881	H188	0.155500	0.034400	0.331300
C2811	C281	0.199400	0.068500	0.366680
C2821	C282	0.245600	0.053700	0.350550
C2831	C283	0.233200	0.937700	0.233430
H1891	H189	0.203100	0.940900	0.223200
C2841	C284	0.236400	0.977000	0.261970
H1901	H190	0.208800	0.004700	0.271300
C2851	C285	0.312800	0.896000	0.233810
H1911	H191	0.339600	0.867700	0.223900
C2861	C286	0.319300	0.935100	0.261920
H1921	H192	0.350200	0.934500	0.271100
C2871	C287	0.279800	0.975700	0.276760
C2881	C288	0.283600	0.011400	0.307820
N851	N85	0.703410	0.399300	0.350110
N861	N86	0.553210	0.416600	0.544050
N871	N87	0.555190	0.988600	0.422860
N881	N88	0.618080	0.509700	0.442890
N891	N89	0.583300	0.654500	0.461180
N901	N90	0.625470	0.654500	0.414710
N911	N91	0.460300	0.090300	0.394200
N921	N92	0.112390	0.102000	0.395450
N931	N93	0.269900	0.896000	0.219770
N941	N94	0.286430	0.066500	0.365450
N951	N95	0.242170	0.026400	0.321640
N961	N96	0.327330	0.022000	0.320390
