data_SOHNEJ_clean_PM
_symmetry_space_group_name_H-M	'P1'
_cell_length_a	13.672800
_cell_length_b	45.598700
_cell_length_c	28.457600
_cell_angle_alpha	90.000000
_cell_angle_beta	90.000000
_cell_angle_gamma	90.000000
_symmetry_Int_Tables_number 1

loop_
_symmetry_equiv_pos_as_xyz
'x,y,z'

loop_
_atom_site_label
_atom_site_type_symbol
_atom_site_fract_x
_atom_site_fract_y
_atom_site_fract_z
Zn11	Zn1	0.330550	0.568230	0.563240
Zn21	Zn2	0.638170	0.810060	0.756860
Zn31	Zn3	0.347180	0.587370	0.026180
I11	I1	0.402340	0.596600	0.495380
I21	I2	0.150600	0.555330	0.576670
I31	I3	0.800990	0.803270	0.798810
I41	I4	0.634090	0.824700	0.670960
I51	I5	0.270070	0.537430	0.010200
I61	I6	0.261450	0.627960	0.071730
C11	C1	0.415300	0.641390	0.748600
C21	C2	0.452800	0.684840	0.782400
C31	C3	0.417000	0.645560	0.827300
C41	C4	0.401500	0.624020	0.704600
C51	C5	0.374800	0.594730	0.706800
H11	H1	0.367100	0.585300	0.736300
C61	C6	0.359800	0.579680	0.666000
H21	H2	0.342000	0.559600	0.668000
C71	C7	0.396300	0.619830	0.621300
H31	H3	0.404400	0.628500	0.591100
C81	C8	0.413400	0.636700	0.660500
H41	H4	0.433000	0.656600	0.657600
C91	C9	0.486800	0.715690	0.777100
C101	C10	0.481900	0.729570	0.734500
H51	H5	0.452100	0.720100	0.708400
C111	C11	0.520800	0.757670	0.729800
H61	H6	0.516600	0.767400	0.700300
C121	C12	0.566600	0.758070	0.807500
H71	H7	0.595400	0.768000	0.833400
C131	C13	0.528400	0.729990	0.814400
H81	H8	0.531200	0.721000	0.844500
C141	C14	0.406900	0.631640	0.874100
C151	C15	0.407300	0.648560	0.915000
H91	H9	0.415500	0.669200	0.913500
C161	C16	0.395700	0.634700	0.957500
H101	H10	0.397100	0.646300	0.985200
C171	C17	0.382700	0.589630	0.922300
H111	H11	0.373500	0.569000	0.924700
C181	C18	0.395800	0.602020	0.878400
H121	H12	0.397100	0.589900	0.851200
C191	C19	0.582600	0.455460	0.607500
C201	C20	0.591400	0.410010	0.638300
C211	C21	0.725400	0.430540	0.606600
C221	C22	0.524100	0.481670	0.594600
C231	C23	0.560500	0.503520	0.566500
H131	H13	0.625300	0.502400	0.554500
C241	C24	0.500900	0.527390	0.555700
H141	H14	0.525400	0.542200	0.535400
C251	C25	0.374400	0.508790	0.598500
H151	H15	0.308300	0.510000	0.608600
C261	C26	0.429300	0.484310	0.611300
H161	H16	0.402100	0.469700	0.631200
C271	C27	0.540700	0.385090	0.660400
C281	C28	0.439500	0.384440	0.661900
H171	H17	0.402900	0.400000	0.648300
C291	C29	0.391700	0.361310	0.683000
H181	H18	0.322200	0.360700	0.682500
C301	C30	0.537800	0.339960	0.702800
H191	H19	0.572300	0.324300	0.717100
C311	C31	0.591100	0.362400	0.680900
H201	H20	0.660500	0.361900	0.680300
C321	C32	0.828600	0.427810	0.590700
C331	C33	0.883400	0.402970	0.601100
H211	H21	0.856400	0.388100	0.620600
C341	C34	0.975500	0.399730	0.583600
H221	H22	0.011200	0.382500	0.591200
C351	C35	0.965800	0.443870	0.546700
H231	H23	0.995000	0.458600	0.527700
C361	C36	0.873200	0.448590	0.562800
H241	H24	0.839500	0.466100	0.554800
N11	N1	0.438200	0.670090	0.742200
N21	N2	0.441200	0.674150	0.825400
N31	N3	0.404400	0.628330	0.789300
N41	N4	0.368700	0.591640	0.623900
N51	N5	0.564200	0.771370	0.766100
N61	N6	0.382600	0.606080	0.962000
N71	N7	0.536700	0.433820	0.627900
N81	N8	0.687200	0.407540	0.628600
N91	N9	0.679200	0.455510	0.595700
N101	N10	0.410100	0.530170	0.573000
N111	N11	0.440400	0.339930	0.704100
N121	N12	0.017800	0.420020	0.555800
Zn41	Zn4	0.169450	0.431770	0.063240
Zn51	Zn5	0.861830	0.189940	0.256860
Zn61	Zn6	0.152820	0.412630	0.526180
I71	I7	0.097660	0.403400	0.995380
I81	I8	0.349400	0.444670	0.076670
I91	I9	0.699010	0.196730	0.298810
I101	I10	0.865910	0.175300	0.170960
I111	I11	0.229930	0.462570	0.510200
I121	I12	0.238550	0.372040	0.571730
C371	C37	0.084700	0.358610	0.248600
C381	C38	0.047200	0.315160	0.282400
C391	C39	0.083000	0.354440	0.327300
C401	C40	0.098500	0.375980	0.204600
C411	C41	0.125200	0.405270	0.206800
H251	H25	0.132900	0.414700	0.236300
C421	C42	0.140200	0.420320	0.166000
H261	H26	0.158000	0.440400	0.168000
C431	C43	0.103700	0.380170	0.121300
H271	H27	0.095600	0.371500	0.091100
C441	C44	0.086600	0.363300	0.160500
H281	H28	0.067000	0.343400	0.157600
C451	C45	0.013200	0.284310	0.277100
C461	C46	0.018100	0.270430	0.234500
H291	H29	0.047900	0.279900	0.208400
C471	C47	0.979200	0.242330	0.229800
H301	H30	0.983400	0.232600	0.200300
C481	C48	0.933400	0.241930	0.307500
H311	H31	0.904600	0.232000	0.333400
C491	C49	0.971600	0.270010	0.314400
H321	H32	0.968800	0.279000	0.344500
C501	C50	0.093100	0.368360	0.374100
C511	C51	0.092700	0.351440	0.415000
H331	H33	0.084500	0.330800	0.413500
C521	C52	0.104300	0.365300	0.457500
H341	H34	0.102900	0.353700	0.485200
C531	C53	0.117300	0.410370	0.422300
H351	H35	0.126500	0.431000	0.424700
C541	C54	0.104200	0.397980	0.378400
H361	H36	0.102900	0.410100	0.351200
C551	C55	0.917400	0.544540	0.107500
C561	C56	0.908600	0.589990	0.138300
C571	C57	0.774600	0.569460	0.106600
C581	C58	0.975900	0.518330	0.094600
C591	C59	0.939500	0.496480	0.066500
H371	H37	0.874700	0.497600	0.054500
C601	C60	0.999100	0.472610	0.055700
H381	H38	0.974600	0.457800	0.035400
C611	C61	0.125600	0.491210	0.098500
H391	H39	0.191700	0.490000	0.108600
C621	C62	0.070700	0.515690	0.111300
H401	H40	0.097900	0.530300	0.131200
C631	C63	0.959300	0.614910	0.160400
C641	C64	0.060500	0.615560	0.161900
H411	H41	0.097100	0.600000	0.148300
C651	C65	0.108300	0.638690	0.183000
H421	H42	0.177800	0.639300	0.182500
C661	C66	0.962200	0.660040	0.202800
H431	H43	0.927700	0.675700	0.217100
C671	C67	0.908900	0.637600	0.180900
H441	H44	0.839500	0.638100	0.180300
C681	C68	0.671400	0.572190	0.090700
C691	C69	0.616600	0.597030	0.101100
H451	H45	0.643600	0.611900	0.120600
C701	C70	0.524500	0.600270	0.083600
H461	H46	0.488800	0.617500	0.091200
C711	C71	0.534200	0.556130	0.046700
H471	H47	0.505000	0.541400	0.027700
C721	C72	0.626800	0.551410	0.062800
H481	H48	0.660500	0.533900	0.054800
N131	N13	0.061800	0.329910	0.242200
N141	N14	0.058800	0.325850	0.325400
N151	N15	0.095600	0.371670	0.289300
N161	N16	0.131300	0.408360	0.123900
N171	N17	0.935800	0.228630	0.266100
N181	N18	0.117400	0.393920	0.462000
N191	N19	0.963300	0.566180	0.127900
N201	N20	0.812800	0.592460	0.128600
N211	N21	0.820800	0.544490	0.095700
N221	N22	0.089900	0.469830	0.073000
N231	N23	0.059600	0.660070	0.204100
N241	N24	0.482200	0.579980	0.055800
Zn71	Zn7	0.669450	0.068230	0.936760
Zn81	Zn8	0.361830	0.310060	0.743140
Zn91	Zn9	0.652820	0.087370	0.473820
I131	I13	0.597660	0.096600	0.004620
I141	I14	0.849400	0.055330	0.923330
I151	I15	0.199010	0.303270	0.701190
I161	I16	0.365910	0.324700	0.829040
I171	I17	0.729930	0.037430	0.489800
I181	I18	0.738550	0.127960	0.428270
C731	C73	0.584700	0.141390	0.751400
C741	C74	0.547200	0.184840	0.717600
C751	C75	0.583000	0.145560	0.672700
C761	C76	0.598500	0.124020	0.795400
C771	C77	0.625200	0.094730	0.793200
H491	H49	0.632900	0.085300	0.763700
C781	C78	0.640200	0.079680	0.834000
H501	H50	0.658000	0.059600	0.832000
C791	C79	0.603700	0.119830	0.878700
H511	H51	0.595600	0.128500	0.908900
C801	C80	0.586600	0.136700	0.839500
H521	H52	0.567000	0.156600	0.842400
C811	C81	0.513200	0.215690	0.722900
C821	C82	0.518100	0.229570	0.765500
H531	H53	0.547900	0.220100	0.791600
C831	C83	0.479200	0.257670	0.770200
H541	H54	0.483400	0.267400	0.799700
C841	C84	0.433400	0.258070	0.692500
H551	H55	0.404600	0.268000	0.666600
C851	C85	0.471600	0.229990	0.685600
H561	H56	0.468800	0.221000	0.655500
C861	C86	0.593100	0.131640	0.625900
C871	C87	0.592700	0.148560	0.585000
H571	H57	0.584500	0.169200	0.586500
C881	C88	0.604300	0.134700	0.542500
H581	H58	0.602900	0.146300	0.514800
C891	C89	0.617300	0.089630	0.577700
H591	H59	0.626500	0.069000	0.575300
C901	C90	0.604200	0.102020	0.621600
H601	H60	0.602900	0.089900	0.648800
C911	C91	0.417400	0.955460	0.892500
C921	C92	0.408600	0.910010	0.861700
C931	C93	0.274600	0.930540	0.893400
C941	C94	0.475900	0.981670	0.905400
C951	C95	0.439500	0.003520	0.933500
H611	H61	0.374700	0.002400	0.945500
C961	C96	0.499100	0.027390	0.944300
H621	H62	0.474600	0.042200	0.964600
C971	C97	0.625600	0.008790	0.901500
H631	H63	0.691700	0.010000	0.891400
C981	C98	0.570700	0.984310	0.888700
H641	H64	0.597900	0.969700	0.868800
C991	C99	0.459300	0.885090	0.839600
C1001	C100	0.560500	0.884440	0.838100
H651	H65	0.597100	0.900000	0.851700
C1011	C101	0.608300	0.861310	0.817000
H661	H66	0.677800	0.860700	0.817500
C1021	C102	0.462200	0.839960	0.797200
H671	H67	0.427700	0.824300	0.782900
C1031	C103	0.408900	0.862400	0.819100
H681	H68	0.339500	0.861900	0.819700
C1041	C104	0.171400	0.927810	0.909300
C1051	C105	0.116600	0.902970	0.898900
H691	H69	0.143600	0.888100	0.879400
C1061	C106	0.024500	0.899730	0.916400
H701	H70	0.988800	0.882500	0.908800
C1071	C107	0.034200	0.943870	0.953300
H711	H71	0.005000	0.958600	0.972300
C1081	C108	0.126800	0.948590	0.937200
H721	H72	0.160500	0.966100	0.945200
N251	N25	0.561800	0.170090	0.757800
N261	N26	0.558800	0.174150	0.674600
N271	N27	0.595600	0.128330	0.710700
N281	N28	0.631300	0.091640	0.876100
N291	N29	0.435800	0.271370	0.733900
N301	N30	0.617400	0.106080	0.538000
N311	N31	0.463300	0.933820	0.872100
N321	N32	0.312800	0.907540	0.871400
N331	N33	0.320800	0.955510	0.904300
N341	N34	0.589900	0.030170	0.927000
N351	N35	0.559600	0.839930	0.795900
N361	N36	0.982200	0.920020	0.944200
Zn101	Zn10	0.830550	0.931770	0.436760
Zn111	Zn11	0.138170	0.689940	0.243140
Zn121	Zn12	0.847180	0.912630	0.973820
I191	I19	0.902340	0.903400	0.504620
I201	I20	0.650600	0.944670	0.423330
I211	I21	0.300990	0.696730	0.201190
I221	I22	0.134090	0.675300	0.329040
I231	I23	0.770070	0.962570	0.989800
I241	I24	0.761450	0.872040	0.928270
C1091	C109	0.915300	0.858610	0.251400
C1101	C110	0.952800	0.815160	0.217600
C1111	C111	0.917000	0.854440	0.172700
C1121	C112	0.901500	0.875980	0.295400
C1131	C113	0.874800	0.905270	0.293200
H731	H73	0.867100	0.914700	0.263700
C1141	C114	0.859800	0.920320	0.334000
H741	H74	0.842000	0.940400	0.332000
C1151	C115	0.896300	0.880170	0.378700
H751	H75	0.904400	0.871500	0.408900
C1161	C116	0.913400	0.863300	0.339500
H761	H76	0.933000	0.843400	0.342400
C1171	C117	0.986800	0.784310	0.222900
C1181	C118	0.981900	0.770430	0.265500
H771	H77	0.952100	0.779900	0.291600
C1191	C119	0.020800	0.742330	0.270200
H781	H78	0.016600	0.732600	0.299700
C1201	C120	0.066600	0.741930	0.192500
H791	H79	0.095400	0.732000	0.166600
C1211	C121	0.028400	0.770010	0.185600
H801	H80	0.031200	0.779000	0.155500
C1221	C122	0.906900	0.868360	0.125900
C1231	C123	0.907300	0.851440	0.085000
H811	H81	0.915500	0.830800	0.086500
C1241	C124	0.895700	0.865300	0.042500
H821	H82	0.897100	0.853700	0.014800
C1251	C125	0.882700	0.910370	0.077700
H831	H83	0.873500	0.931000	0.075300
C1261	C126	0.895800	0.897980	0.121600
H841	H84	0.897100	0.910100	0.148800
C1271	C127	0.082600	0.044540	0.392500
C1281	C128	0.091400	0.089990	0.361700
C1291	C129	0.225400	0.069460	0.393400
C1301	C130	0.024100	0.018330	0.405400
C1311	C131	0.060500	0.996480	0.433500
H851	H85	0.125300	0.997600	0.445500
C1321	C132	0.000900	0.972610	0.444300
H861	H86	0.025400	0.957800	0.464600
C1331	C133	0.874400	0.991210	0.401500
H871	H87	0.808300	0.990000	0.391400
C1341	C134	0.929300	0.015690	0.388700
H881	H88	0.902100	0.030300	0.368800
C1351	C135	0.040700	0.114910	0.339600
C1361	C136	0.939500	0.115560	0.338100
H891	H89	0.902900	0.100000	0.351700
C1371	C137	0.891700	0.138690	0.317000
H901	H90	0.822200	0.139300	0.317500
C1381	C138	0.037800	0.160040	0.297200
H911	H91	0.072300	0.175700	0.282900
C1391	C139	0.091100	0.137600	0.319100
H921	H92	0.160500	0.138100	0.319700
C1401	C140	0.328600	0.072190	0.409300
C1411	C141	0.383400	0.097030	0.398900
H931	H93	0.356400	0.111900	0.379400
C1421	C142	0.475500	0.100270	0.416400
H941	H94	0.511200	0.117500	0.408800
C1431	C143	0.465800	0.056130	0.453300
H951	H95	0.495000	0.041400	0.472300
C1441	C144	0.373200	0.051410	0.437200
H961	H96	0.339500	0.033900	0.445200
N371	N37	0.938200	0.829910	0.257800
N381	N38	0.941200	0.825850	0.174600
N391	N39	0.904400	0.871670	0.210700
N401	N40	0.868700	0.908360	0.376100
N411	N41	0.064200	0.728630	0.233900
N421	N42	0.882600	0.893920	0.038000
N431	N43	0.036700	0.066180	0.372100
N441	N44	0.187200	0.092460	0.371400
N451	N45	0.179200	0.044490	0.404300
N461	N46	0.910100	0.969830	0.427000
N471	N47	0.940400	0.160070	0.295900
N481	N48	0.517800	0.079980	0.444200
Zn131	Zn13	0.669450	0.431770	0.436760
Zn141	Zn14	0.361830	0.189940	0.243140
Zn151	Zn15	0.652820	0.412630	0.973820
I251	I25	0.597660	0.403400	0.504620
I261	I26	0.849400	0.444670	0.423330
I271	I27	0.199010	0.196730	0.201190
I281	I28	0.365910	0.175300	0.329040
I291	I29	0.729930	0.462570	0.989800
I301	I30	0.738550	0.372040	0.928270
C1451	C145	0.584700	0.358610	0.251400
C1461	C146	0.547200	0.315160	0.217600
C1471	C147	0.583000	0.354440	0.172700
C1481	C148	0.598500	0.375980	0.295400
C1491	C149	0.625200	0.405270	0.293200
H971	H97	0.632900	0.414700	0.263700
C1501	C150	0.640200	0.420320	0.334000
H981	H98	0.658000	0.440400	0.332000
C1511	C151	0.603700	0.380170	0.378700
H991	H99	0.595600	0.371500	0.408900
C1521	C152	0.586600	0.363300	0.339500
H1001	H100	0.567000	0.343400	0.342400
C1531	C153	0.513200	0.284310	0.222900
C1541	C154	0.518100	0.270430	0.265500
H1011	H101	0.547900	0.279900	0.291600
C1551	C155	0.479200	0.242330	0.270200
H1021	H102	0.483400	0.232600	0.299700
C1561	C156	0.433400	0.241930	0.192500
H1031	H103	0.404600	0.232000	0.166600
C1571	C157	0.471600	0.270010	0.185600
H1041	H104	0.468800	0.279000	0.155500
C1581	C158	0.593100	0.368360	0.125900
C1591	C159	0.592700	0.351440	0.085000
H1051	H105	0.584500	0.330800	0.086500
C1601	C160	0.604300	0.365300	0.042500
H1061	H106	0.602900	0.353700	0.014800
C1611	C161	0.617300	0.410370	0.077700
H1071	H107	0.626500	0.431000	0.075300
C1621	C162	0.604200	0.397980	0.121600
H1081	H108	0.602900	0.410100	0.148800
C1631	C163	0.417400	0.544540	0.392500
C1641	C164	0.408600	0.589990	0.361700
C1651	C165	0.274600	0.569460	0.393400
C1661	C166	0.475900	0.518330	0.405400
C1671	C167	0.439500	0.496480	0.433500
H1091	H109	0.374700	0.497600	0.445500
C1681	C168	0.499100	0.472610	0.444300
H1101	H110	0.474600	0.457800	0.464600
C1691	C169	0.625600	0.491210	0.401500
H1111	H111	0.691700	0.490000	0.391400
C1701	C170	0.570700	0.515690	0.388700
H1121	H112	0.597900	0.530300	0.368800
C1711	C171	0.459300	0.614910	0.339600
C1721	C172	0.560500	0.615560	0.338100
H1131	H113	0.597100	0.600000	0.351700
C1731	C173	0.608300	0.638690	0.317000
H1141	H114	0.677800	0.639300	0.317500
C1741	C174	0.462200	0.660040	0.297200
H1151	H115	0.427700	0.675700	0.282900
C1751	C175	0.408900	0.637600	0.319100
H1161	H116	0.339500	0.638100	0.319700
C1761	C176	0.171400	0.572190	0.409300
C1771	C177	0.116600	0.597030	0.398900
H1171	H117	0.143600	0.611900	0.379400
C1781	C178	0.024500	0.600270	0.416400
H1181	H118	0.988800	0.617500	0.408800
C1791	C179	0.034200	0.556130	0.453300
H1191	H119	0.005000	0.541400	0.472300
C1801	C180	0.126800	0.551410	0.437200
H1201	H120	0.160500	0.533900	0.445200
N491	N49	0.561800	0.329910	0.257800
N501	N50	0.558800	0.325850	0.174600
N511	N51	0.595600	0.371670	0.210700
N521	N52	0.631300	0.408360	0.376100
N531	N53	0.435800	0.228630	0.233900
N541	N54	0.617400	0.393920	0.038000
N551	N55	0.463300	0.566180	0.372100
N561	N56	0.312800	0.592460	0.371400
N571	N57	0.320800	0.544490	0.404300
N581	N58	0.589900	0.469830	0.427000
N591	N59	0.559600	0.660070	0.295900
N601	N60	0.982200	0.579980	0.444200
Zn161	Zn16	0.830550	0.568230	0.936760
Zn171	Zn17	0.138170	0.810060	0.743140
Zn181	Zn18	0.847180	0.587370	0.473820
I311	I31	0.902340	0.596600	0.004620
I321	I32	0.650600	0.555330	0.923330
I331	I33	0.300990	0.803270	0.701190
I341	I34	0.134090	0.824700	0.829040
I351	I35	0.770070	0.537430	0.489800
I361	I36	0.761450	0.627960	0.428270
C1811	C181	0.915300	0.641390	0.751400
C1821	C182	0.952800	0.684840	0.717600
C1831	C183	0.917000	0.645560	0.672700
C1841	C184	0.901500	0.624020	0.795400
C1851	C185	0.874800	0.594730	0.793200
H1211	H121	0.867100	0.585300	0.763700
C1861	C186	0.859800	0.579680	0.834000
H1221	H122	0.842000	0.559600	0.832000
C1871	C187	0.896300	0.619830	0.878700
H1231	H123	0.904400	0.628500	0.908900
C1881	C188	0.913400	0.636700	0.839500
H1241	H124	0.933000	0.656600	0.842400
C1891	C189	0.986800	0.715690	0.722900
C1901	C190	0.981900	0.729570	0.765500
H1251	H125	0.952100	0.720100	0.791600
C1911	C191	0.020800	0.757670	0.770200
H1261	H126	0.016600	0.767400	0.799700
C1921	C192	0.066600	0.758070	0.692500
H1271	H127	0.095400	0.768000	0.666600
C1931	C193	0.028400	0.729990	0.685600
H1281	H128	0.031200	0.721000	0.655500
C1941	C194	0.906900	0.631640	0.625900
C1951	C195	0.907300	0.648560	0.585000
H1291	H129	0.915500	0.669200	0.586500
C1961	C196	0.895700	0.634700	0.542500
H1301	H130	0.897100	0.646300	0.514800
C1971	C197	0.882700	0.589630	0.577700
H1311	H131	0.873500	0.569000	0.575300
C1981	C198	0.895800	0.602020	0.621600
H1321	H132	0.897100	0.589900	0.648800
C1991	C199	0.082600	0.455460	0.892500
C2001	C200	0.091400	0.410010	0.861700
C2011	C201	0.225400	0.430540	0.893400
C2021	C202	0.024100	0.481670	0.905400
C2031	C203	0.060500	0.503520	0.933500
H1331	H133	0.125300	0.502400	0.945500
C2041	C204	0.000900	0.527390	0.944300
H1341	H134	0.025400	0.542200	0.964600
C2051	C205	0.874400	0.508790	0.901500
H1351	H135	0.808300	0.510000	0.891400
C2061	C206	0.929300	0.484310	0.888700
H1361	H136	0.902100	0.469700	0.868800
C2071	C207	0.040700	0.385090	0.839600
C2081	C208	0.939500	0.384440	0.838100
H1371	H137	0.902900	0.400000	0.851700
C2091	C209	0.891700	0.361310	0.817000
H1381	H138	0.822200	0.360700	0.817500
C2101	C210	0.037800	0.339960	0.797200
H1391	H139	0.072300	0.324300	0.782900
C2111	C211	0.091100	0.362400	0.819100
H1401	H140	0.160500	0.361900	0.819700
C2121	C212	0.328600	0.427810	0.909300
C2131	C213	0.383400	0.402970	0.898900
H1411	H141	0.356400	0.388100	0.879400
C2141	C214	0.475500	0.399730	0.916400
H1421	H142	0.511200	0.382500	0.908800
C2151	C215	0.465800	0.443870	0.953300
H1431	H143	0.495000	0.458600	0.972300
C2161	C216	0.373200	0.448590	0.937200
H1441	H144	0.339500	0.466100	0.945200
N611	N61	0.938200	0.670090	0.757800
N621	N62	0.941200	0.674150	0.674600
N631	N63	0.904400	0.628330	0.710700
N641	N64	0.868700	0.591640	0.876100
N651	N65	0.064200	0.771370	0.733900
N661	N66	0.882600	0.606080	0.538000
N671	N67	0.036700	0.433820	0.872100
N681	N68	0.187200	0.407540	0.871400
N691	N69	0.179200	0.455510	0.904300
N701	N70	0.910100	0.530170	0.927000
N711	N71	0.940400	0.339930	0.795900
N721	N72	0.517800	0.420020	0.944200
Zn191	Zn19	0.330550	0.931770	0.063240
Zn201	Zn20	0.638170	0.689940	0.256860
Zn211	Zn21	0.347180	0.912630	0.526180
I371	I37	0.402340	0.903400	0.995380
I381	I38	0.150600	0.944670	0.076670
I391	I39	0.800990	0.696730	0.298810
I401	I40	0.634090	0.675300	0.170960
I411	I41	0.270070	0.962570	0.510200
I421	I42	0.261450	0.872040	0.571730
C2171	C217	0.415300	0.858610	0.248600
C2181	C218	0.452800	0.815160	0.282400
C2191	C219	0.417000	0.854440	0.327300
C2201	C220	0.401500	0.875980	0.204600
C2211	C221	0.374800	0.905270	0.206800
H1451	H145	0.367100	0.914700	0.236300
C2221	C222	0.359800	0.920320	0.166000
H1461	H146	0.342000	0.940400	0.168000
C2231	C223	0.396300	0.880170	0.121300
H1471	H147	0.404400	0.871500	0.091100
C2241	C224	0.413400	0.863300	0.160500
H1481	H148	0.433000	0.843400	0.157600
C2251	C225	0.486800	0.784310	0.277100
C2261	C226	0.481900	0.770430	0.234500
H1491	H149	0.452100	0.779900	0.208400
C2271	C227	0.520800	0.742330	0.229800
H1501	H150	0.516600	0.732600	0.200300
C2281	C228	0.566600	0.741930	0.307500
H1511	H151	0.595400	0.732000	0.333400
C2291	C229	0.528400	0.770010	0.314400
H1521	H152	0.531200	0.779000	0.344500
C2301	C230	0.406900	0.868360	0.374100
C2311	C231	0.407300	0.851440	0.415000
H1531	H153	0.415500	0.830800	0.413500
C2321	C232	0.395700	0.865300	0.457500
H1541	H154	0.397100	0.853700	0.485200
C2331	C233	0.382700	0.910370	0.422300
H1551	H155	0.373500	0.931000	0.424700
C2341	C234	0.395800	0.897980	0.378400
H1561	H156	0.397100	0.910100	0.351200
C2351	C235	0.582600	0.044540	0.107500
C2361	C236	0.591400	0.089990	0.138300
C2371	C237	0.725400	0.069460	0.106600
C2381	C238	0.524100	0.018330	0.094600
C2391	C239	0.560500	0.996480	0.066500
H1571	H157	0.625300	0.997600	0.054500
C2401	C240	0.500900	0.972610	0.055700
H1581	H158	0.525400	0.957800	0.035400
C2411	C241	0.374400	0.991210	0.098500
H1591	H159	0.308300	0.990000	0.108600
C2421	C242	0.429300	0.015690	0.111300
H1601	H160	0.402100	0.030300	0.131200
C2431	C243	0.540700	0.114910	0.160400
C2441	C244	0.439500	0.115560	0.161900
H1611	H161	0.402900	0.100000	0.148300
C2451	C245	0.391700	0.138690	0.183000
H1621	H162	0.322200	0.139300	0.182500
C2461	C246	0.537800	0.160040	0.202800
H1631	H163	0.572300	0.175700	0.217100
C2471	C247	0.591100	0.137600	0.180900
H1641	H164	0.660500	0.138100	0.180300
C2481	C248	0.828600	0.072190	0.090700
C2491	C249	0.883400	0.097030	0.101100
H1651	H165	0.856400	0.111900	0.120600
C2501	C250	0.975500	0.100270	0.083600
H1661	H166	0.011200	0.117500	0.091200
C2511	C251	0.965800	0.056130	0.046700
H1671	H167	0.995000	0.041400	0.027700
C2521	C252	0.873200	0.051410	0.062800
H1681	H168	0.839500	0.033900	0.054800
N731	N73	0.438200	0.829910	0.242200
N741	N74	0.441200	0.825850	0.325400
N751	N75	0.404400	0.871670	0.289300
N761	N76	0.368700	0.908360	0.123900
N771	N77	0.564200	0.728630	0.266100
N781	N78	0.382600	0.893920	0.462000
N791	N79	0.536700	0.066180	0.127900
N801	N80	0.687200	0.092460	0.128600
N811	N81	0.679200	0.044490	0.095700
N821	N82	0.410100	0.969830	0.073000
N831	N83	0.440400	0.160070	0.204100
N841	N84	0.017800	0.079980	0.055800
Zn221	Zn22	0.169450	0.068230	0.563240
Zn231	Zn23	0.861830	0.310060	0.756860
Zn241	Zn24	0.152820	0.087370	0.026180
I431	I43	0.097660	0.096600	0.495380
I441	I44	0.349400	0.055330	0.576670
I451	I45	0.699010	0.303270	0.798810
I461	I46	0.865910	0.324700	0.670960
I471	I47	0.229930	0.037430	0.010200
I481	I48	0.238550	0.127960	0.071730
C2531	C253	0.084700	0.141390	0.748600
C2541	C254	0.047200	0.184840	0.782400
C2551	C255	0.083000	0.145560	0.827300
C2561	C256	0.098500	0.124020	0.704600
C2571	C257	0.125200	0.094730	0.706800
H1691	H169	0.132900	0.085300	0.736300
C2581	C258	0.140200	0.079680	0.666000
H1701	H170	0.158000	0.059600	0.668000
C2591	C259	0.103700	0.119830	0.621300
H1711	H171	0.095600	0.128500	0.591100
C2601	C260	0.086600	0.136700	0.660500
H1721	H172	0.067000	0.156600	0.657600
C2611	C261	0.013200	0.215690	0.777100
C2621	C262	0.018100	0.229570	0.734500
H1731	H173	0.047900	0.220100	0.708400
C2631	C263	0.979200	0.257670	0.729800
H1741	H174	0.983400	0.267400	0.700300
C2641	C264	0.933400	0.258070	0.807500
H1751	H175	0.904600	0.268000	0.833400
C2651	C265	0.971600	0.229990	0.814400
H1761	H176	0.968800	0.221000	0.844500
C2661	C266	0.093100	0.131640	0.874100
C2671	C267	0.092700	0.148560	0.915000
H1771	H177	0.084500	0.169200	0.913500
C2681	C268	0.104300	0.134700	0.957500
H1781	H178	0.102900	0.146300	0.985200
C2691	C269	0.117300	0.089630	0.922300
H1791	H179	0.126500	0.069000	0.924700
C2701	C270	0.104200	0.102020	0.878400
H1801	H180	0.102900	0.089900	0.851200
C2711	C271	0.917400	0.955460	0.607500
C2721	C272	0.908600	0.910010	0.638300
C2731	C273	0.774600	0.930540	0.606600
C2741	C274	0.975900	0.981670	0.594600
C2751	C275	0.939500	0.003520	0.566500
H1811	H181	0.874700	0.002400	0.554500
C2761	C276	0.999100	0.027390	0.555700
H1821	H182	0.974600	0.042200	0.535400
C2771	C277	0.125600	0.008790	0.598500
H1831	H183	0.191700	0.010000	0.608600
C2781	C278	0.070700	0.984310	0.611300
H1841	H184	0.097900	0.969700	0.631200
C2791	C279	0.959300	0.885090	0.660400
C2801	C280	0.060500	0.884440	0.661900
H1851	H185	0.097100	0.900000	0.648300
C2811	C281	0.108300	0.861310	0.683000
H1861	H186	0.177800	0.860700	0.682500
C2821	C282	0.962200	0.839960	0.702800
H1871	H187	0.927700	0.824300	0.717100
C2831	C283	0.908900	0.862400	0.680900
H1881	H188	0.839500	0.861900	0.680300
C2841	C284	0.671400	0.927810	0.590700
C2851	C285	0.616600	0.902970	0.601100
H1891	H189	0.643600	0.888100	0.620600
C2861	C286	0.524500	0.899730	0.583600
H1901	H190	0.488800	0.882500	0.591200
C2871	C287	0.534200	0.943870	0.546700
H1911	H191	0.505000	0.958600	0.527700
C2881	C288	0.626800	0.948590	0.562800
H1921	H192	0.660500	0.966100	0.554800
N851	N85	0.061800	0.170090	0.742200
N861	N86	0.058800	0.174150	0.825400
N871	N87	0.095600	0.128330	0.789300
N881	N88	0.131300	0.091640	0.623900
N891	N89	0.935800	0.271370	0.766100
N901	N90	0.117400	0.106080	0.962000
N911	N91	0.963300	0.933820	0.627900
N921	N92	0.812800	0.907540	0.628600
N931	N93	0.820800	0.955510	0.595700
N941	N94	0.089900	0.030170	0.573000
N951	N95	0.059600	0.839930	0.704100
N961	N96	0.482200	0.920020	0.555800
