data_SOJKAF_clean_PM
_symmetry_space_group_name_H-M	'P1'
_cell_length_a	9.853600
_cell_length_b	9.853600
_cell_length_c	48.886500
_cell_angle_alpha	90.000000
_cell_angle_beta	90.000000
_cell_angle_gamma	90.000000
_symmetry_Int_Tables_number 1

loop_
_symmetry_equiv_pos_as_xyz
'x,y,z'

loop_
_atom_site_label
_atom_site_type_symbol
_atom_site_fract_x
_atom_site_fract_y
_atom_site_fract_z
Cd11	Cd1	0.751510	0.808870	0.077670
C11	C1	0.721300	0.801700	0.162900
C21	C2	0.707200	0.677300	0.177900
H11	H1	0.702300	0.594900	0.168600
C31	C3	0.700800	0.680600	0.206500
C41	C4	0.705600	0.805400	0.220000
H21	H2	0.697600	0.808600	0.238900
C51	C5	0.722400	0.927000	0.204900
C61	C6	0.736200	0.919800	0.177000
H31	H3	0.756600	0.998600	0.167400
C71	C7	0.729900	0.799600	0.132900
C81	C8	0.690200	0.553200	0.222200
C91	C9	0.725800	0.059600	0.219600
C101	C10	0.283200	0.475800	0.046500
C111	C11	0.398000	0.413000	0.040300
H41	H4	0.477600	0.462500	0.037900
C121	C12	0.398000	0.272000	0.037300
H51	H5	0.479300	0.226000	0.035300
C131	C13	0.280300	0.204000	0.037300
C141	C14	0.164200	0.270800	0.042600
H61	H6	0.082500	0.223800	0.043700
C151	C15	0.167000	0.409000	0.046200
H71	H7	0.086100	0.456400	0.048600
C161	C16	0.285700	0.631600	0.053500
H81	H8	0.368100	0.652200	0.063500
H91	H9	0.287300	0.683300	0.036600
C171	C17	0.157000	0.647000	0.097300
H101	H10	0.221700	0.609900	0.108900
C181	C18	0.030900	0.688000	0.104500
H111	H11	0.993500	0.683100	0.122000
C191	C19	0.057400	0.725600	0.061400
H121	H12	0.039800	0.752400	0.043500
C201	C20	0.279000	0.050000	0.033700
H131	H13	0.186800	0.017300	0.035300
H141	H14	0.311900	0.027600	0.015600
C211	C21	0.332000	0.977000	0.080900
H151	H15	0.253000	0.004300	0.089700
C221	C22	0.447000	0.920000	0.092000
H161	H16	0.457500	0.904400	0.110700
C231	C23	0.485800	0.933200	0.049900
H171	H17	0.528300	0.928800	0.033000
N11	N1	0.968000	0.738000	0.081600
N21	N2	0.172700	0.671800	0.069200
N31	N3	0.543300	0.889800	0.073500
N41	N4	0.362200	0.982600	0.053700
O11	O1	0.679900	0.703600	0.119250
O21	O2	0.779500	0.902600	0.121270
O31	O3	0.680700	0.440900	0.210250
O41	O4	0.689800	0.558600	0.248300
O51	O5	0.783500	0.160500	0.207400
O61	O6	0.665200	0.077400	0.240500
Cd21	Cd2	0.248490	0.191130	0.577670
C241	C24	0.278700	0.198300	0.662900
C251	C25	0.292800	0.322700	0.677900
H181	H18	0.297700	0.405100	0.668600
C261	C26	0.299200	0.319400	0.706500
C271	C27	0.294400	0.194600	0.720000
H191	H19	0.302400	0.191400	0.738900
C281	C28	0.277600	0.073000	0.704900
C291	C29	0.263800	0.080200	0.677000
H201	H20	0.243400	0.001400	0.667400
C301	C30	0.270100	0.200400	0.632900
C311	C31	0.309800	0.446800	0.722200
C321	C32	0.274200	0.940400	0.719600
C331	C33	0.716800	0.524200	0.546500
C341	C34	0.602000	0.587000	0.540300
H211	H21	0.522400	0.537500	0.537900
C351	C35	0.602000	0.728000	0.537300
H221	H22	0.520700	0.774000	0.535300
C361	C36	0.719700	0.796000	0.537300
C371	C37	0.835800	0.729200	0.542600
H231	H23	0.917500	0.776200	0.543700
C381	C38	0.833000	0.591000	0.546200
H241	H24	0.913900	0.543600	0.548600
C391	C39	0.714300	0.368400	0.553500
H251	H25	0.631900	0.347800	0.563500
H261	H26	0.712700	0.316700	0.536600
C401	C40	0.843000	0.353000	0.597300
H271	H27	0.778300	0.390100	0.608900
C411	C41	0.969100	0.312000	0.604500
H281	H28	0.006500	0.316900	0.622000
C421	C42	0.942600	0.274400	0.561400
H291	H29	0.960200	0.247600	0.543500
C431	C43	0.721000	0.950000	0.533700
H301	H30	0.813200	0.982700	0.535300
H311	H31	0.688100	0.972400	0.515600
C441	C44	0.668000	0.023000	0.580900
H321	H32	0.747000	0.995700	0.589700
C451	C45	0.553000	0.080000	0.592000
H331	H33	0.542500	0.095600	0.610700
C461	C46	0.514200	0.066800	0.549900
H341	H34	0.471700	0.071200	0.533000
N51	N5	0.032000	0.262000	0.581600
N61	N6	0.827300	0.328200	0.569200
N71	N7	0.456700	0.110200	0.573500
N81	N8	0.637800	0.017400	0.553700
O71	O7	0.320100	0.296400	0.619250
O81	O8	0.220500	0.097400	0.621270
O91	O9	0.319300	0.559100	0.710250
O101	O10	0.310200	0.441400	0.748300
O111	O11	0.216500	0.839500	0.707400
O121	O12	0.334800	0.922600	0.740500
Cd31	Cd3	0.691130	0.251510	0.327670
C471	C47	0.698300	0.221300	0.412900
C481	C48	0.822700	0.207200	0.427900
H351	H35	0.905100	0.202300	0.418600
C491	C49	0.819400	0.200800	0.456500
C501	C50	0.694600	0.205600	0.470000
H361	H36	0.691400	0.197600	0.488900
C511	C51	0.573000	0.222400	0.454900
C521	C52	0.580200	0.236200	0.427000
H371	H37	0.501400	0.256600	0.417400
C531	C53	0.700400	0.229900	0.382900
C541	C54	0.946800	0.190200	0.472200
C551	C55	0.440400	0.225800	0.469600
C561	C56	0.024200	0.783200	0.296500
C571	C57	0.087000	0.898000	0.290300
H381	H38	0.037500	0.977600	0.287900
C581	C58	0.228000	0.898000	0.287300
H391	H39	0.274000	0.979300	0.285300
C591	C59	0.296000	0.780300	0.287300
C601	C60	0.229200	0.664200	0.292600
H401	H40	0.276200	0.582500	0.293700
C611	C61	0.091000	0.667000	0.296200
H411	H41	0.043600	0.586100	0.298600
C621	C62	0.868400	0.785700	0.303500
H421	H42	0.847800	0.868100	0.313500
H431	H43	0.816700	0.787300	0.286600
C631	C63	0.853000	0.657000	0.347300
H441	H44	0.890100	0.721700	0.358900
C641	C64	0.812000	0.530900	0.354500
H451	H45	0.816900	0.493500	0.372000
C651	C65	0.774400	0.557400	0.311400
H461	H46	0.747600	0.539800	0.293500
C661	C66	0.450000	0.779000	0.283700
H471	H47	0.482700	0.686800	0.285300
H481	H48	0.472400	0.811900	0.265600
C671	C67	0.523000	0.832000	0.330900
H491	H49	0.495700	0.753000	0.339700
C681	C68	0.580000	0.947000	0.342000
H501	H50	0.595600	0.957500	0.360700
C691	C69	0.566800	0.985800	0.299900
H511	H51	0.571200	0.028300	0.283000
N91	N9	0.762000	0.468000	0.331600
N101	N10	0.828200	0.672700	0.319200
N111	N11	0.610200	0.043300	0.323500
N121	N12	0.517400	0.862200	0.303700
O131	O13	0.796400	0.179900	0.369250
O141	O14	0.597400	0.279500	0.371270
O151	O15	0.059100	0.180700	0.460250
O161	O16	0.941400	0.189800	0.498300
O171	O17	0.339500	0.283500	0.457400
O181	O18	0.422600	0.165200	0.490500
Cd41	Cd4	0.308870	0.748490	0.827670
C701	C70	0.301700	0.778700	0.912900
C711	C71	0.177300	0.792800	0.927900
H521	H52	0.094900	0.797700	0.918600
C721	C72	0.180600	0.799200	0.956500
C731	C73	0.305400	0.794400	0.970000
H531	H53	0.308600	0.802400	0.988900
C741	C74	0.427000	0.777600	0.954900
C751	C75	0.419800	0.763800	0.927000
H541	H54	0.498600	0.743400	0.917400
C761	C76	0.299600	0.770100	0.882900
C771	C77	0.053200	0.809800	0.972200
C781	C78	0.559600	0.774200	0.969600
C791	C79	0.975800	0.216800	0.796500
C801	C80	0.913000	0.102000	0.790300
H551	H55	0.962500	0.022400	0.787900
C811	C81	0.772000	0.102000	0.787300
H561	H56	0.726000	0.020700	0.785300
C821	C82	0.704000	0.219700	0.787300
C831	C83	0.770800	0.335800	0.792600
H571	H57	0.723800	0.417500	0.793700
C841	C84	0.909000	0.333000	0.796200
H581	H58	0.956400	0.413900	0.798600
C851	C85	0.131600	0.214300	0.803500
H591	H59	0.152200	0.131900	0.813500
H601	H60	0.183300	0.212700	0.786600
C861	C86	0.147000	0.343000	0.847300
H611	H61	0.109900	0.278300	0.858900
C871	C87	0.188000	0.469100	0.854500
H621	H62	0.183100	0.506500	0.872000
C881	C88	0.225600	0.442600	0.811400
H631	H63	0.252400	0.460200	0.793500
C891	C89	0.550000	0.221000	0.783700
H641	H64	0.517300	0.313200	0.785300
H651	H65	0.527600	0.188100	0.765600
C901	C90	0.477000	0.168000	0.830900
H661	H66	0.504300	0.247000	0.839700
C911	C91	0.420000	0.053000	0.842000
H671	H67	0.404400	0.042500	0.860700
C921	C92	0.433200	0.014200	0.799900
H681	H68	0.428800	0.971700	0.783000
N131	N13	0.238000	0.532000	0.831600
N141	N14	0.171800	0.327300	0.819200
N151	N15	0.389800	0.956700	0.823500
N161	N16	0.482600	0.137800	0.803700
O191	O19	0.203600	0.820100	0.869250
O201	O20	0.402600	0.720500	0.871270
O211	O21	0.940900	0.819300	0.960250
O221	O22	0.058600	0.810200	0.998300
O231	O23	0.660500	0.716500	0.957400
O241	O24	0.577400	0.834800	0.990500
Cd51	Cd5	0.748490	0.308870	0.172330
C931	C93	0.778700	0.301700	0.087100
C941	C94	0.792800	0.177300	0.072100
H691	H69	0.797700	0.094900	0.081400
C951	C95	0.799200	0.180600	0.043500
C961	C96	0.794400	0.305400	0.030000
H701	H70	0.802400	0.308600	0.011100
C971	C97	0.777600	0.427000	0.045100
C981	C98	0.763800	0.419800	0.073000
H711	H71	0.743400	0.498600	0.082600
C991	C99	0.770100	0.299600	0.117100
C1001	C100	0.809800	0.053200	0.027800
C1011	C101	0.774200	0.559600	0.030400
C1021	C102	0.216800	0.975800	0.203500
C1031	C103	0.102000	0.913000	0.209700
H721	H72	0.022400	0.962500	0.212100
C1041	C104	0.102000	0.772000	0.212700
H731	H73	0.020700	0.726000	0.214700
C1051	C105	0.219700	0.704000	0.212700
C1061	C106	0.335800	0.770800	0.207400
H741	H74	0.417500	0.723800	0.206300
C1071	C107	0.333000	0.909000	0.203800
H751	H75	0.413900	0.956400	0.201400
C1081	C108	0.214300	0.131600	0.196500
H761	H76	0.131900	0.152200	0.186500
H771	H77	0.212700	0.183300	0.213400
C1091	C109	0.343000	0.147000	0.152700
H781	H78	0.278300	0.109900	0.141100
C1101	C110	0.469100	0.188000	0.145500
H791	H79	0.506500	0.183100	0.128000
C1111	C111	0.442600	0.225600	0.188600
H801	H80	0.460200	0.252400	0.206500
C1121	C112	0.221000	0.550000	0.216300
H811	H81	0.313200	0.517300	0.214700
H821	H82	0.188100	0.527600	0.234400
C1131	C113	0.168000	0.477000	0.169100
H831	H83	0.247000	0.504300	0.160300
C1141	C114	0.053000	0.420000	0.158000
H841	H84	0.042500	0.404400	0.139300
C1151	C115	0.014200	0.433200	0.200100
H851	H85	0.971700	0.428800	0.217000
N171	N17	0.532000	0.238000	0.168400
N181	N18	0.327300	0.171800	0.180800
N191	N19	0.956700	0.389800	0.176500
N201	N20	0.137800	0.482600	0.196300
O251	O25	0.820100	0.203600	0.130750
O261	O26	0.720500	0.402600	0.128730
O271	O27	0.819300	0.940900	0.039750
O281	O28	0.810200	0.058600	0.001700
O291	O29	0.716500	0.660500	0.042600
O301	O30	0.834800	0.577400	0.009500
Cd61	Cd6	0.251510	0.691130	0.672330
C1161	C116	0.221300	0.698300	0.587100
C1171	C117	0.207200	0.822700	0.572100
H861	H86	0.202300	0.905100	0.581400
C1181	C118	0.200800	0.819400	0.543500
C1191	C119	0.205600	0.694600	0.530000
H871	H87	0.197600	0.691400	0.511100
C1201	C120	0.222400	0.573000	0.545100
C1211	C121	0.236200	0.580200	0.573000
H881	H88	0.256600	0.501400	0.582600
C1221	C122	0.229900	0.700400	0.617100
C1231	C123	0.190200	0.946800	0.527800
C1241	C124	0.225800	0.440400	0.530400
C1251	C125	0.783200	0.024200	0.703500
C1261	C126	0.898000	0.087000	0.709700
H891	H89	0.977600	0.037500	0.712100
C1271	C127	0.898000	0.228000	0.712700
H901	H90	0.979300	0.274000	0.714700
C1281	C128	0.780300	0.296000	0.712700
C1291	C129	0.664200	0.229200	0.707400
H911	H91	0.582500	0.276200	0.706300
C1301	C130	0.667000	0.091000	0.703800
H921	H92	0.586100	0.043600	0.701400
C1311	C131	0.785700	0.868400	0.696500
H931	H93	0.868100	0.847800	0.686500
H941	H94	0.787300	0.816700	0.713400
C1321	C132	0.657000	0.853000	0.652700
H951	H95	0.721700	0.890100	0.641100
C1331	C133	0.530900	0.812000	0.645500
H961	H96	0.493500	0.816900	0.628000
C1341	C134	0.557400	0.774400	0.688600
H971	H97	0.539800	0.747600	0.706500
C1351	C135	0.779000	0.450000	0.716300
H981	H98	0.686800	0.482700	0.714700
H991	H99	0.811900	0.472400	0.734400
C1361	C136	0.832000	0.523000	0.669100
H1001	H100	0.753000	0.495700	0.660300
C1371	C137	0.947000	0.580000	0.658000
H1011	H101	0.957500	0.595600	0.639300
C1381	C138	0.985800	0.566800	0.700100
H1021	H102	0.028300	0.571200	0.717000
N211	N21	0.468000	0.762000	0.668400
N221	N22	0.672700	0.828200	0.680800
N231	N23	0.043300	0.610200	0.676500
N241	N24	0.862200	0.517400	0.696300
O311	O31	0.179900	0.796400	0.630750
O321	O32	0.279500	0.597400	0.628730
O331	O33	0.180700	0.059100	0.539750
O341	O34	0.189800	0.941400	0.501700
O351	O35	0.283500	0.339500	0.542600
O361	O36	0.165200	0.422600	0.509500
Cd71	Cd7	0.808870	0.751510	0.922330
C1391	C139	0.801700	0.721300	0.837100
C1401	C140	0.677300	0.707200	0.822100
H1031	H103	0.594900	0.702300	0.831400
C1411	C141	0.680600	0.700800	0.793500
C1421	C142	0.805400	0.705600	0.780000
H1041	H104	0.808600	0.697600	0.761100
C1431	C143	0.927000	0.722400	0.795100
C1441	C144	0.919800	0.736200	0.823000
H1051	H105	0.998600	0.756600	0.832600
C1451	C145	0.799600	0.729900	0.867100
C1461	C146	0.553200	0.690200	0.777800
C1471	C147	0.059600	0.725800	0.780400
C1481	C148	0.475800	0.283200	0.953500
C1491	C149	0.413000	0.398000	0.959700
H1061	H106	0.462500	0.477600	0.962100
C1501	C150	0.272000	0.398000	0.962700
H1071	H107	0.226000	0.479300	0.964700
C1511	C151	0.204000	0.280300	0.962700
C1521	C152	0.270800	0.164200	0.957400
H1081	H108	0.223800	0.082500	0.956300
C1531	C153	0.409000	0.167000	0.953800
H1091	H109	0.456400	0.086100	0.951400
C1541	C154	0.631600	0.285700	0.946500
H1101	H110	0.652200	0.368100	0.936500
H1111	H111	0.683300	0.287300	0.963400
C1551	C155	0.647000	0.157000	0.902700
H1121	H112	0.609900	0.221700	0.891100
C1561	C156	0.688000	0.030900	0.895500
H1131	H113	0.683100	0.993500	0.878000
C1571	C157	0.725600	0.057400	0.938600
H1141	H114	0.752400	0.039800	0.956500
C1581	C158	0.050000	0.279000	0.966300
H1151	H115	0.017300	0.186800	0.964700
H1161	H116	0.027600	0.311900	0.984400
C1591	C159	0.977000	0.332000	0.919100
H1171	H117	0.004300	0.253000	0.910300
C1601	C160	0.920000	0.447000	0.908000
H1181	H118	0.904400	0.457500	0.889300
C1611	C161	0.933200	0.485800	0.950100
H1191	H119	0.928800	0.528300	0.967000
N251	N25	0.738000	0.968000	0.918400
N261	N26	0.671800	0.172700	0.930800
N271	N27	0.889800	0.543300	0.926500
N281	N28	0.982600	0.362200	0.946300
O371	O37	0.703600	0.679900	0.880750
O381	O38	0.902600	0.779500	0.878730
O391	O39	0.440900	0.680700	0.789750
O401	O40	0.558600	0.689800	0.751700
O411	O41	0.160500	0.783500	0.792600
O421	O42	0.077400	0.665200	0.759500
Cd81	Cd8	0.191130	0.248490	0.422330
C1621	C162	0.198300	0.278700	0.337100
C1631	C163	0.322700	0.292800	0.322100
H1201	H120	0.405100	0.297700	0.331400
C1641	C164	0.319400	0.299200	0.293500
C1651	C165	0.194600	0.294400	0.280000
H1211	H121	0.191400	0.302400	0.261100
C1661	C166	0.073000	0.277600	0.295100
C1671	C167	0.080200	0.263800	0.323000
H1221	H122	0.001400	0.243400	0.332600
C1681	C168	0.200400	0.270100	0.367100
C1691	C169	0.446800	0.309800	0.277800
C1701	C170	0.940400	0.274200	0.280400
C1711	C171	0.524200	0.716800	0.453500
C1721	C172	0.587000	0.602000	0.459700
H1231	H123	0.537500	0.522400	0.462100
C1731	C173	0.728000	0.602000	0.462700
H1241	H124	0.774000	0.520700	0.464700
C1741	C174	0.796000	0.719700	0.462700
C1751	C175	0.729200	0.835800	0.457400
H1251	H125	0.776200	0.917500	0.456300
C1761	C176	0.591000	0.833000	0.453800
H1261	H126	0.543600	0.913900	0.451400
C1771	C177	0.368400	0.714300	0.446500
H1271	H127	0.347800	0.631900	0.436500
H1281	H128	0.316700	0.712700	0.463400
C1781	C178	0.353000	0.843000	0.402700
H1291	H129	0.390100	0.778300	0.391100
C1791	C179	0.312000	0.969100	0.395500
H1301	H130	0.316900	0.006500	0.378000
C1801	C180	0.274400	0.942600	0.438600
H1311	H131	0.247600	0.960200	0.456500
C1811	C181	0.950000	0.721000	0.466300
H1321	H132	0.982700	0.813200	0.464700
H1331	H133	0.972400	0.688100	0.484400
C1821	C182	0.023000	0.668000	0.419100
H1341	H134	0.995700	0.747000	0.410300
C1831	C183	0.080000	0.553000	0.408000
H1351	H135	0.095600	0.542500	0.389300
C1841	C184	0.066800	0.514200	0.450100
H1361	H136	0.071200	0.471700	0.467000
N291	N29	0.262000	0.032000	0.418400
N301	N30	0.328200	0.827300	0.430800
N311	N31	0.110200	0.456700	0.426500
N321	N32	0.017400	0.637800	0.446300
O431	O43	0.296400	0.320100	0.380750
O441	O44	0.097400	0.220500	0.378730
O451	O45	0.559100	0.319300	0.289750
O461	O46	0.441400	0.310200	0.251700
O471	O47	0.839500	0.216500	0.292600
O481	O48	0.922600	0.334800	0.259500
Cd91	Cd9	0.694720	0.305280	0.250000
Cd101	Cd10	0.305280	0.694720	0.750000
Cd111	Cd11	0.194720	0.194720	0.500000
Cd121	Cd12	0.805280	0.805280	0.000000
