data_SOKKUZ_clean_PM
_symmetry_space_group_name_H-M	'P1'
_cell_length_a	13.565000
_cell_length_b	13.565000
_cell_length_c	15.503000
_cell_angle_alpha	90.000000
_cell_angle_beta	90.000000
_cell_angle_gamma	90.000000
_symmetry_Int_Tables_number 1

loop_
_symmetry_equiv_pos_as_xyz
'x,y,z'

loop_
_atom_site_label
_atom_site_type_symbol
_atom_site_fract_x
_atom_site_fract_y
_atom_site_fract_z
S11	S1	0.223290	0.284930	0.107620
O11	O1	0.307100	0.106300	0.290000
O21	O2	0.352000	0.113900	0.155600
O31	O3	0.026300	0.497800	0.122800
O41	O4	0.120900	0.452600	0.015300
C11	C1	0.230400	0.225500	0.204400
C21	C2	0.166800	0.263500	0.262500
H11	H1	0.158100	0.238400	0.317800
C31	C3	0.114700	0.346200	0.229500
H21	H2	0.070300	0.383400	0.261500
C41	C4	0.137100	0.364500	0.146600
C51	C5	0.298400	0.143900	0.216700
C61	C6	0.093200	0.443000	0.090300
S21	S2	0.776710	0.715070	0.607620
O51	O5	0.692900	0.893700	0.790000
O61	O6	0.648000	0.886100	0.655600
O71	O7	0.973700	0.502200	0.622800
O81	O8	0.879100	0.547400	0.515300
C71	C7	0.769600	0.774500	0.704400
C81	C8	0.833200	0.736500	0.762500
H31	H3	0.841900	0.761600	0.817800
C91	C9	0.885300	0.653800	0.729500
H41	H4	0.929700	0.616600	0.761500
C101	C10	0.862900	0.635500	0.646600
C111	C11	0.701600	0.856100	0.716700
C121	C12	0.906800	0.557000	0.590300
S31	S3	0.715070	0.223290	0.357620
O91	O9	0.893700	0.307100	0.540000
O101	O10	0.886100	0.352000	0.405600
O111	O11	0.502200	0.026300	0.372800
O121	O12	0.547400	0.120900	0.265300
C131	C13	0.774500	0.230400	0.454400
C141	C14	0.736500	0.166800	0.512500
H51	H5	0.761600	0.158100	0.567800
C151	C15	0.653800	0.114700	0.479500
H61	H6	0.616600	0.070300	0.511500
C161	C16	0.635500	0.137100	0.396600
C171	C17	0.856100	0.298400	0.466700
C181	C18	0.557000	0.093200	0.340300
S41	S4	0.284930	0.776710	0.857620
O131	O13	0.106300	0.692900	0.040000
O141	O14	0.113900	0.648000	0.905600
O151	O15	0.497800	0.973700	0.872800
O161	O16	0.452600	0.879100	0.765300
C191	C19	0.225500	0.769600	0.954400
C201	C20	0.263500	0.833200	0.012500
H71	H7	0.238400	0.841900	0.067800
C211	C21	0.346200	0.885300	0.979500
H81	H8	0.383400	0.929700	0.011500
C221	C22	0.364500	0.862900	0.896600
C231	C23	0.143900	0.701600	0.966700
C241	C24	0.443000	0.906800	0.840300
S51	S5	0.776710	0.284930	0.892380
O171	O17	0.692900	0.106300	0.710000
O181	O18	0.648000	0.113900	0.844400
O191	O19	0.973700	0.497800	0.877200
O201	O20	0.879100	0.452600	0.984700
C251	C25	0.769600	0.225500	0.795600
C261	C26	0.833200	0.263500	0.737500
H91	H9	0.841900	0.238400	0.682200
C271	C27	0.885300	0.346200	0.770500
H101	H10	0.929700	0.383400	0.738500
C281	C28	0.862900	0.364500	0.853400
C291	C29	0.701600	0.143900	0.783300
C301	C30	0.906800	0.443000	0.909700
S61	S6	0.223290	0.715070	0.392380
O211	O21	0.307100	0.893700	0.210000
O221	O22	0.352000	0.886100	0.344400
O231	O23	0.026300	0.502200	0.377200
O241	O24	0.120900	0.547400	0.484700
C311	C31	0.230400	0.774500	0.295600
C321	C32	0.166800	0.736500	0.237500
H111	H11	0.158100	0.761600	0.182200
C331	C33	0.114700	0.653800	0.270500
H121	H12	0.070300	0.616600	0.238500
C341	C34	0.137100	0.635500	0.353400
C351	C35	0.298400	0.856100	0.283300
C361	C36	0.093200	0.557000	0.409700
S71	S7	0.284930	0.223290	0.642380
O251	O25	0.106300	0.307100	0.460000
O261	O26	0.113900	0.352000	0.594400
O271	O27	0.497800	0.026300	0.627200
O281	O28	0.452600	0.120900	0.734700
C371	C37	0.225500	0.230400	0.545600
C381	C38	0.263500	0.166800	0.487500
H131	H13	0.238400	0.158100	0.432200
C391	C39	0.346200	0.114700	0.520500
H141	H14	0.383400	0.070300	0.488500
C401	C40	0.364500	0.137100	0.603400
C411	C41	0.143900	0.298400	0.533300
C421	C42	0.443000	0.093200	0.659700
S81	S8	0.715070	0.776710	0.142380
O291	O29	0.893700	0.692900	0.960000
O301	O30	0.886100	0.648000	0.094400
O311	O31	0.502200	0.973700	0.127200
O321	O32	0.547400	0.879100	0.234700
C431	C43	0.774500	0.769600	0.045600
C441	C44	0.736500	0.833200	0.987500
H151	H15	0.761600	0.841900	0.932200
C451	C45	0.653800	0.885300	0.020500
H161	H16	0.616600	0.929700	0.988500
C461	C46	0.635500	0.862900	0.103400
C471	C47	0.856100	0.701600	0.033300
C481	C48	0.557000	0.906800	0.159700
In11	In1	0.423660	0.000000	0.250000
In21	In2	0.576340	0.000000	0.750000
In31	In3	0.000000	0.423660	0.500000
In41	In4	0.000000	0.576340	0.000000
