data_SONTOF_clean_PM
_symmetry_space_group_name_H-M	'P1'
_cell_length_a	10.505900
_cell_length_b	11.147600
_cell_length_c	12.793100
_cell_angle_alpha	100.955000
_cell_angle_beta	110.450000
_cell_angle_gamma	99.939000
_symmetry_Int_Tables_number 1

loop_
_symmetry_equiv_pos_as_xyz
'x,y,z'

loop_
_atom_site_label
_atom_site_type_symbol
_atom_site_fract_x
_atom_site_fract_y
_atom_site_fract_z
Dy11	Dy1	0.393280	0.950910	0.824150
O11	O1	0.341800	0.994400	0.985700
O21	O2	0.380900	0.058400	0.169900
O31	O3	0.432600	0.780300	0.903400
O41	O4	0.500800	0.830700	0.096100
O51	O5	0.167700	0.793000	0.737900
O61	O6	0.318300	0.765000	0.659500
C11	C1	0.298100	0.022800	0.065100
C21	C2	0.144300	0.012600	0.032600
C31	C3	0.093200	0.057700	0.115800
C41	C4	0.051100	0.954900	0.918500
H11	H1	0.085600	0.924100	0.863900
C51	C5	0.471100	0.754500	0.998000
C61	C6	0.483900	0.621600	0.998000
C71	C7	0.486000	0.540700	0.900500
C81	C8	0.497400	0.580000	0.095300
H21	H2	0.495500	0.633800	0.159600
C91	C9	0.200700	0.729400	0.665000
C101	C10	0.097600	0.610200	0.580400
C111	C11	0.136300	0.531300	0.504800
C121	C12	0.961400	0.579100	0.575400
N11	N1	0.175800	0.116300	0.224800
N21	N2	0.279000	0.534000	0.521600
N31	N3	0.905000	0.653000	0.643000
Dy21	Dy2	0.606720	0.049090	0.175850
O71	O7	0.658200	0.005600	0.014300
O81	O8	0.619100	0.941600	0.830100
O91	O9	0.567400	0.219700	0.096600
O101	O10	0.499200	0.169300	0.903900
O111	O11	0.832300	0.207000	0.262100
O121	O12	0.681700	0.235000	0.340500
C131	C13	0.701900	0.977200	0.934900
C141	C14	0.855700	0.987400	0.967400
C151	C15	0.906800	0.942300	0.884200
C161	C16	0.948900	0.045100	0.081500
H31	H3	0.914400	0.075900	0.136100
C171	C17	0.528900	0.245500	0.002000
C181	C18	0.516100	0.378400	0.002000
C191	C19	0.514000	0.459300	0.099500
C201	C20	0.502600	0.420000	0.904700
H41	H4	0.504500	0.366200	0.840400
C211	C21	0.799300	0.270600	0.335000
C221	C22	0.902400	0.389800	0.419600
C231	C23	0.863700	0.468700	0.495200
C241	C24	0.038600	0.420900	0.424600
N41	N4	0.824200	0.883700	0.775200
N51	N5	0.721000	0.466000	0.478400
N61	N6	0.095000	0.347000	0.357000
