data_SONVIB_neutral_b_PM
_symmetry_space_group_name_H-M	'P1'
_cell_length_a	18.613800
_cell_length_b	18.613800
_cell_length_c	18.613800
_cell_angle_alpha	60.000000
_cell_angle_beta	60.000000
_cell_angle_gamma	60.000000
_symmetry_Int_Tables_number 1

loop_
_symmetry_equiv_pos_as_xyz
'x,y,z'

loop_
_atom_site_label
_atom_site_type_symbol
_atom_site_fract_x
_atom_site_fract_y
_atom_site_fract_z
Cu11	Cu1	0.429840	0.000000	0.570160
Cu21	Cu2	0.000000	0.429840	0.000000
Cu31	Cu3	0.570160	0.000000	0.429840
Cu41	Cu4	0.000000	0.570160	0.000000
Cu51	Cu5	0.429840	0.570160	0.000000
Cu61	Cu6	0.000000	0.000000	0.570160
Cu71	Cu7	0.570160	0.429840	0.000000
Cu81	Cu8	0.000000	0.000000	0.429840
Cu91	Cu9	0.429840	0.000000	0.000000
Cu101	Cu10	0.000000	0.570160	0.429840
Cu111	Cu11	0.570160	0.000000	0.000000
Cu121	Cu12	0.000000	0.429840	0.570160
H11	H1	0.728100	0.031700	0.512100
H21	H2	0.031700	0.728100	0.728100
H31	H3	0.512100	0.728100	0.728100
H41	H4	0.728100	0.512100	0.031700
H51	H5	0.728100	0.512100	0.728100
H61	H6	0.031700	0.728100	0.512100
H71	H7	0.512100	0.728100	0.031700
H81	H8	0.728100	0.031700	0.728100
H91	H9	0.728100	0.728100	0.031700
H101	H10	0.031700	0.512100	0.728100
H111	H11	0.512100	0.031700	0.728100
H121	H12	0.728100	0.728100	0.512100
H131	H13	0.968300	0.271900	0.487900
H141	H14	0.271900	0.968300	0.271900
H151	H15	0.271900	0.487900	0.271900
H161	H16	0.487900	0.271900	0.968300
H171	H17	0.487900	0.271900	0.271900
H181	H18	0.271900	0.968300	0.487900
H191	H19	0.271900	0.487900	0.968300
H201	H20	0.968300	0.271900	0.271900
H211	H21	0.271900	0.271900	0.968300
H221	H22	0.487900	0.968300	0.271900
H231	H23	0.968300	0.487900	0.271900
H241	H24	0.271900	0.271900	0.487900
C11	C1	0.569100	0.025280	0.569100
C21	C2	0.612700	0.032280	0.612700
C31	C3	0.025280	0.569100	0.836520
C41	C4	0.032280	0.612700	0.742320
C51	C5	0.569100	0.836520	0.569100
C61	C6	0.612700	0.742320	0.612700
C71	C7	0.836520	0.569100	0.025280
C81	C8	0.742320	0.612700	0.032280
C91	C9	0.569100	0.569100	0.836520
C101	C10	0.612700	0.612700	0.742320
C111	C11	0.025280	0.836520	0.569100
C121	C12	0.032280	0.742320	0.612700
C131	C13	0.569100	0.569100	0.025280
C141	C14	0.612700	0.612700	0.032280
C151	C15	0.836520	0.025280	0.569100
C161	C16	0.742320	0.032280	0.612700
C171	C17	0.569100	0.836520	0.025280
C181	C18	0.612700	0.742320	0.032280
C191	C19	0.025280	0.569100	0.569100
C201	C20	0.032280	0.612700	0.612700
C211	C21	0.569100	0.025280	0.836520
C221	C22	0.612700	0.032280	0.742320
C231	C23	0.836520	0.569100	0.569100
C241	C24	0.742320	0.612700	0.612700
C251	C25	0.974720	0.430900	0.430900
C261	C26	0.967720	0.387300	0.387300
C271	C27	0.430900	0.974720	0.163480
C281	C28	0.387300	0.967720	0.257680
C291	C29	0.163480	0.430900	0.430900
C301	C30	0.257680	0.387300	0.387300
C311	C31	0.430900	0.163480	0.974720
C321	C32	0.387300	0.257680	0.967720
C331	C33	0.430900	0.430900	0.163480
C341	C34	0.387300	0.387300	0.257680
C351	C35	0.163480	0.974720	0.430900
C361	C36	0.257680	0.967720	0.387300
C371	C37	0.430900	0.430900	0.974720
C381	C38	0.387300	0.387300	0.967720
C391	C39	0.974720	0.163480	0.430900
C401	C40	0.967720	0.257680	0.387300
C411	C41	0.163480	0.430900	0.974720
C421	C42	0.257680	0.387300	0.967720
C431	C43	0.430900	0.974720	0.430900
C441	C44	0.387300	0.967720	0.387300
C451	C45	0.974720	0.430900	0.163480
C461	C46	0.967720	0.387300	0.257680
C471	C47	0.430900	0.163480	0.430900
C481	C48	0.387300	0.257680	0.387300
C491	C49	0.699200	0.032060	0.569540
C501	C50	0.032060	0.699200	0.699200
C511	C51	0.569540	0.699200	0.699200
C521	C52	0.699200	0.569540	0.032060
C531	C53	0.699200	0.569540	0.699200
C541	C54	0.032060	0.699200	0.569540
C551	C55	0.569540	0.699200	0.032060
C561	C56	0.699200	0.032060	0.699200
C571	C57	0.699200	0.699200	0.032060
C581	C58	0.032060	0.569540	0.699200
C591	C59	0.569540	0.032060	0.699200
C601	C60	0.699200	0.699200	0.569540
C611	C61	0.967940	0.300800	0.430460
C621	C62	0.300800	0.967940	0.300800
C631	C63	0.300800	0.430460	0.300800
C641	C64	0.430460	0.300800	0.967940
C651	C65	0.430460	0.300800	0.300800
C661	C66	0.300800	0.967940	0.430460
C671	C67	0.300800	0.430460	0.967940
C681	C68	0.967940	0.300800	0.300800
C691	C69	0.300800	0.300800	0.967940
C701	C70	0.430460	0.967940	0.300800
C711	C71	0.967940	0.430460	0.300800
C721	C72	0.300800	0.300800	0.430460
O11	O1	0.492460	0.021180	0.612440
O21	O2	0.021180	0.492460	0.873920
O31	O3	0.612440	0.873920	0.492460
O41	O4	0.873920	0.612440	0.021180
O51	O5	0.492460	0.612440	0.873920
O61	O6	0.021180	0.873920	0.612440
O71	O7	0.612440	0.492460	0.021180
O81	O8	0.873920	0.021180	0.492460
O91	O9	0.492460	0.873920	0.021180
O101	O10	0.021180	0.612440	0.492460
O111	O11	0.612440	0.021180	0.873920
O121	O12	0.873920	0.492460	0.612440
O131	O13	0.978820	0.507540	0.387560
O141	O14	0.507540	0.978820	0.126080
O151	O15	0.126080	0.387560	0.507540
O161	O16	0.387560	0.126080	0.978820
O171	O17	0.387560	0.507540	0.126080
O181	O18	0.126080	0.978820	0.387560
O191	O19	0.507540	0.387560	0.978820
O201	O20	0.978820	0.126080	0.507540
O211	O21	0.126080	0.507540	0.978820
O221	O22	0.387560	0.978820	0.507540
O231	O23	0.978820	0.387560	0.126080
O241	O24	0.507540	0.126080	0.387560
O251	O25	0.507540	0.978820	0.387560
O261	O26	0.978820	0.507540	0.126080
O271	O27	0.387560	0.126080	0.507540
O281	O28	0.126080	0.387560	0.978820
O291	O29	0.507540	0.387560	0.126080
O301	O30	0.978820	0.126080	0.387560
O311	O31	0.387560	0.507540	0.978820
O321	O32	0.126080	0.978820	0.507540
O331	O33	0.507540	0.126080	0.978820
O341	O34	0.978820	0.387560	0.507540
O351	O35	0.387560	0.978820	0.126080
O361	O36	0.126080	0.507540	0.387560
O371	O37	0.021180	0.492460	0.612440
O381	O38	0.492460	0.021180	0.873920
O391	O39	0.873920	0.612440	0.492460
O401	O40	0.612440	0.873920	0.021180
O411	O41	0.612440	0.492460	0.873920
O421	O42	0.873920	0.021180	0.612440
O431	O43	0.492460	0.612440	0.021180
O441	O44	0.021180	0.873920	0.492460
O451	O45	0.873920	0.492460	0.021180
O461	O46	0.612440	0.021180	0.492460
O471	O47	0.021180	0.612440	0.873920
O481	O48	0.492460	0.873920	0.612440
