data_SOPLAM_clean_PM
_symmetry_space_group_name_H-M	'P1'
_cell_length_a	15.143100
_cell_length_b	15.232200
_cell_length_c	16.059700
_cell_angle_alpha	98.484000
_cell_angle_beta	102.682000
_cell_angle_gamma	104.206000
_symmetry_Int_Tables_number 1

loop_
_symmetry_equiv_pos_as_xyz
'x,y,z'

loop_
_atom_site_label
_atom_site_type_symbol
_atom_site_fract_x
_atom_site_fract_y
_atom_site_fract_z
C11	C1	0.376100	0.981000	0.312100
C21	C2	0.373900	0.078600	0.310000
C31	C3	0.376000	0.138600	0.384100
H11	H1	0.381100	0.118600	0.437800
C41	C4	0.370700	0.228000	0.381200
H21	H2	0.370800	0.267800	0.432600
C51	C5	0.365400	0.260300	0.303600
C61	C6	0.367500	0.200400	0.230200
H31	H3	0.366900	0.221400	0.177300
C71	C7	0.370400	0.110400	0.233100
H41	H4	0.369900	0.070200	0.181700
C81	C8	0.183400	0.788500	0.275700
C91	C9	0.088100	0.796400	0.281200
C101	C10	0.020700	0.797300	0.208500
H51	H5	0.033400	0.790000	0.152900
C111	C11	0.934800	0.808600	0.215400
H61	H6	0.889900	0.809700	0.164200
C121	C12	0.912000	0.818400	0.294100
C131	C13	0.981100	0.817800	0.367300
H71	H7	0.968300	0.824900	0.422900
C141	C14	0.066300	0.807200	0.361400
H81	H8	0.111700	0.807200	0.412700
C151	C15	0.347600	0.635100	0.293200
C161	C16	0.349900	0.537100	0.295600
C171	C17	0.317900	0.468500	0.219900
H91	H9	0.292800	0.483000	0.165700
C181	C18	0.322200	0.378700	0.222500
H101	H10	0.299300	0.332500	0.170100
C191	C19	0.359300	0.355600	0.300800
C201	C20	0.397100	0.426600	0.376700
H111	H11	0.426000	0.413200	0.430200
C211	C21	0.392300	0.516100	0.373900
H121	H12	0.418000	0.563400	0.425500
C221	C22	0.539400	0.831800	0.318400
C231	C23	0.638900	0.836400	0.313400
C241	C24	0.657000	0.818500	0.234000
H131	H13	0.608200	0.809300	0.182300
C251	C25	0.745600	0.813700	0.227700
H141	H14	0.756200	0.800500	0.171600
C261	C26	0.818300	0.827700	0.301100
C271	C27	0.799500	0.847600	0.380900
H151	H15	0.848200	0.857000	0.432900
C281	C28	0.711800	0.854200	0.387100
H161	H16	0.701900	0.871300	0.442900
C291	C29	0.380300	0.764400	0.560800
H171	H17	0.377700	0.707000	0.526400
C301	C30	0.376500	0.768200	0.646900
H181	H18	0.369100	0.713800	0.670100
C311	C31	0.383600	0.851500	0.697700
C321	C32	0.392400	0.928300	0.660400
H191	H19	0.397400	0.987000	0.693900
C331	C33	0.393700	0.918900	0.574500
H201	H20	0.399300	0.972100	0.549400
C341	C34	0.389500	0.869300	0.795100
C351	C35	0.405800	0.851100	0.064800
H211	H21	0.450500	0.894600	0.113400
C361	C36	0.412200	0.858700	0.981500
H221	H22	0.459900	0.907500	0.973000
C371	C37	0.347500	0.793500	0.909900
C381	C38	0.280600	0.725500	0.925100
H231	H23	0.236400	0.679500	0.878000
C391	C39	0.277600	0.724200	0.009900
H241	H24	0.228900	0.677300	0.019600
N11	N1	0.387500	0.838100	0.524800
N21	N2	0.349300	0.794400	0.823000
H251	H25	0.322200	0.742100	0.784100
N31	N3	0.338500	0.784400	0.078900
O11	O1	0.361700	0.927300	0.240000
O21	O2	0.390400	0.959800	0.385800
O31	O3	0.242600	0.794400	0.346100
O41	O4	0.197500	0.776600	0.201000
O51	O5	0.317000	0.652900	0.219800
O61	O6	0.377600	0.691700	0.365700
O71	O7	0.526400	0.854100	0.392900
O81	O8	0.476700	0.805200	0.247500
O91	O9	0.425200	0.949000	0.841900
Zn11	Zn1	0.388530	0.829020	0.397470
Zn21	Zn2	0.333480	0.785120	0.203770
C401	C40	0.623900	0.019000	0.687900
C411	C41	0.626100	0.921400	0.690000
C421	C42	0.624000	0.861400	0.615900
H261	H26	0.618900	0.881400	0.562200
C431	C43	0.629300	0.772000	0.618800
H271	H27	0.629200	0.732200	0.567400
C441	C44	0.634600	0.739700	0.696400
C451	C45	0.632500	0.799600	0.769800
H281	H28	0.633100	0.778600	0.822700
C461	C46	0.629600	0.889600	0.766900
H291	H29	0.630100	0.929800	0.818300
C471	C47	0.816600	0.211500	0.724300
C481	C48	0.911900	0.203600	0.718800
C491	C49	0.979300	0.202700	0.791500
H301	H30	0.966600	0.210000	0.847100
C501	C50	0.065200	0.191400	0.784600
H311	H31	0.110100	0.190300	0.835800
C511	C51	0.088000	0.181600	0.705900
C521	C52	0.018900	0.182200	0.632700
H321	H32	0.031700	0.175100	0.577100
C531	C53	0.933700	0.192800	0.638600
H331	H33	0.888300	0.192800	0.587300
C541	C54	0.652400	0.364900	0.706800
C551	C55	0.650100	0.462900	0.704400
C561	C56	0.682100	0.531500	0.780100
H341	H34	0.707200	0.517000	0.834300
C571	C57	0.677800	0.621300	0.777500
H351	H35	0.700700	0.667500	0.829900
C581	C58	0.640700	0.644400	0.699200
C591	C59	0.602900	0.573400	0.623300
H361	H36	0.574000	0.586800	0.569800
C601	C60	0.607700	0.483900	0.626100
H371	H37	0.582000	0.436600	0.574500
C611	C61	0.460600	0.168200	0.681600
C621	C62	0.361100	0.163600	0.686600
C631	C63	0.343000	0.181500	0.766000
H381	H38	0.391800	0.190700	0.817700
C641	C64	0.254400	0.186300	0.772300
H391	H39	0.243800	0.199500	0.828400
C651	C65	0.181700	0.172300	0.698900
C661	C66	0.200500	0.152400	0.619100
H401	H40	0.151800	0.143000	0.567100
C671	C67	0.288200	0.145800	0.612900
H411	H41	0.298100	0.128700	0.557100
C681	C68	0.619700	0.235600	0.439200
H421	H42	0.622300	0.293000	0.473600
C691	C69	0.623500	0.231800	0.353100
H431	H43	0.630900	0.286200	0.329900
C701	C70	0.616400	0.148500	0.302300
C711	C71	0.607600	0.071700	0.339600
H441	H44	0.602600	0.013000	0.306100
C721	C72	0.606300	0.081100	0.425500
H451	H45	0.600700	0.027900	0.450600
C731	C73	0.610500	0.130700	0.204900
C741	C74	0.594200	0.148900	0.935200
H461	H46	0.549500	0.105400	0.886600
C751	C75	0.587800	0.141300	0.018500
H471	H47	0.540100	0.092500	0.027000
C761	C76	0.652500	0.206500	0.090100
C771	C77	0.719400	0.274500	0.074900
H481	H48	0.763600	0.320500	0.122000
C781	C78	0.722400	0.275800	0.990100
H491	H49	0.771100	0.322700	0.980400
N41	N4	0.612500	0.161900	0.475200
N51	N5	0.650700	0.205600	0.177000
H501	H50	0.677800	0.257900	0.215900
N61	N6	0.661500	0.215600	0.921100
O101	O10	0.638300	0.072700	0.760000
O111	O11	0.609600	0.040200	0.614200
O121	O12	0.757400	0.205600	0.653900
O131	O13	0.802500	0.223400	0.799000
O141	O14	0.683000	0.347100	0.780200
O151	O15	0.622400	0.308300	0.634300
O161	O16	0.473600	0.145900	0.607100
O171	O17	0.523300	0.194800	0.752500
O181	O18	0.574800	0.051000	0.158100
Zn31	Zn3	0.611470	0.170980	0.602530
Zn41	Zn4	0.666520	0.214880	0.796230
