data_SOPLEQ_clean_PM
_symmetry_space_group_name_H-M	'P1'
_cell_length_a	19.722000
_cell_length_b	28.058800
_cell_length_c	28.083500
_cell_angle_alpha	90.000000
_cell_angle_beta	94.423000
_cell_angle_gamma	90.000000
_symmetry_Int_Tables_number 1

loop_
_symmetry_equiv_pos_as_xyz
'x,y,z'

loop_
_atom_site_label
_atom_site_type_symbol
_atom_site_fract_x
_atom_site_fract_y
_atom_site_fract_z
Zn11	Zn1	0.390040	0.253580	0.661310
Zn21	Zn2	0.390040	0.246420	0.161310
Zn31	Zn3	0.893370	0.747420	0.653090
Zn41	Zn4	0.884770	0.748170	0.048340
Zn51	Zn5	0.391890	0.250650	0.557080
Zn61	Zn6	0.391890	0.249350	0.057080
Zn71	Zn7	0.893370	0.752580	0.153090
Zn81	Zn8	0.884770	0.751830	0.548340
H11	H1	0.233600	0.141400	0.171600
H21	H2	0.289800	0.253000	0.736700
H31	H3	0.769500	0.612700	0.032400
H41	H4	0.637800	0.086300	0.564100
H51	H5	0.313200	0.104900	0.538400
H61	H6	0.128200	0.013200	0.130700
H71	H7	0.110900	0.568300	0.051900
H81	H8	0.206400	0.164600	0.029600
H91	H9	0.182600	0.520200	0.071700
H101	H10	0.798300	0.785400	0.463300
H111	H11	0.707300	0.541700	0.039100
H121	H12	0.972800	0.716500	0.474000
H131	H13	0.142300	0.901800	0.688800
H141	H14	0.073600	0.664100	0.180800
H151	H15	0.155900	0.420300	0.665000
H161	H16	0.975800	0.786400	0.892600
H171	H17	0.527200	0.033400	0.039800
H181	H18	0.504800	0.385400	0.682400
H191	H19	0.026900	0.965500	0.033600
H201	H20	0.932300	0.687300	0.317300
H211	H21	0.707300	0.958300	0.539100
H221	H22	0.125700	0.396500	0.522100
H231	H23	0.474600	0.288300	0.481000
H241	H24	0.072000	0.551800	0.675300
H251	H25	0.306300	0.290500	0.891300
H261	H26	0.527400	0.359100	0.192600
H271	H27	0.618200	0.604600	0.519700
H281	H28	0.110900	0.931700	0.551900
H291	H29	0.981000	0.885600	0.030800
H301	H30	0.610500	0.521800	0.639600
H311	H31	0.651600	0.013100	0.581500
H321	H32	0.203100	0.444700	0.169500
H331	H33	0.927200	0.812300	0.734600
H341	H34	0.699800	0.664200	0.522700
H351	H35	0.799800	0.787500	0.380200
H361	H36	0.779400	0.627800	0.175300
H371	H37	0.125700	0.103500	0.022100
H381	H38	0.309000	0.288800	0.973200
H391	H39	0.637800	0.413700	0.064100
H401	H40	0.262600	0.469600	0.037700
H411	H41	0.306300	0.209500	0.391300
H421	H42	0.734700	0.645200	0.665200
H431	H43	0.653700	0.915200	0.161500
H441	H44	0.128200	0.486800	0.630700
H451	H45	0.203100	0.055300	0.669500
H461	H46	0.618200	0.895400	0.019700
H471	H47	0.610500	0.978200	0.139600
H481	H48	0.142300	0.598200	0.188800
H491	H49	0.026900	0.534500	0.533600
H501	H50	0.489600	0.247300	0.246000
H511	H51	0.571500	0.155600	0.556300
H521	H52	0.493800	0.251600	0.828600
H531	H53	0.309000	0.211200	0.473200
H541	H54	0.927200	0.687700	0.234600
H551	H55	0.981000	0.614400	0.530800
H561	H56	0.932300	0.812700	0.817300
H571	H57	0.288000	0.249500	0.319200
H581	H58	0.571500	0.344400	0.056300
H591	H59	0.651600	0.486900	0.081500
H601	H60	0.975800	0.713600	0.392600
H611	H61	0.842700	0.684600	0.811900
H621	H62	0.255800	0.368900	0.169600
H631	H63	0.769500	0.887300	0.532400
H641	H64	0.779400	0.872200	0.675300
H651	H65	0.474600	0.211700	0.981000
H661	H66	0.699800	0.835800	0.022700
H671	H67	0.073600	0.835900	0.680800
H681	H68	0.206400	0.335400	0.529600
H691	H69	0.477500	0.289100	0.399300
H701	H70	0.007700	0.619400	0.671700
H711	H71	0.033600	0.864900	0.542000
H721	H72	0.482800	0.389000	0.539000
H731	H73	0.799800	0.712500	0.880200
H741	H74	0.033600	0.635100	0.042000
H751	H75	0.798300	0.714600	0.963300
H761	H76	0.527200	0.466600	0.539800
H771	H77	0.844800	0.686100	0.730000
H781	H78	0.289800	0.247000	0.236700
H791	H79	0.313200	0.395100	0.038400
H801	H80	0.233600	0.358600	0.671600
H811	H81	0.972800	0.783500	0.974000
H821	H82	0.477500	0.210900	0.899300
H831	H83	0.072000	0.948200	0.175300
H841	H84	0.844800	0.813900	0.230000
H851	H85	0.007700	0.880600	0.171700
H861	H86	0.504800	0.114600	0.182400
H871	H87	0.594000	0.075700	0.702100
H881	H88	0.155900	0.079700	0.165000
H891	H89	0.842700	0.815400	0.311900
H901	H90	0.653700	0.584800	0.661500
H911	H91	0.734700	0.854800	0.165200
H921	H92	0.493800	0.248400	0.328600
H931	H93	0.262600	0.030400	0.537700
H941	H94	0.489600	0.252700	0.746000
H951	H95	0.594000	0.424300	0.202100
H961	H96	0.722000	0.944200	0.682000
H971	H97	0.255800	0.131100	0.669600
H981	H98	0.288000	0.250500	0.819200
H991	H99	0.182600	0.979800	0.571700
H1001	H100	0.482800	0.111000	0.039000
H1011	H101	0.553600	0.460200	0.683900
H1021	H102	0.527400	0.140900	0.692600
H1031	H103	0.553600	0.039800	0.183900
H1041	H104	0.722000	0.555800	0.182000
C11	C1	0.049900	0.937800	0.145800
C21	C2	0.889000	0.751500	0.377190
C31	C3	0.343900	0.227100	0.457870
C41	C4	0.783500	0.695960	0.595960
C51	C5	0.621800	0.075100	0.634600
C61	C6	0.049900	0.562200	0.645800
C71	C7	0.643000	0.611900	0.549100
C81	C8	0.213000	0.133000	0.141100
C91	C9	0.727000	0.840490	0.093700
C101	C10	0.330100	0.251200	0.804890
C111	C11	0.863600	0.712200	0.748100
C121	C12	0.711000	0.541600	0.110100
C131	C13	0.392000	0.249000	0.385920
C141	C14	0.392000	0.251000	0.885920
C151	C15	0.510300	0.098500	0.153200
C161	C16	0.992200	0.805300	0.607400
C171	C17	0.835500	0.728200	0.948560
C181	C18	0.912000	0.785000	0.750600
C191	C19	0.991200	0.876000	0.100900
C201	C20	0.260300	0.449300	0.064600
C211	C21	0.196600	0.353200	0.557000
C221	C22	0.166500	0.403300	0.637300
C231	C23	0.225400	0.065700	0.642500
C241	C24	0.078500	0.644400	0.153800
C251	C25	0.055300	0.628000	0.072500
C261	C26	0.668100	0.471000	0.145000
C271	C27	0.524300	0.449600	0.568900
C281	C28	0.539100	0.054200	0.154300
C291	C29	0.779700	0.627600	0.103300
C301	C30	0.668100	0.029000	0.645000
C311	C31	0.957400	0.828300	0.102200
C321	C32	0.101500	0.912600	0.578500
C331	C33	0.583100	0.548000	0.584000
C341	C34	0.615500	0.098200	0.590400
C351	C35	0.731500	0.567500	0.151400
C361	C36	0.448100	0.247600	0.261100
C371	C37	0.390800	0.249100	0.332690
C381	C38	0.691100	0.852400	0.051000
C391	C39	0.440100	0.228200	0.962200
C401	C40	0.390800	0.250900	0.832690
C411	C41	0.323500	0.173080	0.603520
C421	C42	0.630700	0.586600	0.590500
C431	C43	0.440100	0.271800	0.462200
C441	C44	0.759200	0.601600	0.062900
C451	C45	0.442300	0.272700	0.413640
C461	C46	0.996400	0.600400	0.560400
C471	C47	0.510300	0.401500	0.653200
C481	C48	0.289400	0.125200	0.603600
C491	C49	0.052000	0.964500	0.104900
C501	C50	0.230400	0.157600	0.100800
C511	C51	0.442300	0.227300	0.913640
C521	C52	0.341800	0.274100	0.909100
C531	C53	0.765600	0.610200	0.147400
C541	C54	0.817900	0.826860	0.598800
C551	C55	0.052000	0.535500	0.604900
C561	C56	0.227300	0.036700	0.602300
C571	C57	0.524300	0.050400	0.068900
C581	C58	0.331800	0.252400	0.755720
C591	C59	0.055300	0.872000	0.572500
C601	C60	0.130800	0.922600	0.622700
C611	C61	0.542900	0.344800	0.123700
C621	C62	0.290600	0.405100	0.065400
C631	C63	0.711000	0.958400	0.610100
C641	C64	0.015600	0.896600	0.142800
C651	C65	0.889000	0.748500	0.877190
C661	C66	0.765600	0.889800	0.647400
C671	C67	0.939600	0.770400	0.906200
C681	C68	0.589200	0.091500	0.672200
C691	C69	0.712100	0.863600	0.135400
C701	C70	0.542900	0.155200	0.623700
C711	C71	0.630700	0.913400	0.090500
C721	C72	0.148400	0.110400	0.052300
C731	C73	0.589200	0.408500	0.172200
C741	C74	0.171100	0.965900	0.631200
C751	C75	0.134100	0.415600	0.592100
C761	C76	0.323500	0.326920	0.103520
C771	C77	0.664000	0.600400	0.632900
C781	C78	0.731500	0.932500	0.651400
C791	C79	0.043500	0.655600	0.110900
C801	C80	0.996400	0.899600	0.060400
C811	C81	0.451100	0.248400	0.310300
C821	C82	0.575900	0.138900	0.585800
C831	C83	0.260300	0.050700	0.564600
C841	C84	0.550800	0.130000	0.666300
C851	C85	0.817900	0.673140	0.098800
C861	C86	0.120200	0.605200	0.158300
C871	C87	0.575900	0.361100	0.085800
C881	C88	0.991200	0.624000	0.600900
C891	C89	0.225400	0.434300	0.142500
C901	C90	0.148400	0.389600	0.552300
C911	C91	0.835900	0.727400	0.899040
C921	C92	0.621800	0.424900	0.134600
C931	C93	0.086500	0.455200	0.584400
C941	C94	0.448100	0.252400	0.761100
C951	C95	0.171100	0.534100	0.131200
C961	C96	0.284400	0.194440	0.105260
C971	C97	0.284400	0.305560	0.605260
C981	C98	0.489100	0.379700	0.610600
C991	C99	0.496600	0.096200	0.068600
C1001	C100	0.213000	0.367000	0.641100
C1011	C101	0.130800	0.577400	0.122700
C1021	C102	0.257000	0.389300	0.142600
C1031	C103	0.290600	0.094900	0.565400
C1041	C104	0.451100	0.251600	0.810300
C1051	C105	0.957400	0.671700	0.602200
C1061	C106	0.889100	0.749000	0.824120
C1071	C107	0.863600	0.787800	0.248100
C1081	C108	0.494300	0.303300	0.119500
C1091	C109	0.939600	0.729600	0.406200
C1101	C110	0.937000	0.731100	0.454600
C1111	C111	0.889100	0.751000	0.324120
C1121	C112	0.457600	0.331100	0.609600
C1131	C113	0.547200	0.030200	0.111600
C1141	C114	0.043500	0.844400	0.610900
C1151	C115	0.783500	0.804040	0.095960
C1161	C116	0.912000	0.715000	0.250600
C1171	C117	0.835900	0.772600	0.399040
C1181	C118	0.913700	0.785900	0.800300
C1191	C119	0.494300	0.196700	0.619500
C1201	C120	0.691100	0.647600	0.551000
C1211	C121	0.664000	0.899600	0.132900
C1221	C122	0.457600	0.168900	0.109600
C1231	C123	0.547200	0.469800	0.611600
C1241	C124	0.550800	0.370000	0.166300
C1251	C125	0.343900	0.272900	0.957870
C1261	C126	0.166500	0.096700	0.137300
C1271	C127	0.257000	0.110700	0.642600
C1281	C128	0.937000	0.768900	0.954600
C1291	C129	0.913700	0.714100	0.300300
C1301	C130	0.331800	0.247600	0.255720
C1311	C131	0.489100	0.120300	0.110600
C1321	C132	0.759200	0.898400	0.562900
C1331	C133	0.196600	0.146800	0.057000
C1341	C134	0.723100	0.941300	0.567100
C1351	C135	0.078500	0.855600	0.653800
C1361	C136	0.330100	0.248800	0.304890
C1371	C137	0.015600	0.603400	0.642800
C1381	C138	0.643000	0.888100	0.049100
C1391	C139	0.992200	0.694700	0.107400
C1401	C140	0.615500	0.401800	0.090400
C1411	C141	0.341800	0.225900	0.409100
C1421	C142	0.583100	0.952000	0.084000
C1431	C143	0.025800	0.947000	0.061900
C1441	C144	0.835500	0.771800	0.448560
C1451	C145	0.539100	0.445800	0.654300
C1461	C146	0.727000	0.659510	0.593700
C1471	C147	0.230400	0.342400	0.600800
C1481	C148	0.086500	0.044800	0.084400
C1491	C149	0.496600	0.403800	0.568600
C1501	C150	0.025800	0.553000	0.561900
C1511	C151	0.134100	0.084400	0.092100
C1521	C152	0.227300	0.463300	0.102300
C1531	C153	0.120200	0.894800	0.658300
C1541	C154	0.712100	0.636400	0.635400
C1551	C155	0.779700	0.872400	0.603300
C1561	C156	0.101500	0.587400	0.078500
C1571	C157	0.723100	0.558700	0.067100
C1581	C158	0.862100	0.711100	0.796900
C1591	C159	0.862100	0.788900	0.296900
C1601	C160	0.289400	0.374800	0.103600
N11	N1	0.672300	0.003700	0.608700
N21	N2	0.392300	0.249250	0.484840
N31	N3	0.584200	0.516500	0.613400
N41	N4	0.584200	0.983500	0.113400
N51	N5	0.094600	0.488100	0.608200
N61	N6	0.389600	0.252910	0.733620
N71	N7	0.094600	0.011900	0.108200
N81	N8	0.191200	0.991000	0.600800
N91	N9	0.890300	0.748230	0.724820
N101	N10	0.392300	0.250750	0.984840
N111	N11	0.191200	0.509000	0.100800
N121	N12	0.886800	0.752000	0.475860
N131	N13	0.389600	0.247090	0.233620
N141	N14	0.672300	0.496300	0.108700
N151	N15	0.886800	0.748000	0.975860
N161	N16	0.890300	0.751770	0.224820
O11	O1	0.191000	0.523500	0.181200
O21	O2	0.967400	0.706420	0.066890
O31	O3	0.036600	0.046600	0.049800
O41	O4	0.976800	0.787530	0.645520
O51	O5	0.693200	0.020900	0.685900
O61	O6	0.826900	0.688670	0.058100
O71	O7	0.305000	0.288540	0.567380
O81	O8	0.947200	0.688110	0.641930
O91	O9	0.470700	0.210640	0.656870
O101	O10	0.331300	0.304760	0.142990
O111	O11	0.826900	0.811330	0.558100
O121	O12	0.331300	0.195240	0.642990
O131	O13	0.478200	0.213160	0.578730
O141	O14	0.305000	0.211460	0.067380
O151	O15	0.941700	0.807860	0.063180
O161	O16	0.801600	0.710980	0.557020
O171	O17	0.340700	0.311640	0.064810
O181	O18	0.443200	0.187740	0.069500
O191	O19	0.443200	0.312260	0.569500
O201	O20	0.529300	0.949400	0.047100
O211	O21	0.306800	0.294800	0.646560
O221	O22	0.967400	0.793580	0.566890
O231	O23	0.808400	0.791500	0.136240
O241	O24	0.036600	0.453400	0.549800
O251	O25	0.801600	0.789020	0.057020
O261	O26	0.340700	0.188360	0.564810
O271	O27	0.529300	0.550600	0.547100
O281	O28	0.838000	0.692990	0.137200
O291	O29	0.808400	0.708500	0.636240
O301	O30	0.191000	0.976500	0.681200
O311	O31	0.941700	0.692140	0.563180
O321	O32	0.478200	0.286840	0.078730
O331	O33	0.447500	0.312040	0.649340
O341	O34	0.306800	0.205200	0.146560
O351	O35	0.947200	0.811890	0.141930
O361	O36	0.693200	0.479100	0.185900
O371	O37	0.470700	0.289360	0.156870
O381	O38	0.838000	0.807010	0.637200
O391	O39	0.447500	0.187960	0.149340
O401	O40	0.976800	0.712470	0.145520
Zn91	Zn9	0.609960	0.746420	0.338690
Zn101	Zn10	0.608110	0.749350	0.442920
Zn111	Zn11	0.115230	0.248170	0.451660
Zn121	Zn12	0.106630	0.252580	0.346910
Zn131	Zn13	0.106630	0.247420	0.846910
Zn141	Zn14	0.115230	0.251830	0.951660
Zn151	Zn15	0.608110	0.750650	0.942920
Zn161	Zn16	0.609960	0.753580	0.838690
H1051	H105	0.871800	0.513200	0.369300
H1061	H106	0.525400	0.788300	0.019000
H1071	H107	0.201700	0.285400	0.036700
H1081	H108	0.027200	0.283500	0.526000
H1091	H109	0.067700	0.187300	0.182700
H1101	H110	0.346300	0.084800	0.838500
H1111	H111	0.067700	0.312700	0.682700
H1121	H112	0.265300	0.354800	0.334800
H1131	H113	0.793600	0.835400	0.970400
H1141	H114	0.691000	0.711200	0.026800
H1151	H115	0.157300	0.184600	0.688100
H1161	H116	0.157300	0.315400	0.188100
H1171	H117	0.844100	0.579700	0.335000
H1181	H118	0.230500	0.387300	0.967600
H1191	H119	0.712000	0.749500	0.180800
H1201	H120	0.155200	0.186100	0.770000
H1211	H121	0.928000	0.051800	0.824700
H1221	H122	0.737400	0.530400	0.962300
H1231	H123	0.889100	0.431700	0.948100
H1241	H124	0.517200	0.611000	0.461000
H1251	H125	0.155200	0.313900	0.270000
H1261	H126	0.522500	0.710900	0.600700
H1271	H127	0.693700	0.790500	0.608700
H1281	H128	0.201700	0.214600	0.536700
H1291	H129	0.389500	0.478200	0.360400
H1301	H130	0.406000	0.575700	0.797900
H1311	H131	0.744200	0.631100	0.830400
H1321	H132	0.220600	0.372200	0.824700
H1331	H133	0.817400	0.020200	0.428300
H1341	H134	0.220600	0.127800	0.324700
H1351	H135	0.446400	0.960200	0.816100
H1361	H136	0.024200	0.286400	0.607400
H1371	H137	0.973100	0.034500	0.966400
H1381	H138	0.874300	0.603500	0.477900
H1391	H139	0.019000	0.385600	0.469200
H1401	H140	0.506200	0.748400	0.171400
H1411	H141	0.926400	0.164100	0.319200
H1421	H142	0.292700	0.458300	0.960900
H1431	H143	0.300200	0.164200	0.977300
H1441	H144	0.510400	0.752700	0.754000
H1451	H145	0.737400	0.969600	0.462300
H1461	H146	0.019000	0.114400	0.969200
H1471	H147	0.506200	0.751600	0.671400
H1481	H148	0.710200	0.747000	0.263300
H1491	H149	0.362200	0.913700	0.435900
H1501	H150	0.389500	0.021800	0.860400
H1511	H151	0.346300	0.415200	0.338500
H1521	H152	0.766400	0.858600	0.828400
H1531	H153	0.844100	0.920300	0.835000
H1541	H154	0.406000	0.924300	0.297900
H1551	H155	0.072800	0.312300	0.765400
H1561	H156	0.796900	0.944700	0.330500
H1571	H157	0.874300	0.896500	0.977900
H1581	H158	0.691000	0.788800	0.526800
H1591	H159	0.857700	0.098200	0.311200
H1601	H160	0.472800	0.533400	0.460200
H1611	H161	0.928000	0.448200	0.324700
H1621	H162	0.292700	0.041700	0.460900
H1631	H163	0.348400	0.986900	0.418500
H1641	H164	0.472600	0.640900	0.807400
H1651	H165	0.495200	0.885400	0.817600
H1661	H166	0.428500	0.655600	0.943700
H1671	H167	0.966400	0.364900	0.958000
H1681	H168	0.796900	0.555300	0.830500
H1691	H169	0.230500	0.112700	0.467600
H1701	H170	0.517200	0.889000	0.961000
H1711	H171	0.381800	0.104600	0.980300
H1721	H172	0.300200	0.335800	0.477300
H1731	H173	0.072800	0.187700	0.265400
H1741	H174	0.525400	0.711700	0.519000
H1751	H175	0.973100	0.465500	0.466400
H1761	H176	0.472600	0.859100	0.307400
H1771	H177	0.966400	0.135100	0.458000
H1781	H178	0.510400	0.747300	0.254000
H1791	H179	0.857700	0.401800	0.811200
H1801	H180	0.278000	0.444200	0.818000
H1811	H181	0.793600	0.664600	0.470400
H1821	H182	0.200200	0.287500	0.119800
H1831	H183	0.686800	0.895100	0.461600
H1841	H184	0.686800	0.604900	0.961600
H1851	H185	0.027200	0.216500	0.026000
H1861	H186	0.712000	0.750500	0.680800
H1871	H187	0.024200	0.213600	0.107400
H1881	H188	0.871800	0.986800	0.869300
H1891	H189	0.744200	0.868900	0.330400
H1901	H190	0.428500	0.844400	0.443700
H1911	H191	0.926400	0.335900	0.819200
H1921	H192	0.710200	0.753000	0.763300
H1931	H193	0.817400	0.479800	0.928300
H1941	H194	0.381800	0.395400	0.480300
H1951	H195	0.522500	0.789100	0.100700
H1961	H196	0.992300	0.119400	0.828300
H1971	H197	0.693700	0.709500	0.108700
H1981	H198	0.348400	0.513100	0.918500
H1991	H199	0.472800	0.966600	0.960200
H2001	H200	0.362200	0.586300	0.935900
H2011	H201	0.992300	0.380600	0.328300
H2021	H202	0.446400	0.539800	0.316100
H2031	H203	0.495200	0.614600	0.317600
H2041	H204	0.766400	0.641400	0.328400
H2051	H205	0.200200	0.212500	0.619800
H2061	H206	0.889100	0.068300	0.448100
H2071	H207	0.278000	0.055800	0.318000
H2081	H208	0.265300	0.145200	0.834800
C1611	C161	0.111000	0.251500	0.122810
C1621	C162	0.715600	0.805560	0.894740
C1631	C163	0.220300	0.127600	0.396700
C1641	C164	0.739700	0.550700	0.935400
C1651	C165	0.164500	0.228200	0.551440
C1661	C166	0.003600	0.100400	0.939600
C1671	C167	0.669900	0.748800	0.195110
C1681	C168	0.273000	0.340490	0.406300
C1691	C169	0.457100	0.844800	0.376300
C1701	C170	0.974200	0.053000	0.938100
C1711	C171	0.357000	0.111900	0.950900
C1721	C172	0.268500	0.432500	0.848600
C1731	C173	0.710600	0.625200	0.896400
C1741	C174	0.658200	0.774100	0.590900
C1751	C175	0.003600	0.399600	0.439600
C1761	C176	0.276900	0.441300	0.932900
C1771	C177	0.656100	0.772900	0.542130
C1781	C178	0.739700	0.949300	0.435400
C1791	C179	0.557700	0.727300	0.586360
C1801	C180	0.042600	0.171700	0.897800
C1811	C181	0.769600	0.842400	0.899200
C1821	C182	0.273000	0.159510	0.906300
C1831	C183	0.656100	0.727100	0.042130
C1841	C184	0.503400	0.596200	0.431400
C1851	C185	0.378200	0.924900	0.365400
C1861	C186	0.803400	0.646800	0.443000
C1871	C187	0.182100	0.173140	0.401200
C1881	C188	0.548900	0.748400	0.189700
C1891	C189	0.475700	0.550400	0.431100
C1901	C190	0.956500	0.344400	0.889100
C1911	C191	0.137900	0.288900	0.203100
C1921	C192	0.489700	0.598500	0.346800
C1931	C193	0.460900	0.945800	0.845700
C1941	C194	0.608000	0.751000	0.614080
C1951	C195	0.088000	0.215000	0.249400
C1961	C196	0.851600	0.889600	0.947700
C1971	C197	0.164500	0.271800	0.051440
C1981	C198	0.063000	0.231100	0.045400
C1991	C199	0.008800	0.376000	0.399100
C2001	C200	0.449200	0.870000	0.333700
C2011	C201	0.865900	0.915600	0.907900
C2021	C202	0.110900	0.251000	0.175880
C2031	C203	0.137900	0.211100	0.703100
C2041	C204	0.308900	0.147600	0.949000
C2051	C205	0.879800	0.394800	0.841700
C2061	C206	0.803400	0.853200	0.943000
C2071	C207	0.984400	0.396600	0.357200
C2081	C208	0.452800	0.530200	0.388400
C2091	C209	0.709400	0.594900	0.934600
C2101	C210	0.869200	0.422600	0.877300
C2111	C211	0.220300	0.372400	0.896700
C2121	C212	0.457100	0.655200	0.876300
C2131	C213	0.921500	0.355600	0.846200
C2141	C214	0.559900	0.771800	0.037800
C2151	C215	0.424100	0.861100	0.414200
C2161	C216	0.772700	0.536700	0.897700
C2171	C217	0.060400	0.270400	0.593800
C2181	C218	0.336000	0.399600	0.367100
C2191	C219	0.503400	0.903800	0.931400
C2201	C220	0.240800	0.101600	0.437100
C2211	C221	0.913500	0.544800	0.415600
C2221	C222	0.164100	0.272600	0.100960
C2231	C223	0.974200	0.447000	0.438100
C2241	C224	0.676500	0.673080	0.896480
C2251	C225	0.898500	0.087400	0.421500
C2261	C226	0.289000	0.458400	0.889900
C2271	C227	0.609200	0.750900	0.667310
C2281	C228	0.007800	0.305300	0.892600
C2291	C229	0.769600	0.657600	0.399200
C2301	C230	0.715600	0.694440	0.394740
C2311	C231	0.913500	0.955200	0.915600
C2321	C232	0.369300	0.086600	0.909500
C2331	C233	0.944700	0.372000	0.927500
C2341	C234	0.743000	0.610700	0.857400
C2351	C235	0.410800	0.591500	0.827800
C2361	C236	0.088000	0.285000	0.749400
C2371	C237	0.542400	0.668900	0.390400
C2381	C238	0.289000	0.041600	0.389900
C2391	C239	0.898500	0.412600	0.921500
C2401	C240	0.557700	0.772700	0.086360
C2411	C241	0.772700	0.963300	0.397700
C2421	C242	0.216500	0.195960	0.904040
C2431	C243	0.475700	0.949600	0.931100
C2441	C244	0.384500	0.598200	0.909600
C2451	C245	0.828900	0.034100	0.368800
C2461	C246	0.331900	0.529000	0.855000
C2471	C247	0.424100	0.638900	0.914200
C2481	C248	0.384500	0.901800	0.409600
C2491	C249	0.086300	0.285900	0.699700
C2501	C250	0.416900	0.048000	0.916000
C2511	C251	0.551900	0.747600	0.238900
C2521	C252	0.110900	0.249000	0.675880
C2531	C253	0.460900	0.554200	0.345700
C2541	C254	0.984400	0.103400	0.857200
C2551	C255	0.234400	0.389800	0.852600
C2561	C256	0.336000	0.100400	0.867100
C2571	C257	0.452800	0.969800	0.888400
C2581	C258	0.111000	0.248500	0.622810
C2591	C259	0.944700	0.128000	0.427500
C2601	C260	0.234400	0.110200	0.352600
C2611	C261	0.086300	0.214100	0.199700
C2621	C262	0.008800	0.124000	0.899100
C2631	C263	0.869200	0.077400	0.377300
C2641	C264	0.268500	0.067500	0.348600
C2651	C265	0.774600	0.934300	0.357500
C2661	C266	0.851600	0.610400	0.447700
C2671	C267	0.787000	0.867000	0.858900
C2681	C268	0.287900	0.136400	0.864600
C2691	C269	0.136400	0.212200	0.751900
C2701	C270	0.608000	0.749000	0.114080
C2711	C271	0.950100	0.062200	0.854200
C2721	C272	0.276900	0.058700	0.432900
C2731	C273	0.164100	0.227400	0.600960
C2741	C274	0.505700	0.803300	0.380500
C2751	C275	0.828900	0.465900	0.868800
C2761	C276	0.551900	0.752400	0.738900
C2771	C277	0.060400	0.229600	0.093800
C2781	C278	0.416900	0.452000	0.416000
C2791	C279	0.709400	0.905100	0.434600
C2801	C280	0.042600	0.328300	0.397800
C2811	C281	0.956500	0.155600	0.389100
C2821	C282	0.774600	0.565700	0.857500
C2831	C283	0.505700	0.696700	0.880500
C2841	C284	0.948000	0.035500	0.895100
C2851	C285	0.182100	0.326860	0.901200
C2861	C286	0.676500	0.826920	0.396480
C2871	C287	0.609200	0.749100	0.167310
C2881	C288	0.240800	0.398400	0.937100
C2891	C289	0.743000	0.889300	0.357400
C2901	C290	0.658200	0.725900	0.090900
C2911	C291	0.833500	0.596700	0.362700
C2921	C292	0.542400	0.831100	0.890400
C2931	C293	0.510900	0.620300	0.389400
C2941	C294	0.410800	0.908500	0.327800
C2951	C295	0.948000	0.464500	0.395100
C2961	C296	0.308900	0.352400	0.449000
C2971	C297	0.063000	0.268900	0.545400
C2981	C298	0.668200	0.752400	0.744280
C2991	C299	0.833500	0.903300	0.862700
C3001	C300	0.787000	0.633000	0.358900
C3011	C301	0.510900	0.879700	0.889400
C3021	C302	0.007800	0.194700	0.392600
C3031	C303	0.331900	0.971000	0.355000
C3041	C304	0.879800	0.105200	0.341700
C3051	C305	0.710600	0.874800	0.396400
C3061	C306	0.559900	0.728200	0.537800
C3071	C307	0.378200	0.575100	0.865400
C3081	C308	0.668200	0.747600	0.244280
C3091	C309	0.136400	0.287800	0.251900
C3101	C310	0.489700	0.901500	0.846800
C3111	C311	0.950100	0.437800	0.354200
C3121	C312	0.449200	0.630000	0.833700
C3131	C313	0.548900	0.751600	0.689700
C3141	C314	0.921500	0.144400	0.346200
C3151	C315	0.669900	0.751200	0.695110
C3161	C316	0.287900	0.363600	0.364600
C3171	C317	0.216500	0.304040	0.404040
C3181	C318	0.357000	0.388100	0.450900
C3191	C319	0.865900	0.584400	0.407900
C3201	C320	0.369300	0.413400	0.409500
N171	N17	0.905400	0.511900	0.391800
N181	N18	0.808800	0.491000	0.899200
N191	N19	0.327700	0.503700	0.891300
N201	N20	0.415800	0.016500	0.886600
N211	N21	0.607700	0.750750	0.515160
N221	N22	0.905400	0.988100	0.891800
N231	N23	0.109700	0.251770	0.275180
N241	N24	0.808800	0.009000	0.399200
N251	N25	0.327700	0.996300	0.391300
N261	N26	0.113200	0.248000	0.524140
N271	N27	0.610400	0.747090	0.266380
N281	N28	0.607700	0.749250	0.015160
N291	N29	0.109700	0.248230	0.775180
N301	N30	0.610400	0.752910	0.766380
N311	N31	0.415800	0.483500	0.386600
N321	N32	0.113200	0.252000	0.024140
O411	O41	0.023200	0.212470	0.354480
O421	O42	0.521800	0.786840	0.421270
O431	O43	0.529300	0.789360	0.343130
O441	O44	0.162000	0.307010	0.862800
O451	O45	0.023200	0.287530	0.854480
O461	O46	0.052800	0.188110	0.858070
O471	O47	0.173100	0.311330	0.941900
O481	O48	0.306800	0.979100	0.314100
O491	O49	0.668700	0.804760	0.357010
O501	O50	0.306800	0.520900	0.814100
O511	O51	0.963400	0.953400	0.950200
O521	O52	0.809000	0.476500	0.818800
O531	O53	0.556800	0.812260	0.930500
O541	O54	0.032600	0.293580	0.933110
O551	O55	0.695000	0.711460	0.432620
O561	O56	0.052800	0.311890	0.358070
O571	O57	0.668700	0.695240	0.857010
O581	O58	0.963400	0.546600	0.450200
O591	O59	0.173100	0.188670	0.441900
O601	O60	0.693200	0.705200	0.353440
O611	O61	0.695000	0.788540	0.932620
O621	O62	0.552500	0.812040	0.850660
O631	O63	0.659300	0.811640	0.435190
O641	O64	0.552500	0.687960	0.350660
O651	O65	0.529300	0.710640	0.843130
O661	O66	0.556800	0.687740	0.430500
O671	O67	0.162000	0.192990	0.362800
O681	O68	0.521800	0.713160	0.921270
O691	O69	0.058300	0.192140	0.936820
O701	O70	0.693200	0.794800	0.853440
O711	O71	0.191600	0.208500	0.863760
O721	O72	0.032600	0.206420	0.433110
O731	O73	0.058300	0.307860	0.436820
O741	O74	0.198400	0.289020	0.442980
O751	O75	0.470700	0.449400	0.452900
O761	O76	0.191600	0.291500	0.363760
O771	O77	0.659300	0.688360	0.935190
O781	O78	0.470700	0.050600	0.952900
O791	O79	0.809000	0.023500	0.318800
O801	O80	0.198400	0.210980	0.942980
