data_SOQJOZ_clean_PM
_symmetry_space_group_name_H-M	'P1'
_cell_length_a	12.389000
_cell_length_b	14.923000
_cell_length_c	9.386000
_cell_angle_alpha	90.000000
_cell_angle_beta	98.699000
_cell_angle_gamma	90.000000
_symmetry_Int_Tables_number 1

loop_
_symmetry_equiv_pos_as_xyz
'x,y,z'

loop_
_atom_site_label
_atom_site_type_symbol
_atom_site_fract_x
_atom_site_fract_y
_atom_site_fract_z
P11	P1	0.193030	0.173200	0.876700
P21	P2	0.156050	0.815530	0.787200
P31	P3	0.529990	0.176000	0.296500
P41	P4	0.245920	0.964900	0.172200
Al11	Al1	0.273760	0.168990	0.203500
Al21	Al2	0.056540	0.669570	0.560400
Al31	Al3	0.354960	0.811600	0.373800
Mg11	Mg1	0.323300	0.984710	0.841400
O11	O1	0.223900	0.060800	0.224100
O21	O2	0.060600	0.822600	0.876100
O31	O3	0.112600	0.766000	0.647300
O41	O4	0.268100	0.192800	0.020200
O51	O5	0.311300	0.962900	0.050300
O61	O6	0.193000	0.908000	0.749500
O71	O7	0.407400	0.176600	0.291400
O81	O8	0.244600	0.761300	0.878700
O91	O9	0.560900	0.269300	0.243200
O101	O10	0.190000	0.259400	0.784100
O111	O11	0.076100	0.156300	0.909100
O121	O12	0.302900	0.915200	0.305700
O131	O13	0.129500	0.923200	0.133800
O141	O14	0.230600	0.094100	0.797600
O151	O15	0.580600	0.168400	0.454100
O161	O16	0.568200	0.102200	0.207600
P51	P5	0.806970	0.673200	0.623300
P61	P6	0.843950	0.315530	0.712800
P71	P7	0.470010	0.676000	0.203500
P81	P8	0.754080	0.464900	0.327800
Al41	Al4	0.726240	0.668990	0.296500
Al51	Al5	0.943460	0.169570	0.939600
Al61	Al6	0.645040	0.311600	0.126200
Mg21	Mg2	0.676700	0.484710	0.658600
O171	O17	0.776100	0.560800	0.275900
O181	O18	0.939400	0.322600	0.623900
O191	O19	0.887400	0.266000	0.852700
O201	O20	0.731900	0.692800	0.479800
O211	O21	0.688700	0.462900	0.449700
O221	O22	0.807000	0.408000	0.750500
O231	O23	0.592600	0.676600	0.208600
O241	O24	0.755400	0.261300	0.621300
O251	O25	0.439100	0.769300	0.256800
O261	O26	0.810000	0.759400	0.715900
O271	O27	0.923900	0.656300	0.590900
O281	O28	0.697100	0.415200	0.194300
O291	O29	0.870500	0.423200	0.366200
O301	O30	0.769400	0.594100	0.702400
O311	O31	0.419400	0.668400	0.045900
O321	O32	0.431800	0.602200	0.292400
P91	P9	0.806970	0.826800	0.123300
P101	P10	0.843950	0.184470	0.212800
P111	P11	0.470010	0.824000	0.703500
P121	P12	0.754080	0.035100	0.827800
Al71	Al7	0.726240	0.831010	0.796500
Al81	Al8	0.943460	0.330430	0.439600
Al91	Al9	0.645040	0.188400	0.626200
Mg31	Mg3	0.676700	0.015290	0.158600
O331	O33	0.776100	0.939200	0.775900
O341	O34	0.939400	0.177400	0.123900
O351	O35	0.887400	0.234000	0.352700
O361	O36	0.731900	0.807200	0.979800
O371	O37	0.688700	0.037100	0.949700
O381	O38	0.807000	0.092000	0.250500
O391	O39	0.592600	0.823400	0.708600
O401	O40	0.755400	0.238700	0.121300
O411	O41	0.439100	0.730700	0.756800
O421	O42	0.810000	0.740600	0.215900
O431	O43	0.923900	0.843700	0.090900
O441	O44	0.697100	0.084800	0.694300
O451	O45	0.870500	0.076800	0.866200
O461	O46	0.769400	0.905900	0.202400
O471	O47	0.419400	0.831600	0.545900
O481	O48	0.431800	0.897800	0.792400
P131	P13	0.193030	0.326800	0.376700
P141	P14	0.156050	0.684470	0.287200
P151	P15	0.529990	0.324000	0.796500
P161	P16	0.245920	0.535100	0.672200
Al101	Al10	0.273760	0.331010	0.703500
Al111	Al11	0.056540	0.830430	0.060400
Al121	Al12	0.354960	0.688400	0.873800
Mg41	Mg4	0.323300	0.515290	0.341400
O491	O49	0.223900	0.439200	0.724100
O501	O50	0.060600	0.677400	0.376100
O511	O51	0.112600	0.734000	0.147300
O521	O52	0.268100	0.307200	0.520200
O531	O53	0.311300	0.537100	0.550300
O541	O54	0.193000	0.592000	0.249500
O551	O55	0.407400	0.323400	0.791400
O561	O56	0.244600	0.738700	0.378700
O571	O57	0.560900	0.230700	0.743200
O581	O58	0.190000	0.240600	0.284100
O591	O59	0.076100	0.343700	0.409100
O601	O60	0.302900	0.584800	0.805700
O611	O61	0.129500	0.576800	0.633800
O621	O62	0.230600	0.405900	0.297600
O631	O63	0.580600	0.331600	0.954100
O641	O64	0.568200	0.397800	0.707600
