data_SORQAT_clean_PM
_symmetry_space_group_name_H-M	'P1'
_cell_length_a	7.599900
_cell_length_b	21.092000
_cell_length_c	19.515000
_cell_angle_alpha	90.000000
_cell_angle_beta	98.305000
_cell_angle_gamma	90.000000
_symmetry_Int_Tables_number 1

loop_
_symmetry_equiv_pos_as_xyz
'x,y,z'

loop_
_atom_site_label
_atom_site_type_symbol
_atom_site_fract_x
_atom_site_fract_y
_atom_site_fract_z
Nd11	Nd1	0.988590	0.723590	0.755390
O11	O1	0.829300	0.673800	0.647900
O21	O2	0.700200	0.760900	0.675000
C11	C1	0.717500	0.716100	0.632200
C21	C2	0.602200	0.715800	0.564300
C31	C3	0.552100	0.658400	0.532200
C41	C4	0.548800	0.772800	0.532400
N11	N1	0.599000	0.826400	0.554000
O31	O3	0.314600	0.710500	0.822500
O41	O4	0.090900	0.683000	0.873700
C51	C5	0.254300	0.690100	0.875800
C61	C6	0.378100	0.678000	0.938900
C71	C7	0.317300	0.674800	0.003300
C81	C8	0.558900	0.675500	0.937700
H11	H1	0.599300	0.674300	0.894900
O51	O5	0.234500	0.833300	0.786000
O61	O6	0.982900	0.837400	0.717900
C91	C9	0.113700	0.864600	0.751900
C101	C10	0.121200	0.934900	0.750700
C111	C11	0.004400	0.967600	0.702500
C121	C12	0.242500	0.966700	0.797400
N21	N2	0.363000	0.942700	0.849700
N31	N3	0.146700	0.660900	0.009500
N41	N4	0.636000	0.599100	0.551900
N51	N5	0.877000	0.939700	0.660400
Nd21	Nd2	0.488590	0.223590	0.755390
O71	O7	0.329300	0.173800	0.647900
O81	O8	0.200200	0.260900	0.675000
C131	C13	0.217500	0.216100	0.632200
C141	C14	0.102200	0.215800	0.564300
C151	C15	0.052100	0.158400	0.532200
C161	C16	0.048800	0.272800	0.532400
N61	N6	0.099000	0.326400	0.554000
O91	O9	0.814600	0.210500	0.822500
O101	O10	0.590900	0.183000	0.873700
C171	C17	0.754300	0.190100	0.875800
C181	C18	0.878100	0.178000	0.938900
C191	C19	0.817300	0.174800	0.003300
C201	C20	0.058900	0.175500	0.937700
H21	H2	0.099300	0.174300	0.894900
O111	O11	0.734500	0.333300	0.786000
O121	O12	0.482900	0.337400	0.717900
C211	C21	0.613700	0.364600	0.751900
C221	C22	0.621200	0.434900	0.750700
C231	C23	0.504400	0.467600	0.702500
C241	C24	0.742500	0.466700	0.797400
N71	N7	0.863000	0.442700	0.849700
N81	N8	0.646700	0.160900	0.009500
N91	N9	0.136000	0.099100	0.551900
N101	N10	0.377000	0.439700	0.660400
Nd31	Nd3	0.011410	0.723590	0.244610
O131	O13	0.170700	0.673800	0.352100
O141	O14	0.299800	0.760900	0.325000
C251	C25	0.282500	0.716100	0.367800
C261	C26	0.397800	0.715800	0.435700
C271	C27	0.447900	0.658400	0.467800
C281	C28	0.451200	0.772800	0.467600
N111	N11	0.401000	0.826400	0.446000
O151	O15	0.685400	0.710500	0.177500
O161	O16	0.909100	0.683000	0.126300
C291	C29	0.745700	0.690100	0.124200
C301	C30	0.621900	0.678000	0.061100
C311	C31	0.682700	0.674800	0.996700
C321	C32	0.441100	0.675500	0.062300
H31	H3	0.400700	0.674300	0.105100
O171	O17	0.765500	0.833300	0.214000
O181	O18	0.017100	0.837400	0.282100
C331	C33	0.886300	0.864600	0.248100
C341	C34	0.878800	0.934900	0.249300
C351	C35	0.995600	0.967600	0.297500
C361	C36	0.757500	0.966700	0.202600
N121	N12	0.637000	0.942700	0.150300
N131	N13	0.853300	0.660900	0.990500
N141	N14	0.364000	0.599100	0.448100
N151	N15	0.123000	0.939700	0.339600
Nd41	Nd4	0.511410	0.223590	0.244610
O191	O19	0.670700	0.173800	0.352100
O201	O20	0.799800	0.260900	0.325000
C371	C37	0.782500	0.216100	0.367800
C381	C38	0.897800	0.215800	0.435700
C391	C39	0.947900	0.158400	0.467800
C401	C40	0.951200	0.272800	0.467600
N161	N16	0.901000	0.326400	0.446000
O211	O21	0.185400	0.210500	0.177500
O221	O22	0.409100	0.183000	0.126300
C411	C41	0.245700	0.190100	0.124200
C421	C42	0.121900	0.178000	0.061100
C431	C43	0.182700	0.174800	0.996700
C441	C44	0.941100	0.175500	0.062300
H41	H4	0.900700	0.174300	0.105100
O231	O23	0.265500	0.333300	0.214000
O241	O24	0.517100	0.337400	0.282100
C451	C45	0.386300	0.364600	0.248100
C461	C46	0.378800	0.434900	0.249300
C471	C47	0.495600	0.467600	0.297500
C481	C48	0.257500	0.466700	0.202600
N171	N17	0.137000	0.442700	0.150300
N181	N18	0.353300	0.160900	0.990500
N191	N19	0.864000	0.099100	0.448100
N201	N20	0.623000	0.439700	0.339600
Nd51	Nd5	0.011410	0.276410	0.244610
O251	O25	0.170700	0.326200	0.352100
O261	O26	0.299800	0.239100	0.325000
C491	C49	0.282500	0.283900	0.367800
C501	C50	0.397800	0.284200	0.435700
C511	C51	0.447900	0.341600	0.467800
C521	C52	0.451200	0.227200	0.467600
N211	N21	0.401000	0.173600	0.446000
O271	O27	0.685400	0.289500	0.177500
O281	O28	0.909100	0.317000	0.126300
C531	C53	0.745700	0.309900	0.124200
C541	C54	0.621900	0.322000	0.061100
C551	C55	0.682700	0.325200	0.996700
C561	C56	0.441100	0.324500	0.062300
H51	H5	0.400700	0.325700	0.105100
O291	O29	0.765500	0.166700	0.214000
O301	O30	0.017100	0.162600	0.282100
C571	C57	0.886300	0.135400	0.248100
C581	C58	0.878800	0.065100	0.249300
C591	C59	0.995600	0.032400	0.297500
C601	C60	0.757500	0.033300	0.202600
N221	N22	0.637000	0.057300	0.150300
N231	N23	0.853300	0.339100	0.990500
N241	N24	0.364000	0.400900	0.448100
N251	N25	0.123000	0.060300	0.339600
Nd61	Nd6	0.511410	0.776410	0.244610
O311	O31	0.670700	0.826200	0.352100
O321	O32	0.799800	0.739100	0.325000
C611	C61	0.782500	0.783900	0.367800
C621	C62	0.897800	0.784200	0.435700
C631	C63	0.947900	0.841600	0.467800
C641	C64	0.951200	0.727200	0.467600
N261	N26	0.901000	0.673600	0.446000
O331	O33	0.185400	0.789500	0.177500
O341	O34	0.409100	0.817000	0.126300
C651	C65	0.245700	0.809900	0.124200
C661	C66	0.121900	0.822000	0.061100
C671	C67	0.182700	0.825200	0.996700
C681	C68	0.941100	0.824500	0.062300
H61	H6	0.900700	0.825700	0.105100
O351	O35	0.265500	0.666700	0.214000
O361	O36	0.517100	0.662600	0.282100
C691	C69	0.386300	0.635400	0.248100
C701	C70	0.378800	0.565100	0.249300
C711	C71	0.495600	0.532400	0.297500
C721	C72	0.257500	0.533300	0.202600
N271	N27	0.137000	0.557300	0.150300
N281	N28	0.353300	0.839100	0.990500
N291	N29	0.864000	0.900900	0.448100
N301	N30	0.623000	0.560300	0.339600
Nd71	Nd7	0.988590	0.276410	0.755390
O371	O37	0.829300	0.326200	0.647900
O381	O38	0.700200	0.239100	0.675000
C731	C73	0.717500	0.283900	0.632200
C741	C74	0.602200	0.284200	0.564300
C751	C75	0.552100	0.341600	0.532200
C761	C76	0.548800	0.227200	0.532400
N311	N31	0.599000	0.173600	0.554000
O391	O39	0.314600	0.289500	0.822500
O401	O40	0.090900	0.317000	0.873700
C771	C77	0.254300	0.309900	0.875800
C781	C78	0.378100	0.322000	0.938900
C791	C79	0.317300	0.325200	0.003300
C801	C80	0.558900	0.324500	0.937700
H71	H7	0.599300	0.325700	0.894900
O411	O41	0.234500	0.166700	0.786000
O421	O42	0.982900	0.162600	0.717900
C811	C81	0.113700	0.135400	0.751900
C821	C82	0.121200	0.065100	0.750700
C831	C83	0.004400	0.032400	0.702500
C841	C84	0.242500	0.033300	0.797400
N321	N32	0.363000	0.057300	0.849700
N331	N33	0.146700	0.339100	0.009500
N341	N34	0.636000	0.400900	0.551900
N351	N35	0.877000	0.060300	0.660400
Nd81	Nd8	0.488590	0.776410	0.755390
O431	O43	0.329300	0.826200	0.647900
O441	O44	0.200200	0.739100	0.675000
C851	C85	0.217500	0.783900	0.632200
C861	C86	0.102200	0.784200	0.564300
C871	C87	0.052100	0.841600	0.532200
C881	C88	0.048800	0.727200	0.532400
N361	N36	0.099000	0.673600	0.554000
O451	O45	0.814600	0.789500	0.822500
O461	O46	0.590900	0.817000	0.873700
C891	C89	0.754300	0.809900	0.875800
C901	C90	0.878100	0.822000	0.938900
C911	C91	0.817300	0.825200	0.003300
C921	C92	0.058900	0.824500	0.937700
H81	H8	0.099300	0.825700	0.894900
O471	O47	0.734500	0.666700	0.786000
O481	O48	0.482900	0.662600	0.717900
C931	C93	0.613700	0.635400	0.751900
C941	C94	0.621200	0.565100	0.750700
C951	C95	0.504400	0.532400	0.702500
C961	C96	0.742500	0.533300	0.797400
N371	N37	0.863000	0.557300	0.849700
N381	N38	0.646700	0.839100	0.009500
N391	N39	0.136000	0.900900	0.551900
N401	N40	0.377000	0.560300	0.660400
