data_SOSSEA_clean_PM
_symmetry_space_group_name_H-M	'P1'
_cell_length_a	12.100500
_cell_length_b	18.210100
_cell_length_c	18.210100
_cell_angle_alpha	64.760200
_cell_angle_beta	77.202900
_cell_angle_gamma	102.797000
_symmetry_Int_Tables_number 1

loop_
_symmetry_equiv_pos_as_xyz
'x,y,z'

loop_
_atom_site_label
_atom_site_type_symbol
_atom_site_fract_x
_atom_site_fract_y
_atom_site_fract_z
Cd11	Cd1	0.000000	0.500000	0.000000
Cd21	Cd2	0.000000	0.000000	0.000000
Cd31	Cd3	0.000000	0.000000	0.500000
Cd41	Cd4	0.500000	0.500000	0.500000
H11	H1	0.862400	0.720200	0.761400
H21	H2	0.742500	0.610200	0.512200
H31	H3	0.739600	0.933300	0.972600
H41	H4	0.007400	0.325200	0.073100
H51	H5	0.545600	0.403300	0.201400
H61	H6	0.221400	0.776200	0.122100
H71	H7	0.262900	0.865000	0.362700
H81	H8	0.445200	0.101700	0.776200
H91	H9	0.796700	0.912900	0.381900
H101	H10	0.751500	0.759800	0.325000
H111	H11	0.599800	0.774000	0.869400
H121	H12	0.923500	0.675000	0.084800
H131	H13	0.902200	0.838100	0.191500
H141	H14	0.178600	0.381900	0.705200
H151	H15	0.008300	0.084800	0.240200
H161	H16	0.883800	0.705200	0.912900
H171	H17	0.852600	0.839800	0.403300
H181	H18	0.064100	0.970400	0.838100
H191	H19	0.825800	0.356600	0.774000
H201	H20	0.174200	0.643400	0.226000
H211	H21	0.203300	0.087100	0.618100
H221	H22	0.076500	0.325000	0.915200
H231	H23	0.807900	0.630500	0.708300
H241	H24	0.530800	0.130600	0.643400
H251	H25	0.867700	0.122400	0.389800
H261	H26	0.253000	0.798600	0.604700
H271	H27	0.478900	0.624500	0.320200
H281	H28	0.142200	0.518400	0.720200
H291	H29	0.142300	0.395300	0.403300
H301	H30	0.906300	0.808500	0.029600
H311	H31	0.737100	0.135000	0.637300
H321	H32	0.400200	0.226000	0.130600
H331	H33	0.012800	0.756900	0.839800
H341	H34	0.255900	0.403300	0.756900
H351	H35	0.080500	0.073100	0.601700
H361	H36	0.799100	0.320200	0.055300
H371	H37	0.145600	0.944700	0.375500
H381	H38	0.992600	0.674800	0.926900
H391	H39	0.821400	0.618100	0.294800
H401	H40	0.857800	0.481600	0.279800
H411	H41	0.656500	0.877900	0.898300
H421	H42	0.806300	0.094100	0.933300
H431	H43	0.483800	0.291700	0.338800
H441	H44	0.192100	0.369500	0.291700
H451	H45	0.935900	0.029600	0.161900
H461	H46	0.682200	0.601700	0.325200
H471	H47	0.116200	0.294800	0.087100
H481	H48	0.097800	0.161900	0.808500
H491	H49	0.376200	0.238600	0.481600
H501	H50	0.454400	0.596700	0.798600
H511	H51	0.987200	0.243100	0.160200
H521	H52	0.287800	0.027400	0.905900
H531	H53	0.257500	0.389800	0.487800
H541	H54	0.397900	0.772300	0.865000
H551	H55	0.248500	0.240200	0.675000
H561	H56	0.147400	0.160200	0.596700
H571	H57	0.778600	0.223800	0.877900
H581	H58	0.254700	0.512200	0.877600
H591	H59	0.745300	0.487800	0.122400
H601	H60	0.093700	0.191500	0.970400
H611	H61	0.712200	0.972600	0.094100
H621	H62	0.260400	0.066700	0.027400
H631	H63	0.854400	0.055300	0.624500
H641	H64	0.374400	0.637300	0.227700
H651	H65	0.132300	0.877600	0.610200
H661	H66	0.137600	0.279800	0.238600
H671	H67	0.744100	0.596700	0.243100
H681	H68	0.554800	0.898300	0.223800
H691	H69	0.625600	0.362700	0.772300
H701	H70	0.193700	0.905900	0.066700
H711	H71	0.177400	0.661200	0.630500
H721	H72	0.857700	0.604700	0.596700
H731	H73	0.516200	0.708300	0.661200
H741	H74	0.822600	0.338800	0.369500
H751	H75	0.317800	0.398300	0.674800
H761	H76	0.343500	0.122100	0.101700
H771	H77	0.602100	0.227700	0.135000
H781	H78	0.469200	0.869400	0.356600
H791	H79	0.521100	0.375500	0.679800
H801	H80	0.200900	0.679800	0.944700
H811	H81	0.623800	0.761400	0.518400
H821	H82	0.747000	0.201400	0.395300
H831	H83	0.991700	0.915200	0.759800
H841	H84	0.919500	0.926900	0.398300
C11	C1	0.135820	0.464730	0.220070
C21	C2	0.158370	0.114980	0.585170
C31	C3	0.947420	0.437200	0.878600
C41	C4	0.468460	0.228810	0.622720
C51	C5	0.791370	0.930080	0.928970
C61	C6	0.355890	0.220070	0.315200
C71	C7	0.259820	0.103890	0.115530
C81	C8	0.792570	0.449790	0.332380
C91	C9	0.762790	0.843030	0.640260
C101	C10	0.644820	0.226750	0.527090
C111	C11	0.375350	0.115530	0.780580
C121	C12	0.173980	0.121400	0.315800
C131	C13	0.029310	0.198100	0.951560
C141	C14	0.740600	0.802760	0.279010
C151	C15	0.813540	0.888960	0.818820
C161	C16	0.956610	0.700150	0.885020
C171	C17	0.418070	0.246160	0.226750
C181	C18	0.328910	0.684800	0.535270
C191	C19	0.256460	0.414830	0.700150
C201	C20	0.208630	0.069920	0.071030
C211	C21	0.406290	0.249790	0.364720
C221	C22	0.062160	0.081770	0.197240
C231	C23	0.624650	0.884470	0.219420
C241	C24	0.405650	0.615920	0.827870
C251	C25	0.454310	0.693460	0.822430
C261	C26	0.168790	0.149660	0.801900
C271	C27	0.908820	0.377280	0.851530
C281	C28	0.233520	0.827870	0.556210
C291	C29	0.259400	0.197240	0.720990
C301	C30	0.773210	0.846540	0.509910
C311	C31	0.253560	0.663300	0.914820
C321	C32	0.919760	0.516710	0.843030
C331	C33	0.723260	0.177570	0.515890
C341	C34	0.546740	0.187990	0.602570
C351	C35	0.924580	0.292220	0.888960
C361	C36	0.489780	0.315800	0.562800
C371	C37	0.276740	0.822430	0.484110
C381	C38	0.760350	0.851530	0.771190
C391	C39	0.168380	0.914820	0.421880
C401	C40	0.720340	0.928970	0.140950
C411	C41	0.367640	0.181180	0.707780
C421	C42	0.831620	0.085180	0.578120
C431	C43	0.149310	0.602570	0.209440
C441	C44	0.594350	0.384080	0.172130
C451	C45	0.926670	0.643550	0.846540
C461	C46	0.671090	0.315200	0.464730
C471	C47	0.644110	0.779930	0.684800
C481	C48	0.581930	0.753840	0.773250
C491	C49	0.628260	0.281110	0.132430
C501	C50	0.743540	0.585170	0.299850
C511	C51	0.789730	0.556210	0.615920
C521	C52	0.239650	0.148470	0.228810
C531	C53	0.740180	0.896110	0.884470
C541	C54	0.831210	0.850340	0.198100
C551	C55	0.155930	0.780580	0.103890
C561	C56	0.091180	0.622720	0.148470
C571	C57	0.355180	0.773250	0.472910
C581	C58	0.657220	0.782170	0.550210
C591	C59	0.828090	0.472910	0.753840
C601	C60	0.237210	0.156970	0.359740
C611	C61	0.641250	0.790560	0.812010
C621	C62	0.715870	0.435450	0.123540
C631	C63	0.156500	0.385490	0.249790
C641	C64	0.239150	0.515890	0.306540
C651	C65	0.284130	0.564550	0.876460
C661	C66	0.760690	0.132430	0.586460
C671	C67	0.839410	0.123540	0.441010
C681	C68	0.864180	0.535270	0.779930
C691	C69	0.746440	0.336700	0.085180
C701	C70	0.342780	0.217830	0.449790
C711	C71	0.980390	0.720990	0.081770
C721	C72	0.280420	0.441010	0.435450
C731	C73	0.124950	0.332380	0.217830
C741	C74	0.226790	0.153460	0.490090
C751	C75	0.590260	0.421880	0.663300
C761	C76	0.043390	0.299850	0.114980
C771	C77	0.075420	0.707780	0.111040
C781	C78	0.875050	0.667620	0.782170
C791	C79	0.019610	0.279010	0.918230
C801	C80	0.207430	0.550210	0.667620
C811	C81	0.186460	0.111040	0.181180
C821	C82	0.844070	0.219420	0.896110
C831	C83	0.760850	0.484110	0.693460
C841	C84	0.826020	0.878600	0.684200
C851	C85	0.980870	0.951560	0.850340
C861	C86	0.371740	0.718890	0.867570
C871	C87	0.545690	0.306540	0.177570
C881	C88	0.210270	0.443790	0.384080
C891	C89	0.080240	0.483290	0.156970
C901	C90	0.358750	0.209440	0.187990
C911	C91	0.593710	0.750210	0.635280
C921	C92	0.073330	0.356450	0.153460
C931	C93	0.239310	0.867570	0.413540
C941	C94	0.843500	0.614510	0.750210
C951	C95	0.171910	0.527090	0.246160
C961	C96	0.861290	0.140950	0.930080
C971	C97	0.019130	0.048440	0.149660
C981	C98	0.841630	0.885020	0.414830
C991	C99	0.510220	0.684200	0.437200
C1001	C100	0.052580	0.562800	0.121400
C1011	C101	0.850690	0.397430	0.790560
C1021	C102	0.228990	0.635280	0.614510
C1031	C103	0.970690	0.801900	0.048440
C1041	C104	0.279660	0.071030	0.859050
C1051	C105	0.766480	0.172130	0.443790
C1061	C106	0.453260	0.812010	0.397430
C1071	C107	0.771010	0.364720	0.385490
C1081	C108	0.716880	0.490090	0.356450
C1091	C109	0.632360	0.818820	0.292220
C1101	C110	0.937840	0.918230	0.802760
C1111	C111	0.596950	0.359740	0.483290
C1121	C112	0.403050	0.640260	0.516710
C1131	C113	0.719580	0.558990	0.564550
C1141	C114	0.347150	0.586460	0.281110
C1151	C115	0.409740	0.578120	0.336700
C1161	C116	0.138710	0.859050	0.069920
C1171	C117	0.283120	0.509910	0.643550
C1181	C118	0.531540	0.771190	0.377280
C1191	C119	0.652850	0.413540	0.718890
C1201	C120	0.160590	0.876460	0.558990
N11	N1	0.049020	0.872150	0.041500
N21	N2	0.909480	0.958500	0.913650
N31	N3	0.950980	0.127850	0.958500
N41	N4	0.377900	0.554140	0.570000
N51	N5	0.090520	0.041500	0.086350
N61	N6	0.625240	0.495540	0.584680
N71	N7	0.176240	0.124140	0.445860
N81	N8	0.129700	0.919780	0.495540
N91	N9	0.870300	0.080220	0.504460
N101	N10	0.374760	0.504460	0.415320
N111	N11	0.176870	0.086350	0.872150
N121	N12	0.823760	0.875860	0.554140
N131	N13	0.947900	0.570000	0.875860
N141	N14	0.209920	0.584680	0.919780
N151	N15	0.823130	0.913650	0.127850
N161	N16	0.052100	0.430000	0.124140
N171	N17	0.622100	0.445860	0.430000
N181	N18	0.790080	0.415320	0.080220
O11	O1	0.997780	0.576670	0.066540
O21	O2	0.421110	0.356790	0.576670
O31	O3	0.578890	0.643210	0.423330
O41	O4	0.002220	0.423330	0.933460
O51	O5	0.064320	0.066540	0.356790
O61	O6	0.935680	0.933460	0.643210
