data_SOTBIM_clean_PM
_symmetry_space_group_name_H-M	'P1'
_cell_length_a	11.684000
_cell_length_b	13.620000
_cell_length_c	11.748000
_cell_angle_alpha	90.000000
_cell_angle_beta	91.427000
_cell_angle_gamma	90.000000
_symmetry_Int_Tables_number 1

loop_
_symmetry_equiv_pos_as_xyz
'x,y,z'

loop_
_atom_site_label
_atom_site_type_symbol
_atom_site_fract_x
_atom_site_fract_y
_atom_site_fract_z
Be11	Be1	0.352100	0.244700	0.645100
Be21	Be2	0.286400	0.605900	0.540100
P11	P1	0.301550	0.398360	0.471010
P21	P2	0.399150	0.246710	0.899040
O11	O1	0.353300	0.267500	0.779700
O21	O2	0.299300	0.341400	0.580900
O31	O3	0.237200	0.348400	0.372100
O41	O4	0.524100	0.214900	0.902200
O51	O5	0.252300	0.501000	0.484900
O61	O6	0.388300	0.342100	0.969800
O71	O7	0.330700	0.165100	0.956700
O81	O8	0.427400	0.411100	0.430200
H11	H1	0.476000	0.388000	0.464000
Be31	Be3	0.852100	0.744700	0.645100
Be41	Be4	0.786400	0.105900	0.540100
P31	P3	0.801550	0.898360	0.471010
P41	P4	0.899150	0.746710	0.899040
O91	O9	0.853300	0.767500	0.779700
O101	O10	0.799300	0.841400	0.580900
O111	O11	0.737200	0.848400	0.372100
O121	O12	0.024100	0.714900	0.902200
O131	O13	0.752300	0.001000	0.484900
O141	O14	0.888300	0.842100	0.969800
O151	O15	0.830700	0.665100	0.956700
O161	O16	0.927400	0.911100	0.430200
H21	H2	0.976000	0.888000	0.464000
Be51	Be5	0.647900	0.244700	0.854900
Be61	Be6	0.713600	0.605900	0.959900
P51	P5	0.698450	0.398360	0.028990
P61	P6	0.600850	0.246710	0.600960
O171	O17	0.646700	0.267500	0.720300
O181	O18	0.700700	0.341400	0.919100
O191	O19	0.762800	0.348400	0.127900
O201	O20	0.475900	0.214900	0.597800
O211	O21	0.747700	0.501000	0.015100
O221	O22	0.611700	0.342100	0.530200
O231	O23	0.669300	0.165100	0.543300
O241	O24	0.572600	0.411100	0.069800
H31	H3	0.524000	0.388000	0.036000
Be71	Be7	0.147900	0.744700	0.854900
Be81	Be8	0.213600	0.105900	0.959900
P71	P7	0.198450	0.898360	0.028990
P81	P8	0.100850	0.746710	0.600960
O251	O25	0.146700	0.767500	0.720300
O261	O26	0.200700	0.841400	0.919100
O271	O27	0.262800	0.848400	0.127900
O281	O28	0.975900	0.714900	0.597800
O291	O29	0.247700	0.001000	0.015100
O301	O30	0.111700	0.842100	0.530200
O311	O31	0.169300	0.665100	0.543300
O321	O32	0.072600	0.911100	0.069800
H41	H4	0.024000	0.888000	0.036000
Be91	Be9	0.647900	0.755300	0.354900
Be101	Be10	0.713600	0.394100	0.459900
P91	P9	0.698450	0.601640	0.528990
P101	P10	0.600850	0.753290	0.100960
O331	O33	0.646700	0.732500	0.220300
O341	O34	0.700700	0.658600	0.419100
O351	O35	0.762800	0.651600	0.627900
O361	O36	0.475900	0.785100	0.097800
O371	O37	0.747700	0.499000	0.515100
O381	O38	0.611700	0.657900	0.030200
O391	O39	0.669300	0.834900	0.043300
O401	O40	0.572600	0.588900	0.569800
H51	H5	0.524000	0.612000	0.536000
Be111	Be11	0.147900	0.255300	0.354900
Be121	Be12	0.213600	0.894100	0.459900
P111	P11	0.198450	0.101640	0.528990
P121	P12	0.100850	0.253290	0.100960
O411	O41	0.146700	0.232500	0.220300
O421	O42	0.200700	0.158600	0.419100
O431	O43	0.262800	0.151600	0.627900
O441	O44	0.975900	0.285100	0.097800
O451	O45	0.247700	0.999000	0.515100
O461	O46	0.111700	0.157900	0.030200
O471	O47	0.169300	0.334900	0.043300
O481	O48	0.072600	0.088900	0.569800
H61	H6	0.024000	0.112000	0.536000
Be131	Be13	0.352100	0.755300	0.145100
Be141	Be14	0.286400	0.394100	0.040100
P131	P13	0.301550	0.601640	0.971010
P141	P14	0.399150	0.753290	0.399040
O491	O49	0.353300	0.732500	0.279700
O501	O50	0.299300	0.658600	0.080900
O511	O51	0.237200	0.651600	0.872100
O521	O52	0.524100	0.785100	0.402200
O531	O53	0.252300	0.499000	0.984900
O541	O54	0.388300	0.657900	0.469800
O551	O55	0.330700	0.834900	0.456700
O561	O56	0.427400	0.588900	0.930200
H71	H7	0.476000	0.612000	0.964000
Be151	Be15	0.852100	0.255300	0.145100
Be161	Be16	0.786400	0.894100	0.040100
P151	P15	0.801550	0.101640	0.971010
P161	P16	0.899150	0.253290	0.399040
O571	O57	0.853300	0.232500	0.279700
O581	O58	0.799300	0.158600	0.080900
O591	O59	0.737200	0.151600	0.872100
O601	O60	0.024100	0.285100	0.402200
O611	O61	0.752300	0.999000	0.984900
O621	O62	0.888300	0.157900	0.469800
O631	O63	0.830700	0.334900	0.456700
O641	O64	0.927400	0.088900	0.930200
H81	H8	0.976000	0.112000	0.964000
