data_SOVHOA_clean_PM
_symmetry_space_group_name_H-M	'P1'
_cell_length_a	11.520000
_cell_length_b	7.632000
_cell_length_c	7.039000
_cell_angle_alpha	88.930000
_cell_angle_beta	109.710000
_cell_angle_gamma	82.810000
_symmetry_Int_Tables_number 1

loop_
_symmetry_equiv_pos_as_xyz
'x,y,z'

loop_
_atom_site_label
_atom_site_type_symbol
_atom_site_fract_x
_atom_site_fract_y
_atom_site_fract_z
N11	N1	0.046600	0.217400	0.235700
N21	N2	0.927700	0.232700	0.741500
N31	N3	0.804000	0.014400	0.015100
C11	C1	0.030900	0.323400	0.337900
C21	C2	0.951400	0.335800	0.645800
C31	C3	0.786900	0.025000	0.213800
C41	C4	0.654600	0.018500	0.201100
C51	C5	0.642000	0.017100	0.411900
C61	C6	0.508400	0.002900	0.397400
H11	H1	0.748130	0.130300	0.921920
H21	H2	0.765870	0.898070	0.948980
H31	H3	0.815300	0.147430	0.276240
H41	H4	0.846330	0.915490	0.312880
H51	H5	0.595170	0.133000	0.109680
H61	H6	0.623260	0.900480	0.128850
H71	H7	0.669040	0.137880	0.481360
H81	H8	0.707340	0.905860	0.505000
H91	H9	0.447480	0.115650	0.305900
H101	H10	0.481300	0.883580	0.324240
N41	N4	0.953400	0.782600	0.764300
N51	N5	0.072300	0.767300	0.258500
N61	N6	0.196000	0.985600	0.984900
C71	C7	0.969100	0.676600	0.662100
C81	C8	0.048600	0.664200	0.354200
C91	C9	0.213100	0.975000	0.786200
C101	C10	0.345400	0.981500	0.798900
C111	C11	0.358000	0.982900	0.588100
C121	C12	0.491600	0.997100	0.602600
H111	H11	0.251870	0.869700	0.078080
H121	H12	0.234130	0.101930	0.051020
H131	H13	0.184700	0.852570	0.723760
H141	H14	0.153670	0.084510	0.687120
H151	H15	0.404830	0.867000	0.890320
H161	H16	0.376740	0.099520	0.871150
H171	H17	0.330960	0.862120	0.518640
H181	H18	0.292660	0.094140	0.495000
H191	H19	0.552520	0.884350	0.694100
H201	H20	0.518700	0.116420	0.675760
Cd11	Cd1	0.000000	0.000000	0.000000
Ni11	Ni1	0.000000	0.500000	0.500000
