data_SOZGIZ_clean_PM
_symmetry_space_group_name_H-M	'P1'
_cell_length_a	20.358700
_cell_length_b	20.358700
_cell_length_c	20.358700
_cell_angle_alpha	90.000000
_cell_angle_beta	90.000000
_cell_angle_gamma	90.000000
_symmetry_Int_Tables_number 1

loop_
_symmetry_equiv_pos_as_xyz
'x,y,z'

loop_
_atom_site_label
_atom_site_type_symbol
_atom_site_fract_x
_atom_site_fract_y
_atom_site_fract_z
O11	O1	0.130600	0.815200	0.242700
O21	O2	0.053800	0.884500	0.212200
N11	N1	0.995900	0.654500	0.011300
H11	H1	0.959500	0.668600	0.992700
N21	N2	0.989000	0.574600	0.931100
C11	C1	0.082300	0.831500	0.207400
C21	C2	0.060200	0.783000	0.156900
C31	C3	0.009700	0.798100	0.115600
H21	H2	0.988900	0.839700	0.118800
C41	C4	0.988700	0.753700	0.069400
H31	H3	0.952700	0.764900	0.042000
C51	C5	0.019200	0.691100	0.061300
C61	C6	0.070600	0.677600	0.104400
H41	H4	0.092000	0.636200	0.102100
C71	C7	0.091200	0.723000	0.150100
H51	H5	0.127600	0.712900	0.177600
C81	C8	0.022900	0.595800	0.985100
O31	O3	0.369400	0.184800	0.742700
O41	O4	0.446200	0.115500	0.712200
N31	N3	0.504100	0.345500	0.511300
H61	H6	0.540500	0.331400	0.492700
N41	N4	0.511000	0.425400	0.431100
C91	C9	0.417700	0.168500	0.707400
C101	C10	0.439800	0.217000	0.656900
C111	C11	0.490300	0.201900	0.615600
H71	H7	0.511100	0.160300	0.618800
C121	C12	0.511300	0.246300	0.569400
H81	H8	0.547300	0.235100	0.542000
C131	C13	0.480800	0.308900	0.561300
C141	C14	0.429400	0.322400	0.604400
H91	H9	0.408000	0.363800	0.602100
C151	C15	0.408800	0.277000	0.650100
H101	H10	0.372400	0.287100	0.677600
C161	C16	0.477100	0.404200	0.485100
O51	O5	0.869400	0.315200	0.257300
O61	O6	0.946200	0.384500	0.287800
N51	N5	0.004100	0.154500	0.488700
H111	H11	0.040500	0.168600	0.507300
N61	N6	0.011000	0.074600	0.568900
C171	C17	0.917700	0.331500	0.292600
C181	C18	0.939800	0.283000	0.343100
C191	C19	0.990300	0.298100	0.384400
H121	H12	0.011100	0.339700	0.381200
C201	C20	0.011300	0.253700	0.430600
H131	H13	0.047300	0.264900	0.458000
C211	C21	0.980800	0.191100	0.438700
C221	C22	0.929400	0.177600	0.395600
H141	H14	0.908000	0.136200	0.397900
C231	C23	0.908800	0.223000	0.349900
H151	H15	0.872400	0.212900	0.322400
C241	C24	0.977100	0.095800	0.514900
O71	O7	0.630600	0.684800	0.757300
O81	O8	0.553800	0.615500	0.787800
N71	N7	0.495900	0.845500	0.988700
H161	H16	0.459500	0.831400	0.007300
N81	N8	0.489000	0.925400	0.068900
C251	C25	0.582300	0.668500	0.792600
C261	C26	0.560200	0.717000	0.843100
C271	C27	0.509700	0.701900	0.884400
H171	H17	0.488900	0.660300	0.881200
C281	C28	0.488700	0.746300	0.930600
H181	H18	0.452700	0.735100	0.958000
C291	C29	0.519200	0.808900	0.938700
C301	C30	0.570600	0.822400	0.895600
H191	H19	0.592000	0.863800	0.897900
C311	C31	0.591200	0.777000	0.849900
H201	H20	0.627600	0.787100	0.822400
C321	C32	0.522900	0.904200	0.014900
O91	O9	0.242700	0.130600	0.815200
O101	O10	0.212200	0.053800	0.884500
N91	N9	0.011300	0.995900	0.654500
H211	H21	0.992700	0.959500	0.668600
N101	N10	0.931100	0.989000	0.574600
C331	C33	0.207400	0.082300	0.831500
C341	C34	0.156900	0.060200	0.783000
C351	C35	0.115600	0.009700	0.798100
H221	H22	0.118800	0.988900	0.839700
C361	C36	0.069400	0.988700	0.753700
H231	H23	0.042000	0.952700	0.764900
C371	C37	0.061300	0.019200	0.691100
C381	C38	0.104400	0.070600	0.677600
H241	H24	0.102100	0.092000	0.636200
C391	C39	0.150100	0.091200	0.723000
H251	H25	0.177600	0.127600	0.712900
C401	C40	0.985100	0.022900	0.595800
O111	O11	0.742700	0.369400	0.184800
O121	O12	0.712200	0.446200	0.115500
N111	N11	0.511300	0.504100	0.345500
H261	H26	0.492700	0.540500	0.331400
N121	N12	0.431100	0.511000	0.425400
C411	C41	0.707400	0.417700	0.168500
C421	C42	0.656900	0.439800	0.217000
C431	C43	0.615600	0.490300	0.201900
H271	H27	0.618800	0.511100	0.160300
C441	C44	0.569400	0.511300	0.246300
H281	H28	0.542000	0.547300	0.235100
C451	C45	0.561300	0.480800	0.308900
C461	C46	0.604400	0.429400	0.322400
H291	H29	0.602100	0.408000	0.363800
C471	C47	0.650100	0.408800	0.277000
H301	H30	0.677600	0.372400	0.287100
C481	C48	0.485100	0.477100	0.404200
O131	O13	0.257300	0.869400	0.315200
O141	O14	0.287800	0.946200	0.384500
N131	N13	0.488700	0.004100	0.154500
H311	H31	0.507300	0.040500	0.168600
N141	N14	0.568900	0.011000	0.074600
C491	C49	0.292600	0.917700	0.331500
C501	C50	0.343100	0.939800	0.283000
C511	C51	0.384400	0.990300	0.298100
H321	H32	0.381200	0.011100	0.339700
C521	C52	0.430600	0.011300	0.253700
H331	H33	0.458000	0.047300	0.264900
C531	C53	0.438700	0.980800	0.191100
C541	C54	0.395600	0.929400	0.177600
H341	H34	0.397900	0.908000	0.136200
C551	C55	0.349900	0.908800	0.223000
H351	H35	0.322400	0.872400	0.212900
C561	C56	0.514900	0.977100	0.095800
O151	O15	0.757300	0.630600	0.684800
O161	O16	0.787800	0.553800	0.615500
N151	N15	0.988700	0.495900	0.845500
H361	H36	0.007300	0.459500	0.831400
N161	N16	0.068900	0.489000	0.925400
C571	C57	0.792600	0.582300	0.668500
C581	C58	0.843100	0.560200	0.717000
C591	C59	0.884400	0.509700	0.701900
H371	H37	0.881200	0.488900	0.660300
C601	C60	0.930600	0.488700	0.746300
H381	H38	0.958000	0.452700	0.735100
C611	C61	0.938700	0.519200	0.808900
C621	C62	0.895600	0.570600	0.822400
H391	H39	0.897900	0.592000	0.863800
C631	C63	0.849900	0.591200	0.777000
H401	H40	0.822400	0.627600	0.787100
C641	C64	0.014900	0.522900	0.904200
O171	O17	0.815200	0.242700	0.130600
O181	O18	0.884500	0.212200	0.053800
N171	N17	0.654500	0.011300	0.995900
H411	H41	0.668600	0.992700	0.959500
N181	N18	0.574600	0.931100	0.989000
C651	C65	0.831500	0.207400	0.082300
C661	C66	0.783000	0.156900	0.060200
C671	C67	0.798100	0.115600	0.009700
H421	H42	0.839700	0.118800	0.988900
C681	C68	0.753700	0.069400	0.988700
H431	H43	0.764900	0.042000	0.952700
C691	C69	0.691100	0.061300	0.019200
C701	C70	0.677600	0.104400	0.070600
H441	H44	0.636200	0.102100	0.092000
C711	C71	0.723000	0.150100	0.091200
H451	H45	0.712900	0.177600	0.127600
C721	C72	0.595800	0.985100	0.022900
O191	O19	0.184800	0.742700	0.369400
O201	O20	0.115500	0.712200	0.446200
N191	N19	0.345500	0.511300	0.504100
H461	H46	0.331400	0.492700	0.540500
N201	N20	0.425400	0.431100	0.511000
C731	C73	0.168500	0.707400	0.417700
C741	C74	0.217000	0.656900	0.439800
C751	C75	0.201900	0.615600	0.490300
H471	H47	0.160300	0.618800	0.511100
C761	C76	0.246300	0.569400	0.511300
H481	H48	0.235100	0.542000	0.547300
C771	C77	0.308900	0.561300	0.480800
C781	C78	0.322400	0.604400	0.429400
H491	H49	0.363800	0.602100	0.408000
C791	C79	0.277000	0.650100	0.408800
H501	H50	0.287100	0.677600	0.372400
C801	C80	0.404200	0.485100	0.477100
O211	O21	0.315200	0.257300	0.869400
O221	O22	0.384500	0.287800	0.946200
N211	N21	0.154500	0.488700	0.004100
H511	H51	0.168600	0.507300	0.040500
N221	N22	0.074600	0.568900	0.011000
C811	C81	0.331500	0.292600	0.917700
C821	C82	0.283000	0.343100	0.939800
C831	C83	0.298100	0.384400	0.990300
H521	H52	0.339700	0.381200	0.011100
C841	C84	0.253700	0.430600	0.011300
H531	H53	0.264900	0.458000	0.047300
C851	C85	0.191100	0.438700	0.980800
C861	C86	0.177600	0.395600	0.929400
H541	H54	0.136200	0.397900	0.908000
C871	C87	0.223000	0.349900	0.908800
H551	H55	0.212900	0.322400	0.872400
C881	C88	0.095800	0.514900	0.977100
O231	O23	0.684800	0.757300	0.630600
O241	O24	0.615500	0.787800	0.553800
N231	N23	0.845500	0.988700	0.495900
H561	H56	0.831400	0.007300	0.459500
N241	N24	0.925400	0.068900	0.489000
C891	C89	0.668500	0.792600	0.582300
C901	C90	0.717000	0.843100	0.560200
C911	C91	0.701900	0.884400	0.509700
H571	H57	0.660300	0.881200	0.488900
C921	C92	0.746300	0.930600	0.488700
H581	H58	0.735100	0.958000	0.452700
C931	C93	0.808900	0.938700	0.519200
C941	C94	0.822400	0.895600	0.570600
H591	H59	0.863800	0.897900	0.592000
C951	C95	0.777000	0.849900	0.591200
H601	H60	0.787100	0.822400	0.627600
C961	C96	0.904200	0.014900	0.522900
Tm11	Tm1	0.156190	0.843810	0.343810
Tm21	Tm2	0.343810	0.156190	0.843810
Tm31	Tm3	0.843810	0.343810	0.156190
Tm41	Tm4	0.656190	0.656190	0.656190
O251	O25	0.240200	0.624800	0.182900
O261	O26	0.213300	0.542400	0.115700
N251	N25	0.010200	0.493800	0.352200
H611	H61	0.993900	0.454900	0.342500
N261	N26	0.011900	0.573300	0.430200
C971	C97	0.206300	0.573700	0.167200
C981	C98	0.155800	0.554400	0.216200
C991	C99	0.150300	0.585300	0.276100
H621	H62	0.180000	0.619800	0.286400
C1001	C100	0.103200	0.567800	0.321600
H631	H63	0.099700	0.590300	0.362300
C1011	C101	0.060700	0.515900	0.306300
C1021	C102	0.066700	0.482700	0.248600
H641	H64	0.038300	0.446900	0.239300
C1031	C103	0.113800	0.500800	0.203800
H651	H65	0.118000	0.477000	0.163900
C1041	C104	0.985100	0.519400	0.403500
O271	O27	0.259800	0.375200	0.682900
O281	O28	0.286700	0.457600	0.615700
N271	N27	0.489800	0.506200	0.852200
H661	H66	0.506100	0.545100	0.842500
N281	N28	0.488100	0.426700	0.930200
C1051	C105	0.293700	0.426300	0.667200
C1061	C106	0.344200	0.445600	0.716200
C1071	C107	0.349700	0.414700	0.776100
H671	H67	0.320000	0.380200	0.786400
C1081	C108	0.396800	0.432200	0.821600
H681	H68	0.400300	0.409700	0.862300
C1091	C109	0.439300	0.484100	0.806300
C1101	C110	0.433300	0.517300	0.748600
H691	H69	0.461700	0.553100	0.739300
C1111	C111	0.386200	0.499200	0.703800
H701	H70	0.382000	0.523000	0.663900
C1121	C112	0.514900	0.480600	0.903500
O291	O29	0.759800	0.124800	0.317100
O301	O30	0.786700	0.042400	0.384300
N291	N29	0.989800	0.993800	0.147800
H711	H71	0.006100	0.954900	0.157500
N301	N30	0.988100	0.073300	0.069800
C1131	C113	0.793700	0.073700	0.332800
C1141	C114	0.844200	0.054400	0.283800
C1151	C115	0.849700	0.085300	0.223900
H721	H72	0.820000	0.119800	0.213600
C1161	C116	0.896800	0.067800	0.178400
H731	H73	0.900300	0.090300	0.137700
C1171	C117	0.939300	0.015900	0.193700
C1181	C118	0.933300	0.982700	0.251400
H741	H74	0.961700	0.946900	0.260700
C1191	C119	0.886200	0.000800	0.296200
H751	H75	0.882000	0.977000	0.336100
C1201	C120	0.014900	0.019400	0.096500
O311	O31	0.740200	0.875200	0.817100
O321	O32	0.713300	0.957600	0.884300
N311	N31	0.510200	0.006200	0.647800
H761	H76	0.493900	0.045100	0.657500
N321	N32	0.511900	0.926700	0.569800
C1211	C121	0.706300	0.926300	0.832800
C1221	C122	0.655800	0.945600	0.783800
C1231	C123	0.650300	0.914700	0.723900
H771	H77	0.680000	0.880200	0.713600
C1241	C124	0.603200	0.932200	0.678400
H781	H78	0.599700	0.909700	0.637700
C1251	C125	0.560700	0.984100	0.693700
C1261	C126	0.566700	0.017300	0.751400
H791	H79	0.538300	0.053100	0.760700
C1271	C127	0.613800	0.999200	0.796200
H801	H80	0.618000	0.023000	0.836100
C1281	C128	0.485100	0.980600	0.596500
O331	O33	0.182900	0.240200	0.624800
O341	O34	0.115700	0.213300	0.542400
N331	N33	0.352200	0.010200	0.493800
H811	H81	0.342500	0.993900	0.454900
N341	N34	0.430200	0.011900	0.573300
C1291	C129	0.167200	0.206300	0.573700
C1301	C130	0.216200	0.155800	0.554400
C1311	C131	0.276100	0.150300	0.585300
H821	H82	0.286400	0.180000	0.619800
C1321	C132	0.321600	0.103200	0.567800
H831	H83	0.362300	0.099700	0.590300
C1331	C133	0.306300	0.060700	0.515900
C1341	C134	0.248600	0.066700	0.482700
H841	H84	0.239300	0.038300	0.446900
C1351	C135	0.203800	0.113800	0.500800
H851	H85	0.163900	0.118000	0.477000
C1361	C136	0.403500	0.985100	0.519400
O351	O35	0.682900	0.259800	0.375200
O361	O36	0.615700	0.286700	0.457600
N351	N35	0.852200	0.489800	0.506200
H861	H86	0.842500	0.506100	0.545100
N361	N36	0.930200	0.488100	0.426700
C1371	C137	0.667200	0.293700	0.426300
C1381	C138	0.716200	0.344200	0.445600
C1391	C139	0.776100	0.349700	0.414700
H871	H87	0.786400	0.320000	0.380200
C1401	C140	0.821600	0.396800	0.432200
H881	H88	0.862300	0.400300	0.409700
C1411	C141	0.806300	0.439300	0.484100
C1421	C142	0.748600	0.433300	0.517300
H891	H89	0.739300	0.461700	0.553100
C1431	C143	0.703800	0.386200	0.499200
H901	H90	0.663900	0.382000	0.523000
C1441	C144	0.903500	0.514900	0.480600
O371	O37	0.317100	0.759800	0.124800
O381	O38	0.384300	0.786700	0.042400
N371	N37	0.147800	0.989800	0.993800
H911	H91	0.157500	0.006100	0.954900
N381	N38	0.069800	0.988100	0.073300
C1451	C145	0.332800	0.793700	0.073700
C1461	C146	0.283800	0.844200	0.054400
C1471	C147	0.223900	0.849700	0.085300
H921	H92	0.213600	0.820000	0.119800
C1481	C148	0.178400	0.896800	0.067800
H931	H93	0.137700	0.900300	0.090300
C1491	C149	0.193700	0.939300	0.015900
C1501	C150	0.251400	0.933300	0.982700
H941	H94	0.260700	0.961700	0.946900
C1511	C151	0.296200	0.886200	0.000800
H951	H95	0.336100	0.882000	0.977000
C1521	C152	0.096500	0.014900	0.019400
O391	O39	0.817100	0.740200	0.875200
O401	O40	0.884300	0.713300	0.957600
N391	N39	0.647800	0.510200	0.006200
H961	H96	0.657500	0.493900	0.045100
N401	N40	0.569800	0.511900	0.926700
C1531	C153	0.832800	0.706300	0.926300
C1541	C154	0.783800	0.655800	0.945600
C1551	C155	0.723900	0.650300	0.914700
H971	H97	0.713600	0.680000	0.880200
C1561	C156	0.678400	0.603200	0.932200
H981	H98	0.637700	0.599700	0.909700
C1571	C157	0.693700	0.560700	0.984100
C1581	C158	0.751400	0.566700	0.017300
H991	H99	0.760700	0.538300	0.053100
C1591	C159	0.796200	0.613800	0.999200
H1001	H100	0.836100	0.618000	0.023000
C1601	C160	0.596500	0.485100	0.980600
O411	O41	0.624800	0.182900	0.240200
O421	O42	0.542400	0.115700	0.213300
N411	N41	0.493800	0.352200	0.010200
H1011	H101	0.454900	0.342500	0.993900
N421	N42	0.573300	0.430200	0.011900
C1611	C161	0.573700	0.167200	0.206300
C1621	C162	0.554400	0.216200	0.155800
C1631	C163	0.585300	0.276100	0.150300
H1021	H102	0.619800	0.286400	0.180000
C1641	C164	0.567800	0.321600	0.103200
H1031	H103	0.590300	0.362300	0.099700
C1651	C165	0.515900	0.306300	0.060700
C1661	C166	0.482700	0.248600	0.066700
H1041	H104	0.446900	0.239300	0.038300
C1671	C167	0.500800	0.203800	0.113800
H1051	H105	0.477000	0.163900	0.118000
C1681	C168	0.519400	0.403500	0.985100
O431	O43	0.375200	0.682900	0.259800
O441	O44	0.457600	0.615700	0.286700
N431	N43	0.506200	0.852200	0.489800
H1061	H106	0.545100	0.842500	0.506100
N441	N44	0.426700	0.930200	0.488100
C1691	C169	0.426300	0.667200	0.293700
C1701	C170	0.445600	0.716200	0.344200
C1711	C171	0.414700	0.776100	0.349700
H1071	H107	0.380200	0.786400	0.320000
C1721	C172	0.432200	0.821600	0.396800
H1081	H108	0.409700	0.862300	0.400300
C1731	C173	0.484100	0.806300	0.439300
C1741	C174	0.517300	0.748600	0.433300
H1091	H109	0.553100	0.739300	0.461700
C1751	C175	0.499200	0.703800	0.386200
H1101	H110	0.523000	0.663900	0.382000
C1761	C176	0.480600	0.903500	0.514900
O451	O45	0.124800	0.317100	0.759800
O461	O46	0.042400	0.384300	0.786700
N451	N45	0.993800	0.147800	0.989800
H1111	H111	0.954900	0.157500	0.006100
N461	N46	0.073300	0.069800	0.988100
C1771	C177	0.073700	0.332800	0.793700
C1781	C178	0.054400	0.283800	0.844200
C1791	C179	0.085300	0.223900	0.849700
H1121	H112	0.119800	0.213600	0.820000
C1801	C180	0.067800	0.178400	0.896800
H1131	H113	0.090300	0.137700	0.900300
C1811	C181	0.015900	0.193700	0.939300
C1821	C182	0.982700	0.251400	0.933300
H1141	H114	0.946900	0.260700	0.961700
C1831	C183	0.000800	0.296200	0.886200
H1151	H115	0.977000	0.336100	0.882000
C1841	C184	0.019400	0.096500	0.014900
O471	O47	0.875200	0.817100	0.740200
O481	O48	0.957600	0.884300	0.713300
N471	N47	0.006200	0.647800	0.510200
H1161	H116	0.045100	0.657500	0.493900
N481	N48	0.926700	0.569800	0.511900
C1851	C185	0.926300	0.832800	0.706300
C1861	C186	0.945600	0.783800	0.655800
C1871	C187	0.914700	0.723900	0.650300
H1171	H117	0.880200	0.713600	0.680000
C1881	C188	0.932200	0.678400	0.603200
H1181	H118	0.909700	0.637700	0.599700
C1891	C189	0.984100	0.693700	0.560700
C1901	C190	0.017300	0.751400	0.566700
H1191	H119	0.053100	0.760700	0.538300
C1911	C191	0.999200	0.796200	0.613800
H1201	H120	0.023000	0.836100	0.618000
C1921	C192	0.980600	0.596500	0.485100
Tm51	Tm5	0.338300	0.661700	0.161700
Tm61	Tm6	0.161700	0.338300	0.661700
Tm71	Tm7	0.661700	0.161700	0.338300
Tm81	Tm8	0.838300	0.838300	0.838300
