data_SOZGOF_clean_PM
_symmetry_space_group_name_H-M	'P1'
_cell_length_a	20.317700
_cell_length_b	20.317700
_cell_length_c	20.317700
_cell_angle_alpha	90.000000
_cell_angle_beta	90.000000
_cell_angle_gamma	90.000000
_symmetry_Int_Tables_number 1

loop_
_symmetry_equiv_pos_as_xyz
'x,y,z'

loop_
_atom_site_label
_atom_site_type_symbol
_atom_site_fract_x
_atom_site_fract_y
_atom_site_fract_z
O11	O1	0.129700	0.814600	0.244100
O21	O2	0.047400	0.883900	0.215600
N11	N1	0.997000	0.655900	0.008900
H11	H1	0.960800	0.670000	0.989600
N21	N2	0.990800	0.577600	0.930000
C11	C1	0.077900	0.831500	0.209000
C21	C2	0.057600	0.783800	0.154800
C31	C3	0.011800	0.799200	0.116800
H21	H2	0.991100	0.840900	0.121100
C41	C4	0.990600	0.754900	0.067500
H31	H3	0.957100	0.768600	0.037900
C51	C5	0.016700	0.692900	0.060900
C61	C6	0.073300	0.679800	0.099800
H41	H4	0.098200	0.640900	0.092700
C71	C7	0.092100	0.724100	0.148400
H51	H5	0.127800	0.714200	0.176900
C81	C8	0.024200	0.598800	0.980200
O31	O3	0.370300	0.185400	0.744100
O41	O4	0.452600	0.116100	0.715600
N31	N3	0.503000	0.344100	0.508900
H61	H6	0.539200	0.330000	0.489600
N41	N4	0.509200	0.422400	0.430000
C91	C9	0.422100	0.168500	0.709000
C101	C10	0.442400	0.216200	0.654800
C111	C11	0.488200	0.200800	0.616800
H71	H7	0.508900	0.159100	0.621100
C121	C12	0.509400	0.245100	0.567500
H81	H8	0.542900	0.231400	0.537900
C131	C13	0.483300	0.307100	0.560900
C141	C14	0.426700	0.320200	0.599800
H91	H9	0.401800	0.359100	0.592700
C151	C15	0.407900	0.275900	0.648400
H101	H10	0.372200	0.285800	0.676900
C161	C16	0.475800	0.401200	0.480200
O51	O5	0.870300	0.314600	0.255900
O61	O6	0.952600	0.383900	0.284400
N51	N5	0.003000	0.155900	0.491100
H111	H11	0.039200	0.170000	0.510400
N61	N6	0.009200	0.077600	0.570000
C171	C17	0.922100	0.331500	0.291000
C181	C18	0.942400	0.283800	0.345200
C191	C19	0.988200	0.299200	0.383200
H121	H12	0.008900	0.340900	0.378900
C201	C20	0.009400	0.254900	0.432500
H131	H13	0.042900	0.268600	0.462100
C211	C21	0.983300	0.192900	0.439100
C221	C22	0.926700	0.179800	0.400200
H141	H14	0.901800	0.140900	0.407300
C231	C23	0.907900	0.224100	0.351600
H151	H15	0.872200	0.214200	0.323100
C241	C24	0.975800	0.098800	0.519800
O71	O7	0.629700	0.685400	0.755900
O81	O8	0.547400	0.616100	0.784400
N71	N7	0.497000	0.844100	0.991100
H161	H16	0.460800	0.830000	0.010400
N81	N8	0.490800	0.922400	0.070000
C251	C25	0.577900	0.668500	0.791000
C261	C26	0.557600	0.716200	0.845200
C271	C27	0.511800	0.700800	0.883200
H171	H17	0.491100	0.659100	0.878900
C281	C28	0.490600	0.745100	0.932500
H181	H18	0.457100	0.731400	0.962100
C291	C29	0.516700	0.807100	0.939100
C301	C30	0.573300	0.820200	0.900200
H191	H19	0.598200	0.859100	0.907300
C311	C31	0.592100	0.775900	0.851600
H201	H20	0.627800	0.785800	0.823100
C321	C32	0.524200	0.901200	0.019800
O91	O9	0.244100	0.129700	0.814600
O101	O10	0.215600	0.047400	0.883900
N91	N9	0.008900	0.997000	0.655900
H211	H21	0.989600	0.960800	0.670000
N101	N10	0.930000	0.990800	0.577600
C331	C33	0.209000	0.077900	0.831500
C341	C34	0.154800	0.057600	0.783800
C351	C35	0.116800	0.011800	0.799200
H221	H22	0.121100	0.991100	0.840900
C361	C36	0.067500	0.990600	0.754900
H231	H23	0.037900	0.957100	0.768600
C371	C37	0.060900	0.016700	0.692900
C381	C38	0.099800	0.073300	0.679800
H241	H24	0.092700	0.098200	0.640900
C391	C39	0.148400	0.092100	0.724100
H251	H25	0.176900	0.127800	0.714200
C401	C40	0.980200	0.024200	0.598800
O111	O11	0.744100	0.370300	0.185400
O121	O12	0.715600	0.452600	0.116100
N111	N11	0.508900	0.503000	0.344100
H261	H26	0.489600	0.539200	0.330000
N121	N12	0.430000	0.509200	0.422400
C411	C41	0.709000	0.422100	0.168500
C421	C42	0.654800	0.442400	0.216200
C431	C43	0.616800	0.488200	0.200800
H271	H27	0.621100	0.508900	0.159100
C441	C44	0.567500	0.509400	0.245100
H281	H28	0.537900	0.542900	0.231400
C451	C45	0.560900	0.483300	0.307100
C461	C46	0.599800	0.426700	0.320200
H291	H29	0.592700	0.401800	0.359100
C471	C47	0.648400	0.407900	0.275900
H301	H30	0.676900	0.372200	0.285800
C481	C48	0.480200	0.475800	0.401200
O131	O13	0.255900	0.870300	0.314600
O141	O14	0.284400	0.952600	0.383900
N131	N13	0.491100	0.003000	0.155900
H311	H31	0.510400	0.039200	0.170000
N141	N14	0.570000	0.009200	0.077600
C491	C49	0.291000	0.922100	0.331500
C501	C50	0.345200	0.942400	0.283800
C511	C51	0.383200	0.988200	0.299200
H321	H32	0.378900	0.008900	0.340900
C521	C52	0.432500	0.009400	0.254900
H331	H33	0.462100	0.042900	0.268600
C531	C53	0.439100	0.983300	0.192900
C541	C54	0.400200	0.926700	0.179800
H341	H34	0.407300	0.901800	0.140900
C551	C55	0.351600	0.907900	0.224100
H351	H35	0.323100	0.872200	0.214200
C561	C56	0.519800	0.975800	0.098800
O151	O15	0.755900	0.629700	0.685400
O161	O16	0.784400	0.547400	0.616100
N151	N15	0.991100	0.497000	0.844100
H361	H36	0.010400	0.460800	0.830000
N161	N16	0.070000	0.490800	0.922400
C571	C57	0.791000	0.577900	0.668500
C581	C58	0.845200	0.557600	0.716200
C591	C59	0.883200	0.511800	0.700800
H371	H37	0.878900	0.491100	0.659100
C601	C60	0.932500	0.490600	0.745100
H381	H38	0.962100	0.457100	0.731400
C611	C61	0.939100	0.516700	0.807100
C621	C62	0.900200	0.573300	0.820200
H391	H39	0.907300	0.598200	0.859100
C631	C63	0.851600	0.592100	0.775900
H401	H40	0.823100	0.627800	0.785800
C641	C64	0.019800	0.524200	0.901200
O171	O17	0.814600	0.244100	0.129700
O181	O18	0.883900	0.215600	0.047400
N171	N17	0.655900	0.008900	0.997000
H411	H41	0.670000	0.989600	0.960800
N181	N18	0.577600	0.930000	0.990800
C651	C65	0.831500	0.209000	0.077900
C661	C66	0.783800	0.154800	0.057600
C671	C67	0.799200	0.116800	0.011800
H421	H42	0.840900	0.121100	0.991100
C681	C68	0.754900	0.067500	0.990600
H431	H43	0.768600	0.037900	0.957100
C691	C69	0.692900	0.060900	0.016700
C701	C70	0.679800	0.099800	0.073300
H441	H44	0.640900	0.092700	0.098200
C711	C71	0.724100	0.148400	0.092100
H451	H45	0.714200	0.176900	0.127800
C721	C72	0.598800	0.980200	0.024200
O191	O19	0.185400	0.744100	0.370300
O201	O20	0.116100	0.715600	0.452600
N191	N19	0.344100	0.508900	0.503000
H461	H46	0.330000	0.489600	0.539200
N201	N20	0.422400	0.430000	0.509200
C731	C73	0.168500	0.709000	0.422100
C741	C74	0.216200	0.654800	0.442400
C751	C75	0.200800	0.616800	0.488200
H471	H47	0.159100	0.621100	0.508900
C761	C76	0.245100	0.567500	0.509400
H481	H48	0.231400	0.537900	0.542900
C771	C77	0.307100	0.560900	0.483300
C781	C78	0.320200	0.599800	0.426700
H491	H49	0.359100	0.592700	0.401800
C791	C79	0.275900	0.648400	0.407900
H501	H50	0.285800	0.676900	0.372200
C801	C80	0.401200	0.480200	0.475800
O211	O21	0.314600	0.255900	0.870300
O221	O22	0.383900	0.284400	0.952600
N211	N21	0.155900	0.491100	0.003000
H511	H51	0.170000	0.510400	0.039200
N221	N22	0.077600	0.570000	0.009200
C811	C81	0.331500	0.291000	0.922100
C821	C82	0.283800	0.345200	0.942400
C831	C83	0.299200	0.383200	0.988200
H521	H52	0.340900	0.378900	0.008900
C841	C84	0.254900	0.432500	0.009400
H531	H53	0.268600	0.462100	0.042900
C851	C85	0.192900	0.439100	0.983300
C861	C86	0.179800	0.400200	0.926700
H541	H54	0.140900	0.407300	0.901800
C871	C87	0.224100	0.351600	0.907900
H551	H55	0.214200	0.323100	0.872200
C881	C88	0.098800	0.519800	0.975800
O231	O23	0.685400	0.755900	0.629700
O241	O24	0.616100	0.784400	0.547400
N231	N23	0.844100	0.991100	0.497000
H561	H56	0.830000	0.010400	0.460800
N241	N24	0.922400	0.070000	0.490800
C891	C89	0.668500	0.791000	0.577900
C901	C90	0.716200	0.845200	0.557600
C911	C91	0.700800	0.883200	0.511800
H571	H57	0.659100	0.878900	0.491100
C921	C92	0.745100	0.932500	0.490600
H581	H58	0.731400	0.962100	0.457100
C931	C93	0.807100	0.939100	0.516700
C941	C94	0.820200	0.900200	0.573300
H591	H59	0.859100	0.907300	0.598200
C951	C95	0.775900	0.851600	0.592100
H601	H60	0.785800	0.823100	0.627800
C961	C96	0.901200	0.019800	0.524200
Yb11	Yb1	0.156270	0.843730	0.343730
Yb21	Yb2	0.343730	0.156270	0.843730
Yb31	Yb3	0.843730	0.343730	0.156270
Yb41	Yb4	0.656270	0.656270	0.656270
O251	O25	0.241900	0.626900	0.180800
O261	O26	0.212000	0.550100	0.113800
N251	N25	0.012600	0.494000	0.351600
H611	H61	0.998000	0.454400	0.342100
N261	N26	0.012400	0.572600	0.430500
C971	C97	0.206500	0.580400	0.164700
C981	C98	0.159400	0.558800	0.215700
C991	C99	0.153500	0.587000	0.275900
H621	H62	0.183200	0.621300	0.287200
C1001	C100	0.106300	0.568600	0.322100
H631	H63	0.105100	0.588800	0.364200
C1011	C101	0.061300	0.520600	0.305500
C1021	C102	0.070400	0.481400	0.249000
H641	H64	0.045800	0.442000	0.243300
C1031	C103	0.114000	0.500300	0.203700
H651	H65	0.116800	0.477000	0.163200
C1041	C104	0.987900	0.520200	0.404300
O271	O27	0.258100	0.373100	0.680800
O281	O28	0.288000	0.449900	0.613800
N271	N27	0.487400	0.506000	0.851600
H661	H66	0.502000	0.545600	0.842100
N281	N28	0.487600	0.427400	0.930500
C1051	C105	0.293500	0.419600	0.664700
C1061	C106	0.340600	0.441200	0.715700
C1071	C107	0.346500	0.413000	0.775900
H671	H67	0.316800	0.378700	0.787200
C1081	C108	0.393700	0.431400	0.822100
H681	H68	0.394900	0.411200	0.864200
C1091	C109	0.438700	0.479400	0.805500
C1101	C110	0.429600	0.518600	0.749000
H691	H69	0.454200	0.558000	0.743300
C1111	C111	0.386000	0.499700	0.703700
H701	H70	0.383200	0.523000	0.663200
C1121	C112	0.512100	0.479800	0.904300
O291	O29	0.758100	0.126900	0.319200
O301	O30	0.788000	0.050100	0.386200
N291	N29	0.987400	0.994000	0.148400
H711	H71	0.002000	0.954400	0.157900
N301	N30	0.987600	0.072600	0.069500
C1131	C113	0.793500	0.080400	0.335300
C1141	C114	0.840600	0.058800	0.284300
C1151	C115	0.846500	0.087000	0.224100
H721	H72	0.816800	0.121300	0.212800
C1161	C116	0.893700	0.068600	0.177900
H731	H73	0.894900	0.088800	0.135800
C1171	C117	0.938700	0.020600	0.194500
C1181	C118	0.929600	0.981400	0.251000
H741	H74	0.954200	0.942000	0.256700
C1191	C119	0.886000	0.000300	0.296300
H751	H75	0.883200	0.977000	0.336800
C1201	C120	0.012100	0.020200	0.095700
O311	O31	0.741900	0.873100	0.819200
O321	O32	0.712000	0.949900	0.886200
N311	N31	0.512600	0.006000	0.648400
H761	H76	0.498000	0.045600	0.657900
N321	N32	0.512400	0.927400	0.569500
C1211	C121	0.706500	0.919600	0.835300
C1221	C122	0.659400	0.941200	0.784300
C1231	C123	0.653500	0.913000	0.724100
H771	H77	0.683200	0.878700	0.712800
C1241	C124	0.606300	0.931400	0.677900
H781	H78	0.605100	0.911200	0.635800
C1251	C125	0.561300	0.979400	0.694500
C1261	C126	0.570400	0.018600	0.751000
H791	H79	0.545800	0.058000	0.756700
C1271	C127	0.614000	0.999700	0.796300
H801	H80	0.616800	0.023000	0.836800
C1281	C128	0.487900	0.979800	0.595700
O331	O33	0.180800	0.241900	0.626900
O341	O34	0.113800	0.212000	0.550100
N331	N33	0.351600	0.012600	0.494000
H811	H81	0.342100	0.998000	0.454400
N341	N34	0.430500	0.012400	0.572600
C1291	C129	0.164700	0.206500	0.580400
C1301	C130	0.215700	0.159400	0.558800
C1311	C131	0.275900	0.153500	0.587000
H821	H82	0.287200	0.183200	0.621300
C1321	C132	0.322100	0.106300	0.568600
H831	H83	0.364200	0.105100	0.588800
C1331	C133	0.305500	0.061300	0.520600
C1341	C134	0.249000	0.070400	0.481400
H841	H84	0.243300	0.045800	0.442000
C1351	C135	0.203700	0.114000	0.500300
H851	H85	0.163200	0.116800	0.477000
C1361	C136	0.404300	0.987900	0.520200
O351	O35	0.680800	0.258100	0.373100
O361	O36	0.613800	0.288000	0.449900
N351	N35	0.851600	0.487400	0.506000
H861	H86	0.842100	0.502000	0.545600
N361	N36	0.930500	0.487600	0.427400
C1371	C137	0.664700	0.293500	0.419600
C1381	C138	0.715700	0.340600	0.441200
C1391	C139	0.775900	0.346500	0.413000
H871	H87	0.787200	0.316800	0.378700
C1401	C140	0.822100	0.393700	0.431400
H881	H88	0.864200	0.394900	0.411200
C1411	C141	0.805500	0.438700	0.479400
C1421	C142	0.749000	0.429600	0.518600
H891	H89	0.743300	0.454200	0.558000
C1431	C143	0.703700	0.386000	0.499700
H901	H90	0.663200	0.383200	0.523000
C1441	C144	0.904300	0.512100	0.479800
O371	O37	0.319200	0.758100	0.126900
O381	O38	0.386200	0.788000	0.050100
N371	N37	0.148400	0.987400	0.994000
H911	H91	0.157900	0.002000	0.954400
N381	N38	0.069500	0.987600	0.072600
C1451	C145	0.335300	0.793500	0.080400
C1461	C146	0.284300	0.840600	0.058800
C1471	C147	0.224100	0.846500	0.087000
H921	H92	0.212800	0.816800	0.121300
C1481	C148	0.177900	0.893700	0.068600
H931	H93	0.135800	0.894900	0.088800
C1491	C149	0.194500	0.938700	0.020600
C1501	C150	0.251000	0.929600	0.981400
H941	H94	0.256700	0.954200	0.942000
C1511	C151	0.296300	0.886000	0.000300
H951	H95	0.336800	0.883200	0.977000
C1521	C152	0.095700	0.012100	0.020200
O391	O39	0.819200	0.741900	0.873100
O401	O40	0.886200	0.712000	0.949900
N391	N39	0.648400	0.512600	0.006000
H961	H96	0.657900	0.498000	0.045600
N401	N40	0.569500	0.512400	0.927400
C1531	C153	0.835300	0.706500	0.919600
C1541	C154	0.784300	0.659400	0.941200
C1551	C155	0.724100	0.653500	0.913000
H971	H97	0.712800	0.683200	0.878700
C1561	C156	0.677900	0.606300	0.931400
H981	H98	0.635800	0.605100	0.911200
C1571	C157	0.694500	0.561300	0.979400
C1581	C158	0.751000	0.570400	0.018600
H991	H99	0.756700	0.545800	0.058000
C1591	C159	0.796300	0.614000	0.999700
H1001	H100	0.836800	0.616800	0.023000
C1601	C160	0.595700	0.487900	0.979800
O411	O41	0.626900	0.180800	0.241900
O421	O42	0.550100	0.113800	0.212000
N411	N41	0.494000	0.351600	0.012600
H1011	H101	0.454400	0.342100	0.998000
N421	N42	0.572600	0.430500	0.012400
C1611	C161	0.580400	0.164700	0.206500
C1621	C162	0.558800	0.215700	0.159400
C1631	C163	0.587000	0.275900	0.153500
H1021	H102	0.621300	0.287200	0.183200
C1641	C164	0.568600	0.322100	0.106300
H1031	H103	0.588800	0.364200	0.105100
C1651	C165	0.520600	0.305500	0.061300
C1661	C166	0.481400	0.249000	0.070400
H1041	H104	0.442000	0.243300	0.045800
C1671	C167	0.500300	0.203700	0.114000
H1051	H105	0.477000	0.163200	0.116800
C1681	C168	0.520200	0.404300	0.987900
O431	O43	0.373100	0.680800	0.258100
O441	O44	0.449900	0.613800	0.288000
N431	N43	0.506000	0.851600	0.487400
H1061	H106	0.545600	0.842100	0.502000
N441	N44	0.427400	0.930500	0.487600
C1691	C169	0.419600	0.664700	0.293500
C1701	C170	0.441200	0.715700	0.340600
C1711	C171	0.413000	0.775900	0.346500
H1071	H107	0.378700	0.787200	0.316800
C1721	C172	0.431400	0.822100	0.393700
H1081	H108	0.411200	0.864200	0.394900
C1731	C173	0.479400	0.805500	0.438700
C1741	C174	0.518600	0.749000	0.429600
H1091	H109	0.558000	0.743300	0.454200
C1751	C175	0.499700	0.703700	0.386000
H1101	H110	0.523000	0.663200	0.383200
C1761	C176	0.479800	0.904300	0.512100
O451	O45	0.126900	0.319200	0.758100
O461	O46	0.050100	0.386200	0.788000
N451	N45	0.994000	0.148400	0.987400
H1111	H111	0.954400	0.157900	0.002000
N461	N46	0.072600	0.069500	0.987600
C1771	C177	0.080400	0.335300	0.793500
C1781	C178	0.058800	0.284300	0.840600
C1791	C179	0.087000	0.224100	0.846500
H1121	H112	0.121300	0.212800	0.816800
C1801	C180	0.068600	0.177900	0.893700
H1131	H113	0.088800	0.135800	0.894900
C1811	C181	0.020600	0.194500	0.938700
C1821	C182	0.981400	0.251000	0.929600
H1141	H114	0.942000	0.256700	0.954200
C1831	C183	0.000300	0.296300	0.886000
H1151	H115	0.977000	0.336800	0.883200
C1841	C184	0.020200	0.095700	0.012100
O471	O47	0.873100	0.819200	0.741900
O481	O48	0.949900	0.886200	0.712000
N471	N47	0.006000	0.648400	0.512600
H1161	H116	0.045600	0.657900	0.498000
N481	N48	0.927400	0.569500	0.512400
C1851	C185	0.919600	0.835300	0.706500
C1861	C186	0.941200	0.784300	0.659400
C1871	C187	0.913000	0.724100	0.653500
H1171	H117	0.878700	0.712800	0.683200
C1881	C188	0.931400	0.677900	0.606300
H1181	H118	0.911200	0.635800	0.605100
C1891	C189	0.979400	0.694500	0.561300
C1901	C190	0.018600	0.751000	0.570400
H1191	H119	0.058000	0.756700	0.545800
C1911	C191	0.999700	0.796300	0.614000
H1201	H120	0.023000	0.836800	0.616800
C1921	C192	0.979800	0.595700	0.487900
Yb51	Yb5	0.342360	0.657640	0.157640
Yb61	Yb6	0.157640	0.342360	0.657640
Yb71	Yb7	0.657640	0.157640	0.342360
Yb81	Yb8	0.842360	0.842360	0.842360
