data_SOZPUU_clean_PM
_symmetry_space_group_name_H-M	'P1'
_cell_length_a	20.925900
_cell_length_b	20.925900
_cell_length_c	9.632200
_cell_angle_alpha	90.000000
_cell_angle_beta	90.000000
_cell_angle_gamma	90.000000
_symmetry_Int_Tables_number 1

loop_
_symmetry_equiv_pos_as_xyz
'x,y,z'

loop_
_atom_site_label
_atom_site_type_symbol
_atom_site_fract_x
_atom_site_fract_y
_atom_site_fract_z
K11	K1	0.338090	0.980950	0.144190
C11	C1	0.274900	0.889040	0.744800
C21	C2	0.226700	0.907700	0.834300
H11	H1	0.234300	0.938800	0.901200
C31	C3	0.166500	0.879300	0.823100
H21	H2	0.134700	0.892000	0.884700
C41	C4	0.260500	0.842300	0.647800
H31	H3	0.291700	0.828100	0.586300
C51	C5	0.199900	0.817200	0.643400
H41	H4	0.191300	0.786000	0.577300
C61	C6	0.339700	0.919470	0.749900
C71	C7	0.484200	0.125800	0.021000
C81	C8	0.542200	0.157400	0.025400
H51	H5	0.575600	0.144900	0.967700
C91	C9	0.550100	0.207600	0.116400
H61	H6	0.589500	0.228200	0.118600
C101	C10	0.436100	0.147500	0.108800
H71	H7	0.396200	0.128100	0.108800
C111	C11	0.448500	0.198300	0.196000
H81	H8	0.415900	0.212300	0.254300
C121	C12	0.473400	0.070310	0.925500
C131	C13	0.594210	0.916600	0.488200
C141	C14	0.585500	0.865500	0.398500
H91	H9	0.547400	0.842600	0.399200
C151	C15	0.634000	0.849100	0.308200
H101	H10	0.626900	0.815200	0.247600
C161	C16	0.652700	0.947900	0.480500
H111	H11	0.661000	0.982500	0.538500
C171	C17	0.697900	0.927900	0.387900
H121	H12	0.736400	0.950100	0.384200
C181	C18	0.542260	0.937360	0.583400
C191	C19	0.439630	0.926090	0.658400
C201	C20	0.404200	0.995700	0.844400
C211	C21	0.451800	0.976250	0.750900
C221	C22	0.511300	0.005920	0.754800
N11	N1	0.152330	0.835000	0.728800
N21	N2	0.504400	0.228240	0.201200
N31	N3	0.690000	0.878200	0.302000
N41	N4	0.381750	0.897920	0.654900
N51	N5	0.346970	0.964840	0.846700
N61	N6	0.415100	0.043670	0.932600
N71	N7	0.522600	0.054440	0.844700
N81	N8	0.558490	0.985450	0.670400
N91	N9	0.486430	0.906820	0.571500
K21	K2	0.161910	0.519050	0.144190
C231	C23	0.225100	0.610960	0.744800
C241	C24	0.273300	0.592300	0.834300
H131	H13	0.265700	0.561200	0.901200
C251	C25	0.333500	0.620700	0.823100
H141	H14	0.365300	0.608000	0.884700
C261	C26	0.239500	0.657700	0.647800
H151	H15	0.208300	0.671900	0.586300
C271	C27	0.300100	0.682800	0.643400
H161	H16	0.308700	0.714000	0.577300
C281	C28	0.160300	0.580530	0.749900
C291	C29	0.015800	0.374200	0.021000
C301	C30	0.957800	0.342600	0.025400
H171	H17	0.924400	0.355100	0.967700
C311	C31	0.949900	0.292400	0.116400
H181	H18	0.910500	0.271800	0.118600
C321	C32	0.063900	0.352500	0.108800
H191	H19	0.103800	0.371900	0.108800
C331	C33	0.051500	0.301700	0.196000
H201	H20	0.084100	0.287700	0.254300
C341	C34	0.026600	0.429690	0.925500
C351	C35	0.905790	0.583400	0.488200
C361	C36	0.914500	0.634500	0.398500
H211	H21	0.952600	0.657400	0.399200
C371	C37	0.866000	0.650900	0.308200
H221	H22	0.873100	0.684800	0.247600
C381	C38	0.847300	0.552100	0.480500
H231	H23	0.839000	0.517500	0.538500
C391	C39	0.802100	0.572100	0.387900
H241	H24	0.763600	0.549900	0.384200
C401	C40	0.957740	0.562640	0.583400
C411	C41	0.060370	0.573910	0.658400
C421	C42	0.095800	0.504300	0.844400
C431	C43	0.048200	0.523750	0.750900
C441	C44	0.988700	0.494080	0.754800
N101	N10	0.347670	0.665000	0.728800
N111	N11	0.995600	0.271760	0.201200
N121	N12	0.810000	0.621800	0.302000
N131	N13	0.118250	0.602080	0.654900
N141	N14	0.153030	0.535160	0.846700
N151	N15	0.084900	0.456330	0.932600
N161	N16	0.977400	0.445560	0.844700
N171	N17	0.941510	0.514550	0.670400
N181	N18	0.013570	0.593180	0.571500
K31	K3	0.019050	0.838090	0.644190
C451	C45	0.110960	0.774900	0.244800
C461	C46	0.092300	0.726700	0.334300
H251	H25	0.061200	0.734300	0.401200
C471	C47	0.120700	0.666500	0.323100
H261	H26	0.108000	0.634700	0.384700
C481	C48	0.157700	0.760500	0.147800
H271	H27	0.171900	0.791700	0.086300
C491	C49	0.182800	0.699900	0.143400
H281	H28	0.214000	0.691300	0.077300
C501	C50	0.080530	0.839700	0.249900
C511	C51	0.874200	0.984200	0.521000
C521	C52	0.842600	0.042200	0.525400
H291	H29	0.855100	0.075600	0.467700
C531	C53	0.792400	0.050100	0.616400
H301	H30	0.771800	0.089500	0.618600
C541	C54	0.852500	0.936100	0.608800
H311	H31	0.871900	0.896200	0.608800
C551	C55	0.801700	0.948500	0.696000
H321	H32	0.787700	0.915900	0.754300
C561	C56	0.929690	0.973400	0.425500
C571	C57	0.083400	0.094210	0.988200
C581	C58	0.134500	0.085500	0.898500
H331	H33	0.157400	0.047400	0.899200
C591	C59	0.150900	0.134000	0.808200
H341	H34	0.184800	0.126900	0.747600
C601	C60	0.052100	0.152700	0.980500
H351	H35	0.017500	0.161000	0.038500
C611	C61	0.072100	0.197900	0.887900
H361	H36	0.049900	0.236400	0.884200
C621	C62	0.062640	0.042260	0.083400
C631	C63	0.073910	0.939630	0.158400
C641	C64	0.004300	0.904200	0.344400
C651	C65	0.023750	0.951800	0.250900
C661	C66	0.994080	0.011300	0.254800
N191	N19	0.165000	0.652330	0.228800
N201	N20	0.771760	0.004400	0.701200
N211	N21	0.121800	0.190000	0.802000
N221	N22	0.102080	0.881750	0.154900
N231	N23	0.035160	0.846970	0.346700
N241	N24	0.956330	0.915100	0.432600
N251	N25	0.945560	0.022600	0.344700
N261	N26	0.014550	0.058490	0.170400
N271	N27	0.093180	0.986430	0.071500
K41	K4	0.480950	0.661910	0.644190
C671	C67	0.389040	0.725100	0.244800
C681	C68	0.407700	0.773300	0.334300
H371	H37	0.438800	0.765700	0.401200
C691	C69	0.379300	0.833500	0.323100
H381	H38	0.392000	0.865300	0.384700
C701	C70	0.342300	0.739500	0.147800
H391	H39	0.328100	0.708300	0.086300
C711	C71	0.317200	0.800100	0.143400
H401	H40	0.286000	0.808700	0.077300
C721	C72	0.419470	0.660300	0.249900
C731	C73	0.625800	0.515800	0.521000
C741	C74	0.657400	0.457800	0.525400
H411	H41	0.644900	0.424400	0.467700
C751	C75	0.707600	0.449900	0.616400
H421	H42	0.728200	0.410500	0.618600
C761	C76	0.647500	0.563900	0.608800
H431	H43	0.628100	0.603800	0.608800
C771	C77	0.698300	0.551500	0.696000
H441	H44	0.712300	0.584100	0.754300
C781	C78	0.570310	0.526600	0.425500
C791	C79	0.416600	0.405790	0.988200
C801	C80	0.365500	0.414500	0.898500
H451	H45	0.342600	0.452600	0.899200
C811	C81	0.349100	0.366000	0.808200
H461	H46	0.315200	0.373100	0.747600
C821	C82	0.447900	0.347300	0.980500
H471	H47	0.482500	0.339000	0.038500
C831	C83	0.427900	0.302100	0.887900
H481	H48	0.450100	0.263600	0.884200
C841	C84	0.437360	0.457740	0.083400
C851	C85	0.426090	0.560370	0.158400
C861	C86	0.495700	0.595800	0.344400
C871	C87	0.476250	0.548200	0.250900
C881	C88	0.505920	0.488700	0.254800
N281	N28	0.335000	0.847670	0.228800
N291	N29	0.728240	0.495600	0.701200
N301	N30	0.378200	0.310000	0.802000
N311	N31	0.397920	0.618250	0.154900
N321	N32	0.464840	0.653030	0.346700
N331	N33	0.543670	0.584900	0.432600
N341	N34	0.554440	0.477400	0.344700
N351	N35	0.485450	0.441510	0.170400
N361	N36	0.406820	0.513570	0.071500
K51	K5	0.661910	0.019050	0.855810
C891	C89	0.725100	0.110960	0.255200
C901	C90	0.773300	0.092300	0.165700
H491	H49	0.765700	0.061200	0.098800
C911	C91	0.833500	0.120700	0.176900
H501	H50	0.865300	0.108000	0.115300
C921	C92	0.739500	0.157700	0.352200
H511	H51	0.708300	0.171900	0.413700
C931	C93	0.800100	0.182800	0.356600
H521	H52	0.808700	0.214000	0.422700
C941	C94	0.660300	0.080530	0.250100
C951	C95	0.515800	0.874200	0.979000
C961	C96	0.457800	0.842600	0.974600
H531	H53	0.424400	0.855100	0.032300
C971	C97	0.449900	0.792400	0.883600
H541	H54	0.410500	0.771800	0.881400
C981	C98	0.563900	0.852500	0.891200
H551	H55	0.603800	0.871900	0.891200
C991	C99	0.551500	0.801700	0.804000
H561	H56	0.584100	0.787700	0.745700
C1001	C100	0.526600	0.929690	0.074500
C1011	C101	0.405790	0.083400	0.511800
C1021	C102	0.414500	0.134500	0.601500
H571	H57	0.452600	0.157400	0.600800
C1031	C103	0.366000	0.150900	0.691800
H581	H58	0.373100	0.184800	0.752400
C1041	C104	0.347300	0.052100	0.519500
H591	H59	0.339000	0.017500	0.461500
C1051	C105	0.302100	0.072100	0.612100
H601	H60	0.263600	0.049900	0.615800
C1061	C106	0.457740	0.062640	0.416600
C1071	C107	0.560370	0.073910	0.341600
C1081	C108	0.595800	0.004300	0.155600
C1091	C109	0.548200	0.023750	0.249100
C1101	C110	0.488700	0.994080	0.245200
N371	N37	0.847670	0.165000	0.271200
N381	N38	0.495600	0.771760	0.798800
N391	N39	0.310000	0.121800	0.698000
N401	N40	0.618250	0.102080	0.345100
N411	N41	0.653030	0.035160	0.153300
N421	N42	0.584900	0.956330	0.067400
N431	N43	0.477400	0.945560	0.155300
N441	N44	0.441510	0.014550	0.329600
N451	N45	0.513570	0.093180	0.428500
K61	K6	0.838090	0.480950	0.855810
C1111	C111	0.774900	0.389040	0.255200
C1121	C112	0.726700	0.407700	0.165700
H611	H61	0.734300	0.438800	0.098800
C1131	C113	0.666500	0.379300	0.176900
H621	H62	0.634700	0.392000	0.115300
C1141	C114	0.760500	0.342300	0.352200
H631	H63	0.791700	0.328100	0.413700
C1151	C115	0.699900	0.317200	0.356600
H641	H64	0.691300	0.286000	0.422700
C1161	C116	0.839700	0.419470	0.250100
C1171	C117	0.984200	0.625800	0.979000
C1181	C118	0.042200	0.657400	0.974600
H651	H65	0.075600	0.644900	0.032300
C1191	C119	0.050100	0.707600	0.883600
H661	H66	0.089500	0.728200	0.881400
C1201	C120	0.936100	0.647500	0.891200
H671	H67	0.896200	0.628100	0.891200
C1211	C121	0.948500	0.698300	0.804000
H681	H68	0.915900	0.712300	0.745700
C1221	C122	0.973400	0.570310	0.074500
C1231	C123	0.094210	0.416600	0.511800
C1241	C124	0.085500	0.365500	0.601500
H691	H69	0.047400	0.342600	0.600800
C1251	C125	0.134000	0.349100	0.691800
H701	H70	0.126900	0.315200	0.752400
C1261	C126	0.152700	0.447900	0.519500
H711	H71	0.161000	0.482500	0.461500
C1271	C127	0.197900	0.427900	0.612100
H721	H72	0.236400	0.450100	0.615800
C1281	C128	0.042260	0.437360	0.416600
C1291	C129	0.939630	0.426090	0.341600
C1301	C130	0.904200	0.495700	0.155600
C1311	C131	0.951800	0.476250	0.249100
C1321	C132	0.011300	0.505920	0.245200
N461	N46	0.652330	0.335000	0.271200
N471	N47	0.004400	0.728240	0.798800
N481	N48	0.190000	0.378200	0.698000
N491	N49	0.881750	0.397920	0.345100
N501	N50	0.846970	0.464840	0.153300
N511	N51	0.915100	0.543670	0.067400
N521	N52	0.022600	0.554440	0.155300
N531	N53	0.058490	0.485450	0.329600
N541	N54	0.986430	0.406820	0.428500
K71	K7	0.980950	0.161910	0.355810
C1331	C133	0.889040	0.225100	0.755200
C1341	C134	0.907700	0.273300	0.665700
H731	H73	0.938800	0.265700	0.598800
C1351	C135	0.879300	0.333500	0.676900
H741	H74	0.892000	0.365300	0.615300
C1361	C136	0.842300	0.239500	0.852200
H751	H75	0.828100	0.208300	0.913700
C1371	C137	0.817200	0.300100	0.856600
H761	H76	0.786000	0.308700	0.922700
C1381	C138	0.919470	0.160300	0.750100
C1391	C139	0.125800	0.015800	0.479000
C1401	C140	0.157400	0.957800	0.474600
H771	H77	0.144900	0.924400	0.532300
C1411	C141	0.207600	0.949900	0.383600
H781	H78	0.228200	0.910500	0.381400
C1421	C142	0.147500	0.063900	0.391200
H791	H79	0.128100	0.103800	0.391200
C1431	C143	0.198300	0.051500	0.304000
H801	H80	0.212300	0.084100	0.245700
C1441	C144	0.070310	0.026600	0.574500
C1451	C145	0.916600	0.905790	0.011800
C1461	C146	0.865500	0.914500	0.101500
H811	H81	0.842600	0.952600	0.100800
C1471	C147	0.849100	0.866000	0.191800
H821	H82	0.815200	0.873100	0.252400
C1481	C148	0.947900	0.847300	0.019500
H831	H83	0.982500	0.839000	0.961500
C1491	C149	0.927900	0.802100	0.112100
H841	H84	0.950100	0.763600	0.115800
C1501	C150	0.937360	0.957740	0.916600
C1511	C151	0.926090	0.060370	0.841600
C1521	C152	0.995700	0.095800	0.655600
C1531	C153	0.976250	0.048200	0.749100
C1541	C154	0.005920	0.988700	0.745200
N551	N55	0.835000	0.347670	0.771200
N561	N56	0.228240	0.995600	0.298800
N571	N57	0.878200	0.810000	0.198000
N581	N58	0.897920	0.118250	0.845100
N591	N59	0.964840	0.153030	0.653300
N601	N60	0.043670	0.084900	0.567400
N611	N61	0.054440	0.977400	0.655300
N621	N62	0.985450	0.941510	0.829600
N631	N63	0.906820	0.013570	0.928500
K81	K8	0.519050	0.338090	0.355810
C1551	C155	0.610960	0.274900	0.755200
C1561	C156	0.592300	0.226700	0.665700
H851	H85	0.561200	0.234300	0.598800
C1571	C157	0.620700	0.166500	0.676900
H861	H86	0.608000	0.134700	0.615300
C1581	C158	0.657700	0.260500	0.852200
H871	H87	0.671900	0.291700	0.913700
C1591	C159	0.682800	0.199900	0.856600
H881	H88	0.714000	0.191300	0.922700
C1601	C160	0.580530	0.339700	0.750100
C1611	C161	0.374200	0.484200	0.479000
C1621	C162	0.342600	0.542200	0.474600
H891	H89	0.355100	0.575600	0.532300
C1631	C163	0.292400	0.550100	0.383600
H901	H90	0.271800	0.589500	0.381400
C1641	C164	0.352500	0.436100	0.391200
H911	H91	0.371900	0.396200	0.391200
C1651	C165	0.301700	0.448500	0.304000
H921	H92	0.287700	0.415900	0.245700
C1661	C166	0.429690	0.473400	0.574500
C1671	C167	0.583400	0.594210	0.011800
C1681	C168	0.634500	0.585500	0.101500
H931	H93	0.657400	0.547400	0.100800
C1691	C169	0.650900	0.634000	0.191800
H941	H94	0.684800	0.626900	0.252400
C1701	C170	0.552100	0.652700	0.019500
H951	H95	0.517500	0.661000	0.961500
C1711	C171	0.572100	0.697900	0.112100
H961	H96	0.549900	0.736400	0.115800
C1721	C172	0.562640	0.542260	0.916600
C1731	C173	0.573910	0.439630	0.841600
C1741	C174	0.504300	0.404200	0.655600
C1751	C175	0.523750	0.451800	0.749100
C1761	C176	0.494080	0.511300	0.745200
N641	N64	0.665000	0.152330	0.771200
N651	N65	0.271760	0.504400	0.298800
N661	N66	0.621800	0.690000	0.198000
N671	N67	0.602080	0.381750	0.845100
N681	N68	0.535160	0.346970	0.653300
N691	N69	0.456330	0.415100	0.567400
N701	N70	0.445560	0.522600	0.655300
N711	N71	0.514550	0.558490	0.829600
N721	N72	0.593180	0.486430	0.928500
