data_SOZSUX_clean_PM
_symmetry_space_group_name_H-M	'P1'
_cell_length_a	20.386400
_cell_length_b	20.386400
_cell_length_c	20.386400
_cell_angle_alpha	90.000000
_cell_angle_beta	90.000000
_cell_angle_gamma	90.000000
_symmetry_Int_Tables_number 1

loop_
_symmetry_equiv_pos_as_xyz
'x,y,z'

loop_
_atom_site_label
_atom_site_type_symbol
_atom_site_fract_x
_atom_site_fract_y
_atom_site_fract_z
O11	O1	0.134600	0.812300	0.243200
O21	O2	0.058500	0.883900	0.211900
N11	N1	0.996100	0.650900	0.012800
H11	H1	0.958600	0.663500	0.995700
N21	N2	0.988300	0.574600	0.932500
C11	C1	0.086800	0.830000	0.206700
C21	C2	0.064500	0.781800	0.156600
C31	C3	0.013000	0.796800	0.115000
H21	H2	0.991700	0.838100	0.118700
C41	C4	0.992400	0.753100	0.068800
H31	H3	0.957800	0.765000	0.040000
C51	C5	0.020800	0.691700	0.063100
C61	C6	0.071700	0.675400	0.105300
H41	H4	0.092000	0.633600	0.102200
C71	C7	0.092600	0.719700	0.151700
H51	H5	0.126900	0.707800	0.181000
C81	C8	0.021800	0.594900	0.986900
O31	O3	0.365400	0.187700	0.743200
O41	O4	0.441500	0.116100	0.711900
N31	N3	0.503900	0.349100	0.512800
H61	H6	0.541400	0.336500	0.495700
N41	N4	0.511700	0.425400	0.432500
C91	C9	0.413200	0.170000	0.706700
C101	C10	0.435500	0.218200	0.656600
C111	C11	0.487000	0.203200	0.615000
H71	H7	0.508300	0.161900	0.618700
C121	C12	0.507600	0.246900	0.568800
H81	H8	0.542200	0.235000	0.540000
C131	C13	0.479200	0.308300	0.563100
C141	C14	0.428300	0.324600	0.605300
H91	H9	0.408000	0.366400	0.602200
C151	C15	0.407400	0.280300	0.651700
H101	H10	0.373100	0.292200	0.681000
C161	C16	0.478200	0.405100	0.486900
O51	O5	0.865400	0.312300	0.256800
O61	O6	0.941500	0.383900	0.288100
N51	N5	0.003900	0.150900	0.487200
H111	H11	0.041400	0.163500	0.504300
N61	N6	0.011700	0.074600	0.567500
C171	C17	0.913200	0.330000	0.293300
C181	C18	0.935500	0.281800	0.343400
C191	C19	0.987000	0.296800	0.385000
H121	H12	0.008300	0.338100	0.381300
C201	C20	0.007600	0.253100	0.431200
H131	H13	0.042200	0.265000	0.460000
C211	C21	0.979200	0.191700	0.436900
C221	C22	0.928300	0.175400	0.394700
H141	H14	0.908000	0.133600	0.397800
C231	C23	0.907400	0.219700	0.348300
H151	H15	0.873100	0.207800	0.319000
C241	C24	0.978200	0.094900	0.513100
O71	O7	0.634600	0.687700	0.756800
O81	O8	0.558500	0.616100	0.788100
N71	N7	0.496100	0.849100	0.987200
H161	H16	0.458600	0.836500	0.004300
N81	N8	0.488300	0.925400	0.067500
C251	C25	0.586800	0.670000	0.793300
C261	C26	0.564500	0.718200	0.843400
C271	C27	0.513000	0.703200	0.885000
H171	H17	0.491700	0.661900	0.881300
C281	C28	0.492400	0.746900	0.931200
H181	H18	0.457800	0.735000	0.960000
C291	C29	0.520800	0.808300	0.936900
C301	C30	0.571700	0.824600	0.894700
H191	H19	0.592000	0.866400	0.897800
C311	C31	0.592600	0.780300	0.848300
H201	H20	0.626900	0.792200	0.819000
C321	C32	0.521800	0.905100	0.013100
O91	O9	0.243200	0.134600	0.812300
O101	O10	0.211900	0.058500	0.883900
N91	N9	0.012800	0.996100	0.650900
H211	H21	0.995700	0.958600	0.663500
N101	N10	0.932500	0.988300	0.574600
C331	C33	0.206700	0.086800	0.830000
C341	C34	0.156600	0.064500	0.781800
C351	C35	0.115000	0.013000	0.796800
H221	H22	0.118700	0.991700	0.838100
C361	C36	0.068800	0.992400	0.753100
H231	H23	0.040000	0.957800	0.765000
C371	C37	0.063100	0.020800	0.691700
C381	C38	0.105300	0.071700	0.675400
H241	H24	0.102200	0.092000	0.633600
C391	C39	0.151700	0.092600	0.719700
H251	H25	0.181000	0.126900	0.707800
C401	C40	0.986900	0.021800	0.594900
O111	O11	0.743200	0.365400	0.187700
O121	O12	0.711900	0.441500	0.116100
N111	N11	0.512800	0.503900	0.349100
H261	H26	0.495700	0.541400	0.336500
N121	N12	0.432500	0.511700	0.425400
C411	C41	0.706700	0.413200	0.170000
C421	C42	0.656600	0.435500	0.218200
C431	C43	0.615000	0.487000	0.203200
H271	H27	0.618700	0.508300	0.161900
C441	C44	0.568800	0.507600	0.246900
H281	H28	0.540000	0.542200	0.235000
C451	C45	0.563100	0.479200	0.308300
C461	C46	0.605300	0.428300	0.324600
H291	H29	0.602200	0.408000	0.366400
C471	C47	0.651700	0.407400	0.280300
H301	H30	0.681000	0.373100	0.292200
C481	C48	0.486900	0.478200	0.405100
O131	O13	0.256800	0.865400	0.312300
O141	O14	0.288100	0.941500	0.383900
N131	N13	0.487200	0.003900	0.150900
H311	H31	0.504300	0.041400	0.163500
N141	N14	0.567500	0.011700	0.074600
C491	C49	0.293300	0.913200	0.330000
C501	C50	0.343400	0.935500	0.281800
C511	C51	0.385000	0.987000	0.296800
H321	H32	0.381300	0.008300	0.338100
C521	C52	0.431200	0.007600	0.253100
H331	H33	0.460000	0.042200	0.265000
C531	C53	0.436900	0.979200	0.191700
C541	C54	0.394700	0.928300	0.175400
H341	H34	0.397800	0.908000	0.133600
C551	C55	0.348300	0.907400	0.219700
H351	H35	0.319000	0.873100	0.207800
C561	C56	0.513100	0.978200	0.094900
O151	O15	0.756800	0.634600	0.687700
O161	O16	0.788100	0.558500	0.616100
N151	N15	0.987200	0.496100	0.849100
H361	H36	0.004300	0.458600	0.836500
N161	N16	0.067500	0.488300	0.925400
C571	C57	0.793300	0.586800	0.670000
C581	C58	0.843400	0.564500	0.718200
C591	C59	0.885000	0.513000	0.703200
H371	H37	0.881300	0.491700	0.661900
C601	C60	0.931200	0.492400	0.746900
H381	H38	0.960000	0.457800	0.735000
C611	C61	0.936900	0.520800	0.808300
C621	C62	0.894700	0.571700	0.824600
H391	H39	0.897800	0.592000	0.866400
C631	C63	0.848300	0.592600	0.780300
H401	H40	0.819000	0.626900	0.792200
C641	C64	0.013100	0.521800	0.905100
O171	O17	0.812300	0.243200	0.134600
O181	O18	0.883900	0.211900	0.058500
N171	N17	0.650900	0.012800	0.996100
H411	H41	0.663500	0.995700	0.958600
N181	N18	0.574600	0.932500	0.988300
C651	C65	0.830000	0.206700	0.086800
C661	C66	0.781800	0.156600	0.064500
C671	C67	0.796800	0.115000	0.013000
H421	H42	0.838100	0.118700	0.991700
C681	C68	0.753100	0.068800	0.992400
H431	H43	0.765000	0.040000	0.957800
C691	C69	0.691700	0.063100	0.020800
C701	C70	0.675400	0.105300	0.071700
H441	H44	0.633600	0.102200	0.092000
C711	C71	0.719700	0.151700	0.092600
H451	H45	0.707800	0.181000	0.126900
C721	C72	0.594900	0.986900	0.021800
O191	O19	0.187700	0.743200	0.365400
O201	O20	0.116100	0.711900	0.441500
N191	N19	0.349100	0.512800	0.503900
H461	H46	0.336500	0.495700	0.541400
N201	N20	0.425400	0.432500	0.511700
C731	C73	0.170000	0.706700	0.413200
C741	C74	0.218200	0.656600	0.435500
C751	C75	0.203200	0.615000	0.487000
H471	H47	0.161900	0.618700	0.508300
C761	C76	0.246900	0.568800	0.507600
H481	H48	0.235000	0.540000	0.542200
C771	C77	0.308300	0.563100	0.479200
C781	C78	0.324600	0.605300	0.428300
H491	H49	0.366400	0.602200	0.408000
C791	C79	0.280300	0.651700	0.407400
H501	H50	0.292200	0.681000	0.373100
C801	C80	0.405100	0.486900	0.478200
O211	O21	0.312300	0.256800	0.865400
O221	O22	0.383900	0.288100	0.941500
N211	N21	0.150900	0.487200	0.003900
H511	H51	0.163500	0.504300	0.041400
N221	N22	0.074600	0.567500	0.011700
C811	C81	0.330000	0.293300	0.913200
C821	C82	0.281800	0.343400	0.935500
C831	C83	0.296800	0.385000	0.987000
H521	H52	0.338100	0.381300	0.008300
C841	C84	0.253100	0.431200	0.007600
H531	H53	0.265000	0.460000	0.042200
C851	C85	0.191700	0.436900	0.979200
C861	C86	0.175400	0.394700	0.928300
H541	H54	0.133600	0.397800	0.908000
C871	C87	0.219700	0.348300	0.907400
H551	H55	0.207800	0.319000	0.873100
C881	C88	0.094900	0.513100	0.978200
O231	O23	0.687700	0.756800	0.634600
O241	O24	0.616100	0.788100	0.558500
N231	N23	0.849100	0.987200	0.496100
H561	H56	0.836500	0.004300	0.458600
N241	N24	0.925400	0.067500	0.488300
C891	C89	0.670000	0.793300	0.586800
C901	C90	0.718200	0.843400	0.564500
C911	C91	0.703200	0.885000	0.513000
H571	H57	0.661900	0.881300	0.491700
C921	C92	0.746900	0.931200	0.492400
H581	H58	0.735000	0.960000	0.457800
C931	C93	0.808300	0.936900	0.520800
C941	C94	0.824600	0.894700	0.571700
H591	H59	0.866400	0.897800	0.592000
C951	C95	0.780300	0.848300	0.592600
H601	H60	0.792200	0.819000	0.626900
C961	C96	0.905100	0.013100	0.521800
Er11	Er1	0.154990	0.845010	0.345010
Er21	Er2	0.345010	0.154990	0.845010
Er31	Er3	0.845010	0.345010	0.154990
Er41	Er4	0.654990	0.654990	0.654990
O251	O25	0.237700	0.619000	0.180500
O261	O26	0.211700	0.535600	0.115300
N251	N25	0.009200	0.490000	0.350400
H611	H61	0.991300	0.452200	0.339800
N261	N26	0.011800	0.571100	0.430700
C971	C97	0.204200	0.568300	0.166600
C981	C98	0.154600	0.548600	0.216400
C991	C99	0.149200	0.580300	0.275400
H621	H62	0.178100	0.615600	0.285100
C1001	C100	0.102100	0.562100	0.321600
H631	H63	0.099500	0.584700	0.362300
C1011	C101	0.058600	0.510500	0.308300
C1021	C102	0.064900	0.478900	0.248300
H641	H64	0.036000	0.443700	0.238400
C1031	C103	0.110800	0.496500	0.203000
H651	H65	0.113400	0.473800	0.162500
C1041	C104	0.983900	0.517800	0.404800
O271	O27	0.262300	0.381000	0.680500
O281	O28	0.288300	0.464400	0.615300
N271	N27	0.490800	0.510000	0.850400
H661	H66	0.508700	0.547800	0.839800
N281	N28	0.488200	0.428900	0.930700
C1051	C105	0.295800	0.431700	0.666600
C1061	C106	0.345400	0.451400	0.716400
C1071	C107	0.350800	0.419700	0.775400
H671	H67	0.321900	0.384400	0.785100
C1081	C108	0.397900	0.437900	0.821600
H681	H68	0.400500	0.415300	0.862300
C1091	C109	0.441400	0.489500	0.808300
C1101	C110	0.435100	0.521100	0.748300
H691	H69	0.464000	0.556300	0.738400
C1111	C111	0.389200	0.503500	0.703000
H701	H70	0.386600	0.526200	0.662500
C1121	C112	0.516100	0.482200	0.904800
O291	O29	0.762300	0.119000	0.319500
O301	O30	0.788300	0.035600	0.384700
N291	N29	0.990800	0.990000	0.149600
H711	H71	0.008700	0.952200	0.160200
N301	N30	0.988200	0.071100	0.069300
C1131	C113	0.795800	0.068300	0.333400
C1141	C114	0.845400	0.048600	0.283600
C1151	C115	0.850800	0.080300	0.224600
H721	H72	0.821900	0.115600	0.214900
C1161	C116	0.897900	0.062100	0.178400
H731	H73	0.900500	0.084700	0.137700
C1171	C117	0.941400	0.010500	0.191700
C1181	C118	0.935100	0.978900	0.251700
H741	H74	0.964000	0.943700	0.261600
C1191	C119	0.889200	0.996500	0.297000
H751	H75	0.886600	0.973800	0.337500
C1201	C120	0.016100	0.017800	0.095200
O311	O31	0.737700	0.881000	0.819500
O321	O32	0.711700	0.964400	0.884700
N311	N31	0.509200	0.010000	0.649600
H761	H76	0.491300	0.047800	0.660200
N321	N32	0.511800	0.928900	0.569300
C1211	C121	0.704200	0.931700	0.833400
C1221	C122	0.654600	0.951400	0.783600
C1231	C123	0.649200	0.919700	0.724600
H771	H77	0.678100	0.884400	0.714900
C1241	C124	0.602100	0.937900	0.678400
H781	H78	0.599500	0.915300	0.637700
C1251	C125	0.558600	0.989500	0.691700
C1261	C126	0.564900	0.021100	0.751700
H791	H79	0.536000	0.056300	0.761600
C1271	C127	0.610800	0.003500	0.797000
H801	H80	0.613400	0.026200	0.837500
C1281	C128	0.483900	0.982200	0.595200
O331	O33	0.180500	0.237700	0.619000
O341	O34	0.115300	0.211700	0.535600
N331	N33	0.350400	0.009200	0.490000
H811	H81	0.339800	0.991300	0.452200
N341	N34	0.430700	0.011800	0.571100
C1291	C129	0.166600	0.204200	0.568300
C1301	C130	0.216400	0.154600	0.548600
C1311	C131	0.275400	0.149200	0.580300
H821	H82	0.285100	0.178100	0.615600
C1321	C132	0.321600	0.102100	0.562100
H831	H83	0.362300	0.099500	0.584700
C1331	C133	0.308300	0.058600	0.510500
C1341	C134	0.248300	0.064900	0.478900
H841	H84	0.238400	0.036000	0.443700
C1351	C135	0.203000	0.110800	0.496500
H851	H85	0.162500	0.113400	0.473800
C1361	C136	0.404800	0.983900	0.517800
O351	O35	0.680500	0.262300	0.381000
O361	O36	0.615300	0.288300	0.464400
N351	N35	0.850400	0.490800	0.510000
H861	H86	0.839800	0.508700	0.547800
N361	N36	0.930700	0.488200	0.428900
C1371	C137	0.666600	0.295800	0.431700
C1381	C138	0.716400	0.345400	0.451400
C1391	C139	0.775400	0.350800	0.419700
H871	H87	0.785100	0.321900	0.384400
C1401	C140	0.821600	0.397900	0.437900
H881	H88	0.862300	0.400500	0.415300
C1411	C141	0.808300	0.441400	0.489500
C1421	C142	0.748300	0.435100	0.521100
H891	H89	0.738400	0.464000	0.556300
C1431	C143	0.703000	0.389200	0.503500
H901	H90	0.662500	0.386600	0.526200
C1441	C144	0.904800	0.516100	0.482200
O371	O37	0.319500	0.762300	0.119000
O381	O38	0.384700	0.788300	0.035600
N371	N37	0.149600	0.990800	0.990000
H911	H91	0.160200	0.008700	0.952200
N381	N38	0.069300	0.988200	0.071100
C1451	C145	0.333400	0.795800	0.068300
C1461	C146	0.283600	0.845400	0.048600
C1471	C147	0.224600	0.850800	0.080300
H921	H92	0.214900	0.821900	0.115600
C1481	C148	0.178400	0.897900	0.062100
H931	H93	0.137700	0.900500	0.084700
C1491	C149	0.191700	0.941400	0.010500
C1501	C150	0.251700	0.935100	0.978900
H941	H94	0.261600	0.964000	0.943700
C1511	C151	0.297000	0.889200	0.996500
H951	H95	0.337500	0.886600	0.973800
C1521	C152	0.095200	0.016100	0.017800
O391	O39	0.819500	0.737700	0.881000
O401	O40	0.884700	0.711700	0.964400
N391	N39	0.649600	0.509200	0.010000
H961	H96	0.660200	0.491300	0.047800
N401	N40	0.569300	0.511800	0.928900
C1531	C153	0.833400	0.704200	0.931700
C1541	C154	0.783600	0.654600	0.951400
C1551	C155	0.724600	0.649200	0.919700
H971	H97	0.714900	0.678100	0.884400
C1561	C156	0.678400	0.602100	0.937900
H981	H98	0.637700	0.599500	0.915300
C1571	C157	0.691700	0.558600	0.989500
C1581	C158	0.751700	0.564900	0.021100
H991	H99	0.761600	0.536000	0.056300
C1591	C159	0.797000	0.610800	0.003500
H1001	H100	0.837500	0.613400	0.026200
C1601	C160	0.595200	0.483900	0.982200
O411	O41	0.619000	0.180500	0.237700
O421	O42	0.535600	0.115300	0.211700
N411	N41	0.490000	0.350400	0.009200
H1011	H101	0.452200	0.339800	0.991300
N421	N42	0.571100	0.430700	0.011800
C1611	C161	0.568300	0.166600	0.204200
C1621	C162	0.548600	0.216400	0.154600
C1631	C163	0.580300	0.275400	0.149200
H1021	H102	0.615600	0.285100	0.178100
C1641	C164	0.562100	0.321600	0.102100
H1031	H103	0.584700	0.362300	0.099500
C1651	C165	0.510500	0.308300	0.058600
C1661	C166	0.478900	0.248300	0.064900
H1041	H104	0.443700	0.238400	0.036000
C1671	C167	0.496500	0.203000	0.110800
H1051	H105	0.473800	0.162500	0.113400
C1681	C168	0.517800	0.404800	0.983900
O431	O43	0.381000	0.680500	0.262300
O441	O44	0.464400	0.615300	0.288300
N431	N43	0.510000	0.850400	0.490800
H1061	H106	0.547800	0.839800	0.508700
N441	N44	0.428900	0.930700	0.488200
C1691	C169	0.431700	0.666600	0.295800
C1701	C170	0.451400	0.716400	0.345400
C1711	C171	0.419700	0.775400	0.350800
H1071	H107	0.384400	0.785100	0.321900
C1721	C172	0.437900	0.821600	0.397900
H1081	H108	0.415300	0.862300	0.400500
C1731	C173	0.489500	0.808300	0.441400
C1741	C174	0.521100	0.748300	0.435100
H1091	H109	0.556300	0.738400	0.464000
C1751	C175	0.503500	0.703000	0.389200
H1101	H110	0.526200	0.662500	0.386600
C1761	C176	0.482200	0.904800	0.516100
O451	O45	0.119000	0.319500	0.762300
O461	O46	0.035600	0.384700	0.788300
N451	N45	0.990000	0.149600	0.990800
H1111	H111	0.952200	0.160200	0.008700
N461	N46	0.071100	0.069300	0.988200
C1771	C177	0.068300	0.333400	0.795800
C1781	C178	0.048600	0.283600	0.845400
C1791	C179	0.080300	0.224600	0.850800
H1121	H112	0.115600	0.214900	0.821900
C1801	C180	0.062100	0.178400	0.897900
H1131	H113	0.084700	0.137700	0.900500
C1811	C181	0.010500	0.191700	0.941400
C1821	C182	0.978900	0.251700	0.935100
H1141	H114	0.943700	0.261600	0.964000
C1831	C183	0.996500	0.297000	0.889200
H1151	H115	0.973800	0.337500	0.886600
C1841	C184	0.017800	0.095200	0.016100
O471	O47	0.881000	0.819500	0.737700
O481	O48	0.964400	0.884700	0.711700
N471	N47	0.010000	0.649600	0.509200
H1161	H116	0.047800	0.660200	0.491300
N481	N48	0.928900	0.569300	0.511800
C1851	C185	0.931700	0.833400	0.704200
C1861	C186	0.951400	0.783600	0.654600
C1871	C187	0.919700	0.724600	0.649200
H1171	H117	0.884400	0.714900	0.678100
C1881	C188	0.937900	0.678400	0.602100
H1181	H118	0.915300	0.637700	0.599500
C1891	C189	0.989500	0.691700	0.558600
C1901	C190	0.021100	0.751700	0.564900
H1191	H119	0.056300	0.761600	0.536000
C1911	C191	0.003500	0.797000	0.610800
H1201	H120	0.026200	0.837500	0.613400
C1921	C192	0.982200	0.595200	0.483900
Er51	Er5	0.333260	0.666740	0.166740
Er61	Er6	0.166740	0.333260	0.666740
Er71	Er7	0.666740	0.166740	0.333260
Er81	Er8	0.833260	0.833260	0.833260
