data_SOZSEH_clean_PM
_symmetry_space_group_name_H-M	'P1'
_cell_length_a	20.425000
_cell_length_b	20.425000
_cell_length_c	20.425000
_cell_angle_alpha	90.000000
_cell_angle_beta	90.000000
_cell_angle_gamma	90.000000
_symmetry_Int_Tables_number 1

loop_
_symmetry_equiv_pos_as_xyz
'x,y,z'

loop_
_atom_site_label
_atom_site_type_symbol
_atom_site_fract_x
_atom_site_fract_y
_atom_site_fract_z
O11	O1	0.133200	0.808400	0.245000
O21	O2	0.062500	0.882200	0.214400
N11	N1	0.999200	0.655600	0.009200
H11	H1	0.963300	0.670300	0.990700
N21	N2	0.991500	0.578000	0.929400
C11	C1	0.087600	0.828000	0.209000
C21	C2	0.066100	0.781400	0.156100
C31	C3	0.017300	0.797400	0.114000
H21	H2	0.997800	0.839500	0.117100
C41	C4	0.995300	0.755000	0.067500
H31	H3	0.960600	0.767700	0.039300
C51	C5	0.023800	0.692200	0.060700
C61	C6	0.074300	0.676600	0.103700
H41	H4	0.095200	0.635200	0.100300
C71	C7	0.093900	0.718900	0.149900
H51	H5	0.127600	0.706200	0.179400
C81	C8	0.025200	0.597900	0.983500
O31	O3	0.366800	0.191600	0.745000
O41	O4	0.437500	0.117800	0.714400
N31	N3	0.500800	0.344400	0.509200
H61	H6	0.536700	0.329700	0.490700
N41	N4	0.508500	0.422000	0.429400
C91	C9	0.412400	0.172000	0.709000
C101	C10	0.433900	0.218600	0.656100
C111	C11	0.482700	0.202600	0.614000
H71	H7	0.502200	0.160500	0.617100
C121	C12	0.504700	0.245000	0.567500
H81	H8	0.539400	0.232300	0.539300
C131	C13	0.476200	0.307800	0.560700
C141	C14	0.425700	0.323400	0.603700
H91	H9	0.404800	0.364800	0.600300
C151	C15	0.406100	0.281100	0.649900
H101	H10	0.372400	0.293800	0.679400
C161	C16	0.474800	0.402100	0.483500
O51	O5	0.866800	0.308400	0.255000
O61	O6	0.937500	0.382200	0.285600
N51	N5	0.000800	0.155600	0.490800
H111	H11	0.036700	0.170300	0.509300
N61	N6	0.008500	0.078000	0.570600
C171	C17	0.912400	0.328000	0.291000
C181	C18	0.933900	0.281400	0.343900
C191	C19	0.982700	0.297400	0.386000
H121	H12	0.002200	0.339500	0.382900
C201	C20	0.004700	0.255000	0.432500
H131	H13	0.039400	0.267700	0.460700
C211	C21	0.976200	0.192200	0.439300
C221	C22	0.925700	0.176600	0.396300
H141	H14	0.904800	0.135200	0.399700
C231	C23	0.906100	0.218900	0.350100
H151	H15	0.872400	0.206200	0.320600
C241	C24	0.974800	0.097900	0.516500
O71	O7	0.633200	0.691600	0.755000
O81	O8	0.562500	0.617800	0.785600
N71	N7	0.499200	0.844400	0.990800
H161	H16	0.463300	0.829700	0.009300
N81	N8	0.491500	0.922000	0.070600
C251	C25	0.587600	0.672000	0.791000
C261	C26	0.566100	0.718600	0.843900
C271	C27	0.517300	0.702600	0.886000
H171	H17	0.497800	0.660500	0.882900
C281	C28	0.495300	0.745000	0.932500
H181	H18	0.460600	0.732300	0.960700
C291	C29	0.523800	0.807800	0.939300
C301	C30	0.574300	0.823400	0.896300
H191	H19	0.595200	0.864800	0.899700
C311	C31	0.593900	0.781100	0.850100
H201	H20	0.627600	0.793800	0.820600
C321	C32	0.525200	0.902100	0.016500
O91	O9	0.245000	0.133200	0.808400
O101	O10	0.214400	0.062500	0.882200
N91	N9	0.009200	0.999200	0.655600
H211	H21	0.990700	0.963300	0.670300
N101	N10	0.929400	0.991500	0.578000
C331	C33	0.209000	0.087600	0.828000
C341	C34	0.156100	0.066100	0.781400
C351	C35	0.114000	0.017300	0.797400
H221	H22	0.117100	0.997800	0.839500
C361	C36	0.067500	0.995300	0.755000
H231	H23	0.039300	0.960600	0.767700
C371	C37	0.060700	0.023800	0.692200
C381	C38	0.103700	0.074300	0.676600
H241	H24	0.100300	0.095200	0.635200
C391	C39	0.149900	0.093900	0.718900
H251	H25	0.179400	0.127600	0.706200
C401	C40	0.983500	0.025200	0.597900
O111	O11	0.745000	0.366800	0.191600
O121	O12	0.714400	0.437500	0.117800
N111	N11	0.509200	0.500800	0.344400
H261	H26	0.490700	0.536700	0.329700
N121	N12	0.429400	0.508500	0.422000
C411	C41	0.709000	0.412400	0.172000
C421	C42	0.656100	0.433900	0.218600
C431	C43	0.614000	0.482700	0.202600
H271	H27	0.617100	0.502200	0.160500
C441	C44	0.567500	0.504700	0.245000
H281	H28	0.539300	0.539400	0.232300
C451	C45	0.560700	0.476200	0.307800
C461	C46	0.603700	0.425700	0.323400
H291	H29	0.600300	0.404800	0.364800
C471	C47	0.649900	0.406100	0.281100
H301	H30	0.679400	0.372400	0.293800
C481	C48	0.483500	0.474800	0.402100
O131	O13	0.255000	0.866800	0.308400
O141	O14	0.285600	0.937500	0.382200
N131	N13	0.490800	0.000800	0.155600
H311	H31	0.509300	0.036700	0.170300
N141	N14	0.570600	0.008500	0.078000
C491	C49	0.291000	0.912400	0.328000
C501	C50	0.343900	0.933900	0.281400
C511	C51	0.386000	0.982700	0.297400
H321	H32	0.382900	0.002200	0.339500
C521	C52	0.432500	0.004700	0.255000
H331	H33	0.460700	0.039400	0.267700
C531	C53	0.439300	0.976200	0.192200
C541	C54	0.396300	0.925700	0.176600
H341	H34	0.399700	0.904800	0.135200
C551	C55	0.350100	0.906100	0.218900
H351	H35	0.320600	0.872400	0.206200
C561	C56	0.516500	0.974800	0.097900
O151	O15	0.755000	0.633200	0.691600
O161	O16	0.785600	0.562500	0.617800
N151	N15	0.990800	0.499200	0.844400
H361	H36	0.009300	0.463300	0.829700
N161	N16	0.070600	0.491500	0.922000
C571	C57	0.791000	0.587600	0.672000
C581	C58	0.843900	0.566100	0.718600
C591	C59	0.886000	0.517300	0.702600
H371	H37	0.882900	0.497800	0.660500
C601	C60	0.932500	0.495300	0.745000
H381	H38	0.960700	0.460600	0.732300
C611	C61	0.939300	0.523800	0.807800
C621	C62	0.896300	0.574300	0.823400
H391	H39	0.899700	0.595200	0.864800
C631	C63	0.850100	0.593900	0.781100
H401	H40	0.820600	0.627600	0.793800
C641	C64	0.016500	0.525200	0.902100
O171	O17	0.808400	0.245000	0.133200
O181	O18	0.882200	0.214400	0.062500
N171	N17	0.655600	0.009200	0.999200
H411	H41	0.670300	0.990700	0.963300
N181	N18	0.578000	0.929400	0.991500
C651	C65	0.828000	0.209000	0.087600
C661	C66	0.781400	0.156100	0.066100
C671	C67	0.797400	0.114000	0.017300
H421	H42	0.839500	0.117100	0.997800
C681	C68	0.755000	0.067500	0.995300
H431	H43	0.767700	0.039300	0.960600
C691	C69	0.692200	0.060700	0.023800
C701	C70	0.676600	0.103700	0.074300
H441	H44	0.635200	0.100300	0.095200
C711	C71	0.718900	0.149900	0.093900
H451	H45	0.706200	0.179400	0.127600
C721	C72	0.597900	0.983500	0.025200
O191	O19	0.191600	0.745000	0.366800
O201	O20	0.117800	0.714400	0.437500
N191	N19	0.344400	0.509200	0.500800
H461	H46	0.329700	0.490700	0.536700
N201	N20	0.422000	0.429400	0.508500
C731	C73	0.172000	0.709000	0.412400
C741	C74	0.218600	0.656100	0.433900
C751	C75	0.202600	0.614000	0.482700
H471	H47	0.160500	0.617100	0.502200
C761	C76	0.245000	0.567500	0.504700
H481	H48	0.232300	0.539300	0.539400
C771	C77	0.307800	0.560700	0.476200
C781	C78	0.323400	0.603700	0.425700
H491	H49	0.364800	0.600300	0.404800
C791	C79	0.281100	0.649900	0.406100
H501	H50	0.293800	0.679400	0.372400
C801	C80	0.402100	0.483500	0.474800
O211	O21	0.308400	0.255000	0.866800
O221	O22	0.382200	0.285600	0.937500
N211	N21	0.155600	0.490800	0.000800
H511	H51	0.170300	0.509300	0.036700
N221	N22	0.078000	0.570600	0.008500
C811	C81	0.328000	0.291000	0.912400
C821	C82	0.281400	0.343900	0.933900
C831	C83	0.297400	0.386000	0.982700
H521	H52	0.339500	0.382900	0.002200
C841	C84	0.255000	0.432500	0.004700
H531	H53	0.267700	0.460700	0.039400
C851	C85	0.192200	0.439300	0.976200
C861	C86	0.176600	0.396300	0.925700
H541	H54	0.135200	0.399700	0.904800
C871	C87	0.218900	0.350100	0.906100
H551	H55	0.206200	0.320600	0.872400
C881	C88	0.097900	0.516500	0.974800
O231	O23	0.691600	0.755000	0.633200
O241	O24	0.617800	0.785600	0.562500
N231	N23	0.844400	0.990800	0.499200
H561	H56	0.829700	0.009300	0.463300
N241	N24	0.922000	0.070600	0.491500
C891	C89	0.672000	0.791000	0.587600
C901	C90	0.718600	0.843900	0.566100
C911	C91	0.702600	0.886000	0.517300
H571	H57	0.660500	0.882900	0.497800
C921	C92	0.745000	0.932500	0.495300
H581	H58	0.732300	0.960700	0.460600
C931	C93	0.807800	0.939300	0.523800
C941	C94	0.823400	0.896300	0.574300
H591	H59	0.864800	0.899700	0.595200
C951	C95	0.781100	0.850100	0.593900
H601	H60	0.793800	0.820600	0.627600
C961	C96	0.902100	0.016500	0.525200
Gd11	Gd1	0.152520	0.847480	0.347480
Gd21	Gd2	0.347480	0.152520	0.847480
Gd31	Gd3	0.847480	0.347480	0.152520
Gd41	Gd4	0.652520	0.652520	0.652520
O251	O25	0.235500	0.617200	0.178800
O261	O26	0.209900	0.532000	0.115600
N251	N25	0.006200	0.491600	0.348500
H611	H61	0.986900	0.454800	0.337100
N261	N26	0.010400	0.573000	0.427700
C971	C97	0.203100	0.565500	0.166600
C981	C98	0.152500	0.546100	0.215100
C991	C99	0.146600	0.578900	0.273400
H621	H62	0.175800	0.613900	0.282700
C1001	C100	0.099700	0.562700	0.318900
H631	H63	0.096400	0.586800	0.358500
C1011	C101	0.057200	0.510800	0.306600
C1021	C102	0.062400	0.478000	0.246800
H641	H64	0.033000	0.443400	0.236700
C1031	C103	0.109700	0.495400	0.203000
H651	H65	0.113200	0.472000	0.163000
C1041	C104	0.982000	0.519100	0.402500
O271	O27	0.264500	0.382800	0.678800
O281	O28	0.290100	0.468000	0.615600
N271	N27	0.493800	0.508400	0.848500
H661	H66	0.513100	0.545200	0.837100
N281	N28	0.489600	0.427000	0.927700
C1051	C105	0.296900	0.434500	0.666600
C1061	C106	0.347500	0.453900	0.715100
C1071	C107	0.353400	0.421100	0.773400
H671	H67	0.324200	0.386100	0.782700
C1081	C108	0.400300	0.437300	0.818900
H681	H68	0.403600	0.413200	0.858500
C1091	C109	0.442800	0.489200	0.806600
C1101	C110	0.437600	0.522000	0.746800
H691	H69	0.467000	0.556600	0.736700
C1111	C111	0.390300	0.504600	0.703000
H701	H70	0.386800	0.528000	0.663000
C1121	C112	0.518000	0.480900	0.902500
O291	O29	0.764500	0.117200	0.321200
O301	O30	0.790100	0.032000	0.384400
N291	N29	0.993800	0.991600	0.151500
H711	H71	0.013100	0.954800	0.162900
N301	N30	0.989600	0.073000	0.072300
C1131	C113	0.796900	0.065500	0.333400
C1141	C114	0.847500	0.046100	0.284900
C1151	C115	0.853400	0.078900	0.226600
H721	H72	0.824200	0.113900	0.217300
C1161	C116	0.900300	0.062700	0.181100
H731	H73	0.903600	0.086800	0.141500
C1171	C117	0.942800	0.010800	0.193400
C1181	C118	0.937600	0.978000	0.253200
H741	H74	0.967000	0.943400	0.263300
C1191	C119	0.890300	0.995400	0.297000
H751	H75	0.886800	0.972000	0.337000
C1201	C120	0.018000	0.019100	0.097500
O311	O31	0.735500	0.882800	0.821200
O321	O32	0.709900	0.968000	0.884400
N311	N31	0.506200	0.008400	0.651500
H761	H76	0.486900	0.045200	0.662900
N321	N32	0.510400	0.927000	0.572300
C1211	C121	0.703100	0.934500	0.833400
C1221	C122	0.652500	0.953900	0.784900
C1231	C123	0.646600	0.921100	0.726600
H771	H77	0.675800	0.886100	0.717300
C1241	C124	0.599700	0.937300	0.681100
H781	H78	0.596400	0.913200	0.641500
C1251	C125	0.557200	0.989200	0.693400
C1261	C126	0.562400	0.022000	0.753200
H791	H79	0.533000	0.056600	0.763300
C1271	C127	0.609700	0.004600	0.797000
H801	H80	0.613200	0.028000	0.837000
C1281	C128	0.482000	0.980900	0.597500
O331	O33	0.178800	0.235500	0.617200
O341	O34	0.115600	0.209900	0.532000
N331	N33	0.348500	0.006200	0.491600
H811	H81	0.337100	0.986900	0.454800
N341	N34	0.427700	0.010400	0.573000
C1291	C129	0.166600	0.203100	0.565500
C1301	C130	0.215100	0.152500	0.546100
C1311	C131	0.273400	0.146600	0.578900
H821	H82	0.282700	0.175800	0.613900
C1321	C132	0.318900	0.099700	0.562700
H831	H83	0.358500	0.096400	0.586800
C1331	C133	0.306600	0.057200	0.510800
C1341	C134	0.246800	0.062400	0.478000
H841	H84	0.236700	0.033000	0.443400
C1351	C135	0.203000	0.109700	0.495400
H851	H85	0.163000	0.113200	0.472000
C1361	C136	0.402500	0.982000	0.519100
O351	O35	0.678800	0.264500	0.382800
O361	O36	0.615600	0.290100	0.468000
N351	N35	0.848500	0.493800	0.508400
H861	H86	0.837100	0.513100	0.545200
N361	N36	0.927700	0.489600	0.427000
C1371	C137	0.666600	0.296900	0.434500
C1381	C138	0.715100	0.347500	0.453900
C1391	C139	0.773400	0.353400	0.421100
H871	H87	0.782700	0.324200	0.386100
C1401	C140	0.818900	0.400300	0.437300
H881	H88	0.858500	0.403600	0.413200
C1411	C141	0.806600	0.442800	0.489200
C1421	C142	0.746800	0.437600	0.522000
H891	H89	0.736700	0.467000	0.556600
C1431	C143	0.703000	0.390300	0.504600
H901	H90	0.663000	0.386800	0.528000
C1441	C144	0.902500	0.518000	0.480900
O371	O37	0.321200	0.764500	0.117200
O381	O38	0.384400	0.790100	0.032000
N371	N37	0.151500	0.993800	0.991600
H911	H91	0.162900	0.013100	0.954800
N381	N38	0.072300	0.989600	0.073000
C1451	C145	0.333400	0.796900	0.065500
C1461	C146	0.284900	0.847500	0.046100
C1471	C147	0.226600	0.853400	0.078900
H921	H92	0.217300	0.824200	0.113900
C1481	C148	0.181100	0.900300	0.062700
H931	H93	0.141500	0.903600	0.086800
C1491	C149	0.193400	0.942800	0.010800
C1501	C150	0.253200	0.937600	0.978000
H941	H94	0.263300	0.967000	0.943400
C1511	C151	0.297000	0.890300	0.995400
H951	H95	0.337000	0.886800	0.972000
C1521	C152	0.097500	0.018000	0.019100
O391	O39	0.821200	0.735500	0.882800
O401	O40	0.884400	0.709900	0.968000
N391	N39	0.651500	0.506200	0.008400
H961	H96	0.662900	0.486900	0.045200
N401	N40	0.572300	0.510400	0.927000
C1531	C153	0.833400	0.703100	0.934500
C1541	C154	0.784900	0.652500	0.953900
C1551	C155	0.726600	0.646600	0.921100
H971	H97	0.717300	0.675800	0.886100
C1561	C156	0.681100	0.599700	0.937300
H981	H98	0.641500	0.596400	0.913200
C1571	C157	0.693400	0.557200	0.989200
C1581	C158	0.753200	0.562400	0.022000
H991	H99	0.763300	0.533000	0.056600
C1591	C159	0.797000	0.609700	0.004600
H1001	H100	0.837000	0.613200	0.028000
C1601	C160	0.597500	0.482000	0.980900
O411	O41	0.617200	0.178800	0.235500
O421	O42	0.532000	0.115600	0.209900
N411	N41	0.491600	0.348500	0.006200
H1011	H101	0.454800	0.337100	0.986900
N421	N42	0.573000	0.427700	0.010400
C1611	C161	0.565500	0.166600	0.203100
C1621	C162	0.546100	0.215100	0.152500
C1631	C163	0.578900	0.273400	0.146600
H1021	H102	0.613900	0.282700	0.175800
C1641	C164	0.562700	0.318900	0.099700
H1031	H103	0.586800	0.358500	0.096400
C1651	C165	0.510800	0.306600	0.057200
C1661	C166	0.478000	0.246800	0.062400
H1041	H104	0.443400	0.236700	0.033000
C1671	C167	0.495400	0.203000	0.109700
H1051	H105	0.472000	0.163000	0.113200
C1681	C168	0.519100	0.402500	0.982000
O431	O43	0.382800	0.678800	0.264500
O441	O44	0.468000	0.615600	0.290100
N431	N43	0.508400	0.848500	0.493800
H1061	H106	0.545200	0.837100	0.513100
N441	N44	0.427000	0.927700	0.489600
C1691	C169	0.434500	0.666600	0.296900
C1701	C170	0.453900	0.715100	0.347500
C1711	C171	0.421100	0.773400	0.353400
H1071	H107	0.386100	0.782700	0.324200
C1721	C172	0.437300	0.818900	0.400300
H1081	H108	0.413200	0.858500	0.403600
C1731	C173	0.489200	0.806600	0.442800
C1741	C174	0.522000	0.746800	0.437600
H1091	H109	0.556600	0.736700	0.467000
C1751	C175	0.504600	0.703000	0.390300
H1101	H110	0.528000	0.663000	0.386800
C1761	C176	0.480900	0.902500	0.518000
O451	O45	0.117200	0.321200	0.764500
O461	O46	0.032000	0.384400	0.790100
N451	N45	0.991600	0.151500	0.993800
H1111	H111	0.954800	0.162900	0.013100
N461	N46	0.073000	0.072300	0.989600
C1771	C177	0.065500	0.333400	0.796900
C1781	C178	0.046100	0.284900	0.847500
C1791	C179	0.078900	0.226600	0.853400
H1121	H112	0.113900	0.217300	0.824200
C1801	C180	0.062700	0.181100	0.900300
H1131	H113	0.086800	0.141500	0.903600
C1811	C181	0.010800	0.193400	0.942800
C1821	C182	0.978000	0.253200	0.937600
H1141	H114	0.943400	0.263300	0.967000
C1831	C183	0.995400	0.297000	0.890300
H1151	H115	0.972000	0.337000	0.886800
C1841	C184	0.019100	0.097500	0.018000
O471	O47	0.882800	0.821200	0.735500
O481	O48	0.968000	0.884400	0.709900
N471	N47	0.008400	0.651500	0.506200
H1161	H116	0.045200	0.662900	0.486900
N481	N48	0.927000	0.572300	0.510400
C1851	C185	0.934500	0.833400	0.703100
C1861	C186	0.953900	0.784900	0.652500
C1871	C187	0.921100	0.726600	0.646600
H1171	H117	0.886100	0.717300	0.675800
C1881	C188	0.937300	0.681100	0.599700
H1181	H118	0.913200	0.641500	0.596400
C1891	C189	0.989200	0.693400	0.557200
C1901	C190	0.022000	0.753200	0.562400
H1191	H119	0.056600	0.763300	0.533000
C1911	C191	0.004600	0.797000	0.609700
H1201	H120	0.028000	0.837000	0.613200
C1921	C192	0.980900	0.597500	0.482000
Gd51	Gd5	0.333840	0.666160	0.166160
Gd61	Gd6	0.166160	0.333840	0.666160
Gd71	Gd7	0.666160	0.166160	0.333840
Gd81	Gd8	0.833840	0.833840	0.833840
