data_SUFBAY_clean_PM
_symmetry_space_group_name_H-M	'P1'
_cell_length_a	12.783200
_cell_length_b	12.783200
_cell_length_c	32.534500
_cell_angle_alpha	90.000000
_cell_angle_beta	90.000000
_cell_angle_gamma	90.000000
_symmetry_Int_Tables_number 1

loop_
_symmetry_equiv_pos_as_xyz
'x,y,z'

loop_
_atom_site_label
_atom_site_type_symbol
_atom_site_fract_x
_atom_site_fract_y
_atom_site_fract_z
C11	C1	0.569700	0.675000	0.791000
C21	C2	0.958100	0.253900	0.951210
C31	C3	0.944200	0.147200	0.930800
C41	C4	0.960500	0.148000	0.886900
H11	H1	0.973100	0.078000	0.877500
H21	H2	0.019800	0.191100	0.880500
H31	H3	0.899500	0.175600	0.873500
C51	C5	0.040800	0.083500	0.945300
H41	H4	0.022000	0.041600	0.968700
H51	H5	0.096000	0.130700	0.952800
H61	H6	0.064200	0.038900	0.923400
C61	C6	0.858700	0.087400	0.946400
H71	H7	0.794100	0.117800	0.937300
H81	H8	0.861000	0.087300	0.975900
H91	H9	0.863700	0.016800	0.936500
C71	C7	0.483500	0.649900	0.820620
C81	C8	0.401400	0.584500	0.809890
H101	H10	0.398300	0.555600	0.783700
C91	C9	0.324100	0.562600	0.838540
H111	H11	0.269600	0.518000	0.831400
C101	C10	0.326200	0.604400	0.876450
C111	C11	0.409000	0.667800	0.887590
H121	H12	0.412800	0.695800	0.913900
C121	C12	0.486000	0.688800	0.859010
H131	H13	0.541700	0.731400	0.866600
C131	C13	0.244200	0.578900	0.906720
C141	C14	0.140800	0.589000	0.959850
C151	C15	0.123100	0.496100	0.939720
C161	C16	0.047700	0.422300	0.954300
C171	C17	0.030600	0.326100	0.935380
H141	H14	0.068000	0.309200	0.911800
C181	C18	0.900400	0.284000	0.985320
H151	H15	0.849500	0.238800	0.995400
C191	C19	0.915900	0.378900	0.004870
C201	C20	0.991300	0.450500	0.989810
N11	N1	0.220200	0.640700	0.938740
H161	H16	0.248100	0.699800	0.944900
N21	N2	0.188900	0.490400	0.906420
O11	O1	0.638200	0.731300	0.801160
O21	O2	0.567900	0.637600	0.756440
H171	H17	0.193500	0.440100	0.889000
C211	C21	0.930300	0.825000	0.791000
C221	C22	0.541900	0.246100	0.951210
C231	C23	0.555800	0.352800	0.930800
C241	C24	0.539500	0.352000	0.886900
H181	H18	0.526900	0.422000	0.877500
H191	H19	0.480200	0.308900	0.880500
H201	H20	0.600500	0.324400	0.873500
C251	C25	0.459200	0.416500	0.945300
H211	H21	0.478000	0.458400	0.968700
H221	H22	0.404000	0.369300	0.952800
H231	H23	0.435800	0.461100	0.923400
C261	C26	0.641300	0.412600	0.946400
H241	H24	0.705900	0.382200	0.937300
H251	H25	0.639000	0.412700	0.975900
H261	H26	0.636300	0.483200	0.936500
C271	C27	0.016500	0.850100	0.820620
C281	C28	0.098600	0.915500	0.809890
H271	H27	0.101700	0.944400	0.783700
C291	C29	0.175900	0.937400	0.838540
H281	H28	0.230400	0.982000	0.831400
C301	C30	0.173800	0.895600	0.876450
C311	C31	0.091000	0.832200	0.887590
H291	H29	0.087200	0.804200	0.913900
C321	C32	0.014000	0.811200	0.859010
H301	H30	0.958300	0.768600	0.866600
C331	C33	0.255800	0.921100	0.906720
C341	C34	0.359200	0.911000	0.959850
C351	C35	0.376900	0.003900	0.939720
C361	C36	0.452300	0.077700	0.954300
C371	C37	0.469400	0.173900	0.935380
H311	H31	0.432000	0.190800	0.911800
C381	C38	0.599600	0.216000	0.985320
H321	H32	0.650500	0.261200	0.995400
C391	C39	0.584100	0.121100	0.004870
C401	C40	0.508700	0.049500	0.989810
N31	N3	0.279800	0.859300	0.938740
H331	H33	0.251900	0.800200	0.944900
N41	N4	0.311100	0.009600	0.906420
O31	O3	0.861800	0.768700	0.801160
O41	O4	0.932100	0.862400	0.756440
H341	H34	0.306500	0.059900	0.889000
C411	C41	0.325000	0.069700	0.291000
C421	C42	0.746100	0.458100	0.451210
C431	C43	0.852800	0.444200	0.430800
C441	C44	0.852000	0.460500	0.386900
H351	H35	0.922000	0.473100	0.377500
H361	H36	0.808900	0.519800	0.380500
H371	H37	0.824400	0.399500	0.373500
C451	C45	0.916500	0.540800	0.445300
H381	H38	0.958400	0.522000	0.468700
H391	H39	0.869300	0.596000	0.452800
H401	H40	0.961100	0.564200	0.423400
C461	C46	0.912600	0.358700	0.446400
H411	H41	0.882200	0.294100	0.437300
H421	H42	0.912700	0.361000	0.475900
H431	H43	0.983200	0.363700	0.436500
C471	C47	0.350100	0.983500	0.320620
C481	C48	0.415500	0.901400	0.309890
H441	H44	0.444400	0.898300	0.283700
C491	C49	0.437400	0.824100	0.338540
H451	H45	0.482000	0.769600	0.331400
C501	C50	0.395600	0.826200	0.376450
C511	C51	0.332200	0.909000	0.387590
H461	H46	0.304200	0.912800	0.413900
C521	C52	0.311200	0.986000	0.359010
H471	H47	0.268600	0.041700	0.366600
C531	C53	0.421100	0.744200	0.406720
C541	C54	0.411000	0.640800	0.459850
C551	C55	0.503900	0.623100	0.439720
C561	C56	0.577700	0.547700	0.454300
C571	C57	0.673900	0.530600	0.435380
H481	H48	0.690800	0.568000	0.411800
C581	C58	0.716000	0.400400	0.485320
H491	H49	0.761200	0.349500	0.495400
C591	C59	0.621100	0.415900	0.504870
C601	C60	0.549500	0.491300	0.489810
N51	N5	0.359300	0.720200	0.438740
H501	H50	0.300200	0.748100	0.444900
N61	N6	0.509600	0.688900	0.406420
O51	O5	0.268700	0.138200	0.301160
O61	O6	0.362400	0.067900	0.256440
H511	H51	0.559900	0.693500	0.389000
C611	C61	0.175000	0.430300	0.291000
C621	C62	0.753900	0.041900	0.451210
C631	C63	0.647200	0.055800	0.430800
C641	C64	0.648000	0.039500	0.386900
H521	H52	0.578000	0.026900	0.377500
H531	H53	0.691100	0.980200	0.380500
H541	H54	0.675600	0.100500	0.373500
C651	C65	0.583500	0.959200	0.445300
H551	H55	0.541600	0.978000	0.468700
H561	H56	0.630700	0.904000	0.452800
H571	H57	0.538900	0.935800	0.423400
C661	C66	0.587400	0.141300	0.446400
H581	H58	0.617800	0.205900	0.437300
H591	H59	0.587300	0.139000	0.475900
H601	H60	0.516800	0.136300	0.436500
C671	C67	0.149900	0.516500	0.320620
C681	C68	0.084500	0.598600	0.309890
H611	H61	0.055600	0.601700	0.283700
C691	C69	0.062600	0.675900	0.338540
H621	H62	0.018000	0.730400	0.331400
C701	C70	0.104400	0.673800	0.376450
C711	C71	0.167800	0.591000	0.387590
H631	H63	0.195800	0.587200	0.413900
C721	C72	0.188800	0.514000	0.359010
H641	H64	0.231400	0.458300	0.366600
C731	C73	0.078900	0.755800	0.406720
C741	C74	0.089000	0.859200	0.459850
C751	C75	0.996100	0.876900	0.439720
C761	C76	0.922300	0.952300	0.454300
C771	C77	0.826100	0.969400	0.435380
H651	H65	0.809200	0.932000	0.411800
C781	C78	0.784000	0.099600	0.485320
H661	H66	0.738800	0.150500	0.495400
C791	C79	0.878900	0.084100	0.504870
C801	C80	0.950500	0.008700	0.489810
N71	N7	0.140700	0.779800	0.438740
H671	H67	0.199800	0.751900	0.444900
N81	N8	0.990400	0.811100	0.406420
O71	O7	0.231300	0.361800	0.301160
O81	O8	0.137600	0.432100	0.256440
H681	H68	0.940100	0.806500	0.389000
C811	C81	0.430300	0.325000	0.209000
C821	C82	0.041900	0.746100	0.048790
C831	C83	0.055800	0.852800	0.069200
C841	C84	0.039500	0.852000	0.113100
H691	H69	0.026900	0.922000	0.122500
H701	H70	0.980200	0.808900	0.119500
H711	H71	0.100500	0.824400	0.126500
C851	C85	0.959200	0.916500	0.054700
H721	H72	0.978000	0.958400	0.031300
H731	H73	0.904000	0.869300	0.047200
H741	H74	0.935800	0.961100	0.076600
C861	C86	0.141300	0.912600	0.053600
H751	H75	0.205900	0.882200	0.062700
H761	H76	0.139000	0.912700	0.024100
H771	H77	0.136300	0.983200	0.063500
C871	C87	0.516500	0.350100	0.179380
C881	C88	0.598600	0.415500	0.190110
H781	H78	0.601700	0.444400	0.216300
C891	C89	0.675900	0.437400	0.161460
H791	H79	0.730400	0.482000	0.168600
C901	C90	0.673800	0.395600	0.123550
C911	C91	0.591000	0.332200	0.112410
H801	H80	0.587200	0.304200	0.086100
C921	C92	0.514000	0.311200	0.140990
H811	H81	0.458300	0.268600	0.133400
C931	C93	0.755800	0.421100	0.093280
C941	C94	0.859200	0.411000	0.040150
C951	C95	0.876900	0.503900	0.060280
C961	C96	0.952300	0.577700	0.045700
C971	C97	0.969400	0.673900	0.064620
H821	H82	0.932000	0.690800	0.088200
C981	C98	0.099600	0.716000	0.014680
H831	H83	0.150500	0.761200	0.004600
C991	C99	0.084100	0.621100	0.995130
C1001	C100	0.008700	0.549500	0.010190
N91	N9	0.779800	0.359300	0.061260
H841	H84	0.751900	0.300200	0.055100
N101	N10	0.811100	0.509600	0.093580
O91	O9	0.361800	0.268700	0.198840
O101	O10	0.432100	0.362400	0.243560
H851	H85	0.806500	0.559900	0.111000
C1011	C101	0.069700	0.175000	0.209000
C1021	C102	0.458100	0.753900	0.048790
C1031	C103	0.444200	0.647200	0.069200
C1041	C104	0.460500	0.648000	0.113100
H861	H86	0.473100	0.578000	0.122500
H871	H87	0.519800	0.691100	0.119500
H881	H88	0.399500	0.675600	0.126500
C1051	C105	0.540800	0.583500	0.054700
H891	H89	0.522000	0.541600	0.031300
H901	H90	0.596000	0.630700	0.047200
H911	H91	0.564200	0.538900	0.076600
C1061	C106	0.358700	0.587400	0.053600
H921	H92	0.294100	0.617800	0.062700
H931	H93	0.361000	0.587300	0.024100
H941	H94	0.363700	0.516800	0.063500
C1071	C107	0.983500	0.149900	0.179380
C1081	C108	0.901400	0.084500	0.190110
H951	H95	0.898300	0.055600	0.216300
C1091	C109	0.824100	0.062600	0.161460
H961	H96	0.769600	0.018000	0.168600
C1101	C110	0.826200	0.104400	0.123550
C1111	C111	0.909000	0.167800	0.112410
H971	H97	0.912800	0.195800	0.086100
C1121	C112	0.986000	0.188800	0.140990
H981	H98	0.041700	0.231400	0.133400
C1131	C113	0.744200	0.078900	0.093280
C1141	C114	0.640800	0.089000	0.040150
C1151	C115	0.623100	0.996100	0.060280
C1161	C116	0.547700	0.922300	0.045700
C1171	C117	0.530600	0.826100	0.064620
H991	H99	0.568000	0.809200	0.088200
C1181	C118	0.400400	0.784000	0.014680
H1001	H100	0.349500	0.738800	0.004600
C1191	C119	0.415900	0.878900	0.995130
C1201	C120	0.491300	0.950500	0.010190
N111	N11	0.720200	0.140700	0.061260
H1011	H101	0.748100	0.199800	0.055100
N121	N12	0.688900	0.990400	0.093580
O111	O11	0.138200	0.231300	0.198840
O121	O12	0.067900	0.137600	0.243560
H1021	H102	0.693500	0.940100	0.111000
C1211	C121	0.675000	0.930300	0.709000
C1221	C122	0.253900	0.541900	0.548790
C1231	C123	0.147200	0.555800	0.569200
C1241	C124	0.148000	0.539500	0.613100
H1031	H103	0.078000	0.526900	0.622500
H1041	H104	0.191100	0.480200	0.619500
H1051	H105	0.175600	0.600500	0.626500
C1251	C125	0.083500	0.459200	0.554700
H1061	H106	0.041600	0.478000	0.531300
H1071	H107	0.130700	0.404000	0.547200
H1081	H108	0.038900	0.435800	0.576600
C1261	C126	0.087400	0.641300	0.553600
H1091	H109	0.117800	0.705900	0.562700
H1101	H110	0.087300	0.639000	0.524100
H1111	H111	0.016800	0.636300	0.563500
C1271	C127	0.649900	0.016500	0.679380
C1281	C128	0.584500	0.098600	0.690110
H1121	H112	0.555600	0.101700	0.716300
C1291	C129	0.562600	0.175900	0.661460
H1131	H113	0.518000	0.230400	0.668600
C1301	C130	0.604400	0.173800	0.623550
C1311	C131	0.667800	0.091000	0.612410
H1141	H114	0.695800	0.087200	0.586100
C1321	C132	0.688800	0.014000	0.640990
H1151	H115	0.731400	0.958300	0.633400
C1331	C133	0.578900	0.255800	0.593280
C1341	C134	0.589000	0.359200	0.540150
C1351	C135	0.496100	0.376900	0.560280
C1361	C136	0.422300	0.452300	0.545700
C1371	C137	0.326100	0.469400	0.564620
H1161	H116	0.309200	0.432000	0.588200
C1381	C138	0.284000	0.599600	0.514680
H1171	H117	0.238800	0.650500	0.504600
C1391	C139	0.378900	0.584100	0.495130
C1401	C140	0.450500	0.508700	0.510190
N131	N13	0.640700	0.279800	0.561260
H1181	H118	0.699800	0.251900	0.555100
N141	N14	0.490400	0.311100	0.593580
O131	O13	0.731300	0.861800	0.698840
O141	O14	0.637600	0.932100	0.743560
H1191	H119	0.440100	0.306500	0.611000
C1411	C141	0.825000	0.569700	0.709000
C1421	C142	0.246100	0.958100	0.548790
C1431	C143	0.352800	0.944200	0.569200
C1441	C144	0.352000	0.960500	0.613100
H1201	H120	0.422000	0.973100	0.622500
H1211	H121	0.308900	0.019800	0.619500
H1221	H122	0.324400	0.899500	0.626500
C1451	C145	0.416500	0.040800	0.554700
H1231	H123	0.458400	0.022000	0.531300
H1241	H124	0.369300	0.096000	0.547200
H1251	H125	0.461100	0.064200	0.576600
C1461	C146	0.412600	0.858700	0.553600
H1261	H126	0.382200	0.794100	0.562700
H1271	H127	0.412700	0.861000	0.524100
H1281	H128	0.483200	0.863700	0.563500
C1471	C147	0.850100	0.483500	0.679380
C1481	C148	0.915500	0.401400	0.690110
H1291	H129	0.944400	0.398300	0.716300
C1491	C149	0.937400	0.324100	0.661460
H1301	H130	0.982000	0.269600	0.668600
C1501	C150	0.895600	0.326200	0.623550
C1511	C151	0.832200	0.409000	0.612410
H1311	H131	0.804200	0.412800	0.586100
C1521	C152	0.811200	0.486000	0.640990
H1321	H132	0.768600	0.541700	0.633400
C1531	C153	0.921100	0.244200	0.593280
C1541	C154	0.911000	0.140800	0.540150
C1551	C155	0.003900	0.123100	0.560280
C1561	C156	0.077700	0.047700	0.545700
C1571	C157	0.173900	0.030600	0.564620
H1331	H133	0.190800	0.068000	0.588200
C1581	C158	0.216000	0.900400	0.514680
H1341	H134	0.261200	0.849500	0.504600
C1591	C159	0.121100	0.915900	0.495130
C1601	C160	0.049500	0.991300	0.510190
N151	N15	0.859300	0.220200	0.561260
H1351	H135	0.800200	0.248100	0.555100
N161	N16	0.009600	0.188900	0.593580
O151	O15	0.768700	0.638200	0.698840
O161	O16	0.862400	0.567900	0.743560
H1361	H136	0.059900	0.193500	0.611000
Cd11	Cd1	0.750000	0.750000	0.750000
Cd21	Cd2	0.250000	0.250000	0.250000
