data_SUFJOU_clean_PM
_symmetry_space_group_name_H-M	'P1'
_cell_length_a	13.393000
_cell_length_b	13.393000
_cell_length_c	27.338000
_cell_angle_alpha	90.000000
_cell_angle_beta	90.000000
_cell_angle_gamma	90.000000
_symmetry_Int_Tables_number 1

loop_
_symmetry_equiv_pos_as_xyz
'x,y,z'

loop_
_atom_site_label
_atom_site_type_symbol
_atom_site_fract_x
_atom_site_fract_y
_atom_site_fract_z
Zn11	Zn1	0.911170	0.022890	0.446640
O11	O1	0.860600	0.945600	0.367190
O21	O2	0.953300	0.076700	0.383320
N11	N1	0.767200	0.016100	0.464690
N21	N2	0.624000	0.038300	0.504050
N31	N3	0.607300	0.975300	0.465080
N41	N4	0.089900	0.190700	0.223600
H11	H1	0.103500	0.202400	0.193400
H21	H2	0.121600	0.221800	0.246300
C11	C1	0.720000	0.060700	0.502490
H31	H3	0.751600	0.102500	0.524900
C21	C2	0.693600	0.964200	0.442680
H41	H4	0.702800	0.925100	0.414900
C31	C3	0.912500	0.016600	0.352880
C41	C4	0.929700	0.035300	0.299940
C51	C5	0.999600	0.105600	0.285000
H51	H5	0.034500	0.141700	0.308500
C61	C6	0.018800	0.123400	0.235330
Zn21	Zn2	0.588830	0.477110	0.446640
O31	O3	0.639400	0.554400	0.367190
O41	O4	0.546700	0.423300	0.383320
N51	N5	0.732800	0.483900	0.464690
N61	N6	0.876000	0.461700	0.504050
N71	N7	0.892700	0.524700	0.465080
N81	N8	0.410100	0.309300	0.223600
H61	H6	0.396500	0.297600	0.193400
H71	H7	0.378400	0.278200	0.246300
C71	C7	0.780000	0.439300	0.502490
H81	H8	0.748400	0.397500	0.524900
C81	C8	0.806400	0.535800	0.442680
H91	H9	0.797200	0.574900	0.414900
C91	C9	0.587500	0.483400	0.352880
C101	C10	0.570300	0.464700	0.299940
C111	C11	0.500400	0.394400	0.285000
H101	H10	0.465500	0.358300	0.308500
C121	C12	0.481200	0.376600	0.235330
Zn31	Zn3	0.477110	0.911170	0.446640
O51	O5	0.554400	0.860600	0.367190
O61	O6	0.423300	0.953300	0.383320
N91	N9	0.483900	0.767200	0.464690
N101	N10	0.461700	0.624000	0.504050
N111	N11	0.524700	0.607300	0.465080
N121	N12	0.309300	0.089900	0.223600
H111	H11	0.297600	0.103500	0.193400
H121	H12	0.278200	0.121600	0.246300
C131	C13	0.439300	0.720000	0.502490
H131	H13	0.397500	0.751600	0.524900
C141	C14	0.535800	0.693600	0.442680
H141	H14	0.574900	0.702800	0.414900
C151	C15	0.483400	0.912500	0.352880
C161	C16	0.464700	0.929700	0.299940
C171	C17	0.394400	0.999600	0.285000
H151	H15	0.358300	0.034500	0.308500
C181	C18	0.376600	0.018800	0.235330
Zn41	Zn4	0.022890	0.588830	0.446640
O71	O7	0.945600	0.639400	0.367190
O81	O8	0.076700	0.546700	0.383320
N131	N13	0.016100	0.732800	0.464690
N141	N14	0.038300	0.876000	0.504050
N151	N15	0.975300	0.892700	0.465080
N161	N16	0.190700	0.410100	0.223600
H161	H16	0.202400	0.396500	0.193400
H171	H17	0.221800	0.378400	0.246300
C191	C19	0.060700	0.780000	0.502490
H181	H18	0.102500	0.748400	0.524900
C201	C20	0.964200	0.806400	0.442680
H191	H19	0.925100	0.797200	0.414900
C211	C21	0.016600	0.587500	0.352880
C221	C22	0.035300	0.570300	0.299940
C231	C23	0.105600	0.500400	0.285000
H201	H20	0.141700	0.465500	0.308500
C241	C24	0.123400	0.481200	0.235330
Zn51	Zn5	0.088830	0.522890	0.053360
O91	O9	0.139400	0.445600	0.132810
O101	O10	0.046700	0.576700	0.116680
N171	N17	0.232800	0.516100	0.035310
N181	N18	0.376000	0.538300	0.995950
N191	N19	0.392700	0.475300	0.034920
N201	N20	0.910100	0.690700	0.276400
H211	H21	0.896500	0.702400	0.306600
H221	H22	0.878400	0.721800	0.253700
C251	C25	0.280000	0.560700	0.997510
H231	H23	0.248400	0.602500	0.975100
C261	C26	0.306400	0.464200	0.057320
H241	H24	0.297200	0.425100	0.085100
C271	C27	0.087500	0.516600	0.147120
C281	C28	0.070300	0.535300	0.200060
C291	C29	0.000400	0.605600	0.215000
H251	H25	0.965500	0.641700	0.191500
C301	C30	0.981200	0.623400	0.264670
Zn61	Zn6	0.411170	0.977110	0.053360
O111	O11	0.360600	0.054400	0.132810
O121	O12	0.453300	0.923300	0.116680
N211	N21	0.267200	0.983900	0.035310
N221	N22	0.124000	0.961700	0.995950
N231	N23	0.107300	0.024700	0.034920
N241	N24	0.589900	0.809300	0.276400
H261	H26	0.603500	0.797600	0.306600
H271	H27	0.621600	0.778200	0.253700
C311	C31	0.220000	0.939300	0.997510
H281	H28	0.251600	0.897500	0.975100
C321	C32	0.193600	0.035800	0.057320
H291	H29	0.202800	0.074900	0.085100
C331	C33	0.412500	0.983400	0.147120
C341	C34	0.429700	0.964700	0.200060
C351	C35	0.499600	0.894400	0.215000
H301	H30	0.534500	0.858300	0.191500
C361	C36	0.518800	0.876600	0.264670
Zn71	Zn7	0.522890	0.411170	0.053360
O131	O13	0.445600	0.360600	0.132810
O141	O14	0.576700	0.453300	0.116680
N251	N25	0.516100	0.267200	0.035310
N261	N26	0.538300	0.124000	0.995950
N271	N27	0.475300	0.107300	0.034920
N281	N28	0.690700	0.589900	0.276400
H311	H31	0.702400	0.603500	0.306600
H321	H32	0.721800	0.621600	0.253700
C371	C37	0.560700	0.220000	0.997510
H331	H33	0.602500	0.251600	0.975100
C381	C38	0.464200	0.193600	0.057320
H341	H34	0.425100	0.202800	0.085100
C391	C39	0.516600	0.412500	0.147120
C401	C40	0.535300	0.429700	0.200060
C411	C41	0.605600	0.499600	0.215000
H351	H35	0.641700	0.534500	0.191500
C421	C42	0.623400	0.518800	0.264670
Zn81	Zn8	0.977110	0.088830	0.053360
O151	O15	0.054400	0.139400	0.132810
O161	O16	0.923300	0.046700	0.116680
N291	N29	0.983900	0.232800	0.035310
N301	N30	0.961700	0.376000	0.995950
N311	N31	0.024700	0.392700	0.034920
N321	N32	0.809300	0.910100	0.276400
H361	H36	0.797600	0.896500	0.306600
H371	H37	0.778200	0.878400	0.253700
C431	C43	0.939300	0.280000	0.997510
H381	H38	0.897500	0.248400	0.975100
C441	C44	0.035800	0.306400	0.057320
H391	H39	0.074900	0.297200	0.085100
C451	C45	0.983400	0.087500	0.147120
C461	C46	0.964700	0.070300	0.200060
C471	C47	0.894400	0.000400	0.215000
H401	H40	0.858300	0.965500	0.191500
C481	C48	0.876600	0.981200	0.264670
Zn91	Zn9	0.088830	0.977110	0.553360
O171	O17	0.139400	0.054400	0.632810
O181	O18	0.046700	0.923300	0.616680
N331	N33	0.232800	0.983900	0.535310
N341	N34	0.376000	0.961700	0.495950
N351	N35	0.392700	0.024700	0.534920
N361	N36	0.910100	0.809300	0.776400
H411	H41	0.896500	0.797600	0.806600
H421	H42	0.878400	0.778200	0.753700
C491	C49	0.280000	0.939300	0.497510
H431	H43	0.248400	0.897500	0.475100
C501	C50	0.306400	0.035800	0.557320
H441	H44	0.297200	0.074900	0.585100
C511	C51	0.087500	0.983400	0.647120
C521	C52	0.070300	0.964700	0.700060
C531	C53	0.000400	0.894400	0.715000
H451	H45	0.965500	0.858300	0.691500
C541	C54	0.981200	0.876600	0.764670
Zn101	Zn10	0.411170	0.522890	0.553360
O191	O19	0.360600	0.445600	0.632810
O201	O20	0.453300	0.576700	0.616680
N371	N37	0.267200	0.516100	0.535310
N381	N38	0.124000	0.538300	0.495950
N391	N39	0.107300	0.475300	0.534920
N401	N40	0.589900	0.690700	0.776400
H461	H46	0.603500	0.702400	0.806600
H471	H47	0.621600	0.721800	0.753700
C551	C55	0.220000	0.560700	0.497510
H481	H48	0.251600	0.602500	0.475100
C561	C56	0.193600	0.464200	0.557320
H491	H49	0.202800	0.425100	0.585100
C571	C57	0.412500	0.516600	0.647120
C581	C58	0.429700	0.535300	0.700060
C591	C59	0.499600	0.605600	0.715000
H501	H50	0.534500	0.641700	0.691500
C601	C60	0.518800	0.623400	0.764670
Zn111	Zn11	0.522890	0.088830	0.553360
O211	O21	0.445600	0.139400	0.632810
O221	O22	0.576700	0.046700	0.616680
N411	N41	0.516100	0.232800	0.535310
N421	N42	0.538300	0.376000	0.495950
N431	N43	0.475300	0.392700	0.534920
N441	N44	0.690700	0.910100	0.776400
H511	H51	0.702400	0.896500	0.806600
H521	H52	0.721800	0.878400	0.753700
C611	C61	0.560700	0.280000	0.497510
H531	H53	0.602500	0.248400	0.475100
C621	C62	0.464200	0.306400	0.557320
H541	H54	0.425100	0.297200	0.585100
C631	C63	0.516600	0.087500	0.647120
C641	C64	0.535300	0.070300	0.700060
C651	C65	0.605600	0.000400	0.715000
H551	H55	0.641700	0.965500	0.691500
C661	C66	0.623400	0.981200	0.764670
Zn121	Zn12	0.977110	0.411170	0.553360
O231	O23	0.054400	0.360600	0.632810
O241	O24	0.923300	0.453300	0.616680
N451	N45	0.983900	0.267200	0.535310
N461	N46	0.961700	0.124000	0.495950
N471	N47	0.024700	0.107300	0.534920
N481	N48	0.809300	0.589900	0.776400
H561	H56	0.797600	0.603500	0.806600
H571	H57	0.778200	0.621600	0.753700
C671	C67	0.939300	0.220000	0.497510
H581	H58	0.897500	0.251600	0.475100
C681	C68	0.035800	0.193600	0.557320
H591	H59	0.074900	0.202800	0.585100
C691	C69	0.983400	0.412500	0.647120
C701	C70	0.964700	0.429700	0.700060
C711	C71	0.894400	0.499600	0.715000
H601	H60	0.858300	0.534500	0.691500
C721	C72	0.876600	0.518800	0.764670
Zn131	Zn13	0.911170	0.477110	0.946640
O251	O25	0.860600	0.554400	0.867190
O261	O26	0.953300	0.423300	0.883320
N491	N49	0.767200	0.483900	0.964690
N501	N50	0.624000	0.461700	0.004050
N511	N51	0.607300	0.524700	0.965080
N521	N52	0.089900	0.309300	0.723600
H611	H61	0.103500	0.297600	0.693400
H621	H62	0.121600	0.278200	0.746300
C731	C73	0.720000	0.439300	0.002490
H631	H63	0.751600	0.397500	0.024900
C741	C74	0.693600	0.535800	0.942680
H641	H64	0.702800	0.574900	0.914900
C751	C75	0.912500	0.483400	0.852880
C761	C76	0.929700	0.464700	0.799940
C771	C77	0.999600	0.394400	0.785000
H651	H65	0.034500	0.358300	0.808500
C781	C78	0.018800	0.376600	0.735330
Zn141	Zn14	0.588830	0.022890	0.946640
O271	O27	0.639400	0.945600	0.867190
O281	O28	0.546700	0.076700	0.883320
N531	N53	0.732800	0.016100	0.964690
N541	N54	0.876000	0.038300	0.004050
N551	N55	0.892700	0.975300	0.965080
N561	N56	0.410100	0.190700	0.723600
H661	H66	0.396500	0.202400	0.693400
H671	H67	0.378400	0.221800	0.746300
C791	C79	0.780000	0.060700	0.002490
H681	H68	0.748400	0.102500	0.024900
C801	C80	0.806400	0.964200	0.942680
H691	H69	0.797200	0.925100	0.914900
C811	C81	0.587500	0.016600	0.852880
C821	C82	0.570300	0.035300	0.799940
C831	C83	0.500400	0.105600	0.785000
H701	H70	0.465500	0.141700	0.808500
C841	C84	0.481200	0.123400	0.735330
Zn151	Zn15	0.477110	0.588830	0.946640
O291	O29	0.554400	0.639400	0.867190
O301	O30	0.423300	0.546700	0.883320
N571	N57	0.483900	0.732800	0.964690
N581	N58	0.461700	0.876000	0.004050
N591	N59	0.524700	0.892700	0.965080
N601	N60	0.309300	0.410100	0.723600
H711	H71	0.297600	0.396500	0.693400
H721	H72	0.278200	0.378400	0.746300
C851	C85	0.439300	0.780000	0.002490
H731	H73	0.397500	0.748400	0.024900
C861	C86	0.535800	0.806400	0.942680
H741	H74	0.574900	0.797200	0.914900
C871	C87	0.483400	0.587500	0.852880
C881	C88	0.464700	0.570300	0.799940
C891	C89	0.394400	0.500400	0.785000
H751	H75	0.358300	0.465500	0.808500
C901	C90	0.376600	0.481200	0.735330
Zn161	Zn16	0.022890	0.911170	0.946640
O311	O31	0.945600	0.860600	0.867190
O321	O32	0.076700	0.953300	0.883320
N611	N61	0.016100	0.767200	0.964690
N621	N62	0.038300	0.624000	0.004050
N631	N63	0.975300	0.607300	0.965080
N641	N64	0.190700	0.089900	0.723600
H761	H76	0.202400	0.103500	0.693400
H771	H77	0.221800	0.121600	0.746300
C911	C91	0.060700	0.720000	0.002490
H781	H78	0.102500	0.751600	0.024900
C921	C92	0.964200	0.693600	0.942680
H791	H79	0.925100	0.702800	0.914900
C931	C93	0.016600	0.912500	0.852880
C941	C94	0.035300	0.929700	0.799940
C951	C95	0.105600	0.999600	0.785000
H801	H80	0.141700	0.034500	0.808500
C961	C96	0.123400	0.018800	0.735330
