data_SUFJIO_clean_PM
_symmetry_space_group_name_H-M	'P1'
_cell_length_a	13.365000
_cell_length_b	13.365000
_cell_length_c	27.429000
_cell_angle_alpha	90.000000
_cell_angle_beta	90.000000
_cell_angle_gamma	90.000000
_symmetry_Int_Tables_number 1

loop_
_symmetry_equiv_pos_as_xyz
'x,y,z'

loop_
_atom_site_label
_atom_site_type_symbol
_atom_site_fract_x
_atom_site_fract_y
_atom_site_fract_z
Zn11	Zn1	0.587750	0.023480	0.053320
C11	C1	0.481700	0.122100	0.264460
H11	H1	0.433300	0.168100	0.274100
C21	C2	0.499800	0.106300	0.215050
H21	H2	0.465300	0.143200	0.191700
C31	C3	0.570000	0.035100	0.200790
C41	C4	0.588500	0.015300	0.147540
C51	C5	0.559500	0.221000	0.002600
H31	H3	0.600200	0.252900	0.025300
C61	C6	0.466900	0.193700	0.941810
H41	H4	0.429700	0.202500	0.913400
N11	N1	0.516100	0.267600	0.964540
N21	N2	0.477200	0.106800	0.964440
N31	N3	0.537400	0.124500	0.004040
O11	O1	0.549300	0.076070	0.116780
O21	O2	0.640220	0.942400	0.134670
Zn21	Zn2	0.912250	0.476520	0.053320
C71	C7	0.018300	0.377900	0.264460
H51	H5	0.066700	0.331900	0.274100
C81	C8	0.000200	0.393700	0.215050
H61	H6	0.034700	0.356800	0.191700
C91	C9	0.930000	0.464900	0.200790
C101	C10	0.911500	0.484700	0.147540
C111	C11	0.940500	0.279000	0.002600
H71	H7	0.899800	0.247100	0.025300
C121	C12	0.033100	0.306300	0.941810
H81	H8	0.070300	0.297500	0.913400
N41	N4	0.983900	0.232400	0.964540
N51	N5	0.022800	0.393200	0.964440
N61	N6	0.962600	0.375500	0.004040
O31	O3	0.950700	0.423930	0.116780
O41	O4	0.859780	0.557600	0.134670
Zn31	Zn3	0.476520	0.587750	0.053320
C131	C13	0.377900	0.481700	0.264460
H91	H9	0.331900	0.433300	0.274100
C141	C14	0.393700	0.499800	0.215050
H101	H10	0.356800	0.465300	0.191700
C151	C15	0.464900	0.570000	0.200790
C161	C16	0.484700	0.588500	0.147540
C171	C17	0.279000	0.559500	0.002600
H111	H11	0.247100	0.600200	0.025300
C181	C18	0.306300	0.466900	0.941810
H121	H12	0.297500	0.429700	0.913400
N71	N7	0.232400	0.516100	0.964540
N81	N8	0.393200	0.477200	0.964440
N91	N9	0.375500	0.537400	0.004040
O51	O5	0.423930	0.549300	0.116780
O61	O6	0.557600	0.640220	0.134670
Zn41	Zn4	0.023480	0.912250	0.053320
C191	C19	0.122100	0.018300	0.264460
H131	H13	0.168100	0.066700	0.274100
C201	C20	0.106300	0.000200	0.215050
H141	H14	0.143200	0.034700	0.191700
C211	C21	0.035100	0.930000	0.200790
C221	C22	0.015300	0.911500	0.147540
C231	C23	0.221000	0.940500	0.002600
H151	H15	0.252900	0.899800	0.025300
C241	C24	0.193700	0.033100	0.941810
H161	H16	0.202500	0.070300	0.913400
N101	N10	0.267600	0.983900	0.964540
N111	N11	0.106800	0.022800	0.964440
N121	N12	0.124500	0.962600	0.004040
O71	O7	0.076070	0.950700	0.116780
O81	O8	0.942400	0.859780	0.134670
Zn51	Zn5	0.412250	0.523480	0.446680
C251	C25	0.518300	0.622100	0.235540
H171	H17	0.566700	0.668100	0.225900
C261	C26	0.500200	0.606300	0.284950
H181	H18	0.534700	0.643200	0.308300
C271	C27	0.430000	0.535100	0.299210
C281	C28	0.411500	0.515300	0.352460
C291	C29	0.440500	0.721000	0.497400
H191	H19	0.399800	0.752900	0.474700
C301	C30	0.533100	0.693700	0.558190
H201	H20	0.570300	0.702500	0.586600
N131	N13	0.483900	0.767600	0.535460
N141	N14	0.522800	0.606800	0.535560
N151	N15	0.462600	0.624500	0.495960
O91	O9	0.450700	0.576070	0.383220
O101	O10	0.359780	0.442400	0.365330
Zn61	Zn6	0.087750	0.976520	0.446680
C311	C31	0.981700	0.877900	0.235540
H211	H21	0.933300	0.831900	0.225900
C321	C32	0.999800	0.893700	0.284950
H221	H22	0.965300	0.856800	0.308300
C331	C33	0.070000	0.964900	0.299210
C341	C34	0.088500	0.984700	0.352460
C351	C35	0.059500	0.779000	0.497400
H231	H23	0.100200	0.747100	0.474700
C361	C36	0.966900	0.806300	0.558190
H241	H24	0.929700	0.797500	0.586600
N161	N16	0.016100	0.732400	0.535460
N171	N17	0.977200	0.893200	0.535560
N181	N18	0.037400	0.875500	0.495960
O111	O11	0.049300	0.923930	0.383220
O121	O12	0.140220	0.057600	0.365330
Zn71	Zn7	0.523480	0.087750	0.446680
C371	C37	0.622100	0.981700	0.235540
H251	H25	0.668100	0.933300	0.225900
C381	C38	0.606300	0.999800	0.284950
H261	H26	0.643200	0.965300	0.308300
C391	C39	0.535100	0.070000	0.299210
C401	C40	0.515300	0.088500	0.352460
C411	C41	0.721000	0.059500	0.497400
H271	H27	0.752900	0.100200	0.474700
C421	C42	0.693700	0.966900	0.558190
H281	H28	0.702500	0.929700	0.586600
N191	N19	0.767600	0.016100	0.535460
N201	N20	0.606800	0.977200	0.535560
N211	N21	0.624500	0.037400	0.495960
O131	O13	0.576070	0.049300	0.383220
O141	O14	0.442400	0.140220	0.365330
Zn81	Zn8	0.976520	0.412250	0.446680
C431	C43	0.877900	0.518300	0.235540
H291	H29	0.831900	0.566700	0.225900
C441	C44	0.893700	0.500200	0.284950
H301	H30	0.856800	0.534700	0.308300
C451	C45	0.964900	0.430000	0.299210
C461	C46	0.984700	0.411500	0.352460
C471	C47	0.779000	0.440500	0.497400
H311	H31	0.747100	0.399800	0.474700
C481	C48	0.806300	0.533100	0.558190
H321	H32	0.797500	0.570300	0.586600
N221	N22	0.732400	0.483900	0.535460
N231	N23	0.893200	0.522800	0.535560
N241	N24	0.875500	0.462600	0.495960
O151	O15	0.923930	0.450700	0.383220
O161	O16	0.057600	0.359780	0.365330
Zn91	Zn9	0.412250	0.976520	0.946680
C491	C49	0.518300	0.877900	0.735540
H331	H33	0.566700	0.831900	0.725900
C501	C50	0.500200	0.893700	0.784950
H341	H34	0.534700	0.856800	0.808300
C511	C51	0.430000	0.964900	0.799210
C521	C52	0.411500	0.984700	0.852460
C531	C53	0.440500	0.779000	0.997400
H351	H35	0.399800	0.747100	0.974700
C541	C54	0.533100	0.806300	0.058190
H361	H36	0.570300	0.797500	0.086600
N251	N25	0.483900	0.732400	0.035460
N261	N26	0.522800	0.893200	0.035560
N271	N27	0.462600	0.875500	0.995960
O171	O17	0.450700	0.923930	0.883220
O181	O18	0.359780	0.057600	0.865330
Zn101	Zn10	0.087750	0.523480	0.946680
C551	C55	0.981700	0.622100	0.735540
H371	H37	0.933300	0.668100	0.725900
C561	C56	0.999800	0.606300	0.784950
H381	H38	0.965300	0.643200	0.808300
C571	C57	0.070000	0.535100	0.799210
C581	C58	0.088500	0.515300	0.852460
C591	C59	0.059500	0.721000	0.997400
H391	H39	0.100200	0.752900	0.974700
C601	C60	0.966900	0.693700	0.058190
H401	H40	0.929700	0.702500	0.086600
N281	N28	0.016100	0.767600	0.035460
N291	N29	0.977200	0.606800	0.035560
N301	N30	0.037400	0.624500	0.995960
O191	O19	0.049300	0.576070	0.883220
O201	O20	0.140220	0.442400	0.865330
Zn111	Zn11	0.523480	0.412250	0.946680
C611	C61	0.622100	0.518300	0.735540
H411	H41	0.668100	0.566700	0.725900
C621	C62	0.606300	0.500200	0.784950
H421	H42	0.643200	0.534700	0.808300
C631	C63	0.535100	0.430000	0.799210
C641	C64	0.515300	0.411500	0.852460
C651	C65	0.721000	0.440500	0.997400
H431	H43	0.752900	0.399800	0.974700
C661	C66	0.693700	0.533100	0.058190
H441	H44	0.702500	0.570300	0.086600
N311	N31	0.767600	0.483900	0.035460
N321	N32	0.606800	0.522800	0.035560
N331	N33	0.624500	0.462600	0.995960
O211	O21	0.576070	0.450700	0.883220
O221	O22	0.442400	0.359780	0.865330
Zn121	Zn12	0.976520	0.087750	0.946680
C671	C67	0.877900	0.981700	0.735540
H451	H45	0.831900	0.933300	0.725900
C681	C68	0.893700	0.999800	0.784950
H461	H46	0.856800	0.965300	0.808300
C691	C69	0.964900	0.070000	0.799210
C701	C70	0.984700	0.088500	0.852460
C711	C71	0.779000	0.059500	0.997400
H471	H47	0.747100	0.100200	0.974700
C721	C72	0.806300	0.966900	0.058190
H481	H48	0.797500	0.929700	0.086600
N341	N34	0.732400	0.016100	0.035460
N351	N35	0.893200	0.977200	0.035560
N361	N36	0.875500	0.037400	0.995960
O231	O23	0.923930	0.049300	0.883220
O241	O24	0.057600	0.140220	0.865330
Zn131	Zn13	0.587750	0.476520	0.553320
C731	C73	0.481700	0.377900	0.764460
H491	H49	0.433300	0.331900	0.774100
C741	C74	0.499800	0.393700	0.715050
H501	H50	0.465300	0.356800	0.691700
C751	C75	0.570000	0.464900	0.700790
C761	C76	0.588500	0.484700	0.647540
C771	C77	0.559500	0.279000	0.502600
H511	H51	0.600200	0.247100	0.525300
C781	C78	0.466900	0.306300	0.441810
H521	H52	0.429700	0.297500	0.413400
N371	N37	0.516100	0.232400	0.464540
N381	N38	0.477200	0.393200	0.464440
N391	N39	0.537400	0.375500	0.504040
O251	O25	0.549300	0.423930	0.616780
O261	O26	0.640220	0.557600	0.634670
Zn141	Zn14	0.912250	0.023480	0.553320
C791	C79	0.018300	0.122100	0.764460
H531	H53	0.066700	0.168100	0.774100
C801	C80	0.000200	0.106300	0.715050
H541	H54	0.034700	0.143200	0.691700
C811	C81	0.930000	0.035100	0.700790
C821	C82	0.911500	0.015300	0.647540
C831	C83	0.940500	0.221000	0.502600
H551	H55	0.899800	0.252900	0.525300
C841	C84	0.033100	0.193700	0.441810
H561	H56	0.070300	0.202500	0.413400
N401	N40	0.983900	0.267600	0.464540
N411	N41	0.022800	0.106800	0.464440
N421	N42	0.962600	0.124500	0.504040
O271	O27	0.950700	0.076070	0.616780
O281	O28	0.859780	0.942400	0.634670
Zn151	Zn15	0.476520	0.912250	0.553320
C851	C85	0.377900	0.018300	0.764460
H571	H57	0.331900	0.066700	0.774100
C861	C86	0.393700	0.000200	0.715050
H581	H58	0.356800	0.034700	0.691700
C871	C87	0.464900	0.930000	0.700790
C881	C88	0.484700	0.911500	0.647540
C891	C89	0.279000	0.940500	0.502600
H591	H59	0.247100	0.899800	0.525300
C901	C90	0.306300	0.033100	0.441810
H601	H60	0.297500	0.070300	0.413400
N431	N43	0.232400	0.983900	0.464540
N441	N44	0.393200	0.022800	0.464440
N451	N45	0.375500	0.962600	0.504040
O291	O29	0.423930	0.950700	0.616780
O301	O30	0.557600	0.859780	0.634670
Zn161	Zn16	0.023480	0.587750	0.553320
C911	C91	0.122100	0.481700	0.764460
H611	H61	0.168100	0.433300	0.774100
C921	C92	0.106300	0.499800	0.715050
H621	H62	0.143200	0.465300	0.691700
C931	C93	0.035100	0.570000	0.700790
C941	C94	0.015300	0.588500	0.647540
C951	C95	0.221000	0.559500	0.502600
H631	H63	0.252900	0.600200	0.525300
C961	C96	0.193700	0.466900	0.441810
H641	H64	0.202500	0.429700	0.413400
N461	N46	0.267600	0.516100	0.464540
N471	N47	0.106800	0.477200	0.464440
N481	N48	0.124500	0.537400	0.504040
O311	O31	0.076070	0.549300	0.616780
O321	O32	0.942400	0.640220	0.634670
