data_SUFROA_clean_PM
_symmetry_space_group_name_H-M	'P1'
_cell_length_a	28.282000
_cell_length_b	10.337000
_cell_length_c	16.285000
_cell_angle_alpha	90.000000
_cell_angle_beta	90.000000
_cell_angle_gamma	90.000000
_symmetry_Int_Tables_number 1

loop_
_symmetry_equiv_pos_as_xyz
'x,y,z'

loop_
_atom_site_label
_atom_site_type_symbol
_atom_site_fract_x
_atom_site_fract_y
_atom_site_fract_z
N11	N1	0.356200	0.194300	0.654000
N21	N2	0.373400	0.134000	0.411100
C11	C1	0.287600	0.233300	0.552800
C21	C2	0.245200	0.277800	0.583800
C31	C3	0.293000	0.205300	0.468600
C41	C4	0.326300	0.212700	0.608500
C51	C5	0.337500	0.163100	0.436500
N31	N3	0.143800	0.305700	0.154000
N41	N4	0.126600	0.366000	0.911100
C61	C6	0.212400	0.266700	0.052800
C71	C7	0.254800	0.222200	0.083800
C81	C8	0.207000	0.294700	0.968600
C91	C9	0.173700	0.287300	0.108500
C101	C10	0.162500	0.336900	0.936500
N51	N5	0.643800	0.194300	0.846000
N61	N6	0.626600	0.134000	0.088900
C111	C11	0.712400	0.233300	0.947200
C121	C12	0.754800	0.277800	0.916200
C131	C13	0.707000	0.205300	0.031400
C141	C14	0.673700	0.212700	0.891500
C151	C15	0.662500	0.163100	0.063500
N71	N7	0.856200	0.305700	0.346000
N81	N8	0.873400	0.366000	0.588900
C161	C16	0.787600	0.266700	0.447200
C171	C17	0.745200	0.222200	0.416200
C181	C18	0.793000	0.294700	0.531400
C191	C19	0.826300	0.287300	0.391500
C201	C20	0.837500	0.336900	0.563500
N91	N9	0.143800	0.305700	0.346000
N101	N10	0.126600	0.366000	0.588900
C211	C21	0.212400	0.266700	0.447200
C221	C22	0.254800	0.222200	0.416200
C231	C23	0.207000	0.294700	0.531400
C241	C24	0.173700	0.287300	0.391500
C251	C25	0.162500	0.336900	0.563500
N111	N11	0.356200	0.194300	0.846000
N121	N12	0.373400	0.134000	0.088900
C261	C26	0.287600	0.233300	0.947200
C271	C27	0.245200	0.277800	0.916200
C281	C28	0.293000	0.205300	0.031400
C291	C29	0.326300	0.212700	0.891500
C301	C30	0.337500	0.163100	0.063500
N131	N13	0.856200	0.305700	0.154000
N141	N14	0.873400	0.366000	0.911100
C311	C31	0.787600	0.266700	0.052800
C321	C32	0.745200	0.222200	0.083800
C331	C33	0.793000	0.294700	0.968600
C341	C34	0.826300	0.287300	0.108500
C351	C35	0.837500	0.336900	0.936500
N151	N15	0.643800	0.194300	0.654000
N161	N16	0.626600	0.134000	0.411100
C361	C36	0.712400	0.233300	0.552800
C371	C37	0.754800	0.277800	0.583800
C381	C38	0.707000	0.205300	0.468600
C391	C39	0.673700	0.212700	0.608500
C401	C40	0.662500	0.163100	0.436500
Cu11	Cu1	0.399140	0.182290	0.750000
N171	N17	0.435700	0.344300	0.750000
N181	N18	0.433800	0.019900	0.750000
C411	C41	0.474800	0.798200	0.750000
C421	C42	0.449800	0.683000	0.750000
C431	C43	0.475200	0.567700	0.750000
C441	C44	0.451100	0.920900	0.750000
C451	C45	0.451300	0.445800	0.750000
Cu21	Cu2	0.100860	0.317710	0.250000
N191	N19	0.064300	0.155700	0.250000
N201	N20	0.066200	0.480100	0.250000
C461	C46	0.025200	0.701800	0.250000
C471	C47	0.050200	0.817000	0.250000
C481	C48	0.024800	0.932300	0.250000
C491	C49	0.048900	0.579100	0.250000
C501	C50	0.048700	0.054200	0.250000
Cu31	Cu3	0.600860	0.182290	0.750000
N211	N21	0.564300	0.344300	0.750000
N221	N22	0.566200	0.019900	0.750000
C511	C51	0.525200	0.798200	0.750000
C521	C52	0.550200	0.683000	0.750000
C531	C53	0.524800	0.567700	0.750000
C541	C54	0.548900	0.920900	0.750000
C551	C55	0.548700	0.445800	0.750000
Cu41	Cu4	0.899140	0.317710	0.250000
N231	N23	0.935700	0.155700	0.250000
N241	N24	0.933800	0.480100	0.250000
C561	C56	0.974800	0.701800	0.250000
C571	C57	0.949800	0.817000	0.250000
C581	C58	0.975200	0.932300	0.250000
C591	C59	0.951100	0.579100	0.250000
C601	C60	0.951300	0.054200	0.250000
N251	N25	0.856200	0.694300	0.654000
N261	N26	0.873400	0.634000	0.411100
C611	C61	0.787600	0.733300	0.552800
C621	C62	0.745200	0.777800	0.583800
C631	C63	0.793000	0.705300	0.468600
C641	C64	0.826300	0.712700	0.608500
C651	C65	0.837500	0.663100	0.436500
N271	N27	0.643800	0.805700	0.154000
N281	N28	0.626600	0.866000	0.911100
C661	C66	0.712400	0.766700	0.052800
C671	C67	0.754800	0.722200	0.083800
C681	C68	0.707000	0.794700	0.968600
C691	C69	0.673700	0.787300	0.108500
C701	C70	0.662500	0.836900	0.936500
N291	N29	0.143800	0.694300	0.846000
N301	N30	0.126600	0.634000	0.088900
C711	C71	0.212400	0.733300	0.947200
C721	C72	0.254800	0.777800	0.916200
C731	C73	0.207000	0.705300	0.031400
C741	C74	0.173700	0.712700	0.891500
C751	C75	0.162500	0.663100	0.063500
N311	N31	0.356200	0.805700	0.346000
N321	N32	0.373400	0.866000	0.588900
C761	C76	0.287600	0.766700	0.447200
C771	C77	0.245200	0.722200	0.416200
C781	C78	0.293000	0.794700	0.531400
C791	C79	0.326300	0.787300	0.391500
C801	C80	0.337500	0.836900	0.563500
N331	N33	0.643800	0.805700	0.346000
N341	N34	0.626600	0.866000	0.588900
C811	C81	0.712400	0.766700	0.447200
C821	C82	0.754800	0.722200	0.416200
C831	C83	0.707000	0.794700	0.531400
C841	C84	0.673700	0.787300	0.391500
C851	C85	0.662500	0.836900	0.563500
N351	N35	0.856200	0.694300	0.846000
N361	N36	0.873400	0.634000	0.088900
C861	C86	0.787600	0.733300	0.947200
C871	C87	0.745200	0.777800	0.916200
C881	C88	0.793000	0.705300	0.031400
C891	C89	0.826300	0.712700	0.891500
C901	C90	0.837500	0.663100	0.063500
N371	N37	0.356200	0.805700	0.154000
N381	N38	0.373400	0.866000	0.911100
C911	C91	0.287600	0.766700	0.052800
C921	C92	0.245200	0.722200	0.083800
C931	C93	0.293000	0.794700	0.968600
C941	C94	0.326300	0.787300	0.108500
C951	C95	0.337500	0.836900	0.936500
N391	N39	0.143800	0.694300	0.654000
N401	N40	0.126600	0.634000	0.411100
C961	C96	0.212400	0.733300	0.552800
C971	C97	0.254800	0.777800	0.583800
C981	C98	0.207000	0.705300	0.468600
C991	C99	0.173700	0.712700	0.608500
C1001	C100	0.162500	0.663100	0.436500
Cu51	Cu5	0.899140	0.682290	0.750000
N411	N41	0.935700	0.844300	0.750000
N421	N42	0.933800	0.519900	0.750000
C1011	C101	0.974800	0.298200	0.750000
C1021	C102	0.949800	0.183000	0.750000
C1031	C103	0.975200	0.067700	0.750000
C1041	C104	0.951100	0.420900	0.750000
C1051	C105	0.951300	0.945800	0.750000
Cu61	Cu6	0.600860	0.817710	0.250000
N431	N43	0.564300	0.655700	0.250000
N441	N44	0.566200	0.980100	0.250000
C1061	C106	0.525200	0.201800	0.250000
C1071	C107	0.550200	0.317000	0.250000
C1081	C108	0.524800	0.432300	0.250000
C1091	C109	0.548900	0.079100	0.250000
C1101	C110	0.548700	0.554200	0.250000
Cu71	Cu7	0.100860	0.682290	0.750000
N451	N45	0.064300	0.844300	0.750000
N461	N46	0.066200	0.519900	0.750000
C1111	C111	0.025200	0.298200	0.750000
C1121	C112	0.050200	0.183000	0.750000
C1131	C113	0.024800	0.067700	0.750000
C1141	C114	0.048900	0.420900	0.750000
C1151	C115	0.048700	0.945800	0.750000
Cu81	Cu8	0.399140	0.817710	0.250000
N471	N47	0.435700	0.655700	0.250000
N481	N48	0.433800	0.980100	0.250000
C1161	C116	0.474800	0.201800	0.250000
C1171	C117	0.449800	0.317000	0.250000
C1181	C118	0.475200	0.432300	0.250000
C1191	C119	0.451100	0.079100	0.250000
C1201	C120	0.451300	0.554200	0.250000
