data_SUGVUM_clean_PM
_symmetry_space_group_name_H-M	'P1'
_cell_length_a	12.665000
_cell_length_b	15.737600
_cell_length_c	15.737600
_cell_angle_alpha	80.682100
_cell_angle_beta	66.272800
_cell_angle_gamma	66.272800
_symmetry_Int_Tables_number 1

loop_
_symmetry_equiv_pos_as_xyz
'x,y,z'

loop_
_atom_site_label
_atom_site_type_symbol
_atom_site_fract_x
_atom_site_fract_y
_atom_site_fract_z
Cu11	Cu1	0.000000	0.500000	0.500000
Cu21	Cu2	0.500000	0.000000	0.000000
Cu31	Cu3	0.500000	0.500000	0.000000
Cu41	Cu4	0.500000	0.000000	0.500000
H11	H1	0.383300	0.527300	0.850700
H21	H2	0.547700	0.292500	0.958700
H31	H3	0.473300	0.253900	0.854900
H41	H4	0.474900	0.294100	0.691300
H51	H5	0.378000	0.310200	0.588200
H61	H6	0.105600	0.538700	0.721700
H71	H7	0.202600	0.524200	0.822600
H81	H8	0.261300	0.972700	0.649300
H91	H9	0.298900	0.207500	0.541300
H101	H10	0.082100	0.246100	0.645100
H111	H11	0.960300	0.205900	0.808700
H121	H12	0.776400	0.189800	0.911800
H131	H13	0.866000	0.961300	0.778300
H141	H14	0.049400	0.975800	0.677400
H151	H15	0.234000	0.149300	0.027300
H161	H16	0.506400	0.041300	0.792500
H171	H17	0.328200	0.145100	0.753900
H181	H18	0.166200	0.308700	0.794100
H191	H19	0.966200	0.411800	0.810200
H201	H20	0.827300	0.278300	0.038700
H211	H21	0.025200	0.177400	0.024200
H221	H22	0.910600	0.350700	0.472700
H231	H23	0.840200	0.458700	0.707500
H241	H24	0.727200	0.354900	0.746100
H251	H25	0.769000	0.191300	0.705900
H261	H26	0.688200	0.088200	0.689800
H271	H27	0.644300	0.221700	0.461300
H281	H28	0.726800	0.322600	0.475800
H291	H29	0.616700	0.472700	0.149300
H301	H30	0.452300	0.707500	0.041300
H311	H31	0.526700	0.746100	0.145100
H321	H32	0.525100	0.705900	0.308700
H331	H33	0.622000	0.689800	0.411800
H341	H34	0.894400	0.461300	0.278300
H351	H35	0.797400	0.475800	0.177400
H361	H36	0.738700	0.027300	0.350700
H371	H37	0.701100	0.792500	0.458700
H381	H38	0.917900	0.753900	0.354900
H391	H39	0.039700	0.794100	0.191300
H401	H40	0.223600	0.810200	0.088200
H411	H41	0.134000	0.038700	0.221700
H421	H42	0.950600	0.024200	0.322600
H431	H43	0.766000	0.850700	0.972700
H441	H44	0.493600	0.958700	0.207500
H451	H45	0.671800	0.854900	0.246100
H461	H46	0.833800	0.691300	0.205900
H471	H47	0.033800	0.588200	0.189800
H481	H48	0.172700	0.721700	0.961300
H491	H49	0.974800	0.822600	0.975800
H501	H50	0.089400	0.649300	0.527300
H511	H51	0.159800	0.541300	0.292500
H521	H52	0.272800	0.645100	0.253900
H531	H53	0.231000	0.808700	0.294100
H541	H54	0.311800	0.911800	0.310200
H551	H55	0.355700	0.778300	0.538700
H561	H56	0.273200	0.677400	0.524200
C11	C1	0.414300	0.464600	0.865200
C21	C2	0.505000	0.335000	0.924000
C31	C3	0.464000	0.312900	0.867100
C41	C4	0.346400	0.408400	0.765800
C51	C5	0.400700	0.343500	0.696900
C61	C6	0.342100	0.353400	0.635400
C71	C7	0.233300	0.425200	0.643600
C81	C8	0.180400	0.489600	0.715000
C91	C9	0.237800	0.480900	0.775500
C101	C10	0.165900	0.434000	0.580200
C111	C11	0.244100	0.035400	0.634800
C121	C12	0.264000	0.165000	0.576000
C131	C13	0.144000	0.187100	0.632900
C141	C14	0.020600	0.091600	0.734200
C151	C15	0.941100	0.156500	0.803100
C161	C16	0.830900	0.146600	0.864600
C171	C17	0.802100	0.074800	0.856400
C181	C18	0.885000	0.010400	0.785000
C191	C19	0.994200	0.019100	0.724500
C201	C20	0.680100	0.066000	0.919800
C211	C21	0.279500	0.134800	0.964600
C221	C22	0.429000	0.076000	0.835000
C231	C23	0.331100	0.132900	0.812900
C241	C24	0.112200	0.234200	0.908400
C251	C25	0.097600	0.303100	0.843500
C261	C26	0.977500	0.364600	0.853400
C271	C27	0.876900	0.356400	0.925200
C281	C28	0.895400	0.285000	0.989600
C291	C29	0.013300	0.224500	0.980900
C301	C30	0.746100	0.419800	0.934000
C311	C31	0.878900	0.365200	0.535400
C321	C32	0.840000	0.424000	0.665000
C331	C33	0.776900	0.367100	0.687100
C341	C34	0.754800	0.265800	0.591600
C351	C35	0.744200	0.196900	0.656500
C361	C36	0.695500	0.135400	0.646600
C371	C37	0.658500	0.143600	0.574800
C381	C38	0.670000	0.215000	0.510400
C391	C39	0.718700	0.275500	0.519100
C401	C40	0.599900	0.080200	0.566000
C411	C41	0.585700	0.535400	0.134800
C421	C42	0.495000	0.665000	0.076000
C431	C43	0.536000	0.687100	0.132900
C441	C44	0.653600	0.591600	0.234200
C451	C45	0.599300	0.656500	0.303100
C461	C46	0.657900	0.646600	0.364600
C471	C47	0.766700	0.574800	0.356400
C481	C48	0.819600	0.510400	0.285000
C491	C49	0.762200	0.519100	0.224500
C501	C50	0.834100	0.566000	0.419800
C511	C51	0.755900	0.964600	0.365200
C521	C52	0.736000	0.835000	0.424000
C531	C53	0.856000	0.812900	0.367100
C541	C54	0.979400	0.908400	0.265800
C551	C55	0.058900	0.843500	0.196900
C561	C56	0.169100	0.853400	0.135400
C571	C57	0.197900	0.925200	0.143600
C581	C58	0.115000	0.989600	0.215000
C591	C59	0.005800	0.980900	0.275500
C601	C60	0.319900	0.934000	0.080200
C611	C61	0.720500	0.865200	0.035400
C621	C62	0.571000	0.924000	0.165000
C631	C63	0.668900	0.867100	0.187100
C641	C64	0.887800	0.765800	0.091600
C651	C65	0.902400	0.696900	0.156500
C661	C66	0.022500	0.635400	0.146600
C671	C67	0.123100	0.643600	0.074800
C681	C68	0.104600	0.715000	0.010400
C691	C69	0.986700	0.775500	0.019100
C701	C70	0.253900	0.580200	0.066000
C711	C71	0.121100	0.634800	0.464600
C721	C72	0.160000	0.576000	0.335000
C731	C73	0.223100	0.632900	0.312900
C741	C74	0.245200	0.734200	0.408400
C751	C75	0.255800	0.803100	0.343500
C761	C76	0.304500	0.864600	0.353400
C771	C77	0.341500	0.856400	0.425200
C781	C78	0.330000	0.785000	0.489600
C791	C79	0.281300	0.724500	0.480900
C801	C80	0.400100	0.919800	0.434000
N11	N1	0.474800	0.428700	0.923500
N21	N2	0.405400	0.395500	0.830700
N31	N3	0.327000	0.071300	0.576500
N41	N4	0.131600	0.104500	0.669300
N51	N5	0.398300	0.076500	0.928700
N61	N6	0.236100	0.169300	0.895500
N71	N7	0.903500	0.423500	0.571300
N81	N8	0.800900	0.330700	0.604500
N91	N9	0.525200	0.571300	0.076500
N101	N10	0.594600	0.604500	0.169300
N111	N11	0.673000	0.928700	0.423500
N121	N12	0.868400	0.895500	0.330700
N131	N13	0.601700	0.923500	0.071300
N141	N14	0.763900	0.830700	0.104500
N151	N15	0.096500	0.576500	0.428700
N161	N16	0.199100	0.669300	0.395500
O11	O1	0.057700	0.491400	0.600200
O21	O2	0.227300	0.380800	0.510200
O31	O3	0.649300	0.008600	0.899800
O41	O4	0.618300	0.119200	0.989800
O51	O5	0.657900	0.399800	0.991400
O61	O6	0.737500	0.489800	0.880800
O71	O7	0.549100	0.100200	0.508600
O81	O8	0.608100	0.010200	0.619200
O91	O9	0.942300	0.508600	0.399800
O101	O10	0.772700	0.619200	0.489800
O111	O11	0.350700	0.991400	0.100200
O121	O12	0.381700	0.880800	0.010200
O131	O13	0.342100	0.600200	0.008600
O141	O14	0.262500	0.510200	0.119200
O151	O15	0.450900	0.899800	0.491400
O161	O16	0.391900	0.989800	0.380800
