data_SUHMEP_clean_PM
_symmetry_space_group_name_H-M	'P1'
_cell_length_a	13.809000
_cell_length_b	13.809000
_cell_length_c	30.004000
_cell_angle_alpha	90.000000
_cell_angle_beta	90.000000
_cell_angle_gamma	120.000000
_symmetry_Int_Tables_number 1

loop_
_symmetry_equiv_pos_as_xyz
'x,y,z'

loop_
_atom_site_label
_atom_site_type_symbol
_atom_site_fract_x
_atom_site_fract_y
_atom_site_fract_z
Co11	Co1	0.642260	0.097800	0.462950
P11	P1	0.477850	0.158840	0.501380
O11	O1	0.567500	0.189500	0.464680
O21	O2	0.700800	0.233400	0.382450
O31	O3	0.629700	0.054300	0.400010
C11	C1	0.638200	0.099900	0.323930
O41	O4	0.400900	0.032700	0.500500
C21	C2	0.657700	0.132600	0.372290
O51	O5	0.408300	0.213800	0.490640
C31	C3	0.580500	0.990400	0.311760
H11	H1	0.552300	0.935600	0.333700
O61	O6	0.535300	0.196500	0.546550
C41	C4	0.679700	0.184300	0.290800
H21	H2	0.719500	0.259200	0.299000
C51	C5	0.562400	0.958100	0.266680
C61	C6	0.661400	0.155800	0.246800
H31	H3	0.686600	0.211800	0.225300
Co21	Co2	0.902200	0.544460	0.462950
P21	P2	0.841160	0.319010	0.501380
O71	O7	0.810500	0.378000	0.464680
O81	O8	0.766600	0.467400	0.382450
O91	O9	0.945700	0.575400	0.400010
C71	C7	0.900100	0.538300	0.323930
O101	O10	0.967300	0.368200	0.500500
C81	C8	0.867400	0.525100	0.372290
O111	O11	0.786200	0.194500	0.490640
C91	C9	0.009600	0.590100	0.311760
H41	H4	0.064400	0.616700	0.333700
O121	O12	0.803500	0.338800	0.546550
C101	C10	0.815700	0.495400	0.290800
H51	H5	0.740800	0.460300	0.299000
C111	C11	0.041900	0.604300	0.266680
C121	C12	0.844200	0.505600	0.246800
H61	H6	0.788200	0.474800	0.225300
Co31	Co3	0.455540	0.357740	0.462950
P31	P3	0.680990	0.522150	0.501380
O131	O13	0.622000	0.432500	0.464680
O141	O14	0.532600	0.299200	0.382450
O151	O15	0.424600	0.370300	0.400010
C131	C13	0.461700	0.361800	0.323930
O161	O16	0.631800	0.599100	0.500500
C141	C14	0.474900	0.342300	0.372290
O171	O17	0.805500	0.591700	0.490640
C151	C15	0.409900	0.419500	0.311760
H71	H7	0.383300	0.447700	0.333700
O181	O18	0.661200	0.464700	0.546550
C161	C16	0.504600	0.320300	0.290800
H81	H8	0.539700	0.280500	0.299000
C171	C17	0.395700	0.437600	0.266680
C181	C18	0.494400	0.338600	0.246800
H91	H9	0.525200	0.313400	0.225300
Co41	Co4	0.097800	0.642260	0.037050
P41	P4	0.158840	0.477850	0.998620
O191	O19	0.189500	0.567500	0.035320
O201	O20	0.233400	0.700800	0.117550
O211	O21	0.054300	0.629700	0.099990
C191	C19	0.099900	0.638200	0.176070
O221	O22	0.032700	0.400900	0.999500
C201	C20	0.132600	0.657700	0.127710
O231	O23	0.213800	0.408300	0.009360
C211	C21	0.990400	0.580500	0.188240
H101	H10	0.935600	0.552300	0.166300
O241	O24	0.196500	0.535300	0.953450
C221	C22	0.184300	0.679700	0.209200
H111	H11	0.259200	0.719500	0.201000
C231	C23	0.958100	0.562400	0.233320
C241	C24	0.155800	0.661400	0.253200
H121	H12	0.211800	0.686600	0.274700
Co51	Co5	0.544460	0.902200	0.037050
P51	P5	0.319010	0.841160	0.998620
O251	O25	0.378000	0.810500	0.035320
O261	O26	0.467400	0.766600	0.117550
O271	O27	0.575400	0.945700	0.099990
C251	C25	0.538300	0.900100	0.176070
O281	O28	0.368200	0.967300	0.999500
C261	C26	0.525100	0.867400	0.127710
O291	O29	0.194500	0.786200	0.009360
C271	C27	0.590100	0.009600	0.188240
H131	H13	0.616700	0.064400	0.166300
O301	O30	0.338800	0.803500	0.953450
C281	C28	0.495400	0.815700	0.209200
H141	H14	0.460300	0.740800	0.201000
C291	C29	0.604300	0.041900	0.233320
C301	C30	0.505600	0.844200	0.253200
H151	H15	0.474800	0.788200	0.274700
Co61	Co6	0.357740	0.455540	0.037050
P61	P6	0.522150	0.680990	0.998620
O311	O31	0.432500	0.622000	0.035320
O321	O32	0.299200	0.532600	0.117550
O331	O33	0.370300	0.424600	0.099990
C311	C31	0.361800	0.461700	0.176070
O341	O34	0.599100	0.631800	0.999500
C321	C32	0.342300	0.474900	0.127710
O351	O35	0.591700	0.805500	0.009360
C331	C33	0.419500	0.409900	0.188240
H161	H16	0.447700	0.383300	0.166300
O361	O36	0.464700	0.661200	0.953450
C341	C34	0.320300	0.504600	0.209200
H171	H17	0.280500	0.539700	0.201000
C351	C35	0.437600	0.395700	0.233320
C361	C36	0.338600	0.494400	0.253200
H181	H18	0.313400	0.525200	0.274700
Co71	Co7	0.357740	0.902200	0.537050
P71	P7	0.522150	0.841160	0.498620
O371	O37	0.432500	0.810500	0.535320
O381	O38	0.299200	0.766600	0.617550
O391	O39	0.370300	0.945700	0.599990
C371	C37	0.361800	0.900100	0.676070
O401	O40	0.599100	0.967300	0.499500
C381	C38	0.342300	0.867400	0.627710
O411	O41	0.591700	0.786200	0.509360
C391	C39	0.419500	0.009600	0.688240
H191	H19	0.447700	0.064400	0.666300
O421	O42	0.464700	0.803500	0.453450
C401	C40	0.320300	0.815700	0.709200
H201	H20	0.280500	0.740800	0.701000
C411	C41	0.437600	0.041900	0.733320
C421	C42	0.338600	0.844200	0.753200
H211	H21	0.313400	0.788200	0.774700
Co81	Co8	0.097800	0.455540	0.537050
P81	P8	0.158840	0.680990	0.498620
O431	O43	0.189500	0.622000	0.535320
O441	O44	0.233400	0.532600	0.617550
O451	O45	0.054300	0.424600	0.599990
C431	C43	0.099900	0.461700	0.676070
O461	O46	0.032700	0.631800	0.499500
C441	C44	0.132600	0.474900	0.627710
O471	O47	0.213800	0.805500	0.509360
C451	C45	0.990400	0.409900	0.688240
H221	H22	0.935600	0.383300	0.666300
O481	O48	0.196500	0.661200	0.453450
C461	C46	0.184300	0.504600	0.709200
H231	H23	0.259200	0.539700	0.701000
C471	C47	0.958100	0.395700	0.733320
C481	C48	0.155800	0.494400	0.753200
H241	H24	0.211800	0.525200	0.774700
Co91	Co9	0.544460	0.642260	0.537050
P91	P9	0.319010	0.477850	0.498620
O491	O49	0.378000	0.567500	0.535320
O501	O50	0.467400	0.700800	0.617550
O511	O51	0.575400	0.629700	0.599990
C491	C49	0.538300	0.638200	0.676070
O521	O52	0.368200	0.400900	0.499500
C501	C50	0.525100	0.657700	0.627710
O531	O53	0.194500	0.408300	0.509360
C511	C51	0.590100	0.580500	0.688240
H251	H25	0.616700	0.552300	0.666300
O541	O54	0.338800	0.535300	0.453450
C521	C52	0.495400	0.679700	0.709200
H261	H26	0.460300	0.719500	0.701000
C531	C53	0.604300	0.562400	0.733320
C541	C54	0.505600	0.661400	0.753200
H271	H27	0.474800	0.686600	0.774700
Co101	Co10	0.902200	0.357740	0.962950
P101	P10	0.841160	0.522150	0.001380
O551	O55	0.810500	0.432500	0.964680
O561	O56	0.766600	0.299200	0.882450
O571	O57	0.945700	0.370300	0.900010
C551	C55	0.900100	0.361800	0.823930
O581	O58	0.967300	0.599100	0.000500
C561	C56	0.867400	0.342300	0.872290
O591	O59	0.786200	0.591700	0.990640
C571	C57	0.009600	0.419500	0.811760
H281	H28	0.064400	0.447700	0.833700
O601	O60	0.803500	0.464700	0.046550
C581	C58	0.815700	0.320300	0.790800
H291	H29	0.740800	0.280500	0.799000
C591	C59	0.041900	0.437600	0.766680
C601	C60	0.844200	0.338600	0.746800
H301	H30	0.788200	0.313400	0.725300
Co111	Co11	0.455540	0.097800	0.962950
P111	P11	0.680990	0.158840	0.001380
O611	O61	0.622000	0.189500	0.964680
O621	O62	0.532600	0.233400	0.882450
O631	O63	0.424600	0.054300	0.900010
C611	C61	0.461700	0.099900	0.823930
O641	O64	0.631800	0.032700	0.000500
C621	C62	0.474900	0.132600	0.872290
O651	O65	0.805500	0.213800	0.990640
C631	C63	0.409900	0.990400	0.811760
H311	H31	0.383300	0.935600	0.833700
O661	O66	0.661200	0.196500	0.046550
C641	C64	0.504600	0.184300	0.790800
H321	H32	0.539700	0.259200	0.799000
C651	C65	0.395700	0.958100	0.766680
C661	C66	0.494400	0.155800	0.746800
H331	H33	0.525200	0.211800	0.725300
Co121	Co12	0.642260	0.544460	0.962950
P121	P12	0.477850	0.319010	0.001380
O671	O67	0.567500	0.378000	0.964680
O681	O68	0.700800	0.467400	0.882450
O691	O69	0.629700	0.575400	0.900010
C671	C67	0.638200	0.538300	0.823930
O701	O70	0.400900	0.368200	0.000500
C681	C68	0.657700	0.525100	0.872290
O711	O71	0.408300	0.194500	0.990640
C691	C69	0.580500	0.590100	0.811760
H341	H34	0.552300	0.616700	0.833700
O721	O72	0.535300	0.338800	0.046550
C701	C70	0.679700	0.495400	0.790800
H351	H35	0.719500	0.460300	0.799000
C711	C71	0.562400	0.604300	0.766680
C721	C72	0.661400	0.505600	0.746800
H361	H36	0.686600	0.474800	0.725300
Co131	Co13	0.666670	0.333330	0.425640
Co141	Co14	0.666670	0.333330	0.564860
Cl11	Cl1	0.666670	0.333330	0.641540
Co151	Co15	0.333330	0.666670	0.074360
Co161	Co16	0.333330	0.666670	0.935140
Cl21	Cl2	0.333330	0.666670	0.858460
Co171	Co17	0.333330	0.666670	0.574360
Co181	Co18	0.333330	0.666670	0.435140
Cl31	Cl3	0.333330	0.666670	0.358460
Co191	Co19	0.666670	0.333330	0.925640
Co201	Co20	0.666670	0.333330	0.064860
Cl41	Cl4	0.666670	0.333330	0.141540
