data_SUKNOC_charged_PM
_symmetry_space_group_name_H-M	'P1'
_cell_length_a	21.056000
_cell_length_b	21.367600
_cell_length_c	21.367600
_cell_angle_alpha	120.000000
_cell_angle_beta	90.000000
_cell_angle_gamma	90.000000
_symmetry_Int_Tables_number 1

loop_
_symmetry_equiv_pos_as_xyz
'x,y,z'

loop_
_atom_site_label
_atom_site_type_symbol
_atom_site_fract_x
_atom_site_fract_y
_atom_site_fract_z
K11	K1	0.250000	0.333330	0.666660
K21	K2	0.750000	0.666670	0.333340
Cd11	Cd1	0.250000	0.547630	0.773820
Cd21	Cd2	0.250000	0.226190	0.452380
Cd31	Cd3	0.250000	0.226190	0.773820
Cd41	Cd4	0.750000	0.452370	0.226180
Cd51	Cd5	0.750000	0.773810	0.547620
Cd61	Cd6	0.750000	0.773810	0.226180
H11	H1	0.050900	0.544300	0.646100
H21	H2	0.036500	0.295400	0.519100
H31	H3	0.117000	0.350400	0.599800
H41	H4	0.986600	0.590300	0.619700
H51	H5	0.775200	0.606400	0.499100
H61	H6	0.844300	0.532100	0.512700
H71	H7	0.941000	0.707500	0.652400
H81	H8	0.868300	0.777200	0.635900
H91	H9	0.927500	0.368500	0.462800
H101	H10	0.942800	0.309600	0.471200
H111	H11	0.050900	0.101800	0.455700
H121	H12	0.036500	0.223700	0.704600
H131	H13	0.117000	0.249400	0.649600
H141	H14	0.986600	0.029400	0.409700
H151	H15	0.775200	0.892700	0.393600
H161	H16	0.844300	0.980600	0.467900
H171	H17	0.941000	0.944900	0.292500
H181	H18	0.868300	0.858700	0.222800
H191	H19	0.927500	0.094300	0.631500
H201	H20	0.942800	0.161600	0.690400
H211	H21	0.050900	0.353900	0.898200
H221	H22	0.036500	0.480900	0.776300
H231	H23	0.117000	0.400200	0.750600
H241	H24	0.986600	0.380300	0.970600
H251	H25	0.775200	0.500900	0.107300
H261	H26	0.844300	0.487300	0.019400
H271	H27	0.941000	0.347600	0.055100
H281	H28	0.868300	0.364100	0.141300
H291	H29	0.927500	0.537200	0.905700
H301	H30	0.942800	0.528800	0.838400
H311	H31	0.449100	0.101800	0.646100
H321	H32	0.463500	0.223700	0.519100
H331	H33	0.383000	0.249400	0.599800
H341	H34	0.513400	0.029400	0.619700
H351	H35	0.724800	0.892700	0.499100
H361	H36	0.655700	0.980600	0.512700
H371	H37	0.559000	0.944900	0.652400
H381	H38	0.631700	0.858700	0.635900
H391	H39	0.572500	0.094300	0.462800
H401	H40	0.557200	0.161600	0.471200
H411	H41	0.449100	0.353900	0.455700
H421	H42	0.463500	0.480900	0.704600
H431	H43	0.383000	0.400200	0.649600
H441	H44	0.513400	0.380300	0.409700
H451	H45	0.724800	0.500900	0.393600
H461	H46	0.655700	0.487300	0.467900
H471	H47	0.559000	0.347600	0.292500
H481	H48	0.631700	0.364100	0.222800
H491	H49	0.572500	0.537200	0.631500
H501	H50	0.557200	0.528800	0.690400
H511	H51	0.449100	0.544300	0.898200
H521	H52	0.463500	0.295400	0.776300
H531	H53	0.383000	0.350400	0.750600
H541	H54	0.513400	0.590300	0.970600
H551	H55	0.724800	0.606400	0.107300
H561	H56	0.655700	0.532100	0.019400
H571	H57	0.559000	0.707500	0.055100
H581	H58	0.631700	0.777200	0.141300
H591	H59	0.572500	0.368500	0.905700
H601	H60	0.557200	0.309600	0.838400
H611	H61	0.949100	0.455700	0.353900
H621	H62	0.963500	0.704600	0.480900
H631	H63	0.883000	0.649600	0.400200
H641	H64	0.013400	0.409700	0.380300
H651	H65	0.224800	0.393600	0.500900
H661	H66	0.155700	0.467900	0.487300
H671	H67	0.059000	0.292500	0.347600
H681	H68	0.131700	0.222800	0.364100
H691	H69	0.072500	0.631500	0.537200
H701	H70	0.057200	0.690400	0.528800
H711	H71	0.949100	0.898200	0.544300
H721	H72	0.963500	0.776300	0.295400
H731	H73	0.883000	0.750600	0.350400
H741	H74	0.013400	0.970600	0.590300
H751	H75	0.224800	0.107300	0.606400
H761	H76	0.155700	0.019400	0.532100
H771	H77	0.059000	0.055100	0.707500
H781	H78	0.131700	0.141300	0.777200
H791	H79	0.072500	0.905700	0.368500
H801	H80	0.057200	0.838400	0.309600
H811	H81	0.949100	0.646100	0.101800
H821	H82	0.963500	0.519100	0.223700
H831	H83	0.883000	0.599800	0.249400
H841	H84	0.013400	0.619700	0.029400
H851	H85	0.224800	0.499100	0.892700
H861	H86	0.155700	0.512700	0.980600
H871	H87	0.059000	0.652400	0.944900
H881	H88	0.131700	0.635900	0.858700
H891	H89	0.072500	0.462800	0.094300
H901	H90	0.057200	0.471200	0.161600
H911	H91	0.550900	0.898200	0.353900
H921	H92	0.536500	0.776300	0.480900
H931	H93	0.617000	0.750600	0.400200
H941	H94	0.486600	0.970600	0.380300
H951	H95	0.275200	0.107300	0.500900
H961	H96	0.344300	0.019400	0.487300
H971	H97	0.441000	0.055100	0.347600
H981	H98	0.368300	0.141300	0.364100
H991	H99	0.427500	0.905700	0.537200
H1001	H100	0.442800	0.838400	0.528800
H1011	H101	0.550900	0.646100	0.544300
H1021	H102	0.536500	0.519100	0.295400
H1031	H103	0.617000	0.599800	0.350400
H1041	H104	0.486600	0.619700	0.590300
H1051	H105	0.275200	0.499100	0.606400
H1061	H106	0.344300	0.512700	0.532100
H1071	H107	0.441000	0.652400	0.707500
H1081	H108	0.368300	0.635900	0.777200
H1091	H109	0.427500	0.462800	0.368500
H1101	H110	0.442800	0.471200	0.309600
H1111	H111	0.550900	0.455700	0.101800
H1121	H112	0.536500	0.704600	0.223700
H1131	H113	0.617000	0.649600	0.249400
H1141	H114	0.486600	0.409700	0.029400
H1151	H115	0.275200	0.393600	0.892700
H1161	H116	0.344300	0.467900	0.980600
H1171	H117	0.441000	0.292500	0.944900
H1181	H118	0.368300	0.222800	0.858700
H1191	H119	0.427500	0.631500	0.094300
H1201	H120	0.442800	0.690400	0.161600
C11	C1	0.148750	0.488500	0.676970
C21	C2	0.093770	0.452530	0.629810
C31	C3	0.047510	0.494190	0.620660
C41	C4	0.996360	0.462010	0.574080
C51	C5	0.992210	0.386710	0.534610
C61	C6	0.038850	0.345590	0.544990
C71	C7	0.087470	0.378520	0.592460
C81	C8	0.951300	0.567200	0.591300
C91	C9	0.809440	0.626990	0.530280
C101	C10	0.850730	0.581780	0.537510
C111	C11	0.902320	0.611960	0.582860
C121	C12	0.907640	0.685620	0.620220
C131	C13	0.863800	0.727260	0.610160
C141	C14	0.148750	0.188470	0.511500
C151	C15	0.093770	0.177280	0.547470
C161	C16	0.047510	0.126470	0.505810
C171	C17	0.996360	0.112070	0.537990
C181	C18	0.992210	0.147900	0.613290
C191	C19	0.038850	0.199400	0.654410
C201	C20	0.087470	0.213940	0.621480
C211	C21	0.951300	0.024100	0.432800
C221	C22	0.809440	0.903290	0.373010
C231	C23	0.850730	0.955730	0.418220
C241	C24	0.902320	0.970900	0.388040
C251	C25	0.907640	0.934600	0.314380
C261	C26	0.863800	0.882900	0.272740
C271	C27	0.148750	0.323030	0.811530
C281	C28	0.093770	0.370190	0.822720
C291	C29	0.047510	0.379340	0.873530
C301	C30	0.996360	0.425920	0.887930
C311	C31	0.992210	0.465390	0.852100
C321	C32	0.038850	0.455010	0.800600
C331	C33	0.087470	0.407540	0.786060
C341	C34	0.951300	0.408700	0.975900
C351	C35	0.809440	0.469720	0.096710
C361	C36	0.850730	0.462490	0.044270
C371	C37	0.902320	0.417140	0.029100
C381	C38	0.907640	0.379780	0.065400
C391	C39	0.863800	0.389840	0.117100
C401	C40	0.351250	0.188470	0.676970
C411	C41	0.406230	0.177280	0.629810
C421	C42	0.452490	0.126470	0.620660
C431	C43	0.503640	0.112070	0.574080
C441	C44	0.507790	0.147900	0.534610
C451	C45	0.461150	0.199400	0.544990
C461	C46	0.412530	0.213940	0.592460
C471	C47	0.548700	0.024100	0.591300
C481	C48	0.690560	0.903290	0.530280
C491	C49	0.649270	0.955730	0.537510
C501	C50	0.597680	0.970900	0.582860
C511	C51	0.592360	0.934600	0.620220
C521	C52	0.636200	0.882900	0.610160
C531	C53	0.351250	0.323030	0.511500
C541	C54	0.406230	0.370190	0.547470
C551	C55	0.452490	0.379340	0.505810
C561	C56	0.503640	0.425920	0.537990
C571	C57	0.507790	0.465390	0.613290
C581	C58	0.461150	0.455010	0.654410
C591	C59	0.412530	0.407540	0.621480
C601	C60	0.548700	0.408700	0.432800
C611	C61	0.690560	0.469720	0.373010
C621	C62	0.649270	0.462490	0.418220
C631	C63	0.597680	0.417140	0.388040
C641	C64	0.592360	0.379780	0.314380
C651	C65	0.636200	0.389840	0.272740
C661	C66	0.351250	0.488500	0.811530
C671	C67	0.406230	0.452530	0.822720
C681	C68	0.452490	0.494190	0.873530
C691	C69	0.503640	0.462010	0.887930
C701	C70	0.507790	0.386710	0.852100
C711	C71	0.461150	0.345590	0.800600
C721	C72	0.412530	0.378520	0.786060
C731	C73	0.548700	0.567200	0.975900
C741	C74	0.690560	0.626990	0.096710
C751	C75	0.649270	0.581780	0.044270
C761	C76	0.597680	0.611960	0.029100
C771	C77	0.592360	0.685620	0.065400
C781	C78	0.636200	0.727260	0.117100
C791	C79	0.851250	0.511500	0.323030
C801	C80	0.906230	0.547470	0.370190
C811	C81	0.952490	0.505810	0.379340
C821	C82	0.003640	0.537990	0.425920
C831	C83	0.007790	0.613290	0.465390
C841	C84	0.961150	0.654410	0.455010
C851	C85	0.912530	0.621480	0.407540
C861	C86	0.048700	0.432800	0.408700
C871	C87	0.190560	0.373010	0.469720
C881	C88	0.149270	0.418220	0.462490
C891	C89	0.097680	0.388040	0.417140
C901	C90	0.092360	0.314380	0.379780
C911	C91	0.136200	0.272740	0.389840
C921	C92	0.851250	0.811530	0.488500
C931	C93	0.906230	0.822720	0.452530
C941	C94	0.952490	0.873530	0.494190
C951	C95	0.003640	0.887930	0.462010
C961	C96	0.007790	0.852100	0.386710
C971	C97	0.961150	0.800600	0.345590
C981	C98	0.912530	0.786060	0.378520
C991	C99	0.048700	0.975900	0.567200
C1001	C100	0.190560	0.096710	0.626990
C1011	C101	0.149270	0.044270	0.581780
C1021	C102	0.097680	0.029100	0.611960
C1031	C103	0.092360	0.065400	0.685620
C1041	C104	0.136200	0.117100	0.727260
C1051	C105	0.851250	0.676970	0.188470
C1061	C106	0.906230	0.629810	0.177280
C1071	C107	0.952490	0.620660	0.126470
C1081	C108	0.003640	0.574080	0.112070
C1091	C109	0.007790	0.534610	0.147900
C1101	C110	0.961150	0.544990	0.199400
C1111	C111	0.912530	0.592460	0.213940
C1121	C112	0.048700	0.591300	0.024100
C1131	C113	0.190560	0.530280	0.903290
C1141	C114	0.149270	0.537510	0.955730
C1151	C115	0.097680	0.582860	0.970900
C1161	C116	0.092360	0.620220	0.934600
C1171	C117	0.136200	0.610160	0.882900
C1181	C118	0.648750	0.811530	0.323030
C1191	C119	0.593770	0.822720	0.370190
C1201	C120	0.547510	0.873530	0.379340
C1211	C121	0.496360	0.887930	0.425920
C1221	C122	0.492210	0.852100	0.465390
C1231	C123	0.538850	0.800600	0.455010
C1241	C124	0.587470	0.786060	0.407540
C1251	C125	0.451300	0.975900	0.408700
C1261	C126	0.309440	0.096710	0.469720
C1271	C127	0.350730	0.044270	0.462490
C1281	C128	0.402320	0.029100	0.417140
C1291	C129	0.407640	0.065400	0.379780
C1301	C130	0.363800	0.117100	0.389840
C1311	C131	0.648750	0.676970	0.488500
C1321	C132	0.593770	0.629810	0.452530
C1331	C133	0.547510	0.620660	0.494190
C1341	C134	0.496360	0.574080	0.462010
C1351	C135	0.492210	0.534610	0.386710
C1361	C136	0.538850	0.544990	0.345590
C1371	C137	0.587470	0.592460	0.378520
C1381	C138	0.451300	0.591300	0.567200
C1391	C139	0.309440	0.530280	0.626990
C1401	C140	0.350730	0.537510	0.581780
C1411	C141	0.402320	0.582860	0.611960
C1421	C142	0.407640	0.620220	0.685620
C1431	C143	0.363800	0.610160	0.727260
C1441	C144	0.648750	0.511500	0.188470
C1451	C145	0.593770	0.547470	0.177280
C1461	C146	0.547510	0.505810	0.126470
C1471	C147	0.496360	0.537990	0.112070
C1481	C148	0.492210	0.613290	0.147900
C1491	C149	0.538850	0.654410	0.199400
C1501	C150	0.587470	0.621480	0.213940
C1511	C151	0.451300	0.432800	0.024100
C1521	C152	0.309440	0.373010	0.903290
C1531	C153	0.350730	0.418220	0.955730
C1541	C154	0.402320	0.388040	0.970900
C1551	C155	0.407640	0.314380	0.934600
C1561	C156	0.363800	0.272740	0.882900
N11	N1	0.947780	0.500310	0.562420
N21	N2	0.815020	0.698830	0.565040
N31	N3	0.942200	0.354810	0.490510
N41	N4	0.947780	0.062110	0.499690
N51	N5	0.815020	0.866210	0.301170
N61	N6	0.942200	0.135700	0.645190
N71	N7	0.947780	0.437580	0.937890
N81	N8	0.815020	0.434960	0.133790
N91	N9	0.942200	0.509490	0.864300
N101	N10	0.552220	0.062110	0.562420
N111	N11	0.684980	0.866210	0.565040
N121	N12	0.557800	0.135700	0.490510
N131	N13	0.552220	0.437580	0.499690
N141	N14	0.684980	0.434960	0.301170
N151	N15	0.557800	0.509490	0.645190
N161	N16	0.552220	0.500310	0.937890
N171	N17	0.684980	0.698830	0.133790
N181	N18	0.557800	0.354810	0.864300
N191	N19	0.052220	0.499690	0.437580
N201	N20	0.184980	0.301170	0.434960
N211	N21	0.057800	0.645190	0.509490
N221	N22	0.052220	0.937890	0.500310
N231	N23	0.184980	0.133790	0.698830
N241	N24	0.057800	0.864300	0.354810
N251	N25	0.052220	0.562420	0.062110
N261	N26	0.184980	0.565040	0.866210
N271	N27	0.057800	0.490510	0.135700
N281	N28	0.447780	0.937890	0.437580
N291	N29	0.315020	0.133790	0.434960
N301	N30	0.442200	0.864300	0.509490
N311	N31	0.447780	0.562420	0.500310
N321	N32	0.315020	0.565040	0.698830
N331	N33	0.442200	0.490510	0.354810
N341	N34	0.447780	0.499690	0.062110
N351	N35	0.315020	0.301170	0.866210
N361	N36	0.442200	0.645190	0.135700
O11	O1	0.190990	0.450080	0.683750
O21	O2	0.153750	0.557220	0.711210
O31	O3	0.190990	0.233670	0.549920
O41	O4	0.153750	0.153990	0.442780
O51	O5	0.190990	0.316250	0.766330
O61	O6	0.153750	0.288790	0.846010
O71	O7	0.309010	0.233670	0.683750
O81	O8	0.346250	0.153990	0.711210
O91	O9	0.309010	0.316250	0.549920
O101	O10	0.346250	0.288790	0.442780
O111	O11	0.309010	0.450080	0.766330
O121	O12	0.346250	0.557220	0.846010
O131	O13	0.809010	0.549920	0.316250
O141	O14	0.846250	0.442780	0.288790
O151	O15	0.809010	0.766330	0.450080
O161	O16	0.846250	0.846010	0.557220
O171	O17	0.809010	0.683750	0.233670
O181	O18	0.846250	0.711210	0.153990
O191	O19	0.690990	0.766330	0.316250
O201	O20	0.653750	0.846010	0.288790
O211	O21	0.690990	0.683750	0.450080
O221	O22	0.653750	0.711210	0.557220
O231	O23	0.690990	0.549920	0.233670
O241	O24	0.653750	0.442780	0.153990
