data_SUKNUI_charged_PM
_symmetry_space_group_name_H-M	'P1'
_cell_length_a	20.143200
_cell_length_b	20.143200
_cell_length_c	21.962000
_cell_angle_alpha	90.000000
_cell_angle_beta	90.000000
_cell_angle_gamma	120.000000
_symmetry_Int_Tables_number 1

loop_
_symmetry_equiv_pos_as_xyz
'x,y,z'

loop_
_atom_site_label
_atom_site_type_symbol
_atom_site_fract_x
_atom_site_fract_y
_atom_site_fract_z
Na11	Na1	0.333330	0.666660	0.250000
Na21	Na2	0.666670	0.333340	0.750000
Cd11	Cd1	0.224400	0.448800	0.250000
Cd21	Cd2	0.224400	0.775600	0.250000
Cd31	Cd3	0.551200	0.775600	0.250000
Cd41	Cd4	0.775600	0.551200	0.750000
Cd51	Cd5	0.775600	0.224400	0.750000
Cd61	Cd6	0.448800	0.224400	0.750000
H11	H1	0.095100	0.449800	0.436100
H21	H2	0.246300	0.715600	0.467300
H31	H3	0.249900	0.656700	0.377100
H41	H4	0.022300	0.402200	0.505000
H51	H5	0.996800	0.466600	0.650100
H61	H6	0.910100	0.395900	0.720600
H71	H7	0.841700	0.205100	0.627000
H81	H8	0.930200	0.275600	0.553400
H91	H9	0.146000	0.621000	0.595300
H101	H10	0.133000	0.671600	0.565900
H111	H11	0.354700	0.904900	0.436100
H121	H12	0.469300	0.753700	0.467300
H131	H13	0.406800	0.750100	0.377100
H141	H14	0.379900	0.977700	0.505000
H151	H15	0.469800	0.003200	0.650100
H161	H16	0.485800	0.089900	0.720600
H171	H17	0.363400	0.158300	0.627000
H181	H18	0.345400	0.069800	0.553400
H191	H19	0.475000	0.854000	0.595300
H201	H20	0.538600	0.867000	0.565900
H211	H21	0.550200	0.645300	0.436100
H221	H22	0.284400	0.530700	0.467300
H231	H23	0.343300	0.593200	0.377100
H241	H24	0.597800	0.620100	0.505000
H251	H25	0.533400	0.530200	0.650100
H261	H26	0.604100	0.514200	0.720600
H271	H27	0.794900	0.636600	0.627000
H281	H28	0.724400	0.654600	0.553400
H291	H29	0.379000	0.525000	0.595300
H301	H30	0.328400	0.461400	0.565900
H311	H31	0.354700	0.449800	0.063900
H321	H32	0.469300	0.715600	0.032700
H331	H33	0.406800	0.656700	0.122900
H341	H34	0.379900	0.402200	0.995000
H351	H35	0.469800	0.466600	0.849900
H361	H36	0.485800	0.395900	0.779400
H371	H37	0.363400	0.205100	0.873000
H381	H38	0.345400	0.275600	0.946600
H391	H39	0.475000	0.621000	0.904700
H401	H40	0.538600	0.671600	0.934100
H411	H41	0.550200	0.904900	0.063900
H421	H42	0.284400	0.753700	0.032700
H431	H43	0.343300	0.750100	0.122900
H441	H44	0.597800	0.977700	0.995000
H451	H45	0.533400	0.003200	0.849900
H461	H46	0.604100	0.089900	0.779400
H471	H47	0.794900	0.158300	0.873000
H481	H48	0.724400	0.069800	0.946600
H491	H49	0.379000	0.854000	0.904700
H501	H50	0.328400	0.867000	0.934100
H511	H51	0.095100	0.645300	0.063900
H521	H52	0.246300	0.530700	0.032700
H531	H53	0.249900	0.593200	0.122900
H541	H54	0.022300	0.620100	0.995000
H551	H55	0.996800	0.530200	0.849900
H561	H56	0.910100	0.514200	0.779400
H571	H57	0.841700	0.636600	0.873000
H581	H58	0.930200	0.654600	0.946600
H591	H59	0.146000	0.525000	0.904700
H601	H60	0.133000	0.461400	0.934100
H611	H61	0.904900	0.550200	0.563900
H621	H62	0.753700	0.284400	0.532700
H631	H63	0.750100	0.343300	0.622900
H641	H64	0.977700	0.597800	0.495000
H651	H65	0.003200	0.533400	0.349900
H661	H66	0.089900	0.604100	0.279400
H671	H67	0.158300	0.794900	0.373000
H681	H68	0.069800	0.724400	0.446600
H691	H69	0.854000	0.379000	0.404700
H701	H70	0.867000	0.328400	0.434100
H711	H71	0.645300	0.095100	0.563900
H721	H72	0.530700	0.246300	0.532700
H731	H73	0.593200	0.249900	0.622900
H741	H74	0.620100	0.022300	0.495000
H751	H75	0.530200	0.996800	0.349900
H761	H76	0.514200	0.910100	0.279400
H771	H77	0.636600	0.841700	0.373000
H781	H78	0.654600	0.930200	0.446600
H791	H79	0.525000	0.146000	0.404700
H801	H80	0.461400	0.133000	0.434100
H811	H81	0.449800	0.354700	0.563900
H821	H82	0.715600	0.469300	0.532700
H831	H83	0.656700	0.406800	0.622900
H841	H84	0.402200	0.379900	0.495000
H851	H85	0.466600	0.469800	0.349900
H861	H86	0.395900	0.485800	0.279400
H871	H87	0.205100	0.363400	0.373000
H881	H88	0.275600	0.345400	0.446600
H891	H89	0.621000	0.475000	0.404700
H901	H90	0.671600	0.538600	0.434100
H911	H91	0.645300	0.550200	0.936100
H921	H92	0.530700	0.284400	0.967300
H931	H93	0.593200	0.343300	0.877100
H941	H94	0.620100	0.597800	0.005000
H951	H95	0.530200	0.533400	0.150100
H961	H96	0.514200	0.604100	0.220600
H971	H97	0.636600	0.794900	0.127000
H981	H98	0.654600	0.724400	0.053400
H991	H99	0.525000	0.379000	0.095300
H1001	H100	0.461400	0.328400	0.065900
H1011	H101	0.449800	0.095100	0.936100
H1021	H102	0.715600	0.246300	0.967300
H1031	H103	0.656700	0.249900	0.877100
H1041	H104	0.402200	0.022300	0.005000
H1051	H105	0.466600	0.996800	0.150100
H1061	H106	0.395900	0.910100	0.220600
H1071	H107	0.205100	0.841700	0.127000
H1081	H108	0.275600	0.930200	0.053400
H1091	H109	0.621000	0.146000	0.095300
H1101	H110	0.671600	0.133000	0.065900
H1111	H111	0.904900	0.354700	0.936100
H1121	H112	0.753700	0.469300	0.967300
H1131	H113	0.750100	0.406800	0.877100
H1141	H114	0.977700	0.379900	0.005000
H1151	H115	0.003200	0.469800	0.150100
H1161	H116	0.089900	0.485800	0.220600
H1171	H117	0.158300	0.363400	0.127000
H1181	H118	0.069800	0.345400	0.053400
H1191	H119	0.854000	0.475000	0.095300
H1201	H120	0.867000	0.538600	0.065900
C11	C1	0.182500	0.511800	0.341800
C21	C2	0.173500	0.546600	0.398900
C31	C3	0.124700	0.502200	0.442800
C41	C4	0.117100	0.531900	0.497600
C51	C5	0.162400	0.615100	0.508500
C61	C6	0.215300	0.663100	0.461900
C71	C7	0.217600	0.626600	0.408300
C81	C8	0.024200	0.426100	0.541700
C91	C9	0.970900	0.377300	0.591000
C101	C10	0.965400	0.414100	0.644600
C111	C11	0.914900	0.371900	0.686100
C121	C12	0.873200	0.257800	0.631400
C131	C13	0.925700	0.300700	0.587400
C141	C14	0.329300	0.817500	0.341800
C151	C15	0.373100	0.826500	0.398900
C161	C16	0.377500	0.875300	0.442800
C171	C17	0.414800	0.882900	0.497600
C181	C18	0.452700	0.837600	0.508500
C191	C19	0.447800	0.784700	0.461900
C201	C20	0.409000	0.782400	0.408300
C211	C21	0.401900	0.975800	0.541700
C221	C22	0.406400	0.029100	0.591000
C231	C23	0.448700	0.034600	0.644600
C241	C24	0.457000	0.085100	0.686100
C251	C25	0.384600	0.126800	0.631400
C261	C26	0.375000	0.074300	0.587400
C271	C27	0.488200	0.670700	0.341800
C281	C28	0.453400	0.626900	0.398900
C291	C29	0.497800	0.622500	0.442800
C301	C30	0.468100	0.585200	0.497600
C311	C31	0.384900	0.547300	0.508500
C321	C32	0.336900	0.552200	0.461900
C331	C33	0.373400	0.591000	0.408300
C341	C34	0.573900	0.598100	0.541700
C351	C35	0.622700	0.593600	0.591000
C361	C36	0.585900	0.551300	0.644600
C371	C37	0.628100	0.543000	0.686100
C381	C38	0.742200	0.615400	0.631400
C391	C39	0.699300	0.625000	0.587400
C401	C40	0.329300	0.511800	0.158200
C411	C41	0.373100	0.546600	0.101100
C421	C42	0.377500	0.502200	0.057200
C431	C43	0.414800	0.531900	0.002400
C441	C44	0.452700	0.615100	0.991500
C451	C45	0.447800	0.663100	0.038100
C461	C46	0.409000	0.626600	0.091700
C471	C47	0.401900	0.426100	0.958300
C481	C48	0.406400	0.377300	0.909000
C491	C49	0.448700	0.414100	0.855400
C501	C50	0.457000	0.371900	0.813900
C511	C51	0.384600	0.257800	0.868600
C521	C52	0.375000	0.300700	0.912600
C531	C53	0.488200	0.817500	0.158200
C541	C54	0.453400	0.826500	0.101100
C551	C55	0.497800	0.875300	0.057200
C561	C56	0.468100	0.882900	0.002400
C571	C57	0.384900	0.837600	0.991500
C581	C58	0.336900	0.784700	0.038100
C591	C59	0.373400	0.782400	0.091700
C601	C60	0.573900	0.975800	0.958300
C611	C61	0.622700	0.029100	0.909000
C621	C62	0.585900	0.034600	0.855400
C631	C63	0.628100	0.085100	0.813900
C641	C64	0.742200	0.126800	0.868600
C651	C65	0.699300	0.074300	0.912600
C661	C66	0.182500	0.670700	0.158200
C671	C67	0.173500	0.626900	0.101100
C681	C68	0.124700	0.622500	0.057200
C691	C69	0.117100	0.585200	0.002400
C701	C70	0.162400	0.547300	0.991500
C711	C71	0.215300	0.552200	0.038100
C721	C72	0.217600	0.591000	0.091700
C731	C73	0.024200	0.598100	0.958300
C741	C74	0.970900	0.593600	0.909000
C751	C75	0.965400	0.551300	0.855400
C761	C76	0.914900	0.543000	0.813900
C771	C77	0.873200	0.615400	0.868600
C781	C78	0.925700	0.625000	0.912600
C791	C79	0.817500	0.488200	0.658200
C801	C80	0.826500	0.453400	0.601100
C811	C81	0.875300	0.497800	0.557200
C821	C82	0.882900	0.468100	0.502400
C831	C83	0.837600	0.384900	0.491500
C841	C84	0.784700	0.336900	0.538100
C851	C85	0.782400	0.373400	0.591700
C861	C86	0.975800	0.573900	0.458300
C871	C87	0.029100	0.622700	0.409000
C881	C88	0.034600	0.585900	0.355400
C891	C89	0.085100	0.628100	0.313900
C901	C90	0.126800	0.742200	0.368600
C911	C91	0.074300	0.699300	0.412600
C921	C92	0.670700	0.182500	0.658200
C931	C93	0.626900	0.173500	0.601100
C941	C94	0.622500	0.124700	0.557200
C951	C95	0.585200	0.117100	0.502400
C961	C96	0.547300	0.162400	0.491500
C971	C97	0.552200	0.215300	0.538100
C981	C98	0.591000	0.217600	0.591700
C991	C99	0.598100	0.024200	0.458300
C1001	C100	0.593600	0.970900	0.409000
C1011	C101	0.551300	0.965400	0.355400
C1021	C102	0.543000	0.914900	0.313900
C1031	C103	0.615400	0.873200	0.368600
C1041	C104	0.625000	0.925700	0.412600
C1051	C105	0.511800	0.329300	0.658200
C1061	C106	0.546600	0.373100	0.601100
C1071	C107	0.502200	0.377500	0.557200
C1081	C108	0.531900	0.414800	0.502400
C1091	C109	0.615100	0.452700	0.491500
C1101	C110	0.663100	0.447800	0.538100
C1111	C111	0.626600	0.409000	0.591700
C1121	C112	0.426100	0.401900	0.458300
C1131	C113	0.377300	0.406400	0.409000
C1141	C114	0.414100	0.448700	0.355400
C1151	C115	0.371900	0.457000	0.313900
C1161	C116	0.257800	0.384600	0.368600
C1171	C117	0.300700	0.375000	0.412600
C1181	C118	0.670700	0.488200	0.841800
C1191	C119	0.626900	0.453400	0.898900
C1201	C120	0.622500	0.497800	0.942800
C1211	C121	0.585200	0.468100	0.997600
C1221	C122	0.547300	0.384900	0.008500
C1231	C123	0.552200	0.336900	0.961900
C1241	C124	0.591000	0.373400	0.908300
C1251	C125	0.598100	0.573900	0.041700
C1261	C126	0.593600	0.622700	0.091000
C1271	C127	0.551300	0.585900	0.144600
C1281	C128	0.543000	0.628100	0.186100
C1291	C129	0.615400	0.742200	0.131400
C1301	C130	0.625000	0.699300	0.087400
C1311	C131	0.511800	0.182500	0.841800
C1321	C132	0.546600	0.173500	0.898900
C1331	C133	0.502200	0.124700	0.942800
C1341	C134	0.531900	0.117100	0.997600
C1351	C135	0.615100	0.162400	0.008500
C1361	C136	0.663100	0.215300	0.961900
C1371	C137	0.626600	0.217600	0.908300
C1381	C138	0.426100	0.024200	0.041700
C1391	C139	0.377300	0.970900	0.091000
C1401	C140	0.414100	0.965400	0.144600
C1411	C141	0.371900	0.914900	0.186100
C1421	C142	0.257800	0.873200	0.131400
C1431	C143	0.300700	0.925700	0.087400
C1441	C144	0.817500	0.329300	0.841800
C1451	C145	0.826500	0.373100	0.898900
C1461	C146	0.875300	0.377500	0.942800
C1471	C147	0.882900	0.414800	0.997600
C1481	C148	0.837600	0.452700	0.008500
C1491	C149	0.784700	0.447800	0.961900
C1501	C150	0.782400	0.409000	0.908300
C1511	C151	0.975800	0.401900	0.041700
C1521	C152	0.029100	0.406400	0.091000
C1531	C153	0.034600	0.448700	0.144600
C1541	C154	0.085100	0.457000	0.186100
C1551	C155	0.126800	0.384600	0.131400
C1561	C156	0.074300	0.375000	0.087400
N11	N1	0.070600	0.495600	0.545600
N21	N2	0.868800	0.294100	0.680800
N31	N3	0.154000	0.644700	0.562000
N41	N4	0.425000	0.929400	0.545600
N51	N5	0.425300	0.131200	0.680800
N61	N6	0.490700	0.846000	0.562000
N71	N7	0.504400	0.575000	0.545600
N81	N8	0.705900	0.574700	0.680800
N91	N9	0.355300	0.509300	0.562000
N101	N10	0.425000	0.495600	0.954400
N111	N11	0.425300	0.294100	0.819200
N121	N12	0.490700	0.644700	0.938000
N131	N13	0.504400	0.929400	0.954400
N141	N14	0.705900	0.131200	0.819200
N151	N15	0.355300	0.846000	0.938000
N161	N16	0.070600	0.575000	0.954400
N171	N17	0.868800	0.574700	0.819200
N181	N18	0.154000	0.509300	0.938000
N191	N19	0.929400	0.504400	0.454400
N201	N20	0.131200	0.705900	0.319200
N211	N21	0.846000	0.355300	0.438000
N221	N22	0.575000	0.070600	0.454400
N231	N23	0.574700	0.868800	0.319200
N241	N24	0.509300	0.154000	0.438000
N251	N25	0.495600	0.425000	0.454400
N261	N26	0.294100	0.425300	0.319200
N271	N27	0.644700	0.490700	0.438000
N281	N28	0.575000	0.504400	0.045600
N291	N29	0.574700	0.705900	0.180800
N301	N30	0.509300	0.355300	0.062000
N311	N31	0.495600	0.070600	0.045600
N321	N32	0.294100	0.868800	0.180800
N331	N33	0.644700	0.154000	0.062000
N341	N34	0.929400	0.425000	0.045600
N351	N35	0.131200	0.425300	0.180800
N361	N36	0.846000	0.490700	0.062000
O11	O1	0.234500	0.557300	0.303900
O21	O2	0.140100	0.443100	0.332800
O31	O3	0.322800	0.765500	0.303900
O41	O4	0.303000	0.859900	0.332800
O51	O5	0.442700	0.677200	0.303900
O61	O6	0.556900	0.697000	0.332800
O71	O7	0.322800	0.557300	0.196100
O81	O8	0.303000	0.443100	0.167200
O91	O9	0.442700	0.765500	0.196100
O101	O10	0.556900	0.859900	0.167200
O111	O11	0.234500	0.677200	0.196100
O121	O12	0.140100	0.697000	0.167200
O131	O13	0.765500	0.442700	0.696100
O141	O14	0.859900	0.556900	0.667200
O151	O15	0.677200	0.234500	0.696100
O161	O16	0.697000	0.140100	0.667200
O171	O17	0.557300	0.322800	0.696100
O181	O18	0.443100	0.303000	0.667200
O191	O19	0.677200	0.442700	0.803900
O201	O20	0.697000	0.556900	0.832800
O211	O21	0.557300	0.234500	0.803900
O221	O22	0.443100	0.140100	0.832800
O231	O23	0.765500	0.322800	0.803900
O241	O24	0.859900	0.303000	0.832800
