data_SUKREX_clean_PM
_symmetry_space_group_name_H-M	'P1'
_cell_length_a	9.246700
_cell_length_b	10.715000
_cell_length_c	10.840000
_cell_angle_alpha	86.190000
_cell_angle_beta	84.050000
_cell_angle_gamma	81.420000
_symmetry_Int_Tables_number 1

loop_
_symmetry_equiv_pos_as_xyz
'x,y,z'

loop_
_atom_site_label
_atom_site_type_symbol
_atom_site_fract_x
_atom_site_fract_y
_atom_site_fract_z
La11	La1	0.530600	0.739540	0.719670
La21	La2	0.478110	0.823000	0.314050
C11	C1	0.289200	0.989600	0.867000
C21	C2	0.143000	0.994900	0.942200
C31	C3	0.024400	0.055100	0.882500
H11	H1	0.040500	0.093400	0.803700
C41	C4	0.881100	0.059300	0.938700
C51	C5	0.756000	0.115600	0.862900
C61	C6	0.782100	0.879100	0.650400
C71	C7	0.897200	0.940000	0.573000
C81	C8	0.043200	0.917100	0.598800
H21	H2	0.071600	0.860900	0.664000
C91	C9	0.146000	0.978700	0.526600
C101	C10	0.303200	0.966900	0.559300
C111	C11	0.280600	0.547600	0.369700
C121	C12	0.135700	0.518800	0.438700
C131	C13	0.007500	0.593200	0.404900
H31	H3	0.012600	0.656000	0.341800
C141	C14	0.871300	0.573400	0.465500
C151	C15	0.737200	0.651000	0.421900
O11	O1	0.383500	0.859300	0.545300
O21	O2	0.623900	0.676900	0.498600
O31	O3	0.628900	0.092000	0.899700
O41	O4	0.781500	0.176300	0.763700
O51	O5	0.342600	0.060300	0.598000
O61	O6	0.347000	0.088500	0.848500
O71	O7	0.735500	0.687900	0.310500
O81	O8	0.808500	0.767400	0.692200
O91	O9	0.653600	0.943600	0.668400
O101	O10	0.341600	0.631100	0.408600
O111	O11	0.328600	0.486000	0.273300
O121	O12	0.335700	0.885700	0.817500
La31	La3	0.469400	0.260460	0.280330
La41	La4	0.521890	0.177000	0.685950
C161	C16	0.710800	0.010400	0.133000
C171	C17	0.857000	0.005100	0.057800
C181	C18	0.975600	0.944900	0.117500
H41	H4	0.959500	0.906600	0.196300
C191	C19	0.118900	0.940700	0.061300
C201	C20	0.244000	0.884400	0.137100
C211	C21	0.217900	0.120900	0.349600
C221	C22	0.102800	0.060000	0.427000
C231	C23	0.956800	0.082900	0.401200
H51	H5	0.928400	0.139100	0.336000
C241	C24	0.854000	0.021300	0.473400
C251	C25	0.696800	0.033100	0.440700
C261	C26	0.719400	0.452400	0.630300
C271	C27	0.864300	0.481200	0.561300
C281	C28	0.992500	0.406800	0.595100
H61	H6	0.987400	0.344000	0.658200
C291	C29	0.128700	0.426600	0.534500
C301	C30	0.262800	0.349000	0.578100
O131	O13	0.616500	0.140700	0.454700
O141	O14	0.376100	0.323100	0.501400
O151	O15	0.371100	0.908000	0.100300
O161	O16	0.218500	0.823700	0.236300
O171	O17	0.657400	0.939700	0.402000
O181	O18	0.653000	0.911500	0.151500
O191	O19	0.264500	0.312100	0.689500
O201	O20	0.191500	0.232600	0.307800
O211	O21	0.346400	0.056400	0.331600
O221	O22	0.658400	0.368900	0.591400
O231	O23	0.671400	0.514000	0.726700
O241	O24	0.664300	0.114300	0.182500
