data_SUKYIH_clean_PM
_symmetry_space_group_name_H-M	'P1'
_cell_length_a	12.248000
_cell_length_b	12.248000
_cell_length_c	22.876700
_cell_angle_alpha	90.000000
_cell_angle_beta	90.000000
_cell_angle_gamma	90.000000
_symmetry_Int_Tables_number 1

loop_
_symmetry_equiv_pos_as_xyz
'x,y,z'

loop_
_atom_site_label
_atom_site_type_symbol
_atom_site_fract_x
_atom_site_fract_y
_atom_site_fract_z
Cu11	Cu1	0.000000	0.607710	0.000000
Cu21	Cu2	0.000000	0.392290	0.000000
Cu31	Cu3	0.392290	0.000000	0.500000
Cu41	Cu4	0.607710	0.000000	0.500000
H11	H1	0.611100	0.662000	0.801300
H21	H2	0.746500	0.662300	0.870400
H31	H3	0.388900	0.338000	0.801300
H41	H4	0.253500	0.337700	0.870400
H51	H5	0.338000	0.611100	0.301300
H61	H6	0.337700	0.746500	0.370400
H71	H7	0.662000	0.388900	0.301300
H81	H8	0.662300	0.253500	0.370400
H91	H9	0.388900	0.662000	0.198700
H101	H10	0.253500	0.662300	0.129600
H111	H11	0.611100	0.338000	0.198700
H121	H12	0.746500	0.337700	0.129600
H131	H13	0.662000	0.611100	0.698700
H141	H14	0.662300	0.746500	0.629600
H151	H15	0.338000	0.388900	0.698700
H161	H16	0.337700	0.253500	0.629600
H171	H17	0.388900	0.338000	0.198700
H181	H18	0.253500	0.337700	0.129600
H191	H19	0.611100	0.662000	0.198700
H201	H20	0.746500	0.662300	0.129600
H211	H21	0.662000	0.388900	0.698700
H221	H22	0.662300	0.253500	0.629600
H231	H23	0.338000	0.611100	0.698700
H241	H24	0.337700	0.746500	0.629600
H251	H25	0.611100	0.338000	0.801300
H261	H26	0.746500	0.337700	0.870400
H271	H27	0.388900	0.662000	0.801300
H281	H28	0.253500	0.662300	0.870400
H291	H29	0.338000	0.388900	0.301300
H301	H30	0.337700	0.253500	0.370400
H311	H31	0.662000	0.611100	0.301300
H321	H32	0.662300	0.746500	0.370400
C11	C1	0.639200	0.596100	0.814750
C21	C2	0.720000	0.596200	0.856400
C31	C3	0.360800	0.403900	0.814750
C41	C4	0.280000	0.403800	0.856400
C51	C5	0.403900	0.639200	0.314750
C61	C6	0.403800	0.720000	0.356400
C71	C7	0.596100	0.360800	0.314750
C81	C8	0.596200	0.280000	0.356400
C91	C9	0.360800	0.596100	0.185250
C101	C10	0.280000	0.596200	0.143600
C111	C11	0.639200	0.403900	0.185250
C121	C12	0.720000	0.403800	0.143600
C131	C13	0.596100	0.639200	0.685250
C141	C14	0.596200	0.720000	0.643600
C151	C15	0.403900	0.360800	0.685250
C161	C16	0.403800	0.280000	0.643600
C171	C17	0.360800	0.403900	0.185250
C181	C18	0.280000	0.403800	0.143600
C191	C19	0.639200	0.596100	0.185250
C201	C20	0.720000	0.596200	0.143600
C211	C21	0.596100	0.360800	0.685250
C221	C22	0.596200	0.280000	0.643600
C231	C23	0.403900	0.639200	0.685250
C241	C24	0.403800	0.720000	0.643600
C251	C25	0.639200	0.403900	0.814750
C261	C26	0.720000	0.403800	0.856400
C271	C27	0.360800	0.596100	0.814750
C281	C28	0.280000	0.596200	0.856400
C291	C29	0.403900	0.360800	0.314750
C301	C30	0.403800	0.280000	0.356400
C311	C31	0.596100	0.639200	0.314750
C321	C32	0.596200	0.720000	0.356400
C331	C33	0.599600	0.500000	0.792800
C341	C34	0.855100	0.500000	0.923600
C351	C35	0.762500	0.500000	0.877700
C361	C36	0.400400	0.500000	0.792800
C371	C37	0.144900	0.500000	0.923600
C381	C38	0.237500	0.500000	0.877700
C391	C39	0.500000	0.599600	0.292800
C401	C40	0.500000	0.855100	0.423600
C411	C41	0.500000	0.762500	0.377700
C421	C42	0.500000	0.400400	0.292800
C431	C43	0.500000	0.144900	0.423600
C441	C44	0.500000	0.237500	0.377700
C451	C45	0.400400	0.500000	0.207200
C461	C46	0.144900	0.500000	0.076400
C471	C47	0.237500	0.500000	0.122300
C481	C48	0.599600	0.500000	0.207200
C491	C49	0.855100	0.500000	0.076400
C501	C50	0.762500	0.500000	0.122300
C511	C51	0.500000	0.599600	0.707200
C521	C52	0.500000	0.855100	0.576400
C531	C53	0.500000	0.762500	0.622300
C541	C54	0.500000	0.400400	0.707200
C551	C55	0.500000	0.144900	0.576400
C561	C56	0.500000	0.237500	0.622300
C571	C57	0.500000	0.500000	0.750000
C581	C58	0.500000	0.500000	0.250000
O11	O1	0.886900	0.592500	0.940470
O21	O2	0.113100	0.407500	0.940470
O31	O3	0.407500	0.886900	0.440470
O41	O4	0.592500	0.113100	0.440470
O51	O5	0.113100	0.592500	0.059530
O61	O6	0.886900	0.407500	0.059530
O71	O7	0.592500	0.886900	0.559530
O81	O8	0.407500	0.113100	0.559530
O91	O9	0.113100	0.407500	0.059530
O101	O10	0.886900	0.592500	0.059530
O111	O11	0.592500	0.113100	0.559530
O121	O12	0.407500	0.886900	0.559530
O131	O13	0.886900	0.407500	0.940470
O141	O14	0.113100	0.592500	0.940470
O151	O15	0.407500	0.113100	0.440470
O161	O16	0.592500	0.886900	0.440470
