data_SUNHUF_clean_PM
_symmetry_space_group_name_H-M	'P1'
_cell_length_a	12.229000
_cell_length_b	14.440000
_cell_length_c	14.515200
_cell_angle_alpha	104.657000
_cell_angle_beta	90.000000
_cell_angle_gamma	90.000000
_symmetry_Int_Tables_number 1

loop_
_symmetry_equiv_pos_as_xyz
'x,y,z'

loop_
_atom_site_label
_atom_site_type_symbol
_atom_site_fract_x
_atom_site_fract_y
_atom_site_fract_z
Nd11	Nd1	0.056080	0.926490	0.093110
Nd21	Nd2	0.556080	0.573510	0.406890
Nd31	Nd3	0.943920	0.073510	0.906890
Nd41	Nd4	0.443920	0.426490	0.593110
H11	H1	0.732600	0.708900	0.952600
H21	H2	0.633000	0.618300	0.827000
H31	H3	0.779400	0.747300	0.649400
H41	H4	0.873100	0.845600	0.775100
H51	H5	0.355200	0.078700	0.086300
H61	H6	0.512000	0.834600	0.964000
H71	H7	0.938900	0.854600	0.407500
H81	H8	0.084700	0.108300	0.428500
H91	H9	0.232600	0.791100	0.547400
H101	H10	0.133000	0.881700	0.673000
H111	H11	0.279400	0.752700	0.850600
H121	H12	0.373100	0.654400	0.724900
H131	H13	0.855200	0.421300	0.413700
H141	H14	0.012000	0.665400	0.536000
H151	H15	0.438900	0.645400	0.092500
H161	H16	0.584700	0.391700	0.071500
H171	H17	0.267400	0.291100	0.047400
H181	H18	0.367000	0.381700	0.173000
H191	H19	0.220600	0.252700	0.350600
H201	H20	0.126900	0.154400	0.224900
H211	H21	0.644800	0.921300	0.913700
H221	H22	0.488000	0.165400	0.036000
H231	H23	0.061100	0.145400	0.592500
H241	H24	0.915300	0.891700	0.571500
H251	H25	0.767400	0.208900	0.452600
H261	H26	0.867000	0.118300	0.327000
H271	H27	0.720600	0.247300	0.149400
H281	H28	0.626900	0.345600	0.275100
H291	H29	0.144800	0.578700	0.586300
H301	H30	0.988000	0.334600	0.464000
H311	H31	0.561100	0.354600	0.907500
H321	H32	0.415300	0.608300	0.928500
C11	C1	0.815000	0.785200	0.877100
C21	C2	0.742300	0.717500	0.891800
C31	C3	0.683500	0.662400	0.816100
C41	C4	0.698400	0.671700	0.725100
C51	C5	0.769500	0.739900	0.710700
C61	C6	0.827000	0.798200	0.785700
C71	C7	0.881100	0.843000	0.957800
C81	C8	0.637100	0.609600	0.642300
C91	C9	0.331000	0.893500	0.066500
C101	C10	0.417800	0.947000	0.031300
C111	C11	0.413800	0.046800	0.051400
C121	C12	0.506800	0.901000	0.978600
C131	C13	0.034600	0.951500	0.296800
C141	C14	0.016800	0.976100	0.401500
C151	C15	0.964100	0.912800	0.444700
C161	C16	0.051400	0.064600	0.456900
C171	C17	0.315000	0.714800	0.622900
C181	C18	0.242300	0.782500	0.608200
C191	C19	0.183500	0.837600	0.683900
C201	C20	0.198400	0.828300	0.774900
C211	C21	0.269500	0.760100	0.789300
C221	C22	0.327000	0.701800	0.714300
C231	C23	0.381100	0.657000	0.542200
C241	C24	0.137100	0.890400	0.857700
C251	C25	0.831000	0.606500	0.433500
C261	C26	0.917800	0.553000	0.468700
C271	C27	0.913800	0.453200	0.448600
C281	C28	0.006800	0.599000	0.521400
C291	C29	0.534600	0.548500	0.203200
C301	C30	0.516800	0.523900	0.098500
C311	C31	0.464100	0.587200	0.055300
C321	C32	0.551400	0.435400	0.043100
C331	C33	0.185000	0.214800	0.122900
C341	C34	0.257700	0.282500	0.108200
C351	C35	0.316500	0.337600	0.183900
C361	C36	0.301600	0.328300	0.274900
C371	C37	0.230500	0.260100	0.289300
C381	C38	0.173000	0.201800	0.214300
C391	C39	0.118900	0.157000	0.042200
C401	C40	0.362900	0.390400	0.357700
C411	C41	0.669000	0.106500	0.933500
C421	C42	0.582200	0.053000	0.968700
C431	C43	0.586200	0.953200	0.948600
C441	C44	0.493200	0.099000	0.021400
C451	C45	0.965400	0.048500	0.703200
C461	C46	0.983200	0.023900	0.598500
C471	C47	0.035900	0.087200	0.555300
C481	C48	0.948600	0.935400	0.543100
C491	C49	0.685000	0.285200	0.377100
C501	C50	0.757700	0.217500	0.391800
C511	C51	0.816500	0.162400	0.316100
C521	C52	0.801600	0.171700	0.225100
C531	C53	0.730500	0.239900	0.210700
C541	C54	0.673000	0.298200	0.285700
C551	C55	0.618900	0.343000	0.457800
C561	C56	0.862900	0.109600	0.142300
C571	C57	0.169000	0.393500	0.566500
C581	C58	0.082200	0.447000	0.531300
C591	C59	0.086200	0.546800	0.551400
C601	C60	0.993200	0.401000	0.478600
C611	C61	0.465400	0.451500	0.796800
C621	C62	0.483200	0.476100	0.901500
C631	C63	0.535900	0.412800	0.944700
C641	C64	0.448600	0.564600	0.956900
O11	O1	0.903300	0.810700	0.026800
O21	O2	0.913900	0.925600	0.953800
O31	O3	0.635500	0.633800	0.565300
O41	O4	0.593200	0.535200	0.656700
O51	O5	0.340000	0.803000	0.050200
O61	O6	0.251300	0.940600	0.111000
O71	O7	0.100700	0.001800	0.263400
O81	O8	0.986200	0.881100	0.243400
O91	O9	0.403300	0.689300	0.473200
O101	O10	0.413900	0.574400	0.546200
O111	O11	0.135500	0.866200	0.934700
O121	O12	0.093200	0.964800	0.843300
O131	O13	0.840000	0.697000	0.449800
O141	O14	0.751300	0.559400	0.389000
O151	O15	0.600700	0.498200	0.236600
O161	O16	0.486200	0.618900	0.256600
O171	O17	0.096700	0.189300	0.973200
O181	O18	0.086100	0.074400	0.046200
O191	O19	0.364500	0.366200	0.434700
O201	O20	0.406800	0.464800	0.343300
O211	O21	0.660000	0.197000	0.949800
O221	O22	0.748700	0.059400	0.889000
O231	O23	0.899300	0.998200	0.736600
O241	O24	0.013800	0.118900	0.756600
O251	O25	0.596700	0.310700	0.526800
O261	O26	0.586100	0.425600	0.453800
O271	O27	0.864500	0.133800	0.065300
O281	O28	0.906800	0.035200	0.156700
O291	O29	0.160000	0.303000	0.550200
O301	O30	0.248700	0.440600	0.611000
O311	O31	0.399300	0.501800	0.763400
O321	O32	0.513800	0.381100	0.743400
