data_SUNHIT_clean_PM
_symmetry_space_group_name_H-M	'P1'
_cell_length_a	8.389800
_cell_length_b	10.655900
_cell_length_c	14.387700
_cell_angle_alpha	101.964000
_cell_angle_beta	102.864000
_cell_angle_gamma	102.681000
_symmetry_Int_Tables_number 1

loop_
_symmetry_equiv_pos_as_xyz
'x,y,z'

loop_
_atom_site_label
_atom_site_type_symbol
_atom_site_fract_x
_atom_site_fract_y
_atom_site_fract_z
Sm11	Sm1	0.342500	0.339380	0.329080
O11	O1	0.339480	0.555000	0.404840
O21	O2	0.536180	0.719270	0.524870
O31	O3	0.271300	0.993050	0.107390
O41	O4	0.424260	0.166950	0.235880
O51	O5	0.088090	0.351910	0.208520
O61	O6	0.333460	0.426420	0.178830
O71	O7	0.124550	0.131140	0.304100
O81	O8	0.109550	0.302490	0.415260
C11	C1	0.411200	0.769990	0.377460
C21	C2	0.282300	0.730570	0.288610
H11	H1	0.206400	0.645700	0.269000
C31	C3	0.266200	0.817070	0.228940
H21	H2	0.183900	0.788000	0.168000
C41	C4	0.373700	0.947980	0.260420
C51	C5	0.500800	0.988150	0.349710
H31	H3	0.572200	0.074900	0.371400
C61	C6	0.521600	0.898990	0.406940
H41	H4	0.609800	0.925600	0.465300
C71	C7	0.431600	0.674480	0.440560
C81	C8	0.351700	0.041350	0.195190
C91	C9	0.083900	0.455970	0.076630
C101	C10	0.909400	0.441500	0.057400
H51	H5	0.848900	0.402300	0.095800
C111	C11	0.174200	0.514900	0.018700
H61	H6	0.290500	0.524800	0.031200
C121	C12	0.173400	0.408100	0.158770
C131	C13	0.036000	0.085490	0.441800
C141	C14	0.068700	0.961100	0.422870
H71	H7	0.114400	0.935200	0.371100
C151	C15	0.967000	0.124000	0.518600
H81	H8	0.944800	0.206700	0.530900
C161	C16	0.088600	0.178480	0.382600
Sm21	Sm2	0.657500	0.660620	0.670920
O91	O9	0.660520	0.445000	0.595160
O101	O10	0.463820	0.280730	0.475130
O111	O11	0.728700	0.006950	0.892610
O121	O12	0.575740	0.833050	0.764120
O131	O13	0.911910	0.648090	0.791480
O141	O14	0.666540	0.573580	0.821170
O151	O15	0.875450	0.868860	0.695900
O161	O16	0.890450	0.697510	0.584740
C171	C17	0.588800	0.230010	0.622540
C181	C18	0.717700	0.269430	0.711390
H91	H9	0.793600	0.354300	0.731000
C191	C19	0.733800	0.182930	0.771060
H101	H10	0.816100	0.212000	0.832000
C201	C20	0.626300	0.052020	0.739580
C211	C21	0.499200	0.011850	0.650290
H111	H11	0.427800	0.925100	0.628600
C221	C22	0.478400	0.101010	0.593060
H121	H12	0.390200	0.074400	0.534700
C231	C23	0.568400	0.325520	0.559440
C241	C24	0.648300	0.958650	0.804810
C251	C25	0.916100	0.544030	0.923370
C261	C26	0.090600	0.558500	0.942600
H131	H13	0.151100	0.597700	0.904200
C271	C27	0.825800	0.485100	0.981300
H141	H14	0.709500	0.475200	0.968800
C281	C28	0.826600	0.591900	0.841230
C291	C29	0.964000	0.914510	0.558200
C301	C30	0.931300	0.038900	0.577130
H151	H15	0.885600	0.064800	0.628900
C311	C31	0.033000	0.876000	0.481400
H161	H16	0.055200	0.793300	0.469100
C321	C32	0.911400	0.821520	0.617400
