data_SUNHEP_clean_PM
_symmetry_space_group_name_H-M	'P1'
_cell_length_a	8.403400
_cell_length_b	10.533400
_cell_length_c	14.351500
_cell_angle_alpha	100.830000
_cell_angle_beta	103.410000
_cell_angle_gamma	101.560000
_symmetry_Int_Tables_number 1

loop_
_symmetry_equiv_pos_as_xyz
'x,y,z'

loop_
_atom_site_label
_atom_site_type_symbol
_atom_site_fract_x
_atom_site_fract_y
_atom_site_fract_z
Yb11	Yb1	0.154340	0.159480	0.170180
O11	O1	0.152400	0.952500	0.096040
O21	O2	0.969500	0.790400	0.971830
O31	O3	0.075200	0.326000	0.258760
O41	O4	0.219800	0.495600	0.387500
O51	O5	0.167200	0.075900	0.316920
O61	O6	0.406900	0.145100	0.285060
O71	O7	0.354300	0.360800	0.188490
O81	O8	0.376500	0.191700	0.080620
C11	C1	0.085900	0.734000	0.120800
C21	C2	0.211600	0.768900	0.210500
H11	H1	0.286200	0.853500	0.231600
C31	C3	0.225400	0.678300	0.267800
H21	H2	0.306200	0.704200	0.329000
C41	C4	0.120900	0.548600	0.236300
C51	C5	0.996800	0.513400	0.146000
H31	H3	0.926200	0.427300	0.123100
C61	C6	0.978300	0.606600	0.089900
H41	H4	0.892500	0.583000	0.030800
C71	C7	0.067200	0.833700	0.058300
C81	C8	0.143200	0.450400	0.299700
C91	C9	0.416100	0.044700	0.421200
C101	C10	0.326700	0.979200	0.476700
H51	H5	0.209800	0.965300	0.461400
C111	C11	0.324700	0.091500	0.337100
C121	C12	0.458100	0.411900	0.056300
C131	C13	0.531500	0.374600	0.982100
H61	H6	0.552700	0.290600	0.969900
C141	C14	0.426600	0.537000	0.074200
H71	H7	0.377300	0.562000	0.124200
C151	C15	0.397000	0.315600	0.112400
C161	C16	0.590100	0.065000	0.446100
H81	H8	0.651700	0.109000	0.410300
Yb21	Yb2	0.845660	0.840520	0.829820
O91	O9	0.847600	0.047500	0.903960
O101	O10	0.030500	0.209600	0.028170
O111	O11	0.924800	0.674000	0.741240
O121	O12	0.780200	0.504400	0.612500
O131	O13	0.832800	0.924100	0.683080
O141	O14	0.593100	0.854900	0.714940
O151	O15	0.645700	0.639200	0.811510
O161	O16	0.623500	0.808300	0.919380
C171	C17	0.914100	0.266000	0.879200
C181	C18	0.788400	0.231100	0.789500
H91	H9	0.713800	0.146500	0.768400
C191	C19	0.774600	0.321700	0.732200
H101	H10	0.693800	0.295800	0.671000
C201	C20	0.879100	0.451400	0.763700
C211	C21	0.003200	0.486600	0.854000
H111	H11	0.073800	0.572700	0.876900
C221	C22	0.021700	0.393400	0.910100
H121	H12	0.107500	0.417000	0.969200
C231	C23	0.932800	0.166300	0.941700
C241	C24	0.856800	0.549600	0.700300
C251	C25	0.583900	0.955300	0.578800
C261	C26	0.673300	0.020800	0.523300
H131	H13	0.790200	0.034700	0.538600
C271	C27	0.675300	0.908500	0.662900
C281	C28	0.541900	0.588100	0.943700
C291	C29	0.468500	0.625400	0.017900
H141	H14	0.447300	0.709400	0.030100
C301	C30	0.573400	0.463000	0.925800
H151	H15	0.622700	0.438000	0.875800
C311	C31	0.603000	0.684400	0.887600
C321	C32	0.409900	0.935000	0.553900
H161	H16	0.348300	0.891000	0.589700
