data_SUNJOB_clean_PM
_symmetry_space_group_name_H-M	'P1'
_cell_length_a	9.811300
_cell_length_b	10.418800
_cell_length_c	11.076800
_cell_angle_alpha	76.721000
_cell_angle_beta	76.242000
_cell_angle_gamma	65.932000
_symmetry_Int_Tables_number 1

loop_
_symmetry_equiv_pos_as_xyz
'x,y,z'

loop_
_atom_site_label
_atom_site_type_symbol
_atom_site_fract_x
_atom_site_fract_y
_atom_site_fract_z
Ho11	Ho1	0.945220	0.228250	0.322920
Ho21	Ho2	0.054780	0.771750	0.677080
H11	H1	0.455300	0.185000	0.104900
H21	H2	0.307500	0.922200	0.006800
H31	H3	0.435800	0.415600	0.209000
H41	H4	0.740800	0.502500	0.923400
H51	H5	0.399500	0.882400	0.679600
H61	H6	0.349600	0.141800	0.349700
H71	H7	0.544700	0.815000	0.895100
H81	H8	0.692500	0.077800	0.993200
H91	H9	0.564200	0.584400	0.791000
H101	H10	0.259200	0.497500	0.076600
H111	H11	0.600500	0.117600	0.320400
H121	H12	0.650400	0.858200	0.650300
C11	C1	0.356500	0.065900	0.067200
C21	C2	0.473000	0.110800	0.062700
C31	C3	0.384500	0.953700	0.004100
C41	C4	0.205200	0.132300	0.146400
C51	C5	0.607900	0.448300	0.079300
C61	C6	0.461500	0.449100	0.124900
C71	C7	0.644600	0.501000	0.954100
C81	C8	0.724200	0.389500	0.165400
C91	C9	0.350700	0.013300	0.516800
C101	C10	0.440200	0.929300	0.607400
C111	C11	0.409900	0.084800	0.409700
C121	C12	0.190300	0.023000	0.532800
C131	C13	0.643500	0.934100	0.932800
C141	C14	0.527000	0.889200	0.937300
C151	C15	0.615500	0.046300	0.995900
C161	C16	0.794800	0.867700	0.853600
C171	C17	0.392100	0.551700	0.920700
C181	C18	0.538500	0.550900	0.875100
C191	C19	0.355400	0.499000	0.045900
C201	C20	0.275800	0.610500	0.834600
C211	C21	0.649300	0.986700	0.483200
C221	C22	0.559800	0.070700	0.392600
C231	C23	0.590100	0.915200	0.590300
C241	C24	0.809700	0.977000	0.467200
O11	O1	0.115700	0.065700	0.178820
O21	O2	0.172800	0.248100	0.182120
O31	O3	0.686200	0.350500	0.279420
O41	O4	0.859100	0.375800	0.122670
O51	O5	0.141900	0.952000	0.627770
O61	O6	0.115500	0.102600	0.448640
O71	O7	0.884300	0.934300	0.821180
O81	O8	0.827200	0.751900	0.817880
O91	O9	0.313800	0.649500	0.720580
O101	O10	0.140900	0.624200	0.877330
O111	O11	0.858100	0.048000	0.372230
O121	O12	0.884500	0.897400	0.551360
