data_SUQHUJ_clean_PM
_symmetry_space_group_name_H-M	'P1'
_cell_length_a	13.950800
_cell_length_b	13.950800
_cell_length_c	22.402000
_cell_angle_alpha	90.000000
_cell_angle_beta	90.000000
_cell_angle_gamma	120.000000
_symmetry_Int_Tables_number 1

loop_
_symmetry_equiv_pos_as_xyz
'x,y,z'

loop_
_atom_site_label
_atom_site_type_symbol
_atom_site_fract_x
_atom_site_fract_y
_atom_site_fract_z
O11	O1	0.432400	0.555100	0.091200
O21	O2	0.249100	0.440500	0.109100
C11	C1	0.337300	0.468600	0.082800
C21	C2	0.329300	0.388600	0.035900
C31	C3	0.250300	0.289600	0.023400
H11	H1	0.181300	0.251700	0.041700
O31	O3	0.099070	0.888430	0.424530
O41	O4	0.915770	0.773830	0.442430
C41	C4	0.003970	0.801930	0.416130
C51	C5	0.995970	0.721930	0.369230
C61	C6	0.916970	0.622930	0.356730
H21	H2	0.847970	0.585030	0.375030
O51	O5	0.765730	0.221770	0.757870
O61	O6	0.582430	0.107170	0.775770
C71	C7	0.670630	0.135270	0.749470
C81	C8	0.662630	0.055270	0.702570
C91	C9	0.583630	0.956270	0.690070
H31	H3	0.514630	0.918370	0.708370
O71	O7	0.444900	0.877300	0.091200
O81	O8	0.559500	0.808600	0.109100
C101	C10	0.531400	0.868700	0.082800
C111	C11	0.611400	0.940700	0.035900
C121	C12	0.710400	0.960700	0.023400
H41	H4	0.748300	0.929600	0.041700
O91	O9	0.111570	0.210630	0.424530
O101	O10	0.226170	0.141930	0.442430
C131	C13	0.198070	0.202030	0.416130
C141	C14	0.278070	0.274030	0.369230
C151	C15	0.377070	0.294030	0.356730
H51	H5	0.414970	0.262930	0.375030
O111	O11	0.778230	0.543970	0.757870
O121	O12	0.892830	0.475270	0.775770
C161	C16	0.864730	0.535370	0.749470
C171	C17	0.944730	0.607370	0.702570
C181	C18	0.043730	0.627370	0.690070
H61	H6	0.081630	0.596270	0.708370
O131	O13	0.122700	0.567600	0.091200
O141	O14	0.191400	0.750900	0.109100
C191	C19	0.131300	0.662700	0.082800
C201	C20	0.059300	0.670700	0.035900
C211	C21	0.039300	0.749700	0.023400
H71	H7	0.070400	0.818700	0.041700
O151	O15	0.789370	0.900930	0.424530
O161	O16	0.858070	0.084230	0.442430
C221	C22	0.797970	0.996030	0.416130
C231	C23	0.725970	0.004030	0.369230
C241	C24	0.705970	0.083030	0.356730
H81	H8	0.737070	0.152030	0.375030
O171	O17	0.456030	0.234270	0.757870
O181	O18	0.524730	0.417570	0.775770
C251	C25	0.464630	0.329370	0.749470
C261	C26	0.392630	0.337370	0.702570
C271	C27	0.372630	0.416370	0.690070
H91	H9	0.403730	0.485370	0.708370
O191	O19	0.555100	0.432400	0.908800
O201	O20	0.440500	0.249100	0.890900
C281	C28	0.468600	0.337300	0.917200
C291	C29	0.388600	0.329300	0.964100
C301	C30	0.289600	0.250300	0.976600
H101	H10	0.251700	0.181300	0.958300
O211	O21	0.221770	0.765730	0.242130
O221	O22	0.107170	0.582430	0.224230
C311	C31	0.135270	0.670630	0.250530
C321	C32	0.055270	0.662630	0.297430
C331	C33	0.956270	0.583630	0.309930
H111	H11	0.918370	0.514630	0.291630
O231	O23	0.888430	0.099070	0.575470
O241	O24	0.773830	0.915770	0.557570
C341	C34	0.801930	0.003970	0.583870
C351	C35	0.721930	0.995970	0.630770
C361	C36	0.622930	0.916970	0.643270
H121	H12	0.585030	0.847970	0.624970
O251	O25	0.877300	0.444900	0.908800
O261	O26	0.808600	0.559500	0.890900
C371	C37	0.868700	0.531400	0.917200
C381	C38	0.940700	0.611400	0.964100
C391	C39	0.960700	0.710400	0.976600
H131	H13	0.929600	0.748300	0.958300
O271	O27	0.543970	0.778230	0.242130
O281	O28	0.475270	0.892830	0.224230
C401	C40	0.535370	0.864730	0.250530
C411	C41	0.607370	0.944730	0.297430
C421	C42	0.627370	0.043730	0.309930
H141	H14	0.596270	0.081630	0.291630
O291	O29	0.210630	0.111570	0.575470
O301	O30	0.141930	0.226170	0.557570
C431	C43	0.202030	0.198070	0.583870
C441	C44	0.274030	0.278070	0.630770
C451	C45	0.294030	0.377070	0.643270
H151	H15	0.262930	0.414970	0.624970
O311	O31	0.567600	0.122700	0.908800
O321	O32	0.750900	0.191400	0.890900
C461	C46	0.662700	0.131300	0.917200
C471	C47	0.670700	0.059300	0.964100
C481	C48	0.749700	0.039300	0.976600
H161	H16	0.818700	0.070400	0.958300
O331	O33	0.234270	0.456030	0.242130
O341	O34	0.417570	0.524730	0.224230
C491	C49	0.329370	0.464630	0.250530
C501	C50	0.337370	0.392630	0.297430
C511	C51	0.416370	0.372630	0.309930
H171	H17	0.485370	0.403730	0.291630
O351	O35	0.900930	0.789370	0.575470
O361	O36	0.084230	0.858070	0.557570
C521	C52	0.996030	0.797970	0.583870
C531	C53	0.004030	0.725970	0.630770
C541	C54	0.083030	0.705970	0.643270
H181	H18	0.152030	0.737070	0.624970
In11	In1	0.479620	0.666670	0.166670
In21	In2	0.146290	0.000000	0.500000
In31	In3	0.333330	0.812960	0.166670
In41	In4	0.000000	0.146290	0.500000
In51	In5	0.187040	0.520380	0.166670
In61	In6	0.853710	0.853710	0.500000
In71	In7	0.666670	0.479620	0.833330
In81	In8	0.812960	0.333330	0.833330
In91	In9	0.520380	0.187040	0.833330
O371	O37	0.421500	0.421500	0.000000
O381	O38	0.088170	0.754830	0.333330
O391	O39	0.754830	0.088170	0.666670
O401	O40	0.578500	0.000000	0.000000
O411	O41	0.245170	0.333330	0.333330
O421	O42	0.911830	0.666670	0.666670
O431	O43	0.000000	0.578500	0.000000
O441	O44	0.666670	0.911830	0.333330
O451	O45	0.333330	0.245170	0.666670
O461	O46	0.333330	0.666670	0.166670
O471	O47	0.000000	0.000000	0.500000
O481	O48	0.666670	0.333330	0.833330
