data_SUSZOW_clean_PM
_symmetry_space_group_name_H-M	'P1'
_cell_length_a	14.802200
_cell_length_b	27.330700
_cell_length_c	8.348700
_cell_angle_alpha	90.000000
_cell_angle_beta	90.000000
_cell_angle_gamma	90.000000
_symmetry_Int_Tables_number 1

loop_
_symmetry_equiv_pos_as_xyz
'x,y,z'

loop_
_atom_site_label
_atom_site_type_symbol
_atom_site_fract_x
_atom_site_fract_y
_atom_site_fract_z
P11	P1	0.902050	0.782040	0.142400
P21	P2	0.094970	0.670650	0.138700
P31	P3	0.219950	0.860480	0.137700
P41	P4	0.898890	0.947150	0.142800
Al11	Al1	0.093600	0.778660	0.268200
Al21	Al2	0.900260	0.674550	0.261000
Al31	Al3	0.093190	0.944530	0.264800
Al41	Al4	0.773810	0.864780	0.263200
O11	O1	0.879500	0.734100	0.221100
O21	O2	0.992000	0.801950	0.203700
O31	O3	0.828100	0.818800	0.167000
O41	O4	0.908700	0.772170	0.967900
O51	O5	0.111900	0.721980	0.190600
O61	O6	0.161850	0.634640	0.210000
O71	O7	0.102500	0.668980	0.961700
O81	O8	0.000500	0.654260	0.184700
O91	O9	0.318610	0.863830	0.187900
O101	O10	0.179500	0.815460	0.211000
O111	O11	0.214900	0.855310	0.960800
O121	O12	0.174800	0.906330	0.193300
O131	O13	0.987000	0.924980	0.207600
O141	O14	0.886200	0.999140	0.192300
O151	O15	0.818500	0.919390	0.208600
O161	O16	0.898900	0.945280	0.965700
P51	P5	0.402050	0.282040	0.642400
P61	P6	0.594970	0.170650	0.638700
P71	P7	0.719950	0.360480	0.637700
P81	P8	0.398890	0.447150	0.642800
Al51	Al5	0.593600	0.278660	0.768200
Al61	Al6	0.400260	0.174550	0.761000
Al71	Al7	0.593190	0.444530	0.764800
Al81	Al8	0.273810	0.364780	0.763200
O171	O17	0.379500	0.234100	0.721100
O181	O18	0.492000	0.301950	0.703700
O191	O19	0.328100	0.318800	0.667000
O201	O20	0.408700	0.272170	0.467900
O211	O21	0.611900	0.221980	0.690600
O221	O22	0.661850	0.134640	0.710000
O231	O23	0.602500	0.168980	0.461700
O241	O24	0.500500	0.154260	0.684700
O251	O25	0.818610	0.363830	0.687900
O261	O26	0.679500	0.315460	0.711000
O271	O27	0.714900	0.355310	0.460800
O281	O28	0.674800	0.406330	0.693300
O291	O29	0.487000	0.424980	0.707600
O301	O30	0.386200	0.499140	0.692300
O311	O31	0.318500	0.419390	0.708600
O321	O32	0.398900	0.445280	0.465700
P91	P9	0.097950	0.217960	0.142400
P101	P10	0.905030	0.329350	0.138700
P111	P11	0.780050	0.139520	0.137700
P121	P12	0.101110	0.052850	0.142800
Al91	Al9	0.906400	0.221340	0.268200
Al101	Al10	0.099740	0.325450	0.261000
Al111	Al11	0.906810	0.055470	0.264800
Al121	Al12	0.226190	0.135220	0.263200
O331	O33	0.120500	0.265900	0.221100
O341	O34	0.008000	0.198050	0.203700
O351	O35	0.171900	0.181200	0.167000
O361	O36	0.091300	0.227830	0.967900
O371	O37	0.888100	0.278020	0.190600
O381	O38	0.838150	0.365360	0.210000
O391	O39	0.897500	0.331020	0.961700
O401	O40	0.999500	0.345740	0.184700
O411	O41	0.681390	0.136170	0.187900
O421	O42	0.820500	0.184540	0.211000
O431	O43	0.785100	0.144690	0.960800
O441	O44	0.825200	0.093670	0.193300
O451	O45	0.013000	0.075020	0.207600
O461	O46	0.113800	0.000860	0.192300
O471	O47	0.181500	0.080610	0.208600
O481	O48	0.101100	0.054720	0.965700
P131	P13	0.597950	0.717960	0.642400
P141	P14	0.405030	0.829350	0.638700
P151	P15	0.280050	0.639520	0.637700
P161	P16	0.601110	0.552850	0.642800
Al131	Al13	0.406400	0.721340	0.768200
Al141	Al14	0.599740	0.825450	0.761000
Al151	Al15	0.406810	0.555470	0.764800
Al161	Al16	0.726190	0.635220	0.763200
O491	O49	0.620500	0.765900	0.721100
O501	O50	0.508000	0.698050	0.703700
O511	O51	0.671900	0.681200	0.667000
O521	O52	0.591300	0.727830	0.467900
O531	O53	0.388100	0.778020	0.690600
O541	O54	0.338150	0.865360	0.710000
O551	O55	0.397500	0.831020	0.461700
O561	O56	0.499500	0.845740	0.684700
O571	O57	0.181390	0.636170	0.687900
O581	O58	0.320500	0.684540	0.711000
O591	O59	0.285100	0.644690	0.460800
O601	O60	0.325200	0.593670	0.693300
O611	O61	0.513000	0.575020	0.707600
O621	O62	0.613800	0.500860	0.692300
O631	O63	0.681500	0.580610	0.708600
O641	O64	0.601100	0.554720	0.465700
P171	P17	0.402050	0.717960	0.142400
P181	P18	0.594970	0.829350	0.138700
P191	P19	0.719950	0.639520	0.137700
P201	P20	0.398890	0.552850	0.142800
Al171	Al17	0.593600	0.721340	0.268200
Al181	Al18	0.400260	0.825450	0.261000
Al191	Al19	0.593190	0.555470	0.264800
Al201	Al20	0.273810	0.635220	0.263200
O651	O65	0.379500	0.765900	0.221100
O661	O66	0.492000	0.698050	0.203700
O671	O67	0.328100	0.681200	0.167000
O681	O68	0.408700	0.727830	0.967900
O691	O69	0.611900	0.778020	0.190600
O701	O70	0.661850	0.865360	0.210000
O711	O71	0.602500	0.831020	0.961700
O721	O72	0.500500	0.845740	0.184700
O731	O73	0.818610	0.636170	0.187900
O741	O74	0.679500	0.684540	0.211000
O751	O75	0.714900	0.644690	0.960800
O761	O76	0.674800	0.593670	0.193300
O771	O77	0.487000	0.575020	0.207600
O781	O78	0.386200	0.500860	0.192300
O791	O79	0.318500	0.580610	0.208600
O801	O80	0.398900	0.554720	0.965700
P211	P21	0.902050	0.217960	0.642400
P221	P22	0.094970	0.329350	0.638700
P231	P23	0.219950	0.139520	0.637700
P241	P24	0.898890	0.052850	0.642800
Al211	Al21	0.093600	0.221340	0.768200
Al221	Al22	0.900260	0.325450	0.761000
Al231	Al23	0.093190	0.055470	0.764800
Al241	Al24	0.773810	0.135220	0.763200
O811	O81	0.879500	0.265900	0.721100
O821	O82	0.992000	0.198050	0.703700
O831	O83	0.828100	0.181200	0.667000
O841	O84	0.908700	0.227830	0.467900
O851	O85	0.111900	0.278020	0.690600
O861	O86	0.161850	0.365360	0.710000
O871	O87	0.102500	0.331020	0.461700
O881	O88	0.000500	0.345740	0.684700
O891	O89	0.318610	0.136170	0.687900
O901	O90	0.179500	0.184540	0.711000
O911	O91	0.214900	0.144690	0.460800
O921	O92	0.174800	0.093670	0.693300
O931	O93	0.987000	0.075020	0.707600
O941	O94	0.886200	0.000860	0.692300
O951	O95	0.818500	0.080610	0.708600
O961	O96	0.898900	0.054720	0.465700
P251	P25	0.597950	0.282040	0.142400
P261	P26	0.405030	0.170650	0.138700
P271	P27	0.280050	0.360480	0.137700
P281	P28	0.601110	0.447150	0.142800
Al251	Al25	0.406400	0.278660	0.268200
Al261	Al26	0.599740	0.174550	0.261000
Al271	Al27	0.406810	0.444530	0.264800
Al281	Al28	0.726190	0.364780	0.263200
O971	O97	0.620500	0.234100	0.221100
O981	O98	0.508000	0.301950	0.203700
O991	O99	0.671900	0.318800	0.167000
O1001	O100	0.591300	0.272170	0.967900
O1011	O101	0.388100	0.221980	0.190600
O1021	O102	0.338150	0.134640	0.210000
O1031	O103	0.397500	0.168980	0.961700
O1041	O104	0.499500	0.154260	0.184700
O1051	O105	0.181390	0.363830	0.187900
O1061	O106	0.320500	0.315460	0.211000
O1071	O107	0.285100	0.355310	0.960800
O1081	O108	0.325200	0.406330	0.193300
O1091	O109	0.513000	0.424980	0.207600
O1101	O110	0.613800	0.499140	0.192300
O1111	O111	0.681500	0.419390	0.208600
O1121	O112	0.601100	0.445280	0.965700
P291	P29	0.097950	0.782040	0.642400
P301	P30	0.905030	0.670650	0.638700
P311	P31	0.780050	0.860480	0.637700
P321	P32	0.101110	0.947150	0.642800
Al291	Al29	0.906400	0.778660	0.768200
Al301	Al30	0.099740	0.674550	0.761000
Al311	Al31	0.906810	0.944530	0.764800
Al321	Al32	0.226190	0.864780	0.763200
O1131	O113	0.120500	0.734100	0.721100
O1141	O114	0.008000	0.801950	0.703700
O1151	O115	0.171900	0.818800	0.667000
O1161	O116	0.091300	0.772170	0.467900
O1171	O117	0.888100	0.721980	0.690600
O1181	O118	0.838150	0.634640	0.710000
O1191	O119	0.897500	0.668980	0.461700
O1201	O120	0.999500	0.654260	0.684700
O1211	O121	0.681390	0.863830	0.687900
O1221	O122	0.820500	0.815460	0.711000
O1231	O123	0.785100	0.855310	0.460800
O1241	O124	0.825200	0.906330	0.693300
O1251	O125	0.013000	0.924980	0.707600
O1261	O126	0.113800	0.999140	0.692300
O1271	O127	0.181500	0.919390	0.708600
O1281	O128	0.101100	0.945280	0.465700
