data_SUSZIQ_clean_PM
_symmetry_space_group_name_H-M	'P1'
_cell_length_a	14.795300
_cell_length_b	27.363400
_cell_length_c	8.344600
_cell_angle_alpha	90.000000
_cell_angle_beta	90.000000
_cell_angle_gamma	90.000000
_symmetry_Int_Tables_number 1

loop_
_symmetry_equiv_pos_as_xyz
'x,y,z'

loop_
_atom_site_label
_atom_site_type_symbol
_atom_site_fract_x
_atom_site_fract_y
_atom_site_fract_z
P11	P1	0.097700	0.783240	0.667000
P21	P2	0.905900	0.669980	0.663100
P31	P3	0.779900	0.861110	0.656300
P41	P4	0.102200	0.947710	0.656300
Al11	Al1	0.906700	0.779680	0.787800
Al21	Al2	0.100100	0.673760	0.783800
Al31	Al3	0.906900	0.945220	0.777700
Al41	Al4	0.229200	0.866390	0.783800
O11	O1	0.114700	0.733620	0.740000
O21	O2	0.008800	0.803030	0.729300
O31	O3	0.175700	0.815360	0.718400
O41	O4	0.100200	0.780700	0.489100
O51	O5	0.893100	0.721350	0.721800
O61	O6	0.840100	0.634900	0.743200
O71	O7	0.897300	0.667010	0.485400
O81	O8	0.000400	0.652300	0.707800
O91	O9	0.681500	0.862650	0.702400
O101	O10	0.822500	0.812910	0.700100
O111	O11	0.787700	0.871800	0.482400
O121	O12	0.826700	0.902800	0.739800
O131	O13	0.014100	0.928350	0.722600
O141	O14	0.121900	0.999090	0.707700
O151	O15	0.183000	0.916170	0.692900
O161	O16	0.090900	0.951250	0.479900
P51	P5	0.597700	0.283240	0.167000
P61	P6	0.405900	0.169980	0.163100
P71	P7	0.279900	0.361110	0.156300
P81	P8	0.602200	0.447710	0.156300
Al51	Al5	0.406700	0.279680	0.287800
Al61	Al6	0.600100	0.173760	0.283800
Al71	Al7	0.406900	0.445220	0.277700
Al81	Al8	0.729200	0.366390	0.283800
O171	O17	0.614700	0.233620	0.240000
O181	O18	0.508800	0.303030	0.229300
O191	O19	0.675700	0.315360	0.218400
O201	O20	0.600200	0.280700	0.989100
O211	O21	0.393100	0.221350	0.221800
O221	O22	0.340100	0.134900	0.243200
O231	O23	0.397300	0.167010	0.985400
O241	O24	0.500400	0.152300	0.207800
O251	O25	0.181500	0.362650	0.202400
O261	O26	0.322500	0.312910	0.200100
O271	O27	0.287700	0.371800	0.982400
O281	O28	0.326700	0.402800	0.239800
O291	O29	0.514100	0.428350	0.222600
O301	O30	0.621900	0.499090	0.207700
O311	O31	0.683000	0.416170	0.192900
O321	O32	0.590900	0.451250	0.979900
P91	P9	0.902300	0.216760	0.667000
P101	P10	0.094100	0.330020	0.663100
P111	P11	0.220100	0.138890	0.656300
P121	P12	0.897800	0.052290	0.656300
Al91	Al9	0.093300	0.220320	0.787800
Al101	Al10	0.899900	0.326240	0.783800
Al111	Al11	0.093100	0.054780	0.777700
Al121	Al12	0.770800	0.133610	0.783800
O331	O33	0.885300	0.266380	0.740000
O341	O34	0.991200	0.196970	0.729300
O351	O35	0.824300	0.184640	0.718400
O361	O36	0.899800	0.219300	0.489100
O371	O37	0.106900	0.278650	0.721800
O381	O38	0.159900	0.365100	0.743200
O391	O39	0.102700	0.332990	0.485400
O401	O40	0.999600	0.347700	0.707800
O411	O41	0.318500	0.137350	0.702400
O421	O42	0.177500	0.187090	0.700100
O431	O43	0.212300	0.128200	0.482400
O441	O44	0.173300	0.097200	0.739800
O451	O45	0.985900	0.071650	0.722600
O461	O46	0.878100	0.000910	0.707700
O471	O47	0.817000	0.083830	0.692900
O481	O48	0.909100	0.048750	0.479900
P131	P13	0.402300	0.716760	0.167000
P141	P14	0.594100	0.830020	0.163100
P151	P15	0.720100	0.638890	0.156300
P161	P16	0.397800	0.552290	0.156300
Al131	Al13	0.593300	0.720320	0.287800
Al141	Al14	0.399900	0.826240	0.283800
Al151	Al15	0.593100	0.554780	0.277700
Al161	Al16	0.270800	0.633610	0.283800
O491	O49	0.385300	0.766380	0.240000
O501	O50	0.491200	0.696970	0.229300
O511	O51	0.324300	0.684640	0.218400
O521	O52	0.399800	0.719300	0.989100
O531	O53	0.606900	0.778650	0.221800
O541	O54	0.659900	0.865100	0.243200
O551	O55	0.602700	0.832990	0.985400
O561	O56	0.499600	0.847700	0.207800
O571	O57	0.818500	0.637350	0.202400
O581	O58	0.677500	0.687090	0.200100
O591	O59	0.712300	0.628200	0.982400
O601	O60	0.673300	0.597200	0.239800
O611	O61	0.485900	0.571650	0.222600
O621	O62	0.378100	0.500910	0.207700
O631	O63	0.317000	0.583830	0.192900
O641	O64	0.409100	0.548750	0.979900
P171	P17	0.597700	0.716760	0.667000
P181	P18	0.405900	0.830020	0.663100
P191	P19	0.279900	0.638890	0.656300
P201	P20	0.602200	0.552290	0.656300
Al171	Al17	0.406700	0.720320	0.787800
Al181	Al18	0.600100	0.826240	0.783800
Al191	Al19	0.406900	0.554780	0.777700
Al201	Al20	0.729200	0.633610	0.783800
O651	O65	0.614700	0.766380	0.740000
O661	O66	0.508800	0.696970	0.729300
O671	O67	0.675700	0.684640	0.718400
O681	O68	0.600200	0.719300	0.489100
O691	O69	0.393100	0.778650	0.721800
O701	O70	0.340100	0.865100	0.743200
O711	O71	0.397300	0.832990	0.485400
O721	O72	0.500400	0.847700	0.707800
O731	O73	0.181500	0.637350	0.702400
O741	O74	0.322500	0.687090	0.700100
O751	O75	0.287700	0.628200	0.482400
O761	O76	0.326700	0.597200	0.739800
O771	O77	0.514100	0.571650	0.722600
O781	O78	0.621900	0.500910	0.707700
O791	O79	0.683000	0.583830	0.692900
O801	O80	0.590900	0.548750	0.479900
P211	P21	0.097700	0.216760	0.167000
P221	P22	0.905900	0.330020	0.163100
P231	P23	0.779900	0.138890	0.156300
P241	P24	0.102200	0.052290	0.156300
Al211	Al21	0.906700	0.220320	0.287800
Al221	Al22	0.100100	0.326240	0.283800
Al231	Al23	0.906900	0.054780	0.277700
Al241	Al24	0.229200	0.133610	0.283800
O811	O81	0.114700	0.266380	0.240000
O821	O82	0.008800	0.196970	0.229300
O831	O83	0.175700	0.184640	0.218400
O841	O84	0.100200	0.219300	0.989100
O851	O85	0.893100	0.278650	0.221800
O861	O86	0.840100	0.365100	0.243200
O871	O87	0.897300	0.332990	0.985400
O881	O88	0.000400	0.347700	0.207800
O891	O89	0.681500	0.137350	0.202400
O901	O90	0.822500	0.187090	0.200100
O911	O91	0.787700	0.128200	0.982400
O921	O92	0.826700	0.097200	0.239800
O931	O93	0.014100	0.071650	0.222600
O941	O94	0.121900	0.000910	0.207700
O951	O95	0.183000	0.083830	0.192900
O961	O96	0.090900	0.048750	0.979900
P251	P25	0.402300	0.283240	0.667000
P261	P26	0.594100	0.169980	0.663100
P271	P27	0.720100	0.361110	0.656300
P281	P28	0.397800	0.447710	0.656300
Al251	Al25	0.593300	0.279680	0.787800
Al261	Al26	0.399900	0.173760	0.783800
Al271	Al27	0.593100	0.445220	0.777700
Al281	Al28	0.270800	0.366390	0.783800
O971	O97	0.385300	0.233620	0.740000
O981	O98	0.491200	0.303030	0.729300
O991	O99	0.324300	0.315360	0.718400
O1001	O100	0.399800	0.280700	0.489100
O1011	O101	0.606900	0.221350	0.721800
O1021	O102	0.659900	0.134900	0.743200
O1031	O103	0.602700	0.167010	0.485400
O1041	O104	0.499600	0.152300	0.707800
O1051	O105	0.818500	0.362650	0.702400
O1061	O106	0.677500	0.312910	0.700100
O1071	O107	0.712300	0.371800	0.482400
O1081	O108	0.673300	0.402800	0.739800
O1091	O109	0.485900	0.428350	0.722600
O1101	O110	0.378100	0.499090	0.707700
O1111	O111	0.317000	0.416170	0.692900
O1121	O112	0.409100	0.451250	0.479900
P291	P29	0.902300	0.783240	0.167000
P301	P30	0.094100	0.669980	0.163100
P311	P31	0.220100	0.861110	0.156300
P321	P32	0.897800	0.947710	0.156300
Al291	Al29	0.093300	0.779680	0.287800
Al301	Al30	0.899900	0.673760	0.283800
Al311	Al31	0.093100	0.945220	0.277700
Al321	Al32	0.770800	0.866390	0.283800
O1131	O113	0.885300	0.733620	0.240000
O1141	O114	0.991200	0.803030	0.229300
O1151	O115	0.824300	0.815360	0.218400
O1161	O116	0.899800	0.780700	0.989100
O1171	O117	0.106900	0.721350	0.221800
O1181	O118	0.159900	0.634900	0.243200
O1191	O119	0.102700	0.667010	0.985400
O1201	O120	0.999600	0.652300	0.207800
O1211	O121	0.318500	0.862650	0.202400
O1221	O122	0.177500	0.812910	0.200100
O1231	O123	0.212300	0.871800	0.982400
O1241	O124	0.173300	0.902800	0.239800
O1251	O125	0.985900	0.928350	0.222600
O1261	O126	0.878100	0.999090	0.207700
O1271	O127	0.817000	0.916170	0.192900
O1281	O128	0.909100	0.951250	0.979900
