data_SUTJIC_clean_PM
_symmetry_space_group_name_H-M	'P1'
_cell_length_a	13.890000
_cell_length_b	14.330000
_cell_length_c	19.017000
_cell_angle_alpha	68.310000
_cell_angle_beta	75.830000
_cell_angle_gamma	84.360000
_symmetry_Int_Tables_number 1

loop_
_symmetry_equiv_pos_as_xyz
'x,y,z'

loop_
_atom_site_label
_atom_site_type_symbol
_atom_site_fract_x
_atom_site_fract_y
_atom_site_fract_z
Ni11	Ni1	0.422230	0.623700	0.217670
Ni21	Ni2	0.171120	0.864470	0.611850
O11	O1	0.720250	0.424600	0.774680
O21	O2	0.705000	0.585300	0.729100
O31	O3	0.362210	0.770890	0.189560
O41	O4	0.361360	0.675710	0.310430
O51	O5	0.141100	0.724630	0.697020
O61	O6	0.025260	0.792440	0.633310
O71	O7	0.219850	0.809990	0.520250
O81	O8	0.180470	0.967750	0.495190
O91	O9	0.026050	0.379700	0.880590
O101	O10	0.228120	0.101680	0.195440
N11	N1	0.474710	0.608000	0.111710
N21	N2	0.502300	0.642100	0.984690
N31	N3	0.469910	0.868000	0.623850
N41	N4	0.314120	0.891140	0.609150
N51	N5	0.558600	0.691800	0.205000
N61	N6	0.681700	0.749600	0.230900
N71	N7	0.974100	0.956500	0.258450
N81	N8	0.885720	0.059100	0.314710
C11	C1	0.627500	0.501200	0.131000
H11	H1	0.616600	0.487800	0.184000
C21	C2	0.562800	0.560900	0.088360
C31	C3	0.579600	0.582500	0.009100
C41	C4	0.662700	0.543800	0.969800
H21	H2	0.674300	0.558500	0.916500
C51	C5	0.726200	0.483300	0.012900
H31	H3	0.781900	0.456100	0.988400
C61	C6	0.709200	0.461600	0.092700
H41	H4	0.753400	0.420100	0.120500
C71	C7	0.439900	0.656500	0.047940
C81	C8	0.348600	0.718100	0.044200
H51	H5	0.316400	0.717000	0.095300
H61	H6	0.304800	0.691400	0.024500
H71	H7	0.365200	0.786000	0.010400
C91	C9	0.489300	0.684700	0.904410
H81	H8	0.418900	0.689900	0.905200
H91	H9	0.519100	0.639600	0.877400
C101	C10	0.536200	0.788900	0.859700
H101	H10	0.508100	0.833400	0.887700
H111	H11	0.607000	0.783300	0.857400
C111	C11	0.519800	0.835000	0.777400
H121	H12	0.449400	0.848600	0.780100
H131	H13	0.554100	0.898700	0.751400
C121	C12	0.555000	0.770200	0.729800
H141	H14	0.510500	0.713500	0.750100
H151	H15	0.619900	0.743700	0.738100
C131	C13	0.563000	0.817800	0.642010
H161	H16	0.616200	0.866400	0.619000
H171	H17	0.579400	0.766200	0.619300
C141	C14	0.451800	0.969600	0.602750
C151	C15	0.511000	0.051000	0.589600
H181	H18	0.575800	0.041200	0.596200
C161	C16	0.470400	0.144500	0.566700
H191	H19	0.507900	0.199400	0.558600
C171	C17	0.373200	0.160500	0.554900
H201	H20	0.348500	0.225600	0.537000
C181	C18	0.314600	0.081000	0.569600
H211	H21	0.249500	0.091400	0.563500
C191	C19	0.354000	0.984700	0.593540
C201	C20	0.386000	0.824000	0.625800
C211	C21	0.378200	0.716000	0.643600
H221	H22	0.326300	0.704400	0.622500
H231	H23	0.363200	0.681600	0.698900
H241	H24	0.440100	0.691200	0.621000
C221	C22	0.574900	0.826600	0.070300
H251	H25	0.519600	0.808000	0.059200
C231	C23	0.631500	0.905600	0.016900
H261	H26	0.615700	0.939000	0.968900
C241	C24	0.709500	0.935600	0.032800
H271	H27	0.747900	0.988300	0.994700
C251	C25	0.734400	0.891800	0.102400
H281	H28	0.785600	0.916200	0.114200
C261	C26	0.679300	0.807800	0.155900
C271	C27	0.599800	0.774600	0.140400
C281	C28	0.611500	0.678400	0.255300
C291	C29	0.597700	0.595200	0.334200
H291	H29	0.529800	0.573900	0.351800
H301	H30	0.614400	0.619400	0.370500
H311	H31	0.640200	0.539400	0.330300
C301	C30	0.746500	0.770300	0.275900
H321	H32	0.771800	0.838100	0.249500
H331	H33	0.707600	0.765000	0.327100
C311	C31	0.827900	0.700400	0.283500
H341	H34	0.856000	0.692400	0.234000
H351	H35	0.804400	0.635500	0.321300
C321	C32	0.911400	0.739200	0.310400
H361	H36	0.882500	0.783700	0.338100
H371	H37	0.942500	0.682900	0.344600
C331	C33	0.987700	0.794900	0.237200
H381	H38	0.036300	0.747200	0.223900
H391	H39	0.954700	0.825700	0.194600
C341	C34	0.040800	0.875700	0.247100
H401	H40	0.070900	0.845400	0.291500
H411	H41	0.093600	0.903400	0.201400
C351	C35	0.983100	0.926800	0.396000
H421	H42	0.975600	0.969100	0.426200
H431	H43	0.051900	0.908900	0.382900
H441	H44	0.944800	0.867000	0.425700
C361	C36	0.947600	0.981500	0.323600
C371	C37	0.925100	0.024100	0.203800
C381	C38	0.927400	0.036700	0.126800
H451	H45	0.965200	0.994800	0.102900
C391	C39	0.871600	0.112700	0.088800
H461	H46	0.872600	0.125000	0.037100
C401	C40	0.813900	0.171700	0.125400
H471	H47	0.774200	0.220900	0.098100
C411	C41	0.811500	0.162100	0.201700
H481	H48	0.772900	0.203900	0.225100
C421	C42	0.870500	0.085700	0.240040
C431	C43	0.752000	0.509500	0.755300
C441	C44	0.854900	0.523100	0.762800
C451	C45	0.898100	0.446000	0.814460
H491	H49	0.865000	0.385500	0.842400
C461	C46	0.990000	0.458200	0.824970
C471	C47	0.041400	0.547300	0.781300
H501	H50	0.104000	0.555000	0.787700
C481	C48	0.999200	0.624600	0.728140
C491	C49	0.905400	0.612900	0.718950
H511	H51	0.876500	0.664700	0.683800
C501	C50	0.057400	0.719500	0.682680
C511	C51	0.116600	0.396000	0.897000
H521	H52	0.172200	0.395200	0.854800
H531	H53	0.114600	0.460900	0.902500
C521	C52	0.129200	0.313300	0.971800
H541	H54	0.196100	0.315500	0.977900
H551	H55	0.121000	0.248900	0.968200
C531	C53	0.344200	0.759300	0.260410
C541	C54	0.303400	0.845700	0.285400
C551	C55	0.286600	0.937500	0.230800
H561	H56	0.302800	0.946200	0.178300
C561	C56	0.246000	0.016000	0.253800
C571	C57	0.224700	0.004800	0.332080
H571	H57	0.199500	0.058600	0.347500
C581	C58	0.241500	0.912400	0.386750
C591	C59	0.280600	0.833100	0.363990
H581	H58	0.291700	0.771400	0.400900
C601	C60	0.212100	0.896700	0.471570
C611	C61	0.183700	0.185500	0.216160
H591	H59	0.228300	0.211100	0.236800
H601	H60	0.122000	0.166000	0.255000
C621	C62	0.164500	0.264200	0.141790
H611	H61	0.222600	0.268800	0.100200
H621	H62	0.155000	0.328800	0.148100
C631	C63	0.074800	0.242600	0.118400
H631	H63	0.016500	0.238900	0.159600
H641	H64	0.083900	0.177500	0.112800
C641	C64	0.056400	0.321700	0.042200
H651	H65	0.989600	0.314000	0.038000
H661	H66	0.060900	0.388100	0.043500
Ni31	Ni3	0.577770	0.376300	0.782330
Ni41	Ni4	0.828880	0.135530	0.388150
O111	O11	0.279750	0.575400	0.225320
O121	O12	0.295000	0.414700	0.270900
O131	O13	0.637790	0.229110	0.810440
O141	O14	0.638640	0.324290	0.689570
O151	O15	0.858900	0.275370	0.302980
O161	O16	0.974740	0.207560	0.366690
O171	O17	0.780150	0.190010	0.479750
O181	O18	0.819530	0.032250	0.504810
O191	O19	0.973950	0.620300	0.119410
O201	O20	0.771880	0.898320	0.804560
N91	N9	0.525290	0.392000	0.888290
N101	N10	0.497700	0.357900	0.015310
N111	N11	0.530090	0.132000	0.376150
N121	N12	0.685880	0.108860	0.390850
N131	N13	0.441400	0.308200	0.795000
N141	N14	0.318300	0.250400	0.769100
N151	N15	0.025900	0.043500	0.741550
N161	N16	0.114280	0.940900	0.685290
C651	C65	0.372500	0.498800	0.869000
H671	H67	0.383400	0.512200	0.816000
C661	C66	0.437200	0.439100	0.911640
C671	C67	0.420400	0.417500	0.990900
C681	C68	0.337300	0.456200	0.030200
H681	H68	0.325700	0.441500	0.083500
C691	C69	0.273800	0.516700	0.987100
H691	H69	0.218100	0.543900	0.011600
C701	C70	0.290800	0.538400	0.907300
H701	H70	0.246600	0.579900	0.879500
C711	C71	0.560100	0.343500	0.952060
C721	C72	0.651400	0.281900	0.955800
H711	H71	0.683600	0.283000	0.904700
H721	H72	0.695200	0.308600	0.975500
H731	H73	0.634800	0.214000	0.989600
C731	C73	0.510700	0.315300	0.095590
H741	H74	0.581100	0.310100	0.094800
H751	H75	0.480900	0.360400	0.122600
C741	C74	0.463800	0.211100	0.140300
H761	H76	0.491900	0.166600	0.112300
H771	H77	0.393000	0.216700	0.142600
C751	C75	0.480200	0.165000	0.222600
H781	H78	0.550600	0.151400	0.219900
H791	H79	0.445900	0.101300	0.248600
C761	C76	0.445000	0.229800	0.270200
H801	H80	0.489500	0.286500	0.249900
H811	H81	0.380100	0.256300	0.261900
C771	C77	0.437000	0.182200	0.357990
H821	H82	0.383800	0.133600	0.381000
H831	H83	0.420600	0.233800	0.380700
C781	C78	0.548200	0.030400	0.397250
C791	C79	0.489000	0.949000	0.410400
H841	H84	0.424200	0.958800	0.403800
C801	C80	0.529600	0.855500	0.433300
H851	H85	0.492100	0.800600	0.441400
C811	C81	0.626800	0.839500	0.445100
H861	H86	0.651500	0.774400	0.463000
C821	C82	0.685400	0.919000	0.430400
H871	H87	0.750500	0.908600	0.436500
C831	C83	0.646000	0.015300	0.406460
C841	C84	0.614000	0.176000	0.374200
C851	C85	0.621800	0.284000	0.356400
H881	H88	0.673700	0.295600	0.377500
H891	H89	0.636800	0.318400	0.301100
H901	H90	0.559900	0.308800	0.379000
C861	C86	0.425100	0.173400	0.929700
H911	H91	0.480400	0.192000	0.940800
C871	C87	0.368500	0.094400	0.983100
H921	H92	0.384300	0.061000	0.031100
C881	C88	0.290500	0.064400	0.967200
H931	H93	0.252100	0.011700	0.005300
C891	C89	0.265600	0.108200	0.897600
H941	H94	0.214400	0.083800	0.885800
C901	C90	0.320700	0.192200	0.844100
C911	C91	0.400200	0.225400	0.859600
C921	C92	0.388500	0.321600	0.744700
C931	C93	0.402300	0.404800	0.665800
H951	H95	0.470200	0.426100	0.648200
H961	H96	0.385600	0.380600	0.629500
H971	H97	0.359800	0.460600	0.669700
C941	C94	0.253500	0.229700	0.724100
H981	H98	0.228200	0.161900	0.750500
H991	H99	0.292400	0.235000	0.672900
C951	C95	0.172100	0.299600	0.716500
H1001	H100	0.144000	0.307600	0.766000
H1011	H101	0.195600	0.364500	0.678700
C961	C96	0.088600	0.260800	0.689600
H1021	H102	0.117500	0.216300	0.661900
H1031	H103	0.057500	0.317100	0.655400
C971	C97	0.012300	0.205100	0.762800
H1041	H104	0.963700	0.252800	0.776100
H1051	H105	0.045300	0.174300	0.805400
C981	C98	0.959200	0.124300	0.752900
H1061	H106	0.929100	0.154600	0.708500
H1071	H107	0.906400	0.096600	0.798600
C991	C99	0.016900	0.073200	0.604000
H1081	H108	0.024400	0.030900	0.573800
H1091	H109	0.948100	0.091100	0.617100
H1101	H110	0.055200	0.133000	0.574300
C1001	C100	0.052400	0.018500	0.676400
C1011	C101	0.074900	0.975900	0.796200
C1021	C102	0.072600	0.963300	0.873200
H1111	H111	0.034800	0.005200	0.897100
C1031	C103	0.128400	0.887300	0.911200
H1121	H112	0.127400	0.875000	0.962900
C1041	C104	0.186100	0.828300	0.874600
H1131	H113	0.225800	0.779100	0.901900
C1051	C105	0.188500	0.837900	0.798300
H1141	H114	0.227100	0.796100	0.774900
C1061	C106	0.129500	0.914300	0.759960
C1071	C107	0.248000	0.490500	0.244700
C1081	C108	0.145100	0.476900	0.237200
C1091	C109	0.101900	0.554000	0.185540
H1151	H115	0.135000	0.614500	0.157600
C1101	C110	0.010000	0.541800	0.175030
C1111	C111	0.958600	0.452700	0.218700
H1161	H116	0.896000	0.445000	0.212300
C1121	C112	0.000800	0.375400	0.271860
C1131	C113	0.094600	0.387100	0.281050
H1171	H117	0.123500	0.335300	0.316200
C1141	C114	0.942600	0.280500	0.317320
C1151	C115	0.883400	0.604000	0.103000
H1181	H118	0.827800	0.604800	0.145200
H1191	H119	0.885400	0.539100	0.097500
C1161	C116	0.870800	0.686700	0.028200
H1201	H120	0.803900	0.684500	0.022100
H1211	H121	0.879000	0.751100	0.031800
C1171	C117	0.655800	0.240700	0.739590
C1181	C118	0.696600	0.154300	0.714600
C1191	C119	0.713400	0.062500	0.769200
H1221	H122	0.697200	0.053800	0.821700
C1201	C120	0.754000	0.984000	0.746200
C1211	C121	0.775300	0.995200	0.667920
H1231	H123	0.800500	0.941400	0.652500
C1221	C122	0.758500	0.087600	0.613250
C1231	C123	0.719400	0.166900	0.636010
H1241	H124	0.708300	0.228600	0.599100
C1241	C124	0.787900	0.103300	0.528430
C1251	C125	0.816300	0.814500	0.783840
H1251	H125	0.771700	0.788900	0.763200
H1261	H126	0.878000	0.834000	0.745000
C1261	C126	0.835500	0.735800	0.858210
H1271	H127	0.777400	0.731200	0.899800
H1281	H128	0.845000	0.671200	0.851900
C1271	C127	0.925200	0.757400	0.881600
H1291	H129	0.983500	0.761100	0.840400
H1301	H130	0.916100	0.822500	0.887200
C1281	C128	0.943600	0.678300	0.957800
H1311	H131	0.010400	0.686000	0.962000
H1321	H132	0.939100	0.611900	0.956500
