data_SUVFEU_clean_PM
_symmetry_space_group_name_H-M	'P1'
_cell_length_a	6.404100
_cell_length_b	17.625200
_cell_length_c	7.727100
_cell_angle_alpha	90.000000
_cell_angle_beta	95.586000
_cell_angle_gamma	90.000000
_symmetry_Int_Tables_number 1

loop_
_symmetry_equiv_pos_as_xyz
'x,y,z'

loop_
_atom_site_label
_atom_site_type_symbol
_atom_site_fract_x
_atom_site_fract_y
_atom_site_fract_z
V11	V1	0.488400	0.433300	0.682100
V21	V2	0.016100	0.251100	0.818700
P11	P1	0.006100	0.429900	0.755300
P21	P2	0.503000	0.255100	0.743500
O11	O1	0.047500	0.360400	0.874000
O21	O2	0.463800	0.324400	0.623700
O31	O3	0.795100	0.426400	0.648800
O41	O4	0.712200	0.258000	0.853600
O51	O5	0.171100	0.442600	0.631300
O61	O6	0.326200	0.247000	0.863500
O71	O7	0.975900	0.717500	0.878700
O81	O8	0.996600	0.640900	0.101700
O91	O9	0.531900	0.964400	0.617700
O101	O10	0.503600	0.044200	0.404500
C11	C1	0.008500	0.508800	0.901800
C21	C2	0.498100	0.174400	0.599500
C31	C3	0.513900	0.095300	0.687500
C41	C4	0.991100	0.584100	0.809500
C51	C5	0.512900	0.031700	0.564800
C61	C6	0.981400	0.651000	0.935900
H11	H1	0.892600	0.503700	0.973000
H21	H2	0.137700	0.507800	0.978600
H31	H3	0.368900	0.176200	0.522900
H41	H4	0.613400	0.179400	0.527600
H51	H5	0.642100	0.093200	0.765300
H61	H6	0.397100	0.089300	0.757300
H71	H7	0.865800	0.584200	0.728200
H81	H8	0.111100	0.590600	0.743400
V31	V3	0.511600	0.933300	0.317900
V41	V4	0.983900	0.751100	0.181300
P31	P3	0.993900	0.929900	0.244700
P41	P4	0.497000	0.755100	0.256500
O111	O11	0.952500	0.860400	0.126000
O121	O12	0.536200	0.824400	0.376300
O131	O13	0.204900	0.926400	0.351200
O141	O14	0.287800	0.758000	0.146400
O151	O15	0.828900	0.942600	0.368700
O161	O16	0.673800	0.747000	0.136500
O171	O17	0.024100	0.217500	0.121300
O181	O18	0.003400	0.140900	0.898300
O191	O19	0.468100	0.464400	0.382300
O201	O20	0.496400	0.544200	0.595500
C71	C7	0.991500	0.008800	0.098200
C81	C8	0.501900	0.674400	0.400500
C91	C9	0.486100	0.595300	0.312500
C101	C10	0.008900	0.084100	0.190500
C111	C11	0.487100	0.531700	0.435200
C121	C12	0.018600	0.151000	0.064100
H91	H9	0.107400	0.003700	0.027000
H101	H10	0.862300	0.007800	0.021400
H111	H11	0.631100	0.676200	0.477100
H121	H12	0.386600	0.679400	0.472400
H131	H13	0.357900	0.593200	0.234700
H141	H14	0.602900	0.589300	0.242700
H151	H15	0.134200	0.084200	0.271800
H161	H16	0.888900	0.090600	0.256600
