data_SUVZOA_clean_PM
_symmetry_space_group_name_H-M	'P1'
_cell_length_a	13.073700
_cell_length_b	20.219200
_cell_length_c	19.619600
_cell_angle_alpha	90.000000
_cell_angle_beta	115.529000
_cell_angle_gamma	90.000000
_symmetry_Int_Tables_number 1

loop_
_symmetry_equiv_pos_as_xyz
'x,y,z'

loop_
_atom_site_label
_atom_site_type_symbol
_atom_site_fract_x
_atom_site_fract_y
_atom_site_fract_z
Zn11	Zn1	0.144440	0.626580	0.825070
Zn21	Zn2	0.897550	0.464950	0.751130
V11	V1	0.164550	0.552120	0.991490
V21	V2	0.036560	0.414480	0.950750
V31	V3	0.784780	0.529270	0.559390
V41	V4	0.023410	0.612310	0.639930
V51	V5	0.179420	0.587920	0.548750
C11	C1	0.753800	0.791700	0.852200
C21	C2	0.689300	0.733900	0.834900
C31	C3	0.573900	0.735800	0.785300
C41	C4	0.522300	0.796100	0.755700
C51	C5	0.586600	0.853900	0.774000
C61	C6	0.703000	0.851600	0.822100
C71	C7	0.878900	0.788600	0.902400
H11	H1	0.906900	0.832800	0.919800
H21	H2	0.892000	0.761700	0.946400
C81	C8	0.996600	0.749800	0.777900
H31	H3	0.006300	0.755400	0.734000
C91	C9	0.013600	0.711700	0.883200
H41	H4	0.035300	0.687100	0.927200
C101	C10	0.742800	0.668600	0.869900
H51	H5	0.809700	0.676800	0.916600
H61	H6	0.689700	0.643400	0.882000
C111	C11	0.809700	0.608500	0.727400
H71	H7	0.816500	0.612100	0.682300
C121	C12	0.816600	0.569600	0.828000
H81	H8	0.828400	0.542200	0.868800
C131	C13	0.507600	0.671900	0.763000
H91	H9	0.461300	0.671500	0.708900
H101	H10	0.559800	0.634900	0.775600
C141	C14	0.390200	0.659000	0.890900
H111	H11	0.393400	0.660200	0.939200
C151	C15	0.327100	0.648900	0.773700
H121	H12	0.280200	0.641800	0.722800
C161	C16	0.396800	0.798500	0.703500
H131	H13	0.385300	0.822900	0.658200
H141	H14	0.368900	0.753900	0.688600
C171	C17	0.270400	0.848900	0.818700
H151	H15	0.259100	0.847700	0.862400
C181	C18	0.258100	0.877800	0.712900
H161	H16	0.237900	0.898700	0.666700
C191	C19	0.531300	0.919100	0.740500
H171	H17	0.581700	0.944600	0.726100
H181	H18	0.461900	0.911000	0.695400
C201	C20	0.519500	0.941400	0.863700
H191	H19	0.548300	0.901500	0.887900
C211	C21	0.452400	0.036300	0.838200
H201	H20	0.424600	0.077400	0.843100
C221	C22	0.770400	0.915800	0.841200
H211	H21	0.719500	0.952600	0.834800
H221	H22	0.825700	0.914800	0.893600
C231	C23	0.848900	0.939600	0.694200
H231	H23	0.834000	0.943900	0.643600
C241	C24	0.937700	0.932200	0.811900
H241	H24	0.994500	0.930400	0.861000
N11	N1	0.940800	0.760630	0.862600
N21	N2	0.928400	0.786500	0.795400
N31	N3	0.051600	0.702800	0.830600
N41	N4	0.774400	0.630050	0.818700
N51	N5	0.770300	0.656010	0.754200
N61	N6	0.839600	0.553740	0.770600
N71	N7	0.435300	0.664250	0.801600
N81	N8	0.477700	0.670700	0.877000
N91	N9	0.295000	0.645100	0.828600
N101	N10	0.332300	0.829930	0.739600
N111	N11	0.340100	0.809300	0.807100
N121	N12	0.216200	0.891780	0.761900
N131	N13	0.505500	0.956700	0.794600
N141	N14	0.461100	0.018200	0.776600
N151	N15	0.486500	0.991140	0.893200
N161	N16	0.828900	0.925950	0.792900
N171	N17	0.769800	0.931200	0.717100
N181	N18	0.954300	0.941620	0.750900
O11	O1	0.166900	0.573310	0.911000
O21	O2	0.041900	0.587750	0.994300
O31	O3	0.159800	0.464200	0.000600
O41	O4	0.963000	0.448500	0.868730
O51	O5	0.831400	0.482200	0.634370
O61	O6	0.656100	0.552970	0.540600
O71	O7	0.875300	0.600670	0.579800
O81	O8	0.054100	0.587980	0.727800
O91	O9	0.110400	0.568200	0.608500
O101	O10	0.218400	0.511700	0.519900
Zn31	Zn3	0.855560	0.126580	0.674930
Zn41	Zn4	0.102450	0.964950	0.748870
V61	V6	0.835450	0.052120	0.508510
V71	V7	0.963440	0.914480	0.549250
V81	V8	0.215220	0.029270	0.940610
V91	V9	0.976590	0.112310	0.860070
V101	V10	0.820580	0.087920	0.951250
C251	C25	0.246200	0.291700	0.647800
C261	C26	0.310700	0.233900	0.665100
C271	C27	0.426100	0.235800	0.714700
C281	C28	0.477700	0.296100	0.744300
C291	C29	0.413400	0.353900	0.726000
C301	C30	0.297000	0.351600	0.677900
C311	C31	0.121100	0.288600	0.597600
H251	H25	0.093100	0.332800	0.580200
H261	H26	0.108000	0.261700	0.553600
C321	C32	0.003400	0.249800	0.722100
H271	H27	0.993700	0.255400	0.766000
C331	C33	0.986400	0.211700	0.616800
H281	H28	0.964700	0.187100	0.572800
C341	C34	0.257200	0.168600	0.630100
H291	H29	0.190300	0.176800	0.583400
H301	H30	0.310300	0.143400	0.618000
C351	C35	0.190300	0.108500	0.772600
H311	H31	0.183500	0.112100	0.817700
C361	C36	0.183400	0.069600	0.672000
H321	H32	0.171600	0.042200	0.631200
C371	C37	0.492400	0.171900	0.737000
H331	H33	0.538700	0.171500	0.791100
H341	H34	0.440200	0.134900	0.724400
C381	C38	0.609800	0.159000	0.609100
H351	H35	0.606600	0.160200	0.560800
C391	C39	0.672900	0.148900	0.726300
H361	H36	0.719800	0.141800	0.777200
C401	C40	0.603200	0.298500	0.796500
H371	H37	0.614700	0.322900	0.841800
H381	H38	0.631100	0.253900	0.811400
C411	C41	0.729600	0.348900	0.681300
H391	H39	0.740900	0.347700	0.637600
C421	C42	0.741900	0.377800	0.787100
H401	H40	0.762100	0.398700	0.833300
C431	C43	0.468700	0.419100	0.759500
H411	H41	0.418300	0.444600	0.773900
H421	H42	0.538100	0.411000	0.804600
C441	C44	0.480500	0.441400	0.636300
H431	H43	0.451700	0.401500	0.612100
C451	C45	0.547600	0.536300	0.661800
H441	H44	0.575400	0.577400	0.656900
C461	C46	0.229600	0.415800	0.658800
H451	H45	0.280500	0.452600	0.665200
H461	H46	0.174300	0.414800	0.606400
C471	C47	0.151100	0.439600	0.805800
H471	H47	0.166000	0.443900	0.856400
C481	C48	0.062300	0.432200	0.688100
H481	H48	0.005500	0.430400	0.639000
N191	N19	0.059200	0.260630	0.637400
N201	N20	0.071600	0.286500	0.704600
N211	N21	0.948400	0.202800	0.669400
N221	N22	0.225600	0.130050	0.681300
N231	N23	0.229700	0.156010	0.745800
N241	N24	0.160400	0.053740	0.729400
N251	N25	0.564700	0.164250	0.698400
N261	N26	0.522300	0.170700	0.623000
N271	N27	0.705000	0.145100	0.671400
N281	N28	0.667700	0.329930	0.760400
N291	N29	0.659900	0.309300	0.692900
N301	N30	0.783800	0.391780	0.738100
N311	N31	0.494500	0.456700	0.705400
N321	N32	0.538900	0.518200	0.723400
N331	N33	0.513500	0.491140	0.606800
N341	N34	0.171100	0.425950	0.707100
N351	N35	0.230200	0.431200	0.782900
N361	N36	0.045700	0.441620	0.749100
O111	O11	0.833100	0.073310	0.589000
O121	O12	0.958100	0.087750	0.505700
O131	O13	0.840200	0.964200	0.499400
O141	O14	0.037000	0.948500	0.631270
O151	O15	0.168600	0.982200	0.865630
O161	O16	0.343900	0.052970	0.959400
O171	O17	0.124700	0.100670	0.920200
O181	O18	0.945900	0.087980	0.772200
O191	O19	0.889600	0.068200	0.891500
O201	O20	0.781600	0.011700	0.980100
Zn51	Zn5	0.855560	0.373420	0.174930
Zn61	Zn6	0.102450	0.535050	0.248870
V111	V11	0.835450	0.447880	0.008510
V121	V12	0.963440	0.585520	0.049250
V131	V13	0.215220	0.470730	0.440610
V141	V14	0.976590	0.387690	0.360070
V151	V15	0.820580	0.412080	0.451250
C491	C49	0.246200	0.208300	0.147800
C501	C50	0.310700	0.266100	0.165100
C511	C51	0.426100	0.264200	0.214700
C521	C52	0.477700	0.203900	0.244300
C531	C53	0.413400	0.146100	0.226000
C541	C54	0.297000	0.148400	0.177900
C551	C55	0.121100	0.211400	0.097600
H491	H49	0.093100	0.167200	0.080200
H501	H50	0.108000	0.238300	0.053600
C561	C56	0.003400	0.250200	0.222100
H511	H51	0.993700	0.244600	0.266000
C571	C57	0.986400	0.288300	0.116800
H521	H52	0.964700	0.312900	0.072800
C581	C58	0.257200	0.331400	0.130100
H531	H53	0.190300	0.323200	0.083400
H541	H54	0.310300	0.356600	0.118000
C591	C59	0.190300	0.391500	0.272600
H551	H55	0.183500	0.387900	0.317700
C601	C60	0.183400	0.430400	0.172000
H561	H56	0.171600	0.457800	0.131200
C611	C61	0.492400	0.328100	0.237000
H571	H57	0.538700	0.328500	0.291100
H581	H58	0.440200	0.365100	0.224400
C621	C62	0.609800	0.341000	0.109100
H591	H59	0.606600	0.339800	0.060800
C631	C63	0.672900	0.351100	0.226300
H601	H60	0.719800	0.358200	0.277200
C641	C64	0.603200	0.201500	0.296500
H611	H61	0.614700	0.177100	0.341800
H621	H62	0.631100	0.246100	0.311400
C651	C65	0.729600	0.151100	0.181300
H631	H63	0.740900	0.152300	0.137600
C661	C66	0.741900	0.122200	0.287100
H641	H64	0.762100	0.101300	0.333300
C671	C67	0.468700	0.080900	0.259500
H651	H65	0.418300	0.055400	0.273900
H661	H66	0.538100	0.089000	0.304600
C681	C68	0.480500	0.058600	0.136300
H671	H67	0.451700	0.098500	0.112100
C691	C69	0.547600	0.963700	0.161800
H681	H68	0.575400	0.922600	0.156900
C701	C70	0.229600	0.084200	0.158800
H691	H69	0.280500	0.047400	0.165200
H701	H70	0.174300	0.085200	0.106400
C711	C71	0.151100	0.060400	0.305800
H711	H71	0.166000	0.056100	0.356400
C721	C72	0.062300	0.067800	0.188100
H721	H72	0.005500	0.069600	0.139000
N371	N37	0.059200	0.239370	0.137400
N381	N38	0.071600	0.213500	0.204600
N391	N39	0.948400	0.297200	0.169400
N401	N40	0.225600	0.369950	0.181300
N411	N41	0.229700	0.343990	0.245800
N421	N42	0.160400	0.446260	0.229400
N431	N43	0.564700	0.335750	0.198400
N441	N44	0.522300	0.329300	0.123000
N451	N45	0.705000	0.354900	0.171400
N461	N46	0.667700	0.170070	0.260400
N471	N47	0.659900	0.190700	0.192900
N481	N48	0.783800	0.108220	0.238100
N491	N49	0.494500	0.043300	0.205400
N501	N50	0.538900	0.981800	0.223400
N511	N51	0.513500	0.008860	0.106800
N521	N52	0.171100	0.074050	0.207100
N531	N53	0.230200	0.068800	0.282900
N541	N54	0.045700	0.058380	0.249100
O211	O21	0.833100	0.426690	0.089000
O221	O22	0.958100	0.412250	0.005700
O231	O23	0.840200	0.535800	0.999400
O241	O24	0.037000	0.551500	0.131270
O251	O25	0.168600	0.517800	0.365630
O261	O26	0.343900	0.447030	0.459400
O271	O27	0.124700	0.399330	0.420200
O281	O28	0.945900	0.412020	0.272200
O291	O29	0.889600	0.431800	0.391500
O301	O30	0.781600	0.488300	0.480100
Zn71	Zn7	0.144440	0.873420	0.325070
Zn81	Zn8	0.897550	0.035050	0.251130
V161	V16	0.164550	0.947880	0.491490
V171	V17	0.036560	0.085520	0.450750
V181	V18	0.784780	0.970730	0.059390
V191	V19	0.023410	0.887690	0.139930
V201	V20	0.179420	0.912080	0.048750
C731	C73	0.753800	0.708300	0.352200
C741	C74	0.689300	0.766100	0.334900
C751	C75	0.573900	0.764200	0.285300
C761	C76	0.522300	0.703900	0.255700
C771	C77	0.586600	0.646100	0.274000
C781	C78	0.703000	0.648400	0.322100
C791	C79	0.878900	0.711400	0.402400
H731	H73	0.906900	0.667200	0.419800
H741	H74	0.892000	0.738300	0.446400
C801	C80	0.996600	0.750200	0.277900
H751	H75	0.006300	0.744600	0.234000
C811	C81	0.013600	0.788300	0.383200
H761	H76	0.035300	0.812900	0.427200
C821	C82	0.742800	0.831400	0.369900
H771	H77	0.809700	0.823200	0.416600
H781	H78	0.689700	0.856600	0.382000
C831	C83	0.809700	0.891500	0.227400
H791	H79	0.816500	0.887900	0.182300
C841	C84	0.816600	0.930400	0.328000
H801	H80	0.828400	0.957800	0.368800
C851	C85	0.507600	0.828100	0.263000
H811	H81	0.461300	0.828500	0.208900
H821	H82	0.559800	0.865100	0.275600
C861	C86	0.390200	0.841000	0.390900
H831	H83	0.393400	0.839800	0.439200
C871	C87	0.327100	0.851100	0.273700
H841	H84	0.280200	0.858200	0.222800
C881	C88	0.396800	0.701500	0.203500
H851	H85	0.385300	0.677100	0.158200
H861	H86	0.368900	0.746100	0.188600
C891	C89	0.270400	0.651100	0.318700
H871	H87	0.259100	0.652300	0.362400
C901	C90	0.258100	0.622200	0.212900
H881	H88	0.237900	0.601300	0.166700
C911	C91	0.531300	0.580900	0.240500
H891	H89	0.581700	0.555400	0.226100
H901	H90	0.461900	0.589000	0.195400
C921	C92	0.519500	0.558600	0.363700
H911	H91	0.548300	0.598500	0.387900
C931	C93	0.452400	0.463700	0.338200
H921	H92	0.424600	0.422600	0.343100
C941	C94	0.770400	0.584200	0.341200
H931	H93	0.719500	0.547400	0.334800
H941	H94	0.825700	0.585200	0.393600
C951	C95	0.848900	0.560400	0.194200
H951	H95	0.834000	0.556100	0.143600
C961	C96	0.937700	0.567800	0.311900
H961	H96	0.994500	0.569600	0.361000
N551	N55	0.940800	0.739370	0.362600
N561	N56	0.928400	0.713500	0.295400
N571	N57	0.051600	0.797200	0.330600
N581	N58	0.774400	0.869950	0.318700
N591	N59	0.770300	0.843990	0.254200
N601	N60	0.839600	0.946260	0.270600
N611	N61	0.435300	0.835750	0.301600
N621	N62	0.477700	0.829300	0.377000
N631	N63	0.295000	0.854900	0.328600
N641	N64	0.332300	0.670070	0.239600
N651	N65	0.340100	0.690700	0.307100
N661	N66	0.216200	0.608220	0.261900
N671	N67	0.505500	0.543300	0.294600
N681	N68	0.461100	0.481800	0.276600
N691	N69	0.486500	0.508860	0.393200
N701	N70	0.828900	0.574050	0.292900
N711	N71	0.769800	0.568800	0.217100
N721	N72	0.954300	0.558380	0.250900
O311	O31	0.166900	0.926690	0.411000
O321	O32	0.041900	0.912250	0.494300
O331	O33	0.159800	0.035800	0.500600
O341	O34	0.963000	0.051500	0.368730
O351	O35	0.831400	0.017800	0.134370
O361	O36	0.656100	0.947030	0.040600
O371	O37	0.875300	0.899330	0.079800
O381	O38	0.054100	0.912020	0.227800
O391	O39	0.110400	0.931800	0.108500
O401	O40	0.218400	0.988300	0.019900
Zn91	Zn9	0.500000	0.500000	0.500000
Zn101	Zn10	0.500000	0.000000	0.000000
