data_SUWBET_clean_PM
_symmetry_space_group_name_H-M	'P1'
_cell_length_a	10.519700
_cell_length_b	10.519700
_cell_length_c	66.084000
_cell_angle_alpha	90.000000
_cell_angle_beta	90.000000
_cell_angle_gamma	120.000000
_symmetry_Int_Tables_number 1

loop_
_symmetry_equiv_pos_as_xyz
'x,y,z'

loop_
_atom_site_label
_atom_site_type_symbol
_atom_site_fract_x
_atom_site_fract_y
_atom_site_fract_z
C11	C1	0.855000	0.883500	0.500110
C21	C2	0.698600	0.759600	0.501130
H11	H1	0.695600	0.678900	0.508600
H21	H2	0.640600	0.792600	0.508500
C31	C3	0.469900	0.575500	0.460470
H31	H3	0.381200	0.505200	0.454900
C41	C4	0.684000	0.741100	0.462990
H41	H4	0.778700	0.816100	0.460100
N11	N1	0.631800	0.706100	0.481190
N21	N2	0.488200	0.600000	0.480040
N31	N3	0.589400	0.660000	0.449110
C51	C5	0.521670	0.216830	0.833440
C61	C6	0.365270	0.092930	0.834460
H51	H5	0.362270	0.012230	0.841930
H61	H6	0.307270	0.125930	0.841830
C71	C7	0.136570	0.908830	0.793800
H71	H7	0.047870	0.838530	0.788230
C81	C8	0.350670	0.074430	0.796320
H81	H8	0.445370	0.149430	0.793430
N41	N4	0.298470	0.039430	0.814520
N51	N5	0.154870	0.933330	0.813370
N61	N6	0.256070	0.993330	0.782440
C91	C9	0.188330	0.550170	0.166780
C101	C10	0.031930	0.426270	0.167800
H91	H9	0.028930	0.345570	0.175270
H101	H10	0.973930	0.459270	0.175170
C111	C11	0.803230	0.242170	0.127140
H111	H11	0.714530	0.171870	0.121570
C121	C12	0.017330	0.407770	0.129660
H121	H12	0.112030	0.482770	0.126770
N71	N7	0.965130	0.372770	0.147860
N81	N8	0.821530	0.266670	0.146710
N91	N9	0.922730	0.326670	0.115780
C131	C13	0.116500	0.971500	0.500110
C141	C14	0.240400	0.939000	0.501130
H131	H13	0.321100	0.016700	0.508600
H141	H14	0.207400	0.848000	0.508500
C151	C15	0.424500	0.894400	0.460470
H151	H15	0.494800	0.876000	0.454900
C161	C16	0.258900	0.942900	0.462990
H161	H16	0.183900	0.962600	0.460100
N101	N10	0.293900	0.925700	0.481190
N111	N11	0.400000	0.888200	0.480040
N121	N12	0.340000	0.929400	0.449110
C171	C17	0.783170	0.304830	0.833440
C181	C18	0.907070	0.272330	0.834460
H171	H17	0.987770	0.350030	0.841930
H181	H18	0.874070	0.181330	0.841830
C191	C19	0.091170	0.227730	0.793800
H191	H19	0.161470	0.209330	0.788230
C201	C20	0.925570	0.276230	0.796320
H201	H20	0.850570	0.295930	0.793430
N131	N13	0.960570	0.259030	0.814520
N141	N14	0.066670	0.221530	0.813370
N151	N15	0.006670	0.262730	0.782440
C211	C21	0.449830	0.638170	0.166780
C221	C22	0.573730	0.605670	0.167800
H211	H21	0.654430	0.683370	0.175270
H221	H22	0.540730	0.514670	0.175170
C231	C23	0.757830	0.561070	0.127140
H231	H23	0.828130	0.542670	0.121570
C241	C24	0.592230	0.609570	0.129660
H241	H24	0.517230	0.629270	0.126770
N161	N16	0.627230	0.592370	0.147860
N171	N17	0.733330	0.554870	0.146710
N181	N18	0.673330	0.596070	0.115780
C251	C25	0.028500	0.145000	0.500110
C261	C26	0.061000	0.301400	0.501130
H251	H25	0.983300	0.304400	0.508600
H261	H26	0.152000	0.359400	0.508500
C271	C27	0.105600	0.530100	0.460470
H271	H27	0.124000	0.618800	0.454900
C281	C28	0.057100	0.316000	0.462990
H281	H28	0.037400	0.221300	0.460100
N191	N19	0.074300	0.368200	0.481190
N201	N20	0.111800	0.511800	0.480040
N211	N21	0.070600	0.410600	0.449110
C291	C29	0.695170	0.478330	0.833440
C301	C30	0.727670	0.634730	0.834460
H291	H29	0.649970	0.637730	0.841930
H301	H30	0.818670	0.692730	0.841830
C311	C31	0.772270	0.863430	0.793800
H311	H31	0.790670	0.952130	0.788230
C321	C32	0.723770	0.649330	0.796320
H321	H32	0.704070	0.554630	0.793430
N221	N22	0.740970	0.701530	0.814520
N231	N23	0.778470	0.845130	0.813370
N241	N24	0.737270	0.743930	0.782440
C331	C33	0.361830	0.811670	0.166780
C341	C34	0.394330	0.968070	0.167800
H331	H33	0.316630	0.971070	0.175270
H341	H34	0.485330	0.026070	0.175170
C351	C35	0.438930	0.196770	0.127140
H351	H35	0.457330	0.285470	0.121570
C361	C36	0.390430	0.982670	0.129660
H361	H36	0.370730	0.887970	0.126770
N251	N25	0.407630	0.034870	0.147860
N261	N26	0.445130	0.178470	0.146710
N271	N27	0.403930	0.077270	0.115780
C371	C37	0.883500	0.855000	0.999890
C381	C38	0.759600	0.698600	0.998870
H371	H37	0.678900	0.695600	0.991400
H381	H38	0.792600	0.640600	0.991500
C391	C39	0.575500	0.469900	0.039530
H391	H39	0.505200	0.381200	0.045100
C401	C40	0.741100	0.684000	0.037010
H401	H40	0.816100	0.778700	0.039900
N281	N28	0.706100	0.631800	0.018810
N291	N29	0.600000	0.488200	0.019960
N301	N30	0.660000	0.589400	0.050890
C411	C41	0.550170	0.188330	0.333220
C421	C42	0.426270	0.031930	0.332200
H411	H41	0.345570	0.028930	0.324730
H421	H42	0.459270	0.973930	0.324830
C431	C43	0.242170	0.803230	0.372860
H431	H43	0.171870	0.714530	0.378430
C441	C44	0.407770	0.017330	0.370340
H441	H44	0.482770	0.112030	0.373230
N311	N31	0.372770	0.965130	0.352140
N321	N32	0.266670	0.821530	0.353290
N331	N33	0.326670	0.922730	0.384220
C451	C45	0.216830	0.521670	0.666560
C461	C46	0.092930	0.365270	0.665540
H451	H45	0.012230	0.362270	0.658070
H461	H46	0.125930	0.307270	0.658170
C471	C47	0.908830	0.136570	0.706200
H471	H47	0.838530	0.047870	0.711770
C481	C48	0.074430	0.350670	0.703680
H481	H48	0.149430	0.445370	0.706570
N341	N34	0.039430	0.298470	0.685480
N351	N35	0.933330	0.154870	0.686630
N361	N36	0.993330	0.256070	0.717560
C491	C49	0.971500	0.116500	0.999890
C501	C50	0.939000	0.240400	0.998870
H491	H49	0.016700	0.321100	0.991400
H501	H50	0.848000	0.207400	0.991500
C511	C51	0.894400	0.424500	0.039530
H511	H51	0.876000	0.494800	0.045100
C521	C52	0.942900	0.258900	0.037010
H521	H52	0.962600	0.183900	0.039900
N371	N37	0.925700	0.293900	0.018810
N381	N38	0.888200	0.400000	0.019960
N391	N39	0.929400	0.340000	0.050890
C531	C53	0.638170	0.449830	0.333220
C541	C54	0.605670	0.573730	0.332200
H531	H53	0.683370	0.654430	0.324730
H541	H54	0.514670	0.540730	0.324830
C551	C55	0.561070	0.757830	0.372860
H551	H55	0.542670	0.828130	0.378430
C561	C56	0.609570	0.592230	0.370340
H561	H56	0.629270	0.517230	0.373230
N401	N40	0.592370	0.627230	0.352140
N411	N41	0.554870	0.733330	0.353290
N421	N42	0.596070	0.673330	0.384220
C571	C57	0.304830	0.783170	0.666560
C581	C58	0.272330	0.907070	0.665540
H571	H57	0.350030	0.987770	0.658070
H581	H58	0.181330	0.874070	0.658170
C591	C59	0.227730	0.091170	0.706200
H591	H59	0.209330	0.161470	0.711770
C601	C60	0.276230	0.925570	0.703680
H601	H60	0.295930	0.850570	0.706570
N431	N43	0.259030	0.960570	0.685480
N441	N44	0.221530	0.066670	0.686630
N451	N45	0.262730	0.006670	0.717560
C611	C61	0.145000	0.028500	0.999890
C621	C62	0.301400	0.061000	0.998870
H611	H61	0.304400	0.983300	0.991400
H621	H62	0.359400	0.152000	0.991500
C631	C63	0.530100	0.105600	0.039530
H631	H63	0.618800	0.124000	0.045100
C641	C64	0.316000	0.057100	0.037010
H641	H64	0.221300	0.037400	0.039900
N461	N46	0.368200	0.074300	0.018810
N471	N47	0.511800	0.111800	0.019960
N481	N48	0.410600	0.070600	0.050890
C651	C65	0.811670	0.361830	0.333220
C661	C66	0.968070	0.394330	0.332200
H651	H65	0.971070	0.316630	0.324730
H661	H66	0.026070	0.485330	0.324830
C671	C67	0.196770	0.438930	0.372860
H671	H67	0.285470	0.457330	0.378430
C681	C68	0.982670	0.390430	0.370340
H681	H68	0.887970	0.370730	0.373230
N491	N49	0.034870	0.407630	0.352140
N501	N50	0.178470	0.445130	0.353290
N511	N51	0.077270	0.403930	0.384220
C691	C69	0.478330	0.695170	0.666560
C701	C70	0.634730	0.727670	0.665540
H691	H69	0.637730	0.649970	0.658070
H701	H70	0.692730	0.818670	0.658170
C711	C71	0.863430	0.772270	0.706200
H711	H71	0.952130	0.790670	0.711770
C721	C72	0.649330	0.723770	0.703680
H721	H72	0.554630	0.704070	0.706570
N521	N52	0.701530	0.740970	0.685480
N531	N53	0.845130	0.778470	0.686630
N541	N54	0.743930	0.737270	0.717560
C731	C73	0.145000	0.116500	0.499890
C741	C74	0.301400	0.240400	0.498870
H731	H73	0.304400	0.321100	0.491400
H741	H74	0.359400	0.207400	0.491500
C751	C75	0.530100	0.424500	0.539530
H751	H75	0.618800	0.494800	0.545100
C761	C76	0.316000	0.258900	0.537010
H761	H76	0.221300	0.183900	0.539900
N551	N55	0.368200	0.293900	0.518810
N561	N56	0.511800	0.400000	0.519960
N571	N57	0.410600	0.340000	0.550890
C771	C77	0.811670	0.449830	0.833220
C781	C78	0.968070	0.573730	0.832200
H771	H77	0.971070	0.654430	0.824730
H781	H78	0.026070	0.540730	0.824830
C791	C79	0.196770	0.757830	0.872860
H791	H79	0.285470	0.828130	0.878430
C801	C80	0.982670	0.592230	0.870340
H801	H80	0.887970	0.517230	0.873230
N581	N58	0.034870	0.627230	0.852140
N591	N59	0.178470	0.733330	0.853290
N601	N60	0.077270	0.673330	0.884220
C811	C81	0.478330	0.783170	0.166560
C821	C82	0.634730	0.907070	0.165540
H811	H81	0.637730	0.987770	0.158070
H821	H82	0.692730	0.874070	0.158170
C831	C83	0.863430	0.091170	0.206200
H831	H83	0.952130	0.161470	0.211770
C841	C84	0.649330	0.925570	0.203680
H841	H84	0.554630	0.850570	0.206570
N611	N61	0.701530	0.960570	0.185480
N621	N62	0.845130	0.066670	0.186630
N631	N63	0.743930	0.006670	0.217560
C851	C85	0.883500	0.028500	0.499890
C861	C86	0.759600	0.061000	0.498870
H851	H85	0.678900	0.983300	0.491400
H861	H86	0.792600	0.152000	0.491500
C871	C87	0.575500	0.105600	0.539530
H871	H87	0.505200	0.124000	0.545100
C881	C88	0.741100	0.057100	0.537010
H881	H88	0.816100	0.037400	0.539900
N641	N64	0.706100	0.074300	0.518810
N651	N65	0.600000	0.111800	0.519960
N661	N66	0.660000	0.070600	0.550890
C891	C89	0.550170	0.361830	0.833220
C901	C90	0.426270	0.394330	0.832200
H891	H89	0.345570	0.316630	0.824730
H901	H90	0.459270	0.485330	0.824830
C911	C91	0.242170	0.438930	0.872860
H911	H91	0.171870	0.457330	0.878430
C921	C92	0.407770	0.390430	0.870340
H921	H92	0.482770	0.370730	0.873230
N671	N67	0.372770	0.407630	0.852140
N681	N68	0.266670	0.445130	0.853290
N691	N69	0.326670	0.403930	0.884220
C931	C93	0.216830	0.695170	0.166560
C941	C94	0.092930	0.727670	0.165540
H931	H93	0.012230	0.649970	0.158070
H941	H94	0.125930	0.818670	0.158170
C951	C95	0.908830	0.772270	0.206200
H951	H95	0.838530	0.790670	0.211770
C961	C96	0.074430	0.723770	0.203680
H961	H96	0.149430	0.704070	0.206570
N701	N70	0.039430	0.740970	0.185480
N711	N71	0.933330	0.778470	0.186630
N721	N72	0.993330	0.737270	0.217560
C971	C97	0.971500	0.855000	0.499890
C981	C98	0.939000	0.698600	0.498870
H971	H97	0.016700	0.695600	0.491400
H981	H98	0.848000	0.640600	0.491500
C991	C99	0.894400	0.469900	0.539530
H991	H99	0.876000	0.381200	0.545100
C1001	C100	0.942900	0.684000	0.537010
H1001	H100	0.962600	0.778700	0.539900
N731	N73	0.925700	0.631800	0.518810
N741	N74	0.888200	0.488200	0.519960
N751	N75	0.929400	0.589400	0.550890
C1011	C101	0.638170	0.188330	0.833220
C1021	C102	0.605670	0.031930	0.832200
H1011	H101	0.683370	0.028930	0.824730
H1021	H102	0.514670	0.973930	0.824830
C1031	C103	0.561070	0.803230	0.872860
H1031	H103	0.542670	0.714530	0.878430
C1041	C104	0.609570	0.017330	0.870340
H1041	H104	0.629270	0.112030	0.873230
N761	N76	0.592370	0.965130	0.852140
N771	N77	0.554870	0.821530	0.853290
N781	N78	0.596070	0.922730	0.884220
C1051	C105	0.304830	0.521670	0.166560
C1061	C106	0.272330	0.365270	0.165540
H1051	H105	0.350030	0.362270	0.158070
H1061	H106	0.181330	0.307270	0.158170
C1071	C107	0.227730	0.136570	0.206200
H1071	H107	0.209330	0.047870	0.211770
C1081	C108	0.276230	0.350670	0.203680
H1081	H108	0.295930	0.445370	0.206570
N791	N79	0.259030	0.298470	0.185480
N801	N80	0.221530	0.154870	0.186630
N811	N81	0.262730	0.256070	0.217560
C1091	C109	0.116500	0.145000	0.000110
C1101	C110	0.240400	0.301400	0.001130
H1091	H109	0.321100	0.304400	0.008600
H1101	H110	0.207400	0.359400	0.008500
C1111	C111	0.424500	0.530100	0.960470
H1111	H111	0.494800	0.618800	0.954900
C1121	C112	0.258900	0.316000	0.962990
H1121	H112	0.183900	0.221300	0.960100
N821	N82	0.293900	0.368200	0.981190
N831	N83	0.400000	0.511800	0.980040
N841	N84	0.340000	0.410600	0.949110
C1131	C113	0.783170	0.478330	0.333440
C1141	C114	0.907070	0.634730	0.334460
H1131	H113	0.987770	0.637730	0.341930
H1141	H114	0.874070	0.692730	0.341830
C1151	C115	0.091170	0.863430	0.293800
H1151	H115	0.161470	0.952130	0.288230
C1161	C116	0.925570	0.649330	0.296320
H1161	H116	0.850570	0.554630	0.293430
N851	N85	0.960570	0.701530	0.314520
N861	N86	0.066670	0.845130	0.313370
N871	N87	0.006670	0.743930	0.282440
C1171	C117	0.449830	0.811670	0.666780
C1181	C118	0.573730	0.968070	0.667800
H1171	H117	0.654430	0.971070	0.675270
H1181	H118	0.540730	0.026070	0.675170
C1191	C119	0.757830	0.196770	0.627140
H1191	H119	0.828130	0.285470	0.621570
C1201	C120	0.592230	0.982670	0.629660
H1201	H120	0.517230	0.887970	0.626770
N881	N88	0.627230	0.034870	0.647860
N891	N89	0.733330	0.178470	0.646710
N901	N90	0.673330	0.077270	0.615780
C1211	C121	0.028500	0.883500	0.000110
C1221	C122	0.061000	0.759600	0.001130
H1211	H121	0.983300	0.678900	0.008600
H1221	H122	0.152000	0.792600	0.008500
C1231	C123	0.105600	0.575500	0.960470
H1231	H123	0.124000	0.505200	0.954900
C1241	C124	0.057100	0.741100	0.962990
H1241	H124	0.037400	0.816100	0.960100
N911	N91	0.074300	0.706100	0.981190
N921	N92	0.111800	0.600000	0.980040
N931	N93	0.070600	0.660000	0.949110
C1251	C125	0.695170	0.216830	0.333440
C1261	C126	0.727670	0.092930	0.334460
H1251	H125	0.649970	0.012230	0.341930
H1261	H126	0.818670	0.125930	0.341830
C1271	C127	0.772270	0.908830	0.293800
H1271	H127	0.790670	0.838530	0.288230
C1281	C128	0.723770	0.074430	0.296320
H1281	H128	0.704070	0.149430	0.293430
N941	N94	0.740970	0.039430	0.314520
N951	N95	0.778470	0.933330	0.313370
N961	N96	0.737270	0.993330	0.282440
C1291	C129	0.361830	0.550170	0.666780
C1301	C130	0.394330	0.426270	0.667800
H1291	H129	0.316630	0.345570	0.675270
H1301	H130	0.485330	0.459270	0.675170
C1311	C131	0.438930	0.242170	0.627140
H1311	H131	0.457330	0.171870	0.621570
C1321	C132	0.390430	0.407770	0.629660
H1321	H132	0.370730	0.482770	0.626770
N971	N97	0.407630	0.372770	0.647860
N981	N98	0.445130	0.266670	0.646710
N991	N99	0.403930	0.326670	0.615780
C1331	C133	0.855000	0.971500	0.000110
C1341	C134	0.698600	0.939000	0.001130
H1331	H133	0.695600	0.016700	0.008600
H1341	H134	0.640600	0.848000	0.008500
C1351	C135	0.469900	0.894400	0.960470
H1351	H135	0.381200	0.876000	0.954900
C1361	C136	0.684000	0.942900	0.962990
H1361	H136	0.778700	0.962600	0.960100
N1001	N100	0.631800	0.925700	0.981190
N1011	N101	0.488200	0.888200	0.980040
N1021	N102	0.589400	0.929400	0.949110
C1371	C137	0.521670	0.304830	0.333440
C1381	C138	0.365270	0.272330	0.334460
H1371	H137	0.362270	0.350030	0.341930
H1381	H138	0.307270	0.181330	0.341830
C1391	C139	0.136570	0.227730	0.293800
H1391	H139	0.047870	0.209330	0.288230
C1401	C140	0.350670	0.276230	0.296320
H1401	H140	0.445370	0.295930	0.293430
N1031	N103	0.298470	0.259030	0.314520
N1041	N104	0.154870	0.221530	0.313370
N1051	N105	0.256070	0.262730	0.282440
C1411	C141	0.188330	0.638170	0.666780
C1421	C142	0.031930	0.605670	0.667800
H1411	H141	0.028930	0.683370	0.675270
H1421	H142	0.973930	0.514670	0.675170
C1431	C143	0.803230	0.561070	0.627140
H1431	H143	0.714530	0.542670	0.621570
C1441	C144	0.017330	0.609570	0.629660
H1441	H144	0.112030	0.629270	0.626770
N1061	N106	0.965130	0.592370	0.647860
N1071	N107	0.821530	0.554870	0.646710
N1081	N108	0.922730	0.596070	0.615780
Ag11	Ag1	0.594140	0.666670	0.416670
Ag21	Ag2	0.260810	0.000000	0.750000
Ag31	Ag3	0.333330	0.927480	0.416670
Ag41	Ag4	0.000000	0.260810	0.750000
Ag51	Ag5	0.072520	0.405860	0.416670
Ag61	Ag6	0.739190	0.739190	0.750000
Ag71	Ag7	0.666670	0.594140	0.083330
Ag81	Ag8	0.927480	0.333330	0.083330
Ag91	Ag9	0.405860	0.072520	0.083330
Ag101	Ag10	0.405860	0.333330	0.583330
Ag111	Ag11	0.666670	0.072520	0.583330
Ag121	Ag12	0.927480	0.594140	0.583330
Ag131	Ag13	0.333330	0.405860	0.916670
Ag141	Ag14	0.000000	0.739190	0.250000
Ag151	Ag15	0.072520	0.666670	0.916670
Ag161	Ag16	0.739190	0.000000	0.250000
Ag171	Ag17	0.594140	0.927480	0.916670
Ag181	Ag18	0.260810	0.260810	0.250000
