data_SUWQEI_clean_PM
_symmetry_space_group_name_H-M	'P1'
_cell_length_a	12.796000
_cell_length_b	25.625000
_cell_length_c	16.112000
_cell_angle_alpha	90.000000
_cell_angle_beta	119.955000
_cell_angle_gamma	90.000000
_symmetry_Int_Tables_number 1

loop_
_symmetry_equiv_pos_as_xyz
'x,y,z'

loop_
_atom_site_label
_atom_site_type_symbol
_atom_site_fract_x
_atom_site_fract_y
_atom_site_fract_z
Cu11	Cu1	0.439900	0.255920	0.205900
N11	N1	0.084900	0.054100	0.463600
N21	N2	0.383000	0.214300	0.284900
N31	N3	0.502700	0.201200	0.633500
N41	N4	0.890000	0.056500	0.519000
N51	N5	0.619800	0.258000	0.805100
N61	N6	0.257000	0.265900	0.105500
C11	C1	0.210000	0.056000	0.509600
H11	H1	0.254000	0.035700	0.563900
C21	C2	0.269000	0.086400	0.478000
H21	H2	0.353200	0.086300	0.510600
C31	C3	0.206000	0.117600	0.398700
C41	C4	0.083000	0.117800	0.350000
H31	H3	0.037900	0.138800	0.296900
C51	C5	0.027000	0.084000	0.386000
H41	H4	0.943300	0.082700	0.353500
C61	C6	0.401000	0.162700	0.295100
H51	H5	0.449700	0.147500	0.273600
C71	C7	0.352000	0.130600	0.335800
H61	H6	0.371900	0.095400	0.346100
C81	C8	0.272000	0.152400	0.360900
C91	C9	0.248000	0.204200	0.348000
H71	H7	0.196100	0.219700	0.365600
C101	C10	0.305000	0.233600	0.308700
H81	H8	0.286500	0.268900	0.298200
C111	C11	0.542000	0.153000	0.666000
H91	H9	0.518900	0.138500	0.706800
C121	C12	0.614000	0.122800	0.643000
H101	H10	0.638800	0.089700	0.669100
C131	C13	0.646000	0.143500	0.580000
C141	C14	0.599000	0.191100	0.541000
H111	H11	0.614200	0.204800	0.494400
C151	C15	0.531000	0.218500	0.568000
H121	H12	0.501700	0.251000	0.540300
C161	C16	0.903000	0.058600	0.604000
H131	H13	0.966600	0.040000	0.652500
C171	C17	0.829000	0.086500	0.629000
H141	H14	0.843400	0.086700	0.691700
C181	C18	0.731000	0.114400	0.555100
C191	C19	0.719000	0.111300	0.467000
H151	H15	0.656100	0.129000	0.416000
C201	C20	0.800000	0.081400	0.451000
H161	H16	0.788400	0.079600	0.389600
C211	C21	0.681000	0.236100	0.891000
H171	H17	0.634300	0.218800	0.911900
C221	C22	0.804000	0.235700	0.953000
H181	H18	0.840000	0.214700	0.007400
C231	C23	0.870000	0.268000	0.930000
C241	C24	0.812000	0.295000	0.843000
H191	H19	0.856000	0.316100	0.824600
C251	C25	0.687000	0.290400	0.783000
H201	H20	0.648700	0.309900	0.727100
C261	C26	0.195000	0.309000	0.099000
H211	H21	0.237000	0.338500	0.133000
C271	C27	0.070000	0.311500	0.044000
H221	H22	0.030000	0.341900	0.042800
C281	C28	0.008000	0.269000	0.992000
C291	C29	0.067000	0.225100	0.993000
H231	H23	0.030000	0.197400	0.951500
C301	C30	0.192000	0.224900	0.063000
H241	H24	0.230400	0.192600	0.080500
Cu21	Cu2	0.560100	0.755920	0.294100
N71	N7	0.915100	0.554100	0.036400
N81	N8	0.617000	0.714300	0.215100
N91	N9	0.497300	0.701200	0.866500
N101	N10	0.110000	0.556500	0.981000
N111	N11	0.380200	0.758000	0.694900
N121	N12	0.743000	0.765900	0.394500
C311	C31	0.790000	0.556000	0.990400
H251	H25	0.746000	0.535700	0.936100
C321	C32	0.731000	0.586400	0.022000
H261	H26	0.646800	0.586300	0.989400
C331	C33	0.794000	0.617600	0.101300
C341	C34	0.917000	0.617800	0.150000
H271	H27	0.962100	0.638800	0.203100
C351	C35	0.973000	0.584000	0.114000
H281	H28	0.056700	0.582700	0.146500
C361	C36	0.599000	0.662700	0.204900
H291	H29	0.550300	0.647500	0.226400
C371	C37	0.648000	0.630600	0.164200
H301	H30	0.628100	0.595400	0.153900
C381	C38	0.728000	0.652400	0.139100
C391	C39	0.752000	0.704200	0.152000
H311	H31	0.803900	0.719700	0.134400
C401	C40	0.695000	0.733600	0.191300
H321	H32	0.713500	0.768900	0.201800
C411	C41	0.458000	0.653000	0.834000
H331	H33	0.481100	0.638500	0.793200
C421	C42	0.386000	0.622800	0.857000
H341	H34	0.361200	0.589700	0.830900
C431	C43	0.354000	0.643500	0.920000
C441	C44	0.401000	0.691100	0.959000
H351	H35	0.385800	0.704800	0.005600
C451	C45	0.469000	0.718500	0.932000
H361	H36	0.498300	0.751000	0.959700
C461	C46	0.097000	0.558600	0.896000
H371	H37	0.033400	0.540000	0.847500
C471	C47	0.171000	0.586500	0.871000
H381	H38	0.156600	0.586700	0.808300
C481	C48	0.269000	0.614400	0.944900
C491	C49	0.281000	0.611300	0.033000
H391	H39	0.343900	0.629000	0.084000
C501	C50	0.200000	0.581400	0.049000
H401	H40	0.211600	0.579600	0.110400
C511	C51	0.319000	0.736100	0.609000
H411	H41	0.365700	0.718800	0.588100
C521	C52	0.196000	0.735700	0.547000
H421	H42	0.160000	0.714700	0.492600
C531	C53	0.130000	0.768000	0.570000
C541	C54	0.188000	0.795000	0.657000
H431	H43	0.144000	0.816100	0.675400
C551	C55	0.313000	0.790400	0.717000
H441	H44	0.351300	0.809900	0.772900
C561	C56	0.805000	0.809000	0.401000
H451	H45	0.763000	0.838500	0.367000
C571	C57	0.930000	0.811500	0.456000
H461	H46	0.970000	0.841900	0.457200
C581	C58	0.992000	0.769000	0.508000
C591	C59	0.933000	0.725100	0.507000
H471	H47	0.970000	0.697400	0.548500
C601	C60	0.808000	0.724900	0.437000
H481	H48	0.769600	0.692600	0.419500
Cu31	Cu3	0.560100	0.744080	0.794100
N131	N13	0.915100	0.945900	0.536400
N141	N14	0.617000	0.785700	0.715100
N151	N15	0.497300	0.798800	0.366500
N161	N16	0.110000	0.943500	0.481000
N171	N17	0.380200	0.742000	0.194900
N181	N18	0.743000	0.734100	0.894500
C611	C61	0.790000	0.944000	0.490400
H491	H49	0.746000	0.964300	0.436100
C621	C62	0.731000	0.913600	0.522000
H501	H50	0.646800	0.913700	0.489400
C631	C63	0.794000	0.882400	0.601300
C641	C64	0.917000	0.882200	0.650000
H511	H51	0.962100	0.861200	0.703100
C651	C65	0.973000	0.916000	0.614000
H521	H52	0.056700	0.917300	0.646500
C661	C66	0.599000	0.837300	0.704900
H531	H53	0.550300	0.852500	0.726400
C671	C67	0.648000	0.869400	0.664200
H541	H54	0.628100	0.904600	0.653900
C681	C68	0.728000	0.847600	0.639100
C691	C69	0.752000	0.795800	0.652000
H551	H55	0.803900	0.780300	0.634400
C701	C70	0.695000	0.766400	0.691300
H561	H56	0.713500	0.731100	0.701800
C711	C71	0.458000	0.847000	0.334000
H571	H57	0.481100	0.861500	0.293200
C721	C72	0.386000	0.877200	0.357000
H581	H58	0.361200	0.910300	0.330900
C731	C73	0.354000	0.856500	0.420000
C741	C74	0.401000	0.808900	0.459000
H591	H59	0.385800	0.795200	0.505600
C751	C75	0.469000	0.781500	0.432000
H601	H60	0.498300	0.749000	0.459700
C761	C76	0.097000	0.941400	0.396000
H611	H61	0.033400	0.960000	0.347500
C771	C77	0.171000	0.913500	0.371000
H621	H62	0.156600	0.913300	0.308300
C781	C78	0.269000	0.885600	0.444900
C791	C79	0.281000	0.888700	0.533000
H631	H63	0.343900	0.871000	0.584000
C801	C80	0.200000	0.918600	0.549000
H641	H64	0.211600	0.920400	0.610400
C811	C81	0.319000	0.763900	0.109000
H651	H65	0.365700	0.781200	0.088100
C821	C82	0.196000	0.764300	0.047000
H661	H66	0.160000	0.785300	0.992600
C831	C83	0.130000	0.732000	0.070000
C841	C84	0.188000	0.705000	0.157000
H671	H67	0.144000	0.683900	0.175400
C851	C85	0.313000	0.709600	0.217000
H681	H68	0.351300	0.690100	0.272900
C861	C86	0.805000	0.691000	0.901000
H691	H69	0.763000	0.661500	0.867000
C871	C87	0.930000	0.688500	0.956000
H701	H70	0.970000	0.658100	0.957200
C881	C88	0.992000	0.731000	0.008000
C891	C89	0.933000	0.774900	0.007000
H711	H71	0.970000	0.802600	0.048500
C901	C90	0.808000	0.775100	0.937000
H721	H72	0.769600	0.807400	0.919500
Cu41	Cu4	0.439900	0.244080	0.705900
N191	N19	0.084900	0.445900	0.963600
N201	N20	0.383000	0.285700	0.784900
N211	N21	0.502700	0.298800	0.133500
N221	N22	0.890000	0.443500	0.019000
N231	N23	0.619800	0.242000	0.305100
N241	N24	0.257000	0.234100	0.605500
C911	C91	0.210000	0.444000	0.009600
H731	H73	0.254000	0.464300	0.063900
C921	C92	0.269000	0.413600	0.978000
H741	H74	0.353200	0.413700	0.010600
C931	C93	0.206000	0.382400	0.898700
C941	C94	0.083000	0.382200	0.850000
H751	H75	0.037900	0.361200	0.796900
C951	C95	0.027000	0.416000	0.886000
H761	H76	0.943300	0.417300	0.853500
C961	C96	0.401000	0.337300	0.795100
H771	H77	0.449700	0.352500	0.773600
C971	C97	0.352000	0.369400	0.835800
H781	H78	0.371900	0.404600	0.846100
C981	C98	0.272000	0.347600	0.860900
C991	C99	0.248000	0.295800	0.848000
H791	H79	0.196100	0.280300	0.865600
C1001	C100	0.305000	0.266400	0.808700
H801	H80	0.286500	0.231100	0.798200
C1011	C101	0.542000	0.347000	0.166000
H811	H81	0.518900	0.361500	0.206800
C1021	C102	0.614000	0.377200	0.143000
H821	H82	0.638800	0.410300	0.169100
C1031	C103	0.646000	0.356500	0.080000
C1041	C104	0.599000	0.308900	0.041000
H831	H83	0.614200	0.295200	0.994400
C1051	C105	0.531000	0.281500	0.068000
H841	H84	0.501700	0.249000	0.040300
C1061	C106	0.903000	0.441400	0.104000
H851	H85	0.966600	0.460000	0.152500
C1071	C107	0.829000	0.413500	0.129000
H861	H86	0.843400	0.413300	0.191700
C1081	C108	0.731000	0.385600	0.055100
C1091	C109	0.719000	0.388700	0.967000
H871	H87	0.656100	0.371000	0.916000
C1101	C110	0.800000	0.418600	0.951000
H881	H88	0.788400	0.420400	0.889600
C1111	C111	0.681000	0.263900	0.391000
H891	H89	0.634300	0.281200	0.411900
C1121	C112	0.804000	0.264300	0.453000
H901	H90	0.840000	0.285300	0.507400
C1131	C113	0.870000	0.232000	0.430000
C1141	C114	0.812000	0.205000	0.343000
H911	H91	0.856000	0.183900	0.324600
C1151	C115	0.687000	0.209600	0.283000
H921	H92	0.648700	0.190100	0.227100
C1161	C116	0.195000	0.191000	0.599000
H931	H93	0.237000	0.161500	0.633000
C1171	C117	0.070000	0.188500	0.544000
H941	H94	0.030000	0.158100	0.542800
C1181	C118	0.008000	0.231000	0.492000
C1191	C119	0.067000	0.274900	0.493000
H951	H95	0.030000	0.302600	0.451500
C1201	C120	0.192000	0.275100	0.563000
H961	H96	0.230400	0.307400	0.580500
Cu51	Cu5	0.000000	0.000000	0.500000
Cu61	Cu6	0.000000	0.500000	0.000000
