data_SUXYAM_clean_PM
_symmetry_space_group_name_H-M	'P1'
_cell_length_a	15.380400
_cell_length_b	15.380400
_cell_length_c	22.984300
_cell_angle_alpha	90.000000
_cell_angle_beta	90.000000
_cell_angle_gamma	90.000000
_symmetry_Int_Tables_number 1

loop_
_symmetry_equiv_pos_as_xyz
'x,y,z'

loop_
_atom_site_label
_atom_site_type_symbol
_atom_site_fract_x
_atom_site_fract_y
_atom_site_fract_z
O11	O1	0.591910	0.219650	0.293030
O21	O2	0.533380	0.396860	0.343240
N11	N1	0.669630	0.234490	0.272930
N21	N2	0.528330	0.446420	0.297450
C11	C1	0.708320	0.173770	0.238970
H11	H1	0.679700	0.120200	0.231500
C21	C2	0.711140	0.310410	0.284600
H21	H2	0.684500	0.352500	0.309000
C31	C3	0.527150	0.412380	0.243140
H31	H3	0.526400	0.351100	0.238000
C41	C4	0.527020	0.533830	0.304530
H41	H4	0.526000	0.558000	0.342600
O31	O3	0.091910	0.719650	0.793030
O41	O4	0.033380	0.896860	0.843240
N31	N3	0.169630	0.734490	0.772930
N41	N4	0.028330	0.946420	0.797450
C51	C5	0.208320	0.673770	0.738970
H51	H5	0.179700	0.620200	0.731500
C61	C6	0.211140	0.810410	0.784600
H61	H6	0.184500	0.852500	0.809000
C71	C7	0.027150	0.912380	0.743140
H71	H7	0.026400	0.851100	0.738000
C81	C8	0.027020	0.033830	0.804530
H81	H8	0.026000	0.058000	0.842600
O51	O5	0.908090	0.780350	0.793030
O61	O6	0.966620	0.603140	0.843240
N51	N5	0.830370	0.765510	0.772930
N61	N6	0.971670	0.553580	0.797450
C91	C9	0.791680	0.826230	0.738970
H91	H9	0.820300	0.879800	0.731500
C101	C10	0.788860	0.689590	0.784600
H101	H10	0.815500	0.647500	0.809000
C111	C11	0.972850	0.587620	0.743140
H111	H11	0.973600	0.648900	0.738000
C121	C12	0.972980	0.466170	0.804530
H121	H12	0.974000	0.442000	0.842600
O71	O7	0.408090	0.280350	0.293030
O81	O8	0.466620	0.103140	0.343240
N71	N7	0.330370	0.265510	0.272930
N81	N8	0.471670	0.053580	0.297450
C131	C13	0.291680	0.326230	0.238970
H131	H13	0.320300	0.379800	0.231500
C141	C14	0.288860	0.189590	0.284600
H141	H14	0.315500	0.147500	0.309000
C151	C15	0.472850	0.087620	0.243140
H151	H15	0.473600	0.148900	0.238000
C161	C16	0.472980	0.966170	0.304530
H161	H16	0.474000	0.942000	0.342600
O91	O9	0.030350	0.341910	0.543030
O101	O10	0.853140	0.283380	0.593240
N91	N9	0.015510	0.419630	0.522930
N101	N10	0.803580	0.278330	0.547450
C171	C17	0.076230	0.458320	0.488970
H171	H17	0.129800	0.429700	0.481500
C181	C18	0.939590	0.461140	0.534600
H181	H18	0.897500	0.434500	0.559000
C191	C19	0.837620	0.277150	0.493140
H191	H19	0.898900	0.276400	0.488000
C201	C20	0.716170	0.277020	0.554530
H201	H20	0.692000	0.276000	0.592600
O111	O11	0.530350	0.841910	0.043030
O121	O12	0.353140	0.783380	0.093240
N111	N11	0.515510	0.919630	0.022930
N121	N12	0.303580	0.778330	0.047450
C211	C21	0.576230	0.958320	0.988970
H211	H21	0.629800	0.929700	0.981500
C221	C22	0.439590	0.961140	0.034600
H221	H22	0.397500	0.934500	0.059000
C231	C23	0.337620	0.777150	0.993140
H231	H23	0.398900	0.776400	0.988000
C241	C24	0.216170	0.777020	0.054530
H241	H24	0.192000	0.776000	0.092600
O131	O13	0.469650	0.658090	0.043030
O141	O14	0.646860	0.716620	0.093240
N131	N13	0.484490	0.580370	0.022930
N141	N14	0.696420	0.721670	0.047450
C251	C25	0.423770	0.541680	0.988970
H251	H25	0.370200	0.570300	0.981500
C261	C26	0.560410	0.538860	0.034600
H261	H26	0.602500	0.565500	0.059000
C271	C27	0.662380	0.722850	0.993140
H271	H27	0.601100	0.723600	0.988000
C281	C28	0.783830	0.722980	0.054530
H281	H28	0.808000	0.724000	0.092600
O151	O15	0.969650	0.158090	0.543030
O161	O16	0.146860	0.216620	0.593240
N151	N15	0.984490	0.080370	0.522930
N161	N16	0.196420	0.221670	0.547450
C291	C29	0.923770	0.041680	0.488970
H291	H29	0.870200	0.070300	0.481500
C301	C30	0.060410	0.038860	0.534600
H301	H30	0.102500	0.065500	0.559000
C311	C31	0.162380	0.222850	0.493140
H311	H31	0.101100	0.223600	0.488000
C321	C32	0.283830	0.222980	0.554530
H321	H32	0.308000	0.224000	0.592600
O171	O17	0.908090	0.219650	0.706970
O181	O18	0.966620	0.396860	0.656760
N171	N17	0.830370	0.234490	0.727070
N181	N18	0.971670	0.446420	0.702550
C331	C33	0.791680	0.173770	0.761030
H331	H33	0.820300	0.120200	0.768500
C341	C34	0.788860	0.310410	0.715400
H341	H34	0.815500	0.352500	0.691000
C351	C35	0.972850	0.412380	0.756860
H351	H35	0.973600	0.351100	0.762000
C361	C36	0.972980	0.533830	0.695470
H361	H36	0.974000	0.558000	0.657400
O191	O19	0.408090	0.719650	0.206970
O201	O20	0.466620	0.896860	0.156760
N191	N19	0.330370	0.734490	0.227070
N201	N20	0.471670	0.946420	0.202550
C371	C37	0.291680	0.673770	0.261030
H371	H37	0.320300	0.620200	0.268500
C381	C38	0.288860	0.810410	0.215400
H381	H38	0.315500	0.852500	0.191000
C391	C39	0.472850	0.912380	0.256860
H391	H39	0.473600	0.851100	0.262000
C401	C40	0.472980	0.033830	0.195470
H401	H40	0.474000	0.058000	0.157400
O211	O21	0.591910	0.780350	0.206970
O221	O22	0.533380	0.603140	0.156760
N211	N21	0.669630	0.765510	0.227070
N221	N22	0.528330	0.553580	0.202550
C411	C41	0.708320	0.826230	0.261030
H411	H41	0.679700	0.879800	0.268500
C421	C42	0.711140	0.689590	0.215400
H421	H42	0.684500	0.647500	0.191000
C431	C43	0.527150	0.587620	0.256860
H431	H43	0.526400	0.648900	0.262000
C441	C44	0.527020	0.466170	0.195470
H441	H44	0.526000	0.442000	0.157400
O231	O23	0.091910	0.280350	0.706970
O241	O24	0.033380	0.103140	0.656760
N231	N23	0.169630	0.265510	0.727070
N241	N24	0.028330	0.053580	0.702550
C451	C45	0.208320	0.326230	0.761030
H451	H45	0.179700	0.379800	0.768500
C461	C46	0.211140	0.189590	0.715400
H461	H46	0.184500	0.147500	0.691000
C471	C47	0.027150	0.087620	0.756860
H471	H47	0.026400	0.148900	0.762000
C481	C48	0.027020	0.966170	0.695470
H481	H48	0.026000	0.942000	0.657400
O251	O25	0.469650	0.341910	0.456970
O261	O26	0.646860	0.283380	0.406760
N251	N25	0.484490	0.419630	0.477070
N261	N26	0.696420	0.278330	0.452550
C491	C49	0.423770	0.458320	0.511030
H491	H49	0.370200	0.429700	0.518500
C501	C50	0.560410	0.461140	0.465400
H501	H50	0.602500	0.434500	0.441000
C511	C51	0.662380	0.277150	0.506860
H511	H51	0.601100	0.276400	0.512000
C521	C52	0.783830	0.277020	0.445470
H521	H52	0.808000	0.276000	0.407400
O271	O27	0.969650	0.841910	0.956970
O281	O28	0.146860	0.783380	0.906760
N271	N27	0.984490	0.919630	0.977070
N281	N28	0.196420	0.778330	0.952550
C531	C53	0.923770	0.958320	0.011030
H531	H53	0.870200	0.929700	0.018500
C541	C54	0.060410	0.961140	0.965400
H541	H54	0.102500	0.934500	0.941000
C551	C55	0.162380	0.777150	0.006860
H551	H55	0.101100	0.776400	0.012000
C561	C56	0.283830	0.777020	0.945470
H561	H56	0.308000	0.776000	0.907400
O291	O29	0.030350	0.658090	0.956970
O301	O30	0.853140	0.716620	0.906760
N291	N29	0.015510	0.580370	0.977070
N301	N30	0.803580	0.721670	0.952550
C571	C57	0.076230	0.541680	0.011030
H571	H57	0.129800	0.570300	0.018500
C581	C58	0.939590	0.538860	0.965400
H581	H58	0.897500	0.565500	0.941000
C591	C59	0.837620	0.722850	0.006860
H591	H59	0.898900	0.723600	0.012000
C601	C60	0.716170	0.722980	0.945470
H601	H60	0.692000	0.724000	0.907400
O311	O31	0.530350	0.158090	0.456970
O321	O32	0.353140	0.216620	0.406760
N311	N31	0.515510	0.080370	0.477070
N321	N32	0.303580	0.221670	0.452550
C611	C61	0.576230	0.041680	0.511030
H611	H61	0.629800	0.070300	0.518500
C621	C62	0.439590	0.038860	0.465400
H621	H62	0.397500	0.065500	0.441000
C631	C63	0.337620	0.222850	0.506860
H631	H63	0.398900	0.223600	0.512000
C641	C64	0.216170	0.222980	0.445470
H641	H64	0.192000	0.224000	0.407400
O331	O33	0.408090	0.780350	0.706970
O341	O34	0.466620	0.603140	0.656760
N331	N33	0.330370	0.765510	0.727070
N341	N34	0.471670	0.553580	0.702550
C651	C65	0.291680	0.826230	0.761030
H651	H65	0.320300	0.879800	0.768500
C661	C66	0.288860	0.689590	0.715400
H661	H66	0.315500	0.647500	0.691000
C671	C67	0.472850	0.587620	0.756860
H671	H67	0.473600	0.648900	0.762000
C681	C68	0.472980	0.466170	0.695470
H681	H68	0.474000	0.442000	0.657400
O351	O35	0.908090	0.280350	0.206970
O361	O36	0.966620	0.103140	0.156760
N351	N35	0.830370	0.265510	0.227070
N361	N36	0.971670	0.053580	0.202550
C691	C69	0.791680	0.326230	0.261030
H691	H69	0.820300	0.379800	0.268500
C701	C70	0.788860	0.189590	0.215400
H701	H70	0.815500	0.147500	0.191000
C711	C71	0.972850	0.087620	0.256860
H711	H71	0.973600	0.148900	0.262000
C721	C72	0.972980	0.966170	0.195470
H721	H72	0.974000	0.942000	0.157400
O371	O37	0.091910	0.219650	0.206970
O381	O38	0.033380	0.396860	0.156760
N371	N37	0.169630	0.234490	0.227070
N381	N38	0.028330	0.446420	0.202550
C731	C73	0.208320	0.173770	0.261030
H731	H73	0.179700	0.120200	0.268500
C741	C74	0.211140	0.310410	0.215400
H741	H74	0.184500	0.352500	0.191000
C751	C75	0.027150	0.412380	0.256860
H751	H75	0.026400	0.351100	0.262000
C761	C76	0.027020	0.533830	0.195470
H761	H76	0.026000	0.558000	0.157400
O391	O39	0.591910	0.719650	0.706970
O401	O40	0.533380	0.896860	0.656760
N391	N39	0.669630	0.734490	0.727070
N401	N40	0.528330	0.946420	0.702550
C771	C77	0.708320	0.673770	0.761030
H771	H77	0.679700	0.620200	0.768500
C781	C78	0.711140	0.810410	0.715400
H781	H78	0.684500	0.852500	0.691000
C791	C79	0.527150	0.912380	0.756860
H791	H79	0.526400	0.851100	0.762000
C801	C80	0.527020	0.033830	0.695470
H801	H80	0.526000	0.058000	0.657400
O411	O41	0.969650	0.658090	0.456970
O421	O42	0.146860	0.716620	0.406760
N411	N41	0.984490	0.580370	0.477070
N421	N42	0.196420	0.721670	0.452550
C811	C81	0.923770	0.541680	0.511030
H811	H81	0.870200	0.570300	0.518500
C821	C82	0.060410	0.538860	0.465400
H821	H82	0.102500	0.565500	0.441000
C831	C83	0.162380	0.722850	0.506860
H831	H83	0.101100	0.723600	0.512000
C841	C84	0.283830	0.722980	0.445470
H841	H84	0.308000	0.724000	0.407400
O431	O43	0.469650	0.158090	0.956970
O441	O44	0.646860	0.216620	0.906760
N431	N43	0.484490	0.080370	0.977070
N441	N44	0.696420	0.221670	0.952550
C851	C85	0.423770	0.041680	0.011030
H851	H85	0.370200	0.070300	0.018500
C861	C86	0.560410	0.038860	0.965400
H861	H86	0.602500	0.065500	0.941000
C871	C87	0.662380	0.222850	0.006860
H871	H87	0.601100	0.223600	0.012000
C881	C88	0.783830	0.222980	0.945470
H881	H88	0.808000	0.224000	0.907400
O451	O45	0.530350	0.341910	0.956970
O461	O46	0.353140	0.283380	0.906760
N451	N45	0.515510	0.419630	0.977070
N461	N46	0.303580	0.278330	0.952550
C891	C89	0.576230	0.458320	0.011030
H891	H89	0.629800	0.429700	0.018500
C901	C90	0.439590	0.461140	0.965400
H901	H90	0.397500	0.434500	0.941000
C911	C91	0.337620	0.277150	0.006860
H911	H91	0.398900	0.276400	0.012000
C921	C92	0.216170	0.277020	0.945470
H921	H92	0.192000	0.276000	0.907400
O471	O47	0.030350	0.841910	0.456970
O481	O48	0.853140	0.783380	0.406760
N471	N47	0.015510	0.919630	0.477070
N481	N48	0.803580	0.778330	0.452550
C931	C93	0.076230	0.958320	0.511030
H931	H93	0.129800	0.929700	0.518500
C941	C94	0.939590	0.961140	0.465400
H941	H94	0.897500	0.934500	0.441000
C951	C95	0.837620	0.777150	0.506860
H951	H95	0.898900	0.776400	0.512000
C961	C96	0.716170	0.777020	0.445470
H961	H96	0.692000	0.776000	0.407400
O491	O49	0.091910	0.780350	0.293030
O501	O50	0.033380	0.603140	0.343240
N491	N49	0.169630	0.765510	0.272930
N501	N50	0.028330	0.553580	0.297450
C971	C97	0.208320	0.826230	0.238970
H971	H97	0.179700	0.879800	0.231500
C981	C98	0.211140	0.689590	0.284600
H981	H98	0.184500	0.647500	0.309000
C991	C99	0.027150	0.587620	0.243140
H991	H99	0.026400	0.648900	0.238000
C1001	C100	0.027020	0.466170	0.304530
H1001	H100	0.026000	0.442000	0.342600
O511	O51	0.591910	0.280350	0.793030
O521	O52	0.533380	0.103140	0.843240
N511	N51	0.669630	0.265510	0.772930
N521	N52	0.528330	0.053580	0.797450
C1011	C101	0.708320	0.326230	0.738970
H1011	H101	0.679700	0.379800	0.731500
C1021	C102	0.711140	0.189590	0.784600
H1021	H102	0.684500	0.147500	0.809000
C1031	C103	0.527150	0.087620	0.743140
H1031	H103	0.526400	0.148900	0.738000
C1041	C104	0.527020	0.966170	0.804530
H1041	H104	0.526000	0.942000	0.842600
O531	O53	0.408090	0.219650	0.793030
O541	O54	0.466620	0.396860	0.843240
N531	N53	0.330370	0.234490	0.772930
N541	N54	0.471670	0.446420	0.797450
C1051	C105	0.291680	0.173770	0.738970
H1051	H105	0.320300	0.120200	0.731500
C1061	C106	0.288860	0.310410	0.784600
H1061	H106	0.315500	0.352500	0.809000
C1071	C107	0.472850	0.412380	0.743140
H1071	H107	0.473600	0.351100	0.738000
C1081	C108	0.472980	0.533830	0.804530
H1081	H108	0.474000	0.558000	0.842600
O551	O55	0.908090	0.719650	0.293030
O561	O56	0.966620	0.896860	0.343240
N551	N55	0.830370	0.734490	0.272930
N561	N56	0.971670	0.946420	0.297450
C1091	C109	0.791680	0.673770	0.238970
H1091	H109	0.820300	0.620200	0.231500
C1101	C110	0.788860	0.810410	0.284600
H1101	H110	0.815500	0.852500	0.309000
C1111	C111	0.972850	0.912380	0.243140
H1111	H111	0.973600	0.851100	0.238000
C1121	C112	0.972980	0.033830	0.304530
H1121	H112	0.974000	0.058000	0.342600
O571	O57	0.530350	0.658090	0.543030
O581	O58	0.353140	0.716620	0.593240
N571	N57	0.515510	0.580370	0.522930
N581	N58	0.303580	0.721670	0.547450
C1131	C113	0.576230	0.541680	0.488970
H1131	H113	0.629800	0.570300	0.481500
C1141	C114	0.439590	0.538860	0.534600
H1141	H114	0.397500	0.565500	0.559000
C1151	C115	0.337620	0.722850	0.493140
H1151	H115	0.398900	0.723600	0.488000
C1161	C116	0.216170	0.722980	0.554530
H1161	H116	0.192000	0.724000	0.592600
O591	O59	0.030350	0.158090	0.043030
O601	O60	0.853140	0.216620	0.093240
N591	N59	0.015510	0.080370	0.022930
N601	N60	0.803580	0.221670	0.047450
C1171	C117	0.076230	0.041680	0.988970
H1171	H117	0.129800	0.070300	0.981500
C1181	C118	0.939590	0.038860	0.034600
H1181	H118	0.897500	0.065500	0.059000
C1191	C119	0.837620	0.222850	0.993140
H1191	H119	0.898900	0.223600	0.988000
C1201	C120	0.716170	0.222980	0.054530
H1201	H120	0.692000	0.224000	0.092600
O611	O61	0.969650	0.341910	0.043030
O621	O62	0.146860	0.283380	0.093240
N611	N61	0.984490	0.419630	0.022930
N621	N62	0.196420	0.278330	0.047450
C1211	C121	0.923770	0.458320	0.988970
H1211	H121	0.870200	0.429700	0.981500
C1221	C122	0.060410	0.461140	0.034600
H1221	H122	0.102500	0.434500	0.059000
C1231	C123	0.162380	0.277150	0.993140
H1231	H123	0.101100	0.276400	0.988000
C1241	C124	0.283830	0.277020	0.054530
H1241	H124	0.308000	0.276000	0.092600
O631	O63	0.469650	0.841910	0.543030
O641	O64	0.646860	0.783380	0.593240
N631	N63	0.484490	0.919630	0.522930
N641	N64	0.696420	0.778330	0.547450
C1251	C125	0.423770	0.958320	0.488970
H1251	H125	0.370200	0.929700	0.481500
C1261	C126	0.560410	0.961140	0.534600
H1261	H126	0.602500	0.934500	0.559000
C1271	C127	0.662380	0.777150	0.493140
H1271	H127	0.601100	0.776400	0.488000
C1281	C128	0.783830	0.777020	0.554530
H1281	H128	0.808000	0.776000	0.592600
Nd11	Nd1	0.500000	0.250000	0.375000
Nd21	Nd2	0.000000	0.750000	0.875000
Nd31	Nd3	0.000000	0.250000	0.625000
Nd41	Nd4	0.500000	0.750000	0.125000
Nd51	Nd5	0.500000	0.750000	0.625000
Nd61	Nd6	0.000000	0.250000	0.125000
Nd71	Nd7	0.000000	0.750000	0.375000
Nd81	Nd8	0.500000	0.250000	0.875000
