data_SUXYIU_clean_PM
_symmetry_space_group_name_H-M	'P1'
_cell_length_a	15.230200
_cell_length_b	15.230200
_cell_length_c	22.633400
_cell_angle_alpha	90.000000
_cell_angle_beta	90.000000
_cell_angle_gamma	90.000000
_symmetry_Int_Tables_number 1

loop_
_symmetry_equiv_pos_as_xyz
'x,y,z'

loop_
_atom_site_label
_atom_site_type_symbol
_atom_site_fract_x
_atom_site_fract_y
_atom_site_fract_z
O11	O1	0.591060	0.218810	0.295290
O21	O2	0.532020	0.394240	0.343960
N11	N1	0.669320	0.234220	0.274250
N21	N2	0.526910	0.444630	0.297710
C11	C1	0.708540	0.172330	0.240340
H11	H1	0.680000	0.117800	0.233600
C21	C2	0.789320	0.188050	0.215580
H21	H2	0.816300	0.144800	0.191400
C31	C3	0.526200	0.411700	0.242380
H31	H3	0.525900	0.349900	0.236600
C41	C4	0.525900	0.466760	0.194480
H41	H4	0.524900	0.443000	0.155700
O31	O3	0.091060	0.718810	0.795290
O41	O4	0.032020	0.894240	0.843960
N31	N3	0.169320	0.734220	0.774250
N41	N4	0.026910	0.944630	0.797710
C51	C5	0.208540	0.672330	0.740340
H51	H5	0.180000	0.617800	0.733600
C61	C6	0.289320	0.688050	0.715580
H61	H6	0.316300	0.644800	0.691400
C71	C7	0.026200	0.911700	0.742380
H71	H7	0.025900	0.849900	0.736600
C81	C8	0.025900	0.966760	0.694480
H81	H8	0.024900	0.943000	0.655700
O51	O5	0.908940	0.781190	0.795290
O61	O6	0.967980	0.605760	0.843960
N51	N5	0.830680	0.765780	0.774250
N61	N6	0.973090	0.555370	0.797710
C91	C9	0.791460	0.827670	0.740340
H91	H9	0.820000	0.882200	0.733600
C101	C10	0.710680	0.811950	0.715580
H101	H10	0.683700	0.855200	0.691400
C111	C11	0.973800	0.588300	0.742380
H111	H11	0.974100	0.650100	0.736600
C121	C12	0.974100	0.533240	0.694480
H121	H12	0.975100	0.557000	0.655700
O71	O7	0.408940	0.281190	0.295290
O81	O8	0.467980	0.105760	0.343960
N71	N7	0.330680	0.265780	0.274250
N81	N8	0.473090	0.055370	0.297710
C131	C13	0.291460	0.327670	0.240340
H131	H13	0.320000	0.382200	0.233600
C141	C14	0.210680	0.311950	0.215580
H141	H14	0.183700	0.355200	0.191400
C151	C15	0.473800	0.088300	0.242380
H151	H15	0.474100	0.150100	0.236600
C161	C16	0.474100	0.033240	0.194480
H161	H16	0.475100	0.057000	0.155700
O91	O9	0.031190	0.341060	0.545290
O101	O10	0.855760	0.282020	0.593960
N91	N9	0.015780	0.419320	0.524250
N101	N10	0.805370	0.276910	0.547710
C171	C17	0.077670	0.458540	0.490340
H171	H17	0.132200	0.430000	0.483600
C181	C18	0.061950	0.539320	0.465580
H181	H18	0.105200	0.566300	0.441400
C191	C19	0.838300	0.276200	0.492380
H191	H19	0.900100	0.275900	0.486600
C201	C20	0.783240	0.275900	0.444480
H201	H20	0.807000	0.274900	0.405700
O111	O11	0.531190	0.841060	0.045290
O121	O12	0.355760	0.782020	0.093960
N111	N11	0.515780	0.919320	0.024250
N121	N12	0.305370	0.776910	0.047710
C211	C21	0.577670	0.958540	0.990340
H211	H21	0.632200	0.930000	0.983600
C221	C22	0.561950	0.039320	0.965580
H221	H22	0.605200	0.066300	0.941400
C231	C23	0.338300	0.776200	0.992380
H231	H23	0.400100	0.775900	0.986600
C241	C24	0.283240	0.775900	0.944480
H241	H24	0.307000	0.774900	0.905700
O131	O13	0.468810	0.658940	0.045290
O141	O14	0.644240	0.717980	0.093960
N131	N13	0.484220	0.580680	0.024250
N141	N14	0.694630	0.723090	0.047710
C251	C25	0.422330	0.541460	0.990340
H251	H25	0.367800	0.570000	0.983600
C261	C26	0.438050	0.460680	0.965580
H261	H26	0.394800	0.433700	0.941400
C271	C27	0.661700	0.723800	0.992380
H271	H27	0.599900	0.724100	0.986600
C281	C28	0.716760	0.724100	0.944480
H281	H28	0.693000	0.725100	0.905700
O151	O15	0.968810	0.158940	0.545290
O161	O16	0.144240	0.217980	0.593960
N151	N15	0.984220	0.080680	0.524250
N161	N16	0.194630	0.223090	0.547710
C291	C29	0.922330	0.041460	0.490340
H291	H29	0.867800	0.070000	0.483600
C301	C30	0.938050	0.960680	0.465580
H301	H30	0.894800	0.933700	0.441400
C311	C31	0.161700	0.223800	0.492380
H311	H31	0.099900	0.224100	0.486600
C321	C32	0.216760	0.224100	0.444480
H321	H32	0.193000	0.225100	0.405700
O171	O17	0.908940	0.218810	0.704710
O181	O18	0.967980	0.394240	0.656040
N171	N17	0.830680	0.234220	0.725750
N181	N18	0.973090	0.444630	0.702290
C331	C33	0.791460	0.172330	0.759660
H331	H33	0.820000	0.117800	0.766400
C341	C34	0.710680	0.188050	0.784420
H341	H34	0.683700	0.144800	0.808600
C351	C35	0.973800	0.411700	0.757620
H351	H35	0.974100	0.349900	0.763400
C361	C36	0.974100	0.466760	0.805520
H361	H36	0.975100	0.443000	0.844300
O191	O19	0.408940	0.718810	0.204710
O201	O20	0.467980	0.894240	0.156040
N191	N19	0.330680	0.734220	0.225750
N201	N20	0.473090	0.944630	0.202290
C371	C37	0.291460	0.672330	0.259660
H371	H37	0.320000	0.617800	0.266400
C381	C38	0.210680	0.688050	0.284420
H381	H38	0.183700	0.644800	0.308600
C391	C39	0.473800	0.911700	0.257620
H391	H39	0.474100	0.849900	0.263400
C401	C40	0.474100	0.966760	0.305520
H401	H40	0.475100	0.943000	0.344300
O211	O21	0.591060	0.781190	0.204710
O221	O22	0.532020	0.605760	0.156040
N211	N21	0.669320	0.765780	0.225750
N221	N22	0.526910	0.555370	0.202290
C411	C41	0.708540	0.827670	0.259660
H411	H41	0.680000	0.882200	0.266400
C421	C42	0.789320	0.811950	0.284420
H421	H42	0.816300	0.855200	0.308600
C431	C43	0.526200	0.588300	0.257620
H431	H43	0.525900	0.650100	0.263400
C441	C44	0.525900	0.533240	0.305520
H441	H44	0.524900	0.557000	0.344300
O231	O23	0.091060	0.281190	0.704710
O241	O24	0.032020	0.105760	0.656040
N231	N23	0.169320	0.265780	0.725750
N241	N24	0.026910	0.055370	0.702290
C451	C45	0.208540	0.327670	0.759660
H451	H45	0.180000	0.382200	0.766400
C461	C46	0.289320	0.311950	0.784420
H461	H46	0.316300	0.355200	0.808600
C471	C47	0.026200	0.088300	0.757620
H471	H47	0.025900	0.150100	0.763400
C481	C48	0.025900	0.033240	0.805520
H481	H48	0.024900	0.057000	0.844300
O251	O25	0.468810	0.341060	0.454710
O261	O26	0.644240	0.282020	0.406040
N251	N25	0.484220	0.419320	0.475750
N261	N26	0.694630	0.276910	0.452290
C491	C49	0.422330	0.458540	0.509660
H491	H49	0.367800	0.430000	0.516400
C501	C50	0.438050	0.539320	0.534420
H501	H50	0.394800	0.566300	0.558600
C511	C51	0.661700	0.276200	0.507620
H511	H51	0.599900	0.275900	0.513400
C521	C52	0.716760	0.275900	0.555520
H521	H52	0.693000	0.274900	0.594300
O271	O27	0.968810	0.841060	0.954710
O281	O28	0.144240	0.782020	0.906040
N271	N27	0.984220	0.919320	0.975750
N281	N28	0.194630	0.776910	0.952290
C531	C53	0.922330	0.958540	0.009660
H531	H53	0.867800	0.930000	0.016400
C541	C54	0.938050	0.039320	0.034420
H541	H54	0.894800	0.066300	0.058600
C551	C55	0.161700	0.776200	0.007620
H551	H55	0.099900	0.775900	0.013400
C561	C56	0.216760	0.775900	0.055520
H561	H56	0.193000	0.774900	0.094300
O291	O29	0.031190	0.658940	0.954710
O301	O30	0.855760	0.717980	0.906040
N291	N29	0.015780	0.580680	0.975750
N301	N30	0.805370	0.723090	0.952290
C571	C57	0.077670	0.541460	0.009660
H571	H57	0.132200	0.570000	0.016400
C581	C58	0.061950	0.460680	0.034420
H581	H58	0.105200	0.433700	0.058600
C591	C59	0.838300	0.723800	0.007620
H591	H59	0.900100	0.724100	0.013400
C601	C60	0.783240	0.724100	0.055520
H601	H60	0.807000	0.725100	0.094300
O311	O31	0.531190	0.158940	0.454710
O321	O32	0.355760	0.217980	0.406040
N311	N31	0.515780	0.080680	0.475750
N321	N32	0.305370	0.223090	0.452290
C611	C61	0.577670	0.041460	0.509660
H611	H61	0.632200	0.070000	0.516400
C621	C62	0.561950	0.960680	0.534420
H621	H62	0.605200	0.933700	0.558600
C631	C63	0.338300	0.223800	0.507620
H631	H63	0.400100	0.224100	0.513400
C641	C64	0.283240	0.224100	0.555520
H641	H64	0.307000	0.225100	0.594300
O331	O33	0.408940	0.781190	0.704710
O341	O34	0.467980	0.605760	0.656040
N331	N33	0.330680	0.765780	0.725750
N341	N34	0.473090	0.555370	0.702290
C651	C65	0.291460	0.827670	0.759660
H651	H65	0.320000	0.882200	0.766400
C661	C66	0.210680	0.811950	0.784420
H661	H66	0.183700	0.855200	0.808600
C671	C67	0.473800	0.588300	0.757620
H671	H67	0.474100	0.650100	0.763400
C681	C68	0.474100	0.533240	0.805520
H681	H68	0.475100	0.557000	0.844300
O351	O35	0.908940	0.281190	0.204710
O361	O36	0.967980	0.105760	0.156040
N351	N35	0.830680	0.265780	0.225750
N361	N36	0.973090	0.055370	0.202290
C691	C69	0.791460	0.327670	0.259660
H691	H69	0.820000	0.382200	0.266400
C701	C70	0.710680	0.311950	0.284420
H701	H70	0.683700	0.355200	0.308600
C711	C71	0.973800	0.088300	0.257620
H711	H71	0.974100	0.150100	0.263400
C721	C72	0.974100	0.033240	0.305520
H721	H72	0.975100	0.057000	0.344300
O371	O37	0.091060	0.218810	0.204710
O381	O38	0.032020	0.394240	0.156040
N371	N37	0.169320	0.234220	0.225750
N381	N38	0.026910	0.444630	0.202290
C731	C73	0.208540	0.172330	0.259660
H731	H73	0.180000	0.117800	0.266400
C741	C74	0.289320	0.188050	0.284420
H741	H74	0.316300	0.144800	0.308600
C751	C75	0.026200	0.411700	0.257620
H751	H75	0.025900	0.349900	0.263400
C761	C76	0.025900	0.466760	0.305520
H761	H76	0.024900	0.443000	0.344300
O391	O39	0.591060	0.718810	0.704710
O401	O40	0.532020	0.894240	0.656040
N391	N39	0.669320	0.734220	0.725750
N401	N40	0.526910	0.944630	0.702290
C771	C77	0.708540	0.672330	0.759660
H771	H77	0.680000	0.617800	0.766400
C781	C78	0.789320	0.688050	0.784420
H781	H78	0.816300	0.644800	0.808600
C791	C79	0.526200	0.911700	0.757620
H791	H79	0.525900	0.849900	0.763400
C801	C80	0.525900	0.966760	0.805520
H801	H80	0.524900	0.943000	0.844300
O411	O41	0.968810	0.658940	0.454710
O421	O42	0.144240	0.717980	0.406040
N411	N41	0.984220	0.580680	0.475750
N421	N42	0.194630	0.723090	0.452290
C811	C81	0.922330	0.541460	0.509660
H811	H81	0.867800	0.570000	0.516400
C821	C82	0.938050	0.460680	0.534420
H821	H82	0.894800	0.433700	0.558600
C831	C83	0.161700	0.723800	0.507620
H831	H83	0.099900	0.724100	0.513400
C841	C84	0.216760	0.724100	0.555520
H841	H84	0.193000	0.725100	0.594300
O431	O43	0.468810	0.158940	0.954710
O441	O44	0.644240	0.217980	0.906040
N431	N43	0.484220	0.080680	0.975750
N441	N44	0.694630	0.223090	0.952290
C851	C85	0.422330	0.041460	0.009660
H851	H85	0.367800	0.070000	0.016400
C861	C86	0.438050	0.960680	0.034420
H861	H86	0.394800	0.933700	0.058600
C871	C87	0.661700	0.223800	0.007620
H871	H87	0.599900	0.224100	0.013400
C881	C88	0.716760	0.224100	0.055520
H881	H88	0.693000	0.225100	0.094300
O451	O45	0.531190	0.341060	0.954710
O461	O46	0.355760	0.282020	0.906040
N451	N45	0.515780	0.419320	0.975750
N461	N46	0.305370	0.276910	0.952290
C891	C89	0.577670	0.458540	0.009660
H891	H89	0.632200	0.430000	0.016400
C901	C90	0.561950	0.539320	0.034420
H901	H90	0.605200	0.566300	0.058600
C911	C91	0.338300	0.276200	0.007620
H911	H91	0.400100	0.275900	0.013400
C921	C92	0.283240	0.275900	0.055520
H921	H92	0.307000	0.274900	0.094300
O471	O47	0.031190	0.841060	0.454710
O481	O48	0.855760	0.782020	0.406040
N471	N47	0.015780	0.919320	0.475750
N481	N48	0.805370	0.776910	0.452290
C931	C93	0.077670	0.958540	0.509660
H931	H93	0.132200	0.930000	0.516400
C941	C94	0.061950	0.039320	0.534420
H941	H94	0.105200	0.066300	0.558600
C951	C95	0.838300	0.776200	0.507620
H951	H95	0.900100	0.775900	0.513400
C961	C96	0.783240	0.775900	0.555520
H961	H96	0.807000	0.774900	0.594300
O491	O49	0.091060	0.781190	0.295290
O501	O50	0.032020	0.605760	0.343960
N491	N49	0.169320	0.765780	0.274250
N501	N50	0.026910	0.555370	0.297710
C971	C97	0.208540	0.827670	0.240340
H971	H97	0.180000	0.882200	0.233600
C981	C98	0.289320	0.811950	0.215580
H981	H98	0.316300	0.855200	0.191400
C991	C99	0.026200	0.588300	0.242380
H991	H99	0.025900	0.650100	0.236600
C1001	C100	0.025900	0.533240	0.194480
H1001	H100	0.024900	0.557000	0.155700
O511	O51	0.591060	0.281190	0.795290
O521	O52	0.532020	0.105760	0.843960
N511	N51	0.669320	0.265780	0.774250
N521	N52	0.526910	0.055370	0.797710
C1011	C101	0.708540	0.327670	0.740340
H1011	H101	0.680000	0.382200	0.733600
C1021	C102	0.789320	0.311950	0.715580
H1021	H102	0.816300	0.355200	0.691400
C1031	C103	0.526200	0.088300	0.742380
H1031	H103	0.525900	0.150100	0.736600
C1041	C104	0.525900	0.033240	0.694480
H1041	H104	0.524900	0.057000	0.655700
O531	O53	0.408940	0.218810	0.795290
O541	O54	0.467980	0.394240	0.843960
N531	N53	0.330680	0.234220	0.774250
N541	N54	0.473090	0.444630	0.797710
C1051	C105	0.291460	0.172330	0.740340
H1051	H105	0.320000	0.117800	0.733600
C1061	C106	0.210680	0.188050	0.715580
H1061	H106	0.183700	0.144800	0.691400
C1071	C107	0.473800	0.411700	0.742380
H1071	H107	0.474100	0.349900	0.736600
C1081	C108	0.474100	0.466760	0.694480
H1081	H108	0.475100	0.443000	0.655700
O551	O55	0.908940	0.718810	0.295290
O561	O56	0.967980	0.894240	0.343960
N551	N55	0.830680	0.734220	0.274250
N561	N56	0.973090	0.944630	0.297710
C1091	C109	0.791460	0.672330	0.240340
H1091	H109	0.820000	0.617800	0.233600
C1101	C110	0.710680	0.688050	0.215580
H1101	H110	0.683700	0.644800	0.191400
C1111	C111	0.973800	0.911700	0.242380
H1111	H111	0.974100	0.849900	0.236600
C1121	C112	0.974100	0.966760	0.194480
H1121	H112	0.975100	0.943000	0.155700
O571	O57	0.531190	0.658940	0.545290
O581	O58	0.355760	0.717980	0.593960
N571	N57	0.515780	0.580680	0.524250
N581	N58	0.305370	0.723090	0.547710
C1131	C113	0.577670	0.541460	0.490340
H1131	H113	0.632200	0.570000	0.483600
C1141	C114	0.561950	0.460680	0.465580
H1141	H114	0.605200	0.433700	0.441400
C1151	C115	0.338300	0.723800	0.492380
H1151	H115	0.400100	0.724100	0.486600
C1161	C116	0.283240	0.724100	0.444480
H1161	H116	0.307000	0.725100	0.405700
O591	O59	0.031190	0.158940	0.045290
O601	O60	0.855760	0.217980	0.093960
N591	N59	0.015780	0.080680	0.024250
N601	N60	0.805370	0.223090	0.047710
C1171	C117	0.077670	0.041460	0.990340
H1171	H117	0.132200	0.070000	0.983600
C1181	C118	0.061950	0.960680	0.965580
H1181	H118	0.105200	0.933700	0.941400
C1191	C119	0.838300	0.223800	0.992380
H1191	H119	0.900100	0.224100	0.986600
C1201	C120	0.783240	0.224100	0.944480
H1201	H120	0.807000	0.225100	0.905700
O611	O61	0.968810	0.341060	0.045290
O621	O62	0.144240	0.282020	0.093960
N611	N61	0.984220	0.419320	0.024250
N621	N62	0.194630	0.276910	0.047710
C1211	C121	0.922330	0.458540	0.990340
H1211	H121	0.867800	0.430000	0.983600
C1221	C122	0.938050	0.539320	0.965580
H1221	H122	0.894800	0.566300	0.941400
C1231	C123	0.161700	0.276200	0.992380
H1231	H123	0.099900	0.275900	0.986600
C1241	C124	0.216760	0.275900	0.944480
H1241	H124	0.193000	0.274900	0.905700
O631	O63	0.468810	0.841060	0.545290
O641	O64	0.644240	0.782020	0.593960
N631	N63	0.484220	0.919320	0.524250
N641	N64	0.694630	0.776910	0.547710
C1251	C125	0.422330	0.958540	0.490340
H1251	H125	0.367800	0.930000	0.483600
C1261	C126	0.438050	0.039320	0.465580
H1261	H126	0.394800	0.066300	0.441400
C1271	C127	0.661700	0.776200	0.492380
H1271	H127	0.599900	0.775900	0.486600
C1281	C128	0.716760	0.775900	0.444480
H1281	H128	0.693000	0.774900	0.405700
Ho11	Ho1	0.500000	0.250000	0.375000
Ho21	Ho2	0.000000	0.750000	0.875000
Ho31	Ho3	0.000000	0.250000	0.625000
Ho41	Ho4	0.500000	0.750000	0.125000
Ho51	Ho5	0.500000	0.750000	0.625000
Ho61	Ho6	0.000000	0.250000	0.125000
Ho71	Ho7	0.000000	0.750000	0.375000
Ho81	Ho8	0.500000	0.250000	0.875000
