data_SUXYEQ_clean_PM
_symmetry_space_group_name_H-M	'P1'
_cell_length_a	15.255300
_cell_length_b	15.255300
_cell_length_c	22.666700
_cell_angle_alpha	90.000000
_cell_angle_beta	90.000000
_cell_angle_gamma	90.000000
_symmetry_Int_Tables_number 1

loop_
_symmetry_equiv_pos_as_xyz
'x,y,z'

loop_
_atom_site_label
_atom_site_type_symbol
_atom_site_fract_x
_atom_site_fract_y
_atom_site_fract_z
O11	O1	0.591210	0.218760	0.295100
O21	O2	0.532170	0.394510	0.343830
N11	N1	0.669430	0.234240	0.274150
N21	N2	0.527110	0.444910	0.297790
C11	C1	0.708960	0.172480	0.240200
H11	H1	0.680700	0.117900	0.233500
C21	C2	0.789200	0.188380	0.215660
H21	H2	0.816100	0.145300	0.191400
C31	C3	0.526000	0.411830	0.242530
H31	H3	0.525200	0.350100	0.236800
C41	C4	0.525880	0.466690	0.194700
H41	H4	0.525000	0.442800	0.156000
O31	O3	0.091210	0.718760	0.795100
O41	O4	0.032170	0.894510	0.843830
N31	N3	0.169430	0.734240	0.774150
N41	N4	0.027110	0.944910	0.797790
C51	C5	0.208960	0.672480	0.740200
H51	H5	0.180700	0.617900	0.733500
C61	C6	0.289200	0.688380	0.715660
H61	H6	0.316100	0.645300	0.691400
C71	C7	0.026000	0.911830	0.742530
H71	H7	0.025200	0.850100	0.736800
C81	C8	0.025880	0.966690	0.694700
H81	H8	0.025000	0.942800	0.656000
O51	O5	0.908790	0.781240	0.795100
O61	O6	0.967830	0.605490	0.843830
N51	N5	0.830570	0.765760	0.774150
N61	N6	0.972890	0.555090	0.797790
C91	C9	0.791040	0.827520	0.740200
H91	H9	0.819300	0.882100	0.733500
C101	C10	0.710800	0.811620	0.715660
H101	H10	0.683900	0.854700	0.691400
C111	C11	0.974000	0.588170	0.742530
H111	H11	0.974800	0.649900	0.736800
C121	C12	0.974120	0.533310	0.694700
H121	H12	0.975000	0.557200	0.656000
O71	O7	0.408790	0.281240	0.295100
O81	O8	0.467830	0.105490	0.343830
N71	N7	0.330570	0.265760	0.274150
N81	N8	0.472890	0.055090	0.297790
C131	C13	0.291040	0.327520	0.240200
H131	H13	0.319300	0.382100	0.233500
C141	C14	0.210800	0.311620	0.215660
H141	H14	0.183900	0.354700	0.191400
C151	C15	0.474000	0.088170	0.242530
H151	H15	0.474800	0.149900	0.236800
C161	C16	0.474120	0.033310	0.194700
H161	H16	0.475000	0.057200	0.156000
O91	O9	0.031240	0.341210	0.545100
O101	O10	0.855490	0.282170	0.593830
N91	N9	0.015760	0.419430	0.524150
N101	N10	0.805090	0.277110	0.547790
C171	C17	0.077520	0.458960	0.490200
H171	H17	0.132100	0.430700	0.483500
C181	C18	0.061620	0.539200	0.465660
H181	H18	0.104700	0.566100	0.441400
C191	C19	0.838170	0.276000	0.492530
H191	H19	0.899900	0.275200	0.486800
C201	C20	0.783310	0.275880	0.444700
H201	H20	0.807200	0.275000	0.406000
O111	O11	0.531240	0.841210	0.045100
O121	O12	0.355490	0.782170	0.093830
N111	N11	0.515760	0.919430	0.024150
N121	N12	0.305090	0.777110	0.047790
C211	C21	0.577520	0.958960	0.990200
H211	H21	0.632100	0.930700	0.983500
C221	C22	0.561620	0.039200	0.965660
H221	H22	0.604700	0.066100	0.941400
C231	C23	0.338170	0.776000	0.992530
H231	H23	0.399900	0.775200	0.986800
C241	C24	0.283310	0.775880	0.944700
H241	H24	0.307200	0.775000	0.906000
O131	O13	0.468760	0.658790	0.045100
O141	O14	0.644510	0.717830	0.093830
N131	N13	0.484240	0.580570	0.024150
N141	N14	0.694910	0.722890	0.047790
C251	C25	0.422480	0.541040	0.990200
H251	H25	0.367900	0.569300	0.983500
C261	C26	0.438380	0.460800	0.965660
H261	H26	0.395300	0.433900	0.941400
C271	C27	0.661830	0.724000	0.992530
H271	H27	0.600100	0.724800	0.986800
C281	C28	0.716690	0.724120	0.944700
H281	H28	0.692800	0.725000	0.906000
O151	O15	0.968760	0.158790	0.545100
O161	O16	0.144510	0.217830	0.593830
N151	N15	0.984240	0.080570	0.524150
N161	N16	0.194910	0.222890	0.547790
C291	C29	0.922480	0.041040	0.490200
H291	H29	0.867900	0.069300	0.483500
C301	C30	0.938380	0.960800	0.465660
H301	H30	0.895300	0.933900	0.441400
C311	C31	0.161830	0.224000	0.492530
H311	H31	0.100100	0.224800	0.486800
C321	C32	0.216690	0.224120	0.444700
H321	H32	0.192800	0.225000	0.406000
O171	O17	0.908790	0.218760	0.704900
O181	O18	0.967830	0.394510	0.656170
N171	N17	0.830570	0.234240	0.725850
N181	N18	0.972890	0.444910	0.702210
C331	C33	0.791040	0.172480	0.759800
H331	H33	0.819300	0.117900	0.766500
C341	C34	0.710800	0.188380	0.784340
H341	H34	0.683900	0.145300	0.808600
C351	C35	0.974000	0.411830	0.757470
H351	H35	0.974800	0.350100	0.763200
C361	C36	0.974120	0.466690	0.805300
H361	H36	0.975000	0.442800	0.844000
O191	O19	0.408790	0.718760	0.204900
O201	O20	0.467830	0.894510	0.156170
N191	N19	0.330570	0.734240	0.225850
N201	N20	0.472890	0.944910	0.202210
C371	C37	0.291040	0.672480	0.259800
H371	H37	0.319300	0.617900	0.266500
C381	C38	0.210800	0.688380	0.284340
H381	H38	0.183900	0.645300	0.308600
C391	C39	0.474000	0.911830	0.257470
H391	H39	0.474800	0.850100	0.263200
C401	C40	0.474120	0.966690	0.305300
H401	H40	0.475000	0.942800	0.344000
O211	O21	0.591210	0.781240	0.204900
O221	O22	0.532170	0.605490	0.156170
N211	N21	0.669430	0.765760	0.225850
N221	N22	0.527110	0.555090	0.202210
C411	C41	0.708960	0.827520	0.259800
H411	H41	0.680700	0.882100	0.266500
C421	C42	0.789200	0.811620	0.284340
H421	H42	0.816100	0.854700	0.308600
C431	C43	0.526000	0.588170	0.257470
H431	H43	0.525200	0.649900	0.263200
C441	C44	0.525880	0.533310	0.305300
H441	H44	0.525000	0.557200	0.344000
O231	O23	0.091210	0.281240	0.704900
O241	O24	0.032170	0.105490	0.656170
N231	N23	0.169430	0.265760	0.725850
N241	N24	0.027110	0.055090	0.702210
C451	C45	0.208960	0.327520	0.759800
H451	H45	0.180700	0.382100	0.766500
C461	C46	0.289200	0.311620	0.784340
H461	H46	0.316100	0.354700	0.808600
C471	C47	0.026000	0.088170	0.757470
H471	H47	0.025200	0.149900	0.763200
C481	C48	0.025880	0.033310	0.805300
H481	H48	0.025000	0.057200	0.844000
O251	O25	0.468760	0.341210	0.454900
O261	O26	0.644510	0.282170	0.406170
N251	N25	0.484240	0.419430	0.475850
N261	N26	0.694910	0.277110	0.452210
C491	C49	0.422480	0.458960	0.509800
H491	H49	0.367900	0.430700	0.516500
C501	C50	0.438380	0.539200	0.534340
H501	H50	0.395300	0.566100	0.558600
C511	C51	0.661830	0.276000	0.507470
H511	H51	0.600100	0.275200	0.513200
C521	C52	0.716690	0.275880	0.555300
H521	H52	0.692800	0.275000	0.594000
O271	O27	0.968760	0.841210	0.954900
O281	O28	0.144510	0.782170	0.906170
N271	N27	0.984240	0.919430	0.975850
N281	N28	0.194910	0.777110	0.952210
C531	C53	0.922480	0.958960	0.009800
H531	H53	0.867900	0.930700	0.016500
C541	C54	0.938380	0.039200	0.034340
H541	H54	0.895300	0.066100	0.058600
C551	C55	0.161830	0.776000	0.007470
H551	H55	0.100100	0.775200	0.013200
C561	C56	0.216690	0.775880	0.055300
H561	H56	0.192800	0.775000	0.094000
O291	O29	0.031240	0.658790	0.954900
O301	O30	0.855490	0.717830	0.906170
N291	N29	0.015760	0.580570	0.975850
N301	N30	0.805090	0.722890	0.952210
C571	C57	0.077520	0.541040	0.009800
H571	H57	0.132100	0.569300	0.016500
C581	C58	0.061620	0.460800	0.034340
H581	H58	0.104700	0.433900	0.058600
C591	C59	0.838170	0.724000	0.007470
H591	H59	0.899900	0.724800	0.013200
C601	C60	0.783310	0.724120	0.055300
H601	H60	0.807200	0.725000	0.094000
O311	O31	0.531240	0.158790	0.454900
O321	O32	0.355490	0.217830	0.406170
N311	N31	0.515760	0.080570	0.475850
N321	N32	0.305090	0.222890	0.452210
C611	C61	0.577520	0.041040	0.509800
H611	H61	0.632100	0.069300	0.516500
C621	C62	0.561620	0.960800	0.534340
H621	H62	0.604700	0.933900	0.558600
C631	C63	0.338170	0.224000	0.507470
H631	H63	0.399900	0.224800	0.513200
C641	C64	0.283310	0.224120	0.555300
H641	H64	0.307200	0.225000	0.594000
O331	O33	0.408790	0.781240	0.704900
O341	O34	0.467830	0.605490	0.656170
N331	N33	0.330570	0.765760	0.725850
N341	N34	0.472890	0.555090	0.702210
C651	C65	0.291040	0.827520	0.759800
H651	H65	0.319300	0.882100	0.766500
C661	C66	0.210800	0.811620	0.784340
H661	H66	0.183900	0.854700	0.808600
C671	C67	0.474000	0.588170	0.757470
H671	H67	0.474800	0.649900	0.763200
C681	C68	0.474120	0.533310	0.805300
H681	H68	0.475000	0.557200	0.844000
O351	O35	0.908790	0.281240	0.204900
O361	O36	0.967830	0.105490	0.156170
N351	N35	0.830570	0.265760	0.225850
N361	N36	0.972890	0.055090	0.202210
C691	C69	0.791040	0.327520	0.259800
H691	H69	0.819300	0.382100	0.266500
C701	C70	0.710800	0.311620	0.284340
H701	H70	0.683900	0.354700	0.308600
C711	C71	0.974000	0.088170	0.257470
H711	H71	0.974800	0.149900	0.263200
C721	C72	0.974120	0.033310	0.305300
H721	H72	0.975000	0.057200	0.344000
O371	O37	0.091210	0.218760	0.204900
O381	O38	0.032170	0.394510	0.156170
N371	N37	0.169430	0.234240	0.225850
N381	N38	0.027110	0.444910	0.202210
C731	C73	0.208960	0.172480	0.259800
H731	H73	0.180700	0.117900	0.266500
C741	C74	0.289200	0.188380	0.284340
H741	H74	0.316100	0.145300	0.308600
C751	C75	0.026000	0.411830	0.257470
H751	H75	0.025200	0.350100	0.263200
C761	C76	0.025880	0.466690	0.305300
H761	H76	0.025000	0.442800	0.344000
O391	O39	0.591210	0.718760	0.704900
O401	O40	0.532170	0.894510	0.656170
N391	N39	0.669430	0.734240	0.725850
N401	N40	0.527110	0.944910	0.702210
C771	C77	0.708960	0.672480	0.759800
H771	H77	0.680700	0.617900	0.766500
C781	C78	0.789200	0.688380	0.784340
H781	H78	0.816100	0.645300	0.808600
C791	C79	0.526000	0.911830	0.757470
H791	H79	0.525200	0.850100	0.763200
C801	C80	0.525880	0.966690	0.805300
H801	H80	0.525000	0.942800	0.844000
O411	O41	0.968760	0.658790	0.454900
O421	O42	0.144510	0.717830	0.406170
N411	N41	0.984240	0.580570	0.475850
N421	N42	0.194910	0.722890	0.452210
C811	C81	0.922480	0.541040	0.509800
H811	H81	0.867900	0.569300	0.516500
C821	C82	0.938380	0.460800	0.534340
H821	H82	0.895300	0.433900	0.558600
C831	C83	0.161830	0.724000	0.507470
H831	H83	0.100100	0.724800	0.513200
C841	C84	0.216690	0.724120	0.555300
H841	H84	0.192800	0.725000	0.594000
O431	O43	0.468760	0.158790	0.954900
O441	O44	0.644510	0.217830	0.906170
N431	N43	0.484240	0.080570	0.975850
N441	N44	0.694910	0.222890	0.952210
C851	C85	0.422480	0.041040	0.009800
H851	H85	0.367900	0.069300	0.016500
C861	C86	0.438380	0.960800	0.034340
H861	H86	0.395300	0.933900	0.058600
C871	C87	0.661830	0.224000	0.007470
H871	H87	0.600100	0.224800	0.013200
C881	C88	0.716690	0.224120	0.055300
H881	H88	0.692800	0.225000	0.094000
O451	O45	0.531240	0.341210	0.954900
O461	O46	0.355490	0.282170	0.906170
N451	N45	0.515760	0.419430	0.975850
N461	N46	0.305090	0.277110	0.952210
C891	C89	0.577520	0.458960	0.009800
H891	H89	0.632100	0.430700	0.016500
C901	C90	0.561620	0.539200	0.034340
H901	H90	0.604700	0.566100	0.058600
C911	C91	0.338170	0.276000	0.007470
H911	H91	0.399900	0.275200	0.013200
C921	C92	0.283310	0.275880	0.055300
H921	H92	0.307200	0.275000	0.094000
O471	O47	0.031240	0.841210	0.454900
O481	O48	0.855490	0.782170	0.406170
N471	N47	0.015760	0.919430	0.475850
N481	N48	0.805090	0.777110	0.452210
C931	C93	0.077520	0.958960	0.509800
H931	H93	0.132100	0.930700	0.516500
C941	C94	0.061620	0.039200	0.534340
H941	H94	0.104700	0.066100	0.558600
C951	C95	0.838170	0.776000	0.507470
H951	H95	0.899900	0.775200	0.513200
C961	C96	0.783310	0.775880	0.555300
H961	H96	0.807200	0.775000	0.594000
O491	O49	0.091210	0.781240	0.295100
O501	O50	0.032170	0.605490	0.343830
N491	N49	0.169430	0.765760	0.274150
N501	N50	0.027110	0.555090	0.297790
C971	C97	0.208960	0.827520	0.240200
H971	H97	0.180700	0.882100	0.233500
C981	C98	0.289200	0.811620	0.215660
H981	H98	0.316100	0.854700	0.191400
C991	C99	0.026000	0.588170	0.242530
H991	H99	0.025200	0.649900	0.236800
C1001	C100	0.025880	0.533310	0.194700
H1001	H100	0.025000	0.557200	0.156000
O511	O51	0.591210	0.281240	0.795100
O521	O52	0.532170	0.105490	0.843830
N511	N51	0.669430	0.265760	0.774150
N521	N52	0.527110	0.055090	0.797790
C1011	C101	0.708960	0.327520	0.740200
H1011	H101	0.680700	0.382100	0.733500
C1021	C102	0.789200	0.311620	0.715660
H1021	H102	0.816100	0.354700	0.691400
C1031	C103	0.526000	0.088170	0.742530
H1031	H103	0.525200	0.149900	0.736800
C1041	C104	0.525880	0.033310	0.694700
H1041	H104	0.525000	0.057200	0.656000
O531	O53	0.408790	0.218760	0.795100
O541	O54	0.467830	0.394510	0.843830
N531	N53	0.330570	0.234240	0.774150
N541	N54	0.472890	0.444910	0.797790
C1051	C105	0.291040	0.172480	0.740200
H1051	H105	0.319300	0.117900	0.733500
C1061	C106	0.210800	0.188380	0.715660
H1061	H106	0.183900	0.145300	0.691400
C1071	C107	0.474000	0.411830	0.742530
H1071	H107	0.474800	0.350100	0.736800
C1081	C108	0.474120	0.466690	0.694700
H1081	H108	0.475000	0.442800	0.656000
O551	O55	0.908790	0.718760	0.295100
O561	O56	0.967830	0.894510	0.343830
N551	N55	0.830570	0.734240	0.274150
N561	N56	0.972890	0.944910	0.297790
C1091	C109	0.791040	0.672480	0.240200
H1091	H109	0.819300	0.617900	0.233500
C1101	C110	0.710800	0.688380	0.215660
H1101	H110	0.683900	0.645300	0.191400
C1111	C111	0.974000	0.911830	0.242530
H1111	H111	0.974800	0.850100	0.236800
C1121	C112	0.974120	0.966690	0.194700
H1121	H112	0.975000	0.942800	0.156000
O571	O57	0.531240	0.658790	0.545100
O581	O58	0.355490	0.717830	0.593830
N571	N57	0.515760	0.580570	0.524150
N581	N58	0.305090	0.722890	0.547790
C1131	C113	0.577520	0.541040	0.490200
H1131	H113	0.632100	0.569300	0.483500
C1141	C114	0.561620	0.460800	0.465660
H1141	H114	0.604700	0.433900	0.441400
C1151	C115	0.338170	0.724000	0.492530
H1151	H115	0.399900	0.724800	0.486800
C1161	C116	0.283310	0.724120	0.444700
H1161	H116	0.307200	0.725000	0.406000
O591	O59	0.031240	0.158790	0.045100
O601	O60	0.855490	0.217830	0.093830
N591	N59	0.015760	0.080570	0.024150
N601	N60	0.805090	0.222890	0.047790
C1171	C117	0.077520	0.041040	0.990200
H1171	H117	0.132100	0.069300	0.983500
C1181	C118	0.061620	0.960800	0.965660
H1181	H118	0.104700	0.933900	0.941400
C1191	C119	0.838170	0.224000	0.992530
H1191	H119	0.899900	0.224800	0.986800
C1201	C120	0.783310	0.224120	0.944700
H1201	H120	0.807200	0.225000	0.906000
O611	O61	0.968760	0.341210	0.045100
O621	O62	0.144510	0.282170	0.093830
N611	N61	0.984240	0.419430	0.024150
N621	N62	0.194910	0.277110	0.047790
C1211	C121	0.922480	0.458960	0.990200
H1211	H121	0.867900	0.430700	0.983500
C1221	C122	0.938380	0.539200	0.965660
H1221	H122	0.895300	0.566100	0.941400
C1231	C123	0.161830	0.276000	0.992530
H1231	H123	0.100100	0.275200	0.986800
C1241	C124	0.216690	0.275880	0.944700
H1241	H124	0.192800	0.275000	0.906000
O631	O63	0.468760	0.841210	0.545100
O641	O64	0.644510	0.782170	0.593830
N631	N63	0.484240	0.919430	0.524150
N641	N64	0.694910	0.777110	0.547790
C1251	C125	0.422480	0.958960	0.490200
H1251	H125	0.367900	0.930700	0.483500
C1261	C126	0.438380	0.039200	0.465660
H1261	H126	0.395300	0.066100	0.441400
C1271	C127	0.661830	0.776000	0.492530
H1271	H127	0.600100	0.775200	0.486800
C1281	C128	0.716690	0.775880	0.444700
H1281	H128	0.692800	0.775000	0.406000
Dy11	Dy1	0.500000	0.250000	0.375000
Dy21	Dy2	0.000000	0.750000	0.875000
Dy31	Dy3	0.000000	0.250000	0.625000
Dy41	Dy4	0.500000	0.750000	0.125000
Dy51	Dy5	0.500000	0.750000	0.625000
Dy61	Dy6	0.000000	0.250000	0.125000
Dy71	Dy7	0.000000	0.750000	0.375000
Dy81	Dy8	0.500000	0.250000	0.875000
