data_TACPET_clean_PM
_symmetry_space_group_name_H-M	'P1'
_cell_length_a	18.954500
_cell_length_b	18.954500
_cell_length_c	5.791100
_cell_angle_alpha	90.000000
_cell_angle_beta	90.000000
_cell_angle_gamma	90.000000
_symmetry_Int_Tables_number 1

loop_
_symmetry_equiv_pos_as_xyz
'x,y,z'

loop_
_atom_site_label
_atom_site_type_symbol
_atom_site_fract_x
_atom_site_fract_y
_atom_site_fract_z
O11	O1	0.316300	0.757800	0.063500
O21	O2	0.412800	0.769900	0.262800
C11	C1	0.380900	0.759000	0.088000
O31	O3	0.376300	0.734500	0.678700
H11	H1	0.398000	0.752000	0.581000
C21	C2	0.476100	0.688000	0.887000
H21	H2	0.506300	0.696900	0.021200
O41	O4	0.438300	0.624700	0.926400
O51	O5	0.569400	0.621900	0.708600
C31	C3	0.568800	0.744400	0.626000
H31	H3	0.538000	0.784300	0.589000
O61	O6	0.613300	0.728400	0.425500
H41	H4	0.605000	0.747000	0.298000
C41	C4	0.615600	0.764200	0.830000
O71	O7	0.682200	0.751900	0.805300
O81	O8	0.587000	0.788900	0.008800
C51	C5	0.424900	0.750100	0.862000
H51	H5	0.450900	0.793500	0.827700
C61	C6	0.523400	0.679600	0.675000
H61	H6	0.493800	0.670200	0.539700
O91	O9	0.683700	0.242200	0.563500
O101	O10	0.587200	0.230100	0.762800
C71	C7	0.619100	0.241000	0.588000
O111	O11	0.623700	0.265500	0.178700
H71	H7	0.602000	0.248000	0.081000
C81	C8	0.523900	0.312000	0.387000
H81	H8	0.493700	0.303100	0.521200
O121	O12	0.561700	0.375300	0.426400
O131	O13	0.430600	0.378100	0.208600
C91	C9	0.431200	0.255600	0.126000
H91	H9	0.462000	0.215700	0.089000
O141	O14	0.386700	0.271600	0.925500
H101	H10	0.395000	0.253000	0.798000
C101	C10	0.384400	0.235800	0.330000
O151	O15	0.317800	0.248100	0.305300
O161	O16	0.413000	0.211100	0.508800
C111	C11	0.575100	0.249900	0.362000
H111	H11	0.549100	0.206500	0.327700
C121	C12	0.476600	0.320400	0.175000
H121	H12	0.506200	0.329800	0.039700
O171	O17	0.742200	0.816300	0.313500
O181	O18	0.730100	0.912800	0.512800
C131	C13	0.741000	0.880900	0.338000
O191	O19	0.765500	0.876300	0.928700
H131	H13	0.748000	0.898000	0.831000
C141	C14	0.812000	0.976100	0.137000
H141	H14	0.803100	0.006300	0.271200
O201	O20	0.875300	0.938300	0.176400
O211	O21	0.878100	0.069400	0.958600
C151	C15	0.755600	0.068800	0.876000
H151	H15	0.715700	0.038000	0.839000
O221	O22	0.771600	0.113300	0.675500
H161	H16	0.753000	0.105000	0.548000
C161	C16	0.735800	0.115600	0.080000
O231	O23	0.748100	0.182200	0.055300
O241	O24	0.711100	0.087000	0.258800
C171	C17	0.749900	0.924900	0.112000
H171	H17	0.706500	0.950900	0.077700
C181	C18	0.820400	0.023400	0.925000
H181	H18	0.829800	0.993800	0.789700
O251	O25	0.257800	0.183700	0.813500
O261	O26	0.269900	0.087200	0.012800
C191	C19	0.259000	0.119100	0.838000
O271	O27	0.234500	0.123700	0.428700
H191	H19	0.252000	0.102000	0.331000
C201	C20	0.188000	0.023900	0.637000
H201	H20	0.196900	0.993700	0.771200
O281	O28	0.124700	0.061700	0.676400
O291	O29	0.121900	0.930600	0.458600
C211	C21	0.244400	0.931200	0.376000
H211	H21	0.284300	0.962000	0.339000
O301	O30	0.228400	0.886700	0.175500
H221	H22	0.247000	0.895000	0.048000
C221	C22	0.264200	0.884400	0.580000
O311	O31	0.251900	0.817800	0.555300
O321	O32	0.288900	0.913000	0.758800
C231	C23	0.250100	0.075100	0.612000
H231	H23	0.293500	0.049100	0.577700
C241	C24	0.179600	0.976600	0.425000
H241	H24	0.170200	0.006200	0.289700
O331	O33	0.183700	0.257800	0.186500
O341	O34	0.087200	0.269900	0.987200
C251	C25	0.119100	0.259000	0.162000
O351	O35	0.123700	0.234500	0.571300
H251	H25	0.102000	0.252000	0.669000
C261	C26	0.023900	0.188000	0.363000
H261	H26	0.993700	0.196900	0.228800
O361	O36	0.061700	0.124700	0.323600
O371	O37	0.930600	0.121900	0.541400
C271	C27	0.931200	0.244400	0.624000
H271	H27	0.962000	0.284300	0.661000
O381	O38	0.886700	0.228400	0.824500
H281	H28	0.895000	0.247000	0.952000
C281	C28	0.884400	0.264200	0.420000
O391	O39	0.817800	0.251900	0.444700
O401	O40	0.913000	0.288900	0.241200
C291	C29	0.075100	0.250100	0.388000
H291	H29	0.049100	0.293500	0.422300
C301	C30	0.976600	0.179600	0.575000
H301	H30	0.006200	0.170200	0.710300
O411	O41	0.816300	0.742200	0.686500
O421	O42	0.912800	0.730100	0.487200
C311	C31	0.880900	0.741000	0.662000
O431	O43	0.876300	0.765500	0.071300
H311	H31	0.898000	0.748000	0.169000
C321	C32	0.976100	0.812000	0.863000
H321	H32	0.006300	0.803100	0.728800
O441	O44	0.938300	0.875300	0.823600
O451	O45	0.069400	0.878100	0.041400
C331	C33	0.068800	0.755600	0.124000
H331	H33	0.038000	0.715700	0.161000
O461	O46	0.113300	0.771600	0.324500
H341	H34	0.105000	0.753000	0.452000
C341	C34	0.115600	0.735800	0.920000
O471	O47	0.182200	0.748100	0.944700
O481	O48	0.087000	0.711100	0.741200
C351	C35	0.924900	0.749900	0.888000
H351	H35	0.950900	0.706500	0.922300
C361	C36	0.023400	0.820400	0.075000
H361	H36	0.993800	0.829800	0.210300
O491	O49	0.757800	0.316300	0.936500
O501	O50	0.769900	0.412800	0.737200
C371	C37	0.759000	0.380900	0.912000
O511	O51	0.734500	0.376300	0.321300
H371	H37	0.752000	0.398000	0.419000
C381	C38	0.688000	0.476100	0.113000
H381	H38	0.696900	0.506300	0.978800
O521	O52	0.624700	0.438300	0.073600
O531	O53	0.621900	0.569400	0.291400
C391	C39	0.744400	0.568800	0.374000
H391	H39	0.784300	0.538000	0.411000
O541	O54	0.728400	0.613300	0.574500
H401	H40	0.747000	0.605000	0.702000
C401	C40	0.764200	0.615600	0.170000
O551	O55	0.751900	0.682200	0.194700
O561	O56	0.788900	0.587000	0.991200
C411	C41	0.750100	0.424900	0.138000
H411	H41	0.793500	0.450900	0.172300
C421	C42	0.679600	0.523400	0.325000
H421	H42	0.670200	0.493800	0.460300
O571	O57	0.242200	0.683700	0.436500
O581	O58	0.230100	0.587200	0.237200
C431	C43	0.241000	0.619100	0.412000
O591	O59	0.265500	0.623700	0.821300
H431	H43	0.248000	0.602000	0.919000
C441	C44	0.312000	0.523900	0.613000
H441	H44	0.303100	0.493700	0.478800
O601	O60	0.375300	0.561700	0.573600
O611	O61	0.378100	0.430600	0.791400
C451	C45	0.255600	0.431200	0.874000
H451	H45	0.215700	0.462000	0.911000
O621	O62	0.271600	0.386700	0.074500
H461	H46	0.253000	0.395000	0.202000
C461	C46	0.235800	0.384400	0.670000
O631	O63	0.248100	0.317800	0.694700
O641	O64	0.211100	0.413000	0.491200
C471	C47	0.249900	0.575100	0.638000
H471	H47	0.206500	0.549100	0.672300
C481	C48	0.320400	0.476600	0.825000
H481	H48	0.329800	0.506200	0.960300
Zn11	Zn1	0.270310	0.729690	0.750000
Zn21	Zn2	0.729690	0.270310	0.250000
Zn31	Zn3	0.770310	0.770310	0.000000
Zn41	Zn4	0.229690	0.229690	0.500000
Zn51	Zn5	0.221800	0.778200	0.250000
Zn61	Zn6	0.778200	0.221800	0.750000
Zn71	Zn7	0.721800	0.721800	0.500000
Zn81	Zn8	0.278200	0.278200	0.000000
