data_TACWUS_clean_PM
_symmetry_space_group_name_H-M	'P1'
_cell_length_a	15.802000
_cell_length_b	23.455000
_cell_length_c	18.506000
_cell_angle_alpha	90.000000
_cell_angle_beta	105.896000
_cell_angle_gamma	90.000000
_symmetry_Int_Tables_number 1

loop_
_symmetry_equiv_pos_as_xyz
'x,y,z'

loop_
_atom_site_label
_atom_site_type_symbol
_atom_site_fract_x
_atom_site_fract_y
_atom_site_fract_z
Mn11	Mn1	0.601680	0.569960	0.842320
Mn21	Mn2	0.100700	0.709600	0.904010
N11	N1	0.560300	0.641700	0.758500
N21	N2	0.481800	0.714800	0.702400
N31	N3	0.158300	0.772000	0.837900
N41	N4	0.232400	0.801100	0.759100
N51	N5	0.209800	0.877400	0.414500
N61	N6	0.285700	0.832200	0.515100
N71	N7	0.489100	0.512200	0.788500
N81	N8	0.353300	0.480900	0.742900
N91	N9	0.061100	0.647800	0.807000
N101	N10	0.079200	0.571800	0.742300
N111	N11	0.058800	0.361000	0.468900
N121	N12	0.087000	0.430300	0.552300
C11	C1	0.386700	0.776600	0.610900
H11	H1	0.419200	0.768800	0.577100
C21	C2	0.410700	0.753500	0.682600
C31	C3	0.363200	0.764800	0.733000
H21	H2	0.381800	0.750900	0.781900
C41	C4	0.288100	0.797000	0.710200
C51	C5	0.261500	0.821400	0.639000
H31	H3	0.210800	0.843400	0.624300
C61	C6	0.313200	0.811700	0.590700
C71	C7	0.542400	0.701500	0.663500
H41	H4	0.549100	0.719700	0.620700
C81	C8	0.589400	0.657800	0.699100
H51	H5	0.635700	0.640600	0.685200
C91	C9	0.497400	0.676900	0.759900
H61	H6	0.466600	0.676200	0.796100
C101	C10	0.310100	0.811300	0.454500
H71	H7	0.351000	0.782600	0.455400
C111	C11	0.264900	0.839300	0.394700
H81	H8	0.269800	0.834000	0.346200
C121	C12	0.220100	0.868600	0.484800
H91	H9	0.185600	0.885700	0.512000
C131	C13	0.219300	0.760100	0.804900
H101	H10	0.250800	0.726100	0.812600
C141	C14	0.174600	0.843600	0.763200
H111	H11	0.166900	0.878300	0.737900
C151	C15	0.131100	0.824500	0.811700
H121	H12	0.087500	0.845000	0.825500
C161	C16	0.219900	0.452900	0.649800
H131	H13	0.251700	0.427700	0.628600
C171	C17	0.260100	0.484100	0.714100
C181	C18	0.213800	0.520700	0.746400
H141	H14	0.241400	0.539300	0.791000
C191	C19	0.125600	0.529600	0.712200
C201	C20	0.082000	0.499600	0.648400
H151	H15	0.022200	0.505200	0.626300
C211	C21	0.129500	0.461300	0.618400
C221	C22	0.406600	0.524200	0.777100
H161	H16	0.386100	0.558600	0.790900
C231	C23	0.490800	0.457900	0.760900
H171	H17	0.541500	0.437400	0.762000
C241	C24	0.409000	0.438900	0.732400
H181	H18	0.392700	0.403800	0.709600
C251	C25	0.116500	0.610100	0.795300
H191	H19	0.176000	0.609800	0.821100
C261	C26	0.983000	0.633400	0.758800
H201	H20	0.930500	0.652900	0.754000
C271	C27	0.991500	0.586600	0.718300
H211	H21	0.947500	0.568300	0.681900
C281	C28	0.112100	0.378500	0.533600
H221	H22	0.160000	0.358000	0.562100
C291	C29	0.998300	0.404200	0.446300
H231	H23	0.953100	0.404300	0.401800
C301	C30	0.014200	0.446700	0.498400
H241	H24	0.981900	0.480000	0.497300
Mn31	Mn3	0.101680	0.069960	0.842320
Mn41	Mn4	0.600700	0.209600	0.904010
N131	N13	0.060300	0.141700	0.758500
N141	N14	0.981800	0.214800	0.702400
N151	N15	0.658300	0.272000	0.837900
N161	N16	0.732400	0.301100	0.759100
N171	N17	0.709800	0.377400	0.414500
N181	N18	0.785700	0.332200	0.515100
N191	N19	0.989100	0.012200	0.788500
N201	N20	0.853300	0.980900	0.742900
N211	N21	0.561100	0.147800	0.807000
N221	N22	0.579200	0.071800	0.742300
N231	N23	0.558800	0.861000	0.468900
N241	N24	0.587000	0.930300	0.552300
C311	C31	0.886700	0.276600	0.610900
H251	H25	0.919200	0.268800	0.577100
C321	C32	0.910700	0.253500	0.682600
C331	C33	0.863200	0.264800	0.733000
H261	H26	0.881800	0.250900	0.781900
C341	C34	0.788100	0.297000	0.710200
C351	C35	0.761500	0.321400	0.639000
H271	H27	0.710800	0.343400	0.624300
C361	C36	0.813200	0.311700	0.590700
C371	C37	0.042400	0.201500	0.663500
H281	H28	0.049100	0.219700	0.620700
C381	C38	0.089400	0.157800	0.699100
H291	H29	0.135700	0.140600	0.685200
C391	C39	0.997400	0.176900	0.759900
H301	H30	0.966600	0.176200	0.796100
C401	C40	0.810100	0.311300	0.454500
H311	H31	0.851000	0.282600	0.455400
C411	C41	0.764900	0.339300	0.394700
H321	H32	0.769800	0.334000	0.346200
C421	C42	0.720100	0.368600	0.484800
H331	H33	0.685600	0.385700	0.512000
C431	C43	0.719300	0.260100	0.804900
H341	H34	0.750800	0.226100	0.812600
C441	C44	0.674600	0.343600	0.763200
H351	H35	0.666900	0.378300	0.737900
C451	C45	0.631100	0.324500	0.811700
H361	H36	0.587500	0.345000	0.825500
C461	C46	0.719900	0.952900	0.649800
H371	H37	0.751700	0.927700	0.628600
C471	C47	0.760100	0.984100	0.714100
C481	C48	0.713800	0.020700	0.746400
H381	H38	0.741400	0.039300	0.791000
C491	C49	0.625600	0.029600	0.712200
C501	C50	0.582000	0.999600	0.648400
H391	H39	0.522200	0.005200	0.626300
C511	C51	0.629500	0.961300	0.618400
C521	C52	0.906600	0.024200	0.777100
H401	H40	0.886100	0.058600	0.790900
C531	C53	0.990800	0.957900	0.760900
H411	H41	0.041500	0.937400	0.762000
C541	C54	0.909000	0.938900	0.732400
H421	H42	0.892700	0.903800	0.709600
C551	C55	0.616500	0.110100	0.795300
H431	H43	0.676000	0.109800	0.821100
C561	C56	0.483000	0.133400	0.758800
H441	H44	0.430500	0.152900	0.754000
C571	C57	0.491500	0.086600	0.718300
H451	H45	0.447500	0.068300	0.681900
C581	C58	0.612100	0.878500	0.533600
H461	H46	0.660000	0.858000	0.562100
C591	C59	0.498300	0.904200	0.446300
H471	H47	0.453100	0.904300	0.401800
C601	C60	0.514200	0.946700	0.498400
H481	H48	0.481900	0.980000	0.497300
Mn51	Mn5	0.601680	0.430040	0.342320
Mn61	Mn6	0.100700	0.290400	0.404010
N251	N25	0.560300	0.358300	0.258500
N261	N26	0.481800	0.285200	0.202400
N271	N27	0.158300	0.228000	0.337900
N281	N28	0.232400	0.198900	0.259100
N291	N29	0.209800	0.122600	0.914500
N301	N30	0.285700	0.167800	0.015100
N311	N31	0.489100	0.487800	0.288500
N321	N32	0.353300	0.519100	0.242900
N331	N33	0.061100	0.352200	0.307000
N341	N34	0.079200	0.428200	0.242300
N351	N35	0.058800	0.639000	0.968900
N361	N36	0.087000	0.569700	0.052300
C611	C61	0.386700	0.223400	0.110900
H491	H49	0.419200	0.231200	0.077100
C621	C62	0.410700	0.246500	0.182600
C631	C63	0.363200	0.235200	0.233000
H501	H50	0.381800	0.249100	0.281900
C641	C64	0.288100	0.203000	0.210200
C651	C65	0.261500	0.178600	0.139000
H511	H51	0.210800	0.156600	0.124300
C661	C66	0.313200	0.188300	0.090700
C671	C67	0.542400	0.298500	0.163500
H521	H52	0.549100	0.280300	0.120700
C681	C68	0.589400	0.342200	0.199100
H531	H53	0.635700	0.359400	0.185200
C691	C69	0.497400	0.323100	0.259900
H541	H54	0.466600	0.323800	0.296100
C701	C70	0.310100	0.188700	0.954500
H551	H55	0.351000	0.217400	0.955400
C711	C71	0.264900	0.160700	0.894700
H561	H56	0.269800	0.166000	0.846200
C721	C72	0.220100	0.131400	0.984800
H571	H57	0.185600	0.114300	0.012000
C731	C73	0.219300	0.239900	0.304900
H581	H58	0.250800	0.273900	0.312600
C741	C74	0.174600	0.156400	0.263200
H591	H59	0.166900	0.121700	0.237900
C751	C75	0.131100	0.175500	0.311700
H601	H60	0.087500	0.155000	0.325500
C761	C76	0.219900	0.547100	0.149800
H611	H61	0.251700	0.572300	0.128600
C771	C77	0.260100	0.515900	0.214100
C781	C78	0.213800	0.479300	0.246400
H621	H62	0.241400	0.460700	0.291000
C791	C79	0.125600	0.470400	0.212200
C801	C80	0.082000	0.500400	0.148400
H631	H63	0.022200	0.494800	0.126300
C811	C81	0.129500	0.538700	0.118400
C821	C82	0.406600	0.475800	0.277100
H641	H64	0.386100	0.441400	0.290900
C831	C83	0.490800	0.542100	0.260900
H651	H65	0.541500	0.562600	0.262000
C841	C84	0.409000	0.561100	0.232400
H661	H66	0.392700	0.596200	0.209600
C851	C85	0.116500	0.389900	0.295300
H671	H67	0.176000	0.390200	0.321100
C861	C86	0.983000	0.366600	0.258800
H681	H68	0.930500	0.347100	0.254000
C871	C87	0.991500	0.413400	0.218300
H691	H69	0.947500	0.431700	0.181900
C881	C88	0.112100	0.621500	0.033600
H701	H70	0.160000	0.642000	0.062100
C891	C89	0.998300	0.595800	0.946300
H711	H71	0.953100	0.595700	0.901800
C901	C90	0.014200	0.553300	0.998400
H721	H72	0.981900	0.520000	0.997300
Mn71	Mn7	0.101680	0.930040	0.342320
Mn81	Mn8	0.600700	0.790400	0.404010
N371	N37	0.060300	0.858300	0.258500
N381	N38	0.981800	0.785200	0.202400
N391	N39	0.658300	0.728000	0.337900
N401	N40	0.732400	0.698900	0.259100
N411	N41	0.709800	0.622600	0.914500
N421	N42	0.785700	0.667800	0.015100
N431	N43	0.989100	0.987800	0.288500
N441	N44	0.853300	0.019100	0.242900
N451	N45	0.561100	0.852200	0.307000
N461	N46	0.579200	0.928200	0.242300
N471	N47	0.558800	0.139000	0.968900
N481	N48	0.587000	0.069700	0.052300
C911	C91	0.886700	0.723400	0.110900
H731	H73	0.919200	0.731200	0.077100
C921	C92	0.910700	0.746500	0.182600
C931	C93	0.863200	0.735200	0.233000
H741	H74	0.881800	0.749100	0.281900
C941	C94	0.788100	0.703000	0.210200
C951	C95	0.761500	0.678600	0.139000
H751	H75	0.710800	0.656600	0.124300
C961	C96	0.813200	0.688300	0.090700
C971	C97	0.042400	0.798500	0.163500
H761	H76	0.049100	0.780300	0.120700
C981	C98	0.089400	0.842200	0.199100
H771	H77	0.135700	0.859400	0.185200
C991	C99	0.997400	0.823100	0.259900
H781	H78	0.966600	0.823800	0.296100
C1001	C100	0.810100	0.688700	0.954500
H791	H79	0.851000	0.717400	0.955400
C1011	C101	0.764900	0.660700	0.894700
H801	H80	0.769800	0.666000	0.846200
C1021	C102	0.720100	0.631400	0.984800
H811	H81	0.685600	0.614300	0.012000
C1031	C103	0.719300	0.739900	0.304900
H821	H82	0.750800	0.773900	0.312600
C1041	C104	0.674600	0.656400	0.263200
H831	H83	0.666900	0.621700	0.237900
C1051	C105	0.631100	0.675500	0.311700
H841	H84	0.587500	0.655000	0.325500
C1061	C106	0.719900	0.047100	0.149800
H851	H85	0.751700	0.072300	0.128600
C1071	C107	0.760100	0.015900	0.214100
C1081	C108	0.713800	0.979300	0.246400
H861	H86	0.741400	0.960700	0.291000
C1091	C109	0.625600	0.970400	0.212200
C1101	C110	0.582000	0.000400	0.148400
H871	H87	0.522200	0.994800	0.126300
C1111	C111	0.629500	0.038700	0.118400
C1121	C112	0.906600	0.975800	0.277100
H881	H88	0.886100	0.941400	0.290900
C1131	C113	0.990800	0.042100	0.260900
H891	H89	0.041500	0.062600	0.262000
C1141	C114	0.909000	0.061100	0.232400
H901	H90	0.892700	0.096200	0.209600
C1151	C115	0.616500	0.889900	0.295300
H911	H91	0.676000	0.890200	0.321100
C1161	C116	0.483000	0.866600	0.258800
H921	H92	0.430500	0.847100	0.254000
C1171	C117	0.491500	0.913400	0.218300
H931	H93	0.447500	0.931700	0.181900
C1181	C118	0.612100	0.121500	0.033600
H941	H94	0.660000	0.142000	0.062100
C1191	C119	0.498300	0.095800	0.946300
H951	H95	0.453100	0.095700	0.901800
C1201	C120	0.514200	0.053300	0.998400
H961	H96	0.481900	0.020000	0.997300
