data_TADCOS_clean_PM
_symmetry_space_group_name_H-M	'P1'
_cell_length_a	8.849000
_cell_length_b	13.869000
_cell_length_c	10.818000
_cell_angle_alpha	90.000000
_cell_angle_beta	90.000000
_cell_angle_gamma	90.000000
_symmetry_Int_Tables_number 1

loop_
_symmetry_equiv_pos_as_xyz
'x,y,z'

loop_
_atom_site_label
_atom_site_type_symbol
_atom_site_fract_x
_atom_site_fract_y
_atom_site_fract_z
Zn11	Zn1	0.037560	0.101160	0.327810
P11	P1	0.989480	0.077840	0.625160
P21	P2	0.828980	0.283920	0.380000
O11	O1	0.898700	0.206570	0.300800
O21	O2	0.727500	0.240830	0.482300
O31	O3	0.010300	0.049530	0.493040
O41	O4	0.100000	0.163040	0.658900
O51	O5	0.016000	0.998980	0.716500
O61	O6	0.959500	0.341470	0.447600
O71	O7	0.825000	0.117760	0.646900
O81	O8	0.742900	0.356600	0.303760
Zn21	Zn2	0.962440	0.898840	0.827810
P31	P3	0.010520	0.922160	0.125160
P41	P4	0.171020	0.716080	0.880000
O91	O9	0.101300	0.793430	0.800800
O101	O10	0.272500	0.759170	0.982300
O111	O11	0.989700	0.950470	0.993040
O121	O12	0.900000	0.836960	0.158900
O131	O13	0.984000	0.001020	0.216500
O141	O14	0.040500	0.658530	0.947600
O151	O15	0.175000	0.882240	0.146900
O161	O16	0.257100	0.643400	0.803760
Zn31	Zn3	0.537560	0.398840	0.327810
P51	P5	0.489480	0.422160	0.625160
P61	P6	0.328980	0.216080	0.380000
O171	O17	0.398700	0.293430	0.300800
O181	O18	0.227500	0.259170	0.482300
O191	O19	0.510300	0.450470	0.493040
O201	O20	0.600000	0.336960	0.658900
O211	O21	0.516000	0.501020	0.716500
O221	O22	0.459500	0.158530	0.447600
O231	O23	0.325000	0.382240	0.646900
O241	O24	0.242900	0.143400	0.303760
Zn41	Zn4	0.462440	0.601160	0.827810
P71	P7	0.510520	0.577840	0.125160
P81	P8	0.671020	0.783920	0.880000
O251	O25	0.601300	0.706570	0.800800
O261	O26	0.772500	0.740830	0.982300
O271	O27	0.489700	0.549530	0.993040
O281	O28	0.400000	0.663040	0.158900
O291	O29	0.484000	0.498980	0.216500
O301	O30	0.540500	0.841470	0.947600
O311	O31	0.675000	0.617760	0.146900
O321	O32	0.757100	0.856600	0.803760
