data_TAFBEJ_clean_PM
_symmetry_space_group_name_H-M	'P1'
_cell_length_a	17.124000
_cell_length_b	17.124000
_cell_length_c	5.392100
_cell_angle_alpha	90.000000
_cell_angle_beta	90.000000
_cell_angle_gamma	90.000000
_symmetry_Int_Tables_number 1

loop_
_symmetry_equiv_pos_as_xyz
'x,y,z'

loop_
_atom_site_label
_atom_site_type_symbol
_atom_site_fract_x
_atom_site_fract_y
_atom_site_fract_z
N11	N1	0.278010	0.366910	0.255200
N21	N2	0.192340	0.332640	0.538600
C11	C1	0.264500	0.320680	0.448400
C21	C2	0.210400	0.410400	0.227100
H11	H1	0.202500	0.448200	0.105800
C31	C3	0.158100	0.390100	0.399500
H21	H2	0.108400	0.411000	0.420800
C41	C4	0.154100	0.288400	0.737700
H31	H3	0.138500	0.323500	0.869900
H41	H4	0.190100	0.250300	0.805700
C51	C5	0.082900	0.247500	0.632000
H51	H5	0.047500	0.286500	0.565800
H61	H6	0.099300	0.214400	0.495600
C61	C6	0.040000	0.198700	0.817400
O11	O1	0.976500	0.169600	0.749100
O21	O2	0.070100	0.190400	0.028700
H71	H7	0.041900	0.162800	0.114500
N31	N3	0.721990	0.633090	0.255200
N41	N4	0.807660	0.667360	0.538600
C71	C7	0.735500	0.679320	0.448400
C81	C8	0.789600	0.589600	0.227100
H81	H8	0.797500	0.551800	0.105800
C91	C9	0.841900	0.609900	0.399500
H91	H9	0.891600	0.589000	0.420800
C101	C10	0.845900	0.711600	0.737700
H101	H10	0.861500	0.676500	0.869900
H111	H11	0.809900	0.749700	0.805700
C111	C11	0.917100	0.752500	0.632000
H121	H12	0.952500	0.713500	0.565800
H131	H13	0.900700	0.785600	0.495600
C121	C12	0.960000	0.801300	0.817400
O31	O3	0.023500	0.830400	0.749100
O41	O4	0.929900	0.809600	0.028700
H141	H14	0.958100	0.837200	0.114500
N51	N5	0.133090	0.778010	0.255200
N61	N6	0.167360	0.692340	0.538600
C131	C13	0.179320	0.764500	0.448400
C141	C14	0.089600	0.710400	0.227100
H151	H15	0.051800	0.702500	0.105800
C151	C15	0.109900	0.658100	0.399500
H161	H16	0.089000	0.608400	0.420800
C161	C16	0.211600	0.654100	0.737700
H171	H17	0.176500	0.638500	0.869900
H181	H18	0.249700	0.690100	0.805700
C171	C17	0.252500	0.582900	0.632000
H191	H19	0.213500	0.547500	0.565800
H201	H20	0.285600	0.599300	0.495600
C181	C18	0.301300	0.540000	0.817400
O51	O5	0.330400	0.476500	0.749100
O61	O6	0.309600	0.570100	0.028700
H211	H21	0.337200	0.541900	0.114500
N71	N7	0.866910	0.221990	0.255200
N81	N8	0.832640	0.307660	0.538600
C191	C19	0.820680	0.235500	0.448400
C201	C20	0.910400	0.289600	0.227100
H221	H22	0.948200	0.297500	0.105800
C211	C21	0.890100	0.341900	0.399500
H231	H23	0.911000	0.391600	0.420800
C221	C22	0.788400	0.345900	0.737700
H241	H24	0.823500	0.361500	0.869900
H251	H25	0.750300	0.309900	0.805700
C231	C23	0.747500	0.417100	0.632000
H261	H26	0.786500	0.452500	0.565800
H271	H27	0.714400	0.400700	0.495600
C241	C24	0.698700	0.460000	0.817400
O71	O7	0.669600	0.523500	0.749100
O81	O8	0.690400	0.429900	0.028700
H281	H28	0.662800	0.458100	0.114500
N91	N9	0.221990	0.866910	0.744800
N101	N10	0.307660	0.832640	0.461400
C251	C25	0.235500	0.820680	0.551600
C261	C26	0.289600	0.910400	0.772900
H291	H29	0.297500	0.948200	0.894200
C271	C27	0.341900	0.890100	0.600500
H301	H30	0.391600	0.911000	0.579200
C281	C28	0.345900	0.788400	0.262300
H311	H31	0.361500	0.823500	0.130100
H321	H32	0.309900	0.750300	0.194300
C291	C29	0.417100	0.747500	0.368000
H331	H33	0.452500	0.786500	0.434200
H341	H34	0.400700	0.714400	0.504400
C301	C30	0.460000	0.698700	0.182600
O91	O9	0.523500	0.669600	0.250900
O101	O10	0.429900	0.690400	0.971300
H351	H35	0.458100	0.662800	0.885500
N111	N11	0.778010	0.133090	0.744800
N121	N12	0.692340	0.167360	0.461400
C311	C31	0.764500	0.179320	0.551600
C321	C32	0.710400	0.089600	0.772900
H361	H36	0.702500	0.051800	0.894200
C331	C33	0.658100	0.109900	0.600500
H371	H37	0.608400	0.089000	0.579200
C341	C34	0.654100	0.211600	0.262300
H381	H38	0.638500	0.176500	0.130100
H391	H39	0.690100	0.249700	0.194300
C351	C35	0.582900	0.252500	0.368000
H401	H40	0.547500	0.213500	0.434200
H411	H41	0.599300	0.285600	0.504400
C361	C36	0.540000	0.301300	0.182600
O111	O11	0.476500	0.330400	0.250900
O121	O12	0.570100	0.309600	0.971300
H421	H42	0.541900	0.337200	0.885500
N131	N13	0.366910	0.278010	0.744800
N141	N14	0.332640	0.192340	0.461400
C371	C37	0.320680	0.264500	0.551600
C381	C38	0.410400	0.210400	0.772900
H431	H43	0.448200	0.202500	0.894200
C391	C39	0.390100	0.158100	0.600500
H441	H44	0.411000	0.108400	0.579200
C401	C40	0.288400	0.154100	0.262300
H451	H45	0.323500	0.138500	0.130100
H461	H46	0.250300	0.190100	0.194300
C411	C41	0.247500	0.082900	0.368000
H471	H47	0.286500	0.047500	0.434200
H481	H48	0.214400	0.099300	0.504400
C421	C42	0.198700	0.040000	0.182600
O131	O13	0.169600	0.976500	0.250900
O141	O14	0.190400	0.070100	0.971300
H491	H49	0.162800	0.041900	0.885500
N151	N15	0.633090	0.721990	0.744800
N161	N16	0.667360	0.807660	0.461400
C431	C43	0.679320	0.735500	0.551600
C441	C44	0.589600	0.789600	0.772900
H501	H50	0.551800	0.797500	0.894200
C451	C45	0.609900	0.841900	0.600500
H511	H51	0.589000	0.891600	0.579200
C461	C46	0.711600	0.845900	0.262300
H521	H52	0.676500	0.861500	0.130100
H531	H53	0.749700	0.809900	0.194300
C471	C47	0.752500	0.917100	0.368000
H541	H54	0.713500	0.952500	0.434200
H551	H55	0.785600	0.900700	0.504400
C481	C48	0.801300	0.960000	0.182600
O151	O15	0.830400	0.023500	0.250900
O161	O16	0.809600	0.929900	0.971300
H561	H56	0.837200	0.958100	0.885500
Cd11	Cd1	0.384700	0.384700	0.000000
Cd21	Cd2	0.615300	0.615300	0.000000
Cd31	Cd3	0.115300	0.884700	0.000000
Cd41	Cd4	0.884700	0.115300	0.000000
