data_TAFPOG_clean_PM
_symmetry_space_group_name_H-M	'P1'
_cell_length_a	8.611000
_cell_length_b	9.096000
_cell_length_c	11.371000
_cell_angle_alpha	104.811000
_cell_angle_beta	111.368000
_cell_angle_gamma	94.248000
_symmetry_Int_Tables_number 1

loop_
_symmetry_equiv_pos_as_xyz
'x,y,z'

loop_
_atom_site_label
_atom_site_type_symbol
_atom_site_fract_x
_atom_site_fract_y
_atom_site_fract_z
P11	P1	0.170900	0.483180	0.180370
P21	P2	0.229180	0.463880	0.665750
P31	P3	0.859300	0.992240	0.209760
Al11	Al1	0.048410	0.326270	0.356000
Al21	Al2	0.173320	0.363800	0.896550
O11	O1	0.190400	0.368400	0.065700
O21	O2	0.026100	0.566700	0.137800
O31	O3	0.332500	0.612000	0.257600
O41	O4	0.155300	0.395600	0.274200
O51	O5	0.418000	0.522500	0.733800
O61	O6	0.179500	0.369300	0.520600
O71	O7	0.167900	0.357200	0.730200
O81	O8	0.139500	0.604400	0.668800
O91	O9	0.923400	0.846000	0.165600
O101	O10	0.012900	0.124400	0.292100
O111	O11	0.775000	0.966500	0.306100
O121	O12	0.732800	0.033100	0.099000
O131	O13	0.408800	0.306800	0.942700
O141	O14	0.683800	0.424100	0.026000
C11	C1	0.526300	0.421900	0.990800
H11	H1	0.403000	0.581000	0.265000
H21	H2	0.823000	0.038000	0.371000
P41	P4	0.829100	0.516820	0.819630
P51	P5	0.770820	0.536120	0.334250
P61	P6	0.140700	0.007760	0.790240
Al31	Al3	0.951590	0.673730	0.644000
Al41	Al4	0.826680	0.636200	0.103450
O151	O15	0.809600	0.631600	0.934300
O161	O16	0.973900	0.433300	0.862200
O171	O17	0.667500	0.388000	0.742400
O181	O18	0.844700	0.604400	0.725800
O191	O19	0.582000	0.477500	0.266200
O201	O20	0.820500	0.630700	0.479400
O211	O21	0.832100	0.642800	0.269800
O221	O22	0.860500	0.395600	0.331200
O231	O23	0.076600	0.154000	0.834400
O241	O24	0.987100	0.875600	0.707900
O251	O25	0.225000	0.033500	0.693900
O261	O26	0.267200	0.966900	0.901000
O271	O27	0.591200	0.693200	0.057300
O281	O28	0.316200	0.575900	0.974000
C21	C2	0.473700	0.578100	0.009200
H31	H3	0.597000	0.419000	0.735000
H41	H4	0.177000	0.962000	0.629000
