data_TAGSEB_clean_PM
_symmetry_space_group_name_H-M	'P1'
_cell_length_a	13.118700
_cell_length_b	23.920000
_cell_length_c	19.689000
_cell_angle_alpha	90.000000
_cell_angle_beta	90.000000
_cell_angle_gamma	90.000000
_symmetry_Int_Tables_number 1

loop_
_symmetry_equiv_pos_as_xyz
'x,y,z'

loop_
_atom_site_label
_atom_site_type_symbol
_atom_site_fract_x
_atom_site_fract_y
_atom_site_fract_z
V11	V1	0.841950	0.539720	0.334790
V21	V2	0.662700	0.467340	0.427820
V31	V3	0.441240	0.533720	0.377050
V41	V4	0.250010	0.468850	0.286870
V51	V5	0.078350	0.526930	0.384300
V61	V6	0.258140	0.613170	0.433530
V71	V7	0.158050	0.460280	0.834790
V81	V8	0.337300	0.532660	0.927820
V91	V9	0.558760	0.466280	0.877050
V101	V10	0.749990	0.531150	0.786870
V111	V11	0.921650	0.473070	0.884300
V121	V12	0.741860	0.386830	0.933530
V131	V13	0.158050	0.039720	0.334790
V141	V14	0.337300	0.967340	0.427820
V151	V15	0.558760	0.033720	0.377050
V161	V16	0.749990	0.968850	0.286870
V171	V17	0.921650	0.026930	0.384300
V181	V18	0.741860	0.113170	0.433530
V191	V19	0.841950	0.960280	0.834790
V201	V20	0.662700	0.032660	0.927820
V211	V21	0.441240	0.966280	0.877050
V221	V22	0.250010	0.031150	0.786870
V231	V23	0.078350	0.973070	0.884300
V241	V24	0.258140	0.886830	0.933530
Cu11	Cu1	0.860300	0.495350	0.162080
Cu21	Cu2	0.628350	0.451540	0.611010
Cu31	Cu3	0.796260	0.975820	0.099520
Cu41	Cu4	0.139700	0.504650	0.662080
Cu51	Cu5	0.371650	0.548460	0.111010
Cu61	Cu6	0.203740	0.024180	0.599520
Cu71	Cu7	0.139700	0.995350	0.162080
Cu81	Cu8	0.371650	0.951540	0.611010
Cu91	Cu9	0.203740	0.475820	0.099520
Cu101	Cu10	0.860300	0.004650	0.662080
Cu111	Cu11	0.628350	0.048460	0.111010
Cu121	Cu12	0.796260	0.524180	0.599520
H11	H1	0.005800	0.420500	0.231500
H21	H2	0.093900	0.344500	0.213300
H31	H3	0.002900	0.349400	0.021800
H41	H4	0.920100	0.428400	0.046800
H51	H5	0.167700	0.277500	0.134900
H61	H6	0.143100	0.283000	0.057300
H71	H7	0.989000	0.234800	0.072100
H81	H8	0.006600	0.232300	0.150800
H91	H9	0.135600	0.175900	0.056800
H101	H10	0.145500	0.171200	0.136000
H111	H11	0.010700	0.120100	0.001500
H121	H12	0.901500	0.044200	0.001400
H131	H13	0.902300	0.044200	0.201100
H141	H14	0.017800	0.114100	0.201000
H151	H15	0.790700	0.523400	0.024500
H161	H16	0.678500	0.588400	0.976500
H171	H17	0.588000	0.632800	0.159800
H181	H18	0.698100	0.568700	0.204800
H191	H19	0.486000	0.661500	0.054500
H201	H20	0.538200	0.651700	0.983500
H211	H21	0.637800	0.719800	0.081800
H221	H22	0.660300	0.719200	0.003700
H231	H23	0.481600	0.764000	0.058300
H241	H24	0.515200	0.768100	0.981900
H251	H25	0.640400	0.839600	0.949800
H261	H26	0.743200	0.913500	0.979000
H271	H27	0.682300	0.889600	0.169800
H281	H28	0.582800	0.815300	0.143100
H291	H29	0.691000	0.389400	0.728400
H301	H30	0.748900	0.301500	0.756400
H311	H31	0.764200	0.269600	0.558400
H321	H32	0.713500	0.355400	0.537100
H331	H33	0.814300	0.212900	0.723100
H341	H34	0.839500	0.201700	0.646300
H351	H35	0.638600	0.193600	0.700700
H361	H36	0.666100	0.180400	0.624800
H371	H37	0.772700	0.105700	0.666300
H381	H38	0.725300	0.116000	0.738400
H391	H39	0.629700	0.094300	0.567300
H401	H40	0.506000	0.032000	0.539800
H411	H41	0.477900	0.988000	0.729400
H421	H42	0.585900	0.052200	0.762200
H431	H43	0.994200	0.579500	0.731500
H441	H44	0.906100	0.655500	0.713300
H451	H45	0.997100	0.650600	0.521800
H461	H46	0.079900	0.571600	0.546800
H471	H47	0.832300	0.722500	0.634900
H481	H48	0.856900	0.717000	0.557300
H491	H49	0.011000	0.765200	0.572100
H501	H50	0.993400	0.767700	0.650800
H511	H51	0.864400	0.824100	0.556800
H521	H52	0.854500	0.828800	0.636000
H531	H53	0.989300	0.879900	0.501500
H541	H54	0.098500	0.955800	0.501400
H551	H55	0.097700	0.955800	0.701100
H561	H56	0.982200	0.885900	0.701000
H571	H57	0.209300	0.476600	0.524500
H581	H58	0.321500	0.411600	0.476500
H591	H59	0.412000	0.367200	0.659800
H601	H60	0.301900	0.431300	0.704800
H611	H61	0.514000	0.338500	0.554500
H621	H62	0.461800	0.348300	0.483500
H631	H63	0.362200	0.280200	0.581800
H641	H64	0.339700	0.280800	0.503700
H651	H65	0.518400	0.236000	0.558300
H661	H66	0.484800	0.231900	0.481900
H671	H67	0.359600	0.160400	0.449800
H681	H68	0.256800	0.086500	0.479000
H691	H69	0.317700	0.110400	0.669800
H701	H70	0.417200	0.184700	0.643100
H711	H71	0.309000	0.610600	0.228400
H721	H72	0.251100	0.698500	0.256400
H731	H73	0.235800	0.730400	0.058400
H741	H74	0.286500	0.644600	0.037100
H751	H75	0.185700	0.787100	0.223100
H761	H76	0.160500	0.798300	0.146300
H771	H77	0.361400	0.806400	0.200700
H781	H78	0.333900	0.819600	0.124800
H791	H79	0.227300	0.894300	0.166300
H801	H80	0.274700	0.884000	0.238400
H811	H81	0.370300	0.905700	0.067300
H821	H82	0.494000	0.968000	0.039800
H831	H83	0.522100	0.012000	0.229400
H841	H84	0.414100	0.947800	0.262200
H851	H85	0.994200	0.920500	0.231500
H861	H86	0.906100	0.844500	0.213300
H871	H87	0.997100	0.849400	0.021800
H881	H88	0.079900	0.928400	0.046800
H891	H89	0.832300	0.777500	0.134900
H901	H90	0.856900	0.783000	0.057300
H911	H91	0.011000	0.734800	0.072100
H921	H92	0.993400	0.732300	0.150800
H931	H93	0.864400	0.675900	0.056800
H941	H94	0.854500	0.671200	0.136000
H951	H95	0.989300	0.620100	0.001500
H961	H96	0.098500	0.544200	0.001400
H971	H97	0.097700	0.544200	0.201100
H981	H98	0.982200	0.614100	0.201000
H991	H99	0.209300	0.023400	0.024500
H1001	H100	0.321500	0.088400	0.976500
H1011	H101	0.412000	0.132800	0.159800
H1021	H102	0.301900	0.068700	0.204800
H1031	H103	0.514000	0.161500	0.054500
H1041	H104	0.461800	0.151700	0.983500
H1051	H105	0.362200	0.219800	0.081800
H1061	H106	0.339700	0.219200	0.003700
H1071	H107	0.518400	0.264000	0.058300
H1081	H108	0.484800	0.268100	0.981900
H1091	H109	0.359600	0.339600	0.949800
H1101	H110	0.256800	0.413500	0.979000
H1111	H111	0.317700	0.389600	0.169800
H1121	H112	0.417200	0.315300	0.143100
H1131	H113	0.309000	0.889400	0.728400
H1141	H114	0.251100	0.801500	0.756400
H1151	H115	0.235800	0.769600	0.558400
H1161	H116	0.286500	0.855400	0.537100
H1171	H117	0.185700	0.712900	0.723100
H1181	H118	0.160500	0.701700	0.646300
H1191	H119	0.361400	0.693600	0.700700
H1201	H120	0.333900	0.680400	0.624800
H1211	H121	0.227300	0.605700	0.666300
H1221	H122	0.274700	0.616000	0.738400
H1231	H123	0.370300	0.594300	0.567300
H1241	H124	0.494000	0.532000	0.539800
H1251	H125	0.522100	0.488000	0.729400
H1261	H126	0.414100	0.552200	0.762200
H1271	H127	0.005800	0.079500	0.731500
H1281	H128	0.093900	0.155500	0.713300
H1291	H129	0.002900	0.150600	0.521800
H1301	H130	0.920100	0.071600	0.546800
H1311	H131	0.167700	0.222500	0.634900
H1321	H132	0.143100	0.217000	0.557300
H1331	H133	0.989000	0.265200	0.572100
H1341	H134	0.006600	0.267700	0.650800
H1351	H135	0.135600	0.324100	0.556800
H1361	H136	0.145500	0.328800	0.636000
H1371	H137	0.010700	0.379900	0.501500
H1381	H138	0.901500	0.455800	0.501400
H1391	H139	0.902300	0.455800	0.701100
H1401	H140	0.017800	0.385900	0.701000
H1411	H141	0.790700	0.976600	0.524500
H1421	H142	0.678500	0.911600	0.476500
H1431	H143	0.588000	0.867200	0.659800
H1441	H144	0.698100	0.931300	0.704800
H1451	H145	0.486000	0.838500	0.554500
H1461	H146	0.538200	0.848300	0.483500
H1471	H147	0.637800	0.780200	0.581800
H1481	H148	0.660300	0.780800	0.503700
H1491	H149	0.481600	0.736000	0.558300
H1501	H150	0.515200	0.731900	0.481900
H1511	H151	0.640400	0.660400	0.449800
H1521	H152	0.743200	0.586500	0.479000
H1531	H153	0.682300	0.610400	0.669800
H1541	H154	0.582800	0.684700	0.643100
H1551	H155	0.691000	0.110600	0.228400
H1561	H156	0.748900	0.198500	0.256400
H1571	H157	0.764200	0.230400	0.058400
H1581	H158	0.713500	0.144600	0.037100
H1591	H159	0.814300	0.287100	0.223100
H1601	H160	0.839500	0.298300	0.146300
H1611	H161	0.638600	0.306400	0.200700
H1621	H162	0.666100	0.319600	0.124800
H1631	H163	0.772700	0.394300	0.166300
H1641	H164	0.725300	0.384000	0.238400
H1651	H165	0.629700	0.405700	0.067300
H1661	H166	0.506000	0.468000	0.039800
H1671	H167	0.477900	0.512000	0.229400
H1681	H168	0.585900	0.447800	0.262200
C11	C1	0.005400	0.406000	0.187700
C21	C2	0.057700	0.360400	0.177600
C31	C3	0.060000	0.336000	0.115400
C41	C4	0.005200	0.363400	0.065800
C51	C5	0.955200	0.410600	0.081700
C61	C6	0.113000	0.282000	0.102200
C71	C7	0.040700	0.231700	0.107100
C81	C8	0.097300	0.175500	0.099000
C91	C9	0.026300	0.126800	0.098600
C101	C10	0.990900	0.104900	0.042800
C111	C11	0.923600	0.058800	0.042700
C121	C12	0.925700	0.058500	0.160000
C131	C13	0.992600	0.101000	0.159800
C141	C14	0.751900	0.546600	0.052200
C151	C15	0.681800	0.584800	0.023500
C161	C16	0.620000	0.615900	0.062400
C171	C17	0.628300	0.611100	0.131300
C181	C18	0.696600	0.573800	0.158000
C191	C19	0.550900	0.660300	0.030900
C201	C20	0.606300	0.717700	0.037300
C211	C21	0.540000	0.766800	0.028300
C221	C22	0.598100	0.818300	0.043800
C231	C23	0.648100	0.849000	0.995300
C241	C24	0.709800	0.893700	0.013000
C251	C25	0.674900	0.879800	0.124400
C261	C26	0.614200	0.834900	0.108100
C271	C27	0.706300	0.364300	0.693900
C281	C28	0.740400	0.311400	0.711100
C291	C29	0.761500	0.274200	0.660700
C301	C30	0.749700	0.293400	0.594500
C311	C31	0.718700	0.344200	0.582200
C321	C32	0.787600	0.215200	0.677300
C331	C33	0.691200	0.178800	0.671100
C341	C34	0.712100	0.118300	0.690000
C351	C35	0.624800	0.080800	0.672300
C361	C36	0.597500	0.073600	0.601100
C371	C37	0.523900	0.035800	0.585200
C381	C38	0.506700	0.011100	0.696600
C391	C39	0.573400	0.048200	0.715900
C401	C40	0.994600	0.594000	0.687700
C411	C41	0.942300	0.639600	0.677600
C421	C42	0.940000	0.664000	0.615400
C431	C43	0.994800	0.636600	0.565800
C441	C44	0.044800	0.589400	0.581700
C451	C45	0.887000	0.718000	0.602200
C461	C46	0.959300	0.768300	0.607100
C471	C47	0.902700	0.824500	0.599000
C481	C48	0.973700	0.873200	0.598600
C491	C49	0.009100	0.895100	0.542800
C501	C50	0.076400	0.941200	0.542700
C511	C51	0.074300	0.941500	0.660000
C521	C52	0.007400	0.899000	0.659800
C531	C53	0.248100	0.453400	0.552200
C541	C54	0.318200	0.415200	0.523500
C551	C55	0.380000	0.384100	0.562400
C561	C56	0.371700	0.388900	0.631300
C571	C57	0.303400	0.426200	0.658000
C581	C58	0.449100	0.339700	0.530900
C591	C59	0.393700	0.282300	0.537300
C601	C60	0.460000	0.233200	0.528300
C611	C61	0.401900	0.181700	0.543800
C621	C62	0.351900	0.151000	0.495300
C631	C63	0.290200	0.106300	0.513000
C641	C64	0.325100	0.120200	0.624400
C651	C65	0.385800	0.165100	0.608100
C661	C66	0.293700	0.635700	0.193900
C671	C67	0.259600	0.688600	0.211100
C681	C68	0.238500	0.725800	0.160700
C691	C69	0.250300	0.706600	0.094500
C701	C70	0.281300	0.655800	0.082200
C711	C71	0.212400	0.784800	0.177300
C721	C72	0.308800	0.821200	0.171100
C731	C73	0.287900	0.881700	0.190000
C741	C74	0.375200	0.919200	0.172300
C751	C75	0.402500	0.926400	0.101100
C761	C76	0.476100	0.964200	0.085200
C771	C77	0.493300	0.988900	0.196600
C781	C78	0.426600	0.951800	0.215900
C791	C79	0.994600	0.906000	0.187700
C801	C80	0.942300	0.860400	0.177600
C811	C81	0.940000	0.836000	0.115400
C821	C82	0.994800	0.863400	0.065800
C831	C83	0.044800	0.910600	0.081700
C841	C84	0.887000	0.782000	0.102200
C851	C85	0.959300	0.731700	0.107100
C861	C86	0.902700	0.675500	0.099000
C871	C87	0.973700	0.626800	0.098600
C881	C88	0.009100	0.604900	0.042800
C891	C89	0.076400	0.558800	0.042700
C901	C90	0.074300	0.558500	0.160000
C911	C91	0.007400	0.601000	0.159800
C921	C92	0.248100	0.046600	0.052200
C931	C93	0.318200	0.084800	0.023500
C941	C94	0.380000	0.115900	0.062400
C951	C95	0.371700	0.111100	0.131300
C961	C96	0.303400	0.073800	0.158000
C971	C97	0.449100	0.160300	0.030900
C981	C98	0.393700	0.217700	0.037300
C991	C99	0.460000	0.266800	0.028300
C1001	C100	0.401900	0.318300	0.043800
C1011	C101	0.351900	0.349000	0.995300
C1021	C102	0.290200	0.393700	0.013000
C1031	C103	0.325100	0.379800	0.124400
C1041	C104	0.385800	0.334900	0.108100
C1051	C105	0.293700	0.864300	0.693900
C1061	C106	0.259600	0.811400	0.711100
C1071	C107	0.238500	0.774200	0.660700
C1081	C108	0.250300	0.793400	0.594500
C1091	C109	0.281300	0.844200	0.582200
C1101	C110	0.212400	0.715200	0.677300
C1111	C111	0.308800	0.678800	0.671100
C1121	C112	0.287900	0.618300	0.690000
C1131	C113	0.375200	0.580800	0.672300
C1141	C114	0.402500	0.573600	0.601100
C1151	C115	0.476100	0.535800	0.585200
C1161	C116	0.493300	0.511100	0.696600
C1171	C117	0.426600	0.548200	0.715900
C1181	C118	0.005400	0.094000	0.687700
C1191	C119	0.057700	0.139600	0.677600
C1201	C120	0.060000	0.164000	0.615400
C1211	C121	0.005200	0.136600	0.565800
C1221	C122	0.955200	0.089400	0.581700
C1231	C123	0.113000	0.218000	0.602200
C1241	C124	0.040700	0.268300	0.607100
C1251	C125	0.097300	0.324500	0.599000
C1261	C126	0.026300	0.373200	0.598600
C1271	C127	0.990900	0.395100	0.542800
C1281	C128	0.923600	0.441200	0.542700
C1291	C129	0.925700	0.441500	0.660000
C1301	C130	0.992600	0.399000	0.659800
C1311	C131	0.751900	0.953400	0.552200
C1321	C132	0.681800	0.915200	0.523500
C1331	C133	0.620000	0.884100	0.562400
C1341	C134	0.628300	0.888900	0.631300
C1351	C135	0.696600	0.926200	0.658000
C1361	C136	0.550900	0.839700	0.530900
C1371	C137	0.606300	0.782300	0.537300
C1381	C138	0.540000	0.733200	0.528300
C1391	C139	0.598100	0.681700	0.543800
C1401	C140	0.648100	0.651000	0.495300
C1411	C141	0.709800	0.606300	0.513000
C1421	C142	0.674900	0.620200	0.624400
C1431	C143	0.614200	0.665100	0.608100
C1441	C144	0.706300	0.135700	0.193900
C1451	C145	0.740400	0.188600	0.211100
C1461	C146	0.761500	0.225800	0.160700
C1471	C147	0.749700	0.206600	0.094500
C1481	C148	0.718700	0.155800	0.082200
C1491	C149	0.787600	0.284800	0.177300
C1501	C150	0.691200	0.321200	0.171100
C1511	C151	0.712100	0.381700	0.190000
C1521	C152	0.624800	0.419200	0.172300
C1531	C153	0.597500	0.426400	0.101100
C1541	C154	0.523900	0.464200	0.085200
C1551	C155	0.506700	0.488900	0.196600
C1561	C156	0.573400	0.451800	0.215900
N11	N1	0.951200	0.433900	0.141400
N21	N2	0.891400	0.036200	0.099800
N31	N3	0.761500	0.544400	0.119400
N41	N4	0.722800	0.909100	0.078100
N51	N5	0.694400	0.380400	0.629600
N61	N6	0.476200	0.004300	0.629700
N71	N7	0.048800	0.566100	0.641400
N81	N8	0.108600	0.963800	0.599800
N91	N9	0.238500	0.455600	0.619400
N101	N10	0.277200	0.090900	0.578100
N111	N11	0.305600	0.619600	0.129600
N121	N12	0.523800	0.995700	0.129700
N131	N13	0.048800	0.933900	0.141400
N141	N14	0.108600	0.536200	0.099800
N151	N15	0.238500	0.044400	0.119400
N161	N16	0.277200	0.409100	0.078100
N171	N17	0.305600	0.880400	0.629600
N181	N18	0.523800	0.504300	0.629700
N191	N19	0.951200	0.066100	0.641400
N201	N20	0.891400	0.463800	0.599800
N211	N21	0.761500	0.955600	0.619400
N221	N22	0.722800	0.590900	0.578100
N231	N23	0.694400	0.119600	0.129600
N241	N24	0.476200	0.495700	0.129700
O11	O1	0.857500	0.503400	0.265800
O21	O2	0.960800	0.557500	0.372200
O31	O3	0.756000	0.508200	0.392300
O41	O4	0.681500	0.465900	0.509200
O51	O5	0.538300	0.495800	0.414800
O61	O6	0.360400	0.486600	0.338600
O71	O7	0.373400	0.572500	0.437600
O81	O8	0.141600	0.507700	0.312700
O91	O9	0.150200	0.564700	0.439200
O101	O10	0.142500	0.496600	0.765800
O111	O11	0.039200	0.442500	0.872200
O121	O12	0.244000	0.491800	0.892300
O131	O13	0.318500	0.534100	0.009200
O141	O14	0.461700	0.504200	0.914800
O151	O15	0.639600	0.513400	0.838600
O161	O16	0.626600	0.427500	0.937600
O171	O17	0.858400	0.492300	0.812700
O181	O18	0.849800	0.435300	0.939200
O191	O19	0.142500	0.003400	0.265800
O201	O20	0.039200	0.057500	0.372200
O211	O21	0.244000	0.008200	0.392300
O221	O22	0.318500	0.965900	0.509200
O231	O23	0.461700	0.995800	0.414800
O241	O24	0.639600	0.986600	0.338600
O251	O25	0.626600	0.072500	0.437600
O261	O26	0.858400	0.007700	0.312700
O271	O27	0.849800	0.064700	0.439200
O281	O28	0.857500	0.996600	0.765800
O291	O29	0.960800	0.942500	0.872200
O301	O30	0.756000	0.991800	0.892300
O311	O31	0.681500	0.034100	0.009200
O321	O32	0.538300	0.004200	0.914800
O331	O33	0.360400	0.013400	0.838600
O341	O34	0.373400	0.927500	0.937600
O351	O35	0.141600	0.992300	0.812700
O361	O36	0.150200	0.935300	0.939200
