data_TAGTED_clean_PM
_symmetry_space_group_name_H-M	'P1'
_cell_length_a	22.803000
_cell_length_b	13.457100
_cell_length_c	15.563700
_cell_angle_alpha	90.000000
_cell_angle_beta	93.761000
_cell_angle_gamma	90.000000
_symmetry_Int_Tables_number 1

loop_
_symmetry_equiv_pos_as_xyz
'x,y,z'

loop_
_atom_site_label
_atom_site_type_symbol
_atom_site_fract_x
_atom_site_fract_y
_atom_site_fract_z
Mg11	Mg1	0.748150	0.191080	0.745040
Mg21	Mg2	0.846000	0.971190	0.762040
Mg31	Mg3	0.905800	0.227210	0.734060
S11	S1	0.730220	0.884790	0.999510
S21	S2	0.825550	0.457650	0.496980
C11	C1	0.649500	0.008900	0.958200
C21	C2	0.716800	0.415100	0.468300
C31	C3	0.983200	0.914600	0.536500
C41	C4	0.978700	0.175300	0.964300
C51	C5	0.967400	0.007500	0.559800
C61	C6	0.668000	0.881700	0.058100
C71	C7	0.628300	0.950800	0.031300
C81	C8	0.703200	0.979800	0.935600
C91	C9	0.928700	0.037600	0.629700
C101	C10	0.964600	0.080200	0.938600
C111	C11	0.665100	0.813300	0.132200
C121	C12	0.921100	0.046600	0.868200
C131	C13	0.738100	0.353500	0.537100
C141	C14	0.737300	0.022000	0.866700
C151	C15	0.832700	0.316000	0.626500
C161	C16	0.754800	0.551700	0.370900
C171	C17	0.759900	0.477000	0.439400
C181	C18	0.795800	0.367300	0.559400
O11	O1	0.923700	0.128200	0.640900
O21	O2	0.785100	0.981000	0.854400
O31	O3	0.710700	0.547300	0.316800
O41	O4	0.714300	0.091900	0.825000
O51	O5	0.906500	0.967900	0.669900
O61	O6	0.618400	0.818400	0.170500
O71	O7	0.895930	0.108000	0.816500
O81	O8	0.910300	0.956100	0.863700
O91	O9	0.708200	0.759200	0.151200
O101	O10	0.886900	0.337700	0.636000
O111	O11	0.791800	0.619100	0.367600
O121	O12	0.810700	0.252600	0.673500
Mg41	Mg4	0.248150	0.691080	0.745040
Mg51	Mg5	0.346000	0.471190	0.762040
Mg61	Mg6	0.405800	0.727210	0.734060
S31	S3	0.230220	0.384790	0.999510
S41	S4	0.325550	0.957650	0.496980
C191	C19	0.149500	0.508900	0.958200
C201	C20	0.216800	0.915100	0.468300
C211	C21	0.483200	0.414600	0.536500
C221	C22	0.478700	0.675300	0.964300
C231	C23	0.467400	0.507500	0.559800
C241	C24	0.168000	0.381700	0.058100
C251	C25	0.128300	0.450800	0.031300
C261	C26	0.203200	0.479800	0.935600
C271	C27	0.428700	0.537600	0.629700
C281	C28	0.464600	0.580200	0.938600
C291	C29	0.165100	0.313300	0.132200
C301	C30	0.421100	0.546600	0.868200
C311	C31	0.238100	0.853500	0.537100
C321	C32	0.237300	0.522000	0.866700
C331	C33	0.332700	0.816000	0.626500
C341	C34	0.254800	0.051700	0.370900
C351	C35	0.259900	0.977000	0.439400
C361	C36	0.295800	0.867300	0.559400
O131	O13	0.423700	0.628200	0.640900
O141	O14	0.285100	0.481000	0.854400
O151	O15	0.210700	0.047300	0.316800
O161	O16	0.214300	0.591900	0.825000
O171	O17	0.406500	0.467900	0.669900
O181	O18	0.118400	0.318400	0.170500
O191	O19	0.395930	0.608000	0.816500
O201	O20	0.410300	0.456100	0.863700
O211	O21	0.208200	0.259200	0.151200
O221	O22	0.386900	0.837700	0.636000
O231	O23	0.291800	0.119100	0.367600
O241	O24	0.310700	0.752600	0.673500
Mg71	Mg7	0.251850	0.191080	0.254960
Mg81	Mg8	0.154000	0.971190	0.237960
Mg91	Mg9	0.094200	0.227210	0.265940
S51	S5	0.269780	0.884790	0.000490
S61	S6	0.174450	0.457650	0.503020
C371	C37	0.350500	0.008900	0.041800
C381	C38	0.283200	0.415100	0.531700
C391	C39	0.016800	0.914600	0.463500
C401	C40	0.021300	0.175300	0.035700
C411	C41	0.032600	0.007500	0.440200
C421	C42	0.332000	0.881700	0.941900
C431	C43	0.371700	0.950800	0.968700
C441	C44	0.296800	0.979800	0.064400
C451	C45	0.071300	0.037600	0.370300
C461	C46	0.035400	0.080200	0.061400
C471	C47	0.334900	0.813300	0.867800
C481	C48	0.078900	0.046600	0.131800
C491	C49	0.261900	0.353500	0.462900
C501	C50	0.262700	0.022000	0.133300
C511	C51	0.167300	0.316000	0.373500
C521	C52	0.245200	0.551700	0.629100
C531	C53	0.240100	0.477000	0.560600
C541	C54	0.204200	0.367300	0.440600
O251	O25	0.076300	0.128200	0.359100
O261	O26	0.214900	0.981000	0.145600
O271	O27	0.289300	0.547300	0.683200
O281	O28	0.285700	0.091900	0.175000
O291	O29	0.093500	0.967900	0.330100
O301	O30	0.381600	0.818400	0.829500
O311	O31	0.104070	0.108000	0.183500
O321	O32	0.089700	0.956100	0.136300
O331	O33	0.291800	0.759200	0.848800
O341	O34	0.113100	0.337700	0.364000
O351	O35	0.208200	0.619100	0.632400
O361	O36	0.189300	0.252600	0.326500
Mg101	Mg10	0.751850	0.691080	0.254960
Mg111	Mg11	0.654000	0.471190	0.237960
Mg121	Mg12	0.594200	0.727210	0.265940
S71	S7	0.769780	0.384790	0.000490
S81	S8	0.674450	0.957650	0.503020
C551	C55	0.850500	0.508900	0.041800
C561	C56	0.783200	0.915100	0.531700
C571	C57	0.516800	0.414600	0.463500
C581	C58	0.521300	0.675300	0.035700
C591	C59	0.532600	0.507500	0.440200
C601	C60	0.832000	0.381700	0.941900
C611	C61	0.871700	0.450800	0.968700
C621	C62	0.796800	0.479800	0.064400
C631	C63	0.571300	0.537600	0.370300
C641	C64	0.535400	0.580200	0.061400
C651	C65	0.834900	0.313300	0.867800
C661	C66	0.578900	0.546600	0.131800
C671	C67	0.761900	0.853500	0.462900
C681	C68	0.762700	0.522000	0.133300
C691	C69	0.667300	0.816000	0.373500
C701	C70	0.745200	0.051700	0.629100
C711	C71	0.740100	0.977000	0.560600
C721	C72	0.704200	0.867300	0.440600
O371	O37	0.576300	0.628200	0.359100
O381	O38	0.714900	0.481000	0.145600
O391	O39	0.789300	0.047300	0.683200
O401	O40	0.785700	0.591900	0.175000
O411	O41	0.593500	0.467900	0.330100
O421	O42	0.881600	0.318400	0.829500
O431	O43	0.604070	0.608000	0.183500
O441	O44	0.589700	0.456100	0.136300
O451	O45	0.791800	0.259200	0.848800
O461	O46	0.613100	0.837700	0.364000
O471	O47	0.708200	0.119100	0.632400
O481	O48	0.689300	0.752600	0.326500
S91	S9	0.000000	0.095490	0.500000
S101	S10	0.500000	0.595490	0.500000
S111	S11	0.000000	0.992830	0.000000
S121	S12	0.500000	0.492830	0.000000
