data_TAHYUZ_clean_PM
_symmetry_space_group_name_H-M	'P1'
_cell_length_a	24.561000
_cell_length_b	18.908000
_cell_length_c	9.704900
_cell_angle_alpha	90.000000
_cell_angle_beta	108.760000
_cell_angle_gamma	90.000000
_symmetry_Int_Tables_number 1

loop_
_symmetry_equiv_pos_as_xyz
'x,y,z'

loop_
_atom_site_label
_atom_site_type_symbol
_atom_site_fract_x
_atom_site_fract_y
_atom_site_fract_z
Co11	Co1	0.002360	0.205040	0.506870
O11	O1	0.947500	0.021340	0.777600
O21	O2	0.930920	0.968170	0.563000
O31	O3	0.932470	0.823560	0.571500
O41	O4	0.948680	0.769340	0.785700
O51	O5	0.624100	0.159900	0.943400
O61	O6	0.560250	0.116300	0.743800
O71	O7	0.564760	0.744200	0.929700
O81	O8	0.557740	0.680230	0.730700
O91	O9	0.974600	0.103610	0.520300
C11	C1	0.877000	0.931700	0.715000
C21	C2	0.834100	0.968600	0.748000
H11	H1	0.836200	0.017700	0.752900
C31	C3	0.788000	0.935400	0.774200
C41	C4	0.787300	0.860200	0.779000
C51	C5	0.832700	0.823500	0.753900
H21	H2	0.833900	0.774500	0.762900
C61	C6	0.876100	0.857500	0.715800
C71	C7	0.922600	0.814600	0.687100
C81	C8	0.922200	0.975100	0.680500
C91	C9	0.740800	0.982200	0.789100
C101	C10	0.754700	0.041500	0.872900
H31	H3	0.793100	0.052000	0.921300
C111	C11	0.712600	0.086000	0.886800
H41	H4	0.722500	0.125100	0.948000
C121	C12	0.655400	0.073100	0.810500
C131	C13	0.641600	0.014600	0.720000
H51	H5	0.603500	0.005900	0.665800
C141	C14	0.684400	0.968900	0.709800
H61	H6	0.674900	0.929500	0.649400
C151	C15	0.738900	0.820000	0.806200
C161	C16	0.716700	0.838900	0.916300
H71	H7	0.735100	0.873600	0.983200
C171	C17	0.667700	0.806900	0.927000
H81	H8	0.653300	0.820300	0.000700
C181	C18	0.639600	0.754400	0.827800
C191	C19	0.664300	0.732100	0.724600
H91	H9	0.647800	0.695000	0.662300
C201	C20	0.713000	0.764800	0.714200
H101	H10	0.728700	0.749600	0.644100
C211	C21	0.610300	0.119800	0.834000
C221	C22	0.584300	0.724800	0.831800
Co21	Co2	0.502360	0.705040	0.506870
O101	O10	0.447500	0.521340	0.777600
O111	O11	0.430920	0.468170	0.563000
O121	O12	0.432470	0.323560	0.571500
O131	O13	0.448680	0.269340	0.785700
O141	O14	0.124100	0.659900	0.943400
O151	O15	0.060250	0.616300	0.743800
O161	O16	0.064760	0.244200	0.929700
O171	O17	0.057740	0.180230	0.730700
O181	O18	0.474600	0.603610	0.520300
C231	C23	0.377000	0.431700	0.715000
C241	C24	0.334100	0.468600	0.748000
H111	H11	0.336200	0.517700	0.752900
C251	C25	0.288000	0.435400	0.774200
C261	C26	0.287300	0.360200	0.779000
C271	C27	0.332700	0.323500	0.753900
H121	H12	0.333900	0.274500	0.762900
C281	C28	0.376100	0.357500	0.715800
C291	C29	0.422600	0.314600	0.687100
C301	C30	0.422200	0.475100	0.680500
C311	C31	0.240800	0.482200	0.789100
C321	C32	0.254700	0.541500	0.872900
H131	H13	0.293100	0.552000	0.921300
C331	C33	0.212600	0.586000	0.886800
H141	H14	0.222500	0.625100	0.948000
C341	C34	0.155400	0.573100	0.810500
C351	C35	0.141600	0.514600	0.720000
H151	H15	0.103500	0.505900	0.665800
C361	C36	0.184400	0.468900	0.709800
H161	H16	0.174900	0.429500	0.649400
C371	C37	0.238900	0.320000	0.806200
C381	C38	0.216700	0.338900	0.916300
H171	H17	0.235100	0.373600	0.983200
C391	C39	0.167700	0.306900	0.927000
H181	H18	0.153300	0.320300	0.000700
C401	C40	0.139600	0.254400	0.827800
C411	C41	0.164300	0.232100	0.724600
H191	H19	0.147800	0.195000	0.662300
C421	C42	0.213000	0.264800	0.714200
H201	H20	0.228700	0.249600	0.644100
C431	C43	0.110300	0.619800	0.834000
C441	C44	0.084300	0.224800	0.831800
Co31	Co3	0.997640	0.205040	0.993130
O191	O19	0.052500	0.021340	0.722400
O201	O20	0.069080	0.968170	0.937000
O211	O21	0.067530	0.823560	0.928500
O221	O22	0.051320	0.769340	0.714300
O231	O23	0.375900	0.159900	0.556600
O241	O24	0.439750	0.116300	0.756200
O251	O25	0.435240	0.744200	0.570300
O261	O26	0.442260	0.680230	0.769300
O271	O27	0.025400	0.103610	0.979700
C451	C45	0.123000	0.931700	0.785000
C461	C46	0.165900	0.968600	0.752000
H211	H21	0.163800	0.017700	0.747100
C471	C47	0.212000	0.935400	0.725800
C481	C48	0.212700	0.860200	0.721000
C491	C49	0.167300	0.823500	0.746100
H221	H22	0.166100	0.774500	0.737100
C501	C50	0.123900	0.857500	0.784200
C511	C51	0.077400	0.814600	0.812900
C521	C52	0.077800	0.975100	0.819500
C531	C53	0.259200	0.982200	0.710900
C541	C54	0.245300	0.041500	0.627100
H231	H23	0.206900	0.052000	0.578700
C551	C55	0.287400	0.086000	0.613200
H241	H24	0.277500	0.125100	0.552000
C561	C56	0.344600	0.073100	0.689500
C571	C57	0.358400	0.014600	0.780000
H251	H25	0.396500	0.005900	0.834200
C581	C58	0.315600	0.968900	0.790200
H261	H26	0.325100	0.929500	0.850600
C591	C59	0.261100	0.820000	0.693800
C601	C60	0.283300	0.838900	0.583700
H271	H27	0.264900	0.873600	0.516800
C611	C61	0.332300	0.806900	0.573000
H281	H28	0.346700	0.820300	0.499300
C621	C62	0.360400	0.754400	0.672200
C631	C63	0.335700	0.732100	0.775400
H291	H29	0.352200	0.695000	0.837700
C641	C64	0.287000	0.764800	0.785800
H301	H30	0.271300	0.749600	0.855900
C651	C65	0.389700	0.119800	0.666000
C661	C66	0.415700	0.724800	0.668200
Co41	Co4	0.497640	0.705040	0.993130
O281	O28	0.552500	0.521340	0.722400
O291	O29	0.569080	0.468170	0.937000
O301	O30	0.567530	0.323560	0.928500
O311	O31	0.551320	0.269340	0.714300
O321	O32	0.875900	0.659900	0.556600
O331	O33	0.939750	0.616300	0.756200
O341	O34	0.935240	0.244200	0.570300
O351	O35	0.942260	0.180230	0.769300
O361	O36	0.525400	0.603610	0.979700
C671	C67	0.623000	0.431700	0.785000
C681	C68	0.665900	0.468600	0.752000
H311	H31	0.663800	0.517700	0.747100
C691	C69	0.712000	0.435400	0.725800
C701	C70	0.712700	0.360200	0.721000
C711	C71	0.667300	0.323500	0.746100
H321	H32	0.666100	0.274500	0.737100
C721	C72	0.623900	0.357500	0.784200
C731	C73	0.577400	0.314600	0.812900
C741	C74	0.577800	0.475100	0.819500
C751	C75	0.759200	0.482200	0.710900
C761	C76	0.745300	0.541500	0.627100
H331	H33	0.706900	0.552000	0.578700
C771	C77	0.787400	0.586000	0.613200
H341	H34	0.777500	0.625100	0.552000
C781	C78	0.844600	0.573100	0.689500
C791	C79	0.858400	0.514600	0.780000
H351	H35	0.896500	0.505900	0.834200
C801	C80	0.815600	0.468900	0.790200
H361	H36	0.825100	0.429500	0.850600
C811	C81	0.761100	0.320000	0.693800
C821	C82	0.783300	0.338900	0.583700
H371	H37	0.764900	0.373600	0.516800
C831	C83	0.832300	0.306900	0.573000
H381	H38	0.846700	0.320300	0.499300
C841	C84	0.860400	0.254400	0.672200
C851	C85	0.835700	0.232100	0.775400
H391	H39	0.852200	0.195000	0.837700
C861	C86	0.787000	0.264800	0.785800
H401	H40	0.771300	0.249600	0.855900
C871	C87	0.889700	0.619800	0.666000
C881	C88	0.915700	0.224800	0.668200
Co51	Co5	0.997640	0.794960	0.493130
O371	O37	0.052500	0.978660	0.222400
O381	O38	0.069080	0.031830	0.437000
O391	O39	0.067530	0.176440	0.428500
O401	O40	0.051320	0.230660	0.214300
O411	O41	0.375900	0.840100	0.056600
O421	O42	0.439750	0.883700	0.256200
O431	O43	0.435240	0.255800	0.070300
O441	O44	0.442260	0.319770	0.269300
O451	O45	0.025400	0.896390	0.479700
C891	C89	0.123000	0.068300	0.285000
C901	C90	0.165900	0.031400	0.252000
H411	H41	0.163800	0.982300	0.247100
C911	C91	0.212000	0.064600	0.225800
C921	C92	0.212700	0.139800	0.221000
C931	C93	0.167300	0.176500	0.246100
H421	H42	0.166100	0.225500	0.237100
C941	C94	0.123900	0.142500	0.284200
C951	C95	0.077400	0.185400	0.312900
C961	C96	0.077800	0.024900	0.319500
C971	C97	0.259200	0.017800	0.210900
C981	C98	0.245300	0.958500	0.127100
H431	H43	0.206900	0.948000	0.078700
C991	C99	0.287400	0.914000	0.113200
H441	H44	0.277500	0.874900	0.052000
C1001	C100	0.344600	0.926900	0.189500
C1011	C101	0.358400	0.985400	0.280000
H451	H45	0.396500	0.994100	0.334200
C1021	C102	0.315600	0.031100	0.290200
H461	H46	0.325100	0.070500	0.350600
C1031	C103	0.261100	0.180000	0.193800
C1041	C104	0.283300	0.161100	0.083700
H471	H47	0.264900	0.126400	0.016800
C1051	C105	0.332300	0.193100	0.073000
H481	H48	0.346700	0.179700	0.999300
C1061	C106	0.360400	0.245600	0.172200
C1071	C107	0.335700	0.267900	0.275400
H491	H49	0.352200	0.305000	0.337700
C1081	C108	0.287000	0.235200	0.285800
H501	H50	0.271300	0.250400	0.355900
C1091	C109	0.389700	0.880200	0.166000
C1101	C110	0.415700	0.275200	0.168200
Co61	Co6	0.497640	0.294960	0.493130
O461	O46	0.552500	0.478660	0.222400
O471	O47	0.569080	0.531830	0.437000
O481	O48	0.567530	0.676440	0.428500
O491	O49	0.551320	0.730660	0.214300
O501	O50	0.875900	0.340100	0.056600
O511	O51	0.939750	0.383700	0.256200
O521	O52	0.935240	0.755800	0.070300
O531	O53	0.942260	0.819770	0.269300
O541	O54	0.525400	0.396390	0.479700
C1111	C111	0.623000	0.568300	0.285000
C1121	C112	0.665900	0.531400	0.252000
H511	H51	0.663800	0.482300	0.247100
C1131	C113	0.712000	0.564600	0.225800
C1141	C114	0.712700	0.639800	0.221000
C1151	C115	0.667300	0.676500	0.246100
H521	H52	0.666100	0.725500	0.237100
C1161	C116	0.623900	0.642500	0.284200
C1171	C117	0.577400	0.685400	0.312900
C1181	C118	0.577800	0.524900	0.319500
C1191	C119	0.759200	0.517800	0.210900
C1201	C120	0.745300	0.458500	0.127100
H531	H53	0.706900	0.448000	0.078700
C1211	C121	0.787400	0.414000	0.113200
H541	H54	0.777500	0.374900	0.052000
C1221	C122	0.844600	0.426900	0.189500
C1231	C123	0.858400	0.485400	0.280000
H551	H55	0.896500	0.494100	0.334200
C1241	C124	0.815600	0.531100	0.290200
H561	H56	0.825100	0.570500	0.350600
C1251	C125	0.761100	0.680000	0.193800
C1261	C126	0.783300	0.661100	0.083700
H571	H57	0.764900	0.626400	0.016800
C1271	C127	0.832300	0.693100	0.073000
H581	H58	0.846700	0.679700	0.999300
C1281	C128	0.860400	0.745600	0.172200
C1291	C129	0.835700	0.767900	0.275400
H591	H59	0.852200	0.805000	0.337700
C1301	C130	0.787000	0.735200	0.285800
H601	H60	0.771300	0.750400	0.355900
C1311	C131	0.889700	0.380200	0.166000
C1321	C132	0.915700	0.775200	0.168200
Co71	Co7	0.002360	0.794960	0.006870
O551	O55	0.947500	0.978660	0.277600
O561	O56	0.930920	0.031830	0.063000
O571	O57	0.932470	0.176440	0.071500
O581	O58	0.948680	0.230660	0.285700
O591	O59	0.624100	0.840100	0.443400
O601	O60	0.560250	0.883700	0.243800
O611	O61	0.564760	0.255800	0.429700
O621	O62	0.557740	0.319770	0.230700
O631	O63	0.974600	0.896390	0.020300
C1331	C133	0.877000	0.068300	0.215000
C1341	C134	0.834100	0.031400	0.248000
H611	H61	0.836200	0.982300	0.252900
C1351	C135	0.788000	0.064600	0.274200
C1361	C136	0.787300	0.139800	0.279000
C1371	C137	0.832700	0.176500	0.253900
H621	H62	0.833900	0.225500	0.262900
C1381	C138	0.876100	0.142500	0.215800
C1391	C139	0.922600	0.185400	0.187100
C1401	C140	0.922200	0.024900	0.180500
C1411	C141	0.740800	0.017800	0.289100
C1421	C142	0.754700	0.958500	0.372900
H631	H63	0.793100	0.948000	0.421300
C1431	C143	0.712600	0.914000	0.386800
H641	H64	0.722500	0.874900	0.448000
C1441	C144	0.655400	0.926900	0.310500
C1451	C145	0.641600	0.985400	0.220000
H651	H65	0.603500	0.994100	0.165800
C1461	C146	0.684400	0.031100	0.209800
H661	H66	0.674900	0.070500	0.149400
C1471	C147	0.738900	0.180000	0.306200
C1481	C148	0.716700	0.161100	0.416300
H671	H67	0.735100	0.126400	0.483200
C1491	C149	0.667700	0.193100	0.427000
H681	H68	0.653300	0.179700	0.500700
C1501	C150	0.639600	0.245600	0.327800
C1511	C151	0.664300	0.267900	0.224600
H691	H69	0.647800	0.305000	0.162300
C1521	C152	0.713000	0.235200	0.214200
H701	H70	0.728700	0.250400	0.144100
C1531	C153	0.610300	0.880200	0.334000
C1541	C154	0.584300	0.275200	0.331800
Co81	Co8	0.502360	0.294960	0.006870
O641	O64	0.447500	0.478660	0.277600
O651	O65	0.430920	0.531830	0.063000
O661	O66	0.432470	0.676440	0.071500
O671	O67	0.448680	0.730660	0.285700
O681	O68	0.124100	0.340100	0.443400
O691	O69	0.060250	0.383700	0.243800
O701	O70	0.064760	0.755800	0.429700
O711	O71	0.057740	0.819770	0.230700
O721	O72	0.474600	0.396390	0.020300
C1551	C155	0.377000	0.568300	0.215000
C1561	C156	0.334100	0.531400	0.248000
H711	H71	0.336200	0.482300	0.252900
C1571	C157	0.288000	0.564600	0.274200
C1581	C158	0.287300	0.639800	0.279000
C1591	C159	0.332700	0.676500	0.253900
H721	H72	0.333900	0.725500	0.262900
C1601	C160	0.376100	0.642500	0.215800
C1611	C161	0.422600	0.685400	0.187100
C1621	C162	0.422200	0.524900	0.180500
C1631	C163	0.240800	0.517800	0.289100
C1641	C164	0.254700	0.458500	0.372900
H731	H73	0.293100	0.448000	0.421300
C1651	C165	0.212600	0.414000	0.386800
H741	H74	0.222500	0.374900	0.448000
C1661	C166	0.155400	0.426900	0.310500
C1671	C167	0.141600	0.485400	0.220000
H751	H75	0.103500	0.494100	0.165800
C1681	C168	0.184400	0.531100	0.209800
H761	H76	0.174900	0.570500	0.149400
C1691	C169	0.238900	0.680000	0.306200
C1701	C170	0.216700	0.661100	0.416300
H771	H77	0.235100	0.626400	0.483200
C1711	C171	0.167700	0.693100	0.427000
H781	H78	0.153300	0.679700	0.500700
C1721	C172	0.139600	0.745600	0.327800
C1731	C173	0.164300	0.767900	0.224600
H791	H79	0.147800	0.805000	0.162300
C1741	C174	0.213000	0.735200	0.214200
H801	H80	0.228700	0.750400	0.144100
C1751	C175	0.110300	0.380200	0.334000
C1761	C176	0.084300	0.775200	0.331800
Co91	Co9	0.000000	0.000000	0.000000
Co101	Co10	0.500000	0.500000	0.000000
Co111	Co11	0.000000	0.000000	0.500000
Co121	Co12	0.500000	0.500000	0.500000
Co131	Co13	0.000000	0.103190	0.750000
Co141	Co14	0.500000	0.603190	0.750000
Co151	Co15	0.000000	0.896810	0.250000
Co161	Co16	0.500000	0.396810	0.250000
Co171	Co17	0.000000	0.312330	0.250000
Co181	Co18	0.500000	0.812330	0.250000
Co191	Co19	0.000000	0.687670	0.750000
Co201	Co20	0.500000	0.187670	0.750000
