data_TAJQEC_clean_PM
_symmetry_space_group_name_H-M	'P1'
_cell_length_a	10.017300
_cell_length_b	19.827800
_cell_length_c	10.047300
_cell_angle_alpha	90.000000
_cell_angle_beta	113.771000
_cell_angle_gamma	90.000000
_symmetry_Int_Tables_number 1

loop_
_symmetry_equiv_pos_as_xyz
'x,y,z'

loop_
_atom_site_label
_atom_site_type_symbol
_atom_site_fract_x
_atom_site_fract_y
_atom_site_fract_z
C11	C1	0.466000	0.061930	0.044200
V11	V1	0.287010	0.259970	0.738710
V21	V2	0.268250	0.108940	0.497080
P11	P1	0.009440	0.364480	0.679020
P21	P2	0.511630	0.134680	0.828320
F11	F1	0.194260	0.193300	0.586410
F21	F2	0.340770	0.313240	0.915880
F31	F3	0.197390	0.055310	0.599760
O11	O1	0.106500	0.314960	0.643700
O21	O2	0.851900	0.340220	0.630200
O31	O3	0.065100	0.379790	0.842200
O41	O4	0.463500	0.117770	0.667000
O51	O5	0.671800	0.157040	0.881000
O61	O6	0.415900	0.186630	0.858600
C21	C2	0.005900	0.441030	0.580200
C31	C3	0.103800	0.450930	0.515000
H11	H1	0.175300	0.417600	0.525100
C41	C4	0.902200	0.490890	0.564500
H21	H2	0.835100	0.485000	0.608600
C51	C5	0.502900	0.059110	0.923800
C61	C6	0.462400	0.003490	0.119500
H31	H3	0.436400	0.006000	0.200500
H41	H4	0.443100	0.104100	0.074700
H51	H5	0.747000	0.162000	0.988000
C71	C7	0.534000	0.561930	0.455800
V31	V3	0.712990	0.759970	0.761290
V41	V4	0.731750	0.608940	0.002920
P31	P3	0.990560	0.864480	0.820980
P41	P4	0.488370	0.634680	0.671680
F41	F4	0.805740	0.693300	0.913590
F51	F5	0.659230	0.813240	0.584120
F61	F6	0.802610	0.555310	0.900240
O71	O7	0.893500	0.814960	0.856300
O81	O8	0.148100	0.840220	0.869800
O91	O9	0.934900	0.879790	0.657800
O101	O10	0.536500	0.617770	0.833000
O111	O11	0.328200	0.657040	0.619000
O121	O12	0.584100	0.686630	0.641400
C81	C8	0.994100	0.941030	0.919800
C91	C9	0.896200	0.950930	0.985000
H61	H6	0.824700	0.917600	0.974900
C101	C10	0.097800	0.990890	0.935500
H71	H7	0.164900	0.985000	0.891400
C111	C11	0.497100	0.559110	0.576200
C121	C12	0.537600	0.503490	0.380500
H81	H8	0.563600	0.506000	0.299500
H91	H9	0.556900	0.604100	0.425300
H101	H10	0.253000	0.662000	0.512000
C131	C13	0.534000	0.938070	0.955800
V51	V5	0.712990	0.740030	0.261290
V61	V6	0.731750	0.891060	0.502920
P51	P5	0.990560	0.635520	0.320980
P61	P6	0.488370	0.865320	0.171680
F71	F7	0.805740	0.806700	0.413590
F81	F8	0.659230	0.686760	0.084120
F91	F9	0.802610	0.944690	0.400240
O131	O13	0.893500	0.685040	0.356300
O141	O14	0.148100	0.659780	0.369800
O151	O15	0.934900	0.620210	0.157800
O161	O16	0.536500	0.882230	0.333000
O171	O17	0.328200	0.842960	0.119000
O181	O18	0.584100	0.813370	0.141400
C141	C14	0.994100	0.558970	0.419800
C151	C15	0.896200	0.549070	0.485000
H111	H11	0.824700	0.582400	0.474900
C161	C16	0.097800	0.509110	0.435500
H121	H12	0.164900	0.515000	0.391400
C171	C17	0.497100	0.940890	0.076200
C181	C18	0.537600	0.996510	0.880500
H131	H13	0.563600	0.994000	0.799500
H141	H14	0.556900	0.895900	0.925300
H151	H15	0.253000	0.838000	0.012000
C191	C19	0.466000	0.438070	0.544200
V71	V7	0.287010	0.240030	0.238710
V81	V8	0.268250	0.391060	0.997080
P71	P7	0.009440	0.135520	0.179020
P81	P8	0.511630	0.365320	0.328320
F101	F10	0.194260	0.306700	0.086410
F111	F11	0.340770	0.186760	0.415880
F121	F12	0.197390	0.444690	0.099760
O191	O19	0.106500	0.185040	0.143700
O201	O20	0.851900	0.159780	0.130200
O211	O21	0.065100	0.120210	0.342200
O221	O22	0.463500	0.382230	0.167000
O231	O23	0.671800	0.342960	0.381000
O241	O24	0.415900	0.313370	0.358600
C201	C20	0.005900	0.058970	0.080200
C211	C21	0.103800	0.049070	0.015000
H161	H16	0.175300	0.082400	0.025100
C221	C22	0.902200	0.009110	0.064500
H171	H17	0.835100	0.015000	0.108600
C231	C23	0.502900	0.440890	0.423800
C241	C24	0.462400	0.496510	0.619500
H181	H18	0.436400	0.494000	0.700500
H191	H19	0.443100	0.395900	0.574700
H201	H20	0.747000	0.338000	0.488000
