data_TAJXIO02_clean_PM
_symmetry_space_group_name_H-M	'P1'
_cell_length_a	7.212700
_cell_length_b	23.765200
_cell_length_c	30.732000
_cell_angle_alpha	90.000000
_cell_angle_beta	90.000000
_cell_angle_gamma	90.000000
_symmetry_Int_Tables_number 1

loop_
_symmetry_equiv_pos_as_xyz
'x,y,z'

loop_
_atom_site_label
_atom_site_type_symbol
_atom_site_fract_x
_atom_site_fract_y
_atom_site_fract_z
Ag11	Ag1	0.195240	0.770010	0.290690
Ag21	Ag2	0.527850	0.442570	0.484160
O11	O1	0.343600	0.695920	0.314020
O21	O2	0.452700	0.667470	0.249540
O31	O3	0.479400	0.587870	0.446350
O41	O4	0.658300	0.511670	0.441760
N11	N1	0.108600	0.812640	0.357540
N21	N2	0.019100	0.874210	0.431520
C11	C1	0.000900	0.858180	0.355630
H11	H1	0.953900	0.869900	0.328600
C21	C2	0.957100	0.888410	0.392550
H21	H2	0.880600	0.920200	0.389900
C31	C3	0.124600	0.828180	0.433380
H31	H3	0.169500	0.816100	0.460500
C41	C4	0.169600	0.797930	0.396750
H41	H4	0.245500	0.766000	0.399500
C51	C5	0.433400	0.663380	0.289970
C61	C6	0.528800	0.614520	0.311830
C71	C7	0.636800	0.577230	0.288050
H51	H5	0.647400	0.581400	0.257700
C81	C8	0.728900	0.533920	0.308880
H61	H6	0.803200	0.509000	0.292700
C91	C9	0.712300	0.527160	0.353010
H71	H7	0.776500	0.497800	0.366900
C101	C10	0.601400	0.563260	0.377510
C111	C11	0.511300	0.607190	0.356540
H81	H8	0.437700	0.632200	0.372700
C121	C12	0.578300	0.553760	0.425350
Ag31	Ag3	0.695240	0.270010	0.790690
Ag41	Ag4	0.027850	0.942570	0.984160
O51	O5	0.843600	0.195920	0.814020
O61	O6	0.952700	0.167470	0.749540
O71	O7	0.979400	0.087870	0.946350
O81	O8	0.158300	0.011670	0.941760
N31	N3	0.608600	0.312640	0.857540
N41	N4	0.519100	0.374210	0.931520
C131	C13	0.500900	0.358180	0.855630
H91	H9	0.453900	0.369900	0.828600
C141	C14	0.457100	0.388410	0.892550
H101	H10	0.380600	0.420200	0.889900
C151	C15	0.624600	0.328180	0.933380
H111	H11	0.669500	0.316100	0.960500
C161	C16	0.669600	0.297930	0.896750
H121	H12	0.745500	0.266000	0.899500
C171	C17	0.933400	0.163380	0.789970
C181	C18	0.028800	0.114520	0.811830
C191	C19	0.136800	0.077230	0.788050
H131	H13	0.147400	0.081400	0.757700
C201	C20	0.228900	0.033920	0.808880
H141	H14	0.303200	0.009000	0.792700
C211	C21	0.212300	0.027160	0.853010
H151	H15	0.276500	0.997800	0.866900
C221	C22	0.101400	0.063260	0.877510
C231	C23	0.011300	0.107190	0.856540
H161	H16	0.937700	0.132200	0.872700
C241	C24	0.078300	0.053760	0.925350
Ag51	Ag5	0.304760	0.229990	0.790690
Ag61	Ag6	0.972150	0.557430	0.984160
O91	O9	0.156400	0.304080	0.814020
O101	O10	0.047300	0.332530	0.749540
O111	O11	0.020600	0.412130	0.946350
O121	O12	0.841700	0.488330	0.941760
N51	N5	0.391400	0.187360	0.857540
N61	N6	0.480900	0.125790	0.931520
C251	C25	0.499100	0.141820	0.855630
H171	H17	0.546100	0.130100	0.828600
C261	C26	0.542900	0.111590	0.892550
H181	H18	0.619400	0.079800	0.889900
C271	C27	0.375400	0.171820	0.933380
H191	H19	0.330500	0.183900	0.960500
C281	C28	0.330400	0.202070	0.896750
H201	H20	0.254500	0.234000	0.899500
C291	C29	0.066600	0.336620	0.789970
C301	C30	0.971200	0.385480	0.811830
C311	C31	0.863200	0.422770	0.788050
H211	H21	0.852600	0.418600	0.757700
C321	C32	0.771100	0.466080	0.808880
H221	H22	0.696800	0.491000	0.792700
C331	C33	0.787700	0.472840	0.853010
H231	H23	0.723500	0.502200	0.866900
C341	C34	0.898600	0.436740	0.877510
C351	C35	0.988700	0.392810	0.856540
H241	H24	0.062300	0.367800	0.872700
C361	C36	0.921700	0.446240	0.925350
Ag71	Ag7	0.804760	0.729990	0.290690
Ag81	Ag8	0.472150	0.057430	0.484160
O131	O13	0.656400	0.804080	0.314020
O141	O14	0.547300	0.832530	0.249540
O151	O15	0.520600	0.912130	0.446350
O161	O16	0.341700	0.988330	0.441760
N71	N7	0.891400	0.687360	0.357540
N81	N8	0.980900	0.625790	0.431520
C371	C37	0.999100	0.641820	0.355630
H251	H25	0.046100	0.630100	0.328600
C381	C38	0.042900	0.611590	0.392550
H261	H26	0.119400	0.579800	0.389900
C391	C39	0.875400	0.671820	0.433380
H271	H27	0.830500	0.683900	0.460500
C401	C40	0.830400	0.702070	0.396750
H281	H28	0.754500	0.734000	0.399500
C411	C41	0.566600	0.836620	0.289970
C421	C42	0.471200	0.885480	0.311830
C431	C43	0.363200	0.922770	0.288050
H291	H29	0.352600	0.918600	0.257700
C441	C44	0.271100	0.966080	0.308880
H301	H30	0.196800	0.991000	0.292700
C451	C45	0.287700	0.972840	0.353010
H311	H31	0.223500	0.002200	0.366900
C461	C46	0.398600	0.936740	0.377510
C471	C47	0.488700	0.892810	0.356540
H321	H32	0.562300	0.867800	0.372700
C481	C48	0.421700	0.946240	0.425350
Ag91	Ag9	0.804760	0.270010	0.209310
Ag101	Ag10	0.472150	0.942570	0.015840
O171	O17	0.656400	0.195920	0.185980
O181	O18	0.547300	0.167470	0.250460
O191	O19	0.520600	0.087870	0.053650
O201	O20	0.341700	0.011670	0.058240
N91	N9	0.891400	0.312640	0.142460
N101	N10	0.980900	0.374210	0.068480
C491	C49	0.999100	0.358180	0.144370
H331	H33	0.046100	0.369900	0.171400
C501	C50	0.042900	0.388410	0.107450
H341	H34	0.119400	0.420200	0.110100
C511	C51	0.875400	0.328180	0.066620
H351	H35	0.830500	0.316100	0.039500
C521	C52	0.830400	0.297930	0.103250
H361	H36	0.754500	0.266000	0.100500
C531	C53	0.566600	0.163380	0.210030
C541	C54	0.471200	0.114520	0.188170
C551	C55	0.363200	0.077230	0.211950
H371	H37	0.352600	0.081400	0.242300
C561	C56	0.271100	0.033920	0.191120
H381	H38	0.196800	0.009000	0.207300
C571	C57	0.287700	0.027160	0.146990
H391	H39	0.223500	0.997800	0.133100
C581	C58	0.398600	0.063260	0.122490
C591	C59	0.488700	0.107190	0.143460
H401	H40	0.562300	0.132200	0.127300
C601	C60	0.421700	0.053760	0.074650
Ag111	Ag11	0.304760	0.770010	0.709310
Ag121	Ag12	0.972150	0.442570	0.515840
O211	O21	0.156400	0.695920	0.685980
O221	O22	0.047300	0.667470	0.750460
O231	O23	0.020600	0.587870	0.553650
O241	O24	0.841700	0.511670	0.558240
N111	N11	0.391400	0.812640	0.642460
N121	N12	0.480900	0.874210	0.568480
C611	C61	0.499100	0.858180	0.644370
H411	H41	0.546100	0.869900	0.671400
C621	C62	0.542900	0.888410	0.607450
H421	H42	0.619400	0.920200	0.610100
C631	C63	0.375400	0.828180	0.566620
H431	H43	0.330500	0.816100	0.539500
C641	C64	0.330400	0.797930	0.603250
H441	H44	0.254500	0.766000	0.600500
C651	C65	0.066600	0.663380	0.710030
C661	C66	0.971200	0.614520	0.688170
C671	C67	0.863200	0.577230	0.711950
H451	H45	0.852600	0.581400	0.742300
C681	C68	0.771100	0.533920	0.691120
H461	H46	0.696800	0.509000	0.707300
C691	C69	0.787700	0.527160	0.646990
H471	H47	0.723500	0.497800	0.633100
C701	C70	0.898600	0.563260	0.622490
C711	C71	0.988700	0.607190	0.643460
H481	H48	0.062300	0.632200	0.627300
C721	C72	0.921700	0.553760	0.574650
Ag131	Ag13	0.695240	0.729990	0.709310
Ag141	Ag14	0.027850	0.057430	0.515840
O251	O25	0.843600	0.804080	0.685980
O261	O26	0.952700	0.832530	0.750460
O271	O27	0.979400	0.912130	0.553650
O281	O28	0.158300	0.988330	0.558240
N131	N13	0.608600	0.687360	0.642460
N141	N14	0.519100	0.625790	0.568480
C731	C73	0.500900	0.641820	0.644370
H491	H49	0.453900	0.630100	0.671400
C741	C74	0.457100	0.611590	0.607450
H501	H50	0.380600	0.579800	0.610100
C751	C75	0.624600	0.671820	0.566620
H511	H51	0.669500	0.683900	0.539500
C761	C76	0.669600	0.702070	0.603250
H521	H52	0.745500	0.734000	0.600500
C771	C77	0.933400	0.836620	0.710030
C781	C78	0.028800	0.885480	0.688170
C791	C79	0.136800	0.922770	0.711950
H531	H53	0.147400	0.918600	0.742300
C801	C80	0.228900	0.966080	0.691120
H541	H54	0.303200	0.991000	0.707300
C811	C81	0.212300	0.972840	0.646990
H551	H55	0.276500	0.002200	0.633100
C821	C82	0.101400	0.936740	0.622490
C831	C83	0.011300	0.892810	0.643460
H561	H56	0.937700	0.867800	0.627300
C841	C84	0.078300	0.946240	0.574650
Ag151	Ag15	0.195240	0.229990	0.209310
Ag161	Ag16	0.527850	0.557430	0.015840
O291	O29	0.343600	0.304080	0.185980
O301	O30	0.452700	0.332530	0.250460
O311	O31	0.479400	0.412130	0.053650
O321	O32	0.658300	0.488330	0.058240
N151	N15	0.108600	0.187360	0.142460
N161	N16	0.019100	0.125790	0.068480
C851	C85	0.000900	0.141820	0.144370
H571	H57	0.953900	0.130100	0.171400
C861	C86	0.957100	0.111590	0.107450
H581	H58	0.880600	0.079800	0.110100
C871	C87	0.124600	0.171820	0.066620
H591	H59	0.169500	0.183900	0.039500
C881	C88	0.169600	0.202070	0.103250
H601	H60	0.245500	0.234000	0.100500
C891	C89	0.433400	0.336620	0.210030
C901	C90	0.528800	0.385480	0.188170
C911	C91	0.636800	0.422770	0.211950
H611	H61	0.647400	0.418600	0.242300
C921	C92	0.728900	0.466080	0.191120
H621	H62	0.803200	0.491000	0.207300
C931	C93	0.712300	0.472840	0.146990
H631	H63	0.776500	0.502200	0.133100
C941	C94	0.601400	0.436740	0.122490
C951	C95	0.511300	0.392810	0.143460
H641	H64	0.437700	0.367800	0.127300
C961	C96	0.578300	0.446240	0.074650
Ag171	Ag17	0.804760	0.229990	0.709310
Ag181	Ag18	0.472150	0.557430	0.515840
O331	O33	0.656400	0.304080	0.685980
O341	O34	0.547300	0.332530	0.750460
O351	O35	0.520600	0.412130	0.553650
O361	O36	0.341700	0.488330	0.558240
N171	N17	0.891400	0.187360	0.642460
N181	N18	0.980900	0.125790	0.568480
C971	C97	0.999100	0.141820	0.644370
H651	H65	0.046100	0.130100	0.671400
C981	C98	0.042900	0.111590	0.607450
H661	H66	0.119400	0.079800	0.610100
C991	C99	0.875400	0.171820	0.566620
H671	H67	0.830500	0.183900	0.539500
C1001	C100	0.830400	0.202070	0.603250
H681	H68	0.754500	0.234000	0.600500
C1011	C101	0.566600	0.336620	0.710030
C1021	C102	0.471200	0.385480	0.688170
C1031	C103	0.363200	0.422770	0.711950
H691	H69	0.352600	0.418600	0.742300
C1041	C104	0.271100	0.466080	0.691120
H701	H70	0.196800	0.491000	0.707300
C1051	C105	0.287700	0.472840	0.646990
H711	H71	0.223500	0.502200	0.633100
C1061	C106	0.398600	0.436740	0.622490
C1071	C107	0.488700	0.392810	0.643460
H721	H72	0.562300	0.367800	0.627300
C1081	C108	0.421700	0.446240	0.574650
Ag191	Ag19	0.304760	0.729990	0.209310
Ag201	Ag20	0.972150	0.057430	0.015840
O371	O37	0.156400	0.804080	0.185980
O381	O38	0.047300	0.832530	0.250460
O391	O39	0.020600	0.912130	0.053650
O401	O40	0.841700	0.988330	0.058240
N191	N19	0.391400	0.687360	0.142460
N201	N20	0.480900	0.625790	0.068480
C1091	C109	0.499100	0.641820	0.144370
H731	H73	0.546100	0.630100	0.171400
C1101	C110	0.542900	0.611590	0.107450
H741	H74	0.619400	0.579800	0.110100
C1111	C111	0.375400	0.671820	0.066620
H751	H75	0.330500	0.683900	0.039500
C1121	C112	0.330400	0.702070	0.103250
H761	H76	0.254500	0.734000	0.100500
C1131	C113	0.066600	0.836620	0.210030
C1141	C114	0.971200	0.885480	0.188170
C1151	C115	0.863200	0.922770	0.211950
H771	H77	0.852600	0.918600	0.242300
C1161	C116	0.771100	0.966080	0.191120
H781	H78	0.696800	0.991000	0.207300
C1171	C117	0.787700	0.972840	0.146990
H791	H79	0.723500	0.002200	0.133100
C1181	C118	0.898600	0.936740	0.122490
C1191	C119	0.988700	0.892810	0.143460
H801	H80	0.062300	0.867800	0.127300
C1201	C120	0.921700	0.946240	0.074650
Ag211	Ag21	0.695240	0.770010	0.209310
Ag221	Ag22	0.027850	0.442570	0.015840
O411	O41	0.843600	0.695920	0.185980
O421	O42	0.952700	0.667470	0.250460
O431	O43	0.979400	0.587870	0.053650
O441	O44	0.158300	0.511670	0.058240
N211	N21	0.608600	0.812640	0.142460
N221	N22	0.519100	0.874210	0.068480
C1211	C121	0.500900	0.858180	0.144370
H811	H81	0.453900	0.869900	0.171400
C1221	C122	0.457100	0.888410	0.107450
H821	H82	0.380600	0.920200	0.110100
C1231	C123	0.624600	0.828180	0.066620
H831	H83	0.669500	0.816100	0.039500
C1241	C124	0.669600	0.797930	0.103250
H841	H84	0.745500	0.766000	0.100500
C1251	C125	0.933400	0.663380	0.210030
C1261	C126	0.028800	0.614520	0.188170
C1271	C127	0.136800	0.577230	0.211950
H851	H85	0.147400	0.581400	0.242300
C1281	C128	0.228900	0.533920	0.191120
H861	H86	0.303200	0.509000	0.207300
C1291	C129	0.212300	0.527160	0.146990
H871	H87	0.276500	0.497800	0.133100
C1301	C130	0.101400	0.563260	0.122490
C1311	C131	0.011300	0.607190	0.143460
H881	H88	0.937700	0.632200	0.127300
C1321	C132	0.078300	0.553760	0.074650
Ag231	Ag23	0.195240	0.270010	0.709310
Ag241	Ag24	0.527850	0.942570	0.515840
O451	O45	0.343600	0.195920	0.685980
O461	O46	0.452700	0.167470	0.750460
O471	O47	0.479400	0.087870	0.553650
O481	O48	0.658300	0.011670	0.558240
N231	N23	0.108600	0.312640	0.642460
N241	N24	0.019100	0.374210	0.568480
C1331	C133	0.000900	0.358180	0.644370
H891	H89	0.953900	0.369900	0.671400
C1341	C134	0.957100	0.388410	0.607450
H901	H90	0.880600	0.420200	0.610100
C1351	C135	0.124600	0.328180	0.566620
H911	H91	0.169500	0.316100	0.539500
C1361	C136	0.169600	0.297930	0.603250
H921	H92	0.245500	0.266000	0.600500
C1371	C137	0.433400	0.163380	0.710030
C1381	C138	0.528800	0.114520	0.688170
C1391	C139	0.636800	0.077230	0.711950
H931	H93	0.647400	0.081400	0.742300
C1401	C140	0.728900	0.033920	0.691120
H941	H94	0.803200	0.009000	0.707300
C1411	C141	0.712300	0.027160	0.646990
H951	H95	0.776500	0.997800	0.633100
C1421	C142	0.601400	0.063260	0.622490
C1431	C143	0.511300	0.107190	0.643460
H961	H96	0.437700	0.132200	0.627300
C1441	C144	0.578300	0.053760	0.574650
Ag251	Ag25	0.195240	0.729990	0.790690
Ag261	Ag26	0.527850	0.057430	0.984160
O491	O49	0.343600	0.804080	0.814020
O501	O50	0.452700	0.832530	0.749540
O511	O51	0.479400	0.912130	0.946350
O521	O52	0.658300	0.988330	0.941760
N251	N25	0.108600	0.687360	0.857540
N261	N26	0.019100	0.625790	0.931520
C1451	C145	0.000900	0.641820	0.855630
H971	H97	0.953900	0.630100	0.828600
C1461	C146	0.957100	0.611590	0.892550
H981	H98	0.880600	0.579800	0.889900
C1471	C147	0.124600	0.671820	0.933380
H991	H99	0.169500	0.683900	0.960500
C1481	C148	0.169600	0.702070	0.896750
H1001	H100	0.245500	0.734000	0.899500
C1491	C149	0.433400	0.836620	0.789970
C1501	C150	0.528800	0.885480	0.811830
C1511	C151	0.636800	0.922770	0.788050
H1011	H101	0.647400	0.918600	0.757700
C1521	C152	0.728900	0.966080	0.808880
H1021	H102	0.803200	0.991000	0.792700
C1531	C153	0.712300	0.972840	0.853010
H1031	H103	0.776500	0.002200	0.866900
C1541	C154	0.601400	0.936740	0.877510
C1551	C155	0.511300	0.892810	0.856540
H1041	H104	0.437700	0.867800	0.872700
C1561	C156	0.578300	0.946240	0.925350
Ag271	Ag27	0.695240	0.229990	0.290690
Ag281	Ag28	0.027850	0.557430	0.484160
O531	O53	0.843600	0.304080	0.314020
O541	O54	0.952700	0.332530	0.249540
O551	O55	0.979400	0.412130	0.446350
O561	O56	0.158300	0.488330	0.441760
N271	N27	0.608600	0.187360	0.357540
N281	N28	0.519100	0.125790	0.431520
C1571	C157	0.500900	0.141820	0.355630
H1051	H105	0.453900	0.130100	0.328600
C1581	C158	0.457100	0.111590	0.392550
H1061	H106	0.380600	0.079800	0.389900
C1591	C159	0.624600	0.171820	0.433380
H1071	H107	0.669500	0.183900	0.460500
C1601	C160	0.669600	0.202070	0.396750
H1081	H108	0.745500	0.234000	0.399500
C1611	C161	0.933400	0.336620	0.289970
C1621	C162	0.028800	0.385480	0.311830
C1631	C163	0.136800	0.422770	0.288050
H1091	H109	0.147400	0.418600	0.257700
C1641	C164	0.228900	0.466080	0.308880
H1101	H110	0.303200	0.491000	0.292700
C1651	C165	0.212300	0.472840	0.353010
H1111	H111	0.276500	0.502200	0.366900
C1661	C166	0.101400	0.436740	0.377510
C1671	C167	0.011300	0.392810	0.356540
H1121	H112	0.937700	0.367800	0.372700
C1681	C168	0.078300	0.446240	0.425350
Ag291	Ag29	0.304760	0.270010	0.290690
Ag301	Ag30	0.972150	0.942570	0.484160
O571	O57	0.156400	0.195920	0.314020
O581	O58	0.047300	0.167470	0.249540
O591	O59	0.020600	0.087870	0.446350
O601	O60	0.841700	0.011670	0.441760
N291	N29	0.391400	0.312640	0.357540
N301	N30	0.480900	0.374210	0.431520
C1691	C169	0.499100	0.358180	0.355630
H1131	H113	0.546100	0.369900	0.328600
C1701	C170	0.542900	0.388410	0.392550
H1141	H114	0.619400	0.420200	0.389900
C1711	C171	0.375400	0.328180	0.433380
H1151	H115	0.330500	0.316100	0.460500
C1721	C172	0.330400	0.297930	0.396750
H1161	H116	0.254500	0.266000	0.399500
C1731	C173	0.066600	0.163380	0.289970
C1741	C174	0.971200	0.114520	0.311830
C1751	C175	0.863200	0.077230	0.288050
H1171	H117	0.852600	0.081400	0.257700
C1761	C176	0.771100	0.033920	0.308880
H1181	H118	0.696800	0.009000	0.292700
C1771	C177	0.787700	0.027160	0.353010
H1191	H119	0.723500	0.997800	0.366900
C1781	C178	0.898600	0.063260	0.377510
C1791	C179	0.988700	0.107190	0.356540
H1201	H120	0.062300	0.132200	0.372700
C1801	C180	0.921700	0.053760	0.425350
Ag311	Ag31	0.804760	0.770010	0.790690
Ag321	Ag32	0.472150	0.442570	0.984160
O611	O61	0.656400	0.695920	0.814020
O621	O62	0.547300	0.667470	0.749540
O631	O63	0.520600	0.587870	0.946350
O641	O64	0.341700	0.511670	0.941760
N311	N31	0.891400	0.812640	0.857540
N321	N32	0.980900	0.874210	0.931520
C1811	C181	0.999100	0.858180	0.855630
H1211	H121	0.046100	0.869900	0.828600
C1821	C182	0.042900	0.888410	0.892550
H1221	H122	0.119400	0.920200	0.889900
C1831	C183	0.875400	0.828180	0.933380
H1231	H123	0.830500	0.816100	0.960500
C1841	C184	0.830400	0.797930	0.896750
H1241	H124	0.754500	0.766000	0.899500
C1851	C185	0.566600	0.663380	0.789970
C1861	C186	0.471200	0.614520	0.811830
C1871	C187	0.363200	0.577230	0.788050
H1251	H125	0.352600	0.581400	0.757700
C1881	C188	0.271100	0.533920	0.808880
H1261	H126	0.196800	0.509000	0.792700
C1891	C189	0.287700	0.527160	0.853010
H1271	H127	0.223500	0.497800	0.866900
C1901	C190	0.398600	0.563260	0.877510
C1911	C191	0.488700	0.607190	0.856540
H1281	H128	0.562300	0.632200	0.872700
C1921	C192	0.421700	0.553760	0.925350
