data_TAJXIO_clean_PM
_symmetry_space_group_name_H-M	'P1'
_cell_length_a	7.235000
_cell_length_b	23.711000
_cell_length_c	30.530000
_cell_angle_alpha	90.000000
_cell_angle_beta	90.000000
_cell_angle_gamma	90.000000
_symmetry_Int_Tables_number 1

loop_
_symmetry_equiv_pos_as_xyz
'x,y,z'

loop_
_atom_site_label
_atom_site_type_symbol
_atom_site_fract_x
_atom_site_fract_y
_atom_site_fract_z
Ag11	Ag1	0.195170	0.770060	0.290600
Ag21	Ag2	0.523600	0.442160	0.483930
O11	O1	0.340900	0.695810	0.313930
O21	O2	0.450800	0.667910	0.249890
O31	O3	0.474600	0.587780	0.446310
O41	O4	0.651700	0.512310	0.441930
N11	N1	0.110000	0.812850	0.357610
N21	N2	0.022700	0.874100	0.431300
C11	C1	0.003300	0.858240	0.355750
H11	H1	0.956200	0.870000	0.328600
C21	C2	0.960700	0.888200	0.392500
H21	H2	0.884000	0.920000	0.389900
C31	C3	0.128100	0.828400	0.432940
H31	H3	0.174400	0.816600	0.460200
C41	C4	0.171400	0.798100	0.396760
H41	H4	0.246400	0.765900	0.399500
C51	C5	0.431200	0.663700	0.290350
C61	C6	0.524500	0.614730	0.312070
C71	C7	0.631700	0.577800	0.288450
H51	H5	0.643100	0.582200	0.258000
C81	C8	0.722700	0.534200	0.309170
H61	H6	0.796400	0.509200	0.292900
C91	C9	0.705700	0.527500	0.353120
H71	H7	0.769100	0.497900	0.367100
C101	C10	0.596700	0.563310	0.377640
C111	C11	0.507100	0.607190	0.356590
H81	H8	0.433500	0.632200	0.372900
C121	C12	0.572900	0.554000	0.425500
Ag31	Ag3	0.695170	0.270060	0.790600
Ag41	Ag4	0.023600	0.942160	0.983930
O51	O5	0.840900	0.195810	0.813930
O61	O6	0.950800	0.167910	0.749890
O71	O7	0.974600	0.087780	0.946310
O81	O8	0.151700	0.012310	0.941930
N31	N3	0.610000	0.312850	0.857610
N41	N4	0.522700	0.374100	0.931300
C131	C13	0.503300	0.358240	0.855750
H91	H9	0.456200	0.370000	0.828600
C141	C14	0.460700	0.388200	0.892500
H101	H10	0.384000	0.420000	0.889900
C151	C15	0.628100	0.328400	0.932940
H111	H11	0.674400	0.316600	0.960200
C161	C16	0.671400	0.298100	0.896760
H121	H12	0.746400	0.265900	0.899500
C171	C17	0.931200	0.163700	0.790350
C181	C18	0.024500	0.114730	0.812070
C191	C19	0.131700	0.077800	0.788450
H131	H13	0.143100	0.082200	0.758000
C201	C20	0.222700	0.034200	0.809170
H141	H14	0.296400	0.009200	0.792900
C211	C21	0.205700	0.027500	0.853120
H151	H15	0.269100	0.997900	0.867100
C221	C22	0.096700	0.063310	0.877640
C231	C23	0.007100	0.107190	0.856590
H161	H16	0.933500	0.132200	0.872900
C241	C24	0.072900	0.054000	0.925500
Ag51	Ag5	0.304830	0.229940	0.790600
Ag61	Ag6	0.976400	0.557840	0.983930
O91	O9	0.159100	0.304190	0.813930
O101	O10	0.049200	0.332090	0.749890
O111	O11	0.025400	0.412220	0.946310
O121	O12	0.848300	0.487690	0.941930
N51	N5	0.390000	0.187150	0.857610
N61	N6	0.477300	0.125900	0.931300
C251	C25	0.496700	0.141760	0.855750
H171	H17	0.543800	0.130000	0.828600
C261	C26	0.539300	0.111800	0.892500
H181	H18	0.616000	0.080000	0.889900
C271	C27	0.371900	0.171600	0.932940
H191	H19	0.325600	0.183400	0.960200
C281	C28	0.328600	0.201900	0.896760
H201	H20	0.253600	0.234100	0.899500
C291	C29	0.068800	0.336300	0.790350
C301	C30	0.975500	0.385270	0.812070
C311	C31	0.868300	0.422200	0.788450
H211	H21	0.856900	0.417800	0.758000
C321	C32	0.777300	0.465800	0.809170
H221	H22	0.703600	0.490800	0.792900
C331	C33	0.794300	0.472500	0.853120
H231	H23	0.730900	0.502100	0.867100
C341	C34	0.903300	0.436690	0.877640
C351	C35	0.992900	0.392810	0.856590
H241	H24	0.066500	0.367800	0.872900
C361	C36	0.927100	0.446000	0.925500
Ag71	Ag7	0.804830	0.729940	0.290600
Ag81	Ag8	0.476400	0.057840	0.483930
O131	O13	0.659100	0.804190	0.313930
O141	O14	0.549200	0.832090	0.249890
O151	O15	0.525400	0.912220	0.446310
O161	O16	0.348300	0.987690	0.441930
N71	N7	0.890000	0.687150	0.357610
N81	N8	0.977300	0.625900	0.431300
C371	C37	0.996700	0.641760	0.355750
H251	H25	0.043800	0.630000	0.328600
C381	C38	0.039300	0.611800	0.392500
H261	H26	0.116000	0.580000	0.389900
C391	C39	0.871900	0.671600	0.432940
H271	H27	0.825600	0.683400	0.460200
C401	C40	0.828600	0.701900	0.396760
H281	H28	0.753600	0.734100	0.399500
C411	C41	0.568800	0.836300	0.290350
C421	C42	0.475500	0.885270	0.312070
C431	C43	0.368300	0.922200	0.288450
H291	H29	0.356900	0.917800	0.258000
C441	C44	0.277300	0.965800	0.309170
H301	H30	0.203600	0.990800	0.292900
C451	C45	0.294300	0.972500	0.353120
H311	H31	0.230900	0.002100	0.367100
C461	C46	0.403300	0.936690	0.377640
C471	C47	0.492900	0.892810	0.356590
H321	H32	0.566500	0.867800	0.372900
C481	C48	0.427100	0.946000	0.425500
Ag91	Ag9	0.804830	0.270060	0.209400
Ag101	Ag10	0.476400	0.942160	0.016070
O171	O17	0.659100	0.195810	0.186070
O181	O18	0.549200	0.167910	0.250110
O191	O19	0.525400	0.087780	0.053690
O201	O20	0.348300	0.012310	0.058070
N91	N9	0.890000	0.312850	0.142390
N101	N10	0.977300	0.374100	0.068700
C491	C49	0.996700	0.358240	0.144250
H331	H33	0.043800	0.370000	0.171400
C501	C50	0.039300	0.388200	0.107500
H341	H34	0.116000	0.420000	0.110100
C511	C51	0.871900	0.328400	0.067060
H351	H35	0.825600	0.316600	0.039800
C521	C52	0.828600	0.298100	0.103240
H361	H36	0.753600	0.265900	0.100500
C531	C53	0.568800	0.163700	0.209650
C541	C54	0.475500	0.114730	0.187930
C551	C55	0.368300	0.077800	0.211550
H371	H37	0.356900	0.082200	0.242000
C561	C56	0.277300	0.034200	0.190830
H381	H38	0.203600	0.009200	0.207100
C571	C57	0.294300	0.027500	0.146880
H391	H39	0.230900	0.997900	0.132900
C581	C58	0.403300	0.063310	0.122360
C591	C59	0.492900	0.107190	0.143410
H401	H40	0.566500	0.132200	0.127100
C601	C60	0.427100	0.054000	0.074500
Ag111	Ag11	0.304830	0.770060	0.709400
Ag121	Ag12	0.976400	0.442160	0.516070
O211	O21	0.159100	0.695810	0.686070
O221	O22	0.049200	0.667910	0.750110
O231	O23	0.025400	0.587780	0.553690
O241	O24	0.848300	0.512310	0.558070
N111	N11	0.390000	0.812850	0.642390
N121	N12	0.477300	0.874100	0.568700
C611	C61	0.496700	0.858240	0.644250
H411	H41	0.543800	0.870000	0.671400
C621	C62	0.539300	0.888200	0.607500
H421	H42	0.616000	0.920000	0.610100
C631	C63	0.371900	0.828400	0.567060
H431	H43	0.325600	0.816600	0.539800
C641	C64	0.328600	0.798100	0.603240
H441	H44	0.253600	0.765900	0.600500
C651	C65	0.068800	0.663700	0.709650
C661	C66	0.975500	0.614730	0.687930
C671	C67	0.868300	0.577800	0.711550
H451	H45	0.856900	0.582200	0.742000
C681	C68	0.777300	0.534200	0.690830
H461	H46	0.703600	0.509200	0.707100
C691	C69	0.794300	0.527500	0.646880
H471	H47	0.730900	0.497900	0.632900
C701	C70	0.903300	0.563310	0.622360
C711	C71	0.992900	0.607190	0.643410
H481	H48	0.066500	0.632200	0.627100
C721	C72	0.927100	0.554000	0.574500
Ag131	Ag13	0.695170	0.729940	0.709400
Ag141	Ag14	0.023600	0.057840	0.516070
O251	O25	0.840900	0.804190	0.686070
O261	O26	0.950800	0.832090	0.750110
O271	O27	0.974600	0.912220	0.553690
O281	O28	0.151700	0.987690	0.558070
N131	N13	0.610000	0.687150	0.642390
N141	N14	0.522700	0.625900	0.568700
C731	C73	0.503300	0.641760	0.644250
H491	H49	0.456200	0.630000	0.671400
C741	C74	0.460700	0.611800	0.607500
H501	H50	0.384000	0.580000	0.610100
C751	C75	0.628100	0.671600	0.567060
H511	H51	0.674400	0.683400	0.539800
C761	C76	0.671400	0.701900	0.603240
H521	H52	0.746400	0.734100	0.600500
C771	C77	0.931200	0.836300	0.709650
C781	C78	0.024500	0.885270	0.687930
C791	C79	0.131700	0.922200	0.711550
H531	H53	0.143100	0.917800	0.742000
C801	C80	0.222700	0.965800	0.690830
H541	H54	0.296400	0.990800	0.707100
C811	C81	0.205700	0.972500	0.646880
H551	H55	0.269100	0.002100	0.632900
C821	C82	0.096700	0.936690	0.622360
C831	C83	0.007100	0.892810	0.643410
H561	H56	0.933500	0.867800	0.627100
C841	C84	0.072900	0.946000	0.574500
Ag151	Ag15	0.195170	0.229940	0.209400
Ag161	Ag16	0.523600	0.557840	0.016070
O291	O29	0.340900	0.304190	0.186070
O301	O30	0.450800	0.332090	0.250110
O311	O31	0.474600	0.412220	0.053690
O321	O32	0.651700	0.487690	0.058070
N151	N15	0.110000	0.187150	0.142390
N161	N16	0.022700	0.125900	0.068700
C851	C85	0.003300	0.141760	0.144250
H571	H57	0.956200	0.130000	0.171400
C861	C86	0.960700	0.111800	0.107500
H581	H58	0.884000	0.080000	0.110100
C871	C87	0.128100	0.171600	0.067060
H591	H59	0.174400	0.183400	0.039800
C881	C88	0.171400	0.201900	0.103240
H601	H60	0.246400	0.234100	0.100500
C891	C89	0.431200	0.336300	0.209650
C901	C90	0.524500	0.385270	0.187930
C911	C91	0.631700	0.422200	0.211550
H611	H61	0.643100	0.417800	0.242000
C921	C92	0.722700	0.465800	0.190830
H621	H62	0.796400	0.490800	0.207100
C931	C93	0.705700	0.472500	0.146880
H631	H63	0.769100	0.502100	0.132900
C941	C94	0.596700	0.436690	0.122360
C951	C95	0.507100	0.392810	0.143410
H641	H64	0.433500	0.367800	0.127100
C961	C96	0.572900	0.446000	0.074500
Ag171	Ag17	0.804830	0.229940	0.709400
Ag181	Ag18	0.476400	0.557840	0.516070
O331	O33	0.659100	0.304190	0.686070
O341	O34	0.549200	0.332090	0.750110
O351	O35	0.525400	0.412220	0.553690
O361	O36	0.348300	0.487690	0.558070
N171	N17	0.890000	0.187150	0.642390
N181	N18	0.977300	0.125900	0.568700
C971	C97	0.996700	0.141760	0.644250
H651	H65	0.043800	0.130000	0.671400
C981	C98	0.039300	0.111800	0.607500
H661	H66	0.116000	0.080000	0.610100
C991	C99	0.871900	0.171600	0.567060
H671	H67	0.825600	0.183400	0.539800
C1001	C100	0.828600	0.201900	0.603240
H681	H68	0.753600	0.234100	0.600500
C1011	C101	0.568800	0.336300	0.709650
C1021	C102	0.475500	0.385270	0.687930
C1031	C103	0.368300	0.422200	0.711550
H691	H69	0.356900	0.417800	0.742000
C1041	C104	0.277300	0.465800	0.690830
H701	H70	0.203600	0.490800	0.707100
C1051	C105	0.294300	0.472500	0.646880
H711	H71	0.230900	0.502100	0.632900
C1061	C106	0.403300	0.436690	0.622360
C1071	C107	0.492900	0.392810	0.643410
H721	H72	0.566500	0.367800	0.627100
C1081	C108	0.427100	0.446000	0.574500
Ag191	Ag19	0.304830	0.729940	0.209400
Ag201	Ag20	0.976400	0.057840	0.016070
O371	O37	0.159100	0.804190	0.186070
O381	O38	0.049200	0.832090	0.250110
O391	O39	0.025400	0.912220	0.053690
O401	O40	0.848300	0.987690	0.058070
N191	N19	0.390000	0.687150	0.142390
N201	N20	0.477300	0.625900	0.068700
C1091	C109	0.496700	0.641760	0.144250
H731	H73	0.543800	0.630000	0.171400
C1101	C110	0.539300	0.611800	0.107500
H741	H74	0.616000	0.580000	0.110100
C1111	C111	0.371900	0.671600	0.067060
H751	H75	0.325600	0.683400	0.039800
C1121	C112	0.328600	0.701900	0.103240
H761	H76	0.253600	0.734100	0.100500
C1131	C113	0.068800	0.836300	0.209650
C1141	C114	0.975500	0.885270	0.187930
C1151	C115	0.868300	0.922200	0.211550
H771	H77	0.856900	0.917800	0.242000
C1161	C116	0.777300	0.965800	0.190830
H781	H78	0.703600	0.990800	0.207100
C1171	C117	0.794300	0.972500	0.146880
H791	H79	0.730900	0.002100	0.132900
C1181	C118	0.903300	0.936690	0.122360
C1191	C119	0.992900	0.892810	0.143410
H801	H80	0.066500	0.867800	0.127100
C1201	C120	0.927100	0.946000	0.074500
Ag211	Ag21	0.695170	0.770060	0.209400
Ag221	Ag22	0.023600	0.442160	0.016070
O411	O41	0.840900	0.695810	0.186070
O421	O42	0.950800	0.667910	0.250110
O431	O43	0.974600	0.587780	0.053690
O441	O44	0.151700	0.512310	0.058070
N211	N21	0.610000	0.812850	0.142390
N221	N22	0.522700	0.874100	0.068700
C1211	C121	0.503300	0.858240	0.144250
H811	H81	0.456200	0.870000	0.171400
C1221	C122	0.460700	0.888200	0.107500
H821	H82	0.384000	0.920000	0.110100
C1231	C123	0.628100	0.828400	0.067060
H831	H83	0.674400	0.816600	0.039800
C1241	C124	0.671400	0.798100	0.103240
H841	H84	0.746400	0.765900	0.100500
C1251	C125	0.931200	0.663700	0.209650
C1261	C126	0.024500	0.614730	0.187930
C1271	C127	0.131700	0.577800	0.211550
H851	H85	0.143100	0.582200	0.242000
C1281	C128	0.222700	0.534200	0.190830
H861	H86	0.296400	0.509200	0.207100
C1291	C129	0.205700	0.527500	0.146880
H871	H87	0.269100	0.497900	0.132900
C1301	C130	0.096700	0.563310	0.122360
C1311	C131	0.007100	0.607190	0.143410
H881	H88	0.933500	0.632200	0.127100
C1321	C132	0.072900	0.554000	0.074500
Ag231	Ag23	0.195170	0.270060	0.709400
Ag241	Ag24	0.523600	0.942160	0.516070
O451	O45	0.340900	0.195810	0.686070
O461	O46	0.450800	0.167910	0.750110
O471	O47	0.474600	0.087780	0.553690
O481	O48	0.651700	0.012310	0.558070
N231	N23	0.110000	0.312850	0.642390
N241	N24	0.022700	0.374100	0.568700
C1331	C133	0.003300	0.358240	0.644250
H891	H89	0.956200	0.370000	0.671400
C1341	C134	0.960700	0.388200	0.607500
H901	H90	0.884000	0.420000	0.610100
C1351	C135	0.128100	0.328400	0.567060
H911	H91	0.174400	0.316600	0.539800
C1361	C136	0.171400	0.298100	0.603240
H921	H92	0.246400	0.265900	0.600500
C1371	C137	0.431200	0.163700	0.709650
C1381	C138	0.524500	0.114730	0.687930
C1391	C139	0.631700	0.077800	0.711550
H931	H93	0.643100	0.082200	0.742000
C1401	C140	0.722700	0.034200	0.690830
H941	H94	0.796400	0.009200	0.707100
C1411	C141	0.705700	0.027500	0.646880
H951	H95	0.769100	0.997900	0.632900
C1421	C142	0.596700	0.063310	0.622360
C1431	C143	0.507100	0.107190	0.643410
H961	H96	0.433500	0.132200	0.627100
C1441	C144	0.572900	0.054000	0.574500
Ag251	Ag25	0.195170	0.729940	0.790600
Ag261	Ag26	0.523600	0.057840	0.983930
O491	O49	0.340900	0.804190	0.813930
O501	O50	0.450800	0.832090	0.749890
O511	O51	0.474600	0.912220	0.946310
O521	O52	0.651700	0.987690	0.941930
N251	N25	0.110000	0.687150	0.857610
N261	N26	0.022700	0.625900	0.931300
C1451	C145	0.003300	0.641760	0.855750
H971	H97	0.956200	0.630000	0.828600
C1461	C146	0.960700	0.611800	0.892500
H981	H98	0.884000	0.580000	0.889900
C1471	C147	0.128100	0.671600	0.932940
H991	H99	0.174400	0.683400	0.960200
C1481	C148	0.171400	0.701900	0.896760
H1001	H100	0.246400	0.734100	0.899500
C1491	C149	0.431200	0.836300	0.790350
C1501	C150	0.524500	0.885270	0.812070
C1511	C151	0.631700	0.922200	0.788450
H1011	H101	0.643100	0.917800	0.758000
C1521	C152	0.722700	0.965800	0.809170
H1021	H102	0.796400	0.990800	0.792900
C1531	C153	0.705700	0.972500	0.853120
H1031	H103	0.769100	0.002100	0.867100
C1541	C154	0.596700	0.936690	0.877640
C1551	C155	0.507100	0.892810	0.856590
H1041	H104	0.433500	0.867800	0.872900
C1561	C156	0.572900	0.946000	0.925500
Ag271	Ag27	0.695170	0.229940	0.290600
Ag281	Ag28	0.023600	0.557840	0.483930
O531	O53	0.840900	0.304190	0.313930
O541	O54	0.950800	0.332090	0.249890
O551	O55	0.974600	0.412220	0.446310
O561	O56	0.151700	0.487690	0.441930
N271	N27	0.610000	0.187150	0.357610
N281	N28	0.522700	0.125900	0.431300
C1571	C157	0.503300	0.141760	0.355750
H1051	H105	0.456200	0.130000	0.328600
C1581	C158	0.460700	0.111800	0.392500
H1061	H106	0.384000	0.080000	0.389900
C1591	C159	0.628100	0.171600	0.432940
H1071	H107	0.674400	0.183400	0.460200
C1601	C160	0.671400	0.201900	0.396760
H1081	H108	0.746400	0.234100	0.399500
C1611	C161	0.931200	0.336300	0.290350
C1621	C162	0.024500	0.385270	0.312070
C1631	C163	0.131700	0.422200	0.288450
H1091	H109	0.143100	0.417800	0.258000
C1641	C164	0.222700	0.465800	0.309170
H1101	H110	0.296400	0.490800	0.292900
C1651	C165	0.205700	0.472500	0.353120
H1111	H111	0.269100	0.502100	0.367100
C1661	C166	0.096700	0.436690	0.377640
C1671	C167	0.007100	0.392810	0.356590
H1121	H112	0.933500	0.367800	0.372900
C1681	C168	0.072900	0.446000	0.425500
Ag291	Ag29	0.304830	0.270060	0.290600
Ag301	Ag30	0.976400	0.942160	0.483930
O571	O57	0.159100	0.195810	0.313930
O581	O58	0.049200	0.167910	0.249890
O591	O59	0.025400	0.087780	0.446310
O601	O60	0.848300	0.012310	0.441930
N291	N29	0.390000	0.312850	0.357610
N301	N30	0.477300	0.374100	0.431300
C1691	C169	0.496700	0.358240	0.355750
H1131	H113	0.543800	0.370000	0.328600
C1701	C170	0.539300	0.388200	0.392500
H1141	H114	0.616000	0.420000	0.389900
C1711	C171	0.371900	0.328400	0.432940
H1151	H115	0.325600	0.316600	0.460200
C1721	C172	0.328600	0.298100	0.396760
H1161	H116	0.253600	0.265900	0.399500
C1731	C173	0.068800	0.163700	0.290350
C1741	C174	0.975500	0.114730	0.312070
C1751	C175	0.868300	0.077800	0.288450
H1171	H117	0.856900	0.082200	0.258000
C1761	C176	0.777300	0.034200	0.309170
H1181	H118	0.703600	0.009200	0.292900
C1771	C177	0.794300	0.027500	0.353120
H1191	H119	0.730900	0.997900	0.367100
C1781	C178	0.903300	0.063310	0.377640
C1791	C179	0.992900	0.107190	0.356590
H1201	H120	0.066500	0.132200	0.372900
C1801	C180	0.927100	0.054000	0.425500
Ag311	Ag31	0.804830	0.770060	0.790600
Ag321	Ag32	0.476400	0.442160	0.983930
O611	O61	0.659100	0.695810	0.813930
O621	O62	0.549200	0.667910	0.749890
O631	O63	0.525400	0.587780	0.946310
O641	O64	0.348300	0.512310	0.941930
N311	N31	0.890000	0.812850	0.857610
N321	N32	0.977300	0.874100	0.931300
C1811	C181	0.996700	0.858240	0.855750
H1211	H121	0.043800	0.870000	0.828600
C1821	C182	0.039300	0.888200	0.892500
H1221	H122	0.116000	0.920000	0.889900
C1831	C183	0.871900	0.828400	0.932940
H1231	H123	0.825600	0.816600	0.960200
C1841	C184	0.828600	0.798100	0.896760
H1241	H124	0.753600	0.765900	0.899500
C1851	C185	0.568800	0.663700	0.790350
C1861	C186	0.475500	0.614730	0.812070
C1871	C187	0.368300	0.577800	0.788450
H1251	H125	0.356900	0.582200	0.758000
C1881	C188	0.277300	0.534200	0.809170
H1261	H126	0.203600	0.509200	0.792900
C1891	C189	0.294300	0.527500	0.853120
H1271	H127	0.230900	0.497900	0.867100
C1901	C190	0.403300	0.563310	0.877640
C1911	C191	0.492900	0.607190	0.856590
H1281	H128	0.566500	0.632200	0.872900
C1921	C192	0.427100	0.554000	0.925500
