data_TAJXIO04_clean_PM
_symmetry_space_group_name_H-M	'P1'
_cell_length_a	7.162000
_cell_length_b	23.765100
_cell_length_c	30.704900
_cell_angle_alpha	90.000000
_cell_angle_beta	90.000000
_cell_angle_gamma	90.000000
_symmetry_Int_Tables_number 1

loop_
_symmetry_equiv_pos_as_xyz
'x,y,z'

loop_
_atom_site_label
_atom_site_type_symbol
_atom_site_fract_x
_atom_site_fract_y
_atom_site_fract_z
Ag11	Ag1	0.195360	0.770040	0.290750
Ag21	Ag2	0.531630	0.442910	0.484200
O11	O1	0.345100	0.695910	0.314100
O21	O2	0.453300	0.667060	0.249150
O31	O3	0.482200	0.587970	0.446750
O41	O4	0.660400	0.511140	0.441560
N11	N1	0.107500	0.812380	0.357550
N21	N2	0.016800	0.874200	0.431630
C11	C1	0.998900	0.858200	0.355400
H11	H1	0.951400	0.870200	0.328100
C21	C2	0.955000	0.888300	0.392700
H21	H2	0.877000	0.920400	0.390100
C31	C3	0.122800	0.828200	0.433520
H31	H3	0.168400	0.816100	0.461000
C41	C4	0.168500	0.797600	0.396990
H41	H4	0.245300	0.765200	0.399900
C51	C5	0.434700	0.663700	0.290000
C61	C6	0.530700	0.614400	0.311720
C71	C7	0.640200	0.577000	0.287800
H51	H5	0.651500	0.581200	0.257100
C81	C8	0.732400	0.533600	0.308800
H61	H6	0.807700	0.508200	0.292600
C91	C9	0.715200	0.527200	0.352700
H71	H7	0.780200	0.497500	0.366800
C101	C10	0.604900	0.563200	0.377500
C111	C11	0.514200	0.607400	0.356580
H81	H8	0.440600	0.633000	0.373000
C121	C12	0.582300	0.553900	0.425200
Ag31	Ag3	0.695360	0.270040	0.790750
Ag41	Ag4	0.031630	0.942910	0.984200
O51	O5	0.845100	0.195910	0.814100
O61	O6	0.953300	0.167060	0.749150
O71	O7	0.982200	0.087970	0.946750
O81	O8	0.160400	0.011140	0.941560
N31	N3	0.607500	0.312380	0.857550
N41	N4	0.516800	0.374200	0.931630
C131	C13	0.498900	0.358200	0.855400
H91	H9	0.451400	0.370200	0.828100
C141	C14	0.455000	0.388300	0.892700
H101	H10	0.377000	0.420400	0.890100
C151	C15	0.622800	0.328200	0.933520
H111	H11	0.668400	0.316100	0.961000
C161	C16	0.668500	0.297600	0.896990
H121	H12	0.745300	0.265200	0.899900
C171	C17	0.934700	0.163700	0.790000
C181	C18	0.030700	0.114400	0.811720
C191	C19	0.140200	0.077000	0.787800
H131	H13	0.151500	0.081200	0.757100
C201	C20	0.232400	0.033600	0.808800
H141	H14	0.307700	0.008200	0.792600
C211	C21	0.215200	0.027200	0.852700
H151	H15	0.280200	0.997500	0.866800
C221	C22	0.104900	0.063200	0.877500
C231	C23	0.014200	0.107400	0.856580
H161	H16	0.940600	0.133000	0.873000
C241	C24	0.082300	0.053900	0.925200
Ag51	Ag5	0.304640	0.229960	0.790750
Ag61	Ag6	0.968370	0.557090	0.984200
O91	O9	0.154900	0.304090	0.814100
O101	O10	0.046700	0.332940	0.749150
O111	O11	0.017800	0.412030	0.946750
O121	O12	0.839600	0.488860	0.941560
N51	N5	0.392500	0.187620	0.857550
N61	N6	0.483200	0.125800	0.931630
C251	C25	0.501100	0.141800	0.855400
H171	H17	0.548600	0.129800	0.828100
C261	C26	0.545000	0.111700	0.892700
H181	H18	0.623000	0.079600	0.890100
C271	C27	0.377200	0.171800	0.933520
H191	H19	0.331600	0.183900	0.961000
C281	C28	0.331500	0.202400	0.896990
H201	H20	0.254700	0.234800	0.899900
C291	C29	0.065300	0.336300	0.790000
C301	C30	0.969300	0.385600	0.811720
C311	C31	0.859800	0.423000	0.787800
H211	H21	0.848500	0.418800	0.757100
C321	C32	0.767600	0.466400	0.808800
H221	H22	0.692300	0.491800	0.792600
C331	C33	0.784800	0.472800	0.852700
H231	H23	0.719800	0.502500	0.866800
C341	C34	0.895100	0.436800	0.877500
C351	C35	0.985800	0.392600	0.856580
H241	H24	0.059400	0.367000	0.873000
C361	C36	0.917700	0.446100	0.925200
Ag71	Ag7	0.804640	0.729960	0.290750
Ag81	Ag8	0.468370	0.057090	0.484200
O131	O13	0.654900	0.804090	0.314100
O141	O14	0.546700	0.832940	0.249150
O151	O15	0.517800	0.912030	0.446750
O161	O16	0.339600	0.988860	0.441560
N71	N7	0.892500	0.687620	0.357550
N81	N8	0.983200	0.625800	0.431630
C371	C37	0.001100	0.641800	0.355400
H251	H25	0.048600	0.629800	0.328100
C381	C38	0.045000	0.611700	0.392700
H261	H26	0.123000	0.579600	0.390100
C391	C39	0.877200	0.671800	0.433520
H271	H27	0.831600	0.683900	0.461000
C401	C40	0.831500	0.702400	0.396990
H281	H28	0.754700	0.734800	0.399900
C411	C41	0.565300	0.836300	0.290000
C421	C42	0.469300	0.885600	0.311720
C431	C43	0.359800	0.923000	0.287800
H291	H29	0.348500	0.918800	0.257100
C441	C44	0.267600	0.966400	0.308800
H301	H30	0.192300	0.991800	0.292600
C451	C45	0.284800	0.972800	0.352700
H311	H31	0.219800	0.002500	0.366800
C461	C46	0.395100	0.936800	0.377500
C471	C47	0.485800	0.892600	0.356580
H321	H32	0.559400	0.867000	0.373000
C481	C48	0.417700	0.946100	0.425200
Ag91	Ag9	0.804640	0.270040	0.209250
Ag101	Ag10	0.468370	0.942910	0.015800
O171	O17	0.654900	0.195910	0.185900
O181	O18	0.546700	0.167060	0.250850
O191	O19	0.517800	0.087970	0.053250
O201	O20	0.339600	0.011140	0.058440
N91	N9	0.892500	0.312380	0.142450
N101	N10	0.983200	0.374200	0.068370
C491	C49	0.001100	0.358200	0.144600
H331	H33	0.048600	0.370200	0.171900
C501	C50	0.045000	0.388300	0.107300
H341	H34	0.123000	0.420400	0.109900
C511	C51	0.877200	0.328200	0.066480
H351	H35	0.831600	0.316100	0.039000
C521	C52	0.831500	0.297600	0.103010
H361	H36	0.754700	0.265200	0.100100
C531	C53	0.565300	0.163700	0.210000
C541	C54	0.469300	0.114400	0.188280
C551	C55	0.359800	0.077000	0.212200
H371	H37	0.348500	0.081200	0.242900
C561	C56	0.267600	0.033600	0.191200
H381	H38	0.192300	0.008200	0.207400
C571	C57	0.284800	0.027200	0.147300
H391	H39	0.219800	0.997500	0.133200
C581	C58	0.395100	0.063200	0.122500
C591	C59	0.485800	0.107400	0.143420
H401	H40	0.559400	0.133000	0.127000
C601	C60	0.417700	0.053900	0.074800
Ag111	Ag11	0.304640	0.770040	0.709250
Ag121	Ag12	0.968370	0.442910	0.515800
O211	O21	0.154900	0.695910	0.685900
O221	O22	0.046700	0.667060	0.750850
O231	O23	0.017800	0.587970	0.553250
O241	O24	0.839600	0.511140	0.558440
N111	N11	0.392500	0.812380	0.642450
N121	N12	0.483200	0.874200	0.568370
C611	C61	0.501100	0.858200	0.644600
H411	H41	0.548600	0.870200	0.671900
C621	C62	0.545000	0.888300	0.607300
H421	H42	0.623000	0.920400	0.609900
C631	C63	0.377200	0.828200	0.566480
H431	H43	0.331600	0.816100	0.539000
C641	C64	0.331500	0.797600	0.603010
H441	H44	0.254700	0.765200	0.600100
C651	C65	0.065300	0.663700	0.710000
C661	C66	0.969300	0.614400	0.688280
C671	C67	0.859800	0.577000	0.712200
H451	H45	0.848500	0.581200	0.742900
C681	C68	0.767600	0.533600	0.691200
H461	H46	0.692300	0.508200	0.707400
C691	C69	0.784800	0.527200	0.647300
H471	H47	0.719800	0.497500	0.633200
C701	C70	0.895100	0.563200	0.622500
C711	C71	0.985800	0.607400	0.643420
H481	H48	0.059400	0.633000	0.627000
C721	C72	0.917700	0.553900	0.574800
Ag131	Ag13	0.695360	0.729960	0.709250
Ag141	Ag14	0.031630	0.057090	0.515800
O251	O25	0.845100	0.804090	0.685900
O261	O26	0.953300	0.832940	0.750850
O271	O27	0.982200	0.912030	0.553250
O281	O28	0.160400	0.988860	0.558440
N131	N13	0.607500	0.687620	0.642450
N141	N14	0.516800	0.625800	0.568370
C731	C73	0.498900	0.641800	0.644600
H491	H49	0.451400	0.629800	0.671900
C741	C74	0.455000	0.611700	0.607300
H501	H50	0.377000	0.579600	0.609900
C751	C75	0.622800	0.671800	0.566480
H511	H51	0.668400	0.683900	0.539000
C761	C76	0.668500	0.702400	0.603010
H521	H52	0.745300	0.734800	0.600100
C771	C77	0.934700	0.836300	0.710000
C781	C78	0.030700	0.885600	0.688280
C791	C79	0.140200	0.923000	0.712200
H531	H53	0.151500	0.918800	0.742900
C801	C80	0.232400	0.966400	0.691200
H541	H54	0.307700	0.991800	0.707400
C811	C81	0.215200	0.972800	0.647300
H551	H55	0.280200	0.002500	0.633200
C821	C82	0.104900	0.936800	0.622500
C831	C83	0.014200	0.892600	0.643420
H561	H56	0.940600	0.867000	0.627000
C841	C84	0.082300	0.946100	0.574800
Ag151	Ag15	0.195360	0.229960	0.209250
Ag161	Ag16	0.531630	0.557090	0.015800
O291	O29	0.345100	0.304090	0.185900
O301	O30	0.453300	0.332940	0.250850
O311	O31	0.482200	0.412030	0.053250
O321	O32	0.660400	0.488860	0.058440
N151	N15	0.107500	0.187620	0.142450
N161	N16	0.016800	0.125800	0.068370
C851	C85	0.998900	0.141800	0.144600
H571	H57	0.951400	0.129800	0.171900
C861	C86	0.955000	0.111700	0.107300
H581	H58	0.877000	0.079600	0.109900
C871	C87	0.122800	0.171800	0.066480
H591	H59	0.168400	0.183900	0.039000
C881	C88	0.168500	0.202400	0.103010
H601	H60	0.245300	0.234800	0.100100
C891	C89	0.434700	0.336300	0.210000
C901	C90	0.530700	0.385600	0.188280
C911	C91	0.640200	0.423000	0.212200
H611	H61	0.651500	0.418800	0.242900
C921	C92	0.732400	0.466400	0.191200
H621	H62	0.807700	0.491800	0.207400
C931	C93	0.715200	0.472800	0.147300
H631	H63	0.780200	0.502500	0.133200
C941	C94	0.604900	0.436800	0.122500
C951	C95	0.514200	0.392600	0.143420
H641	H64	0.440600	0.367000	0.127000
C961	C96	0.582300	0.446100	0.074800
Ag171	Ag17	0.804640	0.229960	0.709250
Ag181	Ag18	0.468370	0.557090	0.515800
O331	O33	0.654900	0.304090	0.685900
O341	O34	0.546700	0.332940	0.750850
O351	O35	0.517800	0.412030	0.553250
O361	O36	0.339600	0.488860	0.558440
N171	N17	0.892500	0.187620	0.642450
N181	N18	0.983200	0.125800	0.568370
C971	C97	0.001100	0.141800	0.644600
H651	H65	0.048600	0.129800	0.671900
C981	C98	0.045000	0.111700	0.607300
H661	H66	0.123000	0.079600	0.609900
C991	C99	0.877200	0.171800	0.566480
H671	H67	0.831600	0.183900	0.539000
C1001	C100	0.831500	0.202400	0.603010
H681	H68	0.754700	0.234800	0.600100
C1011	C101	0.565300	0.336300	0.710000
C1021	C102	0.469300	0.385600	0.688280
C1031	C103	0.359800	0.423000	0.712200
H691	H69	0.348500	0.418800	0.742900
C1041	C104	0.267600	0.466400	0.691200
H701	H70	0.192300	0.491800	0.707400
C1051	C105	0.284800	0.472800	0.647300
H711	H71	0.219800	0.502500	0.633200
C1061	C106	0.395100	0.436800	0.622500
C1071	C107	0.485800	0.392600	0.643420
H721	H72	0.559400	0.367000	0.627000
C1081	C108	0.417700	0.446100	0.574800
Ag191	Ag19	0.304640	0.729960	0.209250
Ag201	Ag20	0.968370	0.057090	0.015800
O371	O37	0.154900	0.804090	0.185900
O381	O38	0.046700	0.832940	0.250850
O391	O39	0.017800	0.912030	0.053250
O401	O40	0.839600	0.988860	0.058440
N191	N19	0.392500	0.687620	0.142450
N201	N20	0.483200	0.625800	0.068370
C1091	C109	0.501100	0.641800	0.144600
H731	H73	0.548600	0.629800	0.171900
C1101	C110	0.545000	0.611700	0.107300
H741	H74	0.623000	0.579600	0.109900
C1111	C111	0.377200	0.671800	0.066480
H751	H75	0.331600	0.683900	0.039000
C1121	C112	0.331500	0.702400	0.103010
H761	H76	0.254700	0.734800	0.100100
C1131	C113	0.065300	0.836300	0.210000
C1141	C114	0.969300	0.885600	0.188280
C1151	C115	0.859800	0.923000	0.212200
H771	H77	0.848500	0.918800	0.242900
C1161	C116	0.767600	0.966400	0.191200
H781	H78	0.692300	0.991800	0.207400
C1171	C117	0.784800	0.972800	0.147300
H791	H79	0.719800	0.002500	0.133200
C1181	C118	0.895100	0.936800	0.122500
C1191	C119	0.985800	0.892600	0.143420
H801	H80	0.059400	0.867000	0.127000
C1201	C120	0.917700	0.946100	0.074800
Ag211	Ag21	0.695360	0.770040	0.209250
Ag221	Ag22	0.031630	0.442910	0.015800
O411	O41	0.845100	0.695910	0.185900
O421	O42	0.953300	0.667060	0.250850
O431	O43	0.982200	0.587970	0.053250
O441	O44	0.160400	0.511140	0.058440
N211	N21	0.607500	0.812380	0.142450
N221	N22	0.516800	0.874200	0.068370
C1211	C121	0.498900	0.858200	0.144600
H811	H81	0.451400	0.870200	0.171900
C1221	C122	0.455000	0.888300	0.107300
H821	H82	0.377000	0.920400	0.109900
C1231	C123	0.622800	0.828200	0.066480
H831	H83	0.668400	0.816100	0.039000
C1241	C124	0.668500	0.797600	0.103010
H841	H84	0.745300	0.765200	0.100100
C1251	C125	0.934700	0.663700	0.210000
C1261	C126	0.030700	0.614400	0.188280
C1271	C127	0.140200	0.577000	0.212200
H851	H85	0.151500	0.581200	0.242900
C1281	C128	0.232400	0.533600	0.191200
H861	H86	0.307700	0.508200	0.207400
C1291	C129	0.215200	0.527200	0.147300
H871	H87	0.280200	0.497500	0.133200
C1301	C130	0.104900	0.563200	0.122500
C1311	C131	0.014200	0.607400	0.143420
H881	H88	0.940600	0.633000	0.127000
C1321	C132	0.082300	0.553900	0.074800
Ag231	Ag23	0.195360	0.270040	0.709250
Ag241	Ag24	0.531630	0.942910	0.515800
O451	O45	0.345100	0.195910	0.685900
O461	O46	0.453300	0.167060	0.750850
O471	O47	0.482200	0.087970	0.553250
O481	O48	0.660400	0.011140	0.558440
N231	N23	0.107500	0.312380	0.642450
N241	N24	0.016800	0.374200	0.568370
C1331	C133	0.998900	0.358200	0.644600
H891	H89	0.951400	0.370200	0.671900
C1341	C134	0.955000	0.388300	0.607300
H901	H90	0.877000	0.420400	0.609900
C1351	C135	0.122800	0.328200	0.566480
H911	H91	0.168400	0.316100	0.539000
C1361	C136	0.168500	0.297600	0.603010
H921	H92	0.245300	0.265200	0.600100
C1371	C137	0.434700	0.163700	0.710000
C1381	C138	0.530700	0.114400	0.688280
C1391	C139	0.640200	0.077000	0.712200
H931	H93	0.651500	0.081200	0.742900
C1401	C140	0.732400	0.033600	0.691200
H941	H94	0.807700	0.008200	0.707400
C1411	C141	0.715200	0.027200	0.647300
H951	H95	0.780200	0.997500	0.633200
C1421	C142	0.604900	0.063200	0.622500
C1431	C143	0.514200	0.107400	0.643420
H961	H96	0.440600	0.133000	0.627000
C1441	C144	0.582300	0.053900	0.574800
Ag251	Ag25	0.195360	0.729960	0.790750
Ag261	Ag26	0.531630	0.057090	0.984200
O491	O49	0.345100	0.804090	0.814100
O501	O50	0.453300	0.832940	0.749150
O511	O51	0.482200	0.912030	0.946750
O521	O52	0.660400	0.988860	0.941560
N251	N25	0.107500	0.687620	0.857550
N261	N26	0.016800	0.625800	0.931630
C1451	C145	0.998900	0.641800	0.855400
H971	H97	0.951400	0.629800	0.828100
C1461	C146	0.955000	0.611700	0.892700
H981	H98	0.877000	0.579600	0.890100
C1471	C147	0.122800	0.671800	0.933520
H991	H99	0.168400	0.683900	0.961000
C1481	C148	0.168500	0.702400	0.896990
H1001	H100	0.245300	0.734800	0.899900
C1491	C149	0.434700	0.836300	0.790000
C1501	C150	0.530700	0.885600	0.811720
C1511	C151	0.640200	0.923000	0.787800
H1011	H101	0.651500	0.918800	0.757100
C1521	C152	0.732400	0.966400	0.808800
H1021	H102	0.807700	0.991800	0.792600
C1531	C153	0.715200	0.972800	0.852700
H1031	H103	0.780200	0.002500	0.866800
C1541	C154	0.604900	0.936800	0.877500
C1551	C155	0.514200	0.892600	0.856580
H1041	H104	0.440600	0.867000	0.873000
C1561	C156	0.582300	0.946100	0.925200
Ag271	Ag27	0.695360	0.229960	0.290750
Ag281	Ag28	0.031630	0.557090	0.484200
O531	O53	0.845100	0.304090	0.314100
O541	O54	0.953300	0.332940	0.249150
O551	O55	0.982200	0.412030	0.446750
O561	O56	0.160400	0.488860	0.441560
N271	N27	0.607500	0.187620	0.357550
N281	N28	0.516800	0.125800	0.431630
C1571	C157	0.498900	0.141800	0.355400
H1051	H105	0.451400	0.129800	0.328100
C1581	C158	0.455000	0.111700	0.392700
H1061	H106	0.377000	0.079600	0.390100
C1591	C159	0.622800	0.171800	0.433520
H1071	H107	0.668400	0.183900	0.461000
C1601	C160	0.668500	0.202400	0.396990
H1081	H108	0.745300	0.234800	0.399900
C1611	C161	0.934700	0.336300	0.290000
C1621	C162	0.030700	0.385600	0.311720
C1631	C163	0.140200	0.423000	0.287800
H1091	H109	0.151500	0.418800	0.257100
C1641	C164	0.232400	0.466400	0.308800
H1101	H110	0.307700	0.491800	0.292600
C1651	C165	0.215200	0.472800	0.352700
H1111	H111	0.280200	0.502500	0.366800
C1661	C166	0.104900	0.436800	0.377500
C1671	C167	0.014200	0.392600	0.356580
H1121	H112	0.940600	0.367000	0.373000
C1681	C168	0.082300	0.446100	0.425200
Ag291	Ag29	0.304640	0.270040	0.290750
Ag301	Ag30	0.968370	0.942910	0.484200
O571	O57	0.154900	0.195910	0.314100
O581	O58	0.046700	0.167060	0.249150
O591	O59	0.017800	0.087970	0.446750
O601	O60	0.839600	0.011140	0.441560
N291	N29	0.392500	0.312380	0.357550
N301	N30	0.483200	0.374200	0.431630
C1691	C169	0.501100	0.358200	0.355400
H1131	H113	0.548600	0.370200	0.328100
C1701	C170	0.545000	0.388300	0.392700
H1141	H114	0.623000	0.420400	0.390100
C1711	C171	0.377200	0.328200	0.433520
H1151	H115	0.331600	0.316100	0.461000
C1721	C172	0.331500	0.297600	0.396990
H1161	H116	0.254700	0.265200	0.399900
C1731	C173	0.065300	0.163700	0.290000
C1741	C174	0.969300	0.114400	0.311720
C1751	C175	0.859800	0.077000	0.287800
H1171	H117	0.848500	0.081200	0.257100
C1761	C176	0.767600	0.033600	0.308800
H1181	H118	0.692300	0.008200	0.292600
C1771	C177	0.784800	0.027200	0.352700
H1191	H119	0.719800	0.997500	0.366800
C1781	C178	0.895100	0.063200	0.377500
C1791	C179	0.985800	0.107400	0.356580
H1201	H120	0.059400	0.133000	0.373000
C1801	C180	0.917700	0.053900	0.425200
Ag311	Ag31	0.804640	0.770040	0.790750
Ag321	Ag32	0.468370	0.442910	0.984200
O611	O61	0.654900	0.695910	0.814100
O621	O62	0.546700	0.667060	0.749150
O631	O63	0.517800	0.587970	0.946750
O641	O64	0.339600	0.511140	0.941560
N311	N31	0.892500	0.812380	0.857550
N321	N32	0.983200	0.874200	0.931630
C1811	C181	0.001100	0.858200	0.855400
H1211	H121	0.048600	0.870200	0.828100
C1821	C182	0.045000	0.888300	0.892700
H1221	H122	0.123000	0.920400	0.890100
C1831	C183	0.877200	0.828200	0.933520
H1231	H123	0.831600	0.816100	0.961000
C1841	C184	0.831500	0.797600	0.896990
H1241	H124	0.754700	0.765200	0.899900
C1851	C185	0.565300	0.663700	0.790000
C1861	C186	0.469300	0.614400	0.811720
C1871	C187	0.359800	0.577000	0.787800
H1251	H125	0.348500	0.581200	0.757100
C1881	C188	0.267600	0.533600	0.808800
H1261	H126	0.192300	0.508200	0.792600
C1891	C189	0.284800	0.527200	0.852700
H1271	H127	0.219800	0.497500	0.866800
C1901	C190	0.395100	0.563200	0.877500
C1911	C191	0.485800	0.607400	0.856580
H1281	H128	0.559400	0.633000	0.873000
C1921	C192	0.417700	0.553900	0.925200
