data_TAKGUK_clean_PM
_symmetry_space_group_name_H-M	'P1'
_cell_length_a	9.758000
_cell_length_b	16.575000
_cell_length_c	21.452000
_cell_angle_alpha	104.130000
_cell_angle_beta	100.680000
_cell_angle_gamma	96.530000
_symmetry_Int_Tables_number 1

loop_
_symmetry_equiv_pos_as_xyz
'x,y,z'

loop_
_atom_site_label
_atom_site_type_symbol
_atom_site_fract_x
_atom_site_fract_y
_atom_site_fract_z
Ce11	Ce1	0.277200	0.517460	0.998270
I11	I1	0.763730	0.991640	0.500250
I21	I2	0.984930	0.778480	0.469570
I31	I3	0.087120	0.978350	0.671450
I41	I4	0.700940	0.787690	0.612200
Cu11	Cu1	0.012580	0.942280	0.539080
Cu21	Cu2	0.753880	0.826950	0.502230
Cu31	Cu3	0.820170	0.945110	0.620780
Cu41	Cu4	0.963050	0.816850	0.597130
O11	O1	0.173200	0.549300	0.094300
O21	O2	0.945900	0.489200	0.075100
O31	O3	0.543800	0.370300	0.926400
O41	O4	0.324300	0.405200	0.912000
O51	O5	0.355000	0.587100	0.918800
O61	O6	0.568800	0.549900	0.937200
N11	N1	0.578200	0.763100	0.434900
N21	N2	0.705600	0.026100	0.666100
N31	N3	0.097900	0.749900	0.637500
C11	C1	0.452800	0.786200	0.438300
H11	H1	0.449400	0.834700	0.470300
C21	C2	0.327900	0.741700	0.396500
H21	H2	0.242400	0.758000	0.403100
C31	C3	0.328900	0.672100	0.344400
C41	C4	0.459900	0.648300	0.340200
H31	H3	0.467500	0.601100	0.307900
C51	C5	0.578600	0.696600	0.385400
H41	H4	0.665800	0.681400	0.380700
C61	C6	0.196400	0.623200	0.298000
C71	C7	0.190800	0.597100	0.230800
H51	H5	0.271600	0.608900	0.215400
C81	C8	0.067400	0.553800	0.186300
C91	C9	0.946900	0.531800	0.209800
H61	H6	0.865500	0.499500	0.180600
C101	C10	0.949900	0.557800	0.275700
H71	H7	0.870200	0.543500	0.291200
C111	C11	0.070600	0.605300	0.319200
H81	H8	0.069100	0.625900	0.363400
C121	C12	0.060500	0.527400	0.114200
C131	C13	0.760100	0.103800	0.708700
H91	H9	0.857900	0.119900	0.720700
C141	C14	0.680600	0.157300	0.733700
H101	H10	0.724100	0.208600	0.763600
C151	C15	0.531700	0.138600	0.716300
C161	C16	0.473000	0.056400	0.670300
H111	H11	0.375900	0.038700	0.655600
C171	C17	0.566400	0.006400	0.649700
H121	H12	0.528400	0.953200	0.621400
C181	C18	0.433300	0.194400	0.740600
C191	C19	0.471800	0.254300	0.803200
H131	H13	0.562500	0.261000	0.828900
C201	C20	0.377200	0.302500	0.826500
C211	C21	0.244100	0.294300	0.787000
H141	H14	0.179300	0.326300	0.802900
C221	C22	0.205700	0.239900	0.724700
H151	H15	0.117900	0.237600	0.698000
C231	C23	0.298200	0.188300	0.701800
H161	H16	0.270500	0.149600	0.660500
C241	C24	0.417600	0.363800	0.893000
C251	C25	0.238200	0.767700	0.636600
H171	H17	0.266500	0.805400	0.613900
C261	C26	0.338200	0.730300	0.668900
H181	H18	0.431700	0.740500	0.665300
C271	C27	0.300900	0.677700	0.706900
C281	C28	0.159600	0.662400	0.707300
H191	H19	0.129900	0.628300	0.732500
C291	C29	0.064100	0.695200	0.672500
H201	H20	0.969200	0.679800	0.672100
C301	C30	0.410300	0.639300	0.743400
C311	C31	0.391800	0.623900	0.802900
H211	H21	0.310500	0.634800	0.818000
C321	C32	0.495300	0.592100	0.839600
C331	C33	0.616900	0.575800	0.818900
H221	H22	0.688500	0.558800	0.845300
C341	C34	0.630800	0.585900	0.754900
H231	H23	0.708200	0.570300	0.738200
C351	C35	0.530500	0.618200	0.718800
H241	H24	0.541300	0.626200	0.678500
C361	C36	0.472400	0.575000	0.903200
Ce21	Ce2	0.722800	0.482540	0.001730
I51	I5	0.236270	0.008360	0.499750
I61	I6	0.015070	0.221520	0.530430
I71	I7	0.912880	0.021650	0.328550
I81	I8	0.299060	0.212310	0.387800
Cu51	Cu5	0.987420	0.057720	0.460920
Cu61	Cu6	0.246120	0.173050	0.497770
Cu71	Cu7	0.179830	0.054890	0.379220
Cu81	Cu8	0.036950	0.183150	0.402870
O71	O7	0.826800	0.450700	0.905700
O81	O8	0.054100	0.510800	0.924900
O91	O9	0.456200	0.629700	0.073600
O101	O10	0.675700	0.594800	0.088000
O111	O11	0.645000	0.412900	0.081200
O121	O12	0.431200	0.450100	0.062800
N41	N4	0.421800	0.236900	0.565100
N51	N5	0.294400	0.973900	0.333900
N61	N6	0.902100	0.250100	0.362500
C371	C37	0.547200	0.213800	0.561700
H251	H25	0.550600	0.165300	0.529700
C381	C38	0.672100	0.258300	0.603500
H261	H26	0.757600	0.242000	0.596900
C391	C39	0.671100	0.327900	0.655600
C401	C40	0.540100	0.351700	0.659800
H271	H27	0.532500	0.398900	0.692100
C411	C41	0.421400	0.303400	0.614600
H281	H28	0.334200	0.318600	0.619300
C421	C42	0.803600	0.376800	0.702000
C431	C43	0.809200	0.402900	0.769200
H291	H29	0.728400	0.391100	0.784600
C441	C44	0.932600	0.446200	0.813700
C451	C45	0.053100	0.468200	0.790200
H301	H30	0.134500	0.500500	0.819400
C461	C46	0.050100	0.442200	0.724300
H311	H31	0.129800	0.456500	0.708800
C471	C47	0.929400	0.394700	0.680800
H321	H32	0.930900	0.374100	0.636600
C481	C48	0.939500	0.472600	0.885800
C491	C49	0.239900	0.896200	0.291300
H331	H33	0.142100	0.880100	0.279300
C501	C50	0.319400	0.842700	0.266300
H341	H34	0.275900	0.791400	0.236400
C511	C51	0.468300	0.861400	0.283700
C521	C52	0.527000	0.943600	0.329700
H351	H35	0.624100	0.961300	0.344400
C531	C53	0.433600	0.993600	0.350300
H361	H36	0.471600	0.046800	0.378600
C541	C54	0.566700	0.805600	0.259400
C551	C55	0.528200	0.745700	0.196800
H371	H37	0.437500	0.739000	0.171100
C561	C56	0.622800	0.697500	0.173500
C571	C57	0.755900	0.705700	0.213000
H381	H38	0.820700	0.673700	0.197100
C581	C58	0.794300	0.760100	0.275300
H391	H39	0.882100	0.762400	0.302000
C591	C59	0.701800	0.811700	0.298200
H401	H40	0.729500	0.850400	0.339500
C601	C60	0.582400	0.636200	0.107000
C611	C61	0.761800	0.232300	0.363400
H411	H41	0.733500	0.194600	0.386100
C621	C62	0.661800	0.269700	0.331100
H421	H42	0.568300	0.259500	0.334700
C631	C63	0.699100	0.322300	0.293100
C641	C64	0.840400	0.337600	0.292700
H431	H43	0.870100	0.371700	0.267500
C651	C65	0.935900	0.304800	0.327500
H441	H44	0.030800	0.320200	0.327900
C661	C66	0.589700	0.360700	0.256600
C671	C67	0.608200	0.376100	0.197100
H451	H45	0.689500	0.365200	0.182000
C681	C68	0.504700	0.407900	0.160400
C691	C69	0.383100	0.424200	0.181100
H461	H46	0.311500	0.441200	0.154700
C701	C70	0.369200	0.414100	0.245100
H471	H47	0.291800	0.429700	0.261800
C711	C71	0.469500	0.381800	0.281200
H481	H48	0.458700	0.373800	0.321500
C721	C72	0.527600	0.425000	0.096800
