data_TAKGOE_clean_PM
_symmetry_space_group_name_H-M	'P1'
_cell_length_a	9.776000
_cell_length_b	16.337000
_cell_length_c	21.534000
_cell_angle_alpha	103.820000
_cell_angle_beta	100.740000
_cell_angle_gamma	95.870000
_symmetry_Int_Tables_number 1

loop_
_symmetry_equiv_pos_as_xyz
'x,y,z'

loop_
_atom_site_label
_atom_site_type_symbol
_atom_site_fract_x
_atom_site_fract_y
_atom_site_fract_z
La11	La1	0.278740	0.520020	0.998340
I11	I1	0.762440	0.993040	0.499550
I21	I2	0.982350	0.776720	0.465790
I31	I3	0.081370	0.975050	0.668160
I41	I4	0.698720	0.782200	0.607120
Cu11	Cu1	0.011220	0.940950	0.537170
Cu21	Cu2	0.751500	0.825790	0.498580
Cu31	Cu3	0.815250	0.941120	0.617670
Cu41	Cu4	0.959840	0.812650	0.592120
O11	O1	0.170200	0.554900	0.094200
O21	O2	0.949000	0.489700	0.076200
O31	O3	0.541500	0.364100	0.926800
O41	O4	0.327900	0.401800	0.915000
O51	O5	0.353000	0.587900	0.915300
O61	O6	0.561500	0.547500	0.935600
N11	N1	0.575700	0.762800	0.430800
N21	N2	0.703000	0.021200	0.664300
N31	N3	0.095800	0.747300	0.633400
C11	C1	0.451600	0.786500	0.435300
H11	H1	0.447900	0.834300	0.468300
C21	C2	0.326800	0.742800	0.392700
H21	H2	0.241500	0.760800	0.398100
C31	C3	0.329000	0.673800	0.343000
C41	C4	0.459800	0.649400	0.337100
H31	H3	0.466500	0.603500	0.303200
C51	C5	0.580000	0.694900	0.382600
H41	H4	0.666600	0.677400	0.379400
C61	C6	0.199300	0.626200	0.296800
C71	C7	0.189200	0.600900	0.228700
H51	H5	0.267000	0.615200	0.212100
C81	C8	0.066900	0.555400	0.185500
C91	C9	0.949200	0.532600	0.209500
H61	H6	0.867700	0.500700	0.180800
C101	C10	0.954500	0.557700	0.276000
H71	H7	0.876600	0.542900	0.292300
C111	C11	0.075600	0.604700	0.317900
H81	H8	0.076000	0.623100	0.362200
C121	C12	0.058100	0.531000	0.112300
C131	C13	0.752600	0.097100	0.707100
H91	H9	0.850000	0.112800	0.719500
C141	C14	0.672900	0.153300	0.734200
H101	H10	0.716000	0.204300	0.764600
C151	C15	0.526500	0.134200	0.716300
C161	C16	0.473200	0.054100	0.672100
H111	H11	0.376400	0.036300	0.658900
C171	C17	0.563400	0.002200	0.648500
H121	H12	0.524000	0.949800	0.619200
C181	C18	0.430100	0.191300	0.742500
C191	C19	0.469500	0.247600	0.803000
H131	H13	0.559400	0.251200	0.828200
C201	C20	0.376800	0.300000	0.827800
C211	C21	0.245000	0.294400	0.790600
H141	H14	0.182400	0.328500	0.806900
C221	C22	0.203300	0.237200	0.727600
H151	H15	0.113900	0.233400	0.702000
C231	C23	0.296200	0.187800	0.705000
H161	H16	0.269600	0.150400	0.663300
C241	C24	0.416400	0.359200	0.893600
C251	C25	0.229700	0.760900	0.630400
H171	H17	0.254700	0.795700	0.604600
C261	C26	0.335800	0.726400	0.663500
H181	H18	0.428100	0.737800	0.659000
C271	C27	0.302900	0.674300	0.703600
C281	C28	0.161400	0.662100	0.705200
H191	H19	0.131500	0.628400	0.730900
C291	C29	0.065100	0.697700	0.670600
H201	H20	0.971500	0.686400	0.673200
C301	C30	0.411700	0.639400	0.741900
C311	C31	0.394400	0.623000	0.801200
H211	H21	0.312500	0.634100	0.815600
C321	C32	0.493800	0.591100	0.838900
C331	C33	0.616700	0.575800	0.817800
H221	H22	0.688300	0.557900	0.843900
C341	C34	0.632700	0.587700	0.756400
H231	H23	0.711900	0.573500	0.740700
C351	C35	0.531600	0.620200	0.719800
H241	H24	0.544000	0.629200	0.680000
C361	C36	0.468800	0.573700	0.901100
La21	La2	0.721260	0.479980	0.001660
I51	I5	0.237560	0.006960	0.500450
I61	I6	0.017650	0.223280	0.534210
I71	I7	0.918630	0.024950	0.331840
I81	I8	0.301280	0.217800	0.392880
Cu51	Cu5	0.988780	0.059050	0.462830
Cu61	Cu6	0.248500	0.174210	0.501420
Cu71	Cu7	0.184750	0.058880	0.382330
Cu81	Cu8	0.040160	0.187350	0.407880
O71	O7	0.829800	0.445100	0.905800
O81	O8	0.051000	0.510300	0.923800
O91	O9	0.458500	0.635900	0.073200
O101	O10	0.672100	0.598200	0.085000
O111	O11	0.647000	0.412100	0.084700
O121	O12	0.438500	0.452500	0.064400
N41	N4	0.424300	0.237200	0.569200
N51	N5	0.297000	0.978800	0.335700
N61	N6	0.904200	0.252700	0.366600
C371	C37	0.548400	0.213500	0.564700
H251	H25	0.552100	0.165700	0.531700
C381	C38	0.673200	0.257200	0.607300
H261	H26	0.758500	0.239200	0.601900
C391	C39	0.671000	0.326200	0.657000
C401	C40	0.540200	0.350600	0.662900
H271	H27	0.533500	0.396500	0.696800
C411	C41	0.420000	0.305100	0.617400
H281	H28	0.333400	0.322600	0.620600
C421	C42	0.800700	0.373800	0.703200
C431	C43	0.810800	0.399100	0.771300
H291	H29	0.733000	0.384800	0.787900
C441	C44	0.933100	0.444600	0.814500
C451	C45	0.050800	0.467400	0.790500
H301	H30	0.132300	0.499300	0.819200
C461	C46	0.045500	0.442300	0.724000
H311	H31	0.123400	0.457100	0.707700
C471	C47	0.924400	0.395300	0.682100
H321	H32	0.924000	0.376900	0.637800
C481	C48	0.941900	0.469000	0.887700
C491	C49	0.247400	0.902900	0.292900
H331	H33	0.150000	0.887200	0.280500
C501	C50	0.327100	0.846700	0.265800
H341	H34	0.284000	0.795700	0.235400
C511	C51	0.473500	0.865800	0.283700
C521	C52	0.526800	0.945900	0.327900
H351	H35	0.623600	0.963700	0.341100
C531	C53	0.436600	0.997800	0.351500
H361	H36	0.476000	0.050200	0.380800
C541	C54	0.569900	0.808700	0.257500
C551	C55	0.530500	0.752400	0.197000
H371	H37	0.440600	0.748800	0.171800
C561	C56	0.623200	0.700000	0.172200
C571	C57	0.755000	0.705600	0.209400
H381	H38	0.817600	0.671500	0.193100
C581	C58	0.796700	0.762800	0.272400
H391	H39	0.886100	0.766600	0.298000
C591	C59	0.703800	0.812200	0.295000
H401	H40	0.730400	0.849600	0.336700
C601	C60	0.583600	0.640800	0.106400
C611	C61	0.770300	0.239100	0.369600
H411	H41	0.745300	0.204300	0.395400
C621	C62	0.664200	0.273600	0.336500
H421	H42	0.571900	0.262200	0.341000
C631	C63	0.697100	0.325700	0.296400
C641	C64	0.838600	0.337900	0.294800
H431	H43	0.868500	0.371600	0.269100
C651	C65	0.934900	0.302300	0.329400
H441	H44	0.028500	0.313600	0.326800
C661	C66	0.588300	0.360600	0.258100
C671	C67	0.605600	0.377000	0.198800
H451	H45	0.687500	0.365900	0.184400
C681	C68	0.506200	0.408900	0.161100
C691	C69	0.383300	0.424200	0.182200
H461	H46	0.311700	0.442100	0.156100
C701	C70	0.367300	0.412300	0.243600
H471	H47	0.288100	0.426500	0.259300
C711	C71	0.468400	0.379800	0.280200
H481	H48	0.456000	0.370800	0.320000
C721	C72	0.531200	0.426300	0.098900
