data_TAKTOR_clean_PM
_symmetry_space_group_name_H-M	'P1'
_cell_length_a	14.932000
_cell_length_b	14.932000
_cell_length_c	11.956000
_cell_angle_alpha	90.000000
_cell_angle_beta	90.000000
_cell_angle_gamma	90.000000
_symmetry_Int_Tables_number 1

loop_
_symmetry_equiv_pos_as_xyz
'x,y,z'

loop_
_atom_site_label
_atom_site_type_symbol
_atom_site_fract_x
_atom_site_fract_y
_atom_site_fract_z
O11	O1	0.399860	0.213480	0.996120
O21	O2	0.378300	0.120900	0.143400
C11	C1	0.408000	0.140300	0.047800
C21	C2	0.454500	0.068600	0.990700
C31	C3	0.460600	0.069800	0.870800
H11	H1	0.437500	0.118400	0.831500
O31	O3	0.899860	0.713480	0.496120
O41	O4	0.878300	0.620900	0.643400
C41	C4	0.908000	0.640300	0.547800
C51	C5	0.954500	0.568600	0.490700
C61	C6	0.960600	0.569800	0.370800
H21	H2	0.937500	0.618400	0.331500
O51	O5	0.100140	0.286520	0.496120
O61	O6	0.121700	0.379100	0.643400
C71	C7	0.092000	0.359700	0.547800
C81	C8	0.045500	0.431400	0.490700
C91	C9	0.039400	0.430200	0.370800
H31	H3	0.062500	0.381600	0.331500
O71	O7	0.600140	0.786520	0.996120
O81	O8	0.621700	0.879100	0.143400
C101	C10	0.592000	0.859700	0.047800
C111	C11	0.545500	0.931400	0.990700
C121	C12	0.539400	0.930200	0.870800
H41	H4	0.562500	0.881600	0.831500
O91	O9	0.786520	0.899860	0.246120
O101	O10	0.879100	0.878300	0.393400
C131	C13	0.859700	0.908000	0.297800
C141	C14	0.931400	0.954500	0.240700
C151	C15	0.930200	0.960600	0.120800
H51	H5	0.881600	0.937500	0.081500
O111	O11	0.286520	0.399860	0.746120
O121	O12	0.379100	0.378300	0.893400
C161	C16	0.359700	0.408000	0.797800
C171	C17	0.431400	0.454500	0.740700
C181	C18	0.430200	0.460600	0.620800
H61	H6	0.381600	0.437500	0.581500
O131	O13	0.713480	0.600140	0.746120
O141	O14	0.620900	0.621700	0.893400
C191	C19	0.640300	0.592000	0.797800
C201	C20	0.568600	0.545500	0.740700
C211	C21	0.569800	0.539400	0.620800
H71	H7	0.618400	0.562500	0.581500
O151	O15	0.213480	0.100140	0.246120
O161	O16	0.120900	0.121700	0.393400
C221	C22	0.140300	0.092000	0.297800
C231	C23	0.068600	0.045500	0.240700
C241	C24	0.069800	0.039400	0.120800
H81	H8	0.118400	0.062500	0.081500
O171	O17	0.100140	0.213480	0.753880
O181	O18	0.121700	0.120900	0.606600
C251	C25	0.092000	0.140300	0.702200
C261	C26	0.045500	0.068600	0.759300
C271	C27	0.039400	0.069800	0.879200
H91	H9	0.062500	0.118400	0.918500
O191	O19	0.600140	0.713480	0.253880
O201	O20	0.621700	0.620900	0.106600
C281	C28	0.592000	0.640300	0.202200
C291	C29	0.545500	0.568600	0.259300
C301	C30	0.539400	0.569800	0.379200
H101	H10	0.562500	0.618400	0.418500
O211	O21	0.399860	0.286520	0.253880
O221	O22	0.378300	0.379100	0.106600
C311	C31	0.408000	0.359700	0.202200
C321	C32	0.454500	0.431400	0.259300
C331	C33	0.460600	0.430200	0.379200
H111	H11	0.437500	0.381600	0.418500
O231	O23	0.899860	0.786520	0.753880
O241	O24	0.878300	0.879100	0.606600
C341	C34	0.908000	0.859700	0.702200
C351	C35	0.954500	0.931400	0.759300
C361	C36	0.960600	0.930200	0.879200
H121	H12	0.937500	0.881600	0.918500
O251	O25	0.713480	0.899860	0.503880
O261	O26	0.620900	0.878300	0.356600
C371	C37	0.640300	0.908000	0.452200
C381	C38	0.568600	0.954500	0.509300
C391	C39	0.569800	0.960600	0.629200
H131	H13	0.618400	0.937500	0.668500
O271	O27	0.213480	0.399860	0.003880
O281	O28	0.120900	0.378300	0.856600
C401	C40	0.140300	0.408000	0.952200
C411	C41	0.068600	0.454500	0.009300
C421	C42	0.069800	0.460600	0.129200
H141	H14	0.118400	0.437500	0.168500
O291	O29	0.786520	0.600140	0.003880
O301	O30	0.879100	0.621700	0.856600
C431	C43	0.859700	0.592000	0.952200
C441	C44	0.931400	0.545500	0.009300
C451	C45	0.930200	0.539400	0.129200
H151	H15	0.881600	0.562500	0.168500
O311	O31	0.286520	0.100140	0.503880
O321	O32	0.379100	0.121700	0.356600
C461	C46	0.359700	0.092000	0.452200
C471	C47	0.431400	0.045500	0.509300
C481	C48	0.430200	0.039400	0.629200
H161	H16	0.381600	0.062500	0.668500
Fe11	Fe1	0.307280	0.307280	0.000000
Fe21	Fe2	0.807280	0.807280	0.500000
Fe31	Fe3	0.192720	0.192720	0.500000
Fe41	Fe4	0.692720	0.807280	0.250000
Fe51	Fe5	0.807280	0.692720	0.750000
Fe61	Fe6	0.192720	0.307280	0.750000
Fe71	Fe7	0.307280	0.192720	0.250000
Fe81	Fe8	0.692720	0.692720	0.000000
O331	O33	0.246800	0.250000	0.125000
H171	H17	0.191600	0.250000	0.125000
O341	O34	0.746800	0.750000	0.625000
H181	H18	0.691600	0.750000	0.625000
O351	O35	0.253200	0.250000	0.625000
H191	H19	0.308400	0.250000	0.625000
O361	O36	0.753200	0.750000	0.125000
H201	H20	0.808400	0.750000	0.125000
O371	O37	0.750000	0.746800	0.375000
H211	H21	0.750000	0.691600	0.375000
O381	O38	0.250000	0.246800	0.875000
H221	H22	0.250000	0.191600	0.875000
O391	O39	0.750000	0.753200	0.875000
H231	H23	0.750000	0.808400	0.875000
O401	O40	0.250000	0.253200	0.375000
H241	H24	0.250000	0.308400	0.375000
C491	C49	0.500000	0.000000	0.046700
H251	H25	0.500000	0.000000	0.124500
C501	C50	0.500000	0.000000	0.812800
C511	C51	0.000000	0.500000	0.546700
H261	H26	0.000000	0.500000	0.624500
C521	C52	0.000000	0.500000	0.312800
C531	C53	0.000000	0.000000	0.296700
H271	H27	0.000000	0.000000	0.374500
C541	C54	0.000000	0.000000	0.062800
C551	C55	0.500000	0.500000	0.796700
H281	H28	0.500000	0.500000	0.874500
C561	C56	0.500000	0.500000	0.562800
C571	C57	0.000000	0.000000	0.703300
H291	H29	0.000000	0.000000	0.625500
C581	C58	0.000000	0.000000	0.937200
C591	C59	0.500000	0.500000	0.203300
H301	H30	0.500000	0.500000	0.125500
C601	C60	0.500000	0.500000	0.437200
C611	C61	0.500000	0.000000	0.453300
H311	H31	0.500000	0.000000	0.375500
C621	C62	0.500000	0.000000	0.687200
C631	C63	0.000000	0.500000	0.953300
H321	H32	0.000000	0.500000	0.875500
C641	C64	0.000000	0.500000	0.187200
