data_TALJUM_charged_PM
_symmetry_space_group_name_H-M	'P1'
_cell_length_a	16.948900
_cell_length_b	20.443600
_cell_length_c	23.126500
_cell_angle_alpha	112.007000
_cell_angle_beta	90.000000
_cell_angle_gamma	90.000000
_symmetry_Int_Tables_number 1

loop_
_symmetry_equiv_pos_as_xyz
'x,y,z'

loop_
_atom_site_label
_atom_site_type_symbol
_atom_site_fract_x
_atom_site_fract_y
_atom_site_fract_z
Cu11	Cu1	0.184440	0.454190	0.051360
Cu21	Cu2	0.399220	0.541780	0.884250
Cu31	Cu3	0.297150	0.061300	0.344270
Cu41	Cu4	0.228700	0.985090	0.942100
Cu51	Cu5	0.684440	0.045810	0.448640
Cu61	Cu6	0.899220	0.958220	0.615750
Cu71	Cu7	0.797150	0.438700	0.155730
Cu81	Cu8	0.728700	0.514910	0.557900
Cu91	Cu9	0.815560	0.545810	0.948640
Cu101	Cu10	0.600780	0.458220	0.115750
Cu111	Cu11	0.702850	0.938700	0.655730
Cu121	Cu12	0.771300	0.014910	0.057900
Cu131	Cu13	0.315560	0.954190	0.551360
Cu141	Cu14	0.100780	0.041780	0.384250
Cu151	Cu15	0.202850	0.561300	0.844270
Cu161	Cu16	0.271300	0.485090	0.442100
Cu171	Cu17	0.500000	0.500000	0.500000
Cu181	Cu18	0.000000	0.000000	0.000000
H11	H1	0.274100	0.430800	0.328400
H21	H2	0.951100	0.479100	0.854600
H31	H3	0.340200	0.552600	0.091300
H41	H4	0.315100	0.607500	0.503000
H51	H5	0.082900	0.459200	0.855000
H61	H6	0.469300	0.382800	0.427700
H71	H7	0.214000	0.040100	0.055000
H81	H8	0.263500	0.863100	0.886700
H91	H9	0.333200	0.935700	0.235400
H101	H10	0.414700	0.401700	0.934600
H111	H11	0.953600	0.612300	0.026200
H121	H12	0.521900	0.384100	0.989700
H131	H13	0.447700	0.535200	0.142100
H141	H14	0.086400	0.598300	0.033700
H151	H15	0.379400	0.655900	0.820800
H161	H16	0.384100	0.705900	0.525400
H171	H17	0.307300	0.168000	0.474600
H181	H18	0.370000	0.387600	0.658800
H191	H19	0.194600	0.578400	0.172300
H201	H20	0.489100	0.540100	0.611500
H211	H21	0.516900	0.558700	0.800400
H221	H22	0.535200	0.539100	0.697300
H231	H23	0.303700	0.406100	0.228100
H241	H24	0.347500	0.422400	0.763100
H251	H25	0.270100	0.386000	0.127000
H261	H26	0.331200	0.768700	0.848700
H271	H27	0.353400	0.664600	0.990500
H281	H28	0.360200	0.274700	0.531500
H291	H29	0.319600	0.894400	0.128300
H301	H30	0.375000	0.828000	0.571300
H311	H31	0.224200	0.602800	0.272200
H321	H32	0.234200	0.716600	0.392900
H331	H33	0.243600	0.085200	0.143000
H341	H34	0.243500	0.836500	0.436200
H351	H35	0.338300	0.787200	0.025500
H361	H36	0.263800	0.122500	0.252800
H371	H37	0.463200	0.276000	0.380800
H381	H38	0.411800	0.164100	0.326400
H391	H39	0.774100	0.069200	0.171600
H401	H40	0.451100	0.020900	0.645400
H411	H41	0.840200	0.947400	0.408700
H421	H42	0.815100	0.892500	0.997000
H431	H43	0.582900	0.040800	0.645000
H441	H44	0.969300	0.117200	0.072300
H451	H45	0.714000	0.459900	0.445000
H461	H46	0.763500	0.636900	0.613300
H471	H47	0.833200	0.564300	0.264600
H481	H48	0.914700	0.098300	0.565400
H491	H49	0.453600	0.887700	0.473800
H501	H50	0.021900	0.115900	0.510300
H511	H51	0.947700	0.964800	0.357900
H521	H52	0.586400	0.901700	0.466300
H531	H53	0.879400	0.844100	0.679200
H541	H54	0.884100	0.794100	0.974600
H551	H55	0.807300	0.332000	0.025400
H561	H56	0.870000	0.112400	0.841200
H571	H57	0.694600	0.921600	0.327700
H581	H58	0.989100	0.959900	0.888500
H591	H59	0.016900	0.941300	0.699600
H601	H60	0.035200	0.960900	0.802700
H611	H61	0.803700	0.093900	0.271900
H621	H62	0.847500	0.077600	0.736900
H631	H63	0.770100	0.114000	0.373000
H641	H64	0.831200	0.731300	0.651300
H651	H65	0.853400	0.835400	0.509500
H661	H66	0.860200	0.225300	0.968500
H671	H67	0.819600	0.605600	0.371700
H681	H68	0.875000	0.672000	0.928700
H691	H69	0.724200	0.897200	0.227800
H701	H70	0.734200	0.783400	0.107100
H711	H71	0.743600	0.414800	0.357000
H721	H72	0.743500	0.663500	0.063800
H731	H73	0.838300	0.712800	0.474500
H741	H74	0.763800	0.377500	0.247200
H751	H75	0.963200	0.224000	0.119200
H761	H76	0.911800	0.335900	0.173600
H771	H77	0.725900	0.569200	0.671600
H781	H78	0.048900	0.520900	0.145400
H791	H79	0.659800	0.447400	0.908700
H801	H80	0.684900	0.392500	0.497000
H811	H81	0.917100	0.540800	0.145000
H821	H82	0.530700	0.617200	0.572300
H831	H83	0.786000	0.959900	0.945000
H841	H84	0.736500	0.136900	0.113300
H851	H85	0.666800	0.064300	0.764600
H861	H86	0.585300	0.598300	0.065400
H871	H87	0.046400	0.387700	0.973800
H881	H88	0.478100	0.615900	0.010300
H891	H89	0.552300	0.464800	0.857900
H901	H90	0.913600	0.401700	0.966300
H911	H91	0.620600	0.344100	0.179200
H921	H92	0.615900	0.294100	0.474600
H931	H93	0.692700	0.832000	0.525400
H941	H94	0.630000	0.612400	0.341200
H951	H95	0.805400	0.421600	0.827700
H961	H96	0.510900	0.459900	0.388500
H971	H97	0.483100	0.441300	0.199600
H981	H98	0.464800	0.460900	0.302700
H991	H99	0.696300	0.593900	0.771900
H1001	H100	0.652500	0.577600	0.236900
H1011	H101	0.729900	0.614000	0.873000
H1021	H102	0.668800	0.231300	0.151300
H1031	H103	0.646600	0.335400	0.009500
H1041	H104	0.639800	0.725300	0.468500
H1051	H105	0.680400	0.105600	0.871700
H1061	H106	0.625000	0.172000	0.428700
H1071	H107	0.775800	0.397200	0.727800
H1081	H108	0.765800	0.283400	0.607100
H1091	H109	0.756400	0.914800	0.857000
H1101	H110	0.756500	0.163500	0.563800
H1111	H111	0.661700	0.212800	0.974500
H1121	H112	0.736200	0.877500	0.747200
H1131	H113	0.536800	0.724000	0.619200
H1141	H114	0.588200	0.835900	0.673600
H1151	H115	0.225900	0.930800	0.828400
H1161	H116	0.548900	0.979100	0.354600
H1171	H117	0.159800	0.052600	0.591300
H1181	H118	0.184900	0.107500	0.003000
H1191	H119	0.417100	0.959200	0.355000
H1201	H120	0.030700	0.882800	0.927700
H1211	H121	0.286000	0.540100	0.555000
H1221	H122	0.236500	0.363100	0.386700
H1231	H123	0.166800	0.435700	0.735400
H1241	H124	0.085300	0.901700	0.434600
H1251	H125	0.546400	0.112300	0.526200
H1261	H126	0.978100	0.884100	0.489700
H1271	H127	0.052300	0.035200	0.642100
H1281	H128	0.413600	0.098300	0.533700
H1291	H129	0.120600	0.155900	0.320800
H1301	H130	0.115900	0.205900	0.025400
H1311	H131	0.192700	0.668000	0.974600
H1321	H132	0.130000	0.887600	0.158800
H1331	H133	0.305400	0.078400	0.672300
H1341	H134	0.010900	0.040100	0.111500
H1351	H135	0.983100	0.058700	0.300400
H1361	H136	0.964800	0.039100	0.197300
H1371	H137	0.196300	0.906100	0.728100
H1381	H138	0.152500	0.922400	0.263100
H1391	H139	0.229900	0.886000	0.627000
H1401	H140	0.168800	0.268700	0.348700
H1411	H141	0.146600	0.164600	0.490500
H1421	H142	0.139800	0.774700	0.031500
H1431	H143	0.180400	0.394400	0.628300
H1441	H144	0.125000	0.328000	0.071300
H1451	H145	0.275800	0.102800	0.772200
H1461	H146	0.265800	0.216600	0.892900
H1471	H147	0.256400	0.585200	0.643000
H1481	H148	0.256500	0.336500	0.936200
H1491	H149	0.161700	0.287200	0.525500
H1501	H150	0.236200	0.622500	0.752800
H1511	H151	0.036800	0.776000	0.880800
H1521	H152	0.088200	0.664100	0.826400
C11	C1	0.366000	0.480000	0.005700
C21	C2	0.186100	0.514500	0.948100
C31	C3	0.097800	0.521300	0.945000
C41	C4	0.301200	0.493800	0.970900
C51	C5	0.978600	0.502300	0.892100
C61	C6	0.377500	0.518200	0.069200
C71	C7	0.057500	0.489300	0.891400
C81	C8	0.314400	0.967000	0.217400
C91	C9	0.420300	0.429700	0.977200
C101	C10	0.327400	0.790600	0.941600
C111	C11	0.979500	0.579600	0.991400
C121	C12	0.484500	0.419000	0.010500
C131	C13	0.295500	0.864100	0.962100
C141	C14	0.306200	0.695600	0.455500
C151	C15	0.440800	0.507100	0.099700
C161	C16	0.059000	0.571700	0.997100
C171	C17	0.365600	0.680900	0.862700
C181	C18	0.351600	0.730800	0.507800
C191	C19	0.339400	0.190100	0.454200
C201	C20	0.282200	0.987700	0.124700
C211	C21	0.453800	0.460600	0.664900
C221	C22	0.303400	0.617900	0.426900
C231	C23	0.445700	0.362900	0.498400
C241	C24	0.398900	0.425400	0.686900
C251	C25	0.265000	0.505700	0.263400
C261	C26	0.215500	0.542400	0.183700
C271	C27	0.414000	0.288700	0.461200
C281	C28	0.279200	0.521500	0.330400
C291	C29	0.483700	0.526100	0.771000
C301	C30	0.464400	0.448200	0.596300
C311	C31	0.497300	0.513100	0.709300
C321	C32	0.279800	0.442100	0.218300
C331	C33	0.386800	0.445500	0.749300
C341	C34	0.259500	0.430800	0.157500
C351	C35	0.340000	0.749700	0.879400
C361	C36	0.355200	0.686700	0.961500
C371	C37	0.370000	0.254400	0.488400
C381	C38	0.307400	0.941700	0.152700
C391	C39	0.347500	0.804800	0.533800
C401	C40	0.274900	0.962000	0.055300
C411	C41	0.233100	0.557000	0.243000
C421	C42	0.264700	0.738000	0.429100
C431	C43	0.263200	0.053600	0.160400
C441	C44	0.269100	0.809900	0.456100
C451	C45	0.339800	0.760000	0.982500
C461	C46	0.273700	0.075100	0.227600
C471	C47	0.430200	0.254900	0.401500
C481	C48	0.398400	0.187500	0.368600
C491	C49	0.866000	0.020000	0.494300
C501	C50	0.686100	0.985500	0.551900
C511	C51	0.597800	0.978700	0.555000
C521	C52	0.801200	0.006200	0.529100
C531	C53	0.478600	0.997700	0.607900
C541	C54	0.877500	0.981800	0.430800
C551	C55	0.557500	0.010700	0.608600
C561	C56	0.814400	0.533000	0.282600
C571	C57	0.920300	0.070300	0.522800
C581	C58	0.827400	0.709400	0.558400
C591	C59	0.479500	0.920400	0.508600
C601	C60	0.984500	0.081000	0.489500
C611	C61	0.795500	0.635900	0.537900
C621	C62	0.806200	0.804400	0.044500
C631	C63	0.940800	0.992900	0.400300
C641	C64	0.559000	0.928300	0.502900
C651	C65	0.865600	0.819100	0.637300
C661	C66	0.851600	0.769200	0.992200
C671	C67	0.839400	0.309900	0.045800
C681	C68	0.782200	0.512300	0.375300
C691	C69	0.953800	0.039400	0.835100
C701	C70	0.803400	0.882100	0.073100
C711	C71	0.945700	0.137100	0.001600
C721	C72	0.898900	0.074600	0.813100
C731	C73	0.765000	0.994300	0.236600
C741	C74	0.715500	0.957600	0.316300
C751	C75	0.914000	0.211300	0.038800
C761	C76	0.779200	0.978500	0.169600
C771	C77	0.983700	0.973900	0.729000
C781	C78	0.964400	0.051800	0.903700
C791	C79	0.997300	0.986900	0.790700
C801	C80	0.779800	0.057900	0.281700
C811	C81	0.886800	0.054500	0.750700
C821	C82	0.759500	0.069200	0.342500
C831	C83	0.840000	0.750300	0.620600
C841	C84	0.855200	0.813300	0.538500
C851	C85	0.870000	0.245600	0.011600
C861	C86	0.807400	0.558300	0.347300
C871	C87	0.847500	0.695200	0.966200
C881	C88	0.774900	0.538000	0.444700
C891	C89	0.733100	0.943000	0.257000
C901	C90	0.764700	0.762000	0.070900
C911	C91	0.763200	0.446400	0.339600
C921	C92	0.769100	0.690100	0.043900
C931	C93	0.839800	0.740000	0.517500
C941	C94	0.773700	0.424900	0.272400
C951	C95	0.930200	0.245100	0.098500
C961	C96	0.898400	0.312500	0.131400
C971	C97	0.634000	0.520000	0.994300
C981	C98	0.813900	0.485500	0.051900
C991	C99	0.902200	0.478700	0.055000
C1001	C100	0.698800	0.506200	0.029100
C1011	C101	0.021400	0.497700	0.107900
C1021	C102	0.622500	0.481800	0.930800
C1031	C103	0.942500	0.510700	0.108600
C1041	C104	0.685600	0.033000	0.782600
C1051	C105	0.579700	0.570300	0.022800
C1061	C106	0.672600	0.209400	0.058400
C1071	C107	0.020500	0.420400	0.008600
C1081	C108	0.515500	0.581000	0.989500
C1091	C109	0.704500	0.135900	0.037900
C1101	C110	0.693800	0.304400	0.544500
C1111	C111	0.559200	0.492900	0.900300
C1121	C112	0.941000	0.428300	0.002900
C1131	C113	0.634400	0.319100	0.137300
C1141	C114	0.648400	0.269200	0.492200
C1151	C115	0.660600	0.809900	0.545800
C1161	C116	0.717800	0.012300	0.875300
C1171	C117	0.546200	0.539400	0.335100
C1181	C118	0.696600	0.382100	0.573100
C1191	C119	0.554300	0.637100	0.501600
C1201	C120	0.601100	0.574600	0.313100
C1211	C121	0.735000	0.494300	0.736600
C1221	C122	0.784500	0.457600	0.816300
C1231	C123	0.586000	0.711300	0.538800
C1241	C124	0.720800	0.478500	0.669600
C1251	C125	0.516300	0.473900	0.229000
C1261	C126	0.535600	0.551800	0.403700
C1271	C127	0.502700	0.486900	0.290700
C1281	C128	0.720200	0.557900	0.781700
C1291	C129	0.613200	0.554500	0.250700
C1301	C130	0.740500	0.569200	0.842500
C1311	C131	0.660000	0.250300	0.120600
C1321	C132	0.644800	0.313300	0.038500
C1331	C133	0.630000	0.745600	0.511600
C1341	C134	0.692600	0.058300	0.847300
C1351	C135	0.652500	0.195200	0.466200
C1361	C136	0.725100	0.038000	0.944700
C1371	C137	0.766900	0.443000	0.757000
C1381	C138	0.735300	0.262000	0.570900
C1391	C139	0.736800	0.946400	0.839600
C1401	C140	0.730900	0.190100	0.543900
C1411	C141	0.660200	0.240000	0.017500
C1421	C142	0.726300	0.924900	0.772400
C1431	C143	0.569800	0.745100	0.598500
C1441	C144	0.601600	0.812500	0.631400
C1451	C145	0.134000	0.980000	0.505700
C1461	C146	0.313900	0.014500	0.448100
C1471	C147	0.402200	0.021300	0.445000
C1481	C148	0.198800	0.993800	0.470900
C1491	C149	0.521400	0.002300	0.392100
C1501	C150	0.122500	0.018200	0.569200
C1511	C151	0.442500	0.989300	0.391400
C1521	C152	0.185600	0.467000	0.717400
C1531	C153	0.079700	0.929700	0.477200
C1541	C154	0.172600	0.290600	0.441600
C1551	C155	0.520500	0.079600	0.491400
C1561	C156	0.015500	0.919000	0.510500
C1571	C157	0.204500	0.364100	0.462100
C1581	C158	0.193800	0.195600	0.955500
C1591	C159	0.059200	0.007100	0.599700
C1601	C160	0.441000	0.071700	0.497100
C1611	C161	0.134400	0.180900	0.362700
C1621	C162	0.148400	0.230800	0.007800
C1631	C163	0.160600	0.690100	0.954200
C1641	C164	0.217800	0.487700	0.624700
C1651	C165	0.046200	0.960600	0.164900
C1661	C166	0.196600	0.117900	0.926900
C1671	C167	0.054300	0.862900	0.998400
C1681	C168	0.101100	0.925400	0.186900
C1691	C169	0.235000	0.005700	0.763400
C1701	C170	0.284500	0.042400	0.683700
C1711	C171	0.086000	0.788700	0.961200
C1721	C172	0.220800	0.021500	0.830400
C1731	C173	0.016300	0.026100	0.271000
C1741	C174	0.035600	0.948200	0.096300
C1751	C175	0.002700	0.013100	0.209300
C1761	C176	0.220200	0.942100	0.718300
C1771	C177	0.113200	0.945500	0.249300
C1781	C178	0.240500	0.930800	0.657500
C1791	C179	0.160000	0.249700	0.379400
C1801	C180	0.144800	0.186700	0.461500
C1811	C181	0.130000	0.754400	0.988400
C1821	C182	0.192600	0.441700	0.652700
C1831	C183	0.152500	0.304800	0.033800
C1841	C184	0.225100	0.462000	0.555300
C1851	C185	0.266900	0.057000	0.743000
C1861	C186	0.235300	0.238000	0.929100
C1871	C187	0.236800	0.553600	0.660400
C1881	C188	0.230900	0.309900	0.956100
C1891	C189	0.160200	0.260000	0.482500
C1901	C190	0.226300	0.575100	0.727600
C1911	C191	0.069800	0.754900	0.901500
C1921	C192	0.101600	0.687500	0.868600
N11	N1	0.226300	0.477700	0.138920
N21	N2	0.232500	0.521000	0.904320
N31	N3	0.224800	0.497000	0.991220
N41	N4	0.307200	0.509000	0.922300
N51	N5	0.296400	0.032100	0.255400
N61	N6	0.275200	0.474200	0.355010
N71	N7	0.307700	0.844800	0.509410
N81	N8	0.428400	0.496900	0.792100
N91	N9	0.494100	0.457100	0.071000
N101	N10	0.934900	0.545600	0.941580
N111	N11	0.294400	0.591800	0.363780
N121	N12	0.371900	0.648000	0.902390
N131	N13	0.301600	0.584200	0.464500
N141	N14	0.468500	0.403400	0.468100
N151	N15	0.237100	0.002300	0.029500
N161	N16	0.266600	0.891600	0.925500
N171	N17	0.444500	0.380500	0.558300
N181	N18	0.305500	0.898400	0.026900
N191	N19	0.351800	0.157000	0.394070
N201	N20	0.483200	0.499600	0.580800
N211	N21	0.726300	0.022300	0.361080
N221	N22	0.732500	0.979000	0.595680
N231	N23	0.724800	0.003000	0.508780
N241	N24	0.807200	0.991000	0.577700
N251	N25	0.796400	0.467900	0.244600
N261	N26	0.775200	0.025800	0.144990
N271	N27	0.807700	0.655200	0.990590
N281	N28	0.928400	0.003100	0.707900
N291	N29	0.994100	0.042900	0.429000
N301	N30	0.434900	0.954400	0.558420
N311	N31	0.794400	0.908200	0.136220
N321	N32	0.871900	0.852000	0.597610
N331	N33	0.801600	0.915800	0.035500
N341	N34	0.968500	0.096600	0.031900
N351	N35	0.737100	0.497700	0.470500
N361	N36	0.766600	0.608400	0.574500
N371	N37	0.944500	0.119500	0.941700
N381	N38	0.805500	0.601600	0.473100
N391	N39	0.851800	0.343000	0.105930
N401	N40	0.983200	0.000400	0.919200
N411	N41	0.773700	0.522300	0.861080
N421	N42	0.767500	0.479000	0.095680
N431	N43	0.775200	0.503000	0.008780
N441	N44	0.692800	0.491000	0.077700
N451	N45	0.703600	0.967900	0.744600
N461	N46	0.724800	0.525800	0.644990
N471	N47	0.692300	0.155200	0.490590
N481	N48	0.571600	0.503100	0.207900
N491	N49	0.505900	0.542900	0.929000
N501	N50	0.065100	0.454400	0.058420
N511	N51	0.705600	0.408200	0.636220
N521	N52	0.628100	0.352000	0.097610
N531	N53	0.698400	0.415800	0.535500
N541	N54	0.531500	0.596600	0.531900
N551	N55	0.762900	0.997700	0.970500
N561	N56	0.733400	0.108400	0.074500
N571	N57	0.555500	0.619500	0.441700
N581	N58	0.694500	0.101600	0.973100
N591	N59	0.648200	0.843000	0.605930
N601	N60	0.516800	0.500400	0.419200
N611	N61	0.273700	0.977700	0.638920
N621	N62	0.267500	0.021000	0.404320
N631	N63	0.275200	0.997000	0.491220
N641	N64	0.192800	0.009000	0.422300
N651	N65	0.203600	0.532100	0.755400
N661	N66	0.224800	0.974200	0.855010
N671	N67	0.192300	0.344800	0.009410
N681	N68	0.071600	0.996900	0.292100
N691	N69	0.005900	0.957100	0.571000
N701	N70	0.565100	0.045600	0.441580
N711	N71	0.205600	0.091800	0.863780
N721	N72	0.128100	0.148000	0.402390
N731	N73	0.198400	0.084200	0.964500
N741	N74	0.031500	0.903400	0.968100
N751	N75	0.262900	0.502300	0.529500
N761	N76	0.233400	0.391600	0.425500
N771	N77	0.055500	0.880500	0.058300
N781	N78	0.194500	0.398400	0.526900
N791	N79	0.148200	0.657000	0.894070
N801	N80	0.016800	0.999600	0.080800
B11	B1	0.111600	0.181200	0.166800
F11	F1	0.153400	0.141200	0.112800
F21	F2	0.162200	0.190500	0.217100
F31	F3	0.040600	0.152200	0.172600
F41	F4	0.102400	0.245500	0.165200
B21	B2	0.236700	0.719600	0.133300
F51	F5	0.211900	0.784400	0.145000
F61	F6	0.235400	0.702600	0.182600
F71	F7	0.191200	0.673900	0.087600
F81	F8	0.311200	0.713700	0.111400
B31	B3	0.750300	0.667200	0.207400
F91	F9	0.688300	0.701300	0.190000
F101	F10	0.750100	0.696100	0.273000
F111	F11	0.814200	0.679100	0.185500
F121	F12	0.731900	0.599500	0.190800
B41	B4	0.611600	0.318800	0.333200
F131	F13	0.653400	0.358800	0.387200
F141	F14	0.662200	0.309500	0.282900
F151	F15	0.540600	0.347800	0.327400
F161	F16	0.602400	0.254500	0.334800
B51	B5	0.736700	0.780400	0.366700
F171	F17	0.711900	0.715600	0.355000
F181	F18	0.735400	0.797400	0.317400
F191	F19	0.691200	0.826100	0.412400
F201	F20	0.811200	0.786300	0.388600
B61	B6	0.250300	0.832800	0.292600
F211	F21	0.188300	0.798700	0.310000
F221	F22	0.250100	0.803900	0.227000
F231	F23	0.314200	0.820900	0.314500
F241	F24	0.231900	0.900500	0.309200
B71	B7	0.888400	0.818800	0.833200
F251	F25	0.846600	0.858800	0.887200
F261	F26	0.837800	0.809500	0.782900
F271	F27	0.959400	0.847800	0.827400
F281	F28	0.897600	0.754500	0.834800
B81	B8	0.763300	0.280400	0.866700
F291	F29	0.788100	0.215600	0.855000
F301	F30	0.764600	0.297400	0.817400
F311	F31	0.808800	0.326100	0.912400
F321	F32	0.688800	0.286300	0.888600
B91	B9	0.249700	0.332800	0.792600
F331	F33	0.311700	0.298700	0.810000
F341	F34	0.249900	0.303900	0.727000
F351	F35	0.185800	0.320900	0.814500
F361	F36	0.268100	0.400500	0.809200
B101	B10	0.388400	0.681200	0.666800
F371	F37	0.346600	0.641200	0.612800
F381	F38	0.337800	0.690500	0.717100
F391	F39	0.459400	0.652200	0.672600
F401	F40	0.397600	0.745500	0.665200
B111	B11	0.263300	0.219600	0.633300
F411	F41	0.288100	0.284400	0.645000
F421	F42	0.264600	0.202600	0.682600
F431	F43	0.308800	0.173900	0.587600
F441	F44	0.188800	0.213700	0.611400
B121	B12	0.749700	0.167200	0.707400
F451	F45	0.811700	0.201300	0.690000
F461	F46	0.749900	0.196100	0.773000
F471	F47	0.685800	0.179100	0.685500
F481	F48	0.768100	0.099500	0.690800
