data_TAMJEY_charged_PM
_symmetry_space_group_name_H-M	'P1'
_cell_length_a	13.954400
_cell_length_b	17.017900
_cell_length_c	17.017900
_cell_angle_alpha	67.173800
_cell_angle_beta	74.137600
_cell_angle_gamma	105.862000
_symmetry_Int_Tables_number 1

loop_
_symmetry_equiv_pos_as_xyz
'x,y,z'

loop_
_atom_site_label
_atom_site_type_symbol
_atom_site_fract_x
_atom_site_fract_y
_atom_site_fract_z
Ag11	Ag1	0.675980	0.871850	0.659660
Ag21	Ag2	0.335640	0.659660	0.468490
Ag31	Ag3	0.804130	0.468490	0.871850
Ag41	Ag4	0.324020	0.128150	0.340340
Ag51	Ag5	0.664360	0.340340	0.531510
Ag61	Ag6	0.195870	0.531510	0.128150
H11	H1	0.388500	0.076800	0.521800
H21	H2	0.528600	0.972200	0.647600
H31	H3	0.422000	0.060500	0.659100
H41	H4	0.479700	0.153900	0.661900
H51	H5	0.574500	0.395700	0.376300
H61	H6	0.846200	0.087400	0.563300
H71	H7	0.846000	0.234200	0.521100
H81	H8	0.476600	0.322400	0.312300
H91	H9	0.910300	0.521800	0.401400
H101	H10	0.176200	0.647600	0.380200
H111	H11	0.081100	0.659100	0.280400
H121	H12	0.141600	0.661900	0.184200
H131	H13	0.950800	0.376300	0.228000
H141	H14	0.409500	0.563300	0.349300
H151	H15	0.367100	0.521100	0.244700
H161	H16	0.788900	0.312300	0.365300
H171	H17	0.311700	0.401400	0.076800
H181	H18	0.556400	0.380200	0.972200
H191	H19	0.361500	0.280400	0.060500
H201	H20	0.325800	0.184200	0.153900
H211	H21	0.178800	0.228000	0.395700
H221	H22	0.758800	0.349300	0.087400
H231	H23	0.611800	0.244700	0.234200
H241	H24	0.154200	0.365300	0.322400
H251	H25	0.611500	0.923200	0.478200
H261	H26	0.471400	0.027800	0.352400
H271	H27	0.578000	0.939500	0.340900
H281	H28	0.520300	0.846100	0.338100
H291	H29	0.425500	0.604300	0.623700
H301	H30	0.153800	0.912600	0.436700
H311	H31	0.154000	0.765800	0.478900
H321	H32	0.523400	0.677600	0.687700
H331	H33	0.089700	0.478200	0.598600
H341	H34	0.823800	0.352400	0.619800
H351	H35	0.918900	0.340900	0.719600
H361	H36	0.858400	0.338100	0.815800
H371	H37	0.049200	0.623700	0.772000
H381	H38	0.590500	0.436700	0.650700
H391	H39	0.632900	0.478900	0.755300
H401	H40	0.211100	0.687700	0.634700
H411	H41	0.688300	0.598600	0.923200
H421	H42	0.443600	0.619800	0.027800
H431	H43	0.638500	0.719600	0.939500
H441	H44	0.674200	0.815800	0.846100
H451	H45	0.821200	0.772000	0.604300
H461	H46	0.241200	0.650700	0.912600
H471	H47	0.388200	0.755300	0.765800
H481	H48	0.845800	0.634700	0.677600
C11	C1	0.588500	0.110900	0.605700
C21	C2	0.480100	0.182000	0.532500
C31	C3	0.423300	0.143500	0.492800
C41	C4	0.594500	0.026500	0.623000
C51	C5	0.485500	0.123100	0.623000
C61	C6	0.535400	0.328900	0.408500
C71	C7	0.778500	0.092900	0.573000
C81	C8	0.778100	0.180100	0.550400
C91	C9	0.473900	0.284400	0.371800
C101	C10	0.194200	0.605700	0.283400
C111	C11	0.012600	0.532500	0.285500
C121	C12	0.916100	0.492800	0.363700
C131	C13	0.217500	0.623000	0.350500
C141	C14	0.108500	0.623000	0.253900
C151	C15	0.943900	0.408500	0.262600
C161	C16	0.351500	0.573000	0.334100
C171	C17	0.328500	0.550400	0.269500
C181	C18	0.845700	0.371800	0.343800
C191	C19	0.477600	0.283400	0.110900
C201	C20	0.298100	0.285500	0.182000
C211	C21	0.279800	0.363700	0.143500
C221	C22	0.568000	0.350500	0.026500
C231	C23	0.362400	0.253900	0.123100
C241	C24	0.206500	0.262600	0.328900
C251	C25	0.685600	0.334100	0.092900
C261	C26	0.598000	0.269500	0.180100
C271	C27	0.189500	0.343800	0.284400
C281	C28	0.411500	0.889100	0.394300
C291	C29	0.519900	0.818000	0.467500
C301	C30	0.576700	0.856500	0.507200
C311	C31	0.405500	0.973500	0.377000
C321	C32	0.514500	0.876900	0.377000
C331	C33	0.464600	0.671100	0.591500
C341	C34	0.221500	0.907100	0.427000
C351	C35	0.221900	0.819900	0.449600
C361	C36	0.526100	0.715600	0.628200
C371	C37	0.805800	0.394300	0.716600
C381	C38	0.987400	0.467500	0.714500
C391	C39	0.083900	0.507200	0.636300
C401	C40	0.782500	0.377000	0.649500
C411	C41	0.891500	0.377000	0.746100
C421	C42	0.056100	0.591500	0.737400
C431	C43	0.648500	0.427000	0.665900
C441	C44	0.671500	0.449600	0.730500
C451	C45	0.154300	0.628200	0.656200
C461	C46	0.522400	0.716600	0.889100
C471	C47	0.701900	0.714500	0.818000
C481	C48	0.720200	0.636300	0.856500
C491	C49	0.432000	0.649500	0.973500
C501	C50	0.637600	0.746100	0.876900
C511	C51	0.793500	0.737400	0.671100
C521	C52	0.314400	0.665900	0.907100
C531	C53	0.402000	0.730500	0.819900
C541	C54	0.810500	0.656200	0.715600
N11	N1	0.688900	0.018800	0.606600
N21	N2	0.537300	0.277200	0.486700
N31	N3	0.684300	0.189800	0.569100
N41	N4	0.414400	0.194400	0.415900
N51	N5	0.295500	0.606600	0.374600
N61	N6	0.024000	0.486700	0.236100
N71	N7	0.253400	0.569100	0.241100
N81	N8	0.830300	0.415900	0.389700
N91	N9	0.670100	0.374600	0.018800
N101	N10	0.260100	0.236100	0.277200
N111	N11	0.494500	0.241100	0.189800
N121	N12	0.220000	0.389700	0.194400
N131	N13	0.311100	0.981200	0.393400
N141	N14	0.462700	0.722800	0.513300
N151	N15	0.315700	0.810200	0.430900
N161	N16	0.585600	0.805600	0.584100
N171	N17	0.704500	0.393400	0.625400
N181	N18	0.976000	0.513300	0.763900
N191	N19	0.746600	0.430900	0.758900
N201	N20	0.169700	0.584100	0.610300
N211	N21	0.329900	0.625400	0.981200
N221	N22	0.739900	0.763900	0.722800
N231	N23	0.505500	0.758900	0.810200
N241	N24	0.780000	0.610300	0.805600
Cl11	Cl1	0.936360	0.682520	0.468740
O11	O1	0.968100	0.768000	0.471000
O21	O2	0.983700	0.631100	0.516500
O31	O3	0.821800	0.643900	0.517300
O41	O4	0.956500	0.701000	0.377300
Cl21	Cl2	0.405100	0.468740	0.848740
O51	O5	0.439100	0.471000	0.761000
O61	O6	0.500200	0.516500	0.852400
O71	O7	0.339100	0.517300	0.838800
O81	O8	0.333800	0.377300	0.921700
Cl31	Cl3	0.253840	0.848740	0.682520
O91	O9	0.200100	0.761000	0.768000
O101	O10	0.352600	0.852400	0.631100
O111	O11	0.177900	0.838800	0.643900
O121	O12	0.255500	0.921700	0.701000
Cl41	Cl4	0.063640	0.317480	0.531260
O131	O13	0.031900	0.232000	0.529000
O141	O14	0.016300	0.368900	0.483500
O151	O15	0.178200	0.356100	0.482700
O161	O16	0.043500	0.299000	0.622700
Cl51	Cl5	0.594900	0.531260	0.151260
O171	O17	0.560900	0.529000	0.239000
O181	O18	0.499800	0.483500	0.147600
O191	O19	0.660900	0.482700	0.161200
O201	O20	0.666200	0.622700	0.078300
Cl61	Cl6	0.746160	0.151260	0.317480
O211	O21	0.799900	0.239000	0.232000
O221	O22	0.647400	0.147600	0.368900
O231	O23	0.822100	0.161200	0.356100
O241	O24	0.744500	0.078300	0.299000
