data_TAMZUE_charged_PM
_symmetry_space_group_name_H-M	'P1'
_cell_length_a	11.145000
_cell_length_b	12.424000
_cell_length_c	22.180000
_cell_angle_alpha	102.016000
_cell_angle_beta	103.475000
_cell_angle_gamma	95.419000
_symmetry_Int_Tables_number 1

loop_
_symmetry_equiv_pos_as_xyz
'x,y,z'

loop_
_atom_site_label
_atom_site_type_symbol
_atom_site_fract_x
_atom_site_fract_y
_atom_site_fract_z
Gd11	Gd1	0.698740	0.553510	0.548650
Gd21	Gd2	0.040600	0.368520	0.050690
Gd31	Gd3	0.301260	0.446490	0.451350
Gd41	Gd4	0.959400	0.631480	0.949310
Co11	Co1	0.677610	0.913710	0.256990
Co21	Co2	0.322390	0.086290	0.743010
H11	H1	0.775700	0.873400	0.388300
H21	H2	0.695200	0.764900	0.450400
H31	H3	0.402300	0.642700	0.297700
H41	H4	0.326400	0.634200	0.193400
H51	H5	0.319400	0.815100	0.065500
H61	H6	0.497200	0.926300	0.129900
H71	H7	0.679500	0.151000	0.224900
H81	H8	0.760900	0.229400	0.159000
H91	H9	0.851100	0.936000	0.080000
H101	H10	0.842700	0.758000	0.081500
H111	H11	0.804400	0.542100	0.186900
H121	H12	0.732300	0.675800	0.250800
H131	H13	0.947600	0.869900	0.280700
H141	H14	0.139400	0.961200	0.348600
H151	H15	0.958800	0.215000	0.412300
H161	H16	0.769400	0.252200	0.417600
H171	H17	0.401500	0.165300	0.334700
H181	H18	0.439800	0.015700	0.267800
H191	H19	0.742700	0.674500	0.681600
H201	H20	0.873800	0.682300	0.666900
H211	H21	0.838200	0.398800	0.601000
H221	H22	0.930300	0.510600	0.617900
H231	H23	0.881400	0.614200	0.483900
H241	H24	0.773200	0.533000	0.431300
H251	H25	0.050900	0.356000	0.180600
H261	H26	0.165600	0.443500	0.185200
H271	H27	0.257200	0.276800	0.032100
H281	H28	0.306400	0.390200	0.082900
H291	H29	0.981700	0.199400	0.934800
H301	H30	0.982600	0.138100	0.977400
H311	H31	0.224300	0.126600	0.611700
H321	H32	0.304800	0.235100	0.549600
H331	H33	0.597700	0.357300	0.702300
H341	H34	0.673600	0.365800	0.806600
H351	H35	0.680600	0.184900	0.934500
H361	H36	0.502800	0.073700	0.870100
H371	H37	0.320500	0.849000	0.775100
H381	H38	0.239100	0.770600	0.841000
H391	H39	0.148900	0.064000	0.920000
H401	H40	0.157300	0.242000	0.918500
H411	H41	0.195600	0.457900	0.813100
H421	H42	0.267700	0.324200	0.749200
H431	H43	0.052400	0.130100	0.719300
H441	H44	0.860600	0.038800	0.651400
H451	H45	0.041200	0.785000	0.587700
H461	H46	0.230600	0.747800	0.582400
H471	H47	0.598500	0.834700	0.665300
H481	H48	0.560200	0.984300	0.732200
H491	H49	0.257300	0.325500	0.318400
H501	H50	0.126200	0.317700	0.333100
H511	H51	0.161800	0.601200	0.399000
H521	H52	0.069700	0.489400	0.382100
H531	H53	0.118600	0.385800	0.516100
H541	H54	0.226800	0.467000	0.568700
H551	H55	0.949100	0.644000	0.819400
H561	H56	0.834400	0.556500	0.814800
H571	H57	0.742800	0.723200	0.967900
H581	H58	0.693600	0.609800	0.917100
H591	H59	0.018300	0.800600	0.065200
H601	H60	0.017400	0.861900	0.022600
C11	C1	0.699200	0.827600	0.370800
C21	C2	0.652500	0.759100	0.408200
C31	C3	0.546500	0.687000	0.380900
C41	C4	0.477800	0.689400	0.317000
C51	C5	0.522500	0.758400	0.285900
C61	C6	0.466300	0.768800	0.221500
C71	C7	0.360400	0.693500	0.180100
C81	C8	0.306300	0.710200	0.117300
C91	C9	0.356400	0.798200	0.103800
C101	C10	0.461900	0.867900	0.143600
C111	C11	0.493500	0.608000	0.415300
C121	C12	0.193200	0.630400	0.073800
C131	C13	0.715900	0.108000	0.196600
C141	C14	0.761700	0.154000	0.157000
C151	C15	0.812900	0.088900	0.111100
C161	C16	0.818600	0.980000	0.109800
C171	C17	0.774000	0.936700	0.154800
C181	C18	0.770100	0.817400	0.156200
C191	C19	0.816300	0.739200	0.115300
C201	C20	0.821900	0.635100	0.126000
C211	C21	0.795100	0.610600	0.177100
C221	C22	0.751800	0.694500	0.215400
C231	C23	0.865100	0.142500	0.067700
C241	C24	0.879300	0.560900	0.083800
C251	C25	0.951200	0.938000	0.308600
C261	C26	0.067500	0.994100	0.347200
C271	C27	0.071300	0.097300	0.381900
C281	C28	0.956600	0.145600	0.385900
C291	C29	0.846700	0.082600	0.348500
C301	C30	0.724000	0.114800	0.349700
C311	C31	0.702500	0.203800	0.388400
C321	C32	0.578400	0.226200	0.385800
C331	C33	0.483400	0.152200	0.338800
C341	C34	0.505400	0.062300	0.298900
C351	C35	0.193100	0.170400	0.417000
C361	C36	0.543500	0.322200	0.427900
C371	C37	0.300800	0.172400	0.629200
C381	C38	0.347500	0.240900	0.591800
C391	C39	0.453500	0.313000	0.619100
C401	C40	0.522200	0.310600	0.683000
C411	C41	0.477500	0.241600	0.714100
C421	C42	0.533700	0.231200	0.778500
C431	C43	0.639600	0.306500	0.819900
C441	C44	0.693700	0.289800	0.882700
C451	C45	0.643600	0.201800	0.896200
C461	C46	0.538100	0.132100	0.856400
C471	C47	0.506500	0.392000	0.584700
C481	C48	0.806800	0.369600	0.926200
C491	C49	0.284100	0.892000	0.803400
C501	C50	0.238300	0.846000	0.843000
C511	C51	0.187100	0.911100	0.888900
C521	C52	0.181400	0.020000	0.890200
C531	C53	0.226000	0.063300	0.845200
C541	C54	0.229900	0.182600	0.843800
C551	C55	0.183700	0.260800	0.884700
C561	C56	0.178100	0.364900	0.874000
C571	C57	0.204900	0.389400	0.822900
C581	C58	0.248200	0.305500	0.784600
C591	C59	0.134900	0.857500	0.932300
C601	C60	0.120700	0.439100	0.916200
C611	C61	0.048800	0.062000	0.691400
C621	C62	0.932500	0.005900	0.652800
C631	C63	0.928700	0.902700	0.618100
C641	C64	0.043400	0.854400	0.614100
C651	C65	0.153300	0.917400	0.651500
C661	C66	0.276000	0.885200	0.650300
C671	C67	0.297500	0.796200	0.611600
C681	C68	0.421600	0.773800	0.614200
C691	C69	0.516600	0.847800	0.661200
C701	C70	0.494600	0.937700	0.701100
C711	C71	0.806900	0.829600	0.583000
C721	C72	0.456500	0.677800	0.572100
N11	N1	0.632400	0.826600	0.309200
N21	N2	0.514600	0.852500	0.202100
N31	N3	0.720300	0.992900	0.197600
N41	N4	0.734800	0.792200	0.209700
N51	N5	0.844000	0.979200	0.310700
N61	N6	0.623500	0.041100	0.304800
N71	N7	0.367600	0.173400	0.690800
N81	N8	0.485400	0.147500	0.797900
N91	N9	0.279700	0.007100	0.802400
N101	N10	0.265200	0.207800	0.790300
N111	N11	0.156000	0.020800	0.689300
N121	N12	0.376500	0.958900	0.695200
O11	O1	0.570100	0.590200	0.462100
O21	O2	0.378200	0.566900	0.399730
O31	O3	0.160100	0.548900	0.090300
O41	O4	0.144300	0.659600	0.028100
O51	O5	0.909000	0.244900	0.081700
O61	O6	0.871200	0.076000	0.016400
O71	O7	0.904600	0.584300	0.036700
O81	O8	0.908300	0.472100	0.103300
O91	O9	0.286900	0.125200	0.428300
O101	O10	0.195200	0.273200	0.438600
O111	O11	0.636600	0.377700	0.471000
O121	O12	0.443800	0.353100	0.413000
O131	O13	0.798600	0.633400	0.662400
O141	O14	0.867300	0.459200	0.584700
O151	O15	0.826000	0.545200	0.473800
O161	O16	0.119400	0.371500	0.162800
O171	O17	0.246800	0.323300	0.070400
O181	O18	0.020800	0.190000	0.974700
O191	O19	0.429900	0.409800	0.537900
O201	O20	0.621800	0.433100	0.600270
O211	O21	0.839900	0.451100	0.909700
O221	O22	0.855700	0.340400	0.971900
O231	O23	0.091000	0.755100	0.918300
O241	O24	0.128800	0.924000	0.983600
O251	O25	0.095400	0.415700	0.963300
O261	O26	0.091700	0.527900	0.896700
O271	O27	0.713100	0.874800	0.571700
O281	O28	0.804800	0.726800	0.561400
O291	O29	0.363400	0.622300	0.529000
O301	O30	0.556200	0.646900	0.587000
O311	O31	0.201400	0.366600	0.337600
O321	O32	0.132700	0.540800	0.415300
O331	O33	0.174000	0.454800	0.526200
O341	O34	0.880600	0.628500	0.837200
O351	O35	0.753200	0.676700	0.929600
O361	O36	0.979200	0.810000	0.025300
N131	N13	0.861800	0.035900	0.799400
O371	O37	0.902100	0.947800	0.797200
O381	O38	0.909200	0.116800	0.844400
O391	O39	0.775100	0.045900	0.758100
N141	N14	0.123400	0.604700	0.708900
O401	O40	0.038600	0.623600	0.734900
O411	O41	0.211700	0.570900	0.738300
O421	O42	0.125000	0.628900	0.658400
N151	N15	0.211600	0.848700	0.461600
O431	O43	0.316500	0.897100	0.477600
O441	O44	0.189700	0.747900	0.437600
O451	O45	0.123800	0.898700	0.468500
N161	N16	0.138200	0.964100	0.200600
O461	O46	0.097900	0.052200	0.202800
O471	O47	0.090800	0.883200	0.155600
O481	O48	0.224900	0.954100	0.241900
N171	N17	0.876600	0.395300	0.291100
O491	O49	0.961400	0.376400	0.265100
O501	O50	0.788300	0.429100	0.261700
O511	O51	0.875000	0.371100	0.341600
N181	N18	0.788400	0.151300	0.538400
O521	O52	0.683500	0.102900	0.522400
O531	O53	0.810300	0.252100	0.562400
O541	O54	0.876200	0.101300	0.531500
