data_TANBOZ_clean_PM
_symmetry_space_group_name_H-M	'P1'
_cell_length_a	8.582000
_cell_length_b	11.745000
_cell_length_c	12.979000
_cell_angle_alpha	90.000000
_cell_angle_beta	90.000000
_cell_angle_gamma	101.100000
_symmetry_Int_Tables_number 1

loop_
_symmetry_equiv_pos_as_xyz
'x,y,z'

loop_
_atom_site_label
_atom_site_type_symbol
_atom_site_fract_x
_atom_site_fract_y
_atom_site_fract_z
Cu11	Cu1	0.955890	0.646210	0.801310
Cu21	Cu2	0.051930	0.901190	0.489730
Cu31	Cu3	0.544110	0.853790	0.301310
Cu41	Cu4	0.448070	0.598810	0.989730
Cu51	Cu5	0.044110	0.353790	0.198690
Cu61	Cu6	0.948070	0.098810	0.510270
Cu71	Cu7	0.455890	0.146210	0.698690
Cu81	Cu8	0.551930	0.401190	0.010270
C11	C1	0.638400	0.578500	0.914100
C21	C2	0.981500	0.734000	0.677000
C31	C3	0.133800	0.616400	0.873700
C41	C4	0.861600	0.921500	0.414100
C51	C5	0.518500	0.766000	0.177000
C61	C6	0.366200	0.883600	0.373700
C71	C7	0.361600	0.421500	0.085900
C81	C8	0.018500	0.266000	0.323000
C91	C9	0.866200	0.383600	0.126300
C101	C10	0.138400	0.078500	0.585900
C111	C11	0.481500	0.234000	0.823000
C121	C12	0.633800	0.116400	0.626300
N11	N1	0.751200	0.597000	0.867000
N21	N2	0.007200	0.793000	0.607800
N31	N3	0.251000	0.608000	0.915400
N41	N4	0.748800	0.903000	0.367000
N51	N5	0.492800	0.707000	0.107800
N61	N6	0.249000	0.892000	0.415400
N71	N7	0.248800	0.403000	0.133000
N81	N8	0.992800	0.207000	0.392200
N91	N9	0.749000	0.392000	0.084600
N101	N10	0.251200	0.097000	0.633000
N111	N11	0.507200	0.293000	0.892200
N121	N12	0.751000	0.108000	0.584600
