data_TANBER_charged_PM
_symmetry_space_group_name_H-M	'P1'
_cell_length_a	11.239700
_cell_length_b	12.496400
_cell_length_c	22.302000
_cell_angle_alpha	102.114000
_cell_angle_beta	103.410000
_cell_angle_gamma	95.597000
_symmetry_Int_Tables_number 1

loop_
_symmetry_equiv_pos_as_xyz
'x,y,z'

loop_
_atom_site_label
_atom_site_type_symbol
_atom_site_fract_x
_atom_site_fract_y
_atom_site_fract_z
Sm11	Sm1	0.301330	0.446590	0.451220
Sm21	Sm2	0.959710	0.631530	0.949410
Sm31	Sm3	0.698670	0.553410	0.548780
Sm41	Sm4	0.040290	0.368470	0.050590
Co11	Co1	0.321980	0.086320	0.742860
Co21	Co2	0.678020	0.913680	0.257140
H11	H1	0.224400	0.128300	0.611500
H21	H2	0.305600	0.234100	0.549800
H31	H3	0.594500	0.358800	0.702300
H41	H4	0.673200	0.366600	0.808000
H51	H5	0.681600	0.181400	0.932500
H61	H6	0.501800	0.074000	0.869700
H71	H7	0.318800	0.849100	0.774600
H81	H8	0.238600	0.772600	0.840800
H91	H9	0.151100	0.063000	0.920500
H101	H10	0.157400	0.241700	0.918600
H111	H11	0.197800	0.458000	0.813200
H121	H12	0.267800	0.325300	0.749600
H131	H13	0.051100	0.131000	0.719600
H141	H14	0.863300	0.040100	0.651300
H151	H15	0.041800	0.785800	0.587200
H161	H16	0.232400	0.750200	0.581100
H171	H17	0.598200	0.832300	0.665500
H181	H18	0.560600	0.984600	0.731400
H191	H19	0.257700	0.325500	0.318400
H201	H20	0.126700	0.317600	0.333100
H211	H21	0.161000	0.600300	0.398200
H221	H22	0.068900	0.488500	0.381400
H231	H23	0.118000	0.385100	0.516200
H241	H24	0.226100	0.466300	0.568800
H251	H25	0.949000	0.643600	0.819300
H261	H26	0.834300	0.556000	0.814700
H271	H27	0.743800	0.724100	0.968800
H281	H28	0.694700	0.610700	0.918000
H291	H29	0.018600	0.800700	0.065700
H301	H30	0.017600	0.862000	0.023100
H311	H31	0.775600	0.871700	0.388500
H321	H32	0.694400	0.765900	0.450200
H331	H33	0.405500	0.641200	0.297700
H341	H34	0.326800	0.633400	0.192000
H351	H35	0.318400	0.818600	0.067500
H361	H36	0.498200	0.926000	0.130300
H371	H37	0.681200	0.150900	0.225400
H381	H38	0.761400	0.227400	0.159200
H391	H39	0.848900	0.937000	0.079500
H401	H40	0.842600	0.758300	0.081400
H411	H41	0.802200	0.542000	0.186800
H421	H42	0.732200	0.674700	0.250400
H431	H43	0.948900	0.869000	0.280400
H441	H44	0.136700	0.959900	0.348700
H451	H45	0.958200	0.214200	0.412800
H461	H46	0.767600	0.249800	0.418900
H471	H47	0.401800	0.167700	0.334500
H481	H48	0.439400	0.015400	0.268600
H491	H49	0.742300	0.674500	0.681600
H501	H50	0.873300	0.682400	0.666900
H511	H51	0.839000	0.399700	0.601800
H521	H52	0.931100	0.511500	0.618600
H531	H53	0.882000	0.614900	0.483800
H541	H54	0.773900	0.533700	0.431200
H551	H55	0.051000	0.356400	0.180700
H561	H56	0.165700	0.444000	0.185300
H571	H57	0.256200	0.275900	0.031200
H581	H58	0.305300	0.389300	0.082000
H591	H59	0.981400	0.199300	0.934300
H601	H60	0.982400	0.138000	0.976900
C11	C1	0.301000	0.173200	0.629000
C21	C2	0.348000	0.240500	0.591800
C31	C3	0.453500	0.312500	0.618120
C41	C4	0.520700	0.310700	0.682600
C51	C5	0.477400	0.240700	0.713750
C61	C6	0.533900	0.231500	0.778610
C71	C7	0.639700	0.306800	0.820700
C81	C8	0.693000	0.290000	0.881500
C91	C9	0.643300	0.199500	0.895100
C101	C10	0.537600	0.131500	0.856000
C111	C11	0.505000	0.392300	0.585250
C121	C12	0.805400	0.368600	0.924900
C131	C13	0.283200	0.892000	0.802900
C141	C14	0.237800	0.847600	0.842840
C151	C15	0.187500	0.910200	0.888900
C161	C16	0.182700	0.019500	0.890400
C171	C17	0.226700	0.065100	0.845600
C181	C18	0.229400	0.182100	0.843800
C191	C19	0.183600	0.260400	0.885000
C201	C20	0.178400	0.364700	0.874500
C211	C21	0.206200	0.389700	0.822800
C221	C22	0.248100	0.306600	0.784750
C231	C23	0.133200	0.857100	0.931800
C241	C24	0.121700	0.439500	0.915600
C251	C25	0.047800	0.063300	0.691700
C261	C26	0.934400	0.007200	0.653100
C271	C27	0.929100	0.903100	0.618100
C281	C28	0.043800	0.854500	0.613780
C291	C29	0.153000	0.918000	0.651700
C301	C30	0.275800	0.885500	0.649770
C311	C31	0.298300	0.797900	0.610900
C321	C32	0.422500	0.775200	0.614080
C331	C33	0.517400	0.846700	0.661000
C341	C34	0.495500	0.937500	0.700700
C351	C35	0.807400	0.829000	0.582400
C361	C36	0.457700	0.679200	0.572000
C371	C37	0.699000	0.826800	0.371000
C381	C38	0.652000	0.759500	0.408200
C391	C39	0.546500	0.687500	0.381880
C401	C40	0.479300	0.689300	0.317400
C411	C41	0.522600	0.759300	0.286250
C421	C42	0.466100	0.768500	0.221390
C431	C43	0.360300	0.693200	0.179300
C441	C44	0.307000	0.710000	0.118500
C451	C45	0.356700	0.800500	0.104900
C461	C46	0.462400	0.868500	0.144000
C471	C47	0.495000	0.607700	0.414750
C481	C48	0.194600	0.631400	0.075100
C491	C49	0.716800	0.108000	0.197100
C501	C50	0.762200	0.152400	0.157160
C511	C51	0.812500	0.089800	0.111100
C521	C52	0.817300	0.980500	0.109600
C531	C53	0.773300	0.934900	0.154400
C541	C54	0.770600	0.817900	0.156200
C551	C55	0.816400	0.739600	0.115000
C561	C56	0.821600	0.635300	0.125500
C571	C57	0.793800	0.610300	0.177200
C581	C58	0.751900	0.693400	0.215250
C591	C59	0.866800	0.142900	0.068200
C601	C60	0.878300	0.560500	0.084400
C611	C61	0.952200	0.936700	0.308300
C621	C62	0.065600	0.992800	0.346900
C631	C63	0.070900	0.096900	0.381900
C641	C64	0.956200	0.145500	0.386220
C651	C65	0.847000	0.082000	0.348300
C661	C66	0.724200	0.114500	0.350230
C671	C67	0.701700	0.202100	0.389100
C681	C68	0.577500	0.224800	0.385920
C691	C69	0.482600	0.153300	0.339000
C701	C70	0.504500	0.062500	0.299300
C711	C71	0.192600	0.171000	0.417600
C721	C72	0.542300	0.320800	0.428000
N11	N1	0.367100	0.173400	0.690370
N21	N2	0.484300	0.147200	0.797440
N31	N3	0.278200	0.007500	0.802800
N41	N4	0.264300	0.207000	0.790080
N51	N5	0.155400	0.020900	0.689600
N61	N6	0.376300	0.958400	0.694690
N71	N7	0.632900	0.826600	0.309630
N81	N8	0.515700	0.852800	0.202560
N91	N9	0.721800	0.992500	0.197200
N101	N10	0.735700	0.793000	0.209920
N111	N11	0.844600	0.979100	0.310400
N121	N12	0.623700	0.041600	0.305310
O11	O1	0.429700	0.410100	0.538090
O21	O2	0.619600	0.432100	0.600600
O31	O3	0.839300	0.451100	0.908620
O41	O4	0.855600	0.340600	0.971460
O51	O5	0.091600	0.755100	0.918240
O61	O6	0.128600	0.923600	0.983590
O71	O7	0.095300	0.415700	0.963020
O81	O8	0.091100	0.527100	0.896370
O91	O9	0.713400	0.874000	0.571270
O101	O10	0.804900	0.726500	0.561290
O111	O11	0.363600	0.623300	0.529250
O121	O12	0.555700	0.646700	0.586810
O131	O13	0.201800	0.366500	0.337570
O141	O14	0.131800	0.539900	0.414570
O151	O15	0.173300	0.454100	0.526370
O161	O16	0.880500	0.628100	0.837160
O171	O17	0.754200	0.677600	0.930560
O181	O18	0.979400	0.810200	0.025770
O191	O19	0.570300	0.589900	0.461910
O201	O20	0.380400	0.567900	0.399400
O211	O21	0.160700	0.548900	0.091380
O221	O22	0.144400	0.659400	0.028540
O231	O23	0.908400	0.244900	0.081760
O241	O24	0.871400	0.076400	0.016410
O251	O25	0.904700	0.584300	0.036980
O261	O26	0.908900	0.472900	0.103630
O271	O27	0.286600	0.126000	0.428730
O281	O28	0.195100	0.273500	0.438710
O291	O29	0.636400	0.376700	0.470750
O301	O30	0.444300	0.353300	0.413190
O311	O31	0.798200	0.633500	0.662430
O321	O32	0.868200	0.460100	0.585430
O331	O33	0.826700	0.545900	0.473630
O341	O34	0.119500	0.371900	0.162840
O351	O35	0.245800	0.322400	0.069440
O361	O36	0.020600	0.189800	0.974230
N131	N13	0.861500	0.036100	0.799180
O371	O37	0.902200	0.948300	0.797170
O381	O38	0.909400	0.117200	0.844200
O391	O39	0.775200	0.045900	0.757920
N141	N14	0.123800	0.604700	0.709200
O401	O40	0.038100	0.623500	0.734970
O411	O41	0.212000	0.571300	0.738530
O421	O42	0.125600	0.628800	0.658530
N151	N15	0.212100	0.849300	0.461430
O431	O43	0.317200	0.896700	0.477210
O441	O44	0.189200	0.748100	0.437720
O451	O45	0.123900	0.898500	0.468390
N161	N16	0.138500	0.963900	0.200820
O461	O46	0.097800	0.051700	0.202830
O471	O47	0.090600	0.882800	0.155800
O481	O48	0.224800	0.954100	0.242080
N171	N17	0.876200	0.395300	0.290800
O491	O49	0.961900	0.376500	0.265030
O501	O50	0.788000	0.428700	0.261470
O511	O51	0.874400	0.371200	0.341470
N181	N18	0.787900	0.150700	0.538570
O521	O52	0.682800	0.103300	0.522790
O531	O53	0.810800	0.251900	0.562280
O541	O54	0.876100	0.101500	0.531610
