data_TANFEV_clean_PM
_symmetry_space_group_name_H-M	'P1'
_cell_length_a	17.110000
_cell_length_b	17.110000
_cell_length_c	10.740000
_cell_angle_alpha	90.000000
_cell_angle_beta	90.000000
_cell_angle_gamma	90.000000
_symmetry_Int_Tables_number 1

loop_
_symmetry_equiv_pos_as_xyz
'x,y,z'

loop_
_atom_site_label
_atom_site_type_symbol
_atom_site_fract_x
_atom_site_fract_y
_atom_site_fract_z
Mo11	Mo1	0.660720	0.940740	0.192360
P11	P1	0.635820	0.832240	0.446870
O11	O1	0.573200	0.929900	0.109300
O21	O2	0.750200	0.964800	0.334600
O31	O3	0.706600	0.850400	0.168200
O41	O4	0.608000	0.894200	0.352000
O51	O5	0.567900	0.819200	0.534400
O61	O6	0.661100	0.757100	0.381500
O71	O7	0.704600	0.866700	0.522900
Mo21	Mo2	0.160720	0.440740	0.692360
P21	P2	0.135820	0.332240	0.946870
O81	O8	0.073200	0.429900	0.609300
O91	O9	0.250200	0.464800	0.834600
O101	O10	0.206600	0.350400	0.668200
O111	O11	0.108000	0.394200	0.852000
O121	O12	0.067900	0.319200	0.034400
O131	O13	0.161100	0.257100	0.881500
O141	O14	0.204600	0.366700	0.022900
Mo31	Mo3	0.839280	0.059260	0.692360
P31	P3	0.864180	0.167760	0.946870
O151	O15	0.926800	0.070100	0.609300
O161	O16	0.749800	0.035200	0.834600
O171	O17	0.793400	0.149600	0.668200
O181	O18	0.892000	0.105800	0.852000
O191	O19	0.932100	0.180800	0.034400
O201	O20	0.838900	0.242900	0.881500
O211	O21	0.795400	0.133300	0.022900
Mo41	Mo4	0.339280	0.559260	0.192360
P41	P4	0.364180	0.667760	0.446870
O221	O22	0.426800	0.570100	0.109300
O231	O23	0.249800	0.535200	0.334600
O241	O24	0.293400	0.649600	0.168200
O251	O25	0.392000	0.605800	0.352000
O261	O26	0.432100	0.680800	0.534400
O271	O27	0.338900	0.742900	0.381500
O281	O28	0.295400	0.633300	0.522900
Mo51	Mo5	0.809260	0.910720	0.442360
P51	P5	0.917760	0.885820	0.696870
O291	O29	0.820100	0.823200	0.359300
O301	O30	0.785200	0.000200	0.584600
O311	O31	0.899600	0.956600	0.418200
O321	O32	0.855800	0.858000	0.602000
O331	O33	0.930800	0.817900	0.784400
O341	O34	0.992900	0.911100	0.631500
O351	O35	0.883300	0.954600	0.772900
Mo61	Mo6	0.309260	0.410720	0.942360
P61	P6	0.417760	0.385820	0.196870
O361	O36	0.320100	0.323200	0.859300
O371	O37	0.285200	0.500200	0.084600
O381	O38	0.399600	0.456600	0.918200
O391	O39	0.355800	0.358000	0.102000
O401	O40	0.430800	0.317900	0.284400
O411	O41	0.492900	0.411100	0.131500
O421	O42	0.383300	0.454600	0.272900
Mo71	Mo7	0.690740	0.089280	0.942360
P71	P7	0.582240	0.114180	0.196870
O431	O43	0.679900	0.176800	0.859300
O441	O44	0.714800	0.999800	0.084600
O451	O45	0.600400	0.043400	0.918200
O461	O46	0.644200	0.142000	0.102000
O471	O47	0.569200	0.182100	0.284400
O481	O48	0.507100	0.088900	0.131500
O491	O49	0.616700	0.045400	0.272900
Mo81	Mo8	0.190740	0.589280	0.442360
P81	P8	0.082240	0.614180	0.696870
O501	O50	0.179900	0.676800	0.359300
O511	O51	0.214800	0.499800	0.584600
O521	O52	0.100400	0.543400	0.418200
O531	O53	0.144200	0.642000	0.602000
O541	O54	0.069200	0.682100	0.784400
O551	O55	0.007100	0.588900	0.631500
O561	O56	0.116700	0.545400	0.772900
Mo91	Mo9	0.339280	0.059260	0.807640
P91	P9	0.364180	0.167760	0.553130
O571	O57	0.426800	0.070100	0.890700
O581	O58	0.249800	0.035200	0.665400
O591	O59	0.293400	0.149600	0.831800
O601	O60	0.392000	0.105800	0.648000
O611	O61	0.432100	0.180800	0.465600
O621	O62	0.338900	0.242900	0.618500
O631	O63	0.295400	0.133300	0.477100
Mo101	Mo10	0.839280	0.559260	0.307640
P101	P10	0.864180	0.667760	0.053130
O641	O64	0.926800	0.570100	0.390700
O651	O65	0.749800	0.535200	0.165400
O661	O66	0.793400	0.649600	0.331800
O671	O67	0.892000	0.605800	0.148000
O681	O68	0.932100	0.680800	0.965600
O691	O69	0.838900	0.742900	0.118500
O701	O70	0.795400	0.633300	0.977100
Mo111	Mo11	0.160720	0.940740	0.307640
P111	P11	0.135820	0.832240	0.053130
O711	O71	0.073200	0.929900	0.390700
O721	O72	0.250200	0.964800	0.165400
O731	O73	0.206600	0.850400	0.331800
O741	O74	0.108000	0.894200	0.148000
O751	O75	0.067900	0.819200	0.965600
O761	O76	0.161100	0.757100	0.118500
O771	O77	0.204600	0.866700	0.977100
Mo121	Mo12	0.660720	0.440740	0.807640
P121	P12	0.635820	0.332240	0.553130
O781	O78	0.573200	0.429900	0.890700
O791	O79	0.750200	0.464800	0.665400
O801	O80	0.706600	0.350400	0.831800
O811	O81	0.608000	0.394200	0.648000
O821	O82	0.567900	0.319200	0.465600
O831	O83	0.661100	0.257100	0.618500
O841	O84	0.704600	0.366700	0.477100
Mo131	Mo13	0.190740	0.089280	0.557640
P131	P13	0.082240	0.114180	0.303130
O851	O85	0.179900	0.176800	0.640700
O861	O86	0.214800	0.999800	0.415400
O871	O87	0.100400	0.043400	0.581800
O881	O88	0.144200	0.142000	0.398000
O891	O89	0.069200	0.182100	0.215600
O901	O90	0.007100	0.088900	0.368500
O911	O91	0.116700	0.045400	0.227100
Mo141	Mo14	0.690740	0.589280	0.057640
P141	P14	0.582240	0.614180	0.803130
O921	O92	0.679900	0.676800	0.140700
O931	O93	0.714800	0.499800	0.915400
O941	O94	0.600400	0.543400	0.081800
O951	O95	0.644200	0.642000	0.898000
O961	O96	0.569200	0.682100	0.715600
O971	O97	0.507100	0.588900	0.868500
O981	O98	0.616700	0.545400	0.727100
Mo151	Mo15	0.309260	0.910720	0.057640
P151	P15	0.417760	0.885820	0.803130
O991	O99	0.320100	0.823200	0.140700
O1001	O100	0.285200	0.000200	0.915400
O1011	O101	0.399600	0.956600	0.081800
O1021	O102	0.355800	0.858000	0.898000
O1031	O103	0.430800	0.817900	0.715600
O1041	O104	0.492900	0.911100	0.868500
O1051	O105	0.383300	0.954600	0.727100
Mo161	Mo16	0.809260	0.410720	0.557640
P161	P16	0.917760	0.385820	0.303130
O1061	O106	0.820100	0.323200	0.640700
O1071	O107	0.785200	0.500200	0.415400
O1081	O108	0.899600	0.456600	0.581800
O1091	O109	0.855800	0.358000	0.398000
O1101	O110	0.930800	0.317900	0.215600
O1111	O111	0.992900	0.411100	0.368500
O1121	O112	0.883300	0.454600	0.227100
Co11	Co1	0.750000	0.750000	0.250000
Co21	Co2	0.750000	0.250000	0.750000
Co31	Co3	0.000000	0.000000	0.500000
Co41	Co4	0.500000	0.500000	0.000000
Co51	Co5	0.500000	0.000000	0.000000
Co61	Co6	0.000000	0.500000	0.500000
Co71	Co7	0.250000	0.250000	0.750000
Co81	Co8	0.250000	0.750000	0.250000
Co91	Co9	0.500000	0.750000	0.625000
Co101	Co10	0.000000	0.250000	0.125000
Co111	Co11	0.000000	0.750000	0.875000
Co121	Co12	0.500000	0.250000	0.375000
