data_TAQGEZ_clean_PM
_symmetry_space_group_name_H-M	'P1'
_cell_length_a	7.611100
_cell_length_b	14.239100
_cell_length_c	14.239100
_cell_angle_alpha	61.557800
_cell_angle_beta	74.498600
_cell_angle_gamma	74.498600
_symmetry_Int_Tables_number 1

loop_
_symmetry_equiv_pos_as_xyz
'x,y,z'

loop_
_atom_site_label
_atom_site_type_symbol
_atom_site_fract_x
_atom_site_fract_y
_atom_site_fract_z
Cd11	Cd1	0.500000	0.000000	0.000000
Cd21	Cd2	0.000000	0.000000	0.000000
H11	H1	0.307100	0.416500	0.998100
H21	H2	0.192900	0.001900	0.583500
H31	H3	0.221700	0.583500	0.001900
H41	H4	0.278300	0.998100	0.416500
H51	H5	0.692900	0.583500	0.001900
H61	H6	0.807100	0.998100	0.416500
H71	H7	0.778300	0.416500	0.998100
H81	H8	0.721700	0.001900	0.583500
C11	C1	0.181300	0.450400	0.998800
C21	C2	0.318700	0.001200	0.549600
C31	C3	0.130500	0.549600	0.001200
C41	C4	0.369500	0.998800	0.450400
C51	C5	0.818700	0.549600	0.001200
C61	C6	0.681300	0.998800	0.450400
C71	C7	0.869500	0.450400	0.998800
C81	C8	0.630500	0.001200	0.549600
C91	C9	0.106200	0.290400	0.997200
C101	C10	0.051600	0.399700	0.997100
C111	C11	0.393800	0.002800	0.709600
C121	C12	0.448400	0.002900	0.600300
C131	C13	0.893800	0.709600	0.002800
C141	C14	0.948400	0.600300	0.002900
C151	C15	0.606200	0.997200	0.290400
C161	C16	0.551600	0.997100	0.399700
N11	N1	0.265730	0.145970	0.995970
N21	N2	0.278050	0.236650	0.998050
N31	N3	0.234270	0.004030	0.854030
N41	N4	0.221950	0.001950	0.763350
N51	N5	0.907670	0.854030	0.004030
N61	N6	0.012750	0.763350	0.001950
N71	N7	0.592330	0.995970	0.145970
N81	N8	0.487250	0.998050	0.236650
N91	N9	0.734270	0.854030	0.004030
N101	N10	0.721950	0.763350	0.001950
N111	N11	0.765730	0.995970	0.145970
N121	N12	0.778050	0.998050	0.236650
N131	N13	0.092330	0.145970	0.995970
N141	N14	0.987250	0.236650	0.998050
N151	N15	0.407670	0.004030	0.854030
N161	N16	0.512750	0.001950	0.763350
Cl11	Cl1	0.250000	0.876550	0.123450
Cl21	Cl2	0.750000	0.123450	0.876550
