data_TAQGUQ_clean_PM
_symmetry_space_group_name_H-M	'P1'
_cell_length_a	9.109100
_cell_length_b	15.232400
_cell_length_c	15.587000
_cell_angle_alpha	102.771000
_cell_angle_beta	95.335000
_cell_angle_gamma	104.330000
_symmetry_Int_Tables_number 1

loop_
_symmetry_equiv_pos_as_xyz
'x,y,z'

loop_
_atom_site_label
_atom_site_type_symbol
_atom_site_fract_x
_atom_site_fract_y
_atom_site_fract_z
Co11	Co1	0.508050	0.253740	0.283670
Cr11	Cr1	0.174410	0.348020	0.304950
O11	O1	0.314600	0.299100	0.291500
N11	N1	0.645000	0.395200	0.297600
C11	C1	0.589100	0.454400	0.260800
H11	H1	0.483700	0.435400	0.235700
Cr21	Cr2	0.859970	0.176280	0.282510
N21	N2	0.539300	0.269700	0.424100
C21	C2	0.676400	0.541100	0.257400
H21	H2	0.630900	0.579800	0.229800
N31	N3	0.371700	0.111800	0.271300
C31	C3	0.830400	0.572100	0.294100
O21	O2	0.019900	0.270700	0.336700
N41	N4	0.474100	0.236800	0.141900
C41	C4	0.889200	0.511600	0.332400
H31	H3	0.994700	0.528200	0.356900
C51	C5	0.790900	0.425600	0.334400
H41	H4	0.831700	0.386700	0.364200
C61	C6	0.927200	0.665300	0.290600
O31	O3	0.706900	0.213600	0.278200
C71	C7	0.984200	0.737100	0.368100
C81	C8	0.072400	0.825400	0.362200
C91	C9	0.098900	0.839300	0.279500
C101	C10	0.041600	0.767400	0.201700
C111	C11	0.953700	0.679300	0.206800
C121	C12	0.950200	0.722200	0.457500
H51	H5	0.868700	0.663800	0.448900
H61	H6	0.916900	0.774800	0.490000
H71	H7	0.043000	0.718200	0.491900
C131	C13	0.131700	0.902500	0.447500
H81	H8	0.219900	0.949700	0.438600
H91	H9	0.163000	0.875800	0.495500
H101	H10	0.050300	0.931900	0.463500
C141	C14	0.069600	0.785500	0.110800
H111	H11	0.972800	0.761800	0.069300
H121	H12	0.143900	0.753200	0.087600
H131	H13	0.110100	0.852900	0.117500
C151	C15	0.892900	0.600600	0.122800
H141	H14	0.898800	0.541200	0.135500
H151	H15	0.954700	0.613000	0.076400
H161	H16	0.785900	0.596600	0.102300
C161	C16	0.192900	0.932800	0.275100
C171	C17	0.142200	0.012000	0.296200
H171	H17	0.042000	0.006500	0.310900
C181	C18	0.234000	0.099000	0.296400
H181	H18	0.197100	0.152100	0.315200
C191	C19	0.338600	0.947700	0.250300
H191	H19	0.380600	0.896400	0.233800
C201	C20	0.421700	0.035900	0.249300
H201	H20	0.520400	0.043200	0.232000
C211	C21	0.496100	0.335700	0.479200
H211	H21	0.470100	0.383700	0.456300
C221	C22	0.486900	0.338300	0.567600
H221	H22	0.456400	0.387500	0.603700
C231	C23	0.521600	0.270200	0.603600
C241	C24	0.573800	0.204100	0.547200
H231	H23	0.606600	0.157700	0.569500
C251	C25	0.578200	0.205300	0.460000
H241	H24	0.610800	0.157700	0.423000
C261	C26	0.505900	0.266000	0.696700
C271	C27	0.394100	0.191900	0.712800
C281	C28	0.383000	0.186000	0.800600
C291	C29	0.479900	0.254500	0.871300
C301	C30	0.589600	0.330400	0.855000
C311	C31	0.605700	0.334600	0.767900
C321	C32	0.285300	0.119600	0.636900
H251	H25	0.313600	0.060600	0.628300
H261	H26	0.290900	0.141400	0.582400
H271	H27	0.180500	0.109600	0.650500
C331	C33	0.267600	0.104600	0.818700
H281	H28	0.167500	0.117700	0.818400
H291	H29	0.301500	0.096000	0.877100
H301	H30	0.259000	0.047600	0.772500
C341	C34	0.731000	0.412000	0.750400
H311	H31	0.695500	0.468300	0.754600
H321	H32	0.755600	0.391600	0.690600
H331	H33	0.822800	0.426000	0.794700
C351	C35	0.686500	0.408800	0.932900
H341	H34	0.795200	0.412400	0.932100
H351	H35	0.657900	0.396000	0.988900
H361	H36	0.668700	0.468400	0.927900
C361	C36	0.473900	0.246300	0.964500
C371	C37	0.369100	0.275000	0.015100
H371	H37	0.294700	0.299600	0.989400
C381	C38	0.370600	0.268700	0.101000
H381	H38	0.295200	0.287700	0.133000
C391	C39	0.575800	0.208500	0.005600
H391	H39	0.647700	0.184900	0.973800
C401	C40	0.572100	0.205300	0.093800
H401	H40	0.643000	0.179400	0.121000
Co21	Co2	0.491950	0.746260	0.716330
Cr31	Cr3	0.825590	0.651980	0.695050
O41	O4	0.685400	0.700900	0.708500
N51	N5	0.355000	0.604800	0.702400
C411	C41	0.410900	0.545600	0.739200
H411	H41	0.516300	0.564600	0.764300
Cr41	Cr4	0.140030	0.823720	0.717490
N61	N6	0.460700	0.730300	0.575900
C421	C42	0.323600	0.458900	0.742600
H421	H42	0.369100	0.420200	0.770200
N71	N7	0.628300	0.888200	0.728700
C431	C43	0.169600	0.427900	0.705900
O51	O5	0.980100	0.729300	0.663300
N81	N8	0.525900	0.763200	0.858100
C441	C44	0.110800	0.488400	0.667600
H431	H43	0.005300	0.471800	0.643100
C451	C45	0.209100	0.574400	0.665600
H441	H44	0.168300	0.613300	0.635800
C461	C46	0.072800	0.334700	0.709400
O61	O6	0.293100	0.786400	0.721800
C471	C47	0.015800	0.262900	0.631900
C481	C48	0.927600	0.174600	0.637800
C491	C49	0.901100	0.160700	0.720500
C501	C50	0.958400	0.232600	0.798300
C511	C51	0.046300	0.320700	0.793200
C521	C52	0.049800	0.277800	0.542500
H451	H45	0.131300	0.336200	0.551100
H461	H46	0.083100	0.225200	0.510000
H471	H47	0.957000	0.281800	0.508100
C531	C53	0.868300	0.097500	0.552500
H481	H48	0.780100	0.050300	0.561400
H491	H49	0.837000	0.124200	0.504500
H501	H50	0.949700	0.068100	0.536500
C541	C54	0.930400	0.214500	0.889200
H511	H51	0.027200	0.238200	0.930700
H521	H52	0.856100	0.246800	0.912400
H531	H53	0.889900	0.147100	0.882500
C551	C55	0.107100	0.399400	0.877200
H541	H54	0.101200	0.458800	0.864500
H551	H55	0.045300	0.387000	0.923600
H561	H56	0.214100	0.403400	0.897700
C561	C56	0.807100	0.067200	0.724900
C571	C57	0.857800	0.988000	0.703800
H571	H57	0.958000	0.993500	0.689100
C581	C58	0.766000	0.901000	0.703600
H581	H58	0.802900	0.847900	0.684800
C591	C59	0.661400	0.052300	0.749700
H591	H59	0.619400	0.103600	0.766200
C601	C60	0.578300	0.964100	0.750700
H601	H60	0.479600	0.956800	0.768000
C611	C61	0.503900	0.664300	0.520800
H611	H61	0.529900	0.616300	0.543700
C621	C62	0.513100	0.661700	0.432400
H621	H62	0.543600	0.612500	0.396300
C631	C63	0.478400	0.729800	0.396400
C641	C64	0.426200	0.795900	0.452800
H631	H63	0.393400	0.842300	0.430500
C651	C65	0.421800	0.794700	0.540000
H641	H64	0.389200	0.842300	0.577000
C661	C66	0.494100	0.734000	0.303300
C671	C67	0.605900	0.808100	0.287200
C681	C68	0.617000	0.814000	0.199400
C691	C69	0.520100	0.745500	0.128700
C701	C70	0.410400	0.669600	0.145000
C711	C71	0.394300	0.665400	0.232100
C721	C72	0.714700	0.880400	0.363100
H651	H65	0.686400	0.939400	0.371700
H661	H66	0.709100	0.858600	0.417600
H671	H67	0.819500	0.890400	0.349500
C731	C73	0.732400	0.895400	0.181300
H681	H68	0.832500	0.882300	0.181600
H691	H69	0.698500	0.904000	0.122900
H701	H70	0.741000	0.952400	0.227500
C741	C74	0.269000	0.588000	0.249600
H711	H71	0.304500	0.531700	0.245400
H721	H72	0.244400	0.608400	0.309400
H731	H73	0.177200	0.574000	0.205300
C751	C75	0.313500	0.591200	0.067100
H741	H74	0.204800	0.587600	0.067900
H751	H75	0.342100	0.604000	0.011100
H761	H76	0.331300	0.531600	0.072100
C761	C76	0.526100	0.753700	0.035500
C771	C77	0.630900	0.725000	0.984900
H771	H77	0.705300	0.700400	0.010600
C781	C78	0.629400	0.731300	0.899000
H781	H78	0.704800	0.712300	0.867000
C791	C79	0.424200	0.791500	0.994400
H791	H79	0.352300	0.815100	0.026200
C801	C80	0.427900	0.794700	0.906200
H801	H80	0.357000	0.820600	0.879000
