data_TAQGOK_clean_PM
_symmetry_space_group_name_H-M	'P1'
_cell_length_a	24.322600
_cell_length_b	18.461700
_cell_length_c	8.876800
_cell_angle_alpha	90.000000
_cell_angle_beta	108.493000
_cell_angle_gamma	90.000000
_symmetry_Int_Tables_number 1

loop_
_symmetry_equiv_pos_as_xyz
'x,y,z'

loop_
_atom_site_label
_atom_site_type_symbol
_atom_site_fract_x
_atom_site_fract_y
_atom_site_fract_z
O11	O1	0.463900	0.783500	0.929100
N11	N1	0.439400	0.702200	0.624400
N21	N2	0.562600	0.860700	0.874700
C11	C1	0.413700	0.656000	0.695000
C21	C2	0.420200	0.705100	0.464900
Cr11	Cr1	0.556560	0.794040	0.416600
C31	C3	0.367700	0.612900	0.612300
H11	H1	0.427510	0.652450	0.807590
H21	H2	0.438280	0.737760	0.412420
C41	C4	0.375400	0.662500	0.374500
H31	H3	0.350400	0.580500	0.667180
C51	C5	0.346700	0.617500	0.445000
H41	H4	0.364400	0.664600	0.261900
C61	C6	0.295900	0.574200	0.350000
C71	C7	0.295100	0.499400	0.377600
C81	C8	0.249300	0.606000	0.235800
H51	H5	0.326750	0.478250	0.457810
C91	C9	0.249700	0.454900	0.291600
C101	C10	0.203600	0.561500	0.150000
C111	C11	0.243500	0.688000	0.206700
C121	C12	0.203600	0.487500	0.174200
C131	C13	0.251700	0.375800	0.323700
H61	H6	0.171350	0.582780	0.072260
H71	H7	0.253250	0.713400	0.308790
H81	H8	0.203530	0.699590	0.143170
H91	H9	0.269960	0.703470	0.149550
C141	C14	0.154700	0.444000	0.074400
H101	H10	0.215040	0.360440	0.337430
H111	H11	0.283710	0.365270	0.420750
H121	H12	0.257720	0.349660	0.234180
C151	C15	0.097100	0.455800	0.072000
C161	C16	0.163800	0.391900	0.973400
C171	C17	0.052700	0.412500	0.969500
H131	H13	0.088280	0.491840	0.137310
C181	C18	0.118900	0.353000	0.876600
H141	H14	0.202050	0.383060	0.971330
H151	H15	0.013950	0.420490	0.967620
H161	H16	0.127000	0.318710	0.806620
O21	O2	0.963900	0.283500	0.929100
N31	N3	0.939400	0.202200	0.624400
N41	N4	0.062600	0.360700	0.874700
C191	C19	0.913700	0.156000	0.695000
C201	C20	0.920200	0.205100	0.464900
Cr21	Cr2	0.056560	0.294040	0.416600
C211	C21	0.867700	0.112900	0.612300
H171	H17	0.927510	0.152450	0.807590
H181	H18	0.938280	0.237760	0.412420
C221	C22	0.875400	0.162500	0.374500
H191	H19	0.850400	0.080500	0.667180
C231	C23	0.846700	0.117500	0.445000
H201	H20	0.864400	0.164600	0.261900
C241	C24	0.795900	0.074200	0.350000
C251	C25	0.795100	0.999400	0.377600
C261	C26	0.749300	0.106000	0.235800
H211	H21	0.826750	0.978250	0.457810
C271	C27	0.749700	0.954900	0.291600
C281	C28	0.703600	0.061500	0.150000
C291	C29	0.743500	0.188000	0.206700
C301	C30	0.703600	0.987500	0.174200
C311	C31	0.751700	0.875800	0.323700
H221	H22	0.671350	0.082780	0.072260
H231	H23	0.753250	0.213400	0.308790
H241	H24	0.703530	0.199590	0.143170
H251	H25	0.769960	0.203470	0.149550
C321	C32	0.654700	0.944000	0.074400
H261	H26	0.715040	0.860440	0.337430
H271	H27	0.783710	0.865270	0.420750
H281	H28	0.757720	0.849660	0.234180
C331	C33	0.597100	0.955800	0.072000
C341	C34	0.663800	0.891900	0.973400
C351	C35	0.552700	0.912500	0.969500
H291	H29	0.588280	0.991840	0.137310
C361	C36	0.618900	0.853000	0.876600
H301	H30	0.702050	0.883060	0.971330
H311	H31	0.513950	0.920490	0.967620
H321	H32	0.627000	0.818710	0.806620
O31	O3	0.536100	0.783500	0.570900
N51	N5	0.560600	0.702200	0.875600
N61	N6	0.437400	0.860700	0.625300
C371	C37	0.586300	0.656000	0.805000
C381	C38	0.579800	0.705100	0.035100
Cr31	Cr3	0.443440	0.794040	0.083400
C391	C39	0.632300	0.612900	0.887700
H331	H33	0.572490	0.652450	0.692410
H341	H34	0.561720	0.737760	0.087580
C401	C40	0.624600	0.662500	0.125500
H351	H35	0.649600	0.580500	0.832820
C411	C41	0.653300	0.617500	0.055000
H361	H36	0.635600	0.664600	0.238100
C421	C42	0.704100	0.574200	0.150000
C431	C43	0.704900	0.499400	0.122400
C441	C44	0.750700	0.606000	0.264200
H371	H37	0.673250	0.478250	0.042190
C451	C45	0.750300	0.454900	0.208400
C461	C46	0.796400	0.561500	0.350000
C471	C47	0.756500	0.688000	0.293300
C481	C48	0.796400	0.487500	0.325800
C491	C49	0.748300	0.375800	0.176300
H381	H38	0.828650	0.582780	0.427740
H391	H39	0.746750	0.713400	0.191210
H401	H40	0.796470	0.699590	0.356830
H411	H41	0.730040	0.703470	0.350450
C501	C50	0.845300	0.444000	0.425600
H421	H42	0.784960	0.360440	0.162570
H431	H43	0.716290	0.365270	0.079250
H441	H44	0.742280	0.349660	0.265820
C511	C51	0.902900	0.455800	0.428000
C521	C52	0.836200	0.391900	0.526600
C531	C53	0.947300	0.412500	0.530500
H451	H45	0.911720	0.491840	0.362690
C541	C54	0.881100	0.353000	0.623400
H461	H46	0.797950	0.383060	0.528670
H471	H47	0.986050	0.420490	0.532380
H481	H48	0.873000	0.318710	0.693380
O41	O4	0.036100	0.283500	0.570900
N71	N7	0.060600	0.202200	0.875600
N81	N8	0.937400	0.360700	0.625300
C551	C55	0.086300	0.156000	0.805000
C561	C56	0.079800	0.205100	0.035100
Cr41	Cr4	0.943440	0.294040	0.083400
C571	C57	0.132300	0.112900	0.887700
H491	H49	0.072490	0.152450	0.692410
H501	H50	0.061720	0.237760	0.087580
C581	C58	0.124600	0.162500	0.125500
H511	H51	0.149600	0.080500	0.832820
C591	C59	0.153300	0.117500	0.055000
H521	H52	0.135600	0.164600	0.238100
C601	C60	0.204100	0.074200	0.150000
C611	C61	0.204900	0.999400	0.122400
C621	C62	0.250700	0.106000	0.264200
H531	H53	0.173250	0.978250	0.042190
C631	C63	0.250300	0.954900	0.208400
C641	C64	0.296400	0.061500	0.350000
C651	C65	0.256500	0.188000	0.293300
C661	C66	0.296400	0.987500	0.325800
C671	C67	0.248300	0.875800	0.176300
H541	H54	0.328650	0.082780	0.427740
H551	H55	0.246750	0.213400	0.191210
H561	H56	0.296470	0.199590	0.356830
H571	H57	0.230040	0.203470	0.350450
C681	C68	0.345300	0.944000	0.425600
H581	H58	0.284960	0.860440	0.162570
H591	H59	0.216290	0.865270	0.079250
H601	H60	0.242280	0.849660	0.265820
C691	C69	0.402900	0.955800	0.428000
C701	C70	0.336200	0.891900	0.526600
C711	C71	0.447300	0.912500	0.530500
H611	H61	0.411720	0.991840	0.362690
C721	C72	0.381100	0.853000	0.623400
H621	H62	0.297950	0.883060	0.528670
H631	H63	0.486050	0.920490	0.532380
H641	H64	0.373000	0.818710	0.693380
Co11	Co1	0.500000	0.783120	0.750000
Co21	Co2	0.000000	0.283120	0.750000
O51	O5	0.500000	0.762500	0.250000
O61	O6	0.000000	0.262500	0.250000
O71	O7	0.536100	0.216500	0.070900
N91	N9	0.560600	0.297800	0.375600
N101	N10	0.437400	0.139300	0.125300
C731	C73	0.586300	0.344000	0.305000
C741	C74	0.579800	0.294900	0.535100
Cr51	Cr5	0.443440	0.205960	0.583400
C751	C75	0.632300	0.387100	0.387700
H651	H65	0.572490	0.347550	0.192410
H661	H66	0.561720	0.262240	0.587580
C761	C76	0.624600	0.337500	0.625500
H671	H67	0.649600	0.419500	0.332820
C771	C77	0.653300	0.382500	0.555000
H681	H68	0.635600	0.335400	0.738100
C781	C78	0.704100	0.425800	0.650000
C791	C79	0.704900	0.500600	0.622400
C801	C80	0.750700	0.394000	0.764200
H691	H69	0.673250	0.521750	0.542190
C811	C81	0.750300	0.545100	0.708400
C821	C82	0.796400	0.438500	0.850000
C831	C83	0.756500	0.312000	0.793300
C841	C84	0.796400	0.512500	0.825800
C851	C85	0.748300	0.624200	0.676300
H701	H70	0.828650	0.417220	0.927740
H711	H71	0.746750	0.286600	0.691210
H721	H72	0.796470	0.300410	0.856830
H731	H73	0.730040	0.296530	0.850450
C861	C86	0.845300	0.556000	0.925600
H741	H74	0.784960	0.639560	0.662570
H751	H75	0.716290	0.634730	0.579250
H761	H76	0.742280	0.650340	0.765820
C871	C87	0.902900	0.544200	0.928000
C881	C88	0.836200	0.608100	0.026600
C891	C89	0.947300	0.587500	0.030500
H771	H77	0.911720	0.508160	0.862690
C901	C90	0.881100	0.647000	0.123400
H781	H78	0.797950	0.616940	0.028670
H791	H79	0.986050	0.579510	0.032380
H801	H80	0.873000	0.681290	0.193380
O81	O8	0.036100	0.716500	0.070900
N111	N11	0.060600	0.797800	0.375600
N121	N12	0.937400	0.639300	0.125300
C911	C91	0.086300	0.844000	0.305000
C921	C92	0.079800	0.794900	0.535100
Cr61	Cr6	0.943440	0.705960	0.583400
C931	C93	0.132300	0.887100	0.387700
H811	H81	0.072490	0.847550	0.192410
H821	H82	0.061720	0.762240	0.587580
C941	C94	0.124600	0.837500	0.625500
H831	H83	0.149600	0.919500	0.332820
C951	C95	0.153300	0.882500	0.555000
H841	H84	0.135600	0.835400	0.738100
C961	C96	0.204100	0.925800	0.650000
C971	C97	0.204900	0.000600	0.622400
C981	C98	0.250700	0.894000	0.764200
H851	H85	0.173250	0.021750	0.542190
C991	C99	0.250300	0.045100	0.708400
C1001	C100	0.296400	0.938500	0.850000
C1011	C101	0.256500	0.812000	0.793300
C1021	C102	0.296400	0.012500	0.825800
C1031	C103	0.248300	0.124200	0.676300
H861	H86	0.328650	0.917220	0.927740
H871	H87	0.246750	0.786600	0.691210
H881	H88	0.296470	0.800410	0.856830
H891	H89	0.230040	0.796530	0.850450
C1041	C104	0.345300	0.056000	0.925600
H901	H90	0.284960	0.139560	0.662570
H911	H91	0.216290	0.134730	0.579250
H921	H92	0.242280	0.150340	0.765820
C1051	C105	0.402900	0.044200	0.928000
C1061	C106	0.336200	0.108100	0.026600
C1071	C107	0.447300	0.087500	0.030500
H931	H93	0.411720	0.008160	0.862690
C1081	C108	0.381100	0.147000	0.123400
H941	H94	0.297950	0.116940	0.028670
H951	H95	0.486050	0.079510	0.032380
H961	H96	0.373000	0.181290	0.193380
O91	O9	0.463900	0.216500	0.429100
N131	N13	0.439400	0.297800	0.124400
N141	N14	0.562600	0.139300	0.374700
C1091	C109	0.413700	0.344000	0.195000
C1101	C110	0.420200	0.294900	0.964900
Cr71	Cr7	0.556560	0.205960	0.916600
C1111	C111	0.367700	0.387100	0.112300
H971	H97	0.427510	0.347550	0.307590
H981	H98	0.438280	0.262240	0.912420
C1121	C112	0.375400	0.337500	0.874500
H991	H99	0.350400	0.419500	0.167180
C1131	C113	0.346700	0.382500	0.945000
H1001	H100	0.364400	0.335400	0.761900
C1141	C114	0.295900	0.425800	0.850000
C1151	C115	0.295100	0.500600	0.877600
C1161	C116	0.249300	0.394000	0.735800
H1011	H101	0.326750	0.521750	0.957810
C1171	C117	0.249700	0.545100	0.791600
C1181	C118	0.203600	0.438500	0.650000
C1191	C119	0.243500	0.312000	0.706700
C1201	C120	0.203600	0.512500	0.674200
C1211	C121	0.251700	0.624200	0.823700
H1021	H102	0.171350	0.417220	0.572260
H1031	H103	0.253250	0.286600	0.808790
H1041	H104	0.203530	0.300410	0.643170
H1051	H105	0.269960	0.296530	0.649550
C1221	C122	0.154700	0.556000	0.574400
H1061	H106	0.215040	0.639560	0.837430
H1071	H107	0.283710	0.634730	0.920750
H1081	H108	0.257720	0.650340	0.734180
C1231	C123	0.097100	0.544200	0.572000
C1241	C124	0.163800	0.608100	0.473400
C1251	C125	0.052700	0.587500	0.469500
H1091	H109	0.088280	0.508160	0.637310
C1261	C126	0.118900	0.647000	0.376600
H1101	H110	0.202050	0.616940	0.471330
H1111	H111	0.013950	0.579510	0.467620
H1121	H112	0.127000	0.681290	0.306620
O101	O10	0.963900	0.716500	0.429100
N151	N15	0.939400	0.797800	0.124400
N161	N16	0.062600	0.639300	0.374700
C1271	C127	0.913700	0.844000	0.195000
C1281	C128	0.920200	0.794900	0.964900
Cr81	Cr8	0.056560	0.705960	0.916600
C1291	C129	0.867700	0.887100	0.112300
H1131	H113	0.927510	0.847550	0.307590
H1141	H114	0.938280	0.762240	0.912420
C1301	C130	0.875400	0.837500	0.874500
H1151	H115	0.850400	0.919500	0.167180
C1311	C131	0.846700	0.882500	0.945000
H1161	H116	0.864400	0.835400	0.761900
C1321	C132	0.795900	0.925800	0.850000
C1331	C133	0.795100	0.000600	0.877600
C1341	C134	0.749300	0.894000	0.735800
H1171	H117	0.826750	0.021750	0.957810
C1351	C135	0.749700	0.045100	0.791600
C1361	C136	0.703600	0.938500	0.650000
C1371	C137	0.743500	0.812000	0.706700
C1381	C138	0.703600	0.012500	0.674200
C1391	C139	0.751700	0.124200	0.823700
H1181	H118	0.671350	0.917220	0.572260
H1191	H119	0.753250	0.786600	0.808790
H1201	H120	0.703530	0.800410	0.643170
H1211	H121	0.769960	0.796530	0.649550
C1401	C140	0.654700	0.056000	0.574400
H1221	H122	0.715040	0.139560	0.837430
H1231	H123	0.783710	0.134730	0.920750
H1241	H124	0.757720	0.150340	0.734180
C1411	C141	0.597100	0.044200	0.572000
C1421	C142	0.663800	0.108100	0.473400
C1431	C143	0.552700	0.087500	0.469500
H1251	H125	0.588280	0.008160	0.637310
C1441	C144	0.618900	0.147000	0.376600
H1261	H126	0.702050	0.116940	0.471330
H1271	H127	0.513950	0.079510	0.467620
H1281	H128	0.627000	0.181290	0.306620
Co31	Co3	0.500000	0.216880	0.250000
Co41	Co4	0.000000	0.716880	0.250000
O111	O11	0.500000	0.237500	0.750000
O121	O12	0.000000	0.737500	0.750000
