data_TARVOX_clean_PM
_symmetry_space_group_name_H-M	'P1'
_cell_length_a	6.940000
_cell_length_b	12.698100
_cell_length_c	12.698100
_cell_angle_alpha	97.432900
_cell_angle_beta	96.302300
_cell_angle_gamma	83.697700
_symmetry_Int_Tables_number 1

loop_
_symmetry_equiv_pos_as_xyz
'x,y,z'

loop_
_atom_site_label
_atom_site_type_symbol
_atom_site_fract_x
_atom_site_fract_y
_atom_site_fract_z
Co11	Co1	0.908700	0.320460	0.053320
Co21	Co2	0.591300	0.053320	0.320460
Co31	Co3	0.091300	0.679540	0.946680
Co41	Co4	0.408700	0.946680	0.679540
H11	H1	0.430100	0.423000	0.548400
H21	H2	0.069900	0.548400	0.423000
H31	H3	0.569900	0.577000	0.451600
H41	H4	0.930100	0.451600	0.577000
C11	C1	0.443800	0.536300	0.665700
C21	C2	0.364100	0.359700	0.669100
C31	C3	0.331200	0.486300	0.811900
C41	C4	0.518400	0.701600	0.649800
C51	C5	0.314100	0.184000	0.653200
C61	C6	0.201700	0.447800	0.960000
C71	C7	0.056200	0.665700	0.536300
C81	C8	0.135900	0.669100	0.359700
C91	C9	0.168800	0.811900	0.486300
C101	C10	0.981600	0.649800	0.701600
C111	C11	0.185900	0.653200	0.184000
C121	C12	0.298300	0.960000	0.447800
C131	C13	0.556200	0.463700	0.334300
C141	C14	0.635900	0.640300	0.330900
C151	C15	0.668800	0.513700	0.188100
C161	C16	0.481600	0.298400	0.350200
C171	C17	0.685900	0.816000	0.346800
C181	C18	0.798300	0.552200	0.040000
C191	C19	0.943800	0.334300	0.463700
C201	C20	0.864100	0.330900	0.640300
C211	C21	0.831200	0.188100	0.513700
C221	C22	0.018400	0.350200	0.298400
C231	C23	0.814100	0.346800	0.816000
C241	C24	0.701700	0.040000	0.552200
N11	N1	0.415500	0.437100	0.615300
N21	N2	0.324400	0.382500	0.770500
N31	N3	0.398100	0.562500	0.765900
N41	N4	0.509300	0.601800	0.608000
N51	N5	0.528500	0.790500	0.678500
N61	N6	0.350800	0.266300	0.609500
N71	N7	0.285400	0.103800	0.681400
N81	N8	0.259400	0.520100	0.907700
N91	N9	0.144900	0.393000	0.012200
N101	N10	0.084500	0.615300	0.437100
N111	N11	0.175600	0.770500	0.382500
N121	N12	0.101900	0.765900	0.562500
N131	N13	0.990700	0.608000	0.601800
N141	N14	0.971500	0.678500	0.790500
N151	N15	0.149200	0.609500	0.266300
N161	N16	0.214600	0.681400	0.103800
N171	N17	0.240600	0.907700	0.520100
N181	N18	0.355100	0.012200	0.393000
N191	N19	0.584500	0.562900	0.384700
N201	N20	0.675600	0.617500	0.229500
N211	N21	0.601900	0.437500	0.234100
N221	N22	0.490700	0.398200	0.392000
N231	N23	0.471500	0.209500	0.321500
N241	N24	0.649200	0.733700	0.390500
N251	N25	0.714600	0.896200	0.318600
N261	N26	0.740600	0.479900	0.092300
N271	N27	0.855100	0.607000	0.987800
N281	N28	0.915500	0.384700	0.562900
N291	N29	0.824400	0.229500	0.617500
N301	N30	0.898100	0.234100	0.437500
N311	N31	0.009300	0.392000	0.398200
N321	N32	0.028500	0.321500	0.209500
N331	N33	0.850800	0.390500	0.733700
N341	N34	0.785400	0.318600	0.896200
N351	N35	0.759400	0.092300	0.479900
N361	N36	0.644900	0.987800	0.607000
