data_TASJUT_charged_PM
_symmetry_space_group_name_H-M	'P1'
_cell_length_a	20.783900
_cell_length_b	20.783900
_cell_length_c	20.783900
_cell_angle_alpha	109.045000
_cell_angle_beta	109.045000
_cell_angle_gamma	110.327000
_symmetry_Int_Tables_number 1

loop_
_symmetry_equiv_pos_as_xyz
'x,y,z'

loop_
_atom_site_label
_atom_site_type_symbol
_atom_site_fract_x
_atom_site_fract_y
_atom_site_fract_z
Ag11	Ag1	0.250000	0.578510	0.328510
Ag21	Ag2	0.750000	0.921490	0.171490
Ag31	Ag3	0.921490	0.250000	0.171490
Ag41	Ag4	0.578510	0.750000	0.328510
Ag51	Ag5	0.005190	0.755190	0.250000
Ag61	Ag6	0.755190	0.005190	0.750000
Ag71	Ag7	0.494810	0.744810	0.750000
Ag81	Ag8	0.744810	0.494810	0.250000
H11	H1	0.254300	0.752000	0.395100
H21	H2	0.176400	0.805000	0.369600
H31	H3	0.003500	0.595500	0.201800
H41	H4	0.983800	0.406800	0.106000
H51	H5	0.988600	0.479500	0.095700
H61	H6	0.954100	0.458000	0.147300
H71	H7	0.054800	0.295000	0.056200
H81	H8	0.024100	0.170100	0.975400
H91	H9	0.038900	0.088500	0.025800
H101	H10	0.069000	0.125400	0.154000
H111	H11	0.101100	0.251900	0.238200
H121	H12	0.856900	0.859200	0.104900
H131	H13	0.935400	0.806800	0.130400
H141	H14	0.893700	0.801700	0.298200
H151	H15	0.800800	0.877800	0.394000
H161	H16	0.883800	0.892900	0.404300
H171	H17	0.810700	0.806800	0.352700
H181	H18	0.738800	0.998600	0.443800
H191	H19	0.694700	0.048700	0.524600
H201	H20	0.562700	0.013100	0.474200
H211	H21	0.471400	0.915000	0.346000
H221	H22	0.513700	0.862900	0.261800
H231	H23	0.859200	0.254300	0.002300
H241	H24	0.806800	0.176400	0.871400
H251	H25	0.801700	0.003500	0.908000
H261	H26	0.877800	0.983800	0.077000
H271	H27	0.892900	0.988600	0.009100
H281	H28	0.806800	0.954100	0.996100
H291	H29	0.998600	0.054800	0.259800
H301	H30	0.048700	0.024100	0.354000
H311	H31	0.013100	0.038900	0.450400
H321	H32	0.915000	0.069000	0.443600
H331	H33	0.862900	0.101100	0.349200
H341	H34	0.752000	0.856900	0.497700
H351	H35	0.805000	0.935400	0.628600
H361	H36	0.595500	0.893700	0.592000
H371	H37	0.406800	0.800800	0.423000
H381	H38	0.479500	0.883800	0.490900
H391	H39	0.458000	0.810700	0.503900
H401	H40	0.295000	0.738800	0.240200
H411	H41	0.170100	0.694700	0.146000
H421	H42	0.088500	0.562700	0.049600
H431	H43	0.125400	0.471400	0.056400
H441	H44	0.251900	0.513700	0.150800
H451	H45	0.643100	0.748000	0.002300
H461	H46	0.564600	0.695000	0.871400
H471	H47	0.606300	0.904500	0.908000
H481	H48	0.699200	0.093200	0.077000
H491	H49	0.616200	0.020500	0.009100
H501	H50	0.689300	0.042000	0.996100
H511	H51	0.761200	0.205000	0.259800
H521	H52	0.805300	0.329900	0.354000
H531	H53	0.937300	0.411500	0.450400
H541	H54	0.028600	0.374600	0.443600
H551	H55	0.986300	0.248100	0.349200
H561	H56	0.245700	0.640800	0.497700
H571	H57	0.323600	0.693200	0.628600
H581	H58	0.496500	0.698300	0.592000
H591	H59	0.516200	0.622200	0.423000
H601	H60	0.511400	0.607100	0.490900
H611	H61	0.545900	0.693200	0.503900
H621	H62	0.445200	0.501400	0.240200
H631	H63	0.475900	0.451300	0.146000
H641	H64	0.461100	0.486900	0.049600
H651	H65	0.431000	0.585000	0.056400
H661	H66	0.398900	0.637100	0.150800
H671	H67	0.748000	0.245700	0.104900
H681	H68	0.695000	0.323600	0.130400
H691	H69	0.904500	0.496500	0.298200
H701	H70	0.093200	0.516200	0.394000
H711	H71	0.020500	0.511400	0.404300
H721	H72	0.042000	0.545900	0.352700
H731	H73	0.205000	0.445200	0.443800
H741	H74	0.329900	0.475900	0.524600
H751	H75	0.411500	0.461100	0.474200
H761	H76	0.374600	0.431000	0.346000
H771	H77	0.248100	0.398900	0.261800
H781	H78	0.640800	0.643100	0.395100
H791	H79	0.693200	0.564600	0.369600
H801	H80	0.698300	0.606300	0.201800
H811	H81	0.622200	0.699200	0.106000
H821	H82	0.607100	0.616200	0.095700
H831	H83	0.693200	0.689300	0.147300
H841	H84	0.501400	0.761200	0.056200
H851	H85	0.451300	0.805300	0.975400
H861	H86	0.486900	0.937300	0.025800
H871	H87	0.585000	0.028600	0.154000
H881	H88	0.637100	0.986300	0.238200
C11	C1	0.202500	0.719100	0.353800
C21	C2	0.156000	0.751100	0.339300
C31	C3	0.056400	0.629000	0.240800
C41	C4	0.103700	0.597800	0.253100
C51	C5	0.076000	0.513100	0.203900
C61	C6	0.992900	0.459400	0.131500
C71	C7	0.104700	0.366500	0.207000
C81	C8	0.083800	0.287200	0.157000
C91	C9	0.058900	0.261600	0.076100
C101	C10	0.041000	0.187500	0.028300
C111	C11	0.047900	0.137600	0.058300
C121	C12	0.068000	0.160300	0.135500
C131	C13	0.086800	0.235900	0.185900
C141	C14	0.865300	0.848700	0.146200
C151	C15	0.911800	0.816700	0.160700
C161	C16	0.888200	0.815600	0.259200
C171	C17	0.844700	0.850600	0.246900
C181	C18	0.809200	0.872100	0.296100
C191	C19	0.827900	0.861400	0.368500
C201	C20	0.659500	0.897700	0.293000
C211	C21	0.630200	0.926800	0.343000
C221	C22	0.685500	0.982800	0.423900
C231	C23	0.659200	0.012700	0.471700
C241	C24	0.579300	0.989600	0.441700
C251	C25	0.524800	0.932500	0.364500
C261	C26	0.550000	0.900900	0.314100
C271	C27	0.848700	0.202500	0.983400
C281	C28	0.816700	0.156000	0.904900
C291	C29	0.815600	0.056400	0.927400
C301	C30	0.850600	0.103700	0.005900
C311	C31	0.872100	0.076000	0.062900
C321	C32	0.861400	0.992900	0.033500
C331	C33	0.897700	0.104700	0.238200
C341	C34	0.926800	0.083800	0.296600
C351	C35	0.982800	0.058900	0.297300
C361	C36	0.012700	0.041000	0.353500
C371	C37	0.989600	0.047900	0.410300
C381	C38	0.932500	0.068000	0.407700
C391	C39	0.900900	0.086800	0.350900
C401	C40	0.719100	0.865300	0.516600
C411	C41	0.751100	0.911800	0.595100
C421	C42	0.629000	0.888200	0.572600
C431	C43	0.597800	0.844700	0.494100
C441	C44	0.513100	0.809200	0.437100
C451	C45	0.459400	0.827900	0.466500
C461	C46	0.366500	0.659500	0.261800
C471	C47	0.287200	0.630200	0.203400
C481	C48	0.261600	0.685500	0.202700
C491	C49	0.187500	0.659200	0.146500
C501	C50	0.137600	0.579300	0.089700
C511	C51	0.160300	0.524800	0.092300
C521	C52	0.235900	0.550000	0.149100
C531	C53	0.634700	0.780900	0.983400
C541	C54	0.588200	0.748900	0.904900
C551	C55	0.611800	0.871000	0.927400
C561	C56	0.655300	0.902200	0.005900
C571	C57	0.690800	0.986900	0.062900
C581	C58	0.672100	0.040600	0.033500
C591	C59	0.840500	0.133500	0.238200
C601	C60	0.869800	0.212800	0.296600
C611	C61	0.814500	0.238400	0.297300
C621	C62	0.840800	0.312500	0.353500
C631	C63	0.920700	0.362400	0.410300
C641	C64	0.975200	0.339700	0.407700
C651	C65	0.950000	0.264100	0.350900
C661	C66	0.297500	0.651300	0.516600
C671	C67	0.344000	0.683300	0.595100
C681	C68	0.443600	0.684400	0.572600
C691	C69	0.396300	0.649400	0.494100
C701	C70	0.424000	0.627900	0.437100
C711	C71	0.507100	0.638600	0.466500
C721	C72	0.395300	0.602300	0.261800
C731	C73	0.416200	0.573200	0.203400
C741	C74	0.441100	0.517200	0.202700
C751	C75	0.459000	0.487300	0.146500
C761	C76	0.452100	0.510400	0.089700
C771	C77	0.432000	0.567500	0.092300
C781	C78	0.413200	0.599100	0.149100
C791	C79	0.780900	0.297500	0.146200
C801	C80	0.748900	0.344000	0.160700
C811	C81	0.871000	0.443600	0.259200
C821	C82	0.902200	0.396300	0.246900
C831	C83	0.986900	0.424000	0.296100
C841	C84	0.040600	0.507100	0.368500
C851	C85	0.133500	0.395300	0.293000
C861	C86	0.212800	0.416200	0.343000
C871	C87	0.238400	0.441100	0.423900
C881	C88	0.312500	0.459000	0.471700
C891	C89	0.362400	0.452100	0.441700
C901	C90	0.339700	0.432000	0.364500
C911	C91	0.264100	0.413200	0.314100
C921	C92	0.651300	0.634700	0.353800
C931	C93	0.683300	0.588200	0.339300
C941	C94	0.684400	0.611800	0.240800
C951	C95	0.649400	0.655300	0.253100
C961	C96	0.627900	0.690800	0.203900
C971	C97	0.638600	0.672100	0.131500
C981	C98	0.602300	0.840500	0.207000
C991	C99	0.573200	0.869800	0.157000
C1001	C100	0.517200	0.814500	0.076100
C1011	C101	0.487300	0.840800	0.028300
C1021	C102	0.510400	0.920700	0.058300
C1031	C103	0.567500	0.975200	0.135500
C1041	C104	0.599100	0.950000	0.185900
N11	N1	0.177300	0.643100	0.311800
N21	N2	0.082900	0.706200	0.282700
N31	N3	0.121900	0.487900	0.228400
N41	N4	0.096900	0.408800	0.175700
N51	N5	0.831300	0.865500	0.188200
N61	N6	0.923500	0.800200	0.217300
N71	N7	0.759500	0.893500	0.271600
N81	N8	0.733100	0.921200	0.324300
N91	N9	0.865500	0.177300	0.034200
N101	N10	0.800200	0.082900	0.876700
N111	N11	0.893500	0.121900	0.134000
N121	N12	0.921200	0.096900	0.188100
N131	N13	0.643100	0.831300	0.465800
N141	N14	0.706200	0.923500	0.623300
N151	N15	0.487900	0.759500	0.366000
N161	N16	0.408800	0.733100	0.311900
N171	N17	0.668700	0.856900	0.034200
N181	N18	0.576500	0.793800	0.876700
N191	N19	0.740500	0.012100	0.134000
N201	N20	0.766900	0.091200	0.188100
N211	N21	0.322700	0.634500	0.465800
N221	N22	0.417100	0.699800	0.623300
N231	N23	0.378100	0.606500	0.366000
N241	N24	0.403100	0.578800	0.311900
N251	N25	0.856900	0.322700	0.188200
N261	N26	0.793800	0.417100	0.217300
N271	N27	0.012100	0.378100	0.271600
N281	N28	0.091200	0.403100	0.324300
N291	N29	0.634500	0.668700	0.311800
N301	N30	0.699800	0.576500	0.282700
N311	N31	0.606500	0.740500	0.228400
N321	N32	0.578800	0.766900	0.175700
Ag91	Ag9	0.750000	0.421490	0.671490
Ag101	Ag10	0.250000	0.078510	0.828510
Ag111	Ag11	0.078510	0.750000	0.828510
Ag121	Ag12	0.421490	0.250000	0.671490
Ag131	Ag13	0.994810	0.244810	0.750000
Ag141	Ag14	0.244810	0.994810	0.250000
Ag151	Ag15	0.505190	0.255190	0.250000
Ag161	Ag16	0.255190	0.505190	0.750000
H891	H89	0.745700	0.248000	0.604900
H901	H90	0.823600	0.195000	0.630400
H911	H91	0.996500	0.404500	0.798200
H921	H92	0.016200	0.593200	0.894000
H931	H93	0.011400	0.520500	0.904300
H941	H94	0.045900	0.542000	0.852700
H951	H95	0.945200	0.705000	0.943800
H961	H96	0.975900	0.829900	0.024600
H971	H97	0.961100	0.911500	0.974200
H981	H98	0.931000	0.874600	0.846000
H991	H99	0.898900	0.748100	0.761800
H1001	H100	0.143100	0.140800	0.895100
H1011	H101	0.064600	0.193200	0.869600
H1021	H102	0.106300	0.198300	0.701800
H1031	H103	0.199200	0.122200	0.606000
H1041	H104	0.116200	0.107100	0.595700
H1051	H105	0.189300	0.193200	0.647300
H1061	H106	0.261200	0.001400	0.556200
H1071	H107	0.305300	0.951300	0.475400
H1081	H108	0.437300	0.986900	0.525800
H1091	H109	0.528600	0.085000	0.654000
H1101	H110	0.486300	0.137100	0.738200
H1111	H111	0.140800	0.745700	0.997700
H1121	H112	0.193200	0.823600	0.128600
H1131	H113	0.198300	0.996500	0.092000
H1141	H114	0.122200	0.016200	0.923000
H1151	H115	0.107100	0.011400	0.990900
H1161	H116	0.193200	0.045900	0.003900
H1171	H117	0.001400	0.945200	0.740200
H1181	H118	0.951300	0.975900	0.646000
H1191	H119	0.986900	0.961100	0.549600
H1201	H120	0.085000	0.931000	0.556400
H1211	H121	0.137100	0.898900	0.650800
H1221	H122	0.248000	0.143100	0.502300
H1231	H123	0.195000	0.064600	0.371400
H1241	H124	0.404500	0.106300	0.408000
H1251	H125	0.593200	0.199200	0.577000
H1261	H126	0.520500	0.116200	0.509100
H1271	H127	0.542000	0.189300	0.496100
H1281	H128	0.705000	0.261200	0.759800
H1291	H129	0.829900	0.305300	0.854000
H1301	H130	0.911500	0.437300	0.950400
H1311	H131	0.874600	0.528600	0.943600
H1321	H132	0.748100	0.486300	0.849200
H1331	H133	0.356900	0.252000	0.997700
H1341	H134	0.435400	0.305000	0.128600
H1351	H135	0.393700	0.095500	0.092000
H1361	H136	0.300800	0.906800	0.923000
H1371	H137	0.383800	0.979500	0.990900
H1381	H138	0.310700	0.958000	0.003900
H1391	H139	0.238800	0.795000	0.740200
H1401	H140	0.194700	0.670100	0.646000
H1411	H141	0.062700	0.588500	0.549600
H1421	H142	0.971400	0.625400	0.556400
H1431	H143	0.013700	0.751900	0.650800
H1441	H144	0.754300	0.359200	0.502300
H1451	H145	0.676400	0.306800	0.371400
H1461	H146	0.503500	0.301700	0.408000
H1471	H147	0.483800	0.377800	0.577000
H1481	H148	0.488600	0.392900	0.509100
H1491	H149	0.454100	0.306800	0.496100
H1501	H150	0.554800	0.498600	0.759800
H1511	H151	0.524100	0.548700	0.854000
H1521	H152	0.538900	0.513100	0.950400
H1531	H153	0.569000	0.415000	0.943600
H1541	H154	0.601100	0.362900	0.849200
H1551	H155	0.252000	0.754300	0.895100
H1561	H156	0.305000	0.676400	0.869600
H1571	H157	0.095500	0.503500	0.701800
H1581	H158	0.906800	0.483800	0.606000
H1591	H159	0.979500	0.488600	0.595700
H1601	H160	0.958000	0.454100	0.647300
H1611	H161	0.795000	0.554800	0.556200
H1621	H162	0.670100	0.524100	0.475400
H1631	H163	0.588500	0.538900	0.525800
H1641	H164	0.625400	0.569000	0.654000
H1651	H165	0.751900	0.601100	0.738200
H1661	H166	0.359200	0.356900	0.604900
H1671	H167	0.306800	0.435400	0.630400
H1681	H168	0.301700	0.393700	0.798200
H1691	H169	0.377800	0.300800	0.894000
H1701	H170	0.392900	0.383800	0.904300
H1711	H171	0.306800	0.310700	0.852700
H1721	H172	0.498600	0.238800	0.943800
H1731	H173	0.548700	0.194700	0.024600
H1741	H174	0.513100	0.062700	0.974200
H1751	H175	0.415000	0.971400	0.846000
H1761	H176	0.362900	0.013700	0.761800
C1051	C105	0.797500	0.280900	0.646200
C1061	C106	0.844000	0.248900	0.660700
C1071	C107	0.943600	0.371000	0.759200
C1081	C108	0.896300	0.402200	0.746900
C1091	C109	0.924000	0.486900	0.796100
C1101	C110	0.007100	0.540600	0.868500
C1111	C111	0.895300	0.633500	0.793000
C1121	C112	0.916200	0.712800	0.843000
C1131	C113	0.941100	0.738400	0.923900
C1141	C114	0.959000	0.812500	0.971700
C1151	C115	0.952100	0.862400	0.941700
C1161	C116	0.932000	0.839700	0.864500
C1171	C117	0.913200	0.764100	0.814100
C1181	C118	0.134700	0.151300	0.853800
C1191	C119	0.088200	0.183300	0.839300
C1201	C120	0.111800	0.184400	0.740800
C1211	C121	0.155300	0.149400	0.753100
C1221	C122	0.190800	0.127900	0.703900
C1231	C123	0.172100	0.138600	0.631500
C1241	C124	0.340500	0.102300	0.707000
C1251	C125	0.369800	0.073200	0.657000
C1261	C126	0.314500	0.017200	0.576100
C1271	C127	0.340800	0.987300	0.528300
C1281	C128	0.420700	0.010400	0.558300
C1291	C129	0.475200	0.067500	0.635500
C1301	C130	0.450000	0.099100	0.685900
C1311	C131	0.151300	0.797500	0.016600
C1321	C132	0.183300	0.844000	0.095100
C1331	C133	0.184400	0.943600	0.072600
C1341	C134	0.149400	0.896300	0.994100
C1351	C135	0.127900	0.924000	0.937100
C1361	C136	0.138600	0.007100	0.966500
C1371	C137	0.102300	0.895300	0.761800
C1381	C138	0.073200	0.916200	0.703400
C1391	C139	0.017200	0.941100	0.702700
C1401	C140	0.987300	0.959000	0.646500
C1411	C141	0.010400	0.952100	0.589700
C1421	C142	0.067500	0.932000	0.592300
C1431	C143	0.099100	0.913200	0.649100
C1441	C144	0.280900	0.134700	0.483400
C1451	C145	0.248900	0.088200	0.404900
C1461	C146	0.371000	0.111800	0.427400
C1471	C147	0.402200	0.155300	0.505900
C1481	C148	0.486900	0.190800	0.562900
C1491	C149	0.540600	0.172100	0.533500
C1501	C150	0.633500	0.340500	0.738200
C1511	C151	0.712800	0.369800	0.796600
C1521	C152	0.738400	0.314500	0.797300
C1531	C153	0.812500	0.340800	0.853500
C1541	C154	0.862400	0.420700	0.910300
C1551	C155	0.839700	0.475200	0.907700
C1561	C156	0.764100	0.450000	0.850900
C1571	C157	0.365300	0.219100	0.016600
C1581	C158	0.411800	0.251100	0.095100
C1591	C159	0.388200	0.129000	0.072600
C1601	C160	0.344700	0.097800	0.994100
C1611	C161	0.309200	0.013100	0.937100
C1621	C162	0.327900	0.959400	0.966500
C1631	C163	0.159500	0.866500	0.761800
C1641	C164	0.130200	0.787200	0.703400
C1651	C165	0.185500	0.761600	0.702700
C1661	C166	0.159200	0.687500	0.646500
C1671	C167	0.079300	0.637600	0.589700
C1681	C168	0.024800	0.660300	0.592300
C1691	C169	0.050000	0.735900	0.649100
C1701	C170	0.702500	0.348700	0.483400
C1711	C171	0.656000	0.316700	0.404900
C1721	C172	0.556400	0.315600	0.427400
C1731	C173	0.603700	0.350600	0.505900
C1741	C174	0.576000	0.372100	0.562900
C1751	C175	0.492900	0.361400	0.533500
C1761	C176	0.604700	0.397700	0.738200
C1771	C177	0.583800	0.426800	0.796600
C1781	C178	0.558900	0.482800	0.797300
C1791	C179	0.541000	0.512700	0.853500
C1801	C180	0.547900	0.489600	0.910300
C1811	C181	0.568000	0.432500	0.907700
C1821	C182	0.586800	0.400900	0.850900
C1831	C183	0.219100	0.702500	0.853800
C1841	C184	0.251100	0.656000	0.839300
C1851	C185	0.129000	0.556400	0.740800
C1861	C186	0.097800	0.603700	0.753100
C1871	C187	0.013100	0.576000	0.703900
C1881	C188	0.959400	0.492900	0.631500
C1891	C189	0.866500	0.604700	0.707000
C1901	C190	0.787200	0.583800	0.657000
C1911	C191	0.761600	0.558900	0.576100
C1921	C192	0.687500	0.541000	0.528300
C1931	C193	0.637600	0.547900	0.558300
C1941	C194	0.660300	0.568000	0.635500
C1951	C195	0.735900	0.586800	0.685900
C1961	C196	0.348700	0.365300	0.646200
C1971	C197	0.316700	0.411800	0.660700
C1981	C198	0.315600	0.388200	0.759200
C1991	C199	0.350600	0.344700	0.746900
C2001	C200	0.372100	0.309200	0.796100
C2011	C201	0.361400	0.327900	0.868500
C2021	C202	0.397700	0.159500	0.793000
C2031	C203	0.426800	0.130200	0.843000
C2041	C204	0.482800	0.185500	0.923900
C2051	C205	0.512700	0.159200	0.971700
C2061	C206	0.489600	0.079300	0.941700
C2071	C207	0.432500	0.024800	0.864500
C2081	C208	0.400900	0.050000	0.814100
N331	N33	0.822700	0.356900	0.688200
N341	N34	0.917100	0.293800	0.717300
N351	N35	0.878100	0.512100	0.771600
N361	N36	0.903100	0.591200	0.824300
N371	N37	0.168700	0.134500	0.811800
N381	N38	0.076500	0.199800	0.782700
N391	N39	0.240500	0.106500	0.728400
N401	N40	0.266900	0.078800	0.675700
N411	N41	0.134500	0.822700	0.965800
N421	N42	0.199800	0.917100	0.123300
N431	N43	0.106500	0.878100	0.866000
N441	N44	0.078800	0.903100	0.811900
N451	N45	0.356900	0.168700	0.534200
N461	N46	0.293800	0.076500	0.376700
N471	N47	0.512100	0.240500	0.634000
N481	N48	0.591200	0.266900	0.688100
N491	N49	0.331300	0.143100	0.965800
N501	N50	0.423500	0.206200	0.123300
N511	N51	0.259500	0.987900	0.866000
N521	N52	0.233100	0.908800	0.811900
N531	N53	0.677300	0.365500	0.534200
N541	N54	0.582900	0.300200	0.376700
N551	N55	0.621900	0.393500	0.634000
N561	N56	0.596900	0.421200	0.688100
N571	N57	0.143100	0.677300	0.811800
N581	N58	0.206200	0.582900	0.782700
N591	N59	0.987900	0.621900	0.728400
N601	N60	0.908800	0.596900	0.675700
N611	N61	0.365500	0.331300	0.688200
N621	N62	0.300200	0.423500	0.717300
N631	N63	0.393500	0.259500	0.771600
N641	N64	0.421200	0.233100	0.824300
N651	N65	0.811060	0.491400	0.413460
O11	O1	0.745800	0.482900	0.384100
O21	O2	0.862800	0.534300	0.407300
O31	O3	0.827500	0.470100	0.461000
N661	N66	0.577940	0.397600	0.086540
O41	O4	0.598800	0.361700	0.115900
O51	O5	0.627000	0.455500	0.092700
O61	O6	0.509100	0.366500	0.039000
N671	N67	0.397600	0.811060	0.819660
O71	O7	0.361700	0.745800	0.762900
O81	O8	0.455500	0.862800	0.828500
O91	O9	0.366500	0.827500	0.857400
N681	N68	0.491400	0.577940	0.680340
O101	O10	0.482900	0.598800	0.737100
O111	O11	0.534300	0.627000	0.671500
O121	O12	0.470100	0.509100	0.642600
N691	N69	0.922060	0.008600	0.819660
O131	O13	0.901200	0.017100	0.762900
O141	O14	0.873000	0.965700	0.828500
O151	O15	0.990900	0.029900	0.857400
N701	N70	0.688940	0.102400	0.680340
O161	O16	0.754200	0.138300	0.737100
O171	O17	0.637200	0.044500	0.671500
O181	O18	0.672500	0.133500	0.642600
N711	N71	0.008600	0.688940	0.086540
O191	O19	0.017100	0.754200	0.115900
O201	O20	0.965700	0.637200	0.092700
O211	O21	0.029900	0.672500	0.039000
N721	N72	0.102400	0.922060	0.413460
O221	O22	0.138300	0.901200	0.384100
O231	O23	0.044500	0.873000	0.407300
O241	O24	0.133500	0.990900	0.461000
N731	N73	0.188940	0.508600	0.586540
O251	O25	0.254200	0.517100	0.615900
O261	O26	0.137200	0.465700	0.592700
O271	O27	0.172500	0.529900	0.539000
N741	N74	0.422060	0.602400	0.913460
O281	O28	0.401200	0.638300	0.884100
O291	O29	0.373000	0.544500	0.907300
O301	O30	0.490900	0.633500	0.961000
N751	N75	0.602400	0.188940	0.180340
O311	O31	0.638300	0.254200	0.237100
O321	O32	0.544500	0.137200	0.171500
O331	O33	0.633500	0.172500	0.142600
N761	N76	0.508600	0.422060	0.319660
O341	O34	0.517100	0.401200	0.262900
O351	O35	0.465700	0.373000	0.328500
O361	O36	0.529900	0.490900	0.357400
N771	N77	0.077940	0.991400	0.180340
O371	O37	0.098800	0.982900	0.237100
O381	O38	0.127000	0.034300	0.171500
O391	O39	0.009100	0.970100	0.142600
N781	N78	0.311060	0.897600	0.319660
O401	O40	0.245800	0.861700	0.262900
O411	O41	0.362800	0.955500	0.328500
O421	O42	0.327500	0.866500	0.357400
N791	N79	0.991400	0.311060	0.913460
O431	O43	0.982900	0.245800	0.884100
O441	O44	0.034300	0.362800	0.907300
O451	O45	0.970100	0.327500	0.961000
N801	N80	0.897600	0.077940	0.586540
O461	O46	0.861700	0.098800	0.615900
O471	O47	0.955500	0.127000	0.592700
O481	O48	0.866500	0.009100	0.539000
