data_TASWER_clean_PM
_symmetry_space_group_name_H-M	'P1'
_cell_length_a	25.361000
_cell_length_b	26.618400
_cell_length_c	14.531800
_cell_angle_alpha	90.000000
_cell_angle_beta	90.000000
_cell_angle_gamma	90.000000
_symmetry_Int_Tables_number 1

loop_
_symmetry_equiv_pos_as_xyz
'x,y,z'

loop_
_atom_site_label
_atom_site_type_symbol
_atom_site_fract_x
_atom_site_fract_y
_atom_site_fract_z
Gd11	Gd1	0.397780	0.815340	0.146840
Cl11	Cl1	0.576440	0.685030	0.226120
Cl21	Cl2	0.655310	0.633950	0.096950
Cl31	Cl3	0.504470	0.627980	0.832740
Cl41	Cl4	0.425580	0.672980	0.970680
Cl51	Cl5	0.542820	0.433030	0.879660
Cl61	Cl6	0.577690	0.521280	0.001580
Cl71	Cl7	0.636030	0.622560	0.694550
Cl81	Cl8	0.612860	0.526910	0.579720
Cl91	Cl9	0.715930	0.549720	0.918700
Cl101	Cl10	0.822700	0.601380	0.888730
Cl111	Cl11	0.724110	0.779200	0.856720
Cl121	Cl12	0.616970	0.727870	0.872150
O11	O1	0.451780	0.745590	0.136700
O21	O2	0.452820	0.676710	0.223400
O31	O3	0.521900	0.440900	0.638600
O41	O4	0.597640	0.403590	0.676900
O51	O5	0.841240	0.695240	0.771800
O61	O6	0.837160	0.747190	0.894300
C11	C1	0.466200	0.702100	0.156500
C21	C2	0.564900	0.439100	0.677100
C31	C3	0.821000	0.712200	0.844500
C41	C4	0.505300	0.678500	0.090800
C51	C5	0.557400	0.669100	0.117300
C61	C6	0.592400	0.647100	0.056100
C71	C7	0.578400	0.634300	0.966600
C81	C8	0.525800	0.642700	0.941500
C91	C9	0.490600	0.664200	0.003700
C101	C10	0.618200	0.614400	0.901200
C111	C11	0.579700	0.484500	0.736700
C121	C12	0.571300	0.484900	0.830600
C131	C13	0.585000	0.525900	0.885600
C141	C14	0.606300	0.569600	0.844700
C151	C15	0.614400	0.568800	0.750300
C161	C16	0.602000	0.527100	0.697100
C171	C17	0.669100	0.639800	0.892200
C181	C18	0.717300	0.612800	0.895100
C191	C19	0.765200	0.635800	0.883400
C201	C20	0.768800	0.687400	0.869300
C211	C21	0.722300	0.714500	0.872200
C221	C22	0.673400	0.691800	0.882000
Gd21	Gd2	0.102220	0.184660	0.146840
Cl131	Cl13	0.923560	0.314970	0.226120
Cl141	Cl14	0.844690	0.366050	0.096950
Cl151	Cl15	0.995530	0.372020	0.832740
Cl161	Cl16	0.074420	0.327020	0.970680
Cl171	Cl17	0.957180	0.566970	0.879660
Cl181	Cl18	0.922310	0.478720	0.001580
Cl191	Cl19	0.863970	0.377440	0.694550
Cl201	Cl20	0.887140	0.473090	0.579720
Cl211	Cl21	0.784070	0.450280	0.918700
Cl221	Cl22	0.677300	0.398620	0.888730
Cl231	Cl23	0.775890	0.220800	0.856720
Cl241	Cl24	0.883030	0.272130	0.872150
O71	O7	0.048220	0.254410	0.136700
O81	O8	0.047180	0.323290	0.223400
O91	O9	0.978100	0.559100	0.638600
O101	O10	0.902360	0.596410	0.676900
O111	O11	0.658760	0.304760	0.771800
O121	O12	0.662840	0.252810	0.894300
C231	C23	0.033800	0.297900	0.156500
C241	C24	0.935100	0.560900	0.677100
C251	C25	0.679000	0.287800	0.844500
C261	C26	0.994700	0.321500	0.090800
C271	C27	0.942600	0.330900	0.117300
C281	C28	0.907600	0.352900	0.056100
C291	C29	0.921600	0.365700	0.966600
C301	C30	0.974200	0.357300	0.941500
C311	C31	0.009400	0.335800	0.003700
C321	C32	0.881800	0.385600	0.901200
C331	C33	0.920300	0.515500	0.736700
C341	C34	0.928700	0.515100	0.830600
C351	C35	0.915000	0.474100	0.885600
C361	C36	0.893700	0.430400	0.844700
C371	C37	0.885600	0.431200	0.750300
C381	C38	0.898000	0.472900	0.697100
C391	C39	0.830900	0.360200	0.892200
C401	C40	0.782700	0.387200	0.895100
C411	C41	0.734800	0.364200	0.883400
C421	C42	0.731200	0.312600	0.869300
C431	C43	0.777700	0.285500	0.872200
C441	C44	0.826600	0.308200	0.882000
Gd31	Gd3	0.102220	0.315340	0.353160
Cl251	Cl25	0.923560	0.185030	0.273880
Cl261	Cl26	0.844690	0.133950	0.403050
Cl271	Cl27	0.995530	0.127980	0.667260
Cl281	Cl28	0.074420	0.172980	0.529320
Cl291	Cl29	0.957180	0.933030	0.620340
Cl301	Cl30	0.922310	0.021280	0.498420
Cl311	Cl31	0.863970	0.122560	0.805450
Cl321	Cl32	0.887140	0.026910	0.920280
Cl331	Cl33	0.784070	0.049720	0.581300
Cl341	Cl34	0.677300	0.101380	0.611270
Cl351	Cl35	0.775890	0.279200	0.643280
Cl361	Cl36	0.883030	0.227870	0.627850
O131	O13	0.048220	0.245590	0.363300
O141	O14	0.047180	0.176710	0.276600
O151	O15	0.978100	0.940900	0.861400
O161	O16	0.902360	0.903590	0.823100
O171	O17	0.658760	0.195240	0.728200
O181	O18	0.662840	0.247190	0.605700
C451	C45	0.033800	0.202100	0.343500
C461	C46	0.935100	0.939100	0.822900
C471	C47	0.679000	0.212200	0.655500
C481	C48	0.994700	0.178500	0.409200
C491	C49	0.942600	0.169100	0.382700
C501	C50	0.907600	0.147100	0.443900
C511	C51	0.921600	0.134300	0.533400
C521	C52	0.974200	0.142700	0.558500
C531	C53	0.009400	0.164200	0.496300
C541	C54	0.881800	0.114400	0.598800
C551	C55	0.920300	0.984500	0.763300
C561	C56	0.928700	0.984900	0.669400
C571	C57	0.915000	0.025900	0.614400
C581	C58	0.893700	0.069600	0.655300
C591	C59	0.885600	0.068800	0.749700
C601	C60	0.898000	0.027100	0.802900
C611	C61	0.830900	0.139800	0.607800
C621	C62	0.782700	0.112800	0.604900
C631	C63	0.734800	0.135800	0.616600
C641	C64	0.731200	0.187400	0.630700
C651	C65	0.777700	0.214500	0.627800
C661	C66	0.826600	0.191800	0.618000
Gd41	Gd4	0.397780	0.684660	0.353160
Cl371	Cl37	0.576440	0.814970	0.273880
Cl381	Cl38	0.655310	0.866050	0.403050
Cl391	Cl39	0.504470	0.872020	0.667260
Cl401	Cl40	0.425580	0.827020	0.529320
Cl411	Cl41	0.542820	0.066970	0.620340
Cl421	Cl42	0.577690	0.978720	0.498420
Cl431	Cl43	0.636030	0.877440	0.805450
Cl441	Cl44	0.612860	0.973090	0.920280
Cl451	Cl45	0.715930	0.950280	0.581300
Cl461	Cl46	0.822700	0.898620	0.611270
Cl471	Cl47	0.724110	0.720800	0.643280
Cl481	Cl48	0.616970	0.772130	0.627850
O191	O19	0.451780	0.754410	0.363300
O201	O20	0.452820	0.823290	0.276600
O211	O21	0.521900	0.059100	0.861400
O221	O22	0.597640	0.096410	0.823100
O231	O23	0.841240	0.804760	0.728200
O241	O24	0.837160	0.752810	0.605700
C671	C67	0.466200	0.797900	0.343500
C681	C68	0.564900	0.060900	0.822900
C691	C69	0.821000	0.787800	0.655500
C701	C70	0.505300	0.821500	0.409200
C711	C71	0.557400	0.830900	0.382700
C721	C72	0.592400	0.852900	0.443900
C731	C73	0.578400	0.865700	0.533400
C741	C74	0.525800	0.857300	0.558500
C751	C75	0.490600	0.835800	0.496300
C761	C76	0.618200	0.885600	0.598800
C771	C77	0.579700	0.015500	0.763300
C781	C78	0.571300	0.015100	0.669400
C791	C79	0.585000	0.974100	0.614400
C801	C80	0.606300	0.930400	0.655300
C811	C81	0.614400	0.931200	0.749700
C821	C82	0.602000	0.972900	0.802900
C831	C83	0.669100	0.860200	0.607800
C841	C84	0.717300	0.887200	0.604900
C851	C85	0.765200	0.864200	0.616600
C861	C86	0.768800	0.812600	0.630700
C871	C87	0.722300	0.785500	0.627800
C881	C88	0.673400	0.808200	0.618000
Gd51	Gd5	0.602220	0.184660	0.853160
Cl491	Cl49	0.423560	0.314970	0.773880
Cl501	Cl50	0.344690	0.366050	0.903050
Cl511	Cl51	0.495530	0.372020	0.167260
Cl521	Cl52	0.574420	0.327020	0.029320
Cl531	Cl53	0.457180	0.566970	0.120340
Cl541	Cl54	0.422310	0.478720	0.998420
Cl551	Cl55	0.363970	0.377440	0.305450
Cl561	Cl56	0.387140	0.473090	0.420280
Cl571	Cl57	0.284070	0.450280	0.081300
Cl581	Cl58	0.177300	0.398620	0.111270
Cl591	Cl59	0.275890	0.220800	0.143280
Cl601	Cl60	0.383030	0.272130	0.127850
O251	O25	0.548220	0.254410	0.863300
O261	O26	0.547180	0.323290	0.776600
O271	O27	0.478100	0.559100	0.361400
O281	O28	0.402360	0.596410	0.323100
O291	O29	0.158760	0.304760	0.228200
O301	O30	0.162840	0.252810	0.105700
C891	C89	0.533800	0.297900	0.843500
C901	C90	0.435100	0.560900	0.322900
C911	C91	0.179000	0.287800	0.155500
C921	C92	0.494700	0.321500	0.909200
C931	C93	0.442600	0.330900	0.882700
C941	C94	0.407600	0.352900	0.943900
C951	C95	0.421600	0.365700	0.033400
C961	C96	0.474200	0.357300	0.058500
C971	C97	0.509400	0.335800	0.996300
C981	C98	0.381800	0.385600	0.098800
C991	C99	0.420300	0.515500	0.263300
C1001	C100	0.428700	0.515100	0.169400
C1011	C101	0.415000	0.474100	0.114400
C1021	C102	0.393700	0.430400	0.155300
C1031	C103	0.385600	0.431200	0.249700
C1041	C104	0.398000	0.472900	0.302900
C1051	C105	0.330900	0.360200	0.107800
C1061	C106	0.282700	0.387200	0.104900
C1071	C107	0.234800	0.364200	0.116600
C1081	C108	0.231200	0.312600	0.130700
C1091	C109	0.277700	0.285500	0.127800
C1101	C110	0.326600	0.308200	0.118000
Gd61	Gd6	0.897780	0.815340	0.853160
Cl611	Cl61	0.076440	0.685030	0.773880
Cl621	Cl62	0.155310	0.633950	0.903050
Cl631	Cl63	0.004470	0.627980	0.167260
Cl641	Cl64	0.925580	0.672980	0.029320
Cl651	Cl65	0.042820	0.433030	0.120340
Cl661	Cl66	0.077690	0.521280	0.998420
Cl671	Cl67	0.136030	0.622560	0.305450
Cl681	Cl68	0.112860	0.526910	0.420280
Cl691	Cl69	0.215930	0.549720	0.081300
Cl701	Cl70	0.322700	0.601380	0.111270
Cl711	Cl71	0.224110	0.779200	0.143280
Cl721	Cl72	0.116970	0.727870	0.127850
O311	O31	0.951780	0.745590	0.863300
O321	O32	0.952820	0.676710	0.776600
O331	O33	0.021900	0.440900	0.361400
O341	O34	0.097640	0.403590	0.323100
O351	O35	0.341240	0.695240	0.228200
O361	O36	0.337160	0.747190	0.105700
C1111	C111	0.966200	0.702100	0.843500
C1121	C112	0.064900	0.439100	0.322900
C1131	C113	0.321000	0.712200	0.155500
C1141	C114	0.005300	0.678500	0.909200
C1151	C115	0.057400	0.669100	0.882700
C1161	C116	0.092400	0.647100	0.943900
C1171	C117	0.078400	0.634300	0.033400
C1181	C118	0.025800	0.642700	0.058500
C1191	C119	0.990600	0.664200	0.996300
C1201	C120	0.118200	0.614400	0.098800
C1211	C121	0.079700	0.484500	0.263300
C1221	C122	0.071300	0.484900	0.169400
C1231	C123	0.085000	0.525900	0.114400
C1241	C124	0.106300	0.569600	0.155300
C1251	C125	0.114400	0.568800	0.249700
C1261	C126	0.102000	0.527100	0.302900
C1271	C127	0.169100	0.639800	0.107800
C1281	C128	0.217300	0.612800	0.104900
C1291	C129	0.265200	0.635800	0.116600
C1301	C130	0.268800	0.687400	0.130700
C1311	C131	0.222300	0.714500	0.127800
C1321	C132	0.173400	0.691800	0.118000
Gd71	Gd7	0.897780	0.684660	0.646840
Cl731	Cl73	0.076440	0.814970	0.726120
Cl741	Cl74	0.155310	0.866050	0.596950
Cl751	Cl75	0.004470	0.872020	0.332740
Cl761	Cl76	0.925580	0.827020	0.470680
Cl771	Cl77	0.042820	0.066970	0.379660
Cl781	Cl78	0.077690	0.978720	0.501580
Cl791	Cl79	0.136030	0.877440	0.194550
Cl801	Cl80	0.112860	0.973090	0.079720
Cl811	Cl81	0.215930	0.950280	0.418700
Cl821	Cl82	0.322700	0.898620	0.388730
Cl831	Cl83	0.224110	0.720800	0.356720
Cl841	Cl84	0.116970	0.772130	0.372150
O371	O37	0.951780	0.754410	0.636700
O381	O38	0.952820	0.823290	0.723400
O391	O39	0.021900	0.059100	0.138600
O401	O40	0.097640	0.096410	0.176900
O411	O41	0.341240	0.804760	0.271800
O421	O42	0.337160	0.752810	0.394300
C1331	C133	0.966200	0.797900	0.656500
C1341	C134	0.064900	0.060900	0.177100
C1351	C135	0.321000	0.787800	0.344500
C1361	C136	0.005300	0.821500	0.590800
C1371	C137	0.057400	0.830900	0.617300
C1381	C138	0.092400	0.852900	0.556100
C1391	C139	0.078400	0.865700	0.466600
C1401	C140	0.025800	0.857300	0.441500
C1411	C141	0.990600	0.835800	0.503700
C1421	C142	0.118200	0.885600	0.401200
C1431	C143	0.079700	0.015500	0.236700
C1441	C144	0.071300	0.015100	0.330600
C1451	C145	0.085000	0.974100	0.385600
C1461	C146	0.106300	0.930400	0.344700
C1471	C147	0.114400	0.931200	0.250300
C1481	C148	0.102000	0.972900	0.197100
C1491	C149	0.169100	0.860200	0.392200
C1501	C150	0.217300	0.887200	0.395100
C1511	C151	0.265200	0.864200	0.383400
C1521	C152	0.268800	0.812600	0.369300
C1531	C153	0.222300	0.785500	0.372200
C1541	C154	0.173400	0.808200	0.382000
Gd81	Gd8	0.602220	0.315340	0.646840
Cl851	Cl85	0.423560	0.185030	0.726120
Cl861	Cl86	0.344690	0.133950	0.596950
Cl871	Cl87	0.495530	0.127980	0.332740
Cl881	Cl88	0.574420	0.172980	0.470680
Cl891	Cl89	0.457180	0.933030	0.379660
Cl901	Cl90	0.422310	0.021280	0.501580
Cl911	Cl91	0.363970	0.122560	0.194550
Cl921	Cl92	0.387140	0.026910	0.079720
Cl931	Cl93	0.284070	0.049720	0.418700
Cl941	Cl94	0.177300	0.101380	0.388730
Cl951	Cl95	0.275890	0.279200	0.356720
Cl961	Cl96	0.383030	0.227870	0.372150
O431	O43	0.548220	0.245590	0.636700
O441	O44	0.547180	0.176710	0.723400
O451	O45	0.478100	0.940900	0.138600
O461	O46	0.402360	0.903590	0.176900
O471	O47	0.158760	0.195240	0.271800
O481	O48	0.162840	0.247190	0.394300
C1551	C155	0.533800	0.202100	0.656500
C1561	C156	0.435100	0.939100	0.177100
C1571	C157	0.179000	0.212200	0.344500
C1581	C158	0.494700	0.178500	0.590800
C1591	C159	0.442600	0.169100	0.617300
C1601	C160	0.407600	0.147100	0.556100
C1611	C161	0.421600	0.134300	0.466600
C1621	C162	0.474200	0.142700	0.441500
C1631	C163	0.509400	0.164200	0.503700
C1641	C164	0.381800	0.114400	0.401200
C1651	C165	0.420300	0.984500	0.236700
C1661	C166	0.428700	0.984900	0.330600
C1671	C167	0.415000	0.025900	0.385600
C1681	C168	0.393700	0.069600	0.344700
C1691	C169	0.385600	0.068800	0.250300
C1701	C170	0.398000	0.027100	0.197100
C1711	C171	0.330900	0.139800	0.392200
C1721	C172	0.282700	0.112800	0.395100
C1731	C173	0.234800	0.135800	0.383400
C1741	C174	0.231200	0.187400	0.369300
C1751	C175	0.277700	0.214500	0.372200
C1761	C176	0.326600	0.191800	0.382000
