data_TASYUJ_charged_PM
_symmetry_space_group_name_H-M	'P1'
_cell_length_a	28.104300
_cell_length_b	28.104300
_cell_length_c	28.104300
_cell_angle_alpha	109.471000
_cell_angle_beta	109.471000
_cell_angle_gamma	109.471000
_symmetry_Int_Tables_number 1

loop_
_symmetry_equiv_pos_as_xyz
'x,y,z'

loop_
_atom_site_label
_atom_site_type_symbol
_atom_site_fract_x
_atom_site_fract_y
_atom_site_fract_z
Cu11	Cu1	0.500000	0.000000	0.000000
Cu21	Cu2	0.000000	0.500000	0.000000
Cu31	Cu3	0.000000	0.000000	0.500000
Cu41	Cu4	0.500000	0.500000	0.500000
Cu51	Cu5	0.000000	0.761090	0.761090
Cu61	Cu6	0.000000	0.238910	0.238910
Cu71	Cu7	0.238910	0.000000	0.238910
Cu81	Cu8	0.761090	0.000000	0.761090
Cu91	Cu9	0.238910	0.238910	0.000000
Cu101	Cu10	0.761090	0.761090	0.000000
H11	H1	0.204800	0.917500	0.903500
H21	H2	0.280500	0.942400	0.884500
H31	H3	0.108500	0.857000	0.870900
H41	H4	0.356400	0.004700	0.800700
H51	H5	0.172900	0.838700	0.737200
H61	H6	0.366400	0.944000	0.912400
H71	H7	0.455200	0.072100	0.860500
H81	H8	0.077500	0.781700	0.709000
H91	H9	0.014000	0.301300	0.096500
H101	H10	0.057900	0.396000	0.115500
H111	H11	0.986100	0.237600	0.129100
H121	H12	0.204000	0.555700	0.199300
H131	H13	0.101500	0.435700	0.262800
H141	H14	0.031600	0.454000	0.087600
H151	H15	0.211600	0.594700	0.139500
H161	H16	0.072700	0.368500	0.291000
H171	H17	0.986000	0.082500	0.287300
H181	H18	0.942100	0.057600	0.338100
H191	H19	0.013900	0.143000	0.251500
H201	H20	0.796000	0.995300	0.351700
H211	H21	0.898500	0.161300	0.334200
H221	H22	0.968400	0.056000	0.422400
H231	H23	0.788400	0.927900	0.383100
H241	H24	0.927300	0.218300	0.295800
H251	H25	0.795200	0.698700	0.712700
H261	H26	0.719500	0.604000	0.661900
H271	H27	0.891500	0.762400	0.748500
H281	H28	0.643600	0.444300	0.648300
H291	H29	0.827100	0.564300	0.665800
H301	H30	0.633600	0.546000	0.577600
H311	H31	0.544800	0.405300	0.616900
H321	H32	0.922500	0.631500	0.704200
H331	H33	0.287300	0.986000	0.082500
H341	H34	0.338100	0.942100	0.057600
H351	H35	0.251500	0.013900	0.143000
H361	H36	0.351700	0.796000	0.995300
H371	H37	0.334200	0.898500	0.161300
H381	H38	0.422400	0.968400	0.056000
H391	H39	0.383100	0.788400	0.927900
H401	H40	0.295800	0.927300	0.218300
H411	H41	0.712700	0.795200	0.698700
H421	H42	0.661900	0.719500	0.604000
H431	H43	0.748500	0.891500	0.762400
H441	H44	0.648300	0.643600	0.444300
H451	H45	0.665800	0.827100	0.564300
H461	H46	0.577600	0.633600	0.546000
H471	H47	0.616900	0.544800	0.405300
H481	H48	0.704200	0.922500	0.631500
H491	H49	0.903500	0.204800	0.917500
H501	H50	0.884500	0.280500	0.942400
H511	H51	0.870900	0.108500	0.857000
H521	H52	0.800700	0.356400	0.004700
H531	H53	0.737200	0.172900	0.838700
H541	H54	0.912400	0.366400	0.944000
H551	H55	0.860500	0.455200	0.072100
H561	H56	0.709000	0.077500	0.781700
H571	H57	0.096500	0.014000	0.301300
H581	H58	0.115500	0.057900	0.396000
H591	H59	0.129100	0.986100	0.237600
H601	H60	0.199300	0.204000	0.555700
H611	H61	0.262800	0.101500	0.435700
H621	H62	0.087600	0.031600	0.454000
H631	H63	0.139500	0.211600	0.594700
H641	H64	0.291000	0.072700	0.368500
H651	H65	0.301300	0.096500	0.014000
H661	H66	0.396000	0.115500	0.057900
H671	H67	0.237600	0.129100	0.986100
H681	H68	0.555700	0.199300	0.204000
H691	H69	0.435700	0.262800	0.101500
H701	H70	0.454000	0.087600	0.031600
H711	H71	0.594700	0.139500	0.211600
H721	H72	0.368500	0.291000	0.072700
H731	H73	0.917500	0.903500	0.204800
H741	H74	0.942400	0.884500	0.280500
H751	H75	0.857000	0.870900	0.108500
H761	H76	0.004700	0.800700	0.356400
H771	H77	0.838700	0.737200	0.172900
H781	H78	0.944000	0.912400	0.366400
H791	H79	0.072100	0.860500	0.455200
H801	H80	0.781700	0.709000	0.077500
H811	H81	0.698700	0.712700	0.795200
H821	H82	0.604000	0.661900	0.719500
H831	H83	0.762400	0.748500	0.891500
H841	H84	0.444300	0.648300	0.643600
H851	H85	0.564300	0.665800	0.827100
H861	H86	0.546000	0.577600	0.633600
H871	H87	0.405300	0.616900	0.544800
H881	H88	0.631500	0.704200	0.922500
H891	H89	0.082500	0.287300	0.986000
H901	H90	0.057600	0.338100	0.942100
H911	H91	0.143000	0.251500	0.013900
H921	H92	0.995300	0.351700	0.796000
H931	H93	0.161300	0.334200	0.898500
H941	H94	0.056000	0.422400	0.968400
H951	H95	0.927900	0.383100	0.788400
H961	H96	0.218300	0.295800	0.927300
H971	H97	0.082500	0.795200	0.096500
H981	H98	0.057600	0.719500	0.115500
H991	H99	0.143000	0.891500	0.129100
H1001	H100	0.995300	0.643600	0.199300
H1011	H101	0.161300	0.827100	0.262800
H1021	H102	0.056000	0.633600	0.087600
H1031	H103	0.927900	0.544800	0.139500
H1041	H104	0.218300	0.922500	0.291000
H1051	H105	0.698700	0.986000	0.903500
H1061	H106	0.604000	0.942100	0.884500
H1071	H107	0.762400	0.013900	0.870900
H1081	H108	0.444300	0.796000	0.800700
H1091	H109	0.564300	0.898500	0.737200
H1101	H110	0.546000	0.968400	0.912400
H1111	H111	0.405300	0.788400	0.860500
H1121	H112	0.631500	0.927300	0.709000
H1131	H113	0.917500	0.014000	0.712700
H1141	H114	0.942400	0.057900	0.661900
H1151	H115	0.857000	0.986100	0.748500
H1161	H116	0.004700	0.204000	0.648300
H1171	H117	0.838700	0.101500	0.665800
H1181	H118	0.944000	0.031600	0.577600
H1191	H119	0.072100	0.211600	0.616900
H1201	H120	0.781700	0.072700	0.704200
H1211	H121	0.301300	0.204800	0.287300
H1221	H122	0.396000	0.280500	0.338100
H1231	H123	0.237600	0.108500	0.251500
H1241	H124	0.555700	0.356400	0.351700
H1251	H125	0.435700	0.172900	0.334200
H1261	H126	0.454000	0.366400	0.422400
H1271	H127	0.594700	0.455200	0.383100
H1281	H128	0.368500	0.077500	0.295800
H1291	H129	0.014000	0.712700	0.917500
H1301	H130	0.057900	0.661900	0.942400
H1311	H131	0.986100	0.748500	0.857000
H1321	H132	0.204000	0.648300	0.004700
H1331	H133	0.101500	0.665800	0.838700
H1341	H134	0.031600	0.577600	0.944000
H1351	H135	0.211600	0.616900	0.072100
H1361	H136	0.072700	0.704200	0.781700
H1371	H137	0.204800	0.287300	0.301300
H1381	H138	0.280500	0.338100	0.396000
H1391	H139	0.108500	0.251500	0.237600
H1401	H140	0.356400	0.351700	0.555700
H1411	H141	0.172900	0.334200	0.435700
H1421	H142	0.366400	0.422400	0.454000
H1431	H143	0.455200	0.383100	0.594700
H1441	H144	0.077500	0.295800	0.368500
H1451	H145	0.795200	0.096500	0.082500
H1461	H146	0.719500	0.115500	0.057600
H1471	H147	0.891500	0.129100	0.143000
H1481	H148	0.643600	0.199300	0.995300
H1491	H149	0.827100	0.262800	0.161300
H1501	H150	0.633600	0.087600	0.056000
H1511	H151	0.544800	0.139500	0.927900
H1521	H152	0.922500	0.291000	0.218300
H1531	H153	0.986000	0.903500	0.698700
H1541	H154	0.942100	0.884500	0.604000
H1551	H155	0.013900	0.870900	0.762400
H1561	H156	0.796000	0.800700	0.444300
H1571	H157	0.898500	0.737200	0.564300
H1581	H158	0.968400	0.912400	0.546000
H1591	H159	0.788400	0.860500	0.405300
H1601	H160	0.927300	0.709000	0.631500
H1611	H161	0.903500	0.698700	0.986000
H1621	H162	0.884500	0.604000	0.942100
H1631	H163	0.870900	0.762400	0.013900
H1641	H164	0.800700	0.444300	0.796000
H1651	H165	0.737200	0.564300	0.898500
H1661	H166	0.912400	0.546000	0.968400
H1671	H167	0.860500	0.405300	0.788400
H1681	H168	0.709000	0.631500	0.927300
H1691	H169	0.096500	0.082500	0.795200
H1701	H170	0.115500	0.057600	0.719500
H1711	H171	0.129100	0.143000	0.891500
H1721	H172	0.199300	0.995300	0.643600
H1731	H173	0.262800	0.161300	0.827100
H1741	H174	0.087600	0.056000	0.633600
H1751	H175	0.139500	0.927900	0.544800
H1761	H176	0.291000	0.218300	0.922500
H1771	H177	0.287300	0.301300	0.204800
H1781	H178	0.338100	0.396000	0.280500
H1791	H179	0.251500	0.237600	0.108500
H1801	H180	0.351700	0.555700	0.356400
H1811	H181	0.334200	0.435700	0.172900
H1821	H182	0.422400	0.454000	0.366400
H1831	H183	0.383100	0.594700	0.455200
H1841	H184	0.295800	0.368500	0.077500
H1851	H185	0.712700	0.917500	0.014000
H1861	H186	0.661900	0.942400	0.057900
H1871	H187	0.748500	0.857000	0.986100
H1881	H188	0.648300	0.004700	0.204000
H1891	H189	0.665800	0.838700	0.101500
H1901	H190	0.577600	0.944000	0.031600
H1911	H191	0.616900	0.072100	0.211600
H1921	H192	0.704200	0.781700	0.072700
C11	C1	0.179330	0.889290	0.863280
C21	C2	0.121780	0.853320	0.843640
C31	C3	0.378220	0.006220	0.835740
C41	C4	0.468370	0.043120	0.918470
C51	C5	0.160680	0.843160	0.765340
C61	C6	0.200800	0.884820	0.824780
C71	C7	0.384910	0.970140	0.901590
C81	C8	0.436540	0.044570	0.869890
C91	C9	0.104200	0.809440	0.749120
C101	C10	0.285560	0.927050	0.815050
C111	C11	0.351240	0.969900	0.852280
C121	C12	0.026010	0.316050	0.136720
C131	C13	0.009680	0.278140	0.156360
C141	C14	0.170480	0.542480	0.164260
C151	C15	0.124650	0.549900	0.081530
C161	C16	0.077820	0.395340	0.234660
C171	C17	0.060040	0.376020	0.175220
C181	C18	0.068550	0.483320	0.098410
C191	C19	0.174680	0.566650	0.130110
C201	C20	0.060320	0.355080	0.250880
C211	C21	0.112000	0.470510	0.184950
C221	C22	0.117620	0.498960	0.147720
C231	C23	0.973990	0.110710	0.290040
C241	C24	0.990320	0.146680	0.268460
C251	C25	0.829520	0.993780	0.372000
C261	C26	0.875350	0.956880	0.425250
C271	C27	0.922180	0.156840	0.317520
C281	C28	0.939960	0.115180	0.315980
C291	C29	0.931450	0.029860	0.414770
C301	C30	0.825320	0.955430	0.391970
C311	C31	0.939680	0.190560	0.294760
C321	C32	0.888000	0.072950	0.358510
C331	C33	0.882380	0.030100	0.381340
C341	C34	0.820670	0.683950	0.709960
C351	C35	0.878220	0.721860	0.731540
C361	C36	0.621780	0.457520	0.628000
C371	C37	0.531630	0.450100	0.574750
C381	C38	0.839320	0.604660	0.682480
C391	C39	0.799200	0.623980	0.684020
C401	C40	0.615090	0.516680	0.585230
C411	C41	0.563460	0.433350	0.608030
C421	C42	0.895800	0.644920	0.705240
C431	C43	0.714440	0.529490	0.641490
C441	C44	0.648760	0.501040	0.618660
C451	C45	0.290040	0.973990	0.110710
C461	C46	0.268460	0.990320	0.146680
C471	C47	0.372000	0.829520	0.993780
C481	C48	0.425250	0.875350	0.956880
C491	C49	0.317520	0.922180	0.156840
C501	C50	0.315980	0.939960	0.115180
C511	C51	0.414770	0.931450	0.029860
C521	C52	0.391970	0.825320	0.955430
C531	C53	0.294760	0.939680	0.190560
C541	C54	0.358510	0.888000	0.072950
C551	C55	0.381340	0.882380	0.030100
C561	C56	0.709960	0.820670	0.683950
C571	C57	0.731540	0.878220	0.721860
C581	C58	0.628000	0.621780	0.457520
C591	C59	0.574750	0.531630	0.450100
C601	C60	0.682480	0.839320	0.604660
C611	C61	0.684020	0.799200	0.623980
C621	C62	0.585230	0.615090	0.516680
C631	C63	0.608030	0.563460	0.433350
C641	C64	0.705240	0.895800	0.644920
C651	C65	0.641490	0.714440	0.529490
C661	C66	0.618660	0.648760	0.501040
C671	C67	0.863280	0.179330	0.889290
C681	C68	0.843640	0.121780	0.853320
C691	C69	0.835740	0.378220	0.006220
C701	C70	0.918470	0.468370	0.043120
C711	C71	0.765340	0.160680	0.843160
C721	C72	0.824780	0.200800	0.884820
C731	C73	0.901590	0.384910	0.970140
C741	C74	0.869890	0.436540	0.044570
C751	C75	0.749120	0.104200	0.809440
C761	C76	0.815050	0.285560	0.927050
C771	C77	0.852280	0.351240	0.969900
C781	C78	0.136720	0.026010	0.316050
C791	C79	0.156360	0.009680	0.278140
C801	C80	0.164260	0.170480	0.542480
C811	C81	0.081530	0.124650	0.549900
C821	C82	0.234660	0.077820	0.395340
C831	C83	0.175220	0.060040	0.376020
C841	C84	0.098410	0.068550	0.483320
C851	C85	0.130110	0.174680	0.566650
C861	C86	0.250880	0.060320	0.355080
C871	C87	0.184950	0.112000	0.470510
C881	C88	0.147720	0.117620	0.498960
C891	C89	0.316050	0.136720	0.026010
C901	C90	0.278140	0.156360	0.009680
C911	C91	0.542480	0.164260	0.170480
C921	C92	0.549900	0.081530	0.124650
C931	C93	0.395340	0.234660	0.077820
C941	C94	0.376020	0.175220	0.060040
C951	C95	0.483320	0.098410	0.068550
C961	C96	0.566650	0.130110	0.174680
C971	C97	0.355080	0.250880	0.060320
C981	C98	0.470510	0.184950	0.112000
C991	C99	0.498960	0.147720	0.117620
C1001	C100	0.889290	0.863280	0.179330
C1011	C101	0.853320	0.843640	0.121780
C1021	C102	0.006220	0.835740	0.378220
C1031	C103	0.043120	0.918470	0.468370
C1041	C104	0.843160	0.765340	0.160680
C1051	C105	0.884820	0.824780	0.200800
C1061	C106	0.970140	0.901590	0.384910
C1071	C107	0.044570	0.869890	0.436540
C1081	C108	0.809440	0.749120	0.104200
C1091	C109	0.927050	0.815050	0.285560
C1101	C110	0.969900	0.852280	0.351240
C1111	C111	0.683950	0.709960	0.820670
C1121	C112	0.721860	0.731540	0.878220
C1131	C113	0.457520	0.628000	0.621780
C1141	C114	0.450100	0.574750	0.531630
C1151	C115	0.604660	0.682480	0.839320
C1161	C116	0.623980	0.684020	0.799200
C1171	C117	0.516680	0.585230	0.615090
C1181	C118	0.433350	0.608030	0.563460
C1191	C119	0.644920	0.705240	0.895800
C1201	C120	0.529490	0.641490	0.714440
C1211	C121	0.501040	0.618660	0.648760
C1221	C122	0.110710	0.290040	0.973990
C1231	C123	0.146680	0.268460	0.990320
C1241	C124	0.993780	0.372000	0.829520
C1251	C125	0.956880	0.425250	0.875350
C1261	C126	0.156840	0.317520	0.922180
C1271	C127	0.115180	0.315980	0.939960
C1281	C128	0.029860	0.414770	0.931450
C1291	C129	0.955430	0.391970	0.825320
C1301	C130	0.190560	0.294760	0.939680
C1311	C131	0.072950	0.358510	0.888000
C1321	C132	0.030100	0.381340	0.882380
C1331	C133	0.110710	0.820670	0.136720
C1341	C134	0.146680	0.878220	0.156360
C1351	C135	0.993780	0.621780	0.164260
C1361	C136	0.956880	0.531630	0.081530
C1371	C137	0.156840	0.839320	0.234660
C1381	C138	0.115180	0.799200	0.175220
C1391	C139	0.029860	0.615090	0.098410
C1401	C140	0.955430	0.563460	0.130110
C1411	C141	0.190560	0.895800	0.250880
C1421	C142	0.072950	0.714440	0.184950
C1431	C143	0.030100	0.648760	0.147720
C1441	C144	0.683950	0.973990	0.863280
C1451	C145	0.721860	0.990320	0.843640
C1461	C146	0.457520	0.829520	0.835740
C1471	C147	0.450100	0.875350	0.918470
C1481	C148	0.604660	0.922180	0.765340
C1491	C149	0.623980	0.939960	0.824780
C1501	C150	0.516680	0.931450	0.901590
C1511	C151	0.433350	0.825320	0.869890
C1521	C152	0.644920	0.939680	0.749120
C1531	C153	0.529490	0.888000	0.815050
C1541	C154	0.501040	0.882380	0.852280
C1551	C155	0.889290	0.026010	0.709960
C1561	C156	0.853320	0.009680	0.731540
C1571	C157	0.006220	0.170480	0.628000
C1581	C158	0.043120	0.124650	0.574750
C1591	C159	0.843160	0.077820	0.682480
C1601	C160	0.884820	0.060040	0.684020
C1611	C161	0.970140	0.068550	0.585230
C1621	C162	0.044570	0.174680	0.608030
C1631	C163	0.809440	0.060320	0.705240
C1641	C164	0.927050	0.112000	0.641490
C1651	C165	0.969900	0.117620	0.618660
C1661	C166	0.316050	0.179330	0.290040
C1671	C167	0.278140	0.121780	0.268460
C1681	C168	0.542480	0.378220	0.372000
C1691	C169	0.549900	0.468370	0.425250
C1701	C170	0.395340	0.160680	0.317520
C1711	C171	0.376020	0.200800	0.315980
C1721	C172	0.483320	0.384910	0.414770
C1731	C173	0.566650	0.436540	0.391970
C1741	C174	0.355080	0.104200	0.294760
C1751	C175	0.470510	0.285560	0.358510
C1761	C176	0.498960	0.351240	0.381340
C1771	C177	0.026010	0.709960	0.889290
C1781	C178	0.009680	0.731540	0.853320
C1791	C179	0.170480	0.628000	0.006220
C1801	C180	0.124650	0.574750	0.043120
C1811	C181	0.077820	0.682480	0.843160
C1821	C182	0.060040	0.684020	0.884820
C1831	C183	0.068550	0.585230	0.970140
C1841	C184	0.174680	0.608030	0.044570
C1851	C185	0.060320	0.705240	0.809440
C1861	C186	0.112000	0.641490	0.927050
C1871	C187	0.117620	0.618660	0.969900
C1881	C188	0.179330	0.290040	0.316050
C1891	C189	0.121780	0.268460	0.278140
C1901	C190	0.378220	0.372000	0.542480
C1911	C191	0.468370	0.425250	0.549900
C1921	C192	0.160680	0.317520	0.395340
C1931	C193	0.200800	0.315980	0.376020
C1941	C194	0.384910	0.414770	0.483320
C1951	C195	0.436540	0.391970	0.566650
C1961	C196	0.104200	0.294760	0.355080
C1971	C197	0.285560	0.358510	0.470510
C1981	C198	0.351240	0.381340	0.498960
C1991	C199	0.820670	0.136720	0.110710
C2001	C200	0.878220	0.156360	0.146680
C2011	C201	0.621780	0.164260	0.993780
C2021	C202	0.531630	0.081530	0.956880
C2031	C203	0.839320	0.234660	0.156840
C2041	C204	0.799200	0.175220	0.115180
C2051	C205	0.615090	0.098410	0.029860
C2061	C206	0.563460	0.130110	0.955430
C2071	C207	0.895800	0.250880	0.190560
C2081	C208	0.714440	0.184950	0.072950
C2091	C209	0.648760	0.147720	0.030100
C2101	C210	0.973990	0.863280	0.683950
C2111	C211	0.990320	0.843640	0.721860
C2121	C212	0.829520	0.835740	0.457520
C2131	C213	0.875350	0.918470	0.450100
C2141	C214	0.922180	0.765340	0.604660
C2151	C215	0.939960	0.824780	0.623980
C2161	C216	0.931450	0.901590	0.516680
C2171	C217	0.825320	0.869890	0.433350
C2181	C218	0.939680	0.749120	0.644920
C2191	C219	0.888000	0.815050	0.529490
C2201	C220	0.882380	0.852280	0.501040
C2211	C221	0.863280	0.683950	0.973990
C2221	C222	0.843640	0.721860	0.990320
C2231	C223	0.835740	0.457520	0.829520
C2241	C224	0.918470	0.450100	0.875350
C2251	C225	0.765340	0.604660	0.922180
C2261	C226	0.824780	0.623980	0.939960
C2271	C227	0.901590	0.516680	0.931450
C2281	C228	0.869890	0.433350	0.825320
C2291	C229	0.749120	0.644920	0.939680
C2301	C230	0.815050	0.529490	0.888000
C2311	C231	0.852280	0.501040	0.882380
C2321	C232	0.136720	0.110710	0.820670
C2331	C233	0.156360	0.146680	0.878220
C2341	C234	0.164260	0.993780	0.621780
C2351	C235	0.081530	0.956880	0.531630
C2361	C236	0.234660	0.156840	0.839320
C2371	C237	0.175220	0.115180	0.799200
C2381	C238	0.098410	0.029860	0.615090
C2391	C239	0.130110	0.955430	0.563460
C2401	C240	0.250880	0.190560	0.895800
C2411	C241	0.184950	0.072950	0.714440
C2421	C242	0.147720	0.030100	0.648760
C2431	C243	0.290040	0.316050	0.179330
C2441	C244	0.268460	0.278140	0.121780
C2451	C245	0.372000	0.542480	0.378220
C2461	C246	0.425250	0.549900	0.468370
C2471	C247	0.317520	0.395340	0.160680
C2481	C248	0.315980	0.376020	0.200800
C2491	C249	0.414770	0.483320	0.384910
C2501	C250	0.391970	0.566650	0.436540
C2511	C251	0.294760	0.355080	0.104200
C2521	C252	0.358510	0.470510	0.285560
C2531	C253	0.381340	0.498960	0.351240
C2541	C254	0.709960	0.889290	0.026010
C2551	C255	0.731540	0.853320	0.009680
C2561	C256	0.628000	0.006220	0.170480
C2571	C257	0.574750	0.043120	0.124650
C2581	C258	0.682480	0.843160	0.077820
C2591	C259	0.684020	0.884820	0.060040
C2601	C260	0.585230	0.970140	0.068550
C2611	C261	0.608030	0.044570	0.174680
C2621	C262	0.705240	0.809440	0.060320
C2631	C263	0.641490	0.927050	0.112000
C2641	C264	0.618660	0.969900	0.117620
N11	N1	0.442050	0.005770	0.934020
N21	N2	0.083630	0.813100	0.787190
N31	N3	0.258550	0.920910	0.846360
N41	N4	0.071750	0.508030	0.065980
N51	N5	0.025910	0.296440	0.212810
N61	N6	0.074550	0.412190	0.153640
N71	N7	0.928250	0.994230	0.436280
N81	N8	0.974090	0.186900	0.270530
N91	N9	0.925450	0.079090	0.337640
N101	N10	0.557950	0.491970	0.563720
N111	N11	0.916370	0.703560	0.729470
N121	N12	0.741450	0.587810	0.662360
N131	N13	0.436280	0.928250	0.994230
N141	N14	0.270530	0.974090	0.186900
N151	N15	0.337640	0.925450	0.079090
N161	N16	0.563720	0.557950	0.491970
N171	N17	0.729470	0.916370	0.703560
N181	N18	0.662360	0.741450	0.587810
N191	N19	0.934020	0.442050	0.005770
N201	N20	0.787190	0.083630	0.813100
N211	N21	0.846360	0.258550	0.920910
N221	N22	0.065980	0.071750	0.508030
N231	N23	0.212810	0.025910	0.296440
N241	N24	0.153640	0.074550	0.412190
N251	N25	0.508030	0.065980	0.071750
N261	N26	0.296440	0.212810	0.025910
N271	N27	0.412190	0.153640	0.074550
N281	N28	0.005770	0.934020	0.442050
N291	N29	0.813100	0.787190	0.083630
N301	N30	0.920910	0.846360	0.258550
N311	N31	0.491970	0.563720	0.557950
N321	N32	0.703560	0.729470	0.916370
N331	N33	0.587810	0.662360	0.741450
N341	N34	0.994230	0.436280	0.928250
N351	N35	0.186900	0.270530	0.974090
N361	N36	0.079090	0.337640	0.925450
N371	N37	0.994230	0.557950	0.065980
N381	N38	0.186900	0.916370	0.212810
N391	N39	0.079090	0.741450	0.153640
N401	N40	0.491970	0.928250	0.934020
N411	N41	0.703560	0.974090	0.787190
N421	N42	0.587810	0.925450	0.846360
N431	N43	0.005770	0.071750	0.563720
N441	N44	0.813100	0.025910	0.729470
N451	N45	0.920910	0.074550	0.662360
N461	N46	0.508030	0.442050	0.436280
N471	N47	0.296440	0.083630	0.270530
N481	N48	0.412190	0.258550	0.337640
N491	N49	0.071750	0.563720	0.005770
N501	N50	0.025910	0.729470	0.813100
N511	N51	0.074550	0.662360	0.920910
N521	N52	0.442050	0.436280	0.508030
N531	N53	0.083630	0.270530	0.296440
N541	N54	0.258550	0.337640	0.412190
N551	N55	0.557950	0.065980	0.994230
N561	N56	0.916370	0.212810	0.186900
N571	N57	0.741450	0.153640	0.079090
N581	N58	0.928250	0.934020	0.491970
N591	N59	0.974090	0.787190	0.703560
N601	N60	0.925450	0.846360	0.587810
N611	N61	0.934020	0.491970	0.928250
N621	N62	0.787190	0.703560	0.974090
N631	N63	0.846360	0.587810	0.925450
N641	N64	0.065980	0.994230	0.557950
N651	N65	0.212810	0.186900	0.916370
N661	N66	0.153640	0.079090	0.741450
N671	N67	0.436280	0.508030	0.442050
N681	N68	0.270530	0.296440	0.083630
N691	N69	0.337640	0.412190	0.258550
N701	N70	0.563720	0.005770	0.071750
N711	N71	0.729470	0.813100	0.025910
N721	N72	0.662360	0.920910	0.074550
O11	O1	0.262390	0.904540	0.763130
O21	O2	0.141410	0.499260	0.236870
O31	O3	0.858590	0.095460	0.357850
O41	O4	0.737610	0.500740	0.642150
O51	O5	0.357850	0.858590	0.095460
O61	O6	0.642150	0.737610	0.500740
O71	O7	0.763130	0.262390	0.904540
O81	O8	0.236870	0.141410	0.499260
O91	O9	0.499260	0.236870	0.141410
O101	O10	0.904540	0.763130	0.262390
O111	O11	0.500740	0.642150	0.737610
O121	O12	0.095460	0.357850	0.858590
O131	O13	0.095460	0.737610	0.236870
O141	O14	0.500740	0.858590	0.763130
O151	O15	0.904540	0.141410	0.642150
O161	O16	0.499260	0.262390	0.357850
O171	O17	0.141410	0.642150	0.904540
O181	O18	0.262390	0.357850	0.499260
O191	O19	0.737610	0.236870	0.095460
O201	O20	0.858590	0.763130	0.500740
O211	O21	0.763130	0.500740	0.858590
O221	O22	0.236870	0.095460	0.737610
O231	O23	0.357850	0.499260	0.262390
O241	O24	0.642150	0.904540	0.141410
N731	N73	0.333880	0.000000	0.000000
O251	O25	0.329500	0.020050	0.966350
O261	O26	0.309450	0.946300	0.979950
O271	O27	0.363150	0.033650	0.053700
N741	N74	0.194400	0.000000	0.000000
O281	O28	0.181440	0.010180	0.959260
O291	O29	0.171260	0.949080	0.989820
O301	O30	0.222180	0.040740	0.050920
N751	N75	0.000000	0.333880	0.000000
O311	O31	0.053700	0.363150	0.033650
O321	O32	0.966350	0.329500	0.020050
O331	O33	0.979950	0.309450	0.946300
N761	N76	0.000000	0.194400	0.000000
O341	O34	0.050920	0.222180	0.040740
O351	O35	0.959260	0.181440	0.010180
O361	O36	0.989820	0.171260	0.949080
N771	N77	0.000000	0.000000	0.333880
O371	O37	0.946300	0.979950	0.309450
O381	O38	0.033650	0.053700	0.363150
O391	O39	0.020050	0.966350	0.329500
N781	N78	0.000000	0.000000	0.194400
O401	O40	0.949080	0.989820	0.171260
O411	O41	0.040740	0.050920	0.222180
O421	O42	0.010180	0.959260	0.181440
N791	N79	0.666120	0.666120	0.666120
O431	O43	0.670500	0.636850	0.690550
O441	O44	0.690550	0.670500	0.636850
O451	O45	0.636850	0.690550	0.670500
N801	N80	0.805600	0.805600	0.805600
O461	O46	0.818560	0.777820	0.828740
O471	O47	0.828740	0.818560	0.777820
O481	O48	0.777820	0.828740	0.818560
N811	N81	0.000000	0.666120	0.000000
O491	O49	0.979950	0.670500	0.033650
O501	O50	0.053700	0.690550	0.020050
O511	O51	0.966350	0.636850	0.946300
N821	N82	0.000000	0.805600	0.000000
O521	O52	0.989820	0.818560	0.040740
O531	O53	0.050920	0.828740	0.010180
O541	O54	0.959260	0.777820	0.949080
N831	N83	0.666120	0.000000	0.000000
O551	O55	0.636850	0.946300	0.966350
O561	O56	0.670500	0.033650	0.979950
O571	O57	0.690550	0.020050	0.053700
N841	N84	0.805600	0.000000	0.000000
O581	O58	0.777820	0.949080	0.959260
O591	O59	0.818560	0.040740	0.989820
O601	O60	0.828740	0.010180	0.050920
N851	N85	0.000000	0.000000	0.666120
O611	O61	0.020050	0.053700	0.690550
O621	O62	0.946300	0.966350	0.636850
O631	O63	0.033650	0.979950	0.670500
N861	N86	0.000000	0.000000	0.805600
O641	O64	0.010180	0.050920	0.828740
O651	O65	0.949080	0.959260	0.777820
O661	O66	0.040740	0.989820	0.818560
N871	N87	0.333880	0.333880	0.333880
O671	O67	0.363150	0.329500	0.309450
O681	O68	0.329500	0.309450	0.363150
O691	O69	0.309450	0.363150	0.329500
N881	N88	0.194400	0.194400	0.194400
O701	O70	0.222180	0.181440	0.171260
O711	O71	0.181440	0.171260	0.222180
O721	O72	0.171260	0.222180	0.181440
