data_TASZEU_charged_PM
_symmetry_space_group_name_H-M	'P1'
_cell_length_a	28.264500
_cell_length_b	28.264500
_cell_length_c	28.264500
_cell_angle_alpha	109.471000
_cell_angle_beta	109.471000
_cell_angle_gamma	109.471000
_symmetry_Int_Tables_number 1

loop_
_symmetry_equiv_pos_as_xyz
'x,y,z'

loop_
_atom_site_label
_atom_site_type_symbol
_atom_site_fract_x
_atom_site_fract_y
_atom_site_fract_z
Fe11	Fe1	0.500000	0.000000	0.000000
Fe21	Fe2	0.000000	0.500000	0.000000
Fe31	Fe3	0.000000	0.000000	0.500000
Fe41	Fe4	0.500000	0.500000	0.500000
Cu11	Cu1	0.000000	0.242720	0.242720
Cu21	Cu2	0.000000	0.757280	0.757280
Cu31	Cu3	0.757280	0.000000	0.757280
Cu41	Cu4	0.242720	0.000000	0.242720
Cu51	Cu5	0.757280	0.757280	0.000000
Cu61	Cu6	0.242720	0.242720	0.000000
H11	H1	0.797800	0.087200	0.099800
H21	H2	0.825400	0.165300	0.260900
H31	H3	0.721000	0.060300	0.116500
H41	H4	0.891700	0.146900	0.134000
H51	H5	0.645800	0.996500	0.198900
H61	H6	0.631300	0.053600	0.085300
H71	H7	0.543600	0.927600	0.137600
H81	H8	0.920100	0.217800	0.290700
H91	H9	0.987400	0.698000	0.900200
H101	H10	0.904400	0.564500	0.739100
H111	H11	0.943800	0.604500	0.883500
H121	H12	0.012900	0.757700	0.866000
H131	H13	0.797600	0.446900	0.801100
H141	H14	0.968300	0.546000	0.914700
H151	H15	0.790000	0.406000	0.862400
H161	H16	0.927100	0.629400	0.709300
H171	H17	0.012600	0.912800	0.710600
H181	H18	0.095600	0.834700	0.660100
H191	H19	0.056200	0.939700	0.660700
H201	H20	0.987100	0.853100	0.744800
H211	H21	0.202400	0.003500	0.649300
H221	H22	0.031700	0.946400	0.577700
H231	H23	0.210000	0.072400	0.616000
H241	H24	0.072900	0.782200	0.702300
H251	H25	0.202200	0.302000	0.289400
H261	H26	0.174600	0.435500	0.339900
H271	H27	0.279000	0.395500	0.339300
H281	H28	0.108300	0.242300	0.255200
H291	H29	0.354200	0.553100	0.350700
H301	H30	0.368700	0.454000	0.422300
H311	H31	0.456400	0.594000	0.384000
H321	H32	0.079900	0.370600	0.297700
H331	H33	0.710600	0.012600	0.912800
H341	H34	0.660100	0.095600	0.834700
H351	H35	0.660700	0.056200	0.939700
H361	H36	0.744800	0.987100	0.853100
H371	H37	0.649300	0.202400	0.003500
H381	H38	0.577700	0.031700	0.946400
H391	H39	0.616000	0.210000	0.072400
H401	H40	0.702300	0.072900	0.782200
H411	H41	0.289400	0.202200	0.302000
H421	H42	0.339900	0.174600	0.435500
H431	H43	0.339300	0.279000	0.395500
H441	H44	0.255200	0.108300	0.242300
H451	H45	0.350700	0.354200	0.553100
H461	H46	0.422300	0.368700	0.454000
H471	H47	0.384000	0.456400	0.594000
H481	H48	0.297700	0.079900	0.370600
H491	H49	0.099800	0.797800	0.087200
H501	H50	0.260900	0.825400	0.165300
H511	H51	0.116500	0.721000	0.060300
H521	H52	0.134000	0.891700	0.146900
H531	H53	0.198900	0.645800	0.996500
H541	H54	0.085300	0.631300	0.053600
H551	H55	0.137600	0.543600	0.927600
H561	H56	0.290700	0.920100	0.217800
H571	H57	0.900200	0.987400	0.698000
H581	H58	0.739100	0.904400	0.564500
H591	H59	0.883500	0.943800	0.604500
H601	H60	0.866000	0.012900	0.757700
H611	H61	0.801100	0.797600	0.446900
H621	H62	0.914700	0.968300	0.546000
H631	H63	0.862400	0.790000	0.406000
H641	H64	0.709300	0.927100	0.629400
H651	H65	0.698000	0.900200	0.987400
H661	H66	0.564500	0.739100	0.904400
H671	H67	0.604500	0.883500	0.943800
H681	H68	0.757700	0.866000	0.012900
H691	H69	0.446900	0.801100	0.797600
H701	H70	0.546000	0.914700	0.968300
H711	H71	0.406000	0.862400	0.790000
H721	H72	0.629400	0.709300	0.927100
H731	H73	0.087200	0.099800	0.797800
H741	H74	0.165300	0.260900	0.825400
H751	H75	0.060300	0.116500	0.721000
H761	H76	0.146900	0.134000	0.891700
H771	H77	0.996500	0.198900	0.645800
H781	H78	0.053600	0.085300	0.631300
H791	H79	0.927600	0.137600	0.543600
H801	H80	0.217800	0.290700	0.920100
H811	H81	0.302000	0.289400	0.202200
H821	H82	0.435500	0.339900	0.174600
H831	H83	0.395500	0.339300	0.279000
H841	H84	0.242300	0.255200	0.108300
H851	H85	0.553100	0.350700	0.354200
H861	H86	0.454000	0.422300	0.368700
H871	H87	0.594000	0.384000	0.456400
H881	H88	0.370600	0.297700	0.079900
H891	H89	0.912800	0.710600	0.012600
H901	H90	0.834700	0.660100	0.095600
H911	H91	0.939700	0.660700	0.056200
H921	H92	0.853100	0.744800	0.987100
H931	H93	0.003500	0.649300	0.202400
H941	H94	0.946400	0.577700	0.031700
H951	H95	0.072400	0.616000	0.210000
H961	H96	0.782200	0.702300	0.072900
H971	H97	0.912800	0.202200	0.900200
H981	H98	0.834700	0.174600	0.739100
H991	H99	0.939700	0.279000	0.883500
H1001	H100	0.853100	0.108300	0.866000
H1011	H101	0.003500	0.354200	0.801100
H1021	H102	0.946400	0.368700	0.914700
H1031	H103	0.072400	0.456400	0.862400
H1041	H104	0.782200	0.079900	0.709300
H1051	H105	0.302000	0.012600	0.099800
H1061	H106	0.435500	0.095600	0.260900
H1071	H107	0.395500	0.056200	0.116500
H1081	H108	0.242300	0.987100	0.134000
H1091	H109	0.553100	0.202400	0.198900
H1101	H110	0.454000	0.031700	0.085300
H1111	H111	0.594000	0.210000	0.137600
H1121	H112	0.370600	0.072900	0.290700
H1131	H113	0.087200	0.987400	0.289400
H1141	H114	0.165300	0.904400	0.339900
H1151	H115	0.060300	0.943800	0.339300
H1161	H116	0.146900	0.012900	0.255200
H1171	H117	0.996500	0.797600	0.350700
H1181	H118	0.053600	0.968300	0.422300
H1191	H119	0.927600	0.790000	0.384000
H1201	H120	0.217800	0.927100	0.297700
H1211	H121	0.698000	0.797800	0.710600
H1221	H122	0.564500	0.825400	0.660100
H1231	H123	0.604500	0.721000	0.660700
H1241	H124	0.757700	0.891700	0.744800
H1251	H125	0.446900	0.645800	0.649300
H1261	H126	0.546000	0.631300	0.577700
H1271	H127	0.406000	0.543600	0.616000
H1281	H128	0.629400	0.920100	0.702300
H1291	H129	0.987400	0.289400	0.087200
H1301	H130	0.904400	0.339900	0.165300
H1311	H131	0.943800	0.339300	0.060300
H1321	H132	0.012900	0.255200	0.146900
H1331	H133	0.797600	0.350700	0.996500
H1341	H134	0.968300	0.422300	0.053600
H1351	H135	0.790000	0.384000	0.927600
H1361	H136	0.927100	0.297700	0.217800
H1371	H137	0.797800	0.710600	0.698000
H1381	H138	0.825400	0.660100	0.564500
H1391	H139	0.721000	0.660700	0.604500
H1401	H140	0.891700	0.744800	0.757700
H1411	H141	0.645800	0.649300	0.446900
H1421	H142	0.631300	0.577700	0.546000
H1431	H143	0.543600	0.616000	0.406000
H1441	H144	0.920100	0.702300	0.629400
H1451	H145	0.202200	0.900200	0.912800
H1461	H146	0.174600	0.739100	0.834700
H1471	H147	0.279000	0.883500	0.939700
H1481	H148	0.108300	0.866000	0.853100
H1491	H149	0.354200	0.801100	0.003500
H1501	H150	0.368700	0.914700	0.946400
H1511	H151	0.456400	0.862400	0.072400
H1521	H152	0.079900	0.709300	0.782200
H1531	H153	0.012600	0.099800	0.302000
H1541	H154	0.095600	0.260900	0.435500
H1551	H155	0.056200	0.116500	0.395500
H1561	H156	0.987100	0.134000	0.242300
H1571	H157	0.202400	0.198900	0.553100
H1581	H158	0.031700	0.085300	0.454000
H1591	H159	0.210000	0.137600	0.594000
H1601	H160	0.072900	0.290700	0.370600
H1611	H161	0.099800	0.302000	0.012600
H1621	H162	0.260900	0.435500	0.095600
H1631	H163	0.116500	0.395500	0.056200
H1641	H164	0.134000	0.242300	0.987100
H1651	H165	0.198900	0.553100	0.202400
H1661	H166	0.085300	0.454000	0.031700
H1671	H167	0.137600	0.594000	0.210000
H1681	H168	0.290700	0.370600	0.072900
H1691	H169	0.900200	0.912800	0.202200
H1701	H170	0.739100	0.834700	0.174600
H1711	H171	0.883500	0.939700	0.279000
H1721	H172	0.866000	0.853100	0.108300
H1731	H173	0.801100	0.003500	0.354200
H1741	H174	0.914700	0.946400	0.368700
H1751	H175	0.862400	0.072400	0.456400
H1761	H176	0.709300	0.782200	0.079900
H1771	H177	0.710600	0.698000	0.797800
H1781	H178	0.660100	0.564500	0.825400
H1791	H179	0.660700	0.604500	0.721000
H1801	H180	0.744800	0.757700	0.891700
H1811	H181	0.649300	0.446900	0.645800
H1821	H182	0.577700	0.546000	0.631300
H1831	H183	0.616000	0.406000	0.543600
H1841	H184	0.702300	0.629400	0.920100
H1851	H185	0.289400	0.087200	0.987400
H1861	H186	0.339900	0.165300	0.904400
H1871	H187	0.339300	0.060300	0.943800
H1881	H188	0.255200	0.146900	0.012900
H1891	H189	0.350700	0.996500	0.797600
H1901	H190	0.422300	0.053600	0.968300
H1911	H191	0.384000	0.927600	0.790000
H1921	H192	0.297700	0.217800	0.927100
C11	C1	0.821700	0.114340	0.139160
C21	C2	0.838120	0.159650	0.234150
C31	C3	0.532190	0.956630	0.080260
C41	C4	0.799260	0.117580	0.176060
C51	C5	0.878130	0.150350	0.160100
C61	C6	0.624010	0.994830	0.164800
C71	C7	0.649580	0.031190	0.146650
C81	C8	0.613970	0.029060	0.097050
C91	C9	0.713290	0.072130	0.182040
C101	C10	0.562370	0.954320	0.128610
C111	C11	0.894290	0.192200	0.251290
C121	C12	0.975180	0.682540	0.860840
C131	C13	0.925500	0.603970	0.765850
C141	C14	0.876370	0.451930	0.919740
C151	C15	0.941520	0.623200	0.823940
C161	C16	0.990250	0.718030	0.839900
C171	C17	0.830030	0.459210	0.835200
C181	C18	0.884540	0.502930	0.853350
C191	C19	0.932010	0.516920	0.902950
C201	C20	0.890090	0.531250	0.817960
C211	C21	0.825710	0.433760	0.871390
C221	C22	0.940910	0.643000	0.748710
C231	C23	0.024820	0.885660	0.707360
C241	C24	0.074500	0.840350	0.678470
C251	C25	0.123630	0.043370	0.575560
C261	C26	0.058480	0.882420	0.681680
C271	C27	0.009750	0.849650	0.727780
C281	C28	0.169970	0.005170	0.629180
C291	C29	0.115460	0.968810	0.618390
C301	C30	0.067990	0.970940	0.584910
C311	C31	0.109910	0.927870	0.641160
C321	C32	0.174290	0.045680	0.608050
C331	C33	0.059090	0.807800	0.702090
C341	C34	0.178300	0.317460	0.292640
C351	C35	0.161880	0.396030	0.321530
C361	C36	0.467810	0.548070	0.424440
C371	C37	0.200740	0.376800	0.318320
C381	C38	0.121870	0.281970	0.272220
C391	C39	0.375990	0.540790	0.370820
C401	C40	0.350420	0.497070	0.381610
C411	C41	0.386030	0.483080	0.415090
C421	C42	0.286710	0.468750	0.358840
C431	C43	0.437630	0.566240	0.391950
C441	C44	0.105710	0.357000	0.297910
C451	C45	0.707360	0.024820	0.885660
C461	C46	0.678470	0.074500	0.840350
C471	C47	0.575560	0.123630	0.043370
C481	C48	0.681680	0.058480	0.882420
C491	C49	0.727780	0.009750	0.849650
C501	C50	0.629180	0.169970	0.005170
C511	C51	0.618390	0.115460	0.968810
C521	C52	0.584910	0.067990	0.970940
C531	C53	0.641160	0.109910	0.927870
C541	C54	0.608050	0.174290	0.045680
C551	C55	0.702090	0.059090	0.807800
C561	C56	0.292640	0.178300	0.317460
C571	C57	0.321530	0.161880	0.396030
C581	C58	0.424440	0.467810	0.548070
C591	C59	0.318320	0.200740	0.376800
C601	C60	0.272220	0.121870	0.281970
C611	C61	0.370820	0.375990	0.540790
C621	C62	0.381610	0.350420	0.497070
C631	C63	0.415090	0.386030	0.483080
C641	C64	0.358840	0.286710	0.468750
C651	C65	0.391950	0.437630	0.566240
C661	C66	0.297910	0.105710	0.357000
C671	C67	0.139160	0.821700	0.114340
C681	C68	0.234150	0.838120	0.159650
C691	C69	0.080260	0.532190	0.956630
C701	C70	0.176060	0.799260	0.117580
C711	C71	0.160100	0.878130	0.150350
C721	C72	0.164800	0.624010	0.994830
C731	C73	0.146650	0.649580	0.031190
C741	C74	0.097050	0.613970	0.029060
C751	C75	0.182040	0.713290	0.072130
C761	C76	0.128610	0.562370	0.954320
C771	C77	0.251290	0.894290	0.192200
C781	C78	0.860840	0.975180	0.682540
C791	C79	0.765850	0.925500	0.603970
C801	C80	0.919740	0.876370	0.451930
C811	C81	0.823940	0.941520	0.623200
C821	C82	0.839900	0.990250	0.718030
C831	C83	0.835200	0.830030	0.459210
C841	C84	0.853350	0.884540	0.502930
C851	C85	0.902950	0.932010	0.516920
C861	C86	0.817960	0.890090	0.531250
C871	C87	0.871390	0.825710	0.433760
C881	C88	0.748710	0.940910	0.643000
C891	C89	0.682540	0.860840	0.975180
C901	C90	0.603970	0.765850	0.925500
C911	C91	0.451930	0.919740	0.876370
C921	C92	0.623200	0.823940	0.941520
C931	C93	0.718030	0.839900	0.990250
C941	C94	0.459210	0.835200	0.830030
C951	C95	0.502930	0.853350	0.884540
C961	C96	0.516920	0.902950	0.932010
C971	C97	0.531250	0.817960	0.890090
C981	C98	0.433760	0.871390	0.825710
C991	C99	0.643000	0.748710	0.940910
C1001	C100	0.114340	0.139160	0.821700
C1011	C101	0.159650	0.234150	0.838120
C1021	C102	0.956630	0.080260	0.532190
C1031	C103	0.117580	0.176060	0.799260
C1041	C104	0.150350	0.160100	0.878130
C1051	C105	0.994830	0.164800	0.624010
C1061	C106	0.031190	0.146650	0.649580
C1071	C107	0.029060	0.097050	0.613970
C1081	C108	0.072130	0.182040	0.713290
C1091	C109	0.954320	0.128610	0.562370
C1101	C110	0.192200	0.251290	0.894290
C1111	C111	0.317460	0.292640	0.178300
C1121	C112	0.396030	0.321530	0.161880
C1131	C113	0.548070	0.424440	0.467810
C1141	C114	0.376800	0.318320	0.200740
C1151	C115	0.281970	0.272220	0.121870
C1161	C116	0.540790	0.370820	0.375990
C1171	C117	0.497070	0.381610	0.350420
C1181	C118	0.483080	0.415090	0.386030
C1191	C119	0.468750	0.358840	0.286710
C1201	C120	0.566240	0.391950	0.437630
C1211	C121	0.357000	0.297910	0.105710
C1221	C122	0.885660	0.707360	0.024820
C1231	C123	0.840350	0.678470	0.074500
C1241	C124	0.043370	0.575560	0.123630
C1251	C125	0.882420	0.681680	0.058480
C1261	C126	0.849650	0.727780	0.009750
C1271	C127	0.005170	0.629180	0.169970
C1281	C128	0.968810	0.618390	0.115460
C1291	C129	0.970940	0.584910	0.067990
C1301	C130	0.927870	0.641160	0.109910
C1311	C131	0.045680	0.608050	0.174290
C1321	C132	0.807800	0.702090	0.059090
C1331	C133	0.885660	0.178300	0.860840
C1341	C134	0.840350	0.161880	0.765850
C1351	C135	0.043370	0.467810	0.919740
C1361	C136	0.882420	0.200740	0.823940
C1371	C137	0.849650	0.121870	0.839900
C1381	C138	0.005170	0.375990	0.835200
C1391	C139	0.968810	0.350420	0.853350
C1401	C140	0.970940	0.386030	0.902950
C1411	C141	0.927870	0.286710	0.817960
C1421	C142	0.045680	0.437630	0.871390
C1431	C143	0.807800	0.105710	0.748710
C1441	C144	0.317460	0.024820	0.139160
C1451	C145	0.396030	0.074500	0.234150
C1461	C146	0.548070	0.123630	0.080260
C1471	C147	0.376800	0.058480	0.176060
C1481	C148	0.281970	0.009750	0.160100
C1491	C149	0.540790	0.169970	0.164800
C1501	C150	0.497070	0.115460	0.146650
C1511	C151	0.483080	0.067990	0.097050
C1521	C152	0.468750	0.109910	0.182040
C1531	C153	0.566240	0.174290	0.128610
C1541	C154	0.357000	0.059090	0.251290
C1551	C155	0.114340	0.975180	0.292640
C1561	C156	0.159650	0.925500	0.321530
C1571	C157	0.956630	0.876370	0.424440
C1581	C158	0.117580	0.941520	0.318320
C1591	C159	0.150350	0.990250	0.272220
C1601	C160	0.994830	0.830030	0.370820
C1611	C161	0.031190	0.884540	0.381610
C1621	C162	0.029060	0.932010	0.415090
C1631	C163	0.072130	0.890090	0.358840
C1641	C164	0.954320	0.825710	0.391950
C1651	C165	0.192200	0.940910	0.297910
C1661	C166	0.682540	0.821700	0.707360
C1671	C167	0.603970	0.838120	0.678470
C1681	C168	0.451930	0.532190	0.575560
C1691	C169	0.623200	0.799260	0.681680
C1701	C170	0.718030	0.878130	0.727780
C1711	C171	0.459210	0.624010	0.629180
C1721	C172	0.502930	0.649580	0.618390
C1731	C173	0.516920	0.613970	0.584910
C1741	C174	0.531250	0.713290	0.641160
C1751	C175	0.433760	0.562370	0.608050
C1761	C176	0.643000	0.894290	0.702090
C1771	C177	0.975180	0.292640	0.114340
C1781	C178	0.925500	0.321530	0.159650
C1791	C179	0.876370	0.424440	0.956630
C1801	C180	0.941520	0.318320	0.117580
C1811	C181	0.990250	0.272220	0.150350
C1821	C182	0.830030	0.370820	0.994830
C1831	C183	0.884540	0.381610	0.031190
C1841	C184	0.932010	0.415090	0.029060
C1851	C185	0.890090	0.358840	0.072130
C1861	C186	0.825710	0.391950	0.954320
C1871	C187	0.940910	0.297910	0.192200
C1881	C188	0.821700	0.707360	0.682540
C1891	C189	0.838120	0.678470	0.603970
C1901	C190	0.532190	0.575560	0.451930
C1911	C191	0.799260	0.681680	0.623200
C1921	C192	0.878130	0.727780	0.718030
C1931	C193	0.624010	0.629180	0.459210
C1941	C194	0.649580	0.618390	0.502930
C1951	C195	0.613970	0.584910	0.516920
C1961	C196	0.713290	0.641160	0.531250
C1971	C197	0.562370	0.608050	0.433760
C1981	C198	0.894290	0.702090	0.643000
C1991	C199	0.178300	0.860840	0.885660
C2001	C200	0.161880	0.765850	0.840350
C2011	C201	0.467810	0.919740	0.043370
C2021	C202	0.200740	0.823940	0.882420
C2031	C203	0.121870	0.839900	0.849650
C2041	C204	0.375990	0.835200	0.005170
C2051	C205	0.350420	0.853350	0.968810
C2061	C206	0.386030	0.902950	0.970940
C2071	C207	0.286710	0.817960	0.927870
C2081	C208	0.437630	0.871390	0.045680
C2091	C209	0.105710	0.748710	0.807800
C2101	C210	0.024820	0.139160	0.317460
C2111	C211	0.074500	0.234150	0.396030
C2121	C212	0.123630	0.080260	0.548070
C2131	C213	0.058480	0.176060	0.376800
C2141	C214	0.009750	0.160100	0.281970
C2151	C215	0.169970	0.164800	0.540790
C2161	C216	0.115460	0.146650	0.497070
C2171	C217	0.067990	0.097050	0.483080
C2181	C218	0.109910	0.182040	0.468750
C2191	C219	0.174290	0.128610	0.566240
C2201	C220	0.059090	0.251290	0.357000
C2211	C221	0.139160	0.317460	0.024820
C2221	C222	0.234150	0.396030	0.074500
C2231	C223	0.080260	0.548070	0.123630
C2241	C224	0.176060	0.376800	0.058480
C2251	C225	0.160100	0.281970	0.009750
C2261	C226	0.164800	0.540790	0.169970
C2271	C227	0.146650	0.497070	0.115460
C2281	C228	0.097050	0.483080	0.067990
C2291	C229	0.182040	0.468750	0.109910
C2301	C230	0.128610	0.566240	0.174290
C2311	C231	0.251290	0.357000	0.059090
C2321	C232	0.860840	0.885660	0.178300
C2331	C233	0.765850	0.840350	0.161880
C2341	C234	0.919740	0.043370	0.467810
C2351	C235	0.823940	0.882420	0.200740
C2361	C236	0.839900	0.849650	0.121870
C2371	C237	0.835200	0.005170	0.375990
C2381	C238	0.853350	0.968810	0.350420
C2391	C239	0.902950	0.970940	0.386030
C2401	C240	0.817960	0.927870	0.286710
C2411	C241	0.871390	0.045680	0.437630
C2421	C242	0.748710	0.807800	0.105710
C2431	C243	0.707360	0.682540	0.821700
C2441	C244	0.678470	0.603970	0.838120
C2451	C245	0.575560	0.451930	0.532190
C2461	C246	0.681680	0.623200	0.799260
C2471	C247	0.727780	0.718030	0.878130
C2481	C248	0.629180	0.459210	0.624010
C2491	C249	0.618390	0.502930	0.649580
C2501	C250	0.584910	0.516920	0.613970
C2511	C251	0.641160	0.531250	0.713290
C2521	C252	0.608050	0.433760	0.562370
C2531	C253	0.702090	0.643000	0.894290
C2541	C254	0.292640	0.114340	0.975180
C2551	C255	0.321530	0.159650	0.925500
C2561	C256	0.424440	0.956630	0.876370
C2571	C257	0.318320	0.117580	0.941520
C2581	C258	0.272220	0.150350	0.990250
C2591	C259	0.370820	0.994830	0.830030
C2601	C260	0.381610	0.031190	0.884540
C2611	C261	0.415090	0.029060	0.932010
C2621	C262	0.358840	0.072130	0.890090
C2631	C263	0.391950	0.954320	0.825710
C2641	C264	0.297910	0.192200	0.940910
N11	N1	0.557710	0.994740	0.065870
N21	N2	0.741500	0.080600	0.153660
N31	N3	0.915180	0.189730	0.214430
N41	N4	0.928870	0.491840	0.934130
N51	N5	0.926940	0.587840	0.846340
N61	N6	0.975300	0.700750	0.785570
N71	N7	0.071130	0.005260	0.562970
N81	N8	0.073060	0.919400	0.660900
N91	N9	0.024700	0.810270	0.725450
N101	N10	0.442290	0.508160	0.437030
N111	N11	0.258500	0.412160	0.339100
N121	N12	0.084820	0.299250	0.274550
N131	N13	0.562970	0.071130	0.005260
N141	N14	0.660900	0.073060	0.919400
N151	N15	0.725450	0.024700	0.810270
N161	N16	0.437030	0.442290	0.508160
N171	N17	0.339100	0.258500	0.412160
N181	N18	0.274550	0.084820	0.299250
N191	N19	0.065870	0.557710	0.994740
N201	N20	0.153660	0.741500	0.080600
N211	N21	0.214430	0.915180	0.189730
N221	N22	0.934130	0.928870	0.491840
N231	N23	0.846340	0.926940	0.587840
N241	N24	0.785570	0.975300	0.700750
N251	N25	0.491840	0.934130	0.928870
N261	N26	0.587840	0.846340	0.926940
N271	N27	0.700750	0.785570	0.975300
N281	N28	0.994740	0.065870	0.557710
N291	N29	0.080600	0.153660	0.741500
N301	N30	0.189730	0.214430	0.915180
N311	N31	0.508160	0.437030	0.442290
N321	N32	0.412160	0.339100	0.258500
N331	N33	0.299250	0.274550	0.084820
N341	N34	0.005260	0.562970	0.071130
N351	N35	0.919400	0.660900	0.073060
N361	N36	0.810270	0.725450	0.024700
N371	N37	0.005260	0.442290	0.934130
N381	N38	0.919400	0.258500	0.846340
N391	N39	0.810270	0.084820	0.785570
N401	N40	0.508160	0.071130	0.065870
N411	N41	0.412160	0.073060	0.153660
N421	N42	0.299250	0.024700	0.214430
N431	N43	0.994740	0.928870	0.437030
N441	N44	0.080600	0.926940	0.339100
N451	N45	0.189730	0.975300	0.274550
N461	N46	0.491840	0.557710	0.562970
N471	N47	0.587840	0.741500	0.660900
N481	N48	0.700750	0.915180	0.725450
N491	N49	0.928870	0.437030	0.994740
N501	N50	0.926940	0.339100	0.080600
N511	N51	0.975300	0.274550	0.189730
N521	N52	0.557710	0.562970	0.491840
N531	N53	0.741500	0.660900	0.587840
N541	N54	0.915180	0.725450	0.700750
N551	N55	0.442290	0.934130	0.005260
N561	N56	0.258500	0.846340	0.919400
N571	N57	0.084820	0.785570	0.810270
N581	N58	0.071130	0.065870	0.508160
N591	N59	0.073060	0.153660	0.412160
N601	N60	0.024700	0.214430	0.299250
N611	N61	0.065870	0.508160	0.071130
N621	N62	0.153660	0.412160	0.073060
N631	N63	0.214430	0.299250	0.024700
N641	N64	0.934130	0.005260	0.442290
N651	N65	0.846340	0.919400	0.258500
N661	N66	0.785570	0.810270	0.084820
N671	N67	0.562970	0.491840	0.557710
N681	N68	0.660900	0.587840	0.741500
N691	N69	0.725450	0.700750	0.915180
N701	N70	0.437030	0.994740	0.928870
N711	N71	0.339100	0.080600	0.926940
N721	N72	0.274550	0.189730	0.975300
O11	O1	0.737330	0.093750	0.234620
O21	O2	0.859130	0.502710	0.765380
O31	O3	0.140870	0.906250	0.643580
O41	O4	0.262670	0.497290	0.356420
O51	O5	0.643580	0.140870	0.906250
O61	O6	0.356420	0.262670	0.497290
O71	O7	0.234620	0.737330	0.093750
O81	O8	0.765380	0.859130	0.502710
O91	O9	0.502710	0.765380	0.859130
O101	O10	0.093750	0.234620	0.737330
O111	O11	0.497290	0.356420	0.262670
O121	O12	0.906250	0.643580	0.140870
O131	O13	0.906250	0.262670	0.765380
O141	O14	0.497290	0.140870	0.234620
O151	O15	0.093750	0.859130	0.356420
O161	O16	0.502710	0.737330	0.643580
O171	O17	0.859130	0.356420	0.093750
O181	O18	0.737330	0.643580	0.502710
O191	O19	0.262670	0.765380	0.906250
O201	O20	0.140870	0.234620	0.497290
O211	O21	0.234620	0.497290	0.140870
O221	O22	0.765380	0.906250	0.262670
O231	O23	0.643580	0.502710	0.737330
O241	O24	0.356420	0.093750	0.859130
N731	N73	0.666660	0.000000	0.000000
O251	O25	0.667680	0.977220	0.031720
O261	O26	0.690460	0.054500	0.022780
O271	O27	0.635960	0.968280	0.945500
N741	N74	0.000000	0.666660	0.000000
O281	O28	0.945500	0.635960	0.968280
O291	O29	0.031720	0.667680	0.977220
O301	O30	0.022780	0.690460	0.054500
N751	N75	0.000000	0.000000	0.666660
O311	O31	0.054500	0.022780	0.690460
O321	O32	0.968280	0.945500	0.635960
O331	O33	0.977220	0.031720	0.667680
N761	N76	0.333340	0.333340	0.333340
O341	O34	0.332320	0.364040	0.309540
O351	O35	0.309540	0.332320	0.364040
O361	O36	0.364040	0.309540	0.332320
N771	N77	0.000000	0.333340	0.000000
O371	O37	0.022780	0.332320	0.968280
O381	O38	0.945500	0.309540	0.977220
O391	O39	0.031720	0.364040	0.054500
N781	N78	0.333340	0.000000	0.000000
O401	O40	0.364040	0.054500	0.031720
O411	O41	0.332320	0.968280	0.022780
O421	O42	0.309540	0.977220	0.945500
N791	N79	0.000000	0.000000	0.333340
O431	O43	0.977220	0.945500	0.309540
O441	O44	0.054500	0.031720	0.364040
O451	O45	0.968280	0.022780	0.332320
N801	N80	0.666660	0.666660	0.666660
O461	O46	0.635960	0.667680	0.690460
O471	O47	0.667680	0.690460	0.635960
O481	O48	0.690460	0.635960	0.667680
