data_TAVCIF_clean_PM
_symmetry_space_group_name_H-M	'P1'
_cell_length_a	11.602500
_cell_length_b	16.398000
_cell_length_c	16.796000
_cell_angle_alpha	90.000000
_cell_angle_beta	109.300000
_cell_angle_gamma	90.000000
_symmetry_Int_Tables_number 1

loop_
_symmetry_equiv_pos_as_xyz
'x,y,z'

loop_
_atom_site_label
_atom_site_type_symbol
_atom_site_fract_x
_atom_site_fract_y
_atom_site_fract_z
Zn11	Zn1	0.332700	0.490860	0.225350
N11	N1	0.186700	0.444700	0.129300
N21	N2	0.721400	0.279000	0.859900
H11	H1	0.732700	0.307900	0.819700
O11	O1	0.785400	0.271800	0.005500
C11	C1	0.080800	0.417800	0.983900
H21	H2	0.077200	0.424000	0.927500
O21	O2	0.767300	0.771900	0.944080
N31	N3	0.893200	0.345400	0.936600
H31	H3	0.892600	0.359100	0.886500
N41	N4	0.825700	0.772200	0.089100
H41	H4	0.881000	0.791700	0.133600
N51	N5	0.937800	0.842700	0.024100
H51	H5	0.972200	0.861700	0.074800
O31	O3	0.174000	0.886020	0.733120
C21	C2	0.478100	0.569900	0.168700
C31	C3	0.735800	0.722900	0.103900
O41	O4	0.426200	0.514500	0.117800
O51	O5	0.457900	0.580700	0.236800
C41	C4	0.656000	0.673500	0.043000
H61	H6	0.657000	0.673500	0.987300
C51	C5	0.569600	0.623400	0.147100
C61	C6	0.176500	0.449800	0.047900
H71	H7	0.238400	0.476900	0.033800
C71	C7	0.574000	0.623600	0.066300
H81	H8	0.520600	0.589600	0.025500
C81	C8	0.991300	0.865700	0.964500
C91	C9	0.649000	0.673400	0.206900
H91	H9	0.647000	0.674100	0.262400
C101	C10	0.628300	0.222700	0.835000
C111	C11	0.798500	0.295700	0.939800
C121	C12	0.152100	0.942400	0.936700
H101	H10	0.216900	0.979900	0.954700
C131	C13	0.189600	0.928500	0.797300
C141	C14	0.999000	0.369600	0.087100
H111	H11	0.939500	0.341600	0.103100
C151	C15	0.955700	0.835300	0.882300
H121	H12	0.887200	0.801000	0.862800
C161	C16	0.120000	0.908900	0.856300
C171	C17	0.836900	0.793400	0.012800
C181	C18	0.089000	0.920600	0.990000
H131	H13	0.112100	0.943000	0.044600
C191	C19	0.988500	0.375900	0.003100
C201	C20	0.731000	0.722100	0.185500
H141	H14	0.784700	0.755500	0.226800
C211	C21	0.020600	0.855500	0.829900
H151	H15	0.997700	0.832900	0.775400
C221	C22	0.561600	0.217000	0.751400
H161	H16	0.578200	0.252700	0.712700
C231	C23	0.470500	0.159800	0.723000
H171	H17	0.425300	0.158400	0.665100
C241	C24	0.501600	0.116300	0.859400
H181	H18	0.476900	0.083100	0.896400
C251	C25	0.594400	0.172500	0.893400
H191	H19	0.633000	0.177400	0.952000
C261	C26	0.097100	0.404600	0.147200
H201	H20	0.101900	0.400400	0.204100
O61	O6	0.262200	0.988990	0.816600
N61	N6	0.443500	0.106700	0.773100
Zn21	Zn2	0.332700	0.009140	0.725350
N71	N7	0.186700	0.055300	0.629300
N81	N8	0.721400	0.221000	0.359900
H211	H21	0.732700	0.192100	0.319700
O71	O7	0.785400	0.228200	0.505500
C271	C27	0.080800	0.082200	0.483900
H221	H22	0.077200	0.076000	0.427500
O81	O8	0.767300	0.728100	0.444080
N91	N9	0.893200	0.154600	0.436600
H231	H23	0.892600	0.140900	0.386500
N101	N10	0.825700	0.727800	0.589100
H241	H24	0.881000	0.708300	0.633600
N111	N11	0.937800	0.657300	0.524100
H251	H25	0.972200	0.638300	0.574800
O91	O9	0.174000	0.613980	0.233120
C281	C28	0.478100	0.930100	0.668700
C291	C29	0.735800	0.777100	0.603900
O101	O10	0.426200	0.985500	0.617800
O111	O11	0.457900	0.919300	0.736800
C301	C30	0.656000	0.826500	0.543000
H261	H26	0.657000	0.826500	0.487300
C311	C31	0.569600	0.876600	0.647100
C321	C32	0.176500	0.050200	0.547900
H271	H27	0.238400	0.023100	0.533800
C331	C33	0.574000	0.876400	0.566300
H281	H28	0.520600	0.910400	0.525500
C341	C34	0.991300	0.634300	0.464500
C351	C35	0.649000	0.826600	0.706900
H291	H29	0.647000	0.825900	0.762400
C361	C36	0.628300	0.277300	0.335000
C371	C37	0.798500	0.204300	0.439800
C381	C38	0.152100	0.557600	0.436700
H301	H30	0.216900	0.520100	0.454700
C391	C39	0.189600	0.571500	0.297300
C401	C40	0.999000	0.130400	0.587100
H311	H31	0.939500	0.158400	0.603100
C411	C41	0.955700	0.664700	0.382300
H321	H32	0.887200	0.699000	0.362800
C421	C42	0.120000	0.591100	0.356300
C431	C43	0.836900	0.706600	0.512800
C441	C44	0.089000	0.579400	0.490000
H331	H33	0.112100	0.557000	0.544600
C451	C45	0.988500	0.124100	0.503100
C461	C46	0.731000	0.777900	0.685500
H341	H34	0.784700	0.744500	0.726800
C471	C47	0.020600	0.644500	0.329900
H351	H35	0.997700	0.667100	0.275400
C481	C48	0.561600	0.283000	0.251400
H361	H36	0.578200	0.247300	0.212700
C491	C49	0.470500	0.340200	0.223000
H371	H37	0.425300	0.341600	0.165100
C501	C50	0.501600	0.383700	0.359400
H381	H38	0.476900	0.416900	0.396400
C511	C51	0.594400	0.327500	0.393400
H391	H39	0.633000	0.322600	0.452000
C521	C52	0.097100	0.095400	0.647200
H401	H40	0.101900	0.099600	0.704100
O121	O12	0.262200	0.511010	0.316600
N121	N12	0.443500	0.393300	0.273100
Zn31	Zn3	0.667300	0.990860	0.274650
N131	N13	0.813300	0.944700	0.370700
N141	N14	0.278600	0.779000	0.640100
H411	H41	0.267300	0.807900	0.680300
O131	O13	0.214600	0.771800	0.494500
C531	C53	0.919200	0.917800	0.516100
H421	H42	0.922800	0.924000	0.572500
O141	O14	0.232700	0.271900	0.555920
N151	N15	0.106800	0.845400	0.563400
H431	H43	0.107400	0.859100	0.613500
N161	N16	0.174300	0.272200	0.410900
H441	H44	0.119000	0.291700	0.366400
N171	N17	0.062200	0.342700	0.475900
H451	H45	0.027800	0.361700	0.425200
O151	O15	0.826000	0.386020	0.766880
C541	C54	0.521900	0.069900	0.331300
C551	C55	0.264200	0.222900	0.396100
O161	O16	0.573800	0.014500	0.382200
O171	O17	0.542100	0.080700	0.263200
C561	C56	0.344000	0.173500	0.457000
H461	H46	0.343000	0.173500	0.512700
C571	C57	0.430400	0.123400	0.352900
C581	C58	0.823500	0.949800	0.452100
H471	H47	0.761600	0.976900	0.466200
C591	C59	0.426000	0.123600	0.433700
H481	H48	0.479400	0.089600	0.474500
C601	C60	0.008700	0.365700	0.535500
C611	C61	0.351000	0.173400	0.293100
H491	H49	0.353000	0.174100	0.237600
C621	C62	0.371700	0.722700	0.665000
C631	C63	0.201500	0.795700	0.560200
C641	C64	0.847900	0.442400	0.563300
H501	H50	0.783100	0.479900	0.545300
C651	C65	0.810400	0.428500	0.702700
C661	C66	0.001000	0.869600	0.412900
H511	H51	0.060500	0.841600	0.396900
C671	C67	0.044300	0.335300	0.617700
H521	H52	0.112800	0.301000	0.637200
C681	C68	0.880000	0.408900	0.643700
C691	C69	0.163100	0.293400	0.487200
C701	C70	0.911000	0.420600	0.510000
H531	H53	0.887900	0.443000	0.455400
C711	C71	0.011500	0.875900	0.496900
C721	C72	0.269000	0.222100	0.314500
H541	H54	0.215300	0.255500	0.273200
C731	C73	0.979400	0.355500	0.670100
H551	H55	0.002300	0.332900	0.724600
C741	C74	0.438400	0.717000	0.748600
H561	H56	0.421800	0.752700	0.787300
C751	C75	0.529500	0.659800	0.777000
H571	H57	0.574700	0.658400	0.834900
C761	C76	0.498400	0.616300	0.640600
H581	H58	0.523100	0.583100	0.603600
C771	C77	0.405600	0.672500	0.606600
H591	H59	0.367000	0.677400	0.548000
C781	C78	0.902900	0.904600	0.352800
H601	H60	0.898100	0.900400	0.295900
O181	O18	0.737800	0.488990	0.683400
N181	N18	0.556500	0.606700	0.726900
Zn41	Zn4	0.667300	0.509140	0.774650
N191	N19	0.813300	0.555300	0.870700
N201	N20	0.278600	0.721000	0.140100
H611	H61	0.267300	0.692100	0.180300
O191	O19	0.214600	0.728200	0.994500
C791	C79	0.919200	0.582200	0.016100
H621	H62	0.922800	0.576000	0.072500
O201	O20	0.232700	0.228100	0.055920
N211	N21	0.106800	0.654600	0.063400
H631	H63	0.107400	0.640900	0.113500
N221	N22	0.174300	0.227800	0.910900
H641	H64	0.119000	0.208300	0.866400
N231	N23	0.062200	0.157300	0.975900
H651	H65	0.027800	0.138300	0.925200
O211	O21	0.826000	0.113980	0.266880
C801	C80	0.521900	0.430100	0.831300
C811	C81	0.264200	0.277100	0.896100
O221	O22	0.573800	0.485500	0.882200
O231	O23	0.542100	0.419300	0.763200
C821	C82	0.344000	0.326500	0.957000
H661	H66	0.343000	0.326500	0.012700
C831	C83	0.430400	0.376600	0.852900
C841	C84	0.823500	0.550200	0.952100
H671	H67	0.761600	0.523100	0.966200
C851	C85	0.426000	0.376400	0.933700
H681	H68	0.479400	0.410400	0.974500
C861	C86	0.008700	0.134300	0.035500
C871	C87	0.351000	0.326600	0.793100
H691	H69	0.353000	0.325900	0.737600
C881	C88	0.371700	0.777300	0.165000
C891	C89	0.201500	0.704300	0.060200
C901	C90	0.847900	0.057600	0.063300
H701	H70	0.783100	0.020100	0.045300
C911	C91	0.810400	0.071500	0.202700
C921	C92	0.001000	0.630400	0.912900
H711	H71	0.060500	0.658400	0.896900
C931	C93	0.044300	0.164700	0.117700
H721	H72	0.112800	0.199000	0.137200
C941	C94	0.880000	0.091100	0.143700
C951	C95	0.163100	0.206600	0.987200
C961	C96	0.911000	0.079400	0.010000
H731	H73	0.887900	0.057000	0.955400
C971	C97	0.011500	0.624100	0.996900
C981	C98	0.269000	0.277900	0.814500
H741	H74	0.215300	0.244500	0.773200
C991	C99	0.979400	0.144500	0.170100
H751	H75	0.002300	0.167100	0.224600
C1001	C100	0.438400	0.783000	0.248600
H761	H76	0.421800	0.747300	0.287300
C1011	C101	0.529500	0.840200	0.277000
H771	H77	0.574700	0.841600	0.334900
C1021	C102	0.498400	0.883700	0.140600
H781	H78	0.523100	0.916900	0.103600
C1031	C103	0.405600	0.827500	0.106600
H791	H79	0.367000	0.822600	0.048000
C1041	C104	0.902900	0.595400	0.852800
H801	H80	0.898100	0.599600	0.795900
O241	O24	0.737800	0.011010	0.183400
N241	N24	0.556500	0.893300	0.226900
