data_TAWHOO_clean_PM
_symmetry_space_group_name_H-M	'P1'
_cell_length_a	10.058300
_cell_length_b	18.085000
_cell_length_c	15.619200
_cell_angle_alpha	90.000000
_cell_angle_beta	90.000000
_cell_angle_gamma	90.000000
_symmetry_Int_Tables_number 1

loop_
_symmetry_equiv_pos_as_xyz
'x,y,z'

loop_
_atom_site_label
_atom_site_type_symbol
_atom_site_fract_x
_atom_site_fract_y
_atom_site_fract_z
P11	P1	0.147200	0.328700	0.316920
P21	P2	0.381300	0.315180	0.558930
P31	P3	0.140300	0.575380	0.486470
Al11	Al1	0.181600	0.216580	0.464140
Al21	Al2	0.334400	0.325470	0.149910
Al31	Al3	0.150000	0.402960	0.495100
O11	O1	0.000200	0.336200	0.291100
O21	O2	0.178100	0.251200	0.349700
O31	O3	0.182700	0.388700	0.382800
O41	O4	0.233800	0.346600	0.238900
O51	O5	0.362000	0.272400	0.642900
O61	O6	0.343000	0.266600	0.482900
O71	O7	0.292400	0.384400	0.562300
O81	O8	0.524900	0.339800	0.549500
O91	O9	0.374100	0.099800	0.580500
O101	O10	0.279300	0.131600	0.434100
O111	O11	0.206900	0.500300	0.482100
O121	O12	0.000700	0.429100	0.550900
O131	O13	0.093300	0.302700	0.499000
O141	O14	0.181400	0.187200	0.580500
H11	H1	0.046900	0.297100	0.548400
P41	P4	0.352800	0.671300	0.816920
P51	P5	0.118700	0.684820	0.058930
P61	P6	0.359700	0.424620	0.986470
Al41	Al4	0.318400	0.783420	0.964140
Al51	Al5	0.165600	0.674530	0.649910
Al61	Al6	0.350000	0.597040	0.995100
O151	O15	0.499800	0.663800	0.791100
O161	O16	0.321900	0.748800	0.849700
O171	O17	0.317300	0.611300	0.882800
O181	O18	0.266200	0.653400	0.738900
O191	O19	0.138000	0.727600	0.142900
O201	O20	0.157000	0.733400	0.982900
O211	O21	0.207600	0.615600	0.062300
O221	O22	0.975100	0.660200	0.049500
O231	O23	0.125900	0.900200	0.080500
O241	O24	0.220700	0.868400	0.934100
O251	O25	0.293100	0.499700	0.982100
O261	O26	0.499300	0.570900	0.050900
O271	O27	0.406700	0.697300	0.999000
O281	O28	0.318600	0.812800	0.080500
H21	H2	0.453100	0.702900	0.048400
P71	P7	0.852800	0.828700	0.183080
P81	P8	0.618700	0.815180	0.941070
P91	P9	0.859700	0.075380	0.013530
Al71	Al7	0.818400	0.716580	0.035860
Al81	Al8	0.665600	0.825470	0.350090
Al91	Al9	0.850000	0.902960	0.004900
O291	O29	0.999800	0.836200	0.208900
O301	O30	0.821900	0.751200	0.150300
O311	O31	0.817300	0.888700	0.117200
O321	O32	0.766200	0.846600	0.261100
O331	O33	0.638000	0.772400	0.857100
O341	O34	0.657000	0.766600	0.017100
O351	O35	0.707600	0.884400	0.937700
O361	O36	0.475100	0.839800	0.950500
O371	O37	0.625900	0.599800	0.919500
O381	O38	0.720700	0.631600	0.065900
O391	O39	0.793100	0.000300	0.017900
O401	O40	0.999300	0.929100	0.949100
O411	O41	0.906700	0.802700	0.001000
O421	O42	0.818600	0.687200	0.919500
H31	H3	0.953100	0.797100	0.951600
P101	P10	0.647200	0.171300	0.683080
P111	P11	0.881300	0.184820	0.441070
P121	P12	0.640300	0.924620	0.513530
Al101	Al10	0.681600	0.283420	0.535860
Al111	Al11	0.834400	0.174530	0.850090
Al121	Al12	0.650000	0.097040	0.504900
O431	O43	0.500200	0.163800	0.708900
O441	O44	0.678100	0.248800	0.650300
O451	O45	0.682700	0.111300	0.617200
O461	O46	0.733800	0.153400	0.761100
O471	O47	0.862000	0.227600	0.357100
O481	O48	0.843000	0.233400	0.517100
O491	O49	0.792400	0.115600	0.437700
O501	O50	0.024900	0.160200	0.450500
O511	O51	0.874100	0.400200	0.419500
O521	O52	0.779300	0.368400	0.565900
O531	O53	0.706900	0.999700	0.517900
O541	O54	0.500700	0.070900	0.449100
O551	O55	0.593300	0.197300	0.501000
O561	O56	0.681400	0.312800	0.419500
H41	H4	0.546900	0.202900	0.451600
P131	P13	0.852800	0.671300	0.683080
P141	P14	0.618700	0.684820	0.441070
P151	P15	0.859700	0.424620	0.513530
Al131	Al13	0.818400	0.783420	0.535860
Al141	Al14	0.665600	0.674530	0.850090
Al151	Al15	0.850000	0.597040	0.504900
O571	O57	0.999800	0.663800	0.708900
O581	O58	0.821900	0.748800	0.650300
O591	O59	0.817300	0.611300	0.617200
O601	O60	0.766200	0.653400	0.761100
O611	O61	0.638000	0.727600	0.357100
O621	O62	0.657000	0.733400	0.517100
O631	O63	0.707600	0.615600	0.437700
O641	O64	0.475100	0.660200	0.450500
O651	O65	0.625900	0.900200	0.419500
O661	O66	0.720700	0.868400	0.565900
O671	O67	0.793100	0.499700	0.517900
O681	O68	0.999300	0.570900	0.449100
O691	O69	0.906700	0.697300	0.501000
O701	O70	0.818600	0.812800	0.419500
H51	H5	0.953100	0.702900	0.451600
P161	P16	0.647200	0.328700	0.183080
P171	P17	0.881300	0.315180	0.941070
P181	P18	0.640300	0.575380	0.013530
Al161	Al16	0.681600	0.216580	0.035860
Al171	Al17	0.834400	0.325470	0.350090
Al181	Al18	0.650000	0.402960	0.004900
O711	O71	0.500200	0.336200	0.208900
O721	O72	0.678100	0.251200	0.150300
O731	O73	0.682700	0.388700	0.117200
O741	O74	0.733800	0.346600	0.261100
O751	O75	0.862000	0.272400	0.857100
O761	O76	0.843000	0.266600	0.017100
O771	O77	0.792400	0.384400	0.937700
O781	O78	0.024900	0.339800	0.950500
O791	O79	0.874100	0.099800	0.919500
O801	O80	0.779300	0.131600	0.065900
O811	O81	0.706900	0.500300	0.017900
O821	O82	0.500700	0.429100	0.949100
O831	O83	0.593300	0.302700	0.001000
O841	O84	0.681400	0.187200	0.919500
H61	H6	0.546900	0.297100	0.951600
P191	P19	0.147200	0.171300	0.816920
P201	P20	0.381300	0.184820	0.058930
P211	P21	0.140300	0.924620	0.986470
Al191	Al19	0.181600	0.283420	0.964140
Al201	Al20	0.334400	0.174530	0.649910
Al211	Al21	0.150000	0.097040	0.995100
O851	O85	0.000200	0.163800	0.791100
O861	O86	0.178100	0.248800	0.849700
O871	O87	0.182700	0.111300	0.882800
O881	O88	0.233800	0.153400	0.738900
O891	O89	0.362000	0.227600	0.142900
O901	O90	0.343000	0.233400	0.982900
O911	O91	0.292400	0.115600	0.062300
O921	O92	0.524900	0.160200	0.049500
O931	O93	0.374100	0.400200	0.080500
O941	O94	0.279300	0.368400	0.934100
O951	O95	0.206900	0.999700	0.982100
O961	O96	0.000700	0.070900	0.050900
O971	O97	0.093300	0.197300	0.999000
O981	O98	0.181400	0.312800	0.080500
H71	H7	0.046900	0.202900	0.048400
P221	P22	0.352800	0.828700	0.316920
P231	P23	0.118700	0.815180	0.558930
P241	P24	0.359700	0.075380	0.486470
Al221	Al22	0.318400	0.716580	0.464140
Al231	Al23	0.165600	0.825470	0.149910
Al241	Al24	0.350000	0.902960	0.495100
O991	O99	0.499800	0.836200	0.291100
O1001	O100	0.321900	0.751200	0.349700
O1011	O101	0.317300	0.888700	0.382800
O1021	O102	0.266200	0.846600	0.238900
O1031	O103	0.138000	0.772400	0.642900
O1041	O104	0.157000	0.766600	0.482900
O1051	O105	0.207600	0.884400	0.562300
O1061	O106	0.975100	0.839800	0.549500
O1071	O107	0.125900	0.599800	0.580500
O1081	O108	0.220700	0.631600	0.434100
O1091	O109	0.293100	0.000300	0.482100
O1101	O110	0.499300	0.929100	0.550900
O1111	O111	0.406700	0.802700	0.499000
O1121	O112	0.318600	0.687200	0.580500
H81	H8	0.453100	0.797100	0.548400
