data_TAWTAP_clean_PM
_symmetry_space_group_name_H-M	'P1'
_cell_length_a	8.083100
_cell_length_b	16.884100
_cell_length_c	15.404400
_cell_angle_alpha	90.000000
_cell_angle_beta	90.768000
_cell_angle_gamma	90.000000
_symmetry_Int_Tables_number 1

loop_
_symmetry_equiv_pos_as_xyz
'x,y,z'

loop_
_atom_site_label
_atom_site_type_symbol
_atom_site_fract_x
_atom_site_fract_y
_atom_site_fract_z
Zn11	Zn1	0.651620	0.149190	0.241720
Zn21	Zn2	0.853980	0.040550	0.607810
Zn31	Zn3	0.933290	0.054070	0.883550
P11	P1	0.767710	0.059200	0.069150
H11	H1	0.618000	0.042900	0.051300
P21	P2	0.797570	0.056980	0.405410
H21	H2	0.683000	0.985300	0.373800
P31	P3	0.647330	0.976060	0.770100
H31	H3	0.517200	0.025200	0.809800
P41	P4	0.048170	0.159190	0.731510
H41	H4	0.187700	0.107500	0.739700
O11	O1	0.780100	0.119900	0.141000
O21	O2	0.570400	0.893400	0.772600
O31	O3	0.130700	0.238200	0.722900
O41	O4	0.748900	0.128600	0.352200
O51	O5	0.749500	0.069400	0.498900
O61	O6	0.940200	0.142200	0.652200
O71	O7	0.978600	0.038100	0.395300
O81	O8	0.674300	0.005500	0.680600
O91	O9	0.798800	0.975100	0.828100
O101	O10	0.953800	0.150200	0.814900
O111	O11	0.843900	0.980400	0.088900
O121	O12	0.836400	0.097600	0.988200
Zn41	Zn4	0.848380	0.649190	0.258280
Zn51	Zn5	0.646020	0.540550	0.892190
Zn61	Zn6	0.566710	0.554070	0.616450
P51	P5	0.732290	0.559200	0.430850
H51	H5	0.882000	0.542900	0.448700
P61	P6	0.702430	0.556980	0.094590
H61	H6	0.817000	0.485300	0.126200
P71	P7	0.852670	0.476060	0.729900
H71	H7	0.982800	0.525200	0.690200
P81	P8	0.451830	0.659190	0.768490
H81	H8	0.312300	0.607500	0.760300
O131	O13	0.719900	0.619900	0.359000
O141	O14	0.929600	0.393400	0.727400
O151	O15	0.369300	0.738200	0.777100
O161	O16	0.751100	0.628600	0.147800
O171	O17	0.750500	0.569400	0.001100
O181	O18	0.559800	0.642200	0.847800
O191	O19	0.521400	0.538100	0.104700
O201	O20	0.825700	0.505500	0.819400
O211	O21	0.701200	0.475100	0.671900
O221	O22	0.546200	0.650200	0.685100
O231	O23	0.656100	0.480400	0.411100
O241	O24	0.663600	0.597600	0.511800
Zn71	Zn7	0.348380	0.850810	0.758280
Zn81	Zn8	0.146020	0.959450	0.392190
Zn91	Zn9	0.066710	0.945930	0.116450
P91	P9	0.232290	0.940800	0.930850
H91	H9	0.382000	0.957100	0.948700
P101	P10	0.202430	0.943020	0.594590
H101	H10	0.317000	0.014700	0.626200
P111	P11	0.352670	0.023940	0.229900
H111	H11	0.482800	0.974800	0.190200
P121	P12	0.951830	0.840810	0.268490
H121	H12	0.812300	0.892500	0.260300
O251	O25	0.219900	0.880100	0.859000
O261	O26	0.429600	0.106600	0.227400
O271	O27	0.869300	0.761800	0.277100
O281	O28	0.251100	0.871400	0.647800
O291	O29	0.250500	0.930600	0.501100
O301	O30	0.059800	0.857800	0.347800
O311	O31	0.021400	0.961900	0.604700
O321	O32	0.325700	0.994500	0.319400
O331	O33	0.201200	0.024900	0.171900
O341	O34	0.046200	0.849800	0.185100
O351	O35	0.156100	0.019600	0.911100
O361	O36	0.163600	0.902400	0.011800
Zn101	Zn10	0.151620	0.350810	0.741720
Zn111	Zn11	0.353980	0.459450	0.107810
Zn121	Zn12	0.433290	0.445930	0.383550
P131	P13	0.267710	0.440800	0.569150
H131	H13	0.118000	0.457100	0.551300
P141	P14	0.297570	0.443020	0.905410
H141	H14	0.183000	0.514700	0.873800
P151	P15	0.147330	0.523940	0.270100
H151	H15	0.017200	0.474800	0.309800
P161	P16	0.548170	0.340810	0.231510
H161	H16	0.687700	0.392500	0.239700
O371	O37	0.280100	0.380100	0.641000
O381	O38	0.070400	0.606600	0.272600
O391	O39	0.630700	0.261800	0.222900
O401	O40	0.248900	0.371400	0.852200
O411	O41	0.249500	0.430600	0.998900
O421	O42	0.440200	0.357800	0.152200
O431	O43	0.478600	0.461900	0.895300
O441	O44	0.174300	0.494500	0.180600
O451	O45	0.298800	0.524900	0.328100
O461	O46	0.453800	0.349800	0.314900
O471	O47	0.343900	0.519600	0.588900
O481	O48	0.336400	0.402400	0.488200
