data_TAZYAV_clean_PM
_symmetry_space_group_name_H-M	'P1'
_cell_length_a	19.606500
_cell_length_b	19.606500
_cell_length_c	22.180800
_cell_angle_alpha	90.000000
_cell_angle_beta	90.000000
_cell_angle_gamma	90.000000
_symmetry_Int_Tables_number 1

loop_
_symmetry_equiv_pos_as_xyz
'x,y,z'

loop_
_atom_site_label
_atom_site_type_symbol
_atom_site_fract_x
_atom_site_fract_y
_atom_site_fract_z
S11	S1	0.107390	0.961190	0.438580
C11	C1	0.082650	0.968450	0.368500
N11	N1	0.065560	0.971370	0.318350
S21	S2	0.106790	0.844150	0.113170
C21	C2	0.081490	0.909410	0.153370
N21	N2	0.065500	0.956400	0.181580
S31	S3	0.074770	0.230830	0.211850
C31	C3	0.058130	0.151840	0.229980
N31	N3	0.047500	0.095960	0.243540
S41	S4	0.607390	0.461190	0.938580
C41	C4	0.582650	0.468450	0.868500
N41	N4	0.565560	0.471370	0.818350
S51	S5	0.606790	0.344150	0.613170
C51	C5	0.581490	0.409410	0.653370
N51	N5	0.565500	0.456400	0.681580
S61	S6	0.574770	0.730830	0.711850
C61	C6	0.558130	0.651840	0.729980
N61	N6	0.547500	0.595960	0.743540
S71	S7	0.892610	0.038810	0.438580
C71	C7	0.917350	0.031550	0.368500
N71	N7	0.934440	0.028630	0.318350
S81	S8	0.893210	0.155850	0.113170
C81	C8	0.918510	0.090590	0.153370
N81	N8	0.934500	0.043600	0.181580
S91	S9	0.925230	0.769170	0.211850
C91	C9	0.941870	0.848160	0.229980
N91	N9	0.952500	0.904040	0.243540
S101	S10	0.392610	0.538810	0.938580
C101	C10	0.417350	0.531550	0.868500
N101	N10	0.434440	0.528630	0.818350
S111	S11	0.393210	0.655850	0.613170
C111	C11	0.418510	0.590590	0.653370
N111	N11	0.434500	0.543600	0.681580
S121	S12	0.425230	0.269170	0.711850
C121	C12	0.441870	0.348160	0.729980
N121	N12	0.452500	0.404040	0.743540
S131	S13	0.961190	0.892610	0.561420
C131	C13	0.968450	0.917350	0.631500
N131	N13	0.971370	0.934440	0.681650
S141	S14	0.844150	0.893210	0.886830
C141	C14	0.909410	0.918510	0.846630
N141	N14	0.956400	0.934500	0.818420
S151	S15	0.230830	0.925230	0.788150
C151	C15	0.151840	0.941870	0.770020
N151	N15	0.095960	0.952500	0.756460
S161	S16	0.461190	0.392610	0.061420
C161	C16	0.468450	0.417350	0.131500
N161	N16	0.471370	0.434440	0.181650
S171	S17	0.344150	0.393210	0.386830
C171	C17	0.409410	0.418510	0.346630
N171	N17	0.456400	0.434500	0.318420
S181	S18	0.730830	0.425230	0.288150
C181	C18	0.651840	0.441870	0.270020
N181	N18	0.595960	0.452500	0.256460
S191	S19	0.038810	0.107390	0.561420
C191	C19	0.031550	0.082650	0.631500
N191	N19	0.028630	0.065560	0.681650
S201	S20	0.155850	0.106790	0.886830
C201	C20	0.090590	0.081490	0.846630
N201	N20	0.043600	0.065500	0.818420
S211	S21	0.769170	0.074770	0.788150
C211	C21	0.848160	0.058130	0.770020
N211	N21	0.904040	0.047500	0.756460
S221	S22	0.538810	0.607390	0.061420
C221	C22	0.531550	0.582650	0.131500
N221	N22	0.528630	0.565560	0.181650
S231	S23	0.655850	0.606790	0.386830
C231	C23	0.590590	0.581490	0.346630
N231	N23	0.543600	0.565500	0.318420
S241	S24	0.269170	0.574770	0.288150
C241	C24	0.348160	0.558130	0.270020
N241	N24	0.404040	0.547500	0.256460
S251	S25	0.392610	0.961190	0.311420
C251	C25	0.417350	0.968450	0.381500
N251	N25	0.434440	0.971370	0.431650
S261	S26	0.393210	0.844150	0.636830
C261	C26	0.418510	0.909410	0.596630
N261	N26	0.434500	0.956400	0.568420
S271	S27	0.425230	0.230830	0.538150
C271	C27	0.441870	0.151840	0.520020
N271	N27	0.452500	0.095960	0.506460
S281	S28	0.892610	0.461190	0.811420
C281	C28	0.917350	0.468450	0.881500
N281	N28	0.934440	0.471370	0.931650
S291	S29	0.893210	0.344150	0.136830
C291	C29	0.918510	0.409410	0.096630
N291	N29	0.934500	0.456400	0.068420
S301	S30	0.925230	0.730830	0.038150
C301	C30	0.941870	0.651840	0.020020
N301	N30	0.952500	0.595960	0.006460
S311	S31	0.607390	0.038810	0.311420
C311	C31	0.582650	0.031550	0.381500
N311	N31	0.565560	0.028630	0.431650
S321	S32	0.606790	0.155850	0.636830
C321	C32	0.581490	0.090590	0.596630
N321	N32	0.565500	0.043600	0.568420
S331	S33	0.574770	0.769170	0.538150
C331	C33	0.558130	0.848160	0.520020
N331	N33	0.547500	0.904040	0.506460
S341	S34	0.107390	0.538810	0.811420
C341	C34	0.082650	0.531550	0.881500
N341	N34	0.065560	0.528630	0.931650
S351	S35	0.106790	0.655850	0.136830
C351	C35	0.081490	0.590590	0.096630
N351	N35	0.065500	0.543600	0.068420
S361	S36	0.074770	0.269170	0.038150
C361	C36	0.058130	0.348160	0.020020
N361	N36	0.047500	0.404040	0.006460
S371	S37	0.538810	0.892610	0.188580
C371	C37	0.531550	0.917350	0.118500
N371	N37	0.528630	0.934440	0.068350
S381	S38	0.655850	0.893210	0.863170
C381	C38	0.590590	0.918510	0.903370
N381	N38	0.543600	0.934500	0.931580
S391	S39	0.269170	0.925230	0.961850
C391	C39	0.348160	0.941870	0.979980
N391	N39	0.404040	0.952500	0.993540
S401	S40	0.038810	0.392610	0.688580
C401	C40	0.031550	0.417350	0.618500
N401	N40	0.028630	0.434440	0.568350
S411	S41	0.155850	0.393210	0.363170
C411	C41	0.090590	0.418510	0.403370
N411	N41	0.043600	0.434500	0.431580
S421	S42	0.769170	0.425230	0.461850
C421	C42	0.848160	0.441870	0.479980
N421	N42	0.904040	0.452500	0.493540
S431	S43	0.461190	0.107390	0.188580
C431	C43	0.468450	0.082650	0.118500
N431	N43	0.471370	0.065560	0.068350
S441	S44	0.344150	0.106790	0.863170
C441	C44	0.409410	0.081490	0.903370
N441	N44	0.456400	0.065500	0.931580
S451	S45	0.730830	0.074770	0.961850
C451	C45	0.651840	0.058130	0.979980
N451	N45	0.595960	0.047500	0.993540
S461	S46	0.961190	0.607390	0.688580
C461	C46	0.968450	0.582650	0.618500
N461	N46	0.971370	0.565560	0.568350
S471	S47	0.844150	0.606790	0.363170
C471	C47	0.909410	0.581490	0.403370
N471	N47	0.956400	0.565500	0.431580
S481	S48	0.230830	0.574770	0.461850
C481	C48	0.151840	0.558130	0.479980
N481	N48	0.095960	0.547500	0.493540
Fe11	Fe1	0.000000	0.000000	0.247280
Fe21	Fe2	0.500000	0.500000	0.747280
Fe31	Fe3	0.000000	0.000000	0.752720
Fe41	Fe4	0.500000	0.500000	0.252720
Fe51	Fe5	0.500000	0.000000	0.502720
Fe61	Fe6	0.000000	0.500000	0.002720
Fe71	Fe7	0.500000	0.000000	0.997280
Fe81	Fe8	0.000000	0.500000	0.497280
Ag11	Ag1	0.000000	0.000000	0.500000
Ag21	Ag2	0.500000	0.500000	0.000000
Ag31	Ag3	0.500000	0.000000	0.250000
Ag41	Ag4	0.000000	0.500000	0.750000
Ag51	Ag5	0.013640	0.750000	0.125000
Ag61	Ag6	0.986360	0.250000	0.125000
Ag71	Ag7	0.750000	0.986360	0.875000
Ag81	Ag8	0.250000	0.486360	0.375000
Ag91	Ag9	0.250000	0.013640	0.875000
Ag101	Ag10	0.750000	0.513640	0.375000
Ag111	Ag11	0.486360	0.750000	0.625000
Ag121	Ag12	0.513640	0.250000	0.625000
