data_TEDXOR_clean_PM
_symmetry_space_group_name_H-M	'P1'
_cell_length_a	16.224400
_cell_length_b	20.986900
_cell_length_c	12.849100
_cell_angle_alpha	90.000000
_cell_angle_beta	90.000000
_cell_angle_gamma	90.000000
_symmetry_Int_Tables_number 1

loop_
_symmetry_equiv_pos_as_xyz
'x,y,z'

loop_
_atom_site_label
_atom_site_type_symbol
_atom_site_fract_x
_atom_site_fract_y
_atom_site_fract_z
Co11	Co1	0.669230	0.196860	0.025820
C11	C1	0.771600	0.282600	0.118600
C21	C2	0.852900	0.308810	0.151600
C31	C3	0.925400	0.282310	0.112900
H11	H1	0.923100	0.248600	0.063600
C41	C4	0.000500	0.305270	0.146600
C51	C5	0.002800	0.354600	0.218900
H21	H2	0.054700	0.369900	0.242300
C61	C6	0.931500	0.382200	0.257700
C71	C7	0.856600	0.357700	0.223700
H31	H3	0.806900	0.375000	0.250600
C81	C8	0.078000	0.276800	0.107000
C91	C9	0.934700	0.436600	0.336700
C101	C10	0.945300	0.407500	0.440700
H41	H4	0.947600	0.441100	0.493500
H51	H5	0.996600	0.382900	0.442200
H61	H6	0.898700	0.379200	0.455300
C111	C11	0.858300	0.474900	0.340600
H71	H7	0.849900	0.496100	0.273400
H81	H8	0.863000	0.507100	0.395600
H91	H9	0.811300	0.447000	0.355300
C121	C12	0.005700	0.478800	0.318000
H101	H10	0.999900	0.499200	0.249700
H111	H11	0.056700	0.453700	0.319500
H121	H12	0.007800	0.511600	0.372200
C131	C13	0.220200	0.116440	0.121400
C141	C14	0.238000	0.055920	0.179100
C151	C15	0.238300	0.055900	0.286600
H131	H13	0.230300	0.094800	0.322900
C161	C16	0.228300	0.054500	0.509100
H141	H14	0.230500	0.049600	0.584900
H151	H15	0.172200	0.065900	0.488000
H161	H16	0.266400	0.088300	0.487700
O11	O1	0.706500	0.300490	0.158700
O21	O2	0.773640	0.240840	0.046200
O31	O3	0.071990	0.240250	0.027900
O41	O4	0.144300	0.288890	0.151100
O51	O5	0.194300	0.112260	0.030200
O61	O6	0.231400	0.168180	0.164200
Co21	Co2	0.830770	0.803140	0.025820
C171	C17	0.728400	0.717400	0.118600
C181	C18	0.647100	0.691190	0.151600
C191	C19	0.574600	0.717690	0.112900
H171	H17	0.576900	0.751400	0.063600
C201	C20	0.499500	0.694730	0.146600
C211	C21	0.497200	0.645400	0.218900
H181	H18	0.445300	0.630100	0.242300
C221	C22	0.568500	0.617800	0.257700
C231	C23	0.643400	0.642300	0.223700
H191	H19	0.693100	0.625000	0.250600
C241	C24	0.422000	0.723200	0.107000
C251	C25	0.565300	0.563400	0.336700
C261	C26	0.554700	0.592500	0.440700
H201	H20	0.552400	0.558900	0.493500
H211	H21	0.503400	0.617100	0.442200
H221	H22	0.601300	0.620800	0.455300
C271	C27	0.641700	0.525100	0.340600
H231	H23	0.650100	0.503900	0.273400
H241	H24	0.637000	0.492900	0.395600
H251	H25	0.688700	0.553000	0.355300
C281	C28	0.494300	0.521200	0.318000
H261	H26	0.500100	0.500800	0.249700
H271	H27	0.443300	0.546300	0.319500
H281	H28	0.492200	0.488400	0.372200
C291	C29	0.279800	0.883560	0.121400
C301	C30	0.262000	0.944080	0.179100
C311	C31	0.261700	0.944100	0.286600
H291	H29	0.269700	0.905200	0.322900
C321	C32	0.271700	0.945500	0.509100
H301	H30	0.269500	0.950400	0.584900
H311	H31	0.327800	0.934100	0.488000
H321	H32	0.233600	0.911700	0.487700
O71	O7	0.793500	0.699510	0.158700
O81	O8	0.726360	0.759160	0.046200
O91	O9	0.428010	0.759750	0.027900
O101	O10	0.355700	0.711110	0.151100
O111	O11	0.305700	0.887740	0.030200
O121	O12	0.268600	0.831820	0.164200
Co31	Co3	0.830770	0.696860	0.474180
C331	C33	0.728400	0.782600	0.381400
C341	C34	0.647100	0.808810	0.348400
C351	C35	0.574600	0.782310	0.387100
H331	H33	0.576900	0.748600	0.436400
C361	C36	0.499500	0.805270	0.353400
C371	C37	0.497200	0.854600	0.281100
H341	H34	0.445300	0.869900	0.257700
C381	C38	0.568500	0.882200	0.242300
C391	C39	0.643400	0.857700	0.276300
H351	H35	0.693100	0.875000	0.249400
C401	C40	0.422000	0.776800	0.393000
C411	C41	0.565300	0.936600	0.163300
C421	C42	0.554700	0.907500	0.059300
H361	H36	0.552400	0.941100	0.006500
H371	H37	0.503400	0.882900	0.057800
H381	H38	0.601300	0.879200	0.044700
C431	C43	0.641700	0.974900	0.159400
H391	H39	0.650100	0.996100	0.226600
H401	H40	0.637000	0.007100	0.104400
H411	H41	0.688700	0.947000	0.144700
C441	C44	0.494300	0.978800	0.182000
H421	H42	0.500100	0.999200	0.250300
H431	H43	0.443300	0.953700	0.180500
H441	H44	0.492200	0.011600	0.127800
C451	C45	0.279800	0.616440	0.378600
C461	C46	0.262000	0.555920	0.320900
C471	C47	0.261700	0.555900	0.213400
H451	H45	0.269700	0.594800	0.177100
C481	C48	0.271700	0.554500	0.990900
H461	H46	0.269500	0.549600	0.915100
H471	H47	0.327800	0.565900	0.012000
H481	H48	0.233600	0.588300	0.012300
O131	O13	0.793500	0.800490	0.341300
O141	O14	0.726360	0.740840	0.453800
O151	O15	0.428010	0.740250	0.472100
O161	O16	0.355700	0.788890	0.348900
O171	O17	0.305700	0.612260	0.469800
O181	O18	0.268600	0.668180	0.335800
Co41	Co4	0.669230	0.303140	0.474180
C491	C49	0.771600	0.217400	0.381400
C501	C50	0.852900	0.191190	0.348400
C511	C51	0.925400	0.217690	0.387100
H491	H49	0.923100	0.251400	0.436400
C521	C52	0.000500	0.194730	0.353400
C531	C53	0.002800	0.145400	0.281100
H501	H50	0.054700	0.130100	0.257700
C541	C54	0.931500	0.117800	0.242300
C551	C55	0.856600	0.142300	0.276300
H511	H51	0.806900	0.125000	0.249400
C561	C56	0.078000	0.223200	0.393000
C571	C57	0.934700	0.063400	0.163300
C581	C58	0.945300	0.092500	0.059300
H521	H52	0.947600	0.058900	0.006500
H531	H53	0.996600	0.117100	0.057800
H541	H54	0.898700	0.120800	0.044700
C591	C59	0.858300	0.025100	0.159400
H551	H55	0.849900	0.003900	0.226600
H561	H56	0.863000	0.992900	0.104400
H571	H57	0.811300	0.053000	0.144700
C601	C60	0.005700	0.021200	0.182000
H581	H58	0.999900	0.000800	0.250300
H591	H59	0.056700	0.046300	0.180500
H601	H60	0.007800	0.988400	0.127800
C611	C61	0.220200	0.383560	0.378600
C621	C62	0.238000	0.444080	0.320900
C631	C63	0.238300	0.444100	0.213400
H611	H61	0.230300	0.405200	0.177100
C641	C64	0.228300	0.445500	0.990900
H621	H62	0.230500	0.450400	0.915100
H631	H63	0.172200	0.434100	0.012000
H641	H64	0.266400	0.411700	0.012300
O191	O19	0.706500	0.199510	0.341300
O201	O20	0.773640	0.259160	0.453800
O211	O21	0.071990	0.259750	0.472100
O221	O22	0.144300	0.211110	0.348900
O231	O23	0.194300	0.387740	0.469800
O241	O24	0.231400	0.331820	0.335800
Co51	Co5	0.330770	0.803140	0.974180
C651	C65	0.228400	0.717400	0.881400
C661	C66	0.147100	0.691190	0.848400
C671	C67	0.074600	0.717690	0.887100
H651	H65	0.076900	0.751400	0.936400
C681	C68	0.999500	0.694730	0.853400
C691	C69	0.997200	0.645400	0.781100
H661	H66	0.945300	0.630100	0.757700
C701	C70	0.068500	0.617800	0.742300
C711	C71	0.143400	0.642300	0.776300
H671	H67	0.193100	0.625000	0.749400
C721	C72	0.922000	0.723200	0.893000
C731	C73	0.065300	0.563400	0.663300
C741	C74	0.054700	0.592500	0.559300
H681	H68	0.052400	0.558900	0.506500
H691	H69	0.003400	0.617100	0.557800
H701	H70	0.101300	0.620800	0.544700
C751	C75	0.141700	0.525100	0.659400
H711	H71	0.150100	0.503900	0.726600
H721	H72	0.137000	0.492900	0.604400
H731	H73	0.188700	0.553000	0.644700
C761	C76	0.994300	0.521200	0.682000
H741	H74	0.000100	0.500800	0.750300
H751	H75	0.943300	0.546300	0.680500
H761	H76	0.992200	0.488400	0.627800
C771	C77	0.779800	0.883560	0.878600
C781	C78	0.762000	0.944080	0.820900
C791	C79	0.761700	0.944100	0.713400
H771	H77	0.769700	0.905200	0.677100
C801	C80	0.771700	0.945500	0.490900
H781	H78	0.769500	0.950400	0.415100
H791	H79	0.827800	0.934100	0.512000
H801	H80	0.733600	0.911700	0.512300
O251	O25	0.293500	0.699510	0.841300
O261	O26	0.226360	0.759160	0.953800
O271	O27	0.928010	0.759750	0.972100
O281	O28	0.855700	0.711110	0.848900
O291	O29	0.805700	0.887740	0.969800
O301	O30	0.768600	0.831820	0.835800
Co61	Co6	0.169230	0.196860	0.974180
C811	C81	0.271600	0.282600	0.881400
C821	C82	0.352900	0.308810	0.848400
C831	C83	0.425400	0.282310	0.887100
H811	H81	0.423100	0.248600	0.936400
C841	C84	0.500500	0.305270	0.853400
C851	C85	0.502800	0.354600	0.781100
H821	H82	0.554700	0.369900	0.757700
C861	C86	0.431500	0.382200	0.742300
C871	C87	0.356600	0.357700	0.776300
H831	H83	0.306900	0.375000	0.749400
C881	C88	0.578000	0.276800	0.893000
C891	C89	0.434700	0.436600	0.663300
C901	C90	0.445300	0.407500	0.559300
H841	H84	0.447600	0.441100	0.506500
H851	H85	0.496600	0.382900	0.557800
H861	H86	0.398700	0.379200	0.544700
C911	C91	0.358300	0.474900	0.659400
H871	H87	0.349900	0.496100	0.726600
H881	H88	0.363000	0.507100	0.604400
H891	H89	0.311300	0.447000	0.644700
C921	C92	0.505700	0.478800	0.682000
H901	H90	0.499900	0.499200	0.750300
H911	H91	0.556700	0.453700	0.680500
H921	H92	0.507800	0.511600	0.627800
C931	C93	0.720200	0.116440	0.878600
C941	C94	0.738000	0.055920	0.820900
C951	C95	0.738300	0.055900	0.713400
H931	H93	0.730300	0.094800	0.677100
C961	C96	0.728300	0.054500	0.490900
H941	H94	0.730500	0.049600	0.415100
H951	H95	0.672200	0.065900	0.512000
H961	H96	0.766400	0.088300	0.512300
O311	O31	0.206500	0.300490	0.841300
O321	O32	0.273640	0.240840	0.953800
O331	O33	0.571990	0.240250	0.972100
O341	O34	0.644300	0.288890	0.848900
O351	O35	0.694300	0.112260	0.969800
O361	O36	0.731400	0.168180	0.835800
Co71	Co7	0.169230	0.303140	0.525820
C971	C97	0.271600	0.217400	0.618600
C981	C98	0.352900	0.191190	0.651600
C991	C99	0.425400	0.217690	0.612900
H971	H97	0.423100	0.251400	0.563600
C1001	C100	0.500500	0.194730	0.646600
C1011	C101	0.502800	0.145400	0.718900
H981	H98	0.554700	0.130100	0.742300
C1021	C102	0.431500	0.117800	0.757700
C1031	C103	0.356600	0.142300	0.723700
H991	H99	0.306900	0.125000	0.750600
C1041	C104	0.578000	0.223200	0.607000
C1051	C105	0.434700	0.063400	0.836700
C1061	C106	0.445300	0.092500	0.940700
H1001	H100	0.447600	0.058900	0.993500
H1011	H101	0.496600	0.117100	0.942200
H1021	H102	0.398700	0.120800	0.955300
C1071	C107	0.358300	0.025100	0.840600
H1031	H103	0.349900	0.003900	0.773400
H1041	H104	0.363000	0.992900	0.895600
H1051	H105	0.311300	0.053000	0.855300
C1081	C108	0.505700	0.021200	0.818000
H1061	H106	0.499900	0.000800	0.749700
H1071	H107	0.556700	0.046300	0.819500
H1081	H108	0.507800	0.988400	0.872200
C1091	C109	0.720200	0.383560	0.621400
C1101	C110	0.738000	0.444080	0.679100
C1111	C111	0.738300	0.444100	0.786600
H1091	H109	0.730300	0.405200	0.822900
C1121	C112	0.728300	0.445500	0.009100
H1101	H110	0.730500	0.450400	0.084900
H1111	H111	0.672200	0.434100	0.988000
H1121	H112	0.766400	0.411700	0.987700
O371	O37	0.206500	0.199510	0.658700
O381	O38	0.273640	0.259160	0.546200
O391	O39	0.571990	0.259750	0.527900
O401	O40	0.644300	0.211110	0.651100
O411	O41	0.694300	0.387740	0.530200
O421	O42	0.731400	0.331820	0.664200
Co81	Co8	0.330770	0.696860	0.525820
C1131	C113	0.228400	0.782600	0.618600
C1141	C114	0.147100	0.808810	0.651600
C1151	C115	0.074600	0.782310	0.612900
H1131	H113	0.076900	0.748600	0.563600
C1161	C116	0.999500	0.805270	0.646600
C1171	C117	0.997200	0.854600	0.718900
H1141	H114	0.945300	0.869900	0.742300
C1181	C118	0.068500	0.882200	0.757700
C1191	C119	0.143400	0.857700	0.723700
H1151	H115	0.193100	0.875000	0.750600
C1201	C120	0.922000	0.776800	0.607000
C1211	C121	0.065300	0.936600	0.836700
C1221	C122	0.054700	0.907500	0.940700
H1161	H116	0.052400	0.941100	0.993500
H1171	H117	0.003400	0.882900	0.942200
H1181	H118	0.101300	0.879200	0.955300
C1231	C123	0.141700	0.974900	0.840600
H1191	H119	0.150100	0.996100	0.773400
H1201	H120	0.137000	0.007100	0.895600
H1211	H121	0.188700	0.947000	0.855300
C1241	C124	0.994300	0.978800	0.818000
H1221	H122	0.000100	0.999200	0.749700
H1231	H123	0.943300	0.953700	0.819500
H1241	H124	0.992200	0.011600	0.872200
C1251	C125	0.779800	0.616440	0.621400
C1261	C126	0.762000	0.555920	0.679100
C1271	C127	0.761700	0.555900	0.786600
H1251	H125	0.769700	0.594800	0.822900
C1281	C128	0.771700	0.554500	0.009100
H1261	H126	0.769500	0.549600	0.084900
H1271	H127	0.827800	0.565900	0.988000
H1281	H128	0.733600	0.588300	0.987700
O431	O43	0.293500	0.800490	0.658700
O441	O44	0.226360	0.740840	0.546200
O451	O45	0.928010	0.740250	0.527900
O461	O46	0.855700	0.788890	0.651100
O471	O47	0.805700	0.612260	0.530200
O481	O48	0.768600	0.668180	0.664200
Co91	Co9	0.232910	0.250000	0.250000
Co101	Co10	0.267090	0.750000	0.250000
Co111	Co11	0.767090	0.750000	0.750000
Co121	Co12	0.732910	0.250000	0.750000
C1291	C129	0.250000	0.000000	0.342700
C1301	C130	0.250000	0.000000	0.463900
C1311	C131	0.250000	0.000000	0.125300
H1291	H129	0.250000	0.000000	0.051300
C1321	C132	0.250000	0.500000	0.157300
C1331	C133	0.250000	0.500000	0.036100
C1341	C134	0.250000	0.500000	0.374700
H1301	H130	0.250000	0.500000	0.448700
C1351	C135	0.750000	0.000000	0.657300
C1361	C136	0.750000	0.000000	0.536100
C1371	C137	0.750000	0.000000	0.874700
H1311	H131	0.750000	0.000000	0.948700
C1381	C138	0.750000	0.500000	0.842700
C1391	C139	0.750000	0.500000	0.963900
C1401	C140	0.750000	0.500000	0.625300
H1321	H132	0.750000	0.500000	0.551300
