data_TEFWOR_clean_PM
_symmetry_space_group_name_H-M	'P1'
_cell_length_a	25.486600
_cell_length_b	25.486600
_cell_length_c	25.486600
_cell_angle_alpha	60.000000
_cell_angle_beta	60.000000
_cell_angle_gamma	60.000000
_symmetry_Int_Tables_number 1

loop_
_symmetry_equiv_pos_as_xyz
'x,y,z'

loop_
_atom_site_label
_atom_site_type_symbol
_atom_site_fract_x
_atom_site_fract_y
_atom_site_fract_z
In11	In1	0.250000	0.250000	0.986040
In21	In2	0.750000	0.750000	0.513960
In31	In3	0.486040	0.513960	0.750000
In41	In4	0.013960	0.986040	0.250000
In51	In5	0.250000	0.986040	0.513960
In61	In6	0.750000	0.513960	0.986040
In71	In7	0.486040	0.750000	0.250000
In81	In8	0.013960	0.250000	0.750000
In91	In9	0.250000	0.513960	0.250000
In101	In10	0.750000	0.986040	0.750000
In111	In11	0.486040	0.250000	0.513960
In121	In12	0.013960	0.750000	0.986040
In131	In13	0.750000	0.750000	0.013960
In141	In14	0.250000	0.250000	0.486040
In151	In15	0.513960	0.486040	0.250000
In161	In16	0.986040	0.013960	0.750000
In171	In17	0.750000	0.013960	0.486040
In181	In18	0.250000	0.486040	0.013960
In191	In19	0.513960	0.250000	0.750000
In201	In20	0.986040	0.750000	0.250000
In211	In21	0.750000	0.486040	0.750000
In221	In22	0.250000	0.013960	0.250000
In231	In23	0.513960	0.750000	0.486040
In241	In24	0.986040	0.250000	0.013960
H11	H1	0.142800	0.254600	0.945400
H21	H2	0.754600	0.642800	0.657200
H31	H3	0.445400	0.657200	0.642800
H41	H4	0.157200	0.945400	0.254600
H51	H5	0.142800	0.945400	0.657200
H61	H6	0.754600	0.657200	0.945400
H71	H7	0.445400	0.642800	0.254600
H81	H8	0.157200	0.254600	0.642800
H91	H9	0.142800	0.657200	0.254600
H101	H10	0.754600	0.945400	0.642800
H111	H11	0.445400	0.254600	0.657200
H121	H12	0.157200	0.642800	0.945400
H131	H13	0.745400	0.857200	0.554600
H141	H14	0.357200	0.245400	0.842800
H151	H15	0.342800	0.554600	0.857200
H161	H16	0.054600	0.842800	0.245400
H171	H17	0.054600	0.857200	0.842800
H181	H18	0.342800	0.245400	0.554600
H191	H19	0.357200	0.554600	0.245400
H201	H20	0.745400	0.842800	0.857200
H211	H21	0.342800	0.857200	0.245400
H221	H22	0.054600	0.245400	0.857200
H231	H23	0.745400	0.554600	0.842800
H241	H24	0.357200	0.842800	0.554600
H251	H25	0.857200	0.745400	0.054600
H261	H26	0.245400	0.357200	0.342800
H271	H27	0.554600	0.342800	0.357200
H281	H28	0.842800	0.054600	0.745400
H291	H29	0.857200	0.054600	0.342800
H301	H30	0.245400	0.342800	0.054600
H311	H31	0.554600	0.357200	0.745400
H321	H32	0.842800	0.745400	0.357200
H331	H33	0.857200	0.342800	0.745400
H341	H34	0.245400	0.054600	0.357200
H351	H35	0.554600	0.745400	0.342800
H361	H36	0.842800	0.357200	0.054600
H371	H37	0.254600	0.142800	0.445400
H381	H38	0.642800	0.754600	0.157200
H391	H39	0.657200	0.445400	0.142800
H401	H40	0.945400	0.157200	0.754600
H411	H41	0.945400	0.142800	0.157200
H421	H42	0.657200	0.754600	0.445400
H431	H43	0.642800	0.445400	0.754600
H441	H44	0.254600	0.157200	0.142800
H451	H45	0.657200	0.142800	0.754600
H461	H46	0.945400	0.754600	0.142800
H471	H47	0.254600	0.445400	0.157200
H481	H48	0.642800	0.157200	0.445400
C11	C1	0.100000	0.271000	0.073200
C21	C2	0.115200	0.277200	0.119400
C31	C3	0.121200	0.260000	0.985400
C41	C4	0.046100	0.269900	0.074700
C51	C5	0.978300	0.276100	0.122300
C61	C6	0.771000	0.600000	0.555800
C71	C7	0.777200	0.615200	0.488200
C81	C8	0.760000	0.621200	0.633400
C91	C9	0.769900	0.546100	0.609300
C101	C10	0.776100	0.478300	0.623300
C111	C11	0.573200	0.555800	0.600000
C121	C12	0.619400	0.488200	0.615200
C131	C13	0.485400	0.633400	0.621200
C141	C14	0.574700	0.609300	0.546100
C151	C15	0.622300	0.623300	0.478300
C161	C16	0.055800	0.073200	0.271000
C171	C17	0.988200	0.119400	0.277200
C181	C18	0.133400	0.985400	0.260000
C191	C19	0.109300	0.074700	0.269900
C201	C20	0.123300	0.122300	0.276100
C211	C21	0.100000	0.073200	0.555800
C221	C22	0.115200	0.119400	0.488200
C231	C23	0.121200	0.985400	0.633400
C241	C24	0.046100	0.074700	0.609300
C251	C25	0.978300	0.122300	0.623300
C261	C26	0.771000	0.555800	0.073200
C271	C27	0.777200	0.488200	0.119400
C281	C28	0.760000	0.633400	0.985400
C291	C29	0.769900	0.609300	0.074700
C301	C30	0.776100	0.623300	0.122300
C311	C31	0.573200	0.600000	0.271000
C321	C32	0.619400	0.615200	0.277200
C331	C33	0.485400	0.621200	0.260000
C341	C34	0.574700	0.546100	0.269900
C351	C35	0.622300	0.478300	0.276100
C361	C36	0.055800	0.271000	0.600000
C371	C37	0.988200	0.277200	0.615200
C381	C38	0.133400	0.260000	0.621200
C391	C39	0.109300	0.269900	0.546100
C401	C40	0.123300	0.276100	0.478300
C411	C41	0.100000	0.555800	0.271000
C421	C42	0.115200	0.488200	0.277200
C431	C43	0.121200	0.633400	0.260000
C441	C44	0.046100	0.609300	0.269900
C451	C45	0.978300	0.623300	0.276100
C461	C46	0.771000	0.073200	0.600000
C471	C47	0.777200	0.119400	0.615200
C481	C48	0.760000	0.985400	0.621200
C491	C49	0.769900	0.074700	0.546100
C501	C50	0.776100	0.122300	0.478300
C511	C51	0.573200	0.271000	0.555800
C521	C52	0.619400	0.277200	0.488200
C531	C53	0.485400	0.260000	0.633400
C541	C54	0.574700	0.269900	0.609300
C551	C55	0.622300	0.276100	0.623300
C561	C56	0.055800	0.600000	0.073200
C571	C57	0.988200	0.615200	0.119400
C581	C58	0.133400	0.621200	0.985400
C591	C59	0.109300	0.546100	0.074700
C601	C60	0.123300	0.478300	0.122300
C611	C61	0.729000	0.900000	0.426800
C621	C62	0.722800	0.884800	0.380600
C631	C63	0.740000	0.878800	0.514600
C641	C64	0.730100	0.953900	0.425300
C651	C65	0.723900	0.021700	0.377700
C661	C66	0.400000	0.229000	0.944200
C671	C67	0.384800	0.222800	0.011800
C681	C68	0.378800	0.240000	0.866600
C691	C69	0.453900	0.230100	0.890700
C701	C70	0.521700	0.223900	0.876700
C711	C71	0.444200	0.426800	0.900000
C721	C72	0.511800	0.380600	0.884800
C731	C73	0.366600	0.514600	0.878800
C741	C74	0.390700	0.425300	0.953900
C751	C75	0.376700	0.377700	0.021700
C761	C76	0.926800	0.944200	0.229000
C771	C77	0.880600	0.011800	0.222800
C781	C78	0.014600	0.866600	0.240000
C791	C79	0.925300	0.890700	0.230100
C801	C80	0.877700	0.876700	0.223900
C811	C81	0.926800	0.900000	0.944200
C821	C82	0.880600	0.884800	0.011800
C831	C83	0.014600	0.878800	0.866600
C841	C84	0.925300	0.953900	0.890700
C851	C85	0.877700	0.021700	0.876700
C861	C86	0.444200	0.229000	0.426800
C871	C87	0.511800	0.222800	0.380600
C881	C88	0.366600	0.240000	0.514600
C891	C89	0.390700	0.230100	0.425300
C901	C90	0.376700	0.223900	0.377700
C911	C91	0.400000	0.426800	0.229000
C921	C92	0.384800	0.380600	0.222800
C931	C93	0.378800	0.514600	0.240000
C941	C94	0.453900	0.425300	0.230100
C951	C95	0.521700	0.377700	0.223900
C961	C96	0.729000	0.944200	0.900000
C971	C97	0.722800	0.011800	0.884800
C981	C98	0.740000	0.866600	0.878800
C991	C99	0.730100	0.890700	0.953900
C1001	C100	0.723900	0.876700	0.021700
C1011	C101	0.444200	0.900000	0.229000
C1021	C102	0.511800	0.884800	0.222800
C1031	C103	0.366600	0.878800	0.240000
C1041	C104	0.390700	0.953900	0.230100
C1051	C105	0.376700	0.021700	0.223900
C1061	C106	0.926800	0.229000	0.900000
C1071	C107	0.880600	0.222800	0.884800
C1081	C108	0.014600	0.240000	0.878800
C1091	C109	0.925300	0.230100	0.953900
C1101	C110	0.877700	0.223900	0.021700
C1111	C111	0.729000	0.426800	0.944200
C1121	C112	0.722800	0.380600	0.011800
C1131	C113	0.740000	0.514600	0.866600
C1141	C114	0.730100	0.425300	0.890700
C1151	C115	0.723900	0.377700	0.876700
C1161	C116	0.400000	0.944200	0.426800
C1171	C117	0.384800	0.011800	0.380600
C1181	C118	0.378800	0.866600	0.514600
C1191	C119	0.453900	0.890700	0.425300
C1201	C120	0.521700	0.876700	0.377700
C1211	C121	0.900000	0.729000	0.926800
C1221	C122	0.884800	0.722800	0.880600
C1231	C123	0.878800	0.740000	0.014600
C1241	C124	0.953900	0.730100	0.925300
C1251	C125	0.021700	0.723900	0.877700
C1261	C126	0.229000	0.400000	0.444200
C1271	C127	0.222800	0.384800	0.511800
C1281	C128	0.240000	0.378800	0.366600
C1291	C129	0.230100	0.453900	0.390700
C1301	C130	0.223900	0.521700	0.376700
C1311	C131	0.426800	0.444200	0.400000
C1321	C132	0.380600	0.511800	0.384800
C1331	C133	0.514600	0.366600	0.378800
C1341	C134	0.425300	0.390700	0.453900
C1351	C135	0.377700	0.376700	0.521700
C1361	C136	0.944200	0.926800	0.729000
C1371	C137	0.011800	0.880600	0.722800
C1381	C138	0.866600	0.014600	0.740000
C1391	C139	0.890700	0.925300	0.730100
C1401	C140	0.876700	0.877700	0.723900
C1411	C141	0.900000	0.926800	0.444200
C1421	C142	0.884800	0.880600	0.511800
C1431	C143	0.878800	0.014600	0.366600
C1441	C144	0.953900	0.925300	0.390700
C1451	C145	0.021700	0.877700	0.376700
C1461	C146	0.229000	0.444200	0.926800
C1471	C147	0.222800	0.511800	0.880600
C1481	C148	0.240000	0.366600	0.014600
C1491	C149	0.230100	0.390700	0.925300
C1501	C150	0.223900	0.376700	0.877700
C1511	C151	0.426800	0.400000	0.729000
C1521	C152	0.380600	0.384800	0.722800
C1531	C153	0.514600	0.378800	0.740000
C1541	C154	0.425300	0.453900	0.730100
C1551	C155	0.377700	0.521700	0.723900
C1561	C156	0.944200	0.729000	0.400000
C1571	C157	0.011800	0.722800	0.384800
C1581	C158	0.866600	0.740000	0.378800
C1591	C159	0.890700	0.730100	0.453900
C1601	C160	0.876700	0.723900	0.521700
C1611	C161	0.900000	0.444200	0.729000
C1621	C162	0.884800	0.511800	0.722800
C1631	C163	0.878800	0.366600	0.740000
C1641	C164	0.953900	0.390700	0.730100
C1651	C165	0.021700	0.376700	0.723900
C1661	C166	0.229000	0.926800	0.400000
C1671	C167	0.222800	0.880600	0.384800
C1681	C168	0.240000	0.014600	0.378800
C1691	C169	0.230100	0.925300	0.453900
C1701	C170	0.223900	0.877700	0.521700
C1711	C171	0.426800	0.729000	0.444200
C1721	C172	0.380600	0.722800	0.511800
C1731	C173	0.514600	0.740000	0.366600
C1741	C174	0.425300	0.730100	0.390700
C1751	C175	0.377700	0.723900	0.376700
C1761	C176	0.944200	0.400000	0.926800
C1771	C177	0.011800	0.384800	0.880600
C1781	C178	0.866600	0.378800	0.014600
C1791	C179	0.890700	0.453900	0.925300
C1801	C180	0.876700	0.521700	0.877700
C1811	C181	0.271000	0.100000	0.573200
C1821	C182	0.277200	0.115200	0.619400
C1831	C183	0.260000	0.121200	0.485400
C1841	C184	0.269900	0.046100	0.574700
C1851	C185	0.276100	0.978300	0.622300
C1861	C186	0.600000	0.771000	0.055800
C1871	C187	0.615200	0.777200	0.988200
C1881	C188	0.621200	0.760000	0.133400
C1891	C189	0.546100	0.769900	0.109300
C1901	C190	0.478300	0.776100	0.123300
C1911	C191	0.555800	0.573200	0.100000
C1921	C192	0.488200	0.619400	0.115200
C1931	C193	0.633400	0.485400	0.121200
C1941	C194	0.609300	0.574700	0.046100
C1951	C195	0.623300	0.622300	0.978300
C1961	C196	0.073200	0.055800	0.771000
C1971	C197	0.119400	0.988200	0.777200
C1981	C198	0.985400	0.133400	0.760000
C1991	C199	0.074700	0.109300	0.769900
C2001	C200	0.122300	0.123300	0.776100
C2011	C201	0.073200	0.100000	0.055800
C2021	C202	0.119400	0.115200	0.988200
C2031	C203	0.985400	0.121200	0.133400
C2041	C204	0.074700	0.046100	0.109300
C2051	C205	0.122300	0.978300	0.123300
C2061	C206	0.555800	0.771000	0.573200
C2071	C207	0.488200	0.777200	0.619400
C2081	C208	0.633400	0.760000	0.485400
C2091	C209	0.609300	0.769900	0.574700
C2101	C210	0.623300	0.776100	0.622300
C2111	C211	0.600000	0.573200	0.771000
C2121	C212	0.615200	0.619400	0.777200
C2131	C213	0.621200	0.485400	0.760000
C2141	C214	0.546100	0.574700	0.769900
C2151	C215	0.478300	0.622300	0.776100
C2161	C216	0.271000	0.055800	0.100000
C2171	C217	0.277200	0.988200	0.115200
C2181	C218	0.260000	0.133400	0.121200
C2191	C219	0.269900	0.109300	0.046100
C2201	C220	0.276100	0.123300	0.978300
C2211	C221	0.555800	0.100000	0.771000
C2221	C222	0.488200	0.115200	0.777200
C2231	C223	0.633400	0.121200	0.760000
C2241	C224	0.609300	0.046100	0.769900
C2251	C225	0.623300	0.978300	0.776100
C2261	C226	0.073200	0.771000	0.100000
C2271	C227	0.119400	0.777200	0.115200
C2281	C228	0.985400	0.760000	0.121200
C2291	C229	0.074700	0.769900	0.046100
C2301	C230	0.122300	0.776100	0.978300
C2311	C231	0.271000	0.573200	0.055800
C2321	C232	0.277200	0.619400	0.988200
C2331	C233	0.260000	0.485400	0.133400
C2341	C234	0.269900	0.574700	0.109300
C2351	C235	0.276100	0.622300	0.123300
C2361	C236	0.600000	0.055800	0.573200
C2371	C237	0.615200	0.988200	0.619400
C2381	C238	0.621200	0.133400	0.485400
C2391	C239	0.546100	0.109300	0.574700
C2401	C240	0.478300	0.123300	0.622300
N11	N1	0.147600	0.265200	0.016000
N21	N2	0.060500	0.263500	0.019500
N31	N3	0.765200	0.647600	0.571200
N41	N4	0.763500	0.560500	0.656500
N51	N5	0.516000	0.571200	0.647600
N61	N6	0.519500	0.656500	0.560500
N71	N7	0.071200	0.016000	0.265200
N81	N8	0.156500	0.019500	0.263500
N91	N9	0.147600	0.016000	0.571200
N101	N10	0.060500	0.019500	0.656500
N111	N11	0.765200	0.571200	0.016000
N121	N12	0.763500	0.656500	0.019500
N131	N13	0.516000	0.647600	0.265200
N141	N14	0.519500	0.560500	0.263500
N151	N15	0.071200	0.265200	0.647600
N161	N16	0.156500	0.263500	0.560500
N171	N17	0.147600	0.571200	0.265200
N181	N18	0.060500	0.656500	0.263500
N191	N19	0.765200	0.016000	0.647600
N201	N20	0.763500	0.019500	0.560500
N211	N21	0.516000	0.265200	0.571200
N221	N22	0.519500	0.263500	0.656500
N231	N23	0.071200	0.647600	0.016000
N241	N24	0.156500	0.560500	0.019500
N251	N25	0.734800	0.852400	0.484000
N261	N26	0.736500	0.939500	0.480500
N271	N27	0.352400	0.234800	0.928800
N281	N28	0.439500	0.236500	0.843500
N291	N29	0.428800	0.484000	0.852400
N301	N30	0.343500	0.480500	0.939500
N311	N31	0.984000	0.928800	0.234800
N321	N32	0.980500	0.843500	0.236500
N331	N33	0.984000	0.852400	0.928800
N341	N34	0.980500	0.939500	0.843500
N351	N35	0.428800	0.234800	0.484000
N361	N36	0.343500	0.236500	0.480500
N371	N37	0.352400	0.484000	0.234800
N381	N38	0.439500	0.480500	0.236500
N391	N39	0.734800	0.928800	0.852400
N401	N40	0.736500	0.843500	0.939500
N411	N41	0.428800	0.852400	0.234800
N421	N42	0.343500	0.939500	0.236500
N431	N43	0.984000	0.234800	0.852400
N441	N44	0.980500	0.236500	0.939500
N451	N45	0.734800	0.484000	0.928800
N461	N46	0.736500	0.480500	0.843500
N471	N47	0.352400	0.928800	0.484000
N481	N48	0.439500	0.843500	0.480500
N491	N49	0.852400	0.734800	0.984000
N501	N50	0.939500	0.736500	0.980500
N511	N51	0.234800	0.352400	0.428800
N521	N52	0.236500	0.439500	0.343500
N531	N53	0.484000	0.428800	0.352400
N541	N54	0.480500	0.343500	0.439500
N551	N55	0.928800	0.984000	0.734800
N561	N56	0.843500	0.980500	0.736500
N571	N57	0.852400	0.984000	0.428800
N581	N58	0.939500	0.980500	0.343500
N591	N59	0.234800	0.428800	0.984000
N601	N60	0.236500	0.343500	0.980500
N611	N61	0.484000	0.352400	0.734800
N621	N62	0.480500	0.439500	0.736500
N631	N63	0.928800	0.734800	0.352400
N641	N64	0.843500	0.736500	0.439500
N651	N65	0.852400	0.428800	0.734800
N661	N66	0.939500	0.343500	0.736500
N671	N67	0.234800	0.984000	0.352400
N681	N68	0.236500	0.980500	0.439500
N691	N69	0.484000	0.734800	0.428800
N701	N70	0.480500	0.736500	0.343500
N711	N71	0.928800	0.352400	0.984000
N721	N72	0.843500	0.439500	0.980500
N731	N73	0.265200	0.147600	0.516000
N741	N74	0.263500	0.060500	0.519500
N751	N75	0.647600	0.765200	0.071200
N761	N76	0.560500	0.763500	0.156500
N771	N77	0.571200	0.516000	0.147600
N781	N78	0.656500	0.519500	0.060500
N791	N79	0.016000	0.071200	0.765200
N801	N80	0.019500	0.156500	0.763500
N811	N81	0.016000	0.147600	0.071200
N821	N82	0.019500	0.060500	0.156500
N831	N83	0.571200	0.765200	0.516000
N841	N84	0.656500	0.763500	0.519500
N851	N85	0.647600	0.516000	0.765200
N861	N86	0.560500	0.519500	0.763500
N871	N87	0.265200	0.071200	0.147600
N881	N88	0.263500	0.156500	0.060500
N891	N89	0.571200	0.147600	0.765200
N901	N90	0.656500	0.060500	0.763500
N911	N91	0.016000	0.765200	0.147600
N921	N92	0.019500	0.763500	0.060500
N931	N93	0.265200	0.516000	0.071200
N941	N94	0.263500	0.519500	0.156500
N951	N95	0.647600	0.071200	0.516000
N961	N96	0.560500	0.156500	0.519500
O11	O1	0.168800	0.271000	0.110200
O21	O2	0.063400	0.290000	0.169200
O31	O3	0.943100	0.267100	0.109700
O41	O4	0.966300	0.288500	0.168500
O51	O5	0.771000	0.668800	0.450000
O61	O6	0.790000	0.563400	0.477400
O71	O7	0.767100	0.443100	0.680100
O81	O8	0.788500	0.466300	0.576700
O91	O9	0.610200	0.450000	0.668800
O101	O10	0.669200	0.477400	0.563400
O111	O11	0.609700	0.680100	0.443100
O121	O12	0.668500	0.576700	0.466300
O131	O13	0.950000	0.110200	0.271000
O141	O14	0.977400	0.169200	0.290000
O151	O15	0.180100	0.109700	0.267100
O161	O16	0.076700	0.168500	0.288500
O171	O17	0.168800	0.110200	0.450000
O181	O18	0.063400	0.169200	0.477400
O191	O19	0.943100	0.109700	0.680100
O201	O20	0.966300	0.168500	0.576700
O211	O21	0.771000	0.450000	0.110200
O221	O22	0.790000	0.477400	0.169200
O231	O23	0.767100	0.680100	0.109700
O241	O24	0.788500	0.576700	0.168500
O251	O25	0.610200	0.668800	0.271000
O261	O26	0.669200	0.563400	0.290000
O271	O27	0.609700	0.443100	0.267100
O281	O28	0.668500	0.466300	0.288500
O291	O29	0.950000	0.271000	0.668800
O301	O30	0.977400	0.290000	0.563400
O311	O31	0.180100	0.267100	0.443100
O321	O32	0.076700	0.288500	0.466300
O331	O33	0.168800	0.450000	0.271000
O341	O34	0.063400	0.477400	0.290000
O351	O35	0.943100	0.680100	0.267100
O361	O36	0.966300	0.576700	0.288500
O371	O37	0.771000	0.110200	0.668800
O381	O38	0.790000	0.169200	0.563400
O391	O39	0.767100	0.109700	0.443100
O401	O40	0.788500	0.168500	0.466300
O411	O41	0.610200	0.271000	0.450000
O421	O42	0.669200	0.290000	0.477400
O431	O43	0.609700	0.267100	0.680100
O441	O44	0.668500	0.288500	0.576700
O451	O45	0.950000	0.668800	0.110200
O461	O46	0.977400	0.563400	0.169200
O471	O47	0.180100	0.443100	0.109700
O481	O48	0.076700	0.466300	0.168500
O491	O49	0.729000	0.831200	0.389800
O501	O50	0.710000	0.936600	0.330800
O511	O51	0.732900	0.056900	0.390300
O521	O52	0.711500	0.033700	0.331500
O531	O53	0.331200	0.229000	0.050000
O541	O54	0.436600	0.210000	0.022600
O551	O55	0.556900	0.232900	0.819900
O561	O56	0.533700	0.211500	0.923300
O571	O57	0.550000	0.389800	0.831200
O581	O58	0.522600	0.330800	0.936600
O591	O59	0.319900	0.390300	0.056900
O601	O60	0.423300	0.331500	0.033700
O611	O61	0.889800	0.050000	0.229000
O621	O62	0.830800	0.022600	0.210000
O631	O63	0.890300	0.819900	0.232900
O641	O64	0.831500	0.923300	0.211500
O651	O65	0.889800	0.831200	0.050000
O661	O66	0.830800	0.936600	0.022600
O671	O67	0.890300	0.056900	0.819900
O681	O68	0.831500	0.033700	0.923300
O691	O69	0.550000	0.229000	0.389800
O701	O70	0.522600	0.210000	0.330800
O711	O71	0.319900	0.232900	0.390300
O721	O72	0.423300	0.211500	0.331500
O731	O73	0.331200	0.389800	0.229000
O741	O74	0.436600	0.330800	0.210000
O751	O75	0.556900	0.390300	0.232900
O761	O76	0.533700	0.331500	0.211500
O771	O77	0.729000	0.050000	0.831200
O781	O78	0.710000	0.022600	0.936600
O791	O79	0.732900	0.819900	0.056900
O801	O80	0.711500	0.923300	0.033700
O811	O81	0.550000	0.831200	0.229000
O821	O82	0.522600	0.936600	0.210000
O831	O83	0.319900	0.056900	0.232900
O841	O84	0.423300	0.033700	0.211500
O851	O85	0.889800	0.229000	0.831200
O861	O86	0.830800	0.210000	0.936600
O871	O87	0.890300	0.232900	0.056900
O881	O88	0.831500	0.211500	0.033700
O891	O89	0.729000	0.389800	0.050000
O901	O90	0.710000	0.330800	0.022600
O911	O91	0.732900	0.390300	0.819900
O921	O92	0.711500	0.331500	0.923300
O931	O93	0.331200	0.050000	0.389800
O941	O94	0.436600	0.022600	0.330800
O951	O95	0.556900	0.819900	0.390300
O961	O96	0.533700	0.923300	0.331500
O971	O97	0.831200	0.729000	0.889800
O981	O98	0.936600	0.710000	0.830800
O991	O99	0.056900	0.732900	0.890300
O1001	O100	0.033700	0.711500	0.831500
O1011	O101	0.229000	0.331200	0.550000
O1021	O102	0.210000	0.436600	0.522600
O1031	O103	0.232900	0.556900	0.319900
O1041	O104	0.211500	0.533700	0.423300
O1051	O105	0.389800	0.550000	0.331200
O1061	O106	0.330800	0.522600	0.436600
O1071	O107	0.390300	0.319900	0.556900
O1081	O108	0.331500	0.423300	0.533700
O1091	O109	0.050000	0.889800	0.729000
O1101	O110	0.022600	0.830800	0.710000
O1111	O111	0.819900	0.890300	0.732900
O1121	O112	0.923300	0.831500	0.711500
O1131	O113	0.831200	0.889800	0.550000
O1141	O114	0.936600	0.830800	0.522600
O1151	O115	0.056900	0.890300	0.319900
O1161	O116	0.033700	0.831500	0.423300
O1171	O117	0.229000	0.550000	0.889800
O1181	O118	0.210000	0.522600	0.830800
O1191	O119	0.232900	0.319900	0.890300
O1201	O120	0.211500	0.423300	0.831500
O1211	O121	0.389800	0.331200	0.729000
O1221	O122	0.330800	0.436600	0.710000
O1231	O123	0.390300	0.556900	0.732900
O1241	O124	0.331500	0.533700	0.711500
O1251	O125	0.050000	0.729000	0.331200
O1261	O126	0.022600	0.710000	0.436600
O1271	O127	0.819900	0.732900	0.556900
O1281	O128	0.923300	0.711500	0.533700
O1291	O129	0.831200	0.550000	0.729000
O1301	O130	0.936600	0.522600	0.710000
O1311	O131	0.056900	0.319900	0.732900
O1321	O132	0.033700	0.423300	0.711500
O1331	O133	0.229000	0.889800	0.331200
O1341	O134	0.210000	0.830800	0.436600
O1351	O135	0.232900	0.890300	0.556900
O1361	O136	0.211500	0.831500	0.533700
O1371	O137	0.389800	0.729000	0.550000
O1381	O138	0.330800	0.710000	0.522600
O1391	O139	0.390300	0.732900	0.319900
O1401	O140	0.331500	0.711500	0.423300
O1411	O141	0.050000	0.331200	0.889800
O1421	O142	0.022600	0.436600	0.830800
O1431	O143	0.819900	0.556900	0.890300
O1441	O144	0.923300	0.533700	0.831500
O1451	O145	0.271000	0.168800	0.610200
O1461	O146	0.290000	0.063400	0.669200
O1471	O147	0.267100	0.943100	0.609700
O1481	O148	0.288500	0.966300	0.668500
O1491	O149	0.668800	0.771000	0.950000
O1501	O150	0.563400	0.790000	0.977400
O1511	O151	0.443100	0.767100	0.180100
O1521	O152	0.466300	0.788500	0.076700
O1531	O153	0.450000	0.610200	0.168800
O1541	O154	0.477400	0.669200	0.063400
O1551	O155	0.680100	0.609700	0.943100
O1561	O156	0.576700	0.668500	0.966300
O1571	O157	0.110200	0.950000	0.771000
O1581	O158	0.169200	0.977400	0.790000
O1591	O159	0.109700	0.180100	0.767100
O1601	O160	0.168500	0.076700	0.788500
O1611	O161	0.110200	0.168800	0.950000
O1621	O162	0.169200	0.063400	0.977400
O1631	O163	0.109700	0.943100	0.180100
O1641	O164	0.168500	0.966300	0.076700
O1651	O165	0.450000	0.771000	0.610200
O1661	O166	0.477400	0.790000	0.669200
O1671	O167	0.680100	0.767100	0.609700
O1681	O168	0.576700	0.788500	0.668500
O1691	O169	0.668800	0.610200	0.771000
O1701	O170	0.563400	0.669200	0.790000
O1711	O171	0.443100	0.609700	0.767100
O1721	O172	0.466300	0.668500	0.788500
O1731	O173	0.271000	0.950000	0.168800
O1741	O174	0.290000	0.977400	0.063400
O1751	O175	0.267100	0.180100	0.943100
O1761	O176	0.288500	0.076700	0.966300
O1771	O177	0.450000	0.168800	0.771000
O1781	O178	0.477400	0.063400	0.790000
O1791	O179	0.680100	0.943100	0.767100
O1801	O180	0.576700	0.966300	0.788500
O1811	O181	0.110200	0.771000	0.168800
O1821	O182	0.169200	0.790000	0.063400
O1831	O183	0.109700	0.767100	0.943100
O1841	O184	0.168500	0.788500	0.966300
O1851	O185	0.271000	0.610200	0.950000
O1861	O186	0.290000	0.669200	0.977400
O1871	O187	0.267100	0.609700	0.180100
O1881	O188	0.288500	0.668500	0.076700
O1891	O189	0.668800	0.950000	0.610200
O1901	O190	0.563400	0.977400	0.669200
O1911	O191	0.443100	0.180100	0.609700
O1921	O192	0.466300	0.076700	0.668500
