data_TEHRUU_clean_PM
_symmetry_space_group_name_H-M	'P1'
_cell_length_a	8.773100
_cell_length_b	11.033000
_cell_length_c	25.689000
_cell_angle_alpha	90.000000
_cell_angle_beta	90.000000
_cell_angle_gamma	101.834000
_symmetry_Int_Tables_number 1

loop_
_symmetry_equiv_pos_as_xyz
'x,y,z'

loop_
_atom_site_label
_atom_site_type_symbol
_atom_site_fract_x
_atom_site_fract_y
_atom_site_fract_z
Nd11	Nd1	0.696310	0.686730	0.589760
Nd21	Nd2	0.303690	0.313270	0.089760
Nd31	Nd3	0.303690	0.313270	0.410240
Nd41	Nd4	0.696310	0.686730	0.910240
H11	H1	0.322800	0.159100	0.582500
H21	H2	0.453100	0.030500	0.626900
H31	H3	0.972800	0.517300	0.704500
H41	H4	0.677200	0.840900	0.082500
H51	H5	0.546900	0.969500	0.126900
H61	H6	0.027200	0.482700	0.204500
H71	H7	0.677200	0.840900	0.417500
H81	H8	0.546900	0.969500	0.373100
H91	H9	0.027200	0.482700	0.295500
H101	H10	0.322800	0.159100	0.917500
H111	H11	0.453100	0.030500	0.873100
H121	H12	0.972800	0.517300	0.795500
Ru11	Ru1	0.115710	0.364600	0.614070
Ru21	Ru2	0.884290	0.635400	0.114070
Ru31	Ru3	0.884290	0.635400	0.385930
Ru41	Ru4	0.115710	0.364600	0.885930
Ru51	Ru5	0.504740	0.970720	0.750000
Ru61	Ru6	0.495260	0.029280	0.250000
C11	C1	0.250800	0.235100	0.695200
C21	C2	0.322400	0.160900	0.618700
C31	C3	0.401300	0.081700	0.645800
C41	C4	0.328300	0.157300	0.722500
C51	C5	0.170400	0.315100	0.722800
C61	C6	0.024100	0.463800	0.722200
C71	C7	0.586200	0.880500	0.693700
C81	C8	0.920800	0.227800	0.609000
C91	C9	0.986000	0.486500	0.597500
C101	C10	0.846700	0.672700	0.459400
C111	C11	0.303300	0.502100	0.611500
C121	C12	0.749200	0.764900	0.195200
C131	C13	0.677600	0.839100	0.118700
C141	C14	0.598700	0.918300	0.145800
C151	C15	0.671700	0.842700	0.222500
C161	C16	0.829600	0.684900	0.222800
C171	C17	0.975900	0.536200	0.222200
C181	C18	0.413800	0.119500	0.193700
C191	C19	0.079200	0.772200	0.109000
C201	C20	0.014000	0.513500	0.097500
C211	C21	0.153300	0.327300	0.959400
C221	C22	0.696700	0.497900	0.111500
C231	C23	0.749200	0.764900	0.304800
C241	C24	0.677600	0.839100	0.381300
C251	C25	0.598700	0.918300	0.354200
C261	C26	0.671700	0.842700	0.277500
C271	C27	0.829600	0.684900	0.277200
C281	C28	0.975900	0.536200	0.277800
C291	C29	0.413800	0.119500	0.306300
C301	C30	0.079200	0.772200	0.391000
C311	C31	0.014000	0.513500	0.402500
C321	C32	0.153300	0.327300	0.540600
C331	C33	0.696700	0.497900	0.388500
C341	C34	0.250800	0.235100	0.804800
C351	C35	0.322400	0.160900	0.881300
C361	C36	0.401300	0.081700	0.854200
C371	C37	0.328300	0.157300	0.777500
C381	C38	0.170400	0.315100	0.777200
C391	C39	0.024100	0.463800	0.777800
C401	C40	0.586200	0.880500	0.806300
C411	C41	0.920800	0.227800	0.891000
C421	C42	0.986000	0.486500	0.902500
C431	C43	0.846700	0.672700	0.040600
C441	C44	0.303300	0.502100	0.888500
C451	C45	0.308000	0.836300	0.750000
C461	C46	0.700200	0.104800	0.750000
C471	C47	0.692000	0.163700	0.250000
C481	C48	0.299800	0.895200	0.250000
N11	N1	0.247600	0.238200	0.642300
N21	N2	0.403900	0.077800	0.697500
N31	N3	0.095200	0.389600	0.695000
N41	N4	0.626200	0.828600	0.658300
N51	N5	0.808800	0.152800	0.601900
N61	N6	0.908000	0.558400	0.590800
N71	N7	0.824100	0.701200	0.501300
N81	N8	0.411400	0.584100	0.608800
N91	N9	0.752400	0.761800	0.142300
N101	N10	0.596100	0.922200	0.197500
N111	N11	0.904800	0.610400	0.195000
N121	N12	0.373800	0.171400	0.158300
N131	N13	0.191200	0.847200	0.101900
N141	N14	0.092000	0.441600	0.090800
N151	N15	0.175900	0.298800	0.001300
N161	N16	0.588600	0.415900	0.108800
N171	N17	0.752400	0.761800	0.357700
N181	N18	0.596100	0.922200	0.302500
N191	N19	0.904800	0.610400	0.305000
N201	N20	0.373800	0.171400	0.341700
N211	N21	0.191200	0.847200	0.398100
N221	N22	0.092000	0.441600	0.409200
N231	N23	0.175900	0.298800	0.498700
N241	N24	0.588600	0.415900	0.391200
N251	N25	0.247600	0.238200	0.857700
N261	N26	0.403900	0.077800	0.802500
N271	N27	0.095200	0.389600	0.805000
N281	N28	0.626200	0.828600	0.841700
N291	N29	0.808800	0.152800	0.898100
N301	N30	0.908000	0.558400	0.909200
N311	N31	0.824100	0.701200	0.998700
N321	N32	0.411400	0.584100	0.891200
N331	N33	0.198800	0.757400	0.750000
N341	N34	0.807300	0.187500	0.750000
N351	N35	0.801200	0.242600	0.250000
N361	N36	0.192700	0.812500	0.250000
