data_TEHWEK_clean_PM
_symmetry_space_group_name_H-M	'P1'
_cell_length_a	15.041200
_cell_length_b	15.891900
_cell_length_c	28.221000
_cell_angle_alpha	90.000000
_cell_angle_beta	90.000000
_cell_angle_gamma	90.000000
_symmetry_Int_Tables_number 1

loop_
_symmetry_equiv_pos_as_xyz
'x,y,z'

loop_
_atom_site_label
_atom_site_type_symbol
_atom_site_fract_x
_atom_site_fract_y
_atom_site_fract_z
C11	C1	0.818000	0.223200	0.030520
C21	C2	0.888400	0.193600	0.063850
C31	C3	0.769500	0.295700	0.040930
H11	H1	0.782500	0.326600	0.068100
C41	C4	0.798400	0.178000	0.989360
H21	H2	0.830900	0.129900	0.982100
O11	O1	0.942200	0.136600	0.050000
O21	O2	0.891500	0.224300	0.104760
C51	C5	0.818000	0.723200	0.530520
C61	C6	0.888400	0.693600	0.563850
C71	C7	0.769500	0.795700	0.540930
H31	H3	0.782500	0.826600	0.568100
C81	C8	0.798400	0.678000	0.489360
H41	H4	0.830900	0.629900	0.482100
O31	O3	0.942200	0.636600	0.550000
O41	O4	0.891500	0.724300	0.604760
C91	C9	0.318000	0.223200	0.530520
C101	C10	0.388400	0.193600	0.563850
C111	C11	0.269500	0.295700	0.540930
H51	H5	0.282500	0.326600	0.568100
C121	C12	0.298400	0.178000	0.489360
H61	H6	0.330900	0.129900	0.482100
O51	O5	0.442200	0.136600	0.550000
O61	O6	0.391500	0.224300	0.604760
C131	C13	0.318000	0.723200	0.030520
C141	C14	0.388400	0.693600	0.063850
C151	C15	0.269500	0.795700	0.040930
H71	H7	0.282500	0.826600	0.068100
C161	C16	0.298400	0.678000	0.989360
H81	H8	0.330900	0.629900	0.982100
O71	O7	0.442200	0.636600	0.050000
O81	O8	0.391500	0.724300	0.104760
C171	C17	0.932000	0.526800	0.030520
C181	C18	0.861600	0.556400	0.063850
C191	C19	0.980500	0.454300	0.040930
H91	H9	0.967500	0.423400	0.068100
C201	C20	0.951600	0.572000	0.989360
H101	H10	0.919100	0.620100	0.982100
O91	O9	0.807800	0.613400	0.050000
O101	O10	0.858500	0.525700	0.104760
C211	C21	0.932000	0.026800	0.530520
C221	C22	0.861600	0.056400	0.563850
C231	C23	0.980500	0.954300	0.540930
H111	H11	0.967500	0.923400	0.568100
C241	C24	0.951600	0.072000	0.489360
H121	H12	0.919100	0.120100	0.482100
O111	O11	0.807800	0.113400	0.550000
O121	O12	0.858500	0.025700	0.604760
C251	C25	0.432000	0.526800	0.530520
C261	C26	0.361600	0.556400	0.563850
C271	C27	0.480500	0.454300	0.540930
H131	H13	0.467500	0.423400	0.568100
C281	C28	0.451600	0.572000	0.489360
H141	H14	0.419100	0.620100	0.482100
O131	O13	0.307800	0.613400	0.550000
O141	O14	0.358500	0.525700	0.604760
C291	C29	0.432000	0.026800	0.030520
C301	C30	0.361600	0.056400	0.063850
C311	C31	0.480500	0.954300	0.040930
H151	H15	0.467500	0.923400	0.068100
C321	C32	0.451600	0.072000	0.989360
H161	H16	0.419100	0.120100	0.982100
O151	O15	0.307800	0.113400	0.050000
O161	O16	0.358500	0.025700	0.104760
C331	C33	0.932000	0.223200	0.719480
C341	C34	0.861600	0.193600	0.686150
C351	C35	0.980500	0.295700	0.709070
H171	H17	0.967500	0.326600	0.681900
C361	C36	0.951600	0.178000	0.760640
H181	H18	0.919100	0.129900	0.767900
O171	O17	0.807800	0.136600	0.700000
O181	O18	0.858500	0.224300	0.645240
C371	C37	0.932000	0.723200	0.219480
C381	C38	0.861600	0.693600	0.186150
C391	C39	0.980500	0.795700	0.209070
H191	H19	0.967500	0.826600	0.181900
C401	C40	0.951600	0.678000	0.260640
H201	H20	0.919100	0.629900	0.267900
O191	O19	0.807800	0.636600	0.200000
O201	O20	0.858500	0.724300	0.145240
C411	C41	0.432000	0.223200	0.219480
C421	C42	0.361600	0.193600	0.186150
C431	C43	0.480500	0.295700	0.209070
H211	H21	0.467500	0.326600	0.181900
C441	C44	0.451600	0.178000	0.260640
H221	H22	0.419100	0.129900	0.267900
O211	O21	0.307800	0.136600	0.200000
O221	O22	0.358500	0.224300	0.145240
C451	C45	0.432000	0.723200	0.719480
C461	C46	0.361600	0.693600	0.686150
C471	C47	0.480500	0.795700	0.709070
H231	H23	0.467500	0.826600	0.681900
C481	C48	0.451600	0.678000	0.760640
H241	H24	0.419100	0.629900	0.767900
O231	O23	0.307800	0.636600	0.700000
O241	O24	0.358500	0.724300	0.645240
C491	C49	0.818000	0.526800	0.719480
C501	C50	0.888400	0.556400	0.686150
C511	C51	0.769500	0.454300	0.709070
H251	H25	0.782500	0.423400	0.681900
C521	C52	0.798400	0.572000	0.760640
H261	H26	0.830900	0.620100	0.767900
O251	O25	0.942200	0.613400	0.700000
O261	O26	0.891500	0.525700	0.645240
C531	C53	0.818000	0.026800	0.219480
C541	C54	0.888400	0.056400	0.186150
C551	C55	0.769500	0.954300	0.209070
H271	H27	0.782500	0.923400	0.181900
C561	C56	0.798400	0.072000	0.260640
H281	H28	0.830900	0.120100	0.267900
O271	O27	0.942200	0.113400	0.200000
O281	O28	0.891500	0.025700	0.145240
C571	C57	0.318000	0.526800	0.219480
C581	C58	0.388400	0.556400	0.186150
C591	C59	0.269500	0.454300	0.209070
H291	H29	0.282500	0.423400	0.181900
C601	C60	0.298400	0.572000	0.260640
H301	H30	0.330900	0.620100	0.267900
O291	O29	0.442200	0.613400	0.200000
O301	O30	0.391500	0.525700	0.145240
C611	C61	0.318000	0.026800	0.719480
C621	C62	0.388400	0.056400	0.686150
C631	C63	0.269500	0.954300	0.709070
H311	H31	0.282500	0.923400	0.681900
C641	C64	0.298400	0.072000	0.760640
H321	H32	0.330900	0.120100	0.767900
O311	O31	0.442200	0.113400	0.700000
O321	O32	0.391500	0.025700	0.645240
C651	C65	0.182000	0.776800	0.969480
C661	C66	0.111600	0.806400	0.936150
C671	C67	0.230500	0.704300	0.959070
H331	H33	0.217500	0.673400	0.931900
C681	C68	0.201600	0.822000	0.010640
H341	H34	0.169100	0.870100	0.017900
O331	O33	0.057800	0.863400	0.950000
O341	O34	0.108500	0.775700	0.895240
C691	C69	0.182000	0.276800	0.469480
C701	C70	0.111600	0.306400	0.436150
C711	C71	0.230500	0.204300	0.459070
H351	H35	0.217500	0.173400	0.431900
C721	C72	0.201600	0.322000	0.510640
H361	H36	0.169100	0.370100	0.517900
O351	O35	0.057800	0.363400	0.450000
O361	O36	0.108500	0.275700	0.395240
C731	C73	0.682000	0.776800	0.469480
C741	C74	0.611600	0.806400	0.436150
C751	C75	0.730500	0.704300	0.459070
H371	H37	0.717500	0.673400	0.431900
C761	C76	0.701600	0.822000	0.510640
H381	H38	0.669100	0.870100	0.517900
O371	O37	0.557800	0.863400	0.450000
O381	O38	0.608500	0.775700	0.395240
C771	C77	0.682000	0.276800	0.969480
C781	C78	0.611600	0.306400	0.936150
C791	C79	0.730500	0.204300	0.959070
H391	H39	0.717500	0.173400	0.931900
C801	C80	0.701600	0.322000	0.010640
H401	H40	0.669100	0.370100	0.017900
O391	O39	0.557800	0.363400	0.950000
O401	O40	0.608500	0.275700	0.895240
C811	C81	0.068000	0.473200	0.969480
C821	C82	0.138400	0.443600	0.936150
C831	C83	0.019500	0.545700	0.959070
H411	H41	0.032500	0.576600	0.931900
C841	C84	0.048400	0.428000	0.010640
H421	H42	0.080900	0.379900	0.017900
O411	O41	0.192200	0.386600	0.950000
O421	O42	0.141500	0.474300	0.895240
C851	C85	0.068000	0.973200	0.469480
C861	C86	0.138400	0.943600	0.436150
C871	C87	0.019500	0.045700	0.459070
H431	H43	0.032500	0.076600	0.431900
C881	C88	0.048400	0.928000	0.510640
H441	H44	0.080900	0.879900	0.517900
O431	O43	0.192200	0.886600	0.450000
O441	O44	0.141500	0.974300	0.395240
C891	C89	0.568000	0.473200	0.469480
C901	C90	0.638400	0.443600	0.436150
C911	C91	0.519500	0.545700	0.459070
H451	H45	0.532500	0.576600	0.431900
C921	C92	0.548400	0.428000	0.510640
H461	H46	0.580900	0.379900	0.517900
O451	O45	0.692200	0.386600	0.450000
O461	O46	0.641500	0.474300	0.395240
C931	C93	0.568000	0.973200	0.969480
C941	C94	0.638400	0.943600	0.936150
C951	C95	0.519500	0.045700	0.959070
H471	H47	0.532500	0.076600	0.931900
C961	C96	0.548400	0.928000	0.010640
H481	H48	0.580900	0.879900	0.017900
O471	O47	0.692200	0.886600	0.950000
O481	O48	0.641500	0.974300	0.895240
C971	C97	0.068000	0.776800	0.280520
C981	C98	0.138400	0.806400	0.313850
C991	C99	0.019500	0.704300	0.290930
H491	H49	0.032500	0.673400	0.318100
C1001	C100	0.048400	0.822000	0.239360
H501	H50	0.080900	0.870100	0.232100
O491	O49	0.192200	0.863400	0.300000
O501	O50	0.141500	0.775700	0.354760
C1011	C101	0.068000	0.276800	0.780520
C1021	C102	0.138400	0.306400	0.813850
C1031	C103	0.019500	0.204300	0.790930
H511	H51	0.032500	0.173400	0.818100
C1041	C104	0.048400	0.322000	0.739360
H521	H52	0.080900	0.370100	0.732100
O511	O51	0.192200	0.363400	0.800000
O521	O52	0.141500	0.275700	0.854760
C1051	C105	0.568000	0.776800	0.780520
C1061	C106	0.638400	0.806400	0.813850
C1071	C107	0.519500	0.704300	0.790930
H531	H53	0.532500	0.673400	0.818100
C1081	C108	0.548400	0.822000	0.739360
H541	H54	0.580900	0.870100	0.732100
O531	O53	0.692200	0.863400	0.800000
O541	O54	0.641500	0.775700	0.854760
C1091	C109	0.568000	0.276800	0.280520
C1101	C110	0.638400	0.306400	0.313850
C1111	C111	0.519500	0.204300	0.290930
H551	H55	0.532500	0.173400	0.318100
C1121	C112	0.548400	0.322000	0.239360
H561	H56	0.580900	0.370100	0.232100
O551	O55	0.692200	0.363400	0.300000
O561	O56	0.641500	0.275700	0.354760
C1131	C113	0.182000	0.473200	0.280520
C1141	C114	0.111600	0.443600	0.313850
C1151	C115	0.230500	0.545700	0.290930
H571	H57	0.217500	0.576600	0.318100
C1161	C116	0.201600	0.428000	0.239360
H581	H58	0.169100	0.379900	0.232100
O571	O57	0.057800	0.386600	0.300000
O581	O58	0.108500	0.474300	0.354760
C1171	C117	0.182000	0.973200	0.780520
C1181	C118	0.111600	0.943600	0.813850
C1191	C119	0.230500	0.045700	0.790930
H591	H59	0.217500	0.076600	0.818100
C1201	C120	0.201600	0.928000	0.739360
H601	H60	0.169100	0.879900	0.732100
O591	O59	0.057800	0.886600	0.800000
O601	O60	0.108500	0.974300	0.854760
C1211	C121	0.682000	0.473200	0.780520
C1221	C122	0.611600	0.443600	0.813850
C1231	C123	0.730500	0.545700	0.790930
H611	H61	0.717500	0.576600	0.818100
C1241	C124	0.701600	0.428000	0.739360
H621	H62	0.669100	0.379900	0.732100
O611	O61	0.557800	0.386600	0.800000
O621	O62	0.608500	0.474300	0.854760
C1251	C125	0.682000	0.973200	0.280520
C1261	C126	0.611600	0.943600	0.313850
C1271	C127	0.730500	0.045700	0.290930
H631	H63	0.717500	0.076600	0.318100
C1281	C128	0.701600	0.928000	0.239360
H641	H64	0.669100	0.879900	0.232100
O631	O63	0.557800	0.886600	0.300000
O641	O64	0.608500	0.974300	0.354760
Cd11	Cd1	0.003100	0.125000	0.125000
Cd21	Cd2	0.003100	0.625000	0.625000
Cd31	Cd3	0.503100	0.125000	0.625000
Cd41	Cd4	0.746900	0.625000	0.125000
Cd51	Cd5	0.246900	0.625000	0.625000
Cd61	Cd6	0.746900	0.125000	0.625000
Cd71	Cd7	0.246900	0.125000	0.125000
Cd81	Cd8	0.503100	0.625000	0.125000
Cd91	Cd9	0.996900	0.875000	0.875000
Cd101	Cd10	0.996900	0.375000	0.375000
Cd111	Cd11	0.496900	0.875000	0.375000
Cd121	Cd12	0.253100	0.375000	0.875000
Cd131	Cd13	0.753100	0.375000	0.375000
Cd141	Cd14	0.253100	0.875000	0.375000
Cd151	Cd15	0.753100	0.875000	0.875000
Cd161	Cd16	0.496900	0.375000	0.875000
Cl11	Cl1	0.125000	0.012620	0.125000
Cl21	Cl2	0.125000	0.512620	0.625000
Cl31	Cl3	0.625000	0.012620	0.625000
Cl41	Cl4	0.625000	0.737380	0.125000
Cl51	Cl5	0.625000	0.237380	0.625000
Cl61	Cl6	0.625000	0.512620	0.125000
Cl71	Cl7	0.125000	0.737380	0.625000
Cl81	Cl8	0.125000	0.237380	0.125000
Cl91	Cl9	0.875000	0.987380	0.875000
Cl101	Cl10	0.875000	0.487380	0.375000
Cl111	Cl11	0.375000	0.987380	0.375000
Cl121	Cl12	0.375000	0.262620	0.875000
Cl131	Cl13	0.375000	0.762620	0.375000
Cl141	Cl14	0.375000	0.487380	0.875000
Cl151	Cl15	0.875000	0.262620	0.375000
Cl161	Cl16	0.875000	0.762620	0.875000
