data_TEJBOB_clean_PM
_symmetry_space_group_name_H-M	'P1'
_cell_length_a	11.084000
_cell_length_b	24.944000
_cell_length_c	23.284000
_cell_angle_alpha	90.000000
_cell_angle_beta	96.974000
_cell_angle_gamma	90.000000
_symmetry_Int_Tables_number 1

loop_
_symmetry_equiv_pos_as_xyz
'x,y,z'

loop_
_atom_site_label
_atom_site_type_symbol
_atom_site_fract_x
_atom_site_fract_y
_atom_site_fract_z
Ag11	Ag1	0.245320	0.871360	0.907300
C11	C1	0.233400	0.908500	0.779100
H11	H1	0.267700	0.938700	0.798000
C21	C2	0.205800	0.909900	0.718400
H21	H2	0.222700	0.940400	0.697800
C31	C3	0.152900	0.865300	0.689400
C41	C4	0.136000	0.819700	0.721800
H31	H3	0.103700	0.788600	0.704000
C51	C5	0.168100	0.821600	0.780700
H41	H4	0.158600	0.790300	0.801500
C61	C6	0.196800	0.054100	0.511100
H51	H5	0.222700	0.084600	0.531800
C71	C7	0.172500	0.007900	0.541000
H61	H6	0.180500	0.007900	0.581300
C81	C8	0.136800	0.962400	0.510800
C91	C9	0.125000	0.963400	0.451800
H71	H7	0.102500	0.932600	0.430700
C101	C10	0.147200	0.012200	0.422600
H81	H8	0.136100	0.013600	0.382300
C111	C11	0.882100	0.740200	0.426900
H91	H9	0.859000	0.741800	0.387200
C121	C12	0.935900	0.783800	0.455100
H101	H10	0.949400	0.814600	0.434200
C131	C13	0.970000	0.782600	0.513800
C141	C14	0.947400	0.737700	0.543100
H111	H11	0.967000	0.736000	0.583000
C151	C15	0.893500	0.693500	0.512300
H121	H12	0.879800	0.662300	0.532600
C161	C16	0.031300	0.829100	0.543600
C171	C17	0.119000	0.866800	0.627800
C181	C18	0.111200	0.912400	0.542100
N11	N1	0.211800	0.864700	0.810900
N21	N2	0.184000	0.055800	0.453300
N31	N3	0.861900	0.694500	0.456200
N41	N4	0.061600	0.823800	0.600700
N51	N5	0.148500	0.911100	0.598900
N61	N6	0.055300	0.872700	0.512800
Ag21	Ag2	0.745320	0.371360	0.907300
C191	C19	0.733400	0.408500	0.779100
H131	H13	0.767700	0.438700	0.798000
C201	C20	0.705800	0.409900	0.718400
H141	H14	0.722700	0.440400	0.697800
C211	C21	0.652900	0.365300	0.689400
C221	C22	0.636000	0.319700	0.721800
H151	H15	0.603700	0.288600	0.704000
C231	C23	0.668100	0.321600	0.780700
H161	H16	0.658600	0.290300	0.801500
C241	C24	0.696800	0.554100	0.511100
H171	H17	0.722700	0.584600	0.531800
C251	C25	0.672500	0.507900	0.541000
H181	H18	0.680500	0.507900	0.581300
C261	C26	0.636800	0.462400	0.510800
C271	C27	0.625000	0.463400	0.451800
H191	H19	0.602500	0.432600	0.430700
C281	C28	0.647200	0.512200	0.422600
H201	H20	0.636100	0.513600	0.382300
C291	C29	0.382100	0.240200	0.426900
H211	H21	0.359000	0.241800	0.387200
C301	C30	0.435900	0.283800	0.455100
H221	H22	0.449400	0.314600	0.434200
C311	C31	0.470000	0.282600	0.513800
C321	C32	0.447400	0.237700	0.543100
H231	H23	0.467000	0.236000	0.583000
C331	C33	0.393500	0.193500	0.512300
H241	H24	0.379800	0.162300	0.532600
C341	C34	0.531300	0.329100	0.543600
C351	C35	0.619000	0.366800	0.627800
C361	C36	0.611200	0.412400	0.542100
N71	N7	0.711800	0.364700	0.810900
N81	N8	0.684000	0.555800	0.453300
N91	N9	0.361900	0.194500	0.456200
N101	N10	0.561600	0.323800	0.600700
N111	N11	0.648500	0.411100	0.598900
N121	N12	0.555300	0.372700	0.512800
Ag31	Ag3	0.245320	0.128640	0.407300
C371	C37	0.233400	0.091500	0.279100
H251	H25	0.267700	0.061300	0.298000
C381	C38	0.205800	0.090100	0.218400
H261	H26	0.222700	0.059600	0.197800
C391	C39	0.152900	0.134700	0.189400
C401	C40	0.136000	0.180300	0.221800
H271	H27	0.103700	0.211400	0.204000
C411	C41	0.168100	0.178400	0.280700
H281	H28	0.158600	0.209700	0.301500
C421	C42	0.196800	0.945900	0.011100
H291	H29	0.222700	0.915400	0.031800
C431	C43	0.172500	0.992100	0.041000
H301	H30	0.180500	0.992100	0.081300
C441	C44	0.136800	0.037600	0.010800
C451	C45	0.125000	0.036600	0.951800
H311	H31	0.102500	0.067400	0.930700
C461	C46	0.147200	0.987800	0.922600
H321	H32	0.136100	0.986400	0.882300
C471	C47	0.882100	0.259800	0.926900
H331	H33	0.859000	0.258200	0.887200
C481	C48	0.935900	0.216200	0.955100
H341	H34	0.949400	0.185400	0.934200
C491	C49	0.970000	0.217400	0.013800
C501	C50	0.947400	0.262300	0.043100
H351	H35	0.967000	0.264000	0.083000
C511	C51	0.893500	0.306500	0.012300
H361	H36	0.879800	0.337700	0.032600
C521	C52	0.031300	0.170900	0.043600
C531	C53	0.119000	0.133200	0.127800
C541	C54	0.111200	0.087600	0.042100
N131	N13	0.211800	0.135300	0.310900
N141	N14	0.184000	0.944200	0.953300
N151	N15	0.861900	0.305500	0.956200
N161	N16	0.061600	0.176200	0.100700
N171	N17	0.148500	0.088900	0.098900
N181	N18	0.055300	0.127300	0.012800
Ag41	Ag4	0.745320	0.628640	0.407300
C551	C55	0.733400	0.591500	0.279100
H371	H37	0.767700	0.561300	0.298000
C561	C56	0.705800	0.590100	0.218400
H381	H38	0.722700	0.559600	0.197800
C571	C57	0.652900	0.634700	0.189400
C581	C58	0.636000	0.680300	0.221800
H391	H39	0.603700	0.711400	0.204000
C591	C59	0.668100	0.678400	0.280700
H401	H40	0.658600	0.709700	0.301500
C601	C60	0.696800	0.445900	0.011100
H411	H41	0.722700	0.415400	0.031800
C611	C61	0.672500	0.492100	0.041000
H421	H42	0.680500	0.492100	0.081300
C621	C62	0.636800	0.537600	0.010800
C631	C63	0.625000	0.536600	0.951800
H431	H43	0.602500	0.567400	0.930700
C641	C64	0.647200	0.487800	0.922600
H441	H44	0.636100	0.486400	0.882300
C651	C65	0.382100	0.759800	0.926900
H451	H45	0.359000	0.758200	0.887200
C661	C66	0.435900	0.716200	0.955100
H461	H46	0.449400	0.685400	0.934200
C671	C67	0.470000	0.717400	0.013800
C681	C68	0.447400	0.762300	0.043100
H471	H47	0.467000	0.764000	0.083000
C691	C69	0.393500	0.806500	0.012300
H481	H48	0.379800	0.837700	0.032600
C701	C70	0.531300	0.670900	0.043600
C711	C71	0.619000	0.633200	0.127800
C721	C72	0.611200	0.587600	0.042100
N191	N19	0.711800	0.635300	0.310900
N201	N20	0.684000	0.444200	0.953300
N211	N21	0.361900	0.805500	0.956200
N221	N22	0.561600	0.676200	0.100700
N231	N23	0.648500	0.588900	0.098900
N241	N24	0.555300	0.627300	0.012800
Ag51	Ag5	0.916180	0.861860	0.886510
C731	C73	0.885500	0.909600	0.760300
H491	H49	0.919500	0.939000	0.780800
C741	C74	0.856000	0.915300	0.701600
H501	H50	0.865500	0.948000	0.683500
C751	C75	0.811600	0.870700	0.670200
C761	C76	0.799300	0.823700	0.700600
H511	H51	0.769500	0.793000	0.681000
C771	C77	0.829900	0.822100	0.757800
H521	H52	0.823600	0.789500	0.776400
C781	C78	0.884900	0.060600	0.492700
H531	H53	0.918900	0.089900	0.513500
C791	C79	0.858000	0.013600	0.522900
H541	H54	0.872600	0.012300	0.563000
C801	C80	0.810100	0.970000	0.492200
C811	C81	0.788700	0.973200	0.433400
H551	H55	0.754300	0.944400	0.411900
C821	C82	0.818700	0.019700	0.406100
H561	H56	0.808100	0.020600	0.365900
C831	C83	0.537800	0.752100	0.405100
H571	H57	0.511200	0.754700	0.365700
C841	C84	0.595500	0.795600	0.432900
H581	H58	0.607500	0.826500	0.412000
C851	C85	0.634700	0.793700	0.490100
C861	C86	0.614400	0.745700	0.518900
H591	H59	0.639200	0.742000	0.558300
C871	C87	0.556200	0.703800	0.487000
H601	H60	0.543600	0.672000	0.506200
C881	C88	0.696900	0.838300	0.522900
C891	C89	0.781900	0.874400	0.607300
C901	C90	0.781000	0.921000	0.522900
N251	N25	0.869200	0.864800	0.790300
N261	N26	0.862800	0.063800	0.435100
N271	N27	0.518900	0.706500	0.432400
N281	N28	0.721800	0.833200	0.579200
N291	N29	0.814000	0.919300	0.580300
N301	N30	0.725100	0.881500	0.491800
Ag61	Ag6	0.416180	0.361860	0.886510
C911	C91	0.385500	0.409600	0.760300
H611	H61	0.419500	0.439000	0.780800
C921	C92	0.356000	0.415300	0.701600
H621	H62	0.365500	0.448000	0.683500
C931	C93	0.311600	0.370700	0.670200
C941	C94	0.299300	0.323700	0.700600
H631	H63	0.269500	0.293000	0.681000
C951	C95	0.329900	0.322100	0.757800
H641	H64	0.323600	0.289500	0.776400
C961	C96	0.384900	0.560600	0.492700
H651	H65	0.418900	0.589900	0.513500
C971	C97	0.358000	0.513600	0.522900
H661	H66	0.372600	0.512300	0.563000
C981	C98	0.310100	0.470000	0.492200
C991	C99	0.288700	0.473200	0.433400
H671	H67	0.254300	0.444400	0.411900
C1001	C100	0.318700	0.519700	0.406100
H681	H68	0.308100	0.520600	0.365900
C1011	C101	0.037800	0.252100	0.405100
H691	H69	0.011200	0.254700	0.365700
C1021	C102	0.095500	0.295600	0.432900
H701	H70	0.107500	0.326500	0.412000
C1031	C103	0.134700	0.293700	0.490100
C1041	C104	0.114400	0.245700	0.518900
H711	H71	0.139200	0.242000	0.558300
C1051	C105	0.056200	0.203800	0.487000
H721	H72	0.043600	0.172000	0.506200
C1061	C106	0.196900	0.338300	0.522900
C1071	C107	0.281900	0.374400	0.607300
C1081	C108	0.281000	0.421000	0.522900
N311	N31	0.369200	0.364800	0.790300
N321	N32	0.362800	0.563800	0.435100
N331	N33	0.018900	0.206500	0.432400
N341	N34	0.221800	0.333200	0.579200
N351	N35	0.314000	0.419300	0.580300
N361	N36	0.225100	0.381500	0.491800
Ag71	Ag7	0.916180	0.138140	0.386510
C1091	C109	0.885500	0.090400	0.260300
H731	H73	0.919500	0.061000	0.280800
C1101	C110	0.856000	0.084700	0.201600
H741	H74	0.865500	0.052000	0.183500
C1111	C111	0.811600	0.129300	0.170200
C1121	C112	0.799300	0.176300	0.200600
H751	H75	0.769500	0.207000	0.181000
C1131	C113	0.829900	0.177900	0.257800
H761	H76	0.823600	0.210500	0.276400
C1141	C114	0.884900	0.939400	0.992700
H771	H77	0.918900	0.910100	0.013500
C1151	C115	0.858000	0.986400	0.022900
H781	H78	0.872600	0.987700	0.063000
C1161	C116	0.810100	0.030000	0.992200
C1171	C117	0.788700	0.026800	0.933400
H791	H79	0.754300	0.055600	0.911900
C1181	C118	0.818700	0.980300	0.906100
H801	H80	0.808100	0.979400	0.865900
C1191	C119	0.537800	0.247900	0.905100
H811	H81	0.511200	0.245300	0.865700
C1201	C120	0.595500	0.204400	0.932900
H821	H82	0.607500	0.173500	0.912000
C1211	C121	0.634700	0.206300	0.990100
C1221	C122	0.614400	0.254300	0.018900
H831	H83	0.639200	0.258000	0.058300
C1231	C123	0.556200	0.296200	0.987000
H841	H84	0.543600	0.328000	0.006200
C1241	C124	0.696900	0.161700	0.022900
C1251	C125	0.781900	0.125600	0.107300
C1261	C126	0.781000	0.079000	0.022900
N371	N37	0.869200	0.135200	0.290300
N381	N38	0.862800	0.936200	0.935100
N391	N39	0.518900	0.293500	0.932400
N401	N40	0.721800	0.166800	0.079200
N411	N41	0.814000	0.080700	0.080300
N421	N42	0.725100	0.118500	0.991800
Ag81	Ag8	0.416180	0.638140	0.386510
C1271	C127	0.385500	0.590400	0.260300
H851	H85	0.419500	0.561000	0.280800
C1281	C128	0.356000	0.584700	0.201600
H861	H86	0.365500	0.552000	0.183500
C1291	C129	0.311600	0.629300	0.170200
C1301	C130	0.299300	0.676300	0.200600
H871	H87	0.269500	0.707000	0.181000
C1311	C131	0.329900	0.677900	0.257800
H881	H88	0.323600	0.710500	0.276400
C1321	C132	0.384900	0.439400	0.992700
H891	H89	0.418900	0.410100	0.013500
C1331	C133	0.358000	0.486400	0.022900
H901	H90	0.372600	0.487700	0.063000
C1341	C134	0.310100	0.530000	0.992200
C1351	C135	0.288700	0.526800	0.933400
H911	H91	0.254300	0.555600	0.911900
C1361	C136	0.318700	0.480300	0.906100
H921	H92	0.308100	0.479400	0.865900
C1371	C137	0.037800	0.747900	0.905100
H931	H93	0.011200	0.745300	0.865700
C1381	C138	0.095500	0.704400	0.932900
H941	H94	0.107500	0.673500	0.912000
C1391	C139	0.134700	0.706300	0.990100
C1401	C140	0.114400	0.754300	0.018900
H951	H95	0.139200	0.758000	0.058300
C1411	C141	0.056200	0.796200	0.987000
H961	H96	0.043600	0.828000	0.006200
C1421	C142	0.196900	0.661700	0.022900
C1431	C143	0.281900	0.625600	0.107300
C1441	C144	0.281000	0.579000	0.022900
N431	N43	0.369200	0.635200	0.290300
N441	N44	0.362800	0.436200	0.935100
N451	N45	0.018900	0.793500	0.932400
N461	N46	0.221800	0.666800	0.079200
N471	N47	0.314000	0.580700	0.080300
N481	N48	0.225100	0.618500	0.991800
Ag91	Ag9	0.619410	0.863250	0.943740
C1451	C145	0.535800	0.824400	0.816600
H971	H97	0.533600	0.792100	0.836500
C1461	C146	0.510800	0.823300	0.758100
H981	H98	0.493100	0.791100	0.738700
C1471	C147	0.512400	0.871800	0.727300
C1481	C148	0.541800	0.917400	0.757300
H991	H99	0.543900	0.950000	0.738200
C1491	C149	0.568700	0.914600	0.817400
H1001	H100	0.591600	0.945800	0.837800
C1501	C150	0.594500	0.058600	0.550400
H1011	H101	0.637400	0.085800	0.571000
C1511	C151	0.568700	0.012100	0.579400
H1021	H102	0.590000	0.009100	0.619100
C1521	C152	0.512700	0.971700	0.549100
C1531	C153	0.478600	0.975800	0.491100
H1031	H103	0.441400	0.947700	0.469600
C1541	C154	0.502700	0.025000	0.465800
H1041	H104	0.477100	0.029800	0.426600
C1551	C155	0.240600	0.749600	0.460500
H1051	H105	0.213400	0.751700	0.421200
C1561	C156	0.302000	0.794500	0.488300
H1061	H106	0.320000	0.824300	0.466800
C1571	C157	0.335100	0.793300	0.549000
C1581	C158	0.310500	0.746500	0.577400
H1071	H107	0.332400	0.742900	0.617000
C1591	C159	0.251600	0.704800	0.544900
H1081	H108	0.232600	0.674300	0.564900
C1601	C160	0.397200	0.838200	0.579500
C1611	C161	0.485300	0.873200	0.663900
C1621	C162	0.483100	0.919200	0.580300
N491	N49	0.562800	0.868100	0.847000
N501	N50	0.560700	0.065400	0.495200
N511	N51	0.221000	0.705000	0.488600
N521	N52	0.425300	0.832300	0.636100
N531	N53	0.518800	0.917100	0.636700
N541	N54	0.422500	0.881400	0.548600
Ag101	Ag10	0.119410	0.363250	0.943740
C1631	C163	0.035800	0.324400	0.816600
H1091	H109	0.033600	0.292100	0.836500
C1641	C164	0.010800	0.323300	0.758100
H1101	H110	0.993100	0.291100	0.738700
C1651	C165	0.012400	0.371800	0.727300
C1661	C166	0.041800	0.417400	0.757300
H1111	H111	0.043900	0.450000	0.738200
C1671	C167	0.068700	0.414600	0.817400
H1121	H112	0.091600	0.445800	0.837800
C1681	C168	0.094500	0.558600	0.550400
H1131	H113	0.137400	0.585800	0.571000
C1691	C169	0.068700	0.512100	0.579400
H1141	H114	0.090000	0.509100	0.619100
C1701	C170	0.012700	0.471700	0.549100
C1711	C171	0.978600	0.475800	0.491100
H1151	H115	0.941400	0.447700	0.469600
C1721	C172	0.002700	0.525000	0.465800
H1161	H116	0.977100	0.529800	0.426600
C1731	C173	0.740600	0.249600	0.460500
H1171	H117	0.713400	0.251700	0.421200
C1741	C174	0.802000	0.294500	0.488300
H1181	H118	0.820000	0.324300	0.466800
C1751	C175	0.835100	0.293300	0.549000
C1761	C176	0.810500	0.246500	0.577400
H1191	H119	0.832400	0.242900	0.617000
C1771	C177	0.751600	0.204800	0.544900
H1201	H120	0.732600	0.174300	0.564900
C1781	C178	0.897200	0.338200	0.579500
C1791	C179	0.985300	0.373200	0.663900
C1801	C180	0.983100	0.419200	0.580300
N551	N55	0.062800	0.368100	0.847000
N561	N56	0.060700	0.565400	0.495200
N571	N57	0.721000	0.205000	0.488600
N581	N58	0.925300	0.332300	0.636100
N591	N59	0.018800	0.417100	0.636700
N601	N60	0.922500	0.381400	0.548600
Ag111	Ag11	0.619410	0.136750	0.443740
C1811	C181	0.535800	0.175600	0.316600
H1211	H121	0.533600	0.207900	0.336500
C1821	C182	0.510800	0.176700	0.258100
H1221	H122	0.493100	0.208900	0.238700
C1831	C183	0.512400	0.128200	0.227300
C1841	C184	0.541800	0.082600	0.257300
H1231	H123	0.543900	0.050000	0.238200
C1851	C185	0.568700	0.085400	0.317400
H1241	H124	0.591600	0.054200	0.337800
C1861	C186	0.594500	0.941400	0.050400
H1251	H125	0.637400	0.914200	0.071000
C1871	C187	0.568700	0.987900	0.079400
H1261	H126	0.590000	0.990900	0.119100
C1881	C188	0.512700	0.028300	0.049100
C1891	C189	0.478600	0.024200	0.991100
H1271	H127	0.441400	0.052300	0.969600
C1901	C190	0.502700	0.975000	0.965800
H1281	H128	0.477100	0.970200	0.926600
C1911	C191	0.240600	0.250400	0.960500
H1291	H129	0.213400	0.248300	0.921200
C1921	C192	0.302000	0.205500	0.988300
H1301	H130	0.320000	0.175700	0.966800
C1931	C193	0.335100	0.206700	0.049000
C1941	C194	0.310500	0.253500	0.077400
H1311	H131	0.332400	0.257100	0.117000
C1951	C195	0.251600	0.295200	0.044900
H1321	H132	0.232600	0.325700	0.064900
C1961	C196	0.397200	0.161800	0.079500
C1971	C197	0.485300	0.126800	0.163900
C1981	C198	0.483100	0.080800	0.080300
N611	N61	0.562800	0.131900	0.347000
N621	N62	0.560700	0.934600	0.995200
N631	N63	0.221000	0.295000	0.988600
N641	N64	0.425300	0.167700	0.136100
N651	N65	0.518800	0.082900	0.136700
N661	N66	0.422500	0.118600	0.048600
Ag121	Ag12	0.119410	0.636750	0.443740
C1991	C199	0.035800	0.675600	0.316600
H1331	H133	0.033600	0.707900	0.336500
C2001	C200	0.010800	0.676700	0.258100
H1341	H134	0.993100	0.708900	0.238700
C2011	C201	0.012400	0.628200	0.227300
C2021	C202	0.041800	0.582600	0.257300
H1351	H135	0.043900	0.550000	0.238200
C2031	C203	0.068700	0.585400	0.317400
H1361	H136	0.091600	0.554200	0.337800
C2041	C204	0.094500	0.441400	0.050400
H1371	H137	0.137400	0.414200	0.071000
C2051	C205	0.068700	0.487900	0.079400
H1381	H138	0.090000	0.490900	0.119100
C2061	C206	0.012700	0.528300	0.049100
C2071	C207	0.978600	0.524200	0.991100
H1391	H139	0.941400	0.552300	0.969600
C2081	C208	0.002700	0.475000	0.965800
H1401	H140	0.977100	0.470200	0.926600
C2091	C209	0.740600	0.750400	0.960500
H1411	H141	0.713400	0.748300	0.921200
C2101	C210	0.802000	0.705500	0.988300
H1421	H142	0.820000	0.675700	0.966800
C2111	C211	0.835100	0.706700	0.049000
C2121	C212	0.810500	0.753500	0.077400
H1431	H143	0.832400	0.757100	0.117000
C2131	C213	0.751600	0.795200	0.044900
H1441	H144	0.732600	0.825700	0.064900
C2141	C214	0.897200	0.661800	0.079500
C2151	C215	0.985300	0.626800	0.163900
C2161	C216	0.983100	0.580800	0.080300
N671	N67	0.062800	0.631900	0.347000
N681	N68	0.060700	0.434600	0.995200
N691	N69	0.721000	0.795000	0.988600
N701	N70	0.925300	0.667700	0.136100
N711	N71	0.018800	0.582900	0.136700
N721	N72	0.922500	0.618600	0.048600
