data_TENQOS_clean_PM
_symmetry_space_group_name_H-M	'P1'
_cell_length_a	13.172000
_cell_length_b	19.849000
_cell_length_c	20.912000
_cell_angle_alpha	90.000000
_cell_angle_beta	102.060000
_cell_angle_gamma	90.000000
_symmetry_Int_Tables_number 1

loop_
_symmetry_equiv_pos_as_xyz
'x,y,z'

loop_
_atom_site_label
_atom_site_type_symbol
_atom_site_fract_x
_atom_site_fract_y
_atom_site_fract_z
Cu11	Cu1	0.068300	0.423400	0.620900
Cu21	Cu2	0.119100	0.369300	0.738100
Cu31	Cu3	0.999400	0.268500	0.678000
Cu41	Cu4	0.903400	0.342900	0.577500
Cu51	Cu5	0.574700	0.222800	0.800100
O11	O1	0.234000	0.342000	0.707000
O21	O2	0.972000	0.287000	0.534000
O31	O3	0.961000	0.480000	0.634000
O41	O4	0.923000	0.296000	0.738000
N11	N1	0.465000	0.244000	0.734000
N21	N2	0.190000	0.380000	0.602000
N31	N3	0.560000	0.252000	0.893000
N41	N4	0.067000	0.226000	0.615000
N51	N5	0.611000	0.129000	0.804000
N61	N6	0.830000	0.399000	0.619000
N71	N7	0.695000	0.284000	0.791000
N81	N8	0.006000	0.397000	0.771000
C11	C1	0.250000	0.346000	0.647000
C21	C2	0.337000	0.312000	0.632000
C31	C3	0.356000	0.308000	0.572000
C41	C4	0.286000	0.347000	0.528000
C51	C5	0.206000	0.381000	0.544000
C61	C6	0.408000	0.272000	0.689000
C71	C7	0.126000	0.413000	0.488000
C81	C8	0.042000	0.243000	0.552000
C91	C9	0.092000	0.209000	0.508000
C101	C10	0.175000	0.165000	0.538000
C111	C11	0.194000	0.148000	0.599000
C121	C12	0.147000	0.183000	0.637000
C131	C13	0.573000	0.269000	0.943000
C141	C14	0.178000	0.163000	0.710000
C151	C15	0.871000	0.458000	0.638000
C161	C16	0.817000	0.512000	0.669000
C171	C17	0.709000	0.492000	0.674000
C181	C18	0.672000	0.425000	0.653000
C191	C19	0.737000	0.382000	0.628000
C201	C20	0.644000	0.076000	0.816000
C211	C21	0.686000	0.318000	0.610000
C221	C22	0.932000	0.354000	0.768000
C231	C23	0.849000	0.364000	0.797000
C241	C24	0.844000	0.422000	0.833000
C251	C25	0.924000	0.479000	0.832000
C261	C26	0.006000	0.453000	0.801000
C271	C27	0.764000	0.318000	0.795000
C281	C28	0.088000	0.505000	0.800000
H11	H1	0.218700	0.148000	0.510800
H21	H2	0.239500	0.111300	0.614500
H31	H3	0.410800	0.282900	0.560700
H41	H4	0.294700	0.349100	0.484600
H51	H5	0.666100	0.522000	0.691700
H61	H6	0.604200	0.411600	0.655100
H71	H7	0.791400	0.427300	0.857800
H81	H8	0.921300	0.523100	0.849100
H91	H9	0.117500	0.458800	0.497900
H101	H10	0.149500	0.408900	0.448500
H111	H11	0.061800	0.389800	0.484500
H121	H12	0.159400	0.117000	0.714600
H131	H13	0.250300	0.168300	0.725100
H141	H14	0.141700	0.190600	0.734900
H151	H15	0.667700	0.298300	0.646600
H161	H16	0.625800	0.325700	0.576600
H171	H17	0.732500	0.289500	0.593100
H181	H18	0.154300	0.486200	0.818500
H191	H19	0.086400	0.517700	0.756100
H201	H20	0.075900	0.542900	0.824600
Cu61	Cu6	0.431700	0.923400	0.879100
Cu71	Cu7	0.380900	0.869300	0.761900
Cu81	Cu8	0.500600	0.768500	0.822000
Cu91	Cu9	0.596600	0.842900	0.922500
Cu101	Cu10	0.925300	0.722800	0.699900
O51	O5	0.266000	0.842000	0.793000
O61	O6	0.528000	0.787000	0.966000
O71	O7	0.539000	0.980000	0.866000
O81	O8	0.577000	0.796000	0.762000
N91	N9	0.035000	0.744000	0.766000
N101	N10	0.310000	0.880000	0.898000
N111	N11	0.940000	0.752000	0.607000
N121	N12	0.433000	0.726000	0.885000
N131	N13	0.889000	0.629000	0.696000
N141	N14	0.670000	0.899000	0.881000
N151	N15	0.805000	0.784000	0.709000
N161	N16	0.494000	0.897000	0.729000
C291	C29	0.250000	0.846000	0.853000
C301	C30	0.163000	0.812000	0.868000
C311	C31	0.144000	0.808000	0.928000
C321	C32	0.214000	0.847000	0.972000
C331	C33	0.294000	0.881000	0.956000
C341	C34	0.092000	0.772000	0.811000
C351	C35	0.374000	0.913000	0.012000
C361	C36	0.458000	0.743000	0.948000
C371	C37	0.408000	0.709000	0.992000
C381	C38	0.325000	0.665000	0.962000
C391	C39	0.306000	0.648000	0.901000
C401	C40	0.353000	0.683000	0.863000
C411	C41	0.927000	0.769000	0.557000
C421	C42	0.322000	0.663000	0.790000
C431	C43	0.629000	0.958000	0.862000
C441	C44	0.683000	0.012000	0.831000
C451	C45	0.791000	0.992000	0.826000
C461	C46	0.828000	0.925000	0.847000
C471	C47	0.763000	0.882000	0.872000
C481	C48	0.856000	0.576000	0.684000
C491	C49	0.814000	0.818000	0.890000
C501	C50	0.568000	0.854000	0.732000
C511	C51	0.651000	0.864000	0.703000
C521	C52	0.656000	0.922000	0.667000
C531	C53	0.576000	0.979000	0.668000
C541	C54	0.494000	0.953000	0.699000
C551	C55	0.736000	0.818000	0.705000
C561	C56	0.412000	0.005000	0.700000
H211	H21	0.281300	0.648000	0.989200
H221	H22	0.260500	0.611300	0.885500
H231	H23	0.089200	0.782900	0.939300
H241	H24	0.205300	0.849100	0.015400
H251	H25	0.833900	0.022000	0.808300
H261	H26	0.895800	0.911600	0.844900
H271	H27	0.708600	0.927300	0.642200
H281	H28	0.578700	0.023100	0.650900
H291	H29	0.382500	0.958800	0.002100
H301	H30	0.350500	0.908900	0.051500
H311	H31	0.438200	0.889800	0.015500
H321	H32	0.340600	0.617000	0.785400
H331	H33	0.249700	0.668300	0.774900
H341	H34	0.358300	0.690600	0.765100
H351	H35	0.832300	0.798300	0.853400
H361	H36	0.874200	0.825700	0.923400
H371	H37	0.767500	0.789500	0.906900
H381	H38	0.345700	0.986200	0.681500
H391	H39	0.413600	0.017700	0.743900
H401	H40	0.424100	0.042900	0.675400
Cu111	Cu11	0.931700	0.576600	0.379100
Cu121	Cu12	0.880900	0.630700	0.261900
Cu131	Cu13	0.000600	0.731500	0.322000
Cu141	Cu14	0.096600	0.657100	0.422500
Cu151	Cu15	0.425300	0.777200	0.199900
O91	O9	0.766000	0.658000	0.293000
O101	O10	0.028000	0.713000	0.466000
O111	O11	0.039000	0.520000	0.366000
O121	O12	0.077000	0.704000	0.262000
N171	N17	0.535000	0.756000	0.266000
N181	N18	0.810000	0.620000	0.398000
N191	N19	0.440000	0.748000	0.107000
N201	N20	0.933000	0.774000	0.385000
N211	N21	0.389000	0.871000	0.196000
N221	N22	0.170000	0.601000	0.381000
N231	N23	0.305000	0.716000	0.209000
N241	N24	0.994000	0.603000	0.229000
C571	C57	0.750000	0.654000	0.353000
C581	C58	0.663000	0.688000	0.368000
C591	C59	0.644000	0.692000	0.428000
C601	C60	0.714000	0.653000	0.472000
C611	C61	0.794000	0.619000	0.456000
C621	C62	0.592000	0.728000	0.311000
C631	C63	0.874000	0.587000	0.512000
C641	C64	0.958000	0.757000	0.448000
C651	C65	0.908000	0.791000	0.492000
C661	C66	0.825000	0.835000	0.462000
C671	C67	0.806000	0.852000	0.401000
C681	C68	0.853000	0.817000	0.363000
C691	C69	0.427000	0.731000	0.057000
C701	C70	0.822000	0.837000	0.290000
C711	C71	0.129000	0.542000	0.362000
C721	C72	0.183000	0.488000	0.331000
C731	C73	0.291000	0.508000	0.326000
C741	C74	0.328000	0.575000	0.347000
C751	C75	0.263000	0.618000	0.372000
C761	C76	0.356000	0.924000	0.184000
C771	C77	0.314000	0.682000	0.390000
C781	C78	0.068000	0.646000	0.232000
C791	C79	0.151000	0.636000	0.203000
C801	C80	0.156000	0.578000	0.167000
C811	C81	0.076000	0.521000	0.168000
C821	C82	0.994000	0.547000	0.199000
C831	C83	0.236000	0.682000	0.205000
C841	C84	0.912000	0.495000	0.200000
H411	H41	0.781300	0.852000	0.489200
H421	H42	0.760500	0.888700	0.385500
H431	H43	0.589200	0.717100	0.439300
H441	H44	0.705300	0.650900	0.515400
H451	H45	0.333900	0.478000	0.308300
H461	H46	0.395800	0.588400	0.344900
H471	H47	0.208600	0.572700	0.142200
H481	H48	0.078700	0.476900	0.150900
H491	H49	0.882500	0.541200	0.502100
H501	H50	0.850500	0.591100	0.551500
H511	H51	0.938200	0.610200	0.515500
H521	H52	0.840600	0.883000	0.285400
H531	H53	0.749700	0.831700	0.274900
H541	H54	0.858300	0.809400	0.265100
H551	H55	0.332300	0.701700	0.353400
H561	H56	0.374200	0.674300	0.423400
H571	H57	0.267500	0.710500	0.406900
H581	H58	0.845700	0.513800	0.181500
H591	H59	0.913600	0.482300	0.243900
H601	H60	0.924100	0.457100	0.175400
Cu161	Cu16	0.568300	0.076600	0.120900
Cu171	Cu17	0.619100	0.130700	0.238100
Cu181	Cu18	0.499400	0.231500	0.178000
Cu191	Cu19	0.403400	0.157100	0.077500
Cu201	Cu20	0.074700	0.277200	0.300100
O131	O13	0.734000	0.158000	0.207000
O141	O14	0.472000	0.213000	0.034000
O151	O15	0.461000	0.020000	0.134000
O161	O16	0.423000	0.204000	0.238000
N251	N25	0.965000	0.256000	0.234000
N261	N26	0.690000	0.120000	0.102000
N271	N27	0.060000	0.248000	0.393000
N281	N28	0.567000	0.274000	0.115000
N291	N29	0.111000	0.371000	0.304000
N301	N30	0.330000	0.101000	0.119000
N311	N31	0.195000	0.216000	0.291000
N321	N32	0.506000	0.103000	0.271000
C851	C85	0.750000	0.154000	0.147000
C861	C86	0.837000	0.188000	0.132000
C871	C87	0.856000	0.192000	0.072000
C881	C88	0.786000	0.153000	0.028000
C891	C89	0.706000	0.119000	0.044000
C901	C90	0.908000	0.228000	0.189000
C911	C91	0.626000	0.087000	0.988000
C921	C92	0.542000	0.257000	0.052000
C931	C93	0.592000	0.291000	0.008000
C941	C94	0.675000	0.335000	0.038000
C951	C95	0.694000	0.352000	0.099000
C961	C96	0.647000	0.317000	0.137000
C971	C97	0.073000	0.231000	0.443000
C981	C98	0.678000	0.337000	0.210000
C991	C99	0.371000	0.042000	0.138000
C1001	C100	0.317000	0.988000	0.169000
C1011	C101	0.209000	0.008000	0.174000
C1021	C102	0.172000	0.075000	0.153000
C1031	C103	0.237000	0.118000	0.128000
C1041	C104	0.144000	0.424000	0.316000
C1051	C105	0.186000	0.182000	0.110000
C1061	C106	0.432000	0.146000	0.268000
C1071	C107	0.349000	0.136000	0.297000
C1081	C108	0.344000	0.078000	0.333000
C1091	C109	0.424000	0.021000	0.332000
C1101	C110	0.506000	0.047000	0.301000
C1111	C111	0.264000	0.182000	0.295000
C1121	C112	0.588000	0.995000	0.300000
H611	H61	0.718700	0.352000	0.010800
H621	H62	0.739500	0.388700	0.114500
H631	H63	0.910800	0.217100	0.060700
H641	H64	0.794700	0.150900	0.984600
H651	H65	0.166100	0.978000	0.191700
H661	H66	0.104200	0.088400	0.155100
H671	H67	0.291400	0.072700	0.357800
H681	H68	0.421300	0.976900	0.349100
H691	H69	0.617500	0.041200	0.997900
H701	H70	0.649500	0.091100	0.948500
H711	H71	0.561800	0.110200	0.984500
H721	H72	0.659400	0.383000	0.214600
H731	H73	0.750300	0.331700	0.225100
H741	H74	0.641700	0.309400	0.234900
H751	H75	0.167700	0.201700	0.146600
H761	H76	0.125800	0.174300	0.076600
H771	H77	0.232500	0.210500	0.093100
H781	H78	0.654300	0.013800	0.318500
H791	H79	0.586400	0.982300	0.256100
H801	H80	0.575900	0.957100	0.324600
