data_TEQPAI_clean_PM
_symmetry_space_group_name_H-M	'P1'
_cell_length_a	14.489000
_cell_length_b	18.115000
_cell_length_c	22.113000
_cell_angle_alpha	90.000000
_cell_angle_beta	90.000000
_cell_angle_gamma	90.000000
_symmetry_Int_Tables_number 1

loop_
_symmetry_equiv_pos_as_xyz
'x,y,z'

loop_
_atom_site_label
_atom_site_type_symbol
_atom_site_fract_x
_atom_site_fract_y
_atom_site_fract_z
Zn11	Zn1	0.492170	0.329990	0.750680
Zn21	Zn2	0.655680	0.252830	0.829180
Zn31	Zn3	0.640660	0.237100	0.684190
Zn41	Zn4	0.495120	0.155430	0.774570
Zn51	Zn5	0.507830	0.670010	0.250680
Zn61	Zn6	0.344320	0.747170	0.329180
Zn71	Zn7	0.359340	0.762900	0.184190
Zn81	Zn8	0.504880	0.844570	0.274570
H11	H1	0.127900	0.151600	0.843400
H21	H2	0.214800	0.201900	0.852700
H31	H3	0.223100	0.128400	0.815600
H41	H4	0.581300	0.321200	0.979200
H51	H5	0.528000	0.328000	0.040700
H61	H6	0.616400	0.375900	0.029200
H71	H7	0.530400	0.406100	0.115800
H81	H8	0.458300	0.439100	0.161200
H91	H9	0.554400	0.477500	0.152700
H101	H10	0.328100	0.045400	0.965400
H111	H11	0.377100	0.059400	0.903300
H121	H12	0.341800	0.126300	0.941800
H131	H13	0.022100	0.154900	0.839200
H141	H14	0.930000	0.122700	0.812900
H151	H15	0.929500	0.198500	0.847200
H161	H16	0.300700	0.925400	0.069500
H171	H17	0.319700	0.944900	0.001600
H181	H18	0.284800	0.006100	0.046100
H191	H19	0.872100	0.848400	0.343400
H201	H20	0.785200	0.798100	0.352700
H211	H21	0.776900	0.871600	0.315600
H221	H22	0.418700	0.678800	0.479200
H231	H23	0.472000	0.672000	0.540700
H241	H24	0.383600	0.624100	0.529200
H251	H25	0.469600	0.593900	0.615800
H261	H26	0.541700	0.560900	0.661200
H271	H27	0.445600	0.522500	0.652700
H281	H28	0.671900	0.954600	0.465400
H291	H29	0.622900	0.940600	0.403300
H301	H30	0.658200	0.873700	0.441800
H311	H31	0.977900	0.845100	0.339200
H321	H32	0.070000	0.877300	0.312900
H331	H33	0.070500	0.801500	0.347200
H341	H34	0.699300	0.074600	0.569500
H351	H35	0.680300	0.055100	0.501600
H361	H36	0.715200	0.993900	0.546100
C11	C1	0.331200	0.254300	0.743000
C21	C2	0.227400	0.247500	0.733900
C31	C3	0.161900	0.208400	0.771200
C41	C4	0.183700	0.169400	0.825100
C51	C5	0.513000	0.377800	0.869400
C61	C6	0.482600	0.421600	0.922800
C71	C7	0.504400	0.414000	0.984600
C81	C8	0.466400	0.473000	0.020200
C91	C9	0.419200	0.523100	0.984800
C101	C10	0.465900	0.498400	0.082100
C111	C11	0.425700	0.564300	0.089000
C121	C12	0.562700	0.354500	0.010700
C131	C13	0.506000	0.450900	0.132600
C141	C14	0.557900	0.164600	0.905900
C151	C15	0.535400	0.120400	0.961700
C161	C16	0.458500	0.081600	0.974600
C171	C17	0.368500	0.077900	0.943600
C181	C18	0.814100	0.222800	0.730800
C191	C19	0.913400	0.230000	0.725600
C201	C20	0.980400	0.204100	0.765900
C211	C21	0.072000	0.222300	0.746800
C221	C22	0.069700	0.262900	0.696900
C231	C23	0.964200	0.167100	0.820600
C241	C24	0.466000	0.886400	0.143800
C251	C25	0.480300	0.949400	0.102300
C261	C26	0.424300	0.982600	0.058400
C271	C27	0.475800	0.037700	0.027800
C281	C28	0.562200	0.046500	0.053200
C291	C29	0.322600	0.962900	0.042400
C301	C30	0.426700	0.616300	0.136100
C311	C31	0.668800	0.745700	0.243000
C321	C32	0.772600	0.752500	0.233900
C331	C33	0.838100	0.791600	0.271200
C341	C34	0.816300	0.830600	0.325100
C351	C35	0.487000	0.622200	0.369400
C361	C36	0.517400	0.578400	0.422800
C371	C37	0.495600	0.586000	0.484600
C381	C38	0.533600	0.527000	0.520200
C391	C39	0.580800	0.476900	0.484800
C401	C40	0.534100	0.501600	0.582100
C411	C41	0.574300	0.435700	0.589000
C421	C42	0.437300	0.645500	0.510700
C431	C43	0.494000	0.549100	0.632600
C441	C44	0.442100	0.835400	0.405900
C451	C45	0.464600	0.879600	0.461700
C461	C46	0.541500	0.918400	0.474600
C471	C47	0.631500	0.922100	0.443600
C481	C48	0.185900	0.777200	0.230800
C491	C49	0.086600	0.770000	0.225600
C501	C50	0.019600	0.795900	0.265900
C511	C51	0.928000	0.777700	0.246800
C521	C52	0.930300	0.737100	0.196900
C531	C53	0.035800	0.832900	0.320600
C541	C54	0.534000	0.113600	0.643800
C551	C55	0.519700	0.050600	0.602300
C561	C56	0.575700	0.017400	0.558400
C571	C57	0.524200	0.962300	0.527800
C581	C58	0.437800	0.953500	0.553200
C591	C59	0.677400	0.037100	0.542400
C601	C60	0.573300	0.383700	0.636100
S11	S1	0.179700	0.293900	0.671500
S21	S2	0.418900	0.501000	0.908200
S31	S3	0.382300	0.600600	0.021100
S41	S4	0.628500	0.108200	0.012300
S51	S5	0.963400	0.277900	0.664600
S61	S6	0.586500	0.988800	0.110500
S71	S7	0.820300	0.706100	0.171500
S81	S8	0.581100	0.499000	0.408200
S91	S9	0.617700	0.399400	0.521100
S101	S10	0.371500	0.891800	0.512300
S111	S11	0.036600	0.722100	0.164600
S121	S12	0.413500	0.011200	0.610500
O11	O1	0.575500	0.247500	0.757800
O21	O2	0.369800	0.211200	0.777300
O31	O3	0.369100	0.310200	0.714800
O41	O4	0.471600	0.390300	0.821700
O51	O5	0.576500	0.336500	0.878900
O61	O6	0.639700	0.189200	0.898500
O71	O7	0.494700	0.172600	0.866800
O81	O8	0.776500	0.199400	0.774700
O91	O9	0.773500	0.250500	0.683800
O101	O10	0.382600	0.849400	0.136400
O111	O11	0.522900	0.867400	0.180700
O121	O12	0.461800	0.597100	0.189800
O131	O13	0.390200	0.677700	0.127800
O141	O14	0.424500	0.752500	0.257800
O151	O15	0.630200	0.788800	0.277300
O161	O16	0.630900	0.689800	0.214800
O171	O17	0.528400	0.609700	0.321700
O181	O18	0.423500	0.663500	0.378900
O191	O19	0.360300	0.810800	0.398500
O201	O20	0.505300	0.827400	0.366800
O211	O21	0.223500	0.800600	0.274700
O221	O22	0.226500	0.749500	0.183800
O231	O23	0.617400	0.150600	0.636400
O241	O24	0.477100	0.132600	0.680700
O251	O25	0.538200	0.402900	0.689800
O261	O26	0.609800	0.322300	0.627800
Zn91	Zn9	0.007830	0.829990	0.750680
Zn101	Zn10	0.844320	0.752830	0.829180
Zn111	Zn11	0.859340	0.737100	0.684190
Zn121	Zn12	0.004880	0.655430	0.774570
Zn131	Zn13	0.992170	0.170010	0.250680
Zn141	Zn14	0.155680	0.247170	0.329180
Zn151	Zn15	0.140660	0.262900	0.184190
Zn161	Zn16	0.995120	0.344570	0.274570
H371	H37	0.372100	0.651600	0.843400
H381	H38	0.285200	0.701900	0.852700
H391	H39	0.276900	0.628400	0.815600
H401	H40	0.918700	0.821200	0.979200
H411	H41	0.972000	0.828000	0.040700
H421	H42	0.883600	0.875900	0.029200
H431	H43	0.969600	0.906100	0.115800
H441	H44	0.041700	0.939100	0.161200
H451	H45	0.945600	0.977500	0.152700
H461	H46	0.171900	0.545400	0.965400
H471	H47	0.122900	0.559400	0.903300
H481	H48	0.158200	0.626300	0.941800
H491	H49	0.477900	0.654900	0.839200
H501	H50	0.570000	0.622700	0.812900
H511	H51	0.570500	0.698500	0.847200
H521	H52	0.199300	0.425400	0.069500
H531	H53	0.180300	0.444900	0.001600
H541	H54	0.215200	0.506100	0.046100
H551	H55	0.627900	0.348400	0.343400
H561	H56	0.714800	0.298100	0.352700
H571	H57	0.723100	0.371600	0.315600
H581	H58	0.081300	0.178800	0.479200
H591	H59	0.028000	0.172000	0.540700
H601	H60	0.116400	0.124100	0.529200
H611	H61	0.030400	0.093900	0.615800
H621	H62	0.958300	0.060900	0.661200
H631	H63	0.054400	0.022500	0.652700
H641	H64	0.828100	0.454600	0.465400
H651	H65	0.877100	0.440600	0.403300
H661	H66	0.841800	0.373700	0.441800
H671	H67	0.522100	0.345100	0.339200
H681	H68	0.430000	0.377300	0.312900
H691	H69	0.429500	0.301500	0.347200
H701	H70	0.800700	0.574600	0.569500
H711	H71	0.819700	0.555100	0.501600
H721	H72	0.784800	0.493900	0.546100
C611	C61	0.168800	0.754300	0.743000
C621	C62	0.272600	0.747500	0.733900
C631	C63	0.338100	0.708400	0.771200
C641	C64	0.316300	0.669400	0.825100
C651	C65	0.987000	0.877800	0.869400
C661	C66	0.017400	0.921600	0.922800
C671	C67	0.995600	0.914000	0.984600
C681	C68	0.033600	0.973000	0.020200
C691	C69	0.080800	0.023100	0.984800
C701	C70	0.034100	0.998400	0.082100
C711	C71	0.074300	0.064300	0.089000
C721	C72	0.937300	0.854500	0.010700
C731	C73	0.994000	0.950900	0.132600
C741	C74	0.942100	0.664600	0.905900
C751	C75	0.964600	0.620400	0.961700
C761	C76	0.041500	0.581600	0.974600
C771	C77	0.131500	0.577900	0.943600
C781	C78	0.685900	0.722800	0.730800
C791	C79	0.586600	0.730000	0.725600
C801	C80	0.519600	0.704100	0.765900
C811	C81	0.428000	0.722300	0.746800
C821	C82	0.430300	0.762900	0.696900
C831	C83	0.535800	0.667100	0.820600
C841	C84	0.034000	0.386400	0.143800
C851	C85	0.019700	0.449400	0.102300
C861	C86	0.075700	0.482600	0.058400
C871	C87	0.024200	0.537700	0.027800
C881	C88	0.937800	0.546500	0.053200
C891	C89	0.177400	0.462900	0.042400
C901	C90	0.073300	0.116300	0.136100
C911	C91	0.831200	0.245700	0.243000
C921	C92	0.727400	0.252500	0.233900
C931	C93	0.661900	0.291600	0.271200
C941	C94	0.683700	0.330600	0.325100
C951	C95	0.013000	0.122200	0.369400
C961	C96	0.982600	0.078400	0.422800
C971	C97	0.004400	0.086000	0.484600
C981	C98	0.966400	0.027000	0.520200
C991	C99	0.919200	0.976900	0.484800
C1001	C100	0.965900	0.001600	0.582100
C1011	C101	0.925700	0.935700	0.589000
C1021	C102	0.062700	0.145500	0.510700
C1031	C103	0.006000	0.049100	0.632600
C1041	C104	0.057900	0.335400	0.405900
C1051	C105	0.035400	0.379600	0.461700
C1061	C106	0.958500	0.418400	0.474600
C1071	C107	0.868500	0.422100	0.443600
C1081	C108	0.314100	0.277200	0.230800
C1091	C109	0.413400	0.270000	0.225600
C1101	C110	0.480400	0.295900	0.265900
C1111	C111	0.572000	0.277700	0.246800
C1121	C112	0.569700	0.237100	0.196900
C1131	C113	0.464200	0.332900	0.320600
C1141	C114	0.966000	0.613600	0.643800
C1151	C115	0.980300	0.550600	0.602300
C1161	C116	0.924300	0.517400	0.558400
C1171	C117	0.975800	0.462300	0.527800
C1181	C118	0.062200	0.453500	0.553200
C1191	C119	0.822600	0.537100	0.542400
C1201	C120	0.926700	0.883700	0.636100
S131	S13	0.320300	0.793900	0.671500
S141	S14	0.081100	0.001000	0.908200
S151	S15	0.117700	0.100600	0.021100
S161	S16	0.871500	0.608200	0.012300
S171	S17	0.536600	0.777900	0.664600
S181	S18	0.913500	0.488800	0.110500
S191	S19	0.679700	0.206100	0.171500
S201	S20	0.918900	0.999000	0.408200
S211	S21	0.882300	0.899400	0.521100
S221	S22	0.128500	0.391800	0.512300
S231	S23	0.463400	0.222100	0.164600
S241	S24	0.086500	0.511200	0.610500
O271	O27	0.924500	0.747500	0.757800
O281	O28	0.130200	0.711200	0.777300
O291	O29	0.130900	0.810200	0.714800
O301	O30	0.028400	0.890300	0.821700
O311	O31	0.923500	0.836500	0.878900
O321	O32	0.860300	0.689200	0.898500
O331	O33	0.005300	0.672600	0.866800
O341	O34	0.723500	0.699400	0.774700
O351	O35	0.726500	0.750500	0.683800
O361	O36	0.117400	0.349400	0.136400
O371	O37	0.977100	0.367400	0.180700
O381	O38	0.038200	0.097100	0.189800
O391	O39	0.109800	0.177700	0.127800
O401	O40	0.075500	0.252500	0.257800
O411	O41	0.869800	0.288800	0.277300
O421	O42	0.869100	0.189800	0.214800
O431	O43	0.971600	0.109700	0.321700
O441	O44	0.076500	0.163500	0.378900
O451	O45	0.139700	0.310800	0.398500
O461	O46	0.994700	0.327400	0.366800
O471	O47	0.276500	0.300600	0.274700
O481	O48	0.273500	0.249500	0.183800
O491	O49	0.882600	0.650600	0.636400
O501	O50	0.022900	0.632600	0.680700
O511	O51	0.961800	0.902900	0.689800
O521	O52	0.890200	0.822300	0.627800
