data_TEQVAO_manual_PM
_symmetry_space_group_name_H-M	'P1'
_cell_length_a	13.790900
_cell_length_b	16.287900
_cell_length_c	22.017000
_cell_angle_alpha	90.000000
_cell_angle_beta	90.000000
_cell_angle_gamma	90.000000
_symmetry_Int_Tables_number 1

loop_
_symmetry_equiv_pos_as_xyz
'x,y,z'

loop_
_atom_site_label
_atom_site_type_symbol
_atom_site_fract_x
_atom_site_fract_y
_atom_site_fract_z
Mg11	Mg1	0.222100	0.550910	0.759150
Mg21	Mg2	0.722100	0.449090	0.740850
Mg31	Mg3	0.777900	0.050910	0.240850
Mg41	Mg4	0.277900	0.949090	0.259150
Mg51	Mg5	0.777900	0.449090	0.240850
Mg61	Mg6	0.277900	0.550910	0.259150
Mg71	Mg7	0.222100	0.949090	0.759150
Mg81	Mg8	0.722100	0.050910	0.740850
Zn91	Zn9	0.979790	0.497910	0.668830
Zn101	Zn10	0.479790	0.502090	0.831170
Zn111	Zn11	0.020210	0.997910	0.331170
Zn121	Zn12	0.520210	0.002090	0.168830
Zn131	Zn13	0.020210	0.502090	0.331170
Zn141	Zn14	0.520210	0.497910	0.168830
Zn151	Zn15	0.979790	0.002090	0.668830
Zn161	Zn16	0.479790	0.997910	0.831170
H171	H17	0.359220	0.582600	0.617460
H181	H18	0.494850	0.664890	0.564380
H191	H19	0.520940	0.636730	0.484080
H201	H20	0.534330	0.558690	0.545280
H211	H21	0.392950	0.584440	0.420970
H221	H22	0.113820	0.518970	0.501320
H231	H23	0.758010	0.616620	0.844830
H241	H24	0.666950	0.684070	0.917550
H251	H25	0.178610	0.384090	0.859970
H261	H26	0.314990	0.283930	0.914980
H271	H27	0.859220	0.417400	0.882540
H281	H28	0.012470	0.396520	0.921590
H291	H29	0.038560	0.424680	0.001890
H301	H30	0.999090	0.318480	0.982790
H311	H31	0.892950	0.415560	0.079030
H321	H32	0.613820	0.481030	0.998680
H331	H33	0.258010	0.383380	0.655170
H341	H34	0.161800	0.184070	0.585110
H351	H35	0.678610	0.615910	0.640030
H361	H36	0.758350	0.684020	0.561310
H371	H37	0.640780	0.082600	0.382540
H381	H38	0.460380	0.059320	0.481200
H391	H39	0.497820	0.134500	0.421990
H401	H40	0.491680	0.166500	0.503080
H411	H41	0.607050	0.084440	0.579030
H421	H42	0.886180	0.018970	0.498680
H431	H43	0.241990	0.116620	0.155170
H441	H44	0.282300	0.280520	0.056250
H451	H45	0.821390	0.884090	0.140030
H461	H46	0.796160	0.783930	0.038480
H471	H47	0.140780	0.917400	0.117460
H481	H48	0.968770	0.894290	0.984480
H491	H49	0.974910	0.926280	0.065560
H501	H50	0.006200	0.819110	0.043690
H511	H51	0.107050	0.915560	0.920970
H521	H52	0.386180	0.981030	0.001320
H531	H53	0.741990	0.883380	0.344830
H541	H54	0.833050	0.684070	0.417550
H551	H55	0.321390	0.115910	0.359970
H561	H56	0.239530	0.184020	0.437800
H571	H57	0.640780	0.417400	0.382540
H581	H58	0.500910	0.318480	0.482790
H591	H59	0.487530	0.396520	0.421590
H601	H60	0.461440	0.424680	0.501890
H611	H61	0.607050	0.415560	0.579030
H621	H62	0.886180	0.481030	0.498680
H631	H63	0.241990	0.383380	0.155170
H641	H64	0.338200	0.184070	0.085110
H651	H65	0.821390	0.615910	0.140030
H661	H66	0.741650	0.684020	0.061310
H671	H67	0.140780	0.582600	0.117460
H681	H68	0.979060	0.636730	0.984080
H691	H69	0.005150	0.664890	0.064380
H701	H70	0.965670	0.558690	0.045280
H711	H71	0.107050	0.584440	0.920970
H721	H72	0.386180	0.518970	0.001320
H731	H73	0.741990	0.616620	0.344830
H741	H74	0.888950	0.780520	0.388690
H751	H75	0.321390	0.384090	0.359970
H761	H76	0.185010	0.283930	0.414980
H771	H77	0.359220	0.917400	0.617460
H781	H78	0.525090	0.926280	0.565560
H791	H79	0.531230	0.894290	0.484480
H801	H80	0.493800	0.819110	0.543690
H811	H81	0.392950	0.915560	0.420970
H821	H82	0.113820	0.981030	0.501320
H831	H83	0.758010	0.883380	0.844830
H841	H84	0.611050	0.780520	0.888690
H851	H85	0.178610	0.115910	0.859970
H861	H86	0.260470	0.184020	0.937800
H871	H87	0.859220	0.082600	0.882540
H881	H88	0.002180	0.134500	0.921990
H891	H89	0.008320	0.166500	0.003080
H901	H90	0.039620	0.059320	0.981200
H911	H91	0.892950	0.084440	0.079030
H921	H92	0.613820	0.018970	0.998680
H931	H93	0.258010	0.116620	0.655170
H941	H94	0.217700	0.280520	0.556250
H951	H95	0.678610	0.884090	0.640030
H961	H96	0.703840	0.783930	0.538480
H971	H97	0.931360	0.749600	0.711000
H981	H98	0.431360	0.250400	0.789000
H991	H99	0.068640	0.250400	0.289000
H1001	H100	0.568640	0.749600	0.211000
H1011	H101	0.017630	0.249720	0.721120
H1021	H102	0.517630	0.750280	0.778880
H1031	H103	0.982370	0.750280	0.278880
H1041	H104	0.482370	0.249720	0.221120
C1051	C105	0.167900	0.539800	0.619400
C1061	C106	0.230700	0.550900	0.564150
C1071	C107	0.326500	0.574400	0.570300
C1081	C108	0.383600	0.588200	0.520400
C1091	C109	0.490400	0.613800	0.529100
C1101	C110	0.345400	0.575400	0.462800
C1111	C111	0.248500	0.551400	0.456100
C1121	C112	0.206600	0.542500	0.393900
C1131	C113	0.192500	0.539100	0.506810
C1141	C114	0.874700	0.597500	0.745550
C1151	C115	0.845200	0.676100	0.775060
C1161	C116	0.783900	0.676900	0.824100
C1171	C117	0.072300	0.402700	0.756400
C1181	C118	0.096700	0.323200	0.787420
C1191	C119	0.154200	0.323400	0.839200
C1201	C120	0.667900	0.460200	0.880600
C1211	C121	0.730700	0.449100	0.935850
C1221	C122	0.826500	0.425600	0.929700
C1231	C123	0.883600	0.411800	0.979600
C1241	C124	0.990400	0.386200	0.970900
C1251	C125	0.845400	0.424600	0.037200
C1261	C126	0.748500	0.448600	0.043900
C1271	C127	0.706600	0.457500	0.106100
C1281	C128	0.692500	0.460900	0.993190
C1291	C129	0.374700	0.402500	0.754450
C1301	C130	0.345200	0.323900	0.724940
C1311	C131	0.283900	0.323100	0.675900
C1321	C132	0.572300	0.597300	0.743600
C1331	C133	0.596700	0.676800	0.712580
C1341	C134	0.654200	0.676600	0.660800
C1351	C135	0.832100	0.039800	0.380600
C1361	C136	0.769300	0.050900	0.435850
C1371	C137	0.673500	0.074400	0.429700
C1381	C138	0.616400	0.088200	0.479600
C1391	C139	0.509600	0.113800	0.470900
C1401	C140	0.654600	0.075400	0.537200
C1411	C141	0.751500	0.051400	0.543900
C1421	C142	0.793400	0.042500	0.606100
C1431	C143	0.807500	0.039100	0.493190
C1441	C144	0.125300	0.097500	0.254450
C1451	C145	0.154800	0.176100	0.224940
C1461	C146	0.216100	0.176900	0.175900
C1471	C147	0.927700	0.902700	0.243600
C1481	C148	0.903300	0.823200	0.212580
C1491	C149	0.845800	0.823400	0.160800
C1501	C150	0.332100	0.960200	0.119400
C1511	C151	0.269300	0.949100	0.064150
C1521	C152	0.173500	0.925600	0.070300
C1531	C153	0.116400	0.911800	0.020400
C1541	C154	0.009600	0.886200	0.029100
C1551	C155	0.154600	0.924600	0.962800
C1561	C156	0.251500	0.948600	0.956100
C1571	C157	0.293400	0.957500	0.893900
C1581	C158	0.307500	0.960900	0.006810
C1591	C159	0.625300	0.902500	0.245550
C1601	C160	0.654800	0.823900	0.275060
C1611	C161	0.716100	0.823100	0.324100
C1621	C162	0.427700	0.097300	0.256400
C1631	C163	0.403300	0.176800	0.287420
C1641	C164	0.345800	0.176600	0.339200
C1651	C165	0.832100	0.460200	0.380600
C1661	C166	0.769300	0.449100	0.435850
C1671	C167	0.673500	0.425600	0.429700
C1681	C168	0.616400	0.411800	0.479600
C1691	C169	0.509600	0.386200	0.470900
C1701	C170	0.654600	0.424600	0.537200
C1711	C171	0.751500	0.448600	0.543900
C1721	C172	0.793400	0.457500	0.606100
C1731	C173	0.807500	0.460900	0.493190
C1741	C174	0.125300	0.402500	0.254450
C1751	C175	0.154800	0.323900	0.224940
C1761	C176	0.216100	0.323100	0.175900
C1771	C177	0.927700	0.597300	0.243600
C1781	C178	0.903300	0.676800	0.212580
C1791	C179	0.845800	0.676600	0.160800
C1801	C180	0.332100	0.539800	0.119400
C1811	C181	0.269300	0.550900	0.064150
C1821	C182	0.173500	0.574400	0.070300
C1831	C183	0.116400	0.588200	0.020400
C1841	C184	0.009600	0.613800	0.029100
C1851	C185	0.154600	0.575400	0.962800
C1861	C186	0.251500	0.551400	0.956100
C1871	C187	0.293400	0.542500	0.893900
C1881	C188	0.307500	0.539100	0.006810
C1891	C189	0.625300	0.597500	0.245550
C1901	C190	0.654800	0.676100	0.275060
C1911	C191	0.716100	0.676900	0.324100
C1921	C192	0.427700	0.402700	0.256400
C1931	C193	0.403300	0.323200	0.287420
C1941	C194	0.345800	0.323400	0.339200
C1951	C195	0.167900	0.960200	0.619400
C1961	C196	0.230700	0.949100	0.564150
C1971	C197	0.326500	0.925600	0.570300
C1981	C198	0.383600	0.911800	0.520400
C1991	C199	0.490400	0.886200	0.529100
C2001	C200	0.345400	0.924600	0.462800
C2011	C201	0.248500	0.948600	0.456100
C2021	C202	0.206600	0.957500	0.393900
C2031	C203	0.192500	0.960900	0.506810
C2041	C204	0.874700	0.902500	0.745550
C2051	C205	0.845200	0.823900	0.775060
C2061	C206	0.783900	0.823100	0.824100
C2071	C207	0.072300	0.097300	0.756400
C2081	C208	0.096700	0.176800	0.787420
C2091	C209	0.154200	0.176600	0.839200
C2101	C210	0.667900	0.039800	0.880600
C2111	C211	0.730700	0.050900	0.935850
C2121	C212	0.826500	0.074400	0.929700
C2131	C213	0.883600	0.088200	0.979600
C2141	C214	0.990400	0.113800	0.970900
C2151	C215	0.845400	0.075400	0.037200
C2161	C216	0.748500	0.051400	0.043900
C2171	C217	0.706600	0.042500	0.106100
C2181	C218	0.692500	0.039100	0.993190
C2191	C219	0.374700	0.097500	0.754450
C2201	C220	0.345200	0.176100	0.724940
C2211	C221	0.283900	0.176900	0.675900
C2221	C222	0.572300	0.902700	0.743600
C2231	C223	0.596700	0.823200	0.712580
C2241	C224	0.654200	0.823400	0.660800
C2251	C225	0.878100	0.750000	0.750600
C2261	C226	0.751500	0.750000	0.850000
C2271	C227	0.681900	0.750000	0.902900
C2281	C228	0.378100	0.250000	0.749400
C2291	C229	0.251500	0.250000	0.650000
C2301	C230	0.181900	0.250000	0.597100
C2311	C231	0.121900	0.250000	0.249400
C2321	C232	0.248500	0.250000	0.150000
C2331	C233	0.318100	0.250000	0.097100
C2341	C234	0.621900	0.750000	0.250600
C2351	C235	0.748500	0.750000	0.350000
C2361	C236	0.818100	0.750000	0.402900
C2371	C237	0.182000	0.250000	0.865700
C2381	C238	0.244100	0.250000	0.923900
C2391	C239	0.067100	0.250000	0.762600
C2401	C240	0.682000	0.750000	0.634300
C2411	C241	0.744100	0.750000	0.576100
C2421	C242	0.567100	0.750000	0.737400
C2431	C243	0.818000	0.750000	0.134300
C2441	C244	0.755900	0.750000	0.076100
C2451	C245	0.932900	0.750000	0.237400
C2461	C246	0.318000	0.250000	0.365700
C2471	C247	0.255900	0.250000	0.423900
C2481	C248	0.432900	0.250000	0.262600
O2491	O249	0.082300	0.514500	0.610410
O2501	O250	0.200600	0.557300	0.670120
O2511	O251	0.116900	0.525800	0.392260
O2521	O252	0.258000	0.552500	0.349460
O2531	O253	0.950000	0.599980	0.711730
O2541	O254	0.828000	0.533700	0.754370
O2551	O255	0.004100	0.400100	0.716780
O2561	O256	0.114700	0.466600	0.769440
O2571	O257	0.582300	0.485500	0.889590
O2581	O258	0.700600	0.442700	0.829880
O2591	O259	0.616900	0.474200	0.107740
O2601	O260	0.758000	0.447500	0.150540
O2611	O261	0.450000	0.400020	0.788270
O2621	O262	0.328000	0.466300	0.745630
O2631	O263	0.504100	0.599900	0.783220
O2641	O264	0.614700	0.533400	0.730560
O2651	O265	0.917700	0.014500	0.389590
O2661	O266	0.799400	0.057300	0.329880
O2671	O267	0.883100	0.025800	0.607740
O2681	O268	0.742000	0.052500	0.650540
O2691	O269	0.050000	0.099980	0.288270
O2701	O270	0.172000	0.033700	0.245630
O2711	O271	0.995900	0.900100	0.283220
O2721	O272	0.885300	0.966600	0.230560
O2731	O273	0.417700	0.985500	0.110410
O2741	O274	0.299400	0.942700	0.170120
O2751	O275	0.383100	0.974200	0.892260
O2761	O276	0.242000	0.947500	0.849460
O2771	O277	0.550000	0.900020	0.211730
O2781	O278	0.672000	0.966300	0.254370
O2791	O279	0.495900	0.099900	0.216780
O2801	O280	0.385300	0.033400	0.269440
O2811	O281	0.917700	0.485500	0.389590
O2821	O282	0.799400	0.442700	0.329880
O2831	O283	0.883100	0.474200	0.607740
O2841	O284	0.742000	0.447500	0.650540
O2851	O285	0.050000	0.400020	0.288270
O2861	O286	0.172000	0.466300	0.245630
O2871	O287	0.995900	0.599900	0.283220
O2881	O288	0.885300	0.533400	0.230560
O2891	O289	0.417700	0.514500	0.110410
O2901	O290	0.299400	0.557300	0.170120
O2911	O291	0.383100	0.525800	0.892260
O2921	O292	0.242000	0.552500	0.849460
O2931	O293	0.550000	0.599980	0.211730
O2941	O294	0.672000	0.533700	0.254370
O2951	O295	0.495900	0.400100	0.216780
O2961	O296	0.385300	0.466600	0.269440
O2971	O297	0.082300	0.985500	0.610410
O2981	O298	0.200600	0.942700	0.670120
O2991	O299	0.116900	0.974200	0.392260
O3001	O300	0.258000	0.947500	0.349460
O3011	O301	0.950000	0.900020	0.711730
O3021	O302	0.828000	0.966300	0.754370
O3031	O303	0.004100	0.099900	0.716780
O3041	O304	0.114700	0.033400	0.769440
O3051	O305	0.582300	0.014500	0.889590
O3061	O306	0.700600	0.057300	0.829880
O3071	O307	0.616900	0.025800	0.107740
O3081	O308	0.758000	0.052500	0.150540
O3091	O309	0.450000	0.099980	0.788270
O3101	O310	0.328000	0.033700	0.745630
O3111	O311	0.504100	0.900100	0.783220
O3121	O312	0.614700	0.966600	0.730560
H3131	H313	0.715130	0.785410	0.942420
H3141	H314	0.113630	0.285410	0.609980
H3151	H315	0.386370	0.285410	0.109980
H3161	H316	0.784870	0.785410	0.442420
H3171	H317	0.202770	0.282050	0.961960
H3181	H318	0.816050	0.782050	0.585460
H3191	H319	0.683950	0.782050	0.085460
H3201	H320	0.297230	0.282050	0.461960
