data_TEQWER01_clean_PM
_symmetry_space_group_name_H-M	'P1'
_cell_length_a	5.784300
_cell_length_b	30.251200
_cell_length_c	7.547000
_cell_angle_alpha	90.000000
_cell_angle_beta	112.530000
_cell_angle_gamma	90.000000
_symmetry_Int_Tables_number 1

loop_
_symmetry_equiv_pos_as_xyz
'x,y,z'

loop_
_atom_site_label
_atom_site_type_symbol
_atom_site_fract_x
_atom_site_fract_y
_atom_site_fract_z
Cu11	Cu1	0.078800	0.459980	0.923190
Cu21	Cu2	0.675760	0.287100	0.986150
S11	S1	0.720400	0.513600	0.755200
S21	S2	0.511300	0.242660	0.157300
S31	S3	0.501600	0.356840	0.965700
N11	N1	0.311900	0.471700	0.796300
N21	N2	0.032600	0.278000	0.067900
N31	N3	0.875700	0.408700	0.922300
C11	C1	0.477500	0.488500	0.779100
C21	C2	0.231500	0.264400	0.105500
C31	C3	0.725000	0.387700	0.939800
Cu31	Cu3	0.921200	0.959980	0.576810
Cu41	Cu4	0.324240	0.787100	0.513850
S41	S4	0.279600	0.013600	0.744800
S51	S5	0.488700	0.742660	0.342700
S61	S6	0.498400	0.856840	0.534300
N41	N4	0.688100	0.971700	0.703700
N51	N5	0.967400	0.778000	0.432100
N61	N6	0.124300	0.908700	0.577700
C41	C4	0.522500	0.988500	0.720900
C51	C5	0.768500	0.764400	0.394500
C61	C6	0.275000	0.887700	0.560200
Cu51	Cu5	0.921200	0.540020	0.076810
Cu61	Cu6	0.324240	0.712900	0.013850
S71	S7	0.279600	0.486400	0.244800
S81	S8	0.488700	0.757340	0.842700
S91	S9	0.498400	0.643160	0.034300
N71	N7	0.688100	0.528300	0.203700
N81	N8	0.967400	0.722000	0.932100
N91	N9	0.124300	0.591300	0.077700
C71	C7	0.522500	0.511500	0.220900
C81	C8	0.768500	0.735600	0.894500
C91	C9	0.275000	0.612300	0.060200
Cu71	Cu7	0.078800	0.040020	0.423190
Cu81	Cu8	0.675760	0.212900	0.486150
S101	S10	0.720400	0.986400	0.255200
S111	S11	0.511300	0.257340	0.657300
S121	S12	0.501600	0.143160	0.465700
N101	N10	0.311900	0.028300	0.296300
N111	N11	0.032600	0.222000	0.567900
N121	N12	0.875700	0.091300	0.422300
C101	C10	0.477500	0.011500	0.279100
C111	C11	0.231500	0.235600	0.605500
C121	C12	0.725000	0.112300	0.439800
