data_TERFUT_clean_PM
_symmetry_space_group_name_H-M	'P1'
_cell_length_a	14.086900
_cell_length_b	15.133300
_cell_length_c	15.140200
_cell_angle_alpha	86.517000
_cell_angle_beta	87.286000
_cell_angle_gamma	86.896000
_symmetry_Int_Tables_number 1

loop_
_symmetry_equiv_pos_as_xyz
'x,y,z'

loop_
_atom_site_label
_atom_site_type_symbol
_atom_site_fract_x
_atom_site_fract_y
_atom_site_fract_z
Zn11	Zn1	0.904000	0.603570	0.839050
Zn21	Zn2	0.693970	0.612830	0.847210
H11	H1	0.219600	0.605600	0.975300
H21	H2	0.070800	0.620100	0.711900
H31	H3	0.233800	0.623100	0.710300
H41	H4	0.057100	0.602000	0.970600
H51	H5	0.658100	0.626200	0.287000
H61	H6	0.654500	0.626100	0.136900
H71	H7	0.938600	0.598400	0.120900
H81	H8	0.670200	0.645600	0.563900
H91	H9	0.666400	0.643100	0.414300
H101	H10	0.939000	0.578100	0.400400
H111	H11	0.943600	0.576500	0.550300
H121	H12	0.661600	0.328200	0.851200
H131	H13	0.654100	0.905000	0.849400
H141	H14	0.940400	0.313700	0.827200
H151	H15	0.938100	0.165700	0.813300
H161	H16	0.930100	0.883500	0.795400
H171	H17	0.933600	0.035200	0.790700
H181	H18	0.537300	0.677600	0.731700
H191	H19	0.529300	0.546600	0.959600
H201	H20	0.367700	0.546300	0.959900
H211	H21	0.374700	0.677500	0.725300
Rh11	Rh1	0.622100	0.121800	0.843600
C11	C1	0.245700	0.612700	0.843000
C21	C2	0.190970	0.607800	0.921000
C31	C3	0.801000	0.339310	0.838000
C41	C4	0.101100	0.616700	0.765320
C51	C5	0.795700	0.611610	0.111450
C61	C6	0.806600	0.608900	0.574870
C71	C7	0.199160	0.618300	0.764000
C81	C8	0.093140	0.606200	0.917600
C91	C9	0.794270	0.609100	0.013160
C101	C10	0.802020	0.437040	0.845710
C111	C11	0.714700	0.620700	0.253190
C121	C12	0.788700	0.778160	0.832300
C131	C13	0.712800	0.620300	0.163700
C141	C14	0.881700	0.604200	0.154320
C151	C15	0.807860	0.607900	0.673560
C161	C16	0.351440	0.611900	0.843990
C171	C17	0.800700	0.612800	0.294400
C181	C18	0.802800	0.611500	0.391800
C191	C19	0.725700	0.630300	0.531400
C201	C20	0.790800	0.877100	0.826600
C211	C21	0.723600	0.630100	0.441600
C221	C22	0.883400	0.591500	0.433600
C231	C23	0.886200	0.590300	0.523600
C241	C24	0.718900	0.295600	0.843300
C251	C25	0.712300	0.930700	0.838900
C261	C26	0.882100	0.287500	0.828600
C271	C27	0.716700	0.206300	0.837600
C281	C28	0.798100	0.157300	0.825000
C291	C29	0.795800	0.059700	0.820500
C301	C30	0.881000	0.198600	0.821100
C311	C31	0.874500	0.917600	0.806900
C321	C32	0.876400	0.008300	0.804100
C331	C33	0.502500	0.650000	0.778300
C341	C34	0.498200	0.573800	0.911600
C351	C35	0.400600	0.573500	0.911900
C361	C36	0.404600	0.650900	0.774300
N11	N1	0.047980	0.610320	0.841970
N21	N2	0.549330	0.611090	0.846270
N31	N3	0.883900	0.605200	0.244090
N41	N4	0.714100	0.020600	0.836700
O11	O1	0.873140	0.605920	0.970890
O21	O2	0.729830	0.616210	0.715410
O31	O3	0.715030	0.608300	0.979270
O41	O4	0.722850	0.479070	0.849600
O51	O5	0.887910	0.598770	0.707210
O61	O6	0.881190	0.470620	0.847770
O71	O7	0.709050	0.745170	0.843350
O81	O8	0.867000	0.735590	0.825820
Zn31	Zn3	0.096000	0.396430	0.160950
Zn41	Zn4	0.306030	0.387170	0.152790
H221	H22	0.780400	0.394400	0.024700
H231	H23	0.929200	0.379900	0.288100
H241	H24	0.766200	0.376900	0.289700
H251	H25	0.942900	0.398000	0.029400
H261	H26	0.341900	0.373800	0.713000
H271	H27	0.345500	0.373900	0.863100
H281	H28	0.061400	0.401600	0.879100
H291	H29	0.329800	0.354400	0.436100
H301	H30	0.333600	0.356900	0.585700
H311	H31	0.061000	0.421900	0.599600
H321	H32	0.056400	0.423500	0.449700
H331	H33	0.338400	0.671800	0.148800
H341	H34	0.345900	0.095000	0.150600
H351	H35	0.059600	0.686300	0.172800
H361	H36	0.061900	0.834300	0.186700
H371	H37	0.069900	0.116500	0.204600
H381	H38	0.066400	0.964800	0.209300
H391	H39	0.462700	0.322400	0.268300
H401	H40	0.470700	0.453400	0.040400
H411	H41	0.632300	0.453700	0.040100
H421	H42	0.625300	0.322500	0.274700
Rh21	Rh2	0.377900	0.878200	0.156400
C371	C37	0.754300	0.387300	0.157000
C381	C38	0.809030	0.392200	0.079000
C391	C39	0.199000	0.660690	0.162000
C401	C40	0.898900	0.383300	0.234680
C411	C41	0.204300	0.388390	0.888550
C421	C42	0.193400	0.391100	0.425130
C431	C43	0.800840	0.381700	0.236000
C441	C44	0.906860	0.393800	0.082400
C451	C45	0.205730	0.390900	0.986840
C461	C46	0.197980	0.562960	0.154290
C471	C47	0.285300	0.379300	0.746810
C481	C48	0.211300	0.221840	0.167700
C491	C49	0.287200	0.379700	0.836300
C501	C50	0.118300	0.395800	0.845680
C511	C51	0.192140	0.392100	0.326440
C521	C52	0.648560	0.388100	0.156010
C531	C53	0.199300	0.387200	0.705600
C541	C54	0.197200	0.388500	0.608200
C551	C55	0.274300	0.369700	0.468600
C561	C56	0.209200	0.122900	0.173400
C571	C57	0.276400	0.369900	0.558400
C581	C58	0.116600	0.408500	0.566400
C591	C59	0.113800	0.409700	0.476400
C601	C60	0.281100	0.704400	0.156700
C611	C61	0.287700	0.069300	0.161100
C621	C62	0.117900	0.712500	0.171400
C631	C63	0.283300	0.793700	0.162400
C641	C64	0.201900	0.842700	0.175000
C651	C65	0.204200	0.940300	0.179500
C661	C66	0.119000	0.801400	0.178900
C671	C67	0.125500	0.082400	0.193100
C681	C68	0.123600	0.991700	0.195900
C691	C69	0.497500	0.350000	0.221700
C701	C70	0.501800	0.426200	0.088400
C711	C71	0.599400	0.426500	0.088100
C721	C72	0.595400	0.349100	0.225700
N51	N5	0.952020	0.389680	0.158030
N61	N6	0.450670	0.388910	0.153730
N71	N7	0.116100	0.394800	0.755910
N81	N8	0.285900	0.979400	0.163300
O91	O9	0.126860	0.394080	0.029110
O101	O10	0.270170	0.383790	0.284590
O111	O11	0.284970	0.391700	0.020730
O121	O12	0.277150	0.520930	0.150400
O131	O13	0.112090	0.401230	0.292790
O141	O14	0.118810	0.529380	0.152230
O151	O15	0.290950	0.254830	0.156650
O161	O16	0.133000	0.264410	0.174180
