data_TESGOO_clean_PM
_symmetry_space_group_name_H-M	'P1'
_cell_length_a	9.827400
_cell_length_b	11.310800
_cell_length_c	14.507200
_cell_angle_alpha	91.517700
_cell_angle_beta	90.000000
_cell_angle_gamma	90.000000
_symmetry_Int_Tables_number 1

loop_
_symmetry_equiv_pos_as_xyz
'x,y,z'

loop_
_atom_site_label
_atom_site_type_symbol
_atom_site_fract_x
_atom_site_fract_y
_atom_site_fract_z
Zn11	Zn1	0.919290	0.757870	0.132500
Zn21	Zn2	0.105550	0.741400	0.313240
Zn31	Zn3	0.419290	0.742130	0.367500
Zn41	Zn4	0.605550	0.758600	0.186760
Zn51	Zn5	0.080710	0.242130	0.867500
Zn61	Zn6	0.894450	0.258600	0.686760
Zn71	Zn7	0.580710	0.257870	0.632500
Zn81	Zn8	0.394450	0.241400	0.813240
Zn91	Zn9	0.000000	0.500000	0.000000
Zn101	Zn10	0.500000	0.000000	0.500000
Zn111	Zn11	0.000000	0.000000	0.000000
Zn121	Zn12	0.500000	0.500000	0.500000
H11	H1	0.751800	0.862800	0.366900
H21	H2	0.035900	0.478100	0.265800
H31	H3	0.615800	0.557200	0.043800
H41	H4	0.184600	0.986100	0.234000
H51	H5	0.154700	0.696100	0.927600
H61	H6	0.701100	0.990600	0.008800
H71	H7	0.251800	0.637200	0.133100
H81	H8	0.535900	0.021900	0.234200
H91	H9	0.115800	0.942800	0.456200
H101	H10	0.684600	0.513900	0.266000
H111	H11	0.654700	0.803900	0.572400
H121	H12	0.201100	0.509400	0.491200
H131	H13	0.248200	0.137200	0.633100
H141	H14	0.964100	0.521900	0.734200
H151	H15	0.384200	0.442800	0.956200
H161	H16	0.815400	0.013900	0.766000
H171	H17	0.845300	0.303900	0.072400
H181	H18	0.298900	0.009400	0.991200
H191	H19	0.748200	0.362800	0.866900
H201	H20	0.464100	0.978100	0.765800
H211	H21	0.884200	0.057200	0.543800
H221	H22	0.315400	0.486100	0.734000
H231	H23	0.345300	0.196100	0.427600
H241	H24	0.798900	0.490600	0.508800
C11	C1	0.823900	0.832100	0.329900
C21	C2	0.014800	0.519600	0.211600
C31	C3	0.710100	0.573200	0.051000
C41	C4	0.125000	0.956900	0.187100
C51	C5	0.101900	0.741700	0.970400
C61	C6	0.718800	0.929600	0.051000
C71	C7	0.323900	0.667900	0.170100
C81	C8	0.514800	0.980400	0.288400
C91	C9	0.210100	0.926800	0.449000
C101	C10	0.625000	0.543100	0.312900
C111	C11	0.601900	0.758300	0.529600
C121	C12	0.218800	0.570400	0.449000
C131	C13	0.176100	0.167900	0.670100
C141	C14	0.985200	0.480400	0.788400
C151	C15	0.289900	0.426800	0.949000
C161	C16	0.875000	0.043100	0.812900
C171	C17	0.898100	0.258300	0.029600
C181	C18	0.281200	0.070400	0.949000
C191	C19	0.676100	0.332100	0.829900
C201	C20	0.485200	0.019600	0.711600
C211	C21	0.789900	0.073200	0.551000
C221	C22	0.375000	0.456900	0.687100
C231	C23	0.398100	0.241700	0.470400
C241	C24	0.781200	0.429600	0.551000
O11	O1	0.797000	0.809400	0.245600
O21	O2	0.936200	0.817900	0.368900
O31	O3	0.003400	0.630900	0.219600
O41	O4	0.000800	0.459700	0.139200
O51	O5	0.742300	0.652600	0.110200
O61	O6	0.789100	0.514400	0.001600
O71	O7	0.080600	0.851500	0.195800
O81	O8	0.098600	0.025100	0.124100
O91	O9	0.022500	0.684500	0.023400
O101	O10	0.116600	0.849900	0.969500
O111	O11	0.843200	0.897800	0.059800
O121	O12	0.619400	0.888600	0.091800
O131	O13	0.297000	0.690600	0.254400
O141	O14	0.436200	0.682100	0.131100
O151	O15	0.503400	0.869100	0.280400
O161	O16	0.500800	0.040300	0.360800
O171	O17	0.242300	0.847400	0.389800
O181	O18	0.289100	0.985600	0.498400
O191	O19	0.580600	0.648500	0.304200
O201	O20	0.598600	0.474900	0.375900
O211	O21	0.522500	0.815500	0.476600
O221	O22	0.616600	0.650100	0.530500
O231	O23	0.343200	0.602200	0.440200
O241	O24	0.119400	0.611400	0.408200
O251	O25	0.203000	0.190600	0.754400
O261	O26	0.063800	0.182100	0.631100
O271	O27	0.996600	0.369100	0.780400
O281	O28	0.999200	0.540300	0.860800
O291	O29	0.257700	0.347400	0.889800
O301	O30	0.210900	0.485600	0.998400
O311	O31	0.919400	0.148500	0.804200
O321	O32	0.901400	0.974900	0.875900
O331	O33	0.977500	0.315500	0.976600
O341	O34	0.883400	0.150100	0.030500
O351	O35	0.156800	0.102200	0.940200
O361	O36	0.380600	0.111400	0.908200
O371	O37	0.703000	0.309400	0.745600
O381	O38	0.563800	0.317900	0.868900
O391	O39	0.496600	0.130900	0.719600
O401	O40	0.499200	0.959700	0.639200
O411	O41	0.757700	0.152600	0.610200
O421	O42	0.710900	0.014400	0.501600
O431	O43	0.419400	0.351500	0.695800
O441	O44	0.401400	0.525100	0.624100
O451	O45	0.477500	0.184500	0.523400
O461	O46	0.383400	0.349900	0.469500
O471	O47	0.656800	0.397800	0.559800
O481	O48	0.880600	0.388600	0.591800
