data_TETWEW_clean_PM
_symmetry_space_group_name_H-M	'P1'
_cell_length_a	12.397000
_cell_length_b	15.194700
_cell_length_c	20.950800
_cell_angle_alpha	90.950000
_cell_angle_beta	92.997000
_cell_angle_gamma	96.049000
_symmetry_Int_Tables_number 1

loop_
_symmetry_equiv_pos_as_xyz
'x,y,z'

loop_
_atom_site_label
_atom_site_type_symbol
_atom_site_fract_x
_atom_site_fract_y
_atom_site_fract_z
Na11	Na1	0.757000	0.746800	0.250560
P11	P1	0.505020	0.371830	0.157900
P21	P2	0.798050	0.222000	0.106820
P31	P3	0.562970	0.587560	0.291730
P41	P4	0.141880	0.234790	0.109600
P51	P5	0.989580	0.130850	0.344280
P61	P6	0.677360	0.261750	0.398750
P71	P7	0.337060	0.283020	0.392490
P81	P8	0.949290	0.915570	0.205870
Mo11	Mo1	0.362360	0.259440	0.030450
Mo21	Mo2	0.910900	0.238150	0.477910
Mo31	Mo3	0.120790	0.244340	0.473590
Mo41	Mo4	0.570460	0.256290	0.026200
Mo51	Mo5	0.240580	0.071740	0.394930
Mo61	Mo6	0.676460	0.564570	0.152850
Mo71	Mo7	0.118370	0.942340	0.336990
Mo81	Mo8	0.390650	0.568300	0.162550
Mo91	Mo9	0.258310	0.441590	0.107570
Mo101	Mo10	0.751970	0.433570	0.093810
Mo111	Mo11	0.830220	0.932120	0.343980
Mo121	Mo12	0.745190	0.057350	0.401960
Zn11	Zn1	0.959670	0.126410	0.197400
Zn21	Zn2	0.519180	0.376710	0.306060
O11	O1	0.462800	0.188700	0.076400
O21	O2	0.012400	0.154000	0.504700
O31	O3	0.475800	0.344300	0.998000
O41	O4	0.014400	0.312500	0.429900
O51	O5	0.377000	0.520500	0.075200
O61	O6	0.205900	0.045000	0.303900
O71	O7	0.295900	0.472100	0.198100
O81	O8	0.648300	0.515100	0.066600
O91	O9	0.228100	0.311200	0.413500
O101	O10	0.127700	0.986600	0.425400
O111	O11	0.064400	0.234100	0.050000
O121	O12	0.248900	0.200200	0.090400
O131	O13	0.676200	0.168600	0.370100
O141	O14	0.321800	0.188900	0.363600
O151	O15	0.097800	0.157100	0.382700
O161	O16	0.851900	0.979600	0.431300
O171	O17	0.540700	0.634800	0.133600
O181	O18	0.751500	0.028400	0.310800
O191	O19	0.824300	0.173100	0.167100
O201	O20	0.698600	0.356700	0.011500
O211	O21	0.751100	0.465300	0.184900
O221	O22	0.736400	0.845300	0.351500
O231	O23	0.509000	0.320300	0.220800
O241	O24	0.985600	0.181500	0.282200
O251	O25	0.896500	0.151700	0.386000
O261	O26	0.093600	0.173700	0.159700
O271	O27	0.263400	0.365300	0.023100
O281	O28	0.453700	0.595300	0.253800
O291	O29	0.857300	0.893800	0.251800
O301	O30	0.167500	0.329000	0.139200
O311	O31	0.060500	0.918800	0.243800
O321	O32	0.680800	0.194400	0.083200
O331	O33	0.820500	0.321300	0.121200
O341	O34	0.416300	0.290000	0.451700
O351	O35	0.228400	0.144800	0.480600
O361	O36	0.978600	0.030600	0.328700
O371	O37	0.943700	0.843900	0.154200
O381	O38	0.394300	0.349000	0.121900
O391	O39	0.787400	0.132400	0.487300
O401	O40	0.972600	0.867700	0.363700
O411	O41	0.564700	0.497200	0.322500
O421	O42	0.656800	0.601900	0.245900
O431	O43	0.595800	0.346400	0.115800
O441	O44	0.935500	0.004500	0.175200
O451	O45	0.792400	0.296800	0.423200
O461	O46	0.522900	0.472300	0.172300
O471	O47	0.640400	0.321400	0.345900
O481	O48	0.602900	0.260200	0.455700
O491	O49	0.576800	0.659500	0.343600
O501	O50	0.378300	0.346100	0.341300
O511	O51	0.867300	0.192400	0.052500
Na21	Na2	0.243000	0.253200	0.749440
P91	P9	0.494980	0.628170	0.842100
P101	P10	0.201950	0.778000	0.893180
P111	P11	0.437030	0.412440	0.708270
P121	P12	0.858120	0.765210	0.890400
P131	P13	0.010420	0.869150	0.655720
P141	P14	0.322640	0.738250	0.601250
P151	P15	0.662940	0.716980	0.607510
P161	P16	0.050710	0.084430	0.794130
Mo131	Mo13	0.637640	0.740560	0.969550
Mo141	Mo14	0.089100	0.761850	0.522090
Mo151	Mo15	0.879210	0.755660	0.526410
Mo161	Mo16	0.429540	0.743710	0.973800
Mo171	Mo17	0.759420	0.928260	0.605070
Mo181	Mo18	0.323540	0.435430	0.847150
Mo191	Mo19	0.881630	0.057660	0.663010
Mo201	Mo20	0.609350	0.431700	0.837450
Mo211	Mo21	0.741690	0.558410	0.892430
Mo221	Mo22	0.248030	0.566430	0.906190
Mo231	Mo23	0.169780	0.067880	0.656020
Mo241	Mo24	0.254810	0.942650	0.598040
Zn31	Zn3	0.040330	0.873590	0.802600
Zn41	Zn4	0.480820	0.623290	0.693940
O521	O52	0.537200	0.811300	0.923600
O531	O53	0.987600	0.846000	0.495300
O541	O54	0.524200	0.655700	0.002000
O551	O55	0.985600	0.687500	0.570100
O561	O56	0.623000	0.479500	0.924800
O571	O57	0.794100	0.955000	0.696100
O581	O58	0.704100	0.527900	0.801900
O591	O59	0.351700	0.484900	0.933400
O601	O60	0.771900	0.688800	0.586500
O611	O61	0.872300	0.013400	0.574600
O621	O62	0.935600	0.765900	0.950000
O631	O63	0.751100	0.799800	0.909600
O641	O64	0.323800	0.831400	0.629900
O651	O65	0.678200	0.811100	0.636400
O661	O66	0.902200	0.842900	0.617300
O671	O67	0.148100	0.020400	0.568700
O681	O68	0.459300	0.365200	0.866400
O691	O69	0.248500	0.971600	0.689200
O701	O70	0.175700	0.826900	0.832900
O711	O71	0.301400	0.643300	0.988500
O721	O72	0.248900	0.534700	0.815100
O731	O73	0.263600	0.154700	0.648500
O741	O74	0.491000	0.679700	0.779200
O751	O75	0.014400	0.818500	0.717800
O761	O76	0.103500	0.848300	0.614000
O771	O77	0.906400	0.826300	0.840300
O781	O78	0.736600	0.634700	0.976900
O791	O79	0.546300	0.404700	0.746200
O801	O80	0.142700	0.106200	0.748200
O811	O81	0.832500	0.671000	0.860800
O821	O82	0.939500	0.081200	0.756200
O831	O83	0.319200	0.805600	0.916800
O841	O84	0.179500	0.678700	0.878800
O851	O85	0.583700	0.710000	0.548300
O861	O86	0.771600	0.855200	0.519400
O871	O87	0.021400	0.969400	0.671300
O881	O88	0.056300	0.156100	0.845800
O891	O89	0.605700	0.651000	0.878100
O901	O90	0.212600	0.867600	0.512700
O911	O91	0.027400	0.132300	0.636300
O921	O92	0.435300	0.502800	0.677500
O931	O93	0.343200	0.398100	0.754100
O941	O94	0.404200	0.653600	0.884200
O951	O95	0.064500	0.995500	0.824800
O961	O96	0.207600	0.703200	0.576800
O971	O97	0.477100	0.527700	0.827700
O981	O98	0.359600	0.678600	0.654100
O991	O99	0.397100	0.739800	0.544300
O1001	O100	0.423200	0.340500	0.656400
O1011	O101	0.621700	0.653900	0.658700
O1021	O102	0.132700	0.807600	0.947500
Na31	Na3	0.500000	0.500000	0.000000
Na41	Na4	0.000000	0.000000	0.500000
