data_TEWFOS_clean_PM
_symmetry_space_group_name_H-M	'P1'
_cell_length_a	14.793200
_cell_length_b	16.788500
_cell_length_c	27.772500
_cell_angle_alpha	90.000000
_cell_angle_beta	90.000000
_cell_angle_gamma	90.000000
_symmetry_Int_Tables_number 1

loop_
_symmetry_equiv_pos_as_xyz
'x,y,z'

loop_
_atom_site_label
_atom_site_type_symbol
_atom_site_fract_x
_atom_site_fract_y
_atom_site_fract_z
N11	N1	0.439100	0.949230	0.387770
O11	O1	0.324610	0.237760	0.192700
O21	O2	0.301050	0.930970	0.425490
C11	C1	0.380200	0.948500	0.426980
O31	O3	0.434970	0.314970	0.222020
N21	N2	0.301200	0.148260	0.276940
O41	O4	0.588240	0.981340	0.372530
C21	C2	0.402800	0.271800	0.190740
C31	C3	0.389500	0.137800	0.280230
H11	H1	0.428400	0.178900	0.269100
C41	C4	0.408600	0.264900	0.100870
H21	H2	0.345300	0.274700	0.100800
C51	C5	0.453800	0.258050	0.144280
C61	C6	0.428000	0.069100	0.299380
H31	H3	0.491800	0.063500	0.301100
C71	C7	0.409500	0.984000	0.516550
H41	H4	0.349800	0.973900	0.527400
C81	C8	0.525700	0.974200	0.400310
C91	C9	0.435200	0.973700	0.469260
C101	C10	0.410700	0.933810	0.338450
H51	H5	0.364400	0.891300	0.338200
H61	H6	0.463100	0.915200	0.319300
C111	C11	0.280500	0.020200	0.312710
H71	H7	0.240300	0.980200	0.323900
C121	C12	0.371900	0.009020	0.315850
C131	C13	0.477300	0.010300	0.547020
C141	C14	0.247100	0.089700	0.293250
H81	H8	0.183400	0.096500	0.291200
C151	C15	0.453800	0.257600	0.057920
H91	H9	0.422100	0.262900	0.028300
N31	N3	0.939100	0.449230	0.887770
O51	O5	0.824610	0.737760	0.692700
O61	O6	0.801050	0.430970	0.925490
C161	C16	0.880200	0.448500	0.926980
O71	O7	0.934970	0.814970	0.722020
N41	N4	0.801200	0.648260	0.776940
O81	O8	0.088240	0.481340	0.872530
C171	C17	0.902800	0.771800	0.690740
C181	C18	0.889500	0.637800	0.780230
H101	H10	0.928400	0.678900	0.769100
C191	C19	0.908600	0.764900	0.600870
H111	H11	0.845300	0.774700	0.600800
C201	C20	0.953800	0.758050	0.644280
C211	C21	0.928000	0.569100	0.799380
H121	H12	0.991800	0.563500	0.801100
C221	C22	0.909500	0.484000	0.016550
H131	H13	0.849800	0.473900	0.027400
C231	C23	0.025700	0.474200	0.900310
C241	C24	0.935200	0.473700	0.969260
C251	C25	0.910700	0.433810	0.838450
H141	H14	0.864400	0.391300	0.838200
H151	H15	0.963100	0.415200	0.819300
C261	C26	0.780500	0.520200	0.812710
H161	H16	0.740300	0.480200	0.823900
C271	C27	0.871900	0.509020	0.815850
C281	C28	0.977300	0.510300	0.047020
C291	C29	0.747100	0.589700	0.793250
H171	H17	0.683400	0.596500	0.791200
C301	C30	0.953800	0.757600	0.557920
H181	H18	0.922100	0.762900	0.528300
N51	N5	0.060900	0.050770	0.887770
O91	O9	0.175390	0.762240	0.692700
O101	O10	0.198950	0.069030	0.925490
C311	C31	0.119800	0.051500	0.926980
O111	O11	0.065030	0.685030	0.722020
N61	N6	0.198800	0.851740	0.776940
O121	O12	0.911760	0.018660	0.872530
C321	C32	0.097200	0.728200	0.690740
C331	C33	0.110500	0.862200	0.780230
H191	H19	0.071600	0.821100	0.769100
C341	C34	0.091400	0.735100	0.600870
H201	H20	0.154700	0.725300	0.600800
C351	C35	0.046200	0.741950	0.644280
C361	C36	0.072000	0.930900	0.799380
H211	H21	0.008200	0.936500	0.801100
C371	C37	0.090500	0.016000	0.016550
H221	H22	0.150200	0.026100	0.027400
C381	C38	0.974300	0.025800	0.900310
C391	C39	0.064800	0.026300	0.969260
C401	C40	0.089300	0.066190	0.838450
H231	H23	0.135600	0.108700	0.838200
H241	H24	0.036900	0.084800	0.819300
C411	C41	0.219500	0.979800	0.812710
H251	H25	0.259700	0.019800	0.823900
C421	C42	0.128100	0.990980	0.815850
C431	C43	0.022700	0.989700	0.047020
C441	C44	0.252900	0.910300	0.793250
H261	H26	0.316600	0.903500	0.791200
C451	C45	0.046200	0.742400	0.557920
H271	H27	0.077900	0.737100	0.528300
N71	N7	0.560900	0.550770	0.387770
O131	O13	0.675390	0.262240	0.192700
O141	O14	0.698950	0.569030	0.425490
C461	C46	0.619800	0.551500	0.426980
O151	O15	0.565030	0.185030	0.222020
N81	N8	0.698800	0.351740	0.276940
O161	O16	0.411760	0.518660	0.372530
C471	C47	0.597200	0.228200	0.190740
C481	C48	0.610500	0.362200	0.280230
H281	H28	0.571600	0.321100	0.269100
C491	C49	0.591400	0.235100	0.100870
H291	H29	0.654700	0.225300	0.100800
C501	C50	0.546200	0.241950	0.144280
C511	C51	0.572000	0.430900	0.299380
H301	H30	0.508200	0.436500	0.301100
C521	C52	0.590500	0.516000	0.516550
H311	H31	0.650200	0.526100	0.527400
C531	C53	0.474300	0.525800	0.400310
C541	C54	0.564800	0.526300	0.469260
C551	C55	0.589300	0.566190	0.338450
H321	H32	0.635600	0.608700	0.338200
H331	H33	0.536900	0.584800	0.319300
C561	C56	0.719500	0.479800	0.312710
H341	H34	0.759700	0.519800	0.323900
C571	C57	0.628100	0.490980	0.315850
C581	C58	0.522700	0.489700	0.547020
C591	C59	0.752900	0.410300	0.293250
H351	H35	0.816600	0.403500	0.291200
C601	C60	0.546200	0.242400	0.057920
H361	H36	0.577900	0.237100	0.028300
N91	N9	0.560900	0.050770	0.612230
O171	O17	0.675390	0.762240	0.807300
O181	O18	0.698950	0.069030	0.574510
C611	C61	0.619800	0.051500	0.573020
O191	O19	0.565030	0.685030	0.777980
N101	N10	0.698800	0.851740	0.723060
O201	O20	0.411760	0.018660	0.627470
C621	C62	0.597200	0.728200	0.809260
C631	C63	0.610500	0.862200	0.719770
H371	H37	0.571600	0.821100	0.730900
C641	C64	0.591400	0.735100	0.899130
H381	H38	0.654700	0.725300	0.899200
C651	C65	0.546200	0.741950	0.855720
C661	C66	0.572000	0.930900	0.700620
H391	H39	0.508200	0.936500	0.698900
C671	C67	0.590500	0.016000	0.483450
H401	H40	0.650200	0.026100	0.472600
C681	C68	0.474300	0.025800	0.599690
C691	C69	0.564800	0.026300	0.530740
C701	C70	0.589300	0.066190	0.661550
H411	H41	0.635600	0.108700	0.661800
H421	H42	0.536900	0.084800	0.680700
C711	C71	0.719500	0.979800	0.687290
H431	H43	0.759700	0.019800	0.676100
C721	C72	0.628100	0.990980	0.684150
C731	C73	0.522700	0.989700	0.452980
C741	C74	0.752900	0.910300	0.706750
H441	H44	0.816600	0.903500	0.708800
C751	C75	0.546200	0.742400	0.942080
H451	H45	0.577900	0.737100	0.971700
N111	N11	0.060900	0.550770	0.112230
O211	O21	0.175390	0.262240	0.307300
O221	O22	0.198950	0.569030	0.074510
C761	C76	0.119800	0.551500	0.073020
O231	O23	0.065030	0.185030	0.277980
N121	N12	0.198800	0.351740	0.223060
O241	O24	0.911760	0.518660	0.127470
C771	C77	0.097200	0.228200	0.309260
C781	C78	0.110500	0.362200	0.219770
H461	H46	0.071600	0.321100	0.230900
C791	C79	0.091400	0.235100	0.399130
H471	H47	0.154700	0.225300	0.399200
C801	C80	0.046200	0.241950	0.355720
C811	C81	0.072000	0.430900	0.200620
H481	H48	0.008200	0.436500	0.198900
C821	C82	0.090500	0.516000	0.983450
H491	H49	0.150200	0.526100	0.972600
C831	C83	0.974300	0.525800	0.099690
C841	C84	0.064800	0.526300	0.030740
C851	C85	0.089300	0.566190	0.161550
H501	H50	0.135600	0.608700	0.161800
H511	H51	0.036900	0.584800	0.180700
C861	C86	0.219500	0.479800	0.187290
H521	H52	0.259700	0.519800	0.176100
C871	C87	0.128100	0.490980	0.184150
C881	C88	0.022700	0.489700	0.952980
C891	C89	0.252900	0.410300	0.206750
H531	H53	0.316600	0.403500	0.208800
C901	C90	0.046200	0.242400	0.442080
H541	H54	0.077900	0.237100	0.471700
N131	N13	0.939100	0.949230	0.112230
O251	O25	0.824610	0.237760	0.307300
O261	O26	0.801050	0.930970	0.074510
C911	C91	0.880200	0.948500	0.073020
O271	O27	0.934970	0.314970	0.277980
N141	N14	0.801200	0.148260	0.223060
O281	O28	0.088240	0.981340	0.127470
C921	C92	0.902800	0.271800	0.309260
C931	C93	0.889500	0.137800	0.219770
H551	H55	0.928400	0.178900	0.230900
C941	C94	0.908600	0.264900	0.399130
H561	H56	0.845300	0.274700	0.399200
C951	C95	0.953800	0.258050	0.355720
C961	C96	0.928000	0.069100	0.200620
H571	H57	0.991800	0.063500	0.198900
C971	C97	0.909500	0.984000	0.983450
H581	H58	0.849800	0.973900	0.972600
C981	C98	0.025700	0.974200	0.099690
C991	C99	0.935200	0.973700	0.030740
C1001	C100	0.910700	0.933810	0.161550
H591	H59	0.864400	0.891300	0.161800
H601	H60	0.963100	0.915200	0.180700
C1011	C101	0.780500	0.020200	0.187290
H611	H61	0.740300	0.980200	0.176100
C1021	C102	0.871900	0.009020	0.184150
C1031	C103	0.977300	0.010300	0.952980
C1041	C104	0.747100	0.089700	0.206750
H621	H62	0.683400	0.096500	0.208800
C1051	C105	0.953800	0.257600	0.442080
H631	H63	0.922100	0.262900	0.471700
N151	N15	0.439100	0.449230	0.612230
O291	O29	0.324610	0.737760	0.807300
O301	O30	0.301050	0.430970	0.574510
C1061	C106	0.380200	0.448500	0.573020
O311	O31	0.434970	0.814970	0.777980
N161	N16	0.301200	0.648260	0.723060
O321	O32	0.588240	0.481340	0.627470
C1071	C107	0.402800	0.771800	0.809260
C1081	C108	0.389500	0.637800	0.719770
H641	H64	0.428400	0.678900	0.730900
C1091	C109	0.408600	0.764900	0.899130
H651	H65	0.345300	0.774700	0.899200
C1101	C110	0.453800	0.758050	0.855720
C1111	C111	0.428000	0.569100	0.700620
H661	H66	0.491800	0.563500	0.698900
C1121	C112	0.409500	0.484000	0.483450
H671	H67	0.349800	0.473900	0.472600
C1131	C113	0.525700	0.474200	0.599690
C1141	C114	0.435200	0.473700	0.530740
C1151	C115	0.410700	0.433810	0.661550
H681	H68	0.364400	0.391300	0.661800
H691	H69	0.463100	0.415200	0.680700
C1161	C116	0.280500	0.520200	0.687290
H701	H70	0.240300	0.480200	0.676100
C1171	C117	0.371900	0.509020	0.684150
C1181	C118	0.477300	0.510300	0.452980
C1191	C119	0.247100	0.589700	0.706750
H711	H71	0.183400	0.596500	0.708800
C1201	C120	0.453800	0.757600	0.942080
H721	H72	0.422100	0.762900	0.971700
Cu11	Cu1	0.250000	0.250000	0.250000
Cu21	Cu2	0.250000	0.750000	0.750000
Cu31	Cu3	0.750000	0.750000	0.750000
Cu41	Cu4	0.750000	0.250000	0.250000
N171	N17	0.560900	0.449230	0.112230
O331	O33	0.675390	0.737760	0.307300
O341	O34	0.698950	0.430970	0.074510
C1211	C121	0.619800	0.448500	0.073020
O351	O35	0.565030	0.814970	0.277980
N181	N18	0.698800	0.648260	0.223060
O361	O36	0.411760	0.481340	0.127470
C1221	C122	0.597200	0.771800	0.309260
C1231	C123	0.610500	0.637800	0.219770
H731	H73	0.571600	0.678900	0.230900
C1241	C124	0.591400	0.764900	0.399130
H741	H74	0.654700	0.774700	0.399200
C1251	C125	0.546200	0.758050	0.355720
C1261	C126	0.572000	0.569100	0.200620
H751	H75	0.508200	0.563500	0.198900
C1271	C127	0.590500	0.484000	0.983450
H761	H76	0.650200	0.473900	0.972600
C1281	C128	0.474300	0.474200	0.099690
C1291	C129	0.564800	0.473700	0.030740
C1301	C130	0.589300	0.433810	0.161550
H771	H77	0.635600	0.391300	0.161800
H781	H78	0.536900	0.415200	0.180700
C1311	C131	0.719500	0.520200	0.187290
H791	H79	0.759700	0.480200	0.176100
C1321	C132	0.628100	0.509020	0.184150
C1331	C133	0.522700	0.510300	0.952980
C1341	C134	0.752900	0.589700	0.206750
H801	H80	0.816600	0.596500	0.208800
C1351	C135	0.546200	0.757600	0.442080
H811	H81	0.577900	0.762900	0.471700
N191	N19	0.060900	0.949230	0.612230
O371	O37	0.175390	0.237760	0.807300
O381	O38	0.198950	0.930970	0.574510
C1361	C136	0.119800	0.948500	0.573020
O391	O39	0.065030	0.314970	0.777980
N201	N20	0.198800	0.148260	0.723060
O401	O40	0.911760	0.981340	0.627470
C1371	C137	0.097200	0.271800	0.809260
C1381	C138	0.110500	0.137800	0.719770
H821	H82	0.071600	0.178900	0.730900
C1391	C139	0.091400	0.264900	0.899130
H831	H83	0.154700	0.274700	0.899200
C1401	C140	0.046200	0.258050	0.855720
C1411	C141	0.072000	0.069100	0.700620
H841	H84	0.008200	0.063500	0.698900
C1421	C142	0.090500	0.984000	0.483450
H851	H85	0.150200	0.973900	0.472600
C1431	C143	0.974300	0.974200	0.599690
C1441	C144	0.064800	0.973700	0.530740
C1451	C145	0.089300	0.933810	0.661550
H861	H86	0.135600	0.891300	0.661800
H871	H87	0.036900	0.915200	0.680700
C1461	C146	0.219500	0.020200	0.687290
H881	H88	0.259700	0.980200	0.676100
C1471	C147	0.128100	0.009020	0.684150
C1481	C148	0.022700	0.010300	0.452980
C1491	C149	0.252900	0.089700	0.706750
H891	H89	0.316600	0.096500	0.708800
C1501	C150	0.046200	0.257600	0.942080
H901	H90	0.077900	0.262900	0.971700
N211	N21	0.939100	0.550770	0.612230
O411	O41	0.824610	0.262240	0.807300
O421	O42	0.801050	0.569030	0.574510
C1511	C151	0.880200	0.551500	0.573020
O431	O43	0.934970	0.185030	0.777980
N221	N22	0.801200	0.351740	0.723060
O441	O44	0.088240	0.518660	0.627470
C1521	C152	0.902800	0.228200	0.809260
C1531	C153	0.889500	0.362200	0.719770
H911	H91	0.928400	0.321100	0.730900
C1541	C154	0.908600	0.235100	0.899130
H921	H92	0.845300	0.225300	0.899200
C1551	C155	0.953800	0.241950	0.855720
C1561	C156	0.928000	0.430900	0.700620
H931	H93	0.991800	0.436500	0.698900
C1571	C157	0.909500	0.516000	0.483450
H941	H94	0.849800	0.526100	0.472600
C1581	C158	0.025700	0.525800	0.599690
C1591	C159	0.935200	0.526300	0.530740
C1601	C160	0.910700	0.566190	0.661550
H951	H95	0.864400	0.608700	0.661800
H961	H96	0.963100	0.584800	0.680700
C1611	C161	0.780500	0.479800	0.687290
H971	H97	0.740300	0.519800	0.676100
C1621	C162	0.871900	0.490980	0.684150
C1631	C163	0.977300	0.489700	0.452980
C1641	C164	0.747100	0.410300	0.706750
H981	H98	0.683400	0.403500	0.708800
C1651	C165	0.953800	0.242400	0.942080
H991	H99	0.922100	0.237100	0.971700
N231	N23	0.439100	0.050770	0.112230
O451	O45	0.324610	0.762240	0.307300
O461	O46	0.301050	0.069030	0.074510
C1661	C166	0.380200	0.051500	0.073020
O471	O47	0.434970	0.685030	0.277980
N241	N24	0.301200	0.851740	0.223060
O481	O48	0.588240	0.018660	0.127470
C1671	C167	0.402800	0.728200	0.309260
C1681	C168	0.389500	0.862200	0.219770
H1001	H100	0.428400	0.821100	0.230900
C1691	C169	0.408600	0.735100	0.399130
H1011	H101	0.345300	0.725300	0.399200
C1701	C170	0.453800	0.741950	0.355720
C1711	C171	0.428000	0.930900	0.200620
H1021	H102	0.491800	0.936500	0.198900
C1721	C172	0.409500	0.016000	0.983450
H1031	H103	0.349800	0.026100	0.972600
C1731	C173	0.525700	0.025800	0.099690
C1741	C174	0.435200	0.026300	0.030740
C1751	C175	0.410700	0.066190	0.161550
H1041	H104	0.364400	0.108700	0.161800
H1051	H105	0.463100	0.084800	0.180700
C1761	C176	0.280500	0.979800	0.187290
H1061	H106	0.240300	0.019800	0.176100
C1771	C177	0.371900	0.990980	0.184150
C1781	C178	0.477300	0.989700	0.952980
C1791	C179	0.247100	0.910300	0.206750
H1071	H107	0.183400	0.903500	0.208800
C1801	C180	0.453800	0.742400	0.442080
H1081	H108	0.422100	0.737100	0.471700
N251	N25	0.439100	0.550770	0.887770
O491	O49	0.324610	0.262240	0.692700
O501	O50	0.301050	0.569030	0.925490
C1811	C181	0.380200	0.551500	0.926980
O511	O51	0.434970	0.185030	0.722020
N261	N26	0.301200	0.351740	0.776940
O521	O52	0.588240	0.518660	0.872530
C1821	C182	0.402800	0.228200	0.690740
C1831	C183	0.389500	0.362200	0.780230
H1091	H109	0.428400	0.321100	0.769100
C1841	C184	0.408600	0.235100	0.600870
H1101	H110	0.345300	0.225300	0.600800
C1851	C185	0.453800	0.241950	0.644280
C1861	C186	0.428000	0.430900	0.799380
H1111	H111	0.491800	0.436500	0.801100
C1871	C187	0.409500	0.516000	0.016550
H1121	H112	0.349800	0.526100	0.027400
C1881	C188	0.525700	0.525800	0.900310
C1891	C189	0.435200	0.526300	0.969260
C1901	C190	0.410700	0.566190	0.838450
H1131	H113	0.364400	0.608700	0.838200
H1141	H114	0.463100	0.584800	0.819300
C1911	C191	0.280500	0.479800	0.812710
H1151	H115	0.240300	0.519800	0.823900
C1921	C192	0.371900	0.490980	0.815850
C1931	C193	0.477300	0.489700	0.047020
C1941	C194	0.247100	0.410300	0.793250
H1161	H116	0.183400	0.403500	0.791200
C1951	C195	0.453800	0.242400	0.557920
H1171	H117	0.422100	0.237100	0.528300
N271	N27	0.939100	0.050770	0.387770
O531	O53	0.824610	0.762240	0.192700
O541	O54	0.801050	0.069030	0.425490
C1961	C196	0.880200	0.051500	0.426980
O551	O55	0.934970	0.685030	0.222020
N281	N28	0.801200	0.851740	0.276940
O561	O56	0.088240	0.018660	0.372530
C1971	C197	0.902800	0.728200	0.190740
C1981	C198	0.889500	0.862200	0.280230
H1181	H118	0.928400	0.821100	0.269100
C1991	C199	0.908600	0.735100	0.100870
H1191	H119	0.845300	0.725300	0.100800
C2001	C200	0.953800	0.741950	0.144280
C2011	C201	0.928000	0.930900	0.299380
H1201	H120	0.991800	0.936500	0.301100
C2021	C202	0.909500	0.016000	0.516550
H1211	H121	0.849800	0.026100	0.527400
C2031	C203	0.025700	0.025800	0.400310
C2041	C204	0.935200	0.026300	0.469260
C2051	C205	0.910700	0.066190	0.338450
H1221	H122	0.864400	0.108700	0.338200
H1231	H123	0.963100	0.084800	0.319300
C2061	C206	0.780500	0.979800	0.312710
H1241	H124	0.740300	0.019800	0.323900
C2071	C207	0.871900	0.990980	0.315850
C2081	C208	0.977300	0.989700	0.547020
C2091	C209	0.747100	0.910300	0.293250
H1251	H125	0.683400	0.903500	0.291200
C2101	C210	0.953800	0.742400	0.057920
H1261	H126	0.922100	0.737100	0.028300
N291	N29	0.060900	0.449230	0.387770
O571	O57	0.175390	0.737760	0.192700
O581	O58	0.198950	0.430970	0.425490
C2111	C211	0.119800	0.448500	0.426980
O591	O59	0.065030	0.814970	0.222020
N301	N30	0.198800	0.648260	0.276940
O601	O60	0.911760	0.481340	0.372530
C2121	C212	0.097200	0.771800	0.190740
C2131	C213	0.110500	0.637800	0.280230
H1271	H127	0.071600	0.678900	0.269100
C2141	C214	0.091400	0.764900	0.100870
H1281	H128	0.154700	0.774700	0.100800
C2151	C215	0.046200	0.758050	0.144280
C2161	C216	0.072000	0.569100	0.299380
H1291	H129	0.008200	0.563500	0.301100
C2171	C217	0.090500	0.484000	0.516550
H1301	H130	0.150200	0.473900	0.527400
C2181	C218	0.974300	0.474200	0.400310
C2191	C219	0.064800	0.473700	0.469260
C2201	C220	0.089300	0.433810	0.338450
H1311	H131	0.135600	0.391300	0.338200
H1321	H132	0.036900	0.415200	0.319300
C2211	C221	0.219500	0.520200	0.312710
H1331	H133	0.259700	0.480200	0.323900
C2221	C222	0.128100	0.509020	0.315850
C2231	C223	0.022700	0.510300	0.547020
C2241	C224	0.252900	0.589700	0.293250
H1341	H134	0.316600	0.596500	0.291200
C2251	C225	0.046200	0.757600	0.057920
H1351	H135	0.077900	0.762900	0.028300
N311	N31	0.560900	0.949230	0.887770
O611	O61	0.675390	0.237760	0.692700
O621	O62	0.698950	0.930970	0.925490
C2261	C226	0.619800	0.948500	0.926980
O631	O63	0.565030	0.314970	0.722020
N321	N32	0.698800	0.148260	0.776940
O641	O64	0.411760	0.981340	0.872530
C2271	C227	0.597200	0.271800	0.690740
C2281	C228	0.610500	0.137800	0.780230
H1361	H136	0.571600	0.178900	0.769100
C2291	C229	0.591400	0.264900	0.600870
H1371	H137	0.654700	0.274700	0.600800
C2301	C230	0.546200	0.258050	0.644280
C2311	C231	0.572000	0.069100	0.799380
H1381	H138	0.508200	0.063500	0.801100
C2321	C232	0.590500	0.984000	0.016550
H1391	H139	0.650200	0.973900	0.027400
C2331	C233	0.474300	0.974200	0.900310
C2341	C234	0.564800	0.973700	0.969260
C2351	C235	0.589300	0.933810	0.838450
H1401	H140	0.635600	0.891300	0.838200
H1411	H141	0.536900	0.915200	0.819300
C2361	C236	0.719500	0.020200	0.812710
H1421	H142	0.759700	0.980200	0.823900
C2371	C237	0.628100	0.009020	0.815850
C2381	C238	0.522700	0.010300	0.047020
C2391	C239	0.752900	0.089700	0.793250
H1431	H143	0.816600	0.096500	0.791200
C2401	C240	0.546200	0.257600	0.557920
H1441	H144	0.577900	0.262900	0.528300
Cu51	Cu5	0.750000	0.750000	0.250000
Cu61	Cu6	0.750000	0.250000	0.750000
Cu71	Cu7	0.250000	0.250000	0.750000
Cu81	Cu8	0.250000	0.750000	0.250000
