data_TEWFUY_clean_PM
_symmetry_space_group_name_H-M	'P1'
_cell_length_a	14.917900
_cell_length_b	16.766000
_cell_length_c	17.805700
_cell_angle_alpha	61.913400
_cell_angle_beta	65.234300
_cell_angle_gamma	90.000000
_symmetry_Int_Tables_number 1

loop_
_symmetry_equiv_pos_as_xyz
'x,y,z'

loop_
_atom_site_label
_atom_site_type_symbol
_atom_site_fract_x
_atom_site_fract_y
_atom_site_fract_z
Cu11	Cu1	0.000000	0.000000	0.500000
Cu21	Cu2	0.500000	0.000000	0.500000
H11	H1	0.976100	0.194700	0.415800
H21	H2	0.063000	0.344800	0.353200
H31	H3	0.289400	0.239700	0.397400
H41	H4	0.195300	0.089200	0.463800
H51	H5	0.276500	0.402500	0.364600
H61	H6	0.199300	0.446200	0.324400
H71	H7	0.378100	0.549800	0.944400
H81	H8	0.051900	0.179800	0.201600
H91	H9	0.049400	0.238400	0.055200
H101	H10	0.608100	0.889500	0.415800
H111	H11	0.583800	0.802000	0.353200
H121	H12	0.313200	0.862900	0.397400
H131	H13	0.340900	0.947000	0.463800
H141	H14	0.358900	0.732900	0.364600
H151	H15	0.476300	0.729400	0.324400
H161	H16	0.677500	0.005800	0.944400
H171	H17	0.746500	0.118600	0.201600
H181	H18	0.895400	0.206400	0.055200
H191	H19	0.023900	0.805300	0.584200
H201	H20	0.937000	0.655200	0.646800
H211	H21	0.710600	0.760300	0.602600
H221	H22	0.804700	0.910800	0.536200
H231	H23	0.723500	0.597500	0.635400
H241	H24	0.800700	0.553800	0.675600
H251	H25	0.621900	0.450200	0.055600
H261	H26	0.948100	0.820200	0.798400
H271	H27	0.950600	0.761600	0.944800
H281	H28	0.391900	0.110500	0.584200
H291	H29	0.416200	0.198000	0.646800
H301	H30	0.686800	0.137100	0.602600
H311	H31	0.659100	0.053000	0.536200
H321	H32	0.641100	0.267100	0.635400
H331	H33	0.523700	0.270600	0.675600
H341	H34	0.322500	0.994200	0.055600
H351	H35	0.253500	0.881400	0.798400
H361	H36	0.104600	0.793600	0.944800
C11	C1	0.040600	0.203300	0.413000
C21	C2	0.092500	0.293800	0.374400
C31	C3	0.186100	0.307700	0.367400
C41	C4	0.224400	0.231600	0.401000
C51	C5	0.167700	0.141200	0.440800
C61	C6	0.245500	0.403800	0.324600
C71	C7	0.424300	0.427700	0.200400
C81	C8	0.308300	0.478300	0.146000
C91	C9	0.404800	0.493900	0.062200
C101	C10	0.426600	0.530100	0.966400
C111	C11	0.524900	0.534600	0.906400
C121	C12	0.905400	0.083400	0.381200
C131	C13	0.901100	0.115300	0.287800
C141	C14	0.989900	0.167600	0.201400
C151	C15	0.988600	0.202100	0.114600
C161	C16	0.546400	0.883700	0.413000
C171	C17	0.533100	0.831800	0.374400
C181	C18	0.446500	0.824900	0.367400
C191	C19	0.374600	0.867400	0.401000
C201	C20	0.391500	0.918000	0.440800
C211	C21	0.429900	0.771600	0.324600
C221	C22	0.375300	0.871900	0.200400
C231	C23	0.545700	0.875700	0.146000
C241	C24	0.533000	0.943900	0.062200
C251	C25	0.607000	0.003500	0.966400
C261	C26	0.568700	0.059000	0.906400
C271	C27	0.713400	0.035400	0.381200
C281	C28	0.811100	0.096900	0.287800
C291	C29	0.808700	0.131000	0.201400
C301	C30	0.896800	0.183300	0.114600
C311	C31	0.959400	0.796700	0.587000
C321	C32	0.907500	0.706200	0.625600
C331	C33	0.813900	0.692300	0.632600
C341	C34	0.775600	0.768400	0.599000
C351	C35	0.832300	0.858800	0.559200
C361	C36	0.754500	0.596200	0.675400
C371	C37	0.575700	0.572300	0.799600
C381	C38	0.691700	0.521700	0.854000
C391	C39	0.595200	0.506100	0.937800
C401	C40	0.573400	0.469900	0.033600
C411	C41	0.475100	0.465400	0.093600
C421	C42	0.094600	0.916600	0.618800
C431	C43	0.098900	0.884700	0.712200
C441	C44	0.010100	0.832400	0.798600
C451	C45	0.011400	0.797900	0.885400
C461	C46	0.453600	0.116300	0.587000
C471	C47	0.466900	0.168200	0.625600
C481	C48	0.553500	0.175100	0.632600
C491	C49	0.625400	0.132600	0.599000
C501	C50	0.608500	0.082000	0.559200
C511	C51	0.570100	0.228400	0.675400
C521	C52	0.624700	0.128100	0.799600
C531	C53	0.454300	0.124300	0.854000
C541	C54	0.467000	0.056100	0.937800
C551	C55	0.393000	0.996500	0.033600
C561	C56	0.431300	0.941000	0.093600
C571	C57	0.286600	0.964600	0.618800
C581	C58	0.188900	0.903100	0.712200
C591	C59	0.191300	0.869000	0.798600
C601	C60	0.103200	0.816700	0.885400
N11	N1	0.076600	0.127500	0.446400
N21	N2	0.326040	0.438540	0.225120
N31	N3	0.477000	0.926100	0.446400
N41	N4	0.448840	0.836340	0.225120
N51	N5	0.923400	0.872500	0.553600
N61	N6	0.673960	0.561460	0.774880
N71	N7	0.523000	0.073900	0.553600
N81	N8	0.551160	0.163660	0.774880
O11	O1	0.978170	0.047170	0.387660
O21	O2	0.839580	0.095980	0.443240
O31	O3	0.458330	0.394830	0.256140
O41	O4	0.228260	0.494160	0.148680
O51	O5	0.634170	0.065170	0.387660
O61	O6	0.717180	0.960780	0.443240
O71	O7	0.285530	0.849030	0.256140
O81	O8	0.623060	0.857160	0.148680
O91	O9	0.021830	0.952830	0.612340
O101	O10	0.160420	0.904020	0.556760
O111	O11	0.541670	0.605170	0.743860
O121	O12	0.771740	0.505840	0.851320
O131	O13	0.365830	0.934830	0.612340
O141	O14	0.282820	0.039220	0.556760
O151	O15	0.714470	0.150970	0.743860
O161	O16	0.376940	0.142840	0.851320
Cu31	Cu3	0.500000	0.500000	0.500000
Cu41	Cu4	0.000000	0.500000	0.500000
H371	H37	0.523900	0.610500	0.584200
H381	H38	0.437000	0.698000	0.646800
H391	H39	0.210600	0.637100	0.602600
H401	H40	0.304700	0.553000	0.536200
H411	H41	0.223500	0.767100	0.635400
H421	H42	0.300700	0.770600	0.675600
H431	H43	0.121900	0.494200	0.055600
H441	H44	0.448100	0.381400	0.798400
H451	H45	0.450600	0.293600	0.944800
H461	H46	0.891900	0.305300	0.584200
H471	H47	0.916200	0.155200	0.646800
H481	H48	0.186800	0.260300	0.602600
H491	H49	0.159100	0.410800	0.536200
H501	H50	0.141100	0.097500	0.635400
H511	H51	0.023700	0.053800	0.675600
H521	H52	0.822500	0.950200	0.055600
H531	H53	0.753500	0.320200	0.798400
H541	H54	0.604600	0.261600	0.944800
H551	H55	0.476100	0.389500	0.415800
H561	H56	0.563000	0.302000	0.353200
H571	H57	0.789400	0.362900	0.397400
H581	H58	0.695300	0.447000	0.463800
H591	H59	0.776500	0.232900	0.364600
H601	H60	0.699300	0.229400	0.324400
H611	H61	0.878100	0.505800	0.944400
H621	H62	0.551900	0.618600	0.201600
H631	H63	0.549400	0.706400	0.055200
H641	H64	0.108100	0.694700	0.415800
H651	H65	0.083800	0.844800	0.353200
H661	H66	0.813200	0.739700	0.397400
H671	H67	0.840900	0.589200	0.463800
H681	H68	0.858900	0.902500	0.364600
H691	H69	0.976300	0.946200	0.324400
H701	H70	0.177500	0.049800	0.944400
H711	H71	0.246500	0.679800	0.201600
H721	H72	0.395400	0.738400	0.055200
C611	C61	0.459400	0.616300	0.587000
C621	C62	0.407500	0.668200	0.625600
C631	C63	0.313900	0.675100	0.632600
C641	C64	0.275600	0.632600	0.599000
C651	C65	0.332300	0.582000	0.559200
C661	C66	0.254500	0.728400	0.675400
C671	C67	0.075700	0.628100	0.799600
C681	C68	0.191700	0.624300	0.854000
C691	C69	0.095200	0.556100	0.937800
C701	C70	0.073400	0.496500	0.033600
C711	C71	0.975100	0.441000	0.093600
C721	C72	0.594600	0.464600	0.618800
C731	C73	0.598900	0.403100	0.712200
C741	C74	0.510100	0.369000	0.798600
C751	C75	0.511400	0.316700	0.885400
C761	C76	0.953600	0.296700	0.587000
C771	C77	0.966900	0.206200	0.625600
C781	C78	0.053500	0.192300	0.632600
C791	C79	0.125400	0.268400	0.599000
C801	C80	0.108500	0.358800	0.559200
C811	C81	0.070100	0.096200	0.675400
C821	C82	0.124700	0.072300	0.799600
C831	C83	0.954300	0.021700	0.854000
C841	C84	0.967000	0.006100	0.937800
C851	C85	0.893000	0.969900	0.033600
C861	C86	0.931300	0.965400	0.093600
C871	C87	0.786600	0.416600	0.618800
C881	C88	0.688900	0.384700	0.712200
C891	C89	0.691300	0.332400	0.798600
C901	C90	0.603200	0.297900	0.885400
C911	C91	0.540600	0.383700	0.413000
C921	C92	0.592500	0.331800	0.374400
C931	C93	0.686100	0.324900	0.367400
C941	C94	0.724400	0.367400	0.401000
C951	C95	0.667700	0.418000	0.440800
C961	C96	0.745500	0.271600	0.324600
C971	C97	0.924300	0.371900	0.200400
C981	C98	0.808300	0.375700	0.146000
C991	C99	0.904800	0.443900	0.062200
C1001	C100	0.926600	0.503500	0.966400
C1011	C101	0.024900	0.559000	0.906400
C1021	C102	0.405400	0.535400	0.381200
C1031	C103	0.401100	0.596900	0.287800
C1041	C104	0.489900	0.631000	0.201400
C1051	C105	0.488600	0.683300	0.114600
C1061	C106	0.046400	0.703300	0.413000
C1071	C107	0.033100	0.793800	0.374400
C1081	C108	0.946500	0.807700	0.367400
C1091	C109	0.874600	0.731600	0.401000
C1101	C110	0.891500	0.641200	0.440800
C1111	C111	0.929900	0.903800	0.324600
C1121	C112	0.875300	0.927700	0.200400
C1131	C113	0.045700	0.978300	0.146000
C1141	C114	0.033000	0.993900	0.062200
C1151	C115	0.107000	0.030100	0.966400
C1161	C116	0.068700	0.034600	0.906400
C1171	C117	0.213400	0.583400	0.381200
C1181	C118	0.311100	0.615300	0.287800
C1191	C119	0.308700	0.667600	0.201400
C1201	C120	0.396800	0.702100	0.114600
N91	N9	0.423400	0.573900	0.553600
N101	N10	0.173960	0.663660	0.774880
N111	N11	0.023000	0.372500	0.553600
N121	N12	0.051160	0.061460	0.774880
N131	N13	0.576600	0.426100	0.446400
N141	N14	0.826040	0.336340	0.225120
N151	N15	0.977000	0.627500	0.446400
N161	N16	0.948840	0.938540	0.225120
O171	O17	0.521830	0.434830	0.612340
O181	O18	0.660420	0.539220	0.556760
O191	O19	0.041670	0.650970	0.743860
O201	O20	0.271740	0.642840	0.851320
O211	O21	0.865830	0.452830	0.612340
O221	O22	0.782820	0.404020	0.556760
O231	O23	0.214470	0.105170	0.743860
O241	O24	0.876940	0.005840	0.851320
O251	O25	0.478170	0.565170	0.387660
O261	O26	0.339580	0.460780	0.443240
O271	O27	0.958330	0.349030	0.256140
O281	O28	0.728260	0.357160	0.148680
O291	O29	0.134170	0.547170	0.387660
O301	O30	0.217180	0.595980	0.443240
O311	O31	0.785530	0.894830	0.256140
O321	O32	0.123060	0.994160	0.148680
