data_TEYHIP_charged_PM
_symmetry_space_group_name_H-M	'P1'
_cell_length_a	21.439300
_cell_length_b	21.439300
_cell_length_c	21.439300
_cell_angle_alpha	109.471000
_cell_angle_beta	109.471000
_cell_angle_gamma	109.471000
_symmetry_Int_Tables_number 1

loop_
_symmetry_equiv_pos_as_xyz
'x,y,z'

loop_
_atom_site_label
_atom_site_type_symbol
_atom_site_fract_x
_atom_site_fract_y
_atom_site_fract_z
Cd11	Cd1	0.000000	0.000000	0.000000
Cd21	Cd2	0.500000	0.000000	0.500000
Cd31	Cd3	0.000000	0.500000	0.500000
Cd41	Cd4	0.500000	0.500000	0.000000
H11	H1	0.916400	0.840400	0.998000
H21	H2	0.863700	0.782600	0.054500
H31	H3	0.894400	0.987600	0.185000
H41	H4	0.940000	0.032800	0.119800
H51	H5	0.835700	0.713000	0.236900
H61	H6	0.838400	0.885300	0.202500
H71	H7	0.342400	0.918400	0.502000
H81	H8	0.228100	0.809200	0.445500
H91	H9	0.302600	0.709400	0.315000
H101	H10	0.413000	0.820200	0.380200
H111	H11	0.976100	0.598800	0.263100
H121	H12	0.182800	0.635900	0.297500
H131	H13	0.157600	0.659600	0.576000
H141	H14	0.271900	0.717400	0.581100
H151	H15	0.197400	0.512400	0.406800
H161	H16	0.087000	0.467200	0.407200
H171	H17	0.523900	0.787000	0.622700
H181	H18	0.317200	0.614700	0.453100
H191	H19	0.583600	0.581600	0.924000
H201	H20	0.636300	0.690800	0.918900
H211	H21	0.605600	0.790600	0.093200
H221	H22	0.560000	0.679800	0.092800
H231	H23	0.664300	0.901200	0.877300
H241	H24	0.661600	0.864100	0.046900
H251	H25	0.076000	0.157600	0.159600
H261	H26	0.081100	0.271900	0.217400
H271	H27	0.906800	0.197400	0.012400
H281	H28	0.907200	0.087000	0.967200
H291	H29	0.122700	0.523900	0.287000
H301	H30	0.953100	0.317200	0.114700
H311	H31	0.424000	0.583600	0.081600
H321	H32	0.418900	0.636300	0.190800
H331	H33	0.593200	0.605600	0.290600
H341	H34	0.592800	0.560000	0.179800
H351	H35	0.377300	0.664300	0.401200
H361	H36	0.546900	0.661600	0.364100
H371	H37	0.498000	0.916400	0.340400
H381	H38	0.554500	0.863700	0.282600
H391	H39	0.685000	0.894400	0.487600
H401	H40	0.619800	0.940000	0.532800
H411	H41	0.736900	0.835700	0.213000
H421	H42	0.702500	0.838400	0.385300
H431	H43	0.002000	0.342400	0.418400
H441	H44	0.945500	0.228100	0.309200
H451	H45	0.815000	0.302600	0.209400
H461	H46	0.880200	0.413000	0.320200
H471	H47	0.763100	0.976100	0.098800
H481	H48	0.797500	0.182800	0.135900
H491	H49	0.918400	0.002000	0.842400
H501	H50	0.809200	0.945500	0.728100
H511	H51	0.709400	0.815000	0.802600
H521	H52	0.820200	0.880200	0.913000
H531	H53	0.598800	0.763100	0.476100
H541	H54	0.635900	0.797500	0.682800
H551	H55	0.840400	0.498000	0.416400
H561	H56	0.782600	0.554500	0.363700
H571	H57	0.987600	0.685000	0.394400
H581	H58	0.032800	0.619800	0.440000
H591	H59	0.713000	0.736900	0.335700
H601	H60	0.885300	0.702500	0.338400
H611	H61	0.581600	0.424000	0.083600
H621	H62	0.690800	0.418900	0.136300
H631	H63	0.790600	0.593200	0.105600
H641	H64	0.679800	0.592800	0.060000
H651	H65	0.901200	0.377300	0.164300
H661	H66	0.864100	0.546900	0.161600
H671	H67	0.659600	0.076000	0.657600
H681	H68	0.717400	0.081100	0.771900
H691	H69	0.512400	0.906800	0.697400
H701	H70	0.467200	0.907200	0.587000
H711	H71	0.787000	0.122700	0.023900
H721	H72	0.614700	0.953100	0.817200
H731	H73	0.083600	0.159600	0.002000
H741	H74	0.136300	0.217400	0.945500
H751	H75	0.105600	0.012400	0.815000
H761	H76	0.060000	0.967200	0.880200
H771	H77	0.164300	0.287000	0.763100
H781	H78	0.161600	0.114700	0.797500
H791	H79	0.657600	0.081600	0.498000
H801	H80	0.771900	0.190800	0.554500
H811	H81	0.697400	0.290600	0.685000
H821	H82	0.587000	0.179800	0.619800
H831	H83	0.023900	0.401200	0.736900
H841	H84	0.817200	0.364100	0.702500
H851	H85	0.842400	0.340400	0.424000
H861	H86	0.728100	0.282600	0.418900
H871	H87	0.802600	0.487600	0.593200
H881	H88	0.913000	0.532800	0.592800
H891	H89	0.476100	0.213000	0.377300
H901	H90	0.682800	0.385300	0.546900
H911	H91	0.416400	0.418400	0.076000
H921	H92	0.363700	0.309200	0.081100
H931	H93	0.394400	0.209400	0.906800
H941	H94	0.440000	0.320200	0.907200
H951	H95	0.335700	0.098800	0.122700
H961	H96	0.338400	0.135900	0.953100
H971	H97	0.924000	0.842400	0.840400
H981	H98	0.918900	0.728100	0.782600
H991	H99	0.093200	0.802600	0.987600
H1001	H100	0.092800	0.913000	0.032800
H1011	H101	0.877300	0.476100	0.713000
H1021	H102	0.046900	0.682800	0.885300
H1031	H103	0.576000	0.416400	0.918400
H1041	H104	0.581100	0.363700	0.809200
H1051	H105	0.406800	0.394400	0.709400
H1061	H106	0.407200	0.440000	0.820200
H1071	H107	0.622700	0.335700	0.598800
H1081	H108	0.453100	0.338400	0.635900
H1091	H109	0.502000	0.083600	0.659600
H1101	H110	0.445500	0.136300	0.717400
H1111	H111	0.315000	0.105600	0.512400
H1121	H112	0.380200	0.060000	0.467200
H1131	H113	0.263100	0.164300	0.787000
H1141	H114	0.297500	0.161600	0.614700
H1151	H115	0.998000	0.657600	0.581600
H1161	H116	0.054500	0.771900	0.690800
H1171	H117	0.185000	0.697400	0.790600
H1181	H118	0.119800	0.587000	0.679800
H1191	H119	0.236900	0.023900	0.901200
H1201	H120	0.202500	0.817200	0.864100
H1211	H121	0.081600	0.998000	0.157600
H1221	H122	0.190800	0.054500	0.271900
H1231	H123	0.290600	0.185000	0.197400
H1241	H124	0.179800	0.119800	0.087000
H1251	H125	0.401200	0.236900	0.523900
H1261	H126	0.364100	0.202500	0.317200
H1271	H127	0.159600	0.502000	0.583600
H1281	H128	0.217400	0.445500	0.636300
H1291	H129	0.012400	0.315000	0.605600
H1301	H130	0.967200	0.380200	0.560000
H1311	H131	0.287000	0.263100	0.664300
H1321	H132	0.114700	0.297500	0.661600
H1331	H133	0.418400	0.576000	0.916400
H1341	H134	0.309200	0.581100	0.863700
H1351	H135	0.209400	0.406800	0.894400
H1361	H136	0.320200	0.407200	0.940000
H1371	H137	0.098800	0.622700	0.835700
H1381	H138	0.135900	0.453100	0.838400
H1391	H139	0.340400	0.924000	0.342400
H1401	H140	0.282600	0.918900	0.228100
H1411	H141	0.487600	0.093200	0.302600
H1421	H142	0.532800	0.092800	0.413000
H1431	H143	0.213000	0.877300	0.976100
H1441	H144	0.385300	0.046900	0.182800
C11	C1	0.911300	0.870600	0.036500
C21	C2	0.879700	0.833800	0.069500
C31	C3	0.872600	0.879500	0.127500
C41	C4	0.897800	0.955600	0.146000
C51	C5	0.925400	0.982300	0.107100
C61	C6	0.821600	0.785300	0.165700
C71	C7	0.791500	0.775800	0.218100
C81	C8	0.805400	0.732900	0.246700
C91	C9	0.334100	0.874800	0.463500
C101	C10	0.264300	0.810200	0.430500
C111	C11	0.252000	0.745100	0.372500
C121	C12	0.309600	0.751800	0.354000
C131	C13	0.375200	0.818300	0.392900
C141	C14	0.119600	0.655900	0.334300
C151	C15	0.057700	0.573400	0.281900
C161	C16	0.986200	0.558700	0.253300
C171	C17	0.165900	0.629400	0.540700
C181	C18	0.235700	0.666200	0.545900
C191	C19	0.248000	0.620500	0.493100
C201	C20	0.190400	0.544400	0.442200
C211	C21	0.124800	0.517700	0.443100
C221	C22	0.380400	0.714700	0.536300
C231	C23	0.442300	0.724200	0.515700
C241	C24	0.513800	0.767100	0.572500
C251	C25	0.588700	0.625200	0.959300
C261	C26	0.620300	0.689800	0.954100
C271	C27	0.627400	0.754900	0.006900
C281	C28	0.602200	0.748200	0.057800
C291	C29	0.574600	0.681700	0.056900
C301	C30	0.678400	0.844100	0.963700
C311	C31	0.708500	0.926600	0.984300
C321	C32	0.694600	0.941300	0.927500
C331	C33	0.040700	0.165900	0.129400
C341	C34	0.045900	0.235700	0.166200
C351	C35	0.993100	0.248000	0.120500
C361	C36	0.942200	0.190400	0.044400
C371	C37	0.943100	0.124800	0.017700
C381	C38	0.036300	0.380400	0.214700
C391	C39	0.015700	0.442300	0.224200
C401	C40	0.072500	0.513800	0.267100
C411	C41	0.459300	0.588700	0.125200
C421	C42	0.454100	0.620300	0.189800
C431	C43	0.506900	0.627400	0.254900
C441	C44	0.557800	0.602200	0.248200
C451	C45	0.556900	0.574600	0.181700
C461	C46	0.463700	0.678400	0.344100
C471	C47	0.484300	0.708500	0.426600
C481	C48	0.427500	0.694600	0.441300
C491	C49	0.536500	0.911300	0.370600
C501	C50	0.569500	0.879700	0.333800
C511	C51	0.627500	0.872600	0.379500
C521	C52	0.646000	0.897800	0.455600
C531	C53	0.607100	0.925400	0.482300
C541	C54	0.665700	0.821600	0.285300
C551	C55	0.718100	0.791500	0.275800
C561	C56	0.746700	0.805400	0.232900
C571	C57	0.963500	0.334100	0.374800
C581	C58	0.930500	0.264300	0.310200
C591	C59	0.872500	0.252000	0.245100
C601	C60	0.854000	0.309600	0.251800
C611	C61	0.892900	0.375200	0.318300
C621	C62	0.834300	0.119600	0.155900
C631	C63	0.781900	0.057700	0.073400
C641	C64	0.753300	0.986200	0.058700
C651	C65	0.874800	0.963500	0.834100
C661	C66	0.810200	0.930500	0.764300
C671	C67	0.745100	0.872500	0.752000
C681	C68	0.751800	0.854000	0.809600
C691	C69	0.818300	0.892900	0.875200
C701	C70	0.655900	0.834300	0.619600
C711	C71	0.573400	0.781900	0.557700
C721	C72	0.558700	0.753300	0.486200
C731	C73	0.870600	0.536500	0.411300
C741	C74	0.833800	0.569500	0.379700
C751	C75	0.879500	0.627500	0.372600
C761	C76	0.955600	0.646000	0.397800
C771	C77	0.982300	0.607100	0.425400
C781	C78	0.785300	0.665700	0.321600
C791	C79	0.775800	0.718100	0.291500
C801	C80	0.732900	0.746700	0.305400
C811	C81	0.625200	0.459300	0.088700
C821	C82	0.689800	0.454100	0.120300
C831	C83	0.754900	0.506900	0.127400
C841	C84	0.748200	0.557800	0.102200
C851	C85	0.681700	0.556900	0.074600
C861	C86	0.844100	0.463700	0.178400
C871	C87	0.926600	0.484300	0.208500
C881	C88	0.941300	0.427500	0.194600
C891	C89	0.629400	0.040700	0.665900
C901	C90	0.666200	0.045900	0.735700
C911	C91	0.620500	0.993100	0.748000
C921	C92	0.544400	0.942200	0.690400
C931	C93	0.517700	0.943100	0.624800
C941	C94	0.714700	0.036300	0.880400
C951	C95	0.724200	0.015700	0.942300
C961	C96	0.767100	0.072500	0.013800
C971	C97	0.088700	0.129400	0.963500
C981	C98	0.120300	0.166200	0.930500
C991	C99	0.127400	0.120500	0.872500
C1001	C100	0.102200	0.044400	0.854000
C1011	C101	0.074600	0.017700	0.892900
C1021	C102	0.178400	0.214700	0.834300
C1031	C103	0.208500	0.224200	0.781900
C1041	C104	0.194600	0.267100	0.753300
C1051	C105	0.665900	0.125200	0.536500
C1061	C106	0.735700	0.189800	0.569500
C1071	C107	0.748000	0.254900	0.627500
C1081	C108	0.690400	0.248200	0.646000
C1091	C109	0.624800	0.181700	0.607100
C1101	C110	0.880400	0.344100	0.665700
C1111	C111	0.942300	0.426600	0.718100
C1121	C112	0.013800	0.441300	0.746700
C1131	C113	0.834100	0.370600	0.459300
C1141	C114	0.764300	0.333800	0.454100
C1151	C115	0.752000	0.379500	0.506900
C1161	C116	0.809600	0.455600	0.557800
C1171	C117	0.875200	0.482300	0.556900
C1181	C118	0.619600	0.285300	0.463700
C1191	C119	0.557700	0.275800	0.484300
C1201	C120	0.486200	0.232900	0.427500
C1211	C121	0.411300	0.374800	0.040700
C1221	C122	0.379700	0.310200	0.045900
C1231	C123	0.372600	0.245100	0.993100
C1241	C124	0.397800	0.251800	0.942200
C1251	C125	0.425400	0.318300	0.943100
C1261	C126	0.321600	0.155900	0.036300
C1271	C127	0.291500	0.073400	0.015700
C1281	C128	0.305400	0.058700	0.072500
C1291	C129	0.959300	0.834100	0.870600
C1301	C130	0.954100	0.764300	0.833800
C1311	C131	0.006900	0.752000	0.879500
C1321	C132	0.057800	0.809600	0.955600
C1331	C133	0.056900	0.875200	0.982300
C1341	C134	0.963700	0.619600	0.785300
C1351	C135	0.984300	0.557700	0.775800
C1361	C136	0.927500	0.486200	0.732900
C1371	C137	0.540700	0.411300	0.874800
C1381	C138	0.545900	0.379700	0.810200
C1391	C139	0.493100	0.372600	0.745100
C1401	C140	0.442200	0.397800	0.751800
C1411	C141	0.443100	0.425400	0.818300
C1421	C142	0.536300	0.321600	0.655900
C1431	C143	0.515700	0.291500	0.573400
C1441	C144	0.572500	0.305400	0.558700
C1451	C145	0.463500	0.088700	0.629400
C1461	C146	0.430500	0.120300	0.666200
C1471	C147	0.372500	0.127400	0.620500
C1481	C148	0.354000	0.102200	0.544400
C1491	C149	0.392900	0.074600	0.517700
C1501	C150	0.334300	0.178400	0.714700
C1511	C151	0.281900	0.208500	0.724200
C1521	C152	0.253300	0.194600	0.767100
C1531	C153	0.036500	0.665900	0.625200
C1541	C154	0.069500	0.735700	0.689800
C1551	C155	0.127500	0.748000	0.754900
C1561	C156	0.146000	0.690400	0.748200
C1571	C157	0.107100	0.624800	0.681700
C1581	C158	0.165700	0.880400	0.844100
C1591	C159	0.218100	0.942300	0.926600
C1601	C160	0.246700	0.013800	0.941300
C1611	C161	0.125200	0.036500	0.165900
C1621	C162	0.189800	0.069500	0.235700
C1631	C163	0.254900	0.127500	0.248000
C1641	C164	0.248200	0.146000	0.190400
C1651	C165	0.181700	0.107100	0.124800
C1661	C166	0.344100	0.165700	0.380400
C1671	C167	0.426600	0.218100	0.442300
C1681	C168	0.441300	0.246700	0.513800
C1691	C169	0.129400	0.463500	0.588700
C1701	C170	0.166200	0.430500	0.620300
C1711	C171	0.120500	0.372500	0.627400
C1721	C172	0.044400	0.354000	0.602200
C1731	C173	0.017700	0.392900	0.574600
C1741	C174	0.214700	0.334300	0.678400
C1751	C175	0.224200	0.281900	0.708500
C1761	C176	0.267100	0.253300	0.694600
C1771	C177	0.374800	0.540700	0.911300
C1781	C178	0.310200	0.545900	0.879700
C1791	C179	0.245100	0.493100	0.872600
C1801	C180	0.251800	0.442200	0.897800
C1811	C181	0.318300	0.443100	0.925400
C1821	C182	0.155900	0.536300	0.821600
C1831	C183	0.073400	0.515700	0.791500
C1841	C184	0.058700	0.572500	0.805400
C1851	C185	0.370600	0.959300	0.334100
C1861	C186	0.333800	0.954100	0.264300
C1871	C187	0.379500	0.006900	0.252000
C1881	C188	0.455600	0.057800	0.309600
C1891	C189	0.482300	0.056900	0.375200
C1901	C190	0.285300	0.963700	0.119600
C1911	C191	0.275800	0.984300	0.057700
C1921	C192	0.232900	0.927500	0.986200
N11	N1	0.935000	0.941200	0.052600
N21	N2	0.842500	0.853100	0.169400
N31	N3	0.388600	0.882400	0.447400
N41	N4	0.183700	0.673100	0.330600
N51	N5	0.111400	0.558800	0.493800
N61	N6	0.316300	0.646900	0.489400
N71	N7	0.565000	0.617600	0.006200
N81	N8	0.657500	0.826900	0.010600
N91	N9	0.993800	0.111400	0.058800
N101	N10	0.989400	0.316300	0.146900
N111	N11	0.506200	0.565000	0.117600
N121	N12	0.510600	0.657500	0.326900
N131	N13	0.552600	0.935000	0.441200
N141	N14	0.669400	0.842500	0.353100
N151	N15	0.947400	0.388600	0.382400
N161	N16	0.830600	0.183700	0.173100
N171	N17	0.882400	0.947400	0.888600
N181	N18	0.673100	0.830600	0.683700
N191	N19	0.941200	0.552600	0.435000
N201	N20	0.853100	0.669400	0.342500
N211	N21	0.617600	0.506200	0.065000
N221	N22	0.826900	0.510600	0.157500
N231	N23	0.558800	0.993800	0.611400
N241	N24	0.646900	0.989400	0.816300
N251	N25	0.065000	0.058800	0.947400
N261	N26	0.157500	0.146900	0.830600
N271	N27	0.611400	0.117600	0.552600
N281	N28	0.816300	0.326900	0.669400
N291	N29	0.888600	0.441200	0.506200
N301	N30	0.683700	0.353100	0.510600
N311	N31	0.435000	0.382400	0.993800
N321	N32	0.342500	0.173100	0.989400
N331	N33	0.006200	0.888600	0.941200
N341	N34	0.010600	0.683700	0.853100
N351	N35	0.493800	0.435000	0.882400
N361	N36	0.489400	0.342500	0.673100
N371	N37	0.447400	0.065000	0.558800
N381	N38	0.330600	0.157500	0.646900
N391	N39	0.052600	0.611400	0.617600
N401	N40	0.169400	0.816300	0.826900
N411	N41	0.117600	0.052600	0.111400
N421	N42	0.326900	0.169400	0.316300
N431	N43	0.058800	0.447400	0.565000
N441	N44	0.146900	0.330600	0.657500
N451	N45	0.382400	0.493800	0.935000
N461	N46	0.173100	0.489400	0.842500
N471	N47	0.441200	0.006200	0.388600
N481	N48	0.353100	0.010600	0.183700
O11	O1	0.825400	0.734700	0.122500
O21	O2	0.112200	0.702900	0.377500
O31	O3	0.387800	0.765300	0.590700
O41	O4	0.674600	0.797100	0.909300
O51	O5	0.090700	0.387800	0.265300
O61	O6	0.409300	0.674600	0.297100
O71	O7	0.622500	0.825400	0.234700
O81	O8	0.877500	0.112200	0.202900
O91	O9	0.702900	0.877500	0.612200
O101	O10	0.734700	0.622500	0.325400
O111	O11	0.797100	0.409300	0.174600
O121	O12	0.765300	0.090700	0.887800
O131	O13	0.174600	0.265300	0.877500
O141	O14	0.887800	0.297100	0.622500
O151	O15	0.612200	0.234700	0.409300
O161	O16	0.325400	0.202900	0.090700
O171	O17	0.909300	0.612200	0.734700
O181	O18	0.590700	0.325400	0.702900
O191	O19	0.377500	0.174600	0.765300
O201	O20	0.122500	0.887800	0.797100
O211	O21	0.297100	0.122500	0.387800
O221	O22	0.265300	0.377500	0.674600
O231	O23	0.202900	0.590700	0.825400
O241	O24	0.234700	0.909300	0.112200
