data_TEZKAM_clean_PM
_symmetry_space_group_name_H-M	'P1'
_cell_length_a	14.586000
_cell_length_b	18.068000
_cell_length_c	24.846000
_cell_angle_alpha	90.000000
_cell_angle_beta	90.000000
_cell_angle_gamma	90.000000
_symmetry_Int_Tables_number 1

loop_
_symmetry_equiv_pos_as_xyz
'x,y,z'

loop_
_atom_site_label
_atom_site_type_symbol
_atom_site_fract_x
_atom_site_fract_y
_atom_site_fract_z
Zn11	Zn1	0.460490	0.939620	0.144070
Zn21	Zn2	0.496290	0.746820	0.144980
O11	O1	0.330400	0.914600	0.151100
O21	O2	0.382400	0.808300	0.120490
O31	O3	0.663900	0.578300	0.142400
O41	O4	0.614400	0.688900	0.166660
O51	O5	0.526100	0.925100	0.077340
O61	O6	0.584100	0.816000	0.102160
O71	O7	0.979600	0.929700	0.712790
O81	O8	0.911600	0.824800	0.687800
O91	O9	0.532000	0.922000	0.209320
O101	O10	0.505600	0.801800	0.217670
O111	O11	0.958200	0.931800	0.580830
O121	O12	0.983200	0.811000	0.574650
N11	N1	0.467000	0.053090	0.143600
N21	N2	0.526200	0.439200	0.143200
C11	C1	0.515300	0.087700	0.105400
H11	H1	0.541800	0.059000	0.077400
C21	C2	0.528400	0.164000	0.104900
H21	H2	0.562200	0.187300	0.076900
C31	C3	0.490700	0.204700	0.146300
C41	C4	0.440500	0.169600	0.186100
C51	C5	0.393100	0.208900	0.231600
H31	H3	0.348600	0.244300	0.216900
H41	H4	0.438500	0.235400	0.253300
H51	H5	0.361100	0.172700	0.254100
C61	C6	0.432100	0.093600	0.182700
H61	H6	0.399100	0.068900	0.210300
C71	C7	0.479300	0.404500	0.103900
H71	H7	0.454700	0.432500	0.075000
C81	C8	0.466500	0.328900	0.105100
H81	H8	0.431400	0.305400	0.077900
C91	C9	0.505700	0.286600	0.146900
C101	C10	0.560500	0.323000	0.184700
C111	C11	0.618400	0.283800	0.225500
H91	H9	0.608700	0.230300	0.222500
H101	H10	0.601400	0.300400	0.261700
H111	H11	0.683200	0.295100	0.218900
C121	C12	0.566600	0.399300	0.181500
H121	H12	0.601400	0.424600	0.208100
C131	C13	0.319200	0.848300	0.138200
C141	C14	0.224100	0.818900	0.140500
C151	C15	0.151300	0.862600	0.159300
H131	H13	0.162900	0.911000	0.172500
C161	C16	0.060200	0.834600	0.158400
H141	H14	0.010900	0.863800	0.171700
C171	C17	0.043700	0.763500	0.137800
C181	C18	0.117900	0.719800	0.120300
H151	H15	0.107300	0.671200	0.107200
C191	C19	0.206000	0.747500	0.122200
H161	H16	0.255400	0.717100	0.110700
C201	C20	0.948400	0.733800	0.139700
C211	C21	0.933600	0.658000	0.146000
H171	H17	0.984500	0.625300	0.147900
C221	C22	0.846400	0.630200	0.149600
H181	H18	0.837300	0.578700	0.155000
C231	C23	0.772400	0.676300	0.145400
C241	C24	0.785100	0.751100	0.140300
H191	H19	0.733900	0.783600	0.139600
C251	C25	0.874500	0.779200	0.136200
H201	H20	0.883500	0.830800	0.130900
C261	C26	0.676300	0.646100	0.151100
C271	C27	0.575300	0.866500	0.069800
C281	C28	0.634100	0.866800	0.021100
C291	C29	0.648700	0.931700	0.991600
H211	H21	0.620900	0.976700	0.002800
C301	C30	0.703300	0.931000	0.946300
H221	H22	0.714400	0.975900	0.927500
C311	C31	0.742100	0.865700	0.927600
C321	C32	0.725400	0.799200	0.955500
H231	H23	0.750700	0.753900	0.943000
C331	C33	0.670800	0.800900	0.002300
H241	H24	0.658900	0.756200	0.021200
C341	C34	0.796700	0.865100	0.876900
C351	C35	0.842600	0.928200	0.859300
H251	H25	0.840400	0.971600	0.880900
C361	C36	0.891000	0.930100	0.811700
H261	H26	0.924600	0.973000	0.801800
C371	C37	0.889700	0.868600	0.778800
C381	C38	0.843300	0.805600	0.794000
H271	H27	0.840600	0.764100	0.770600
C391	C39	0.801200	0.803400	0.843100
H281	H28	0.774100	0.758300	0.854700
C401	C40	0.933200	0.871800	0.722900
C411	C41	0.543800	0.861800	0.231400
C421	C42	0.600900	0.862300	0.279900
C431	C43	0.650200	0.921600	0.294100
H291	H29	0.647800	0.965000	0.272600
C441	C44	0.705900	0.920600	0.340800
H301	H30	0.743700	0.962100	0.348600
C451	C45	0.706300	0.861700	0.374500
C461	C46	0.653500	0.800400	0.362800
H311	H31	0.652800	0.759100	0.386500
C471	C47	0.600400	0.799600	0.315100
H321	H32	0.564300	0.757500	0.306500
C481	C48	0.763600	0.863700	0.423900
C491	C49	0.792700	0.931100	0.444300
H331	H33	0.774200	0.976000	0.427600
C501	C50	0.849400	0.932400	0.489600
H341	H34	0.870200	0.978700	0.503100
C511	C51	0.875600	0.868900	0.515000
C521	C52	0.848200	0.801000	0.493700
H351	H35	0.868300	0.756300	0.510000
C531	C53	0.792100	0.798500	0.449000
H361	H36	0.772800	0.752000	0.435100
C541	C54	0.939200	0.870600	0.562400
Zn31	Zn3	0.534160	0.552730	0.143610
Zn41	Zn4	0.960490	0.560380	0.644070
Zn51	Zn5	0.996290	0.753180	0.644980
O131	O13	0.830400	0.585400	0.651100
O141	O14	0.882400	0.691700	0.620490
O151	O15	0.163900	0.921700	0.642400
O161	O16	0.114400	0.811100	0.666660
O171	O17	0.026100	0.574900	0.577340
O181	O18	0.084100	0.684000	0.602160
O191	O19	0.479600	0.570300	0.212790
O201	O20	0.411600	0.675200	0.187800
O211	O21	0.032000	0.578000	0.709320
O221	O22	0.005600	0.698200	0.717670
O231	O23	0.458200	0.568200	0.080830
O241	O24	0.483200	0.689000	0.074650
N31	N3	0.967000	0.446910	0.643600
N41	N4	0.026200	0.060800	0.643200
C551	C55	0.015300	0.412300	0.605400
H371	H37	0.041800	0.441000	0.577400
C561	C56	0.028400	0.336000	0.604900
H381	H38	0.062200	0.312700	0.576900
C571	C57	0.990700	0.295300	0.646300
C581	C58	0.940500	0.330400	0.686100
C591	C59	0.893100	0.291100	0.731600
H391	H39	0.848600	0.255700	0.716900
H401	H40	0.938500	0.264600	0.753300
H411	H41	0.861100	0.327300	0.754100
C601	C60	0.932100	0.406400	0.682700
H421	H42	0.899100	0.431100	0.710300
C611	C61	0.979300	0.095500	0.603900
H431	H43	0.954700	0.067500	0.575000
C621	C62	0.966500	0.171100	0.605100
H441	H44	0.931400	0.194600	0.577900
C631	C63	0.005700	0.213400	0.646900
C641	C64	0.060500	0.177000	0.684700
C651	C65	0.118400	0.216200	0.725500
H451	H45	0.108700	0.269700	0.722500
H461	H46	0.101400	0.199600	0.761700
H471	H47	0.183200	0.204900	0.718900
C661	C66	0.066600	0.100700	0.681500
H481	H48	0.101400	0.075400	0.708100
C671	C67	0.819200	0.651700	0.638200
C681	C68	0.724100	0.681100	0.640500
C691	C69	0.651300	0.637400	0.659300
H491	H49	0.662900	0.589000	0.672500
C701	C70	0.560200	0.665400	0.658400
H501	H50	0.510900	0.636200	0.671700
C711	C71	0.543700	0.736500	0.637800
C721	C72	0.617900	0.780200	0.620300
H511	H51	0.607300	0.828800	0.607200
C731	C73	0.706000	0.752500	0.622200
H521	H52	0.755400	0.782900	0.610700
C741	C74	0.448400	0.766200	0.639700
C751	C75	0.433600	0.842000	0.646000
H531	H53	0.484500	0.874700	0.647900
C761	C76	0.346400	0.869800	0.649600
H541	H54	0.337300	0.921300	0.655000
C771	C77	0.272400	0.823700	0.645400
C781	C78	0.285100	0.748900	0.640300
H551	H55	0.233900	0.716400	0.639600
C791	C79	0.374500	0.720800	0.636200
H561	H56	0.383500	0.669200	0.630900
C801	C80	0.176300	0.853900	0.651100
C811	C81	0.075300	0.633500	0.569800
C821	C82	0.134100	0.633200	0.521100
C831	C83	0.148700	0.568300	0.491600
H571	H57	0.120900	0.523300	0.502800
C841	C84	0.203300	0.569000	0.446300
H581	H58	0.214400	0.524100	0.427500
C851	C85	0.242100	0.634300	0.427600
C861	C86	0.225400	0.700800	0.455500
H591	H59	0.250700	0.746100	0.443000
C871	C87	0.170800	0.699100	0.502300
H601	H60	0.158900	0.743800	0.521200
C881	C88	0.296700	0.634900	0.376900
C891	C89	0.342600	0.571800	0.359300
H611	H61	0.340400	0.528400	0.380900
C901	C90	0.391000	0.569900	0.311700
H621	H62	0.424600	0.527000	0.301800
C911	C91	0.389700	0.631400	0.278800
C921	C92	0.343300	0.694400	0.294000
H631	H63	0.340600	0.735900	0.270600
C931	C93	0.301200	0.696600	0.343100
H641	H64	0.274100	0.741700	0.354700
C941	C94	0.433200	0.628200	0.222900
C951	C95	0.043800	0.638200	0.731400
C961	C96	0.100900	0.637700	0.779900
C971	C97	0.150200	0.578400	0.794100
H651	H65	0.147800	0.535000	0.772600
C981	C98	0.205900	0.579400	0.840800
H661	H66	0.243700	0.537900	0.848600
C991	C99	0.206300	0.638300	0.874500
C1001	C100	0.153500	0.699600	0.862800
H671	H67	0.152800	0.740900	0.886500
C1011	C101	0.100400	0.700400	0.815100
H681	H68	0.064300	0.742500	0.806500
C1021	C102	0.263600	0.636300	0.923900
C1031	C103	0.292700	0.568900	0.944300
H691	H69	0.274200	0.524000	0.927600
C1041	C104	0.349400	0.567600	0.989600
H701	H70	0.370200	0.521300	0.003100
C1051	C105	0.375600	0.631100	0.015000
C1061	C106	0.348200	0.699000	0.993700
H711	H71	0.368300	0.743700	0.010000
C1071	C107	0.292100	0.701500	0.949000
H721	H72	0.272800	0.748000	0.935100
C1081	C108	0.439200	0.629400	0.062400
Zn61	Zn6	0.034160	0.947270	0.643610
Zn71	Zn7	0.039510	0.439620	0.355930
Zn81	Zn8	0.003710	0.246820	0.355020
O251	O25	0.169600	0.414600	0.348900
O261	O26	0.117600	0.308300	0.379510
O271	O27	0.836100	0.078300	0.357600
O281	O28	0.885600	0.188900	0.333340
O291	O29	0.973900	0.425100	0.422660
O301	O30	0.915900	0.316000	0.397840
O311	O31	0.520400	0.429700	0.787210
O321	O32	0.588400	0.324800	0.812200
O331	O33	0.968000	0.422000	0.290680
O341	O34	0.994400	0.301800	0.282330
O351	O35	0.541800	0.431800	0.919170
O361	O36	0.516800	0.311000	0.925350
N51	N5	0.033000	0.553090	0.356400
N61	N6	0.973800	0.939200	0.356800
C1091	C109	0.984700	0.587700	0.394600
H731	H73	0.958200	0.559000	0.422600
C1101	C110	0.971600	0.664000	0.395100
H741	H74	0.937800	0.687300	0.423100
C1111	C111	0.009300	0.704700	0.353700
C1121	C112	0.059500	0.669600	0.313900
C1131	C113	0.106900	0.708900	0.268400
H751	H75	0.151400	0.744300	0.283100
H761	H76	0.061500	0.735400	0.246700
H771	H77	0.138900	0.672700	0.245900
C1141	C114	0.067900	0.593600	0.317300
H781	H78	0.100900	0.568900	0.289700
C1151	C115	0.020700	0.904500	0.396100
H791	H79	0.045300	0.932500	0.425000
C1161	C116	0.033500	0.828900	0.394900
H801	H80	0.068600	0.805400	0.422100
C1171	C117	0.994300	0.786600	0.353100
C1181	C118	0.939500	0.823000	0.315300
C1191	C119	0.881600	0.783800	0.274500
H811	H81	0.891300	0.730300	0.277500
H821	H82	0.898600	0.800400	0.238300
H831	H83	0.816800	0.795100	0.281100
C1201	C120	0.933400	0.899300	0.318500
H841	H84	0.898600	0.924600	0.291900
C1211	C121	0.180800	0.348300	0.361800
C1221	C122	0.275900	0.318900	0.359500
C1231	C123	0.348700	0.362600	0.340700
H851	H85	0.337100	0.411000	0.327500
C1241	C124	0.439800	0.334600	0.341600
H861	H86	0.489100	0.363800	0.328300
C1251	C125	0.456300	0.263500	0.362200
C1261	C126	0.382100	0.219800	0.379700
H871	H87	0.392700	0.171200	0.392800
C1271	C127	0.294000	0.247500	0.377800
H881	H88	0.244600	0.217100	0.389300
C1281	C128	0.551600	0.233800	0.360300
C1291	C129	0.566400	0.158000	0.354000
H891	H89	0.515500	0.125300	0.352100
C1301	C130	0.653600	0.130200	0.350400
H901	H90	0.662700	0.078700	0.345000
C1311	C131	0.727600	0.176300	0.354600
C1321	C132	0.714900	0.251100	0.359700
H911	H91	0.766100	0.283600	0.360400
C1331	C133	0.625500	0.279200	0.363800
H921	H92	0.616500	0.330800	0.369100
C1341	C134	0.823700	0.146100	0.348900
C1351	C135	0.924700	0.366500	0.430200
C1361	C136	0.865900	0.366800	0.478900
C1371	C137	0.851300	0.431700	0.508400
H931	H93	0.879100	0.476700	0.497200
C1381	C138	0.796700	0.431000	0.553700
H941	H94	0.785600	0.475900	0.572500
C1391	C139	0.757900	0.365700	0.572400
C1401	C140	0.774600	0.299200	0.544500
H951	H95	0.749300	0.253900	0.557000
C1411	C141	0.829200	0.300900	0.497700
H961	H96	0.841100	0.256200	0.478800
C1421	C142	0.703300	0.365100	0.623100
C1431	C143	0.657400	0.428200	0.640700
H971	H97	0.659600	0.471600	0.619100
C1441	C144	0.609000	0.430100	0.688300
H981	H98	0.575400	0.473000	0.698200
C1451	C145	0.610300	0.368600	0.721200
C1461	C146	0.656700	0.305600	0.706000
H991	H99	0.659400	0.264100	0.729400
C1471	C147	0.698800	0.303400	0.656900
H1001	H100	0.725900	0.258300	0.645300
C1481	C148	0.566800	0.371800	0.777100
C1491	C149	0.956200	0.361800	0.268600
C1501	C150	0.899100	0.362300	0.220100
C1511	C151	0.849800	0.421600	0.205900
H1011	H101	0.852200	0.465000	0.227400
C1521	C152	0.794100	0.420600	0.159200
H1021	H102	0.756300	0.462100	0.151400
C1531	C153	0.793700	0.361700	0.125500
C1541	C154	0.846500	0.300400	0.137200
H1031	H103	0.847200	0.259100	0.113500
C1551	C155	0.899600	0.299600	0.184900
H1041	H104	0.935700	0.257500	0.193500
C1561	C156	0.736400	0.363700	0.076100
C1571	C157	0.707300	0.431100	0.055700
H1051	H105	0.725800	0.476000	0.072400
C1581	C158	0.650600	0.432400	0.010400
H1061	H106	0.629800	0.478700	0.996900
C1591	C159	0.624400	0.368900	0.985000
C1601	C160	0.651800	0.301000	0.006300
H1071	H107	0.631700	0.256300	0.990000
C1611	C161	0.707900	0.298500	0.051000
H1081	H108	0.727200	0.252000	0.064900
C1621	C162	0.560800	0.370600	0.937600
Zn91	Zn9	0.965840	0.052730	0.356390
Zn101	Zn10	0.539510	0.060380	0.855930
Zn111	Zn11	0.503710	0.253180	0.855020
O371	O37	0.669600	0.085400	0.848900
O381	O38	0.617600	0.191700	0.879510
O391	O39	0.336100	0.421700	0.857600
O401	O40	0.385600	0.311100	0.833340
O411	O41	0.473900	0.074900	0.922660
O421	O42	0.415900	0.184000	0.897840
O431	O43	0.020400	0.070300	0.287210
O441	O44	0.088400	0.175200	0.312200
O451	O45	0.468000	0.078000	0.790680
O461	O46	0.494400	0.198200	0.782330
O471	O47	0.041800	0.068200	0.419170
O481	O48	0.016800	0.189000	0.425350
N71	N7	0.533000	0.946910	0.856400
N81	N8	0.473800	0.560800	0.856800
C1631	C163	0.484700	0.912300	0.894600
H1091	H109	0.458200	0.941000	0.922600
C1641	C164	0.471600	0.836000	0.895100
H1101	H110	0.437800	0.812700	0.923100
C1651	C165	0.509300	0.795300	0.853700
C1661	C166	0.559500	0.830400	0.813900
C1671	C167	0.606900	0.791100	0.768400
H1111	H111	0.651400	0.755700	0.783100
H1121	H112	0.561500	0.764600	0.746700
H1131	H113	0.638900	0.827300	0.745900
C1681	C168	0.567900	0.906400	0.817300
H1141	H114	0.600900	0.931100	0.789700
C1691	C169	0.520700	0.595500	0.896100
H1151	H115	0.545300	0.567500	0.925000
C1701	C170	0.533500	0.671100	0.894900
H1161	H116	0.568600	0.694600	0.922100
C1711	C171	0.494300	0.713400	0.853100
C1721	C172	0.439500	0.677000	0.815300
C1731	C173	0.381600	0.716200	0.774500
H1171	H117	0.391300	0.769700	0.777500
H1181	H118	0.398600	0.699600	0.738300
H1191	H119	0.316800	0.704900	0.781100
C1741	C174	0.433400	0.600700	0.818500
H1201	H120	0.398600	0.575400	0.791900
C1751	C175	0.680800	0.151700	0.861800
C1761	C176	0.775900	0.181100	0.859500
C1771	C177	0.848700	0.137400	0.840700
H1211	H121	0.837100	0.089000	0.827500
C1781	C178	0.939800	0.165400	0.841600
H1221	H122	0.989100	0.136200	0.828300
C1791	C179	0.956300	0.236500	0.862200
C1801	C180	0.882100	0.280200	0.879700
H1231	H123	0.892700	0.328800	0.892800
C1811	C181	0.794000	0.252500	0.877800
H1241	H124	0.744600	0.282900	0.889300
C1821	C182	0.051600	0.266200	0.860300
C1831	C183	0.066400	0.342000	0.854000
H1251	H125	0.015500	0.374700	0.852100
C1841	C184	0.153600	0.369800	0.850400
H1261	H126	0.162700	0.421300	0.845000
C1851	C185	0.227600	0.323700	0.854600
C1861	C186	0.214900	0.248900	0.859700
H1271	H127	0.266100	0.216400	0.860400
C1871	C187	0.125500	0.220800	0.863800
H1281	H128	0.116500	0.169200	0.869100
C1881	C188	0.323700	0.353900	0.848900
C1891	C189	0.424700	0.133500	0.930200
C1901	C190	0.365900	0.133200	0.978900
C1911	C191	0.351300	0.068300	0.008400
H1291	H129	0.379100	0.023300	0.997200
C1921	C192	0.296700	0.069000	0.053700
H1301	H130	0.285600	0.024100	0.072500
C1931	C193	0.257900	0.134300	0.072400
C1941	C194	0.274600	0.200800	0.044500
H1311	H131	0.249300	0.246100	0.057000
C1951	C195	0.329200	0.199100	0.997700
H1321	H132	0.341100	0.243800	0.978800
C1961	C196	0.203300	0.134900	0.123100
C1971	C197	0.157400	0.071800	0.140700
H1331	H133	0.159600	0.028400	0.119100
C1981	C198	0.109000	0.069900	0.188300
H1341	H134	0.075400	0.027000	0.198200
C1991	C199	0.110300	0.131400	0.221200
C2001	C200	0.156700	0.194400	0.206000
H1351	H135	0.159400	0.235900	0.229400
C2011	C201	0.198800	0.196600	0.156900
H1361	H136	0.225900	0.241700	0.145300
C2021	C202	0.066800	0.128200	0.277100
C2031	C203	0.456200	0.138200	0.768600
C2041	C204	0.399100	0.137700	0.720100
C2051	C205	0.349800	0.078400	0.705900
H1371	H137	0.352200	0.035000	0.727400
C2061	C206	0.294100	0.079400	0.659200
H1381	H138	0.256300	0.037900	0.651400
C2071	C207	0.293700	0.138300	0.625500
C2081	C208	0.346500	0.199600	0.637200
H1391	H139	0.347200	0.240900	0.613500
C2091	C209	0.399600	0.200400	0.684900
H1401	H140	0.435700	0.242500	0.693500
C2101	C210	0.236400	0.136300	0.576100
C2111	C211	0.207300	0.068900	0.555700
H1411	H141	0.225800	0.024000	0.572400
C2121	C212	0.150600	0.067600	0.510400
H1421	H142	0.129800	0.021300	0.496900
C2131	C213	0.124400	0.131100	0.485000
C2141	C214	0.151800	0.199000	0.506300
H1431	H143	0.131700	0.243700	0.490000
C2151	C215	0.207900	0.201500	0.551000
H1441	H144	0.227200	0.248000	0.564900
C2161	C216	0.060800	0.129400	0.437600
Zn121	Zn12	0.465840	0.447270	0.856390
