data_TICPOL_charged_PM
_symmetry_space_group_name_H-M	'P1'
_cell_length_a	15.744000
_cell_length_b	17.892000
_cell_length_c	18.302000
_cell_angle_alpha	98.086000
_cell_angle_beta	111.634000
_cell_angle_gamma	104.923000
_symmetry_Int_Tables_number 1

loop_
_symmetry_equiv_pos_as_xyz
'x,y,z'

loop_
_atom_site_label
_atom_site_type_symbol
_atom_site_fract_x
_atom_site_fract_y
_atom_site_fract_z
Co11	Co1	0.260620	0.244660	0.260930
Co21	Co2	0.261840	0.265170	0.768060
Co31	Co3	0.981050	0.365160	0.599610
Co41	Co4	0.726790	0.101070	0.394850
Co51	Co5	0.236690	0.724370	0.217820
P11	P1	0.366740	0.344920	0.369610
P21	P2	0.159420	0.147080	0.148900
P31	P3	0.214880	0.388860	0.649370
P41	P4	0.410810	0.649500	0.221720
P51	P5	0.750610	0.255240	0.529700
P61	P6	0.753020	0.985780	0.162440
P71	P7	0.304140	0.847550	0.102840
P81	P8	0.084540	0.272100	0.827230
H11	H1	0.648400	0.045000	0.135000
H21	H2	0.031600	0.984700	0.111300
H31	H3	0.882000	0.927300	0.114400
H41	H4	0.874100	0.148900	0.188100
H51	H5	0.023800	0.206400	0.185000
H61	H6	0.575700	0.434100	0.431100
H71	H7	0.715900	0.402000	0.493100
H81	H8	0.550200	0.180700	0.478500
H91	H9	0.410100	0.212800	0.416500
H101	H10	0.199300	0.374700	0.377500
H111	H11	0.142600	0.390700	0.478200
H121	H12	0.385900	0.369300	0.642200
H131	H13	0.442600	0.353300	0.541500
H141	H14	0.339000	0.498200	0.402100
H151	H15	0.349400	0.606000	0.342900
H161	H16	0.460300	0.504100	0.204100
H171	H17	0.450000	0.396400	0.263400
H181	H18	0.226200	0.079200	0.033000
H191	H19	0.277400	0.968700	0.016700
H201	H20	0.249600	0.921700	0.218500
H211	H21	0.198500	0.032200	0.234900
H221	H22	0.434700	0.374000	0.827000
H231	H23	0.370000	0.411000	0.799000
H241	H24	0.167000	0.116000	0.730000
H251	H25	0.109000	0.160000	0.729000
H261	H26	0.390000	0.233000	0.702000
H271	H27	0.395600	0.243000	0.887000
H281	H28	0.317000	0.181800	0.874000
H291	H29	0.253200	0.282600	0.967300
H301	H30	0.962600	0.180300	0.889700
H311	H31	0.988600	0.135300	0.007300
H321	H32	0.278800	0.240900	0.087000
H331	H33	0.022000	0.387000	0.753000
H341	H34	0.072000	0.457700	0.749000
H351	H35	0.999000	0.229000	0.656000
H361	H36	0.053700	0.262000	0.621000
H371	H37	0.940000	0.494000	0.608000
H381	H38	0.017000	0.509000	0.590000
H391	H39	0.967000	0.291000	0.458000
H401	H40	0.878000	0.282000	0.456000
H411	H41	0.731000	0.980000	0.311000
H421	H42	0.657000	0.941500	0.327000
H431	H43	0.673000	0.097300	0.506000
H441	H44	0.594400	0.038000	0.448000
H451	H45	0.353000	0.798000	0.368100
H461	H46	0.401000	0.766000	0.333000
H471	H47	0.119500	0.796000	0.262000
H481	H48	0.208000	0.806000	0.318100
H491	H49	0.056000	0.663000	0.124000
H501	H50	0.100000	0.675000	0.073500
H511	H51	0.171000	0.648000	0.313000
H521	H52	0.150000	0.590400	0.248000
H531	H53	0.768000	0.112000	0.273200
H541	H54	0.851000	0.162000	0.333000
H551	H55	0.569000	0.082000	0.261200
H561	H56	0.542000	0.074000	0.320000
H571	H57	0.895000	0.076000	0.478000
H581	H58	0.907000	0.147000	0.523000
C11	C1	0.360000	0.228400	0.242700
C21	C2	0.215400	0.191300	0.322400
C31	C3	0.203000	0.312700	0.218100
C41	C4	0.041730	0.100940	0.147880
C51	C5	0.999620	0.018050	0.126920
C61	C6	0.910700	0.983930	0.128740
C71	C7	0.863980	0.032690	0.151530
C81	C8	0.906100	0.115580	0.172490
C91	C9	0.995000	0.149700	0.170670
C101	C10	0.479730	0.326450	0.417970
C111	C11	0.570600	0.382670	0.440730
C121	C12	0.653810	0.363610	0.477570
C131	C13	0.646230	0.288330	0.491650
C141	C14	0.555400	0.232120	0.468890
C151	C15	0.472150	0.251180	0.432050
C161	C16	0.326260	0.362470	0.450000
C171	C17	0.237170	0.373570	0.431210
C181	C18	0.203500	0.383080	0.491060
C191	C19	0.258920	0.381490	0.569700
C201	C20	0.348010	0.370390	0.588490
C211	C21	0.381690	0.360890	0.528640
C221	C22	0.393500	0.437190	0.338340
C231	C23	0.363600	0.499420	0.361940
C241	C24	0.369800	0.563420	0.326730
C251	C25	0.405800	0.565170	0.267920
C261	C26	0.435700	0.502940	0.244320
C271	C27	0.429500	0.438940	0.279530
C281	C28	0.207500	0.066050	0.135530
C291	C29	0.231000	0.047210	0.070700
C301	C30	0.261400	0.981600	0.060960
C311	C31	0.268300	0.934830	0.116050
C321	C32	0.244900	0.953670	0.180880
C331	C33	0.214500	0.019280	0.190620
C341	C34	0.135400	0.182000	0.057700
C351	C35	0.105300	0.235800	0.917300
C361	C36	0.199500	0.253300	0.975700
C371	C37	0.026900	0.192000	0.929500
C381	C38	0.042400	0.165300	0.999400
C391	C39	0.214700	0.227600	0.046300
O11	O1	0.422500	0.217200	0.231170
O21	O2	0.187100	0.158600	0.362300
O31	O3	0.168100	0.355500	0.189500
O41	O4	0.295700	0.453620	0.722850
O51	O5	0.123400	0.410370	0.615340
O61	O6	0.193700	0.306200	0.666790
O71	O7	0.478600	0.724840	0.289120
O81	O8	0.305600	0.648280	0.182210
O91	O9	0.447900	0.633140	0.156970
O101	O10	0.724200	0.192710	0.574050
O111	O11	0.838400	0.327910	0.585450
O121	O12	0.761200	0.218000	0.454590
O131	O13	0.788800	0.965280	0.244930
O141	O14	0.706100	0.049620	0.167020
O151	O15	0.693200	0.912200	0.092220
O161	O16	0.411400	0.874950	0.123060
O171	O17	0.248100	0.802260	0.008940
O181	O18	0.271500	0.795370	0.150000
O191	O19	0.039200	0.337170	0.837360
O201	O20	0.013000	0.201630	0.754480
O211	O21	0.379400	0.374640	0.823330
O221	O22	0.182100	0.306930	0.824370
O231	O23	0.151300	0.154430	0.712130
O241	O24	0.337000	0.222060	0.705400
O251	O25	0.334500	0.229210	0.869310
O261	O26	0.020300	0.417860	0.721540
O271	O27	0.996500	0.251850	0.617820
O281	O28	0.961400	0.474740	0.576010
O291	O29	0.935000	0.314670	0.475020
O301	O30	0.705300	0.984370	0.344010
O311	O31	0.655900	0.055020	0.468520
O321	O32	0.360300	0.790100	0.324190
O331	O33	0.176500	0.800420	0.267800
O341	O34	0.104200	0.659300	0.115800
O351	O35	0.185600	0.637920	0.273880
O361	O36	0.790400	0.144300	0.320590
O371	O37	0.590700	0.099800	0.312800
O381	O38	0.864100	0.108100	0.483100
Co61	Co6	0.238110	0.555910	0.929720
H591	H59	0.260000	0.643000	0.067000
H601	H60	0.234000	0.689800	0.019000
H611	H61	0.124000	0.491000	0.985900
H621	H62	0.097000	0.442000	0.914000
H631	H63	0.367000	0.646000	0.884000
H641	H64	0.391000	0.671000	0.963000
H651	H65	0.369000	0.553000	0.064100
H661	H66	0.355000	0.490000	0.007000
H671	H67	0.094000	0.596000	0.839000
H681	H68	0.161000	0.622000	0.813000
H691	H69	0.259000	0.471000	0.810000
H701	H70	0.214000	0.416000	0.836000
O391	O39	0.235400	0.642470	0.017210
O401	O40	0.117200	0.480170	0.937230
O411	O41	0.343500	0.643300	0.919100
O421	O42	0.325300	0.518300	0.021660
O431	O43	0.139900	0.585000	0.832300
O441	O44	0.234700	0.466300	0.843590
Co71	Co7	0.739380	0.755340	0.739070
Co81	Co8	0.738160	0.734830	0.231940
Co91	Co9	0.018950	0.634840	0.400390
Co101	Co10	0.273210	0.898930	0.605150
Co111	Co11	0.763310	0.275630	0.782180
P91	P9	0.633260	0.655080	0.630390
P101	P10	0.840580	0.852920	0.851100
P111	P11	0.785120	0.611140	0.350630
P121	P12	0.589190	0.350500	0.778280
P131	P13	0.249390	0.744760	0.470300
P141	P14	0.246980	0.014220	0.837560
P151	P15	0.695860	0.152450	0.897160
P161	P16	0.915460	0.727900	0.172770
H711	H71	0.351600	0.955000	0.865000
H721	H72	0.968400	0.015300	0.888700
H731	H73	0.118000	0.072700	0.885600
H741	H74	0.125900	0.851100	0.811900
H751	H75	0.976200	0.793600	0.815000
H761	H76	0.424300	0.565900	0.568900
H771	H77	0.284100	0.598000	0.506900
H781	H78	0.449800	0.819300	0.521500
H791	H79	0.589900	0.787200	0.583500
H801	H80	0.800700	0.625300	0.622500
H811	H81	0.857400	0.609300	0.521800
H821	H82	0.614100	0.630700	0.357800
H831	H83	0.557400	0.646700	0.458500
H841	H84	0.661000	0.501800	0.597900
H851	H85	0.650600	0.394000	0.657100
H861	H86	0.539700	0.495900	0.795900
H871	H87	0.550000	0.603600	0.736600
H881	H88	0.773800	0.920800	0.967000
H891	H89	0.722600	0.031300	0.983300
H901	H90	0.750400	0.078300	0.781500
H911	H91	0.801500	0.967800	0.765100
H921	H92	0.565300	0.626000	0.173000
H931	H93	0.630000	0.589000	0.201000
H941	H94	0.833000	0.884000	0.270000
H951	H95	0.891000	0.840000	0.271000
H961	H96	0.610000	0.767000	0.298000
H971	H97	0.604400	0.757000	0.113000
H981	H98	0.683000	0.818200	0.126000
H991	H99	0.746800	0.717400	0.032700
H1001	H100	0.037400	0.819700	0.110300
H1011	H101	0.011400	0.864700	0.992700
H1021	H102	0.721200	0.759100	0.913000
H1031	H103	0.978000	0.613000	0.247000
H1041	H104	0.928000	0.542300	0.251000
H1051	H105	0.001000	0.771000	0.344000
H1061	H106	0.946300	0.738000	0.379000
H1071	H107	0.060000	0.506000	0.392000
H1081	H108	0.983000	0.491000	0.410000
H1091	H109	0.033000	0.709000	0.542000
H1101	H110	0.122000	0.718000	0.544000
H1111	H111	0.269000	0.020000	0.689000
H1121	H112	0.343000	0.058500	0.673000
H1131	H113	0.327000	0.902700	0.494000
H1141	H114	0.405600	0.962000	0.552000
H1151	H115	0.647000	0.202000	0.631900
H1161	H116	0.599000	0.234000	0.667000
H1171	H117	0.880500	0.204000	0.738000
H1181	H118	0.792000	0.194000	0.681900
H1191	H119	0.944000	0.337000	0.876000
H1201	H120	0.900000	0.325000	0.926500
H1211	H121	0.829000	0.352000	0.687000
H1221	H122	0.850000	0.409600	0.752000
H1231	H123	0.232000	0.888000	0.726800
H1241	H124	0.149000	0.838000	0.667000
H1251	H125	0.431000	0.918000	0.738800
H1261	H126	0.458000	0.926000	0.680000
H1271	H127	0.105000	0.924000	0.522000
H1281	H128	0.093000	0.853000	0.477000
C401	C40	0.640000	0.771600	0.757300
C411	C41	0.784600	0.808700	0.677600
C421	C42	0.797000	0.687300	0.781900
C431	C43	0.958270	0.899060	0.852120
C441	C44	0.000380	0.981950	0.873080
C451	C45	0.089300	0.016070	0.871260
C461	C46	0.136020	0.967310	0.848470
C471	C47	0.093900	0.884420	0.827510
C481	C48	0.005000	0.850300	0.829330
C491	C49	0.520270	0.673550	0.582030
C501	C50	0.429400	0.617330	0.559270
C511	C51	0.346190	0.636390	0.522430
C521	C52	0.353770	0.711670	0.508350
C531	C53	0.444600	0.767880	0.531110
C541	C54	0.527850	0.748820	0.567950
C551	C55	0.673740	0.637530	0.550000
C561	C56	0.762830	0.626430	0.568790
C571	C57	0.796500	0.616920	0.508940
C581	C58	0.741080	0.618510	0.430300
C591	C59	0.651990	0.629610	0.411510
C601	C60	0.618310	0.639110	0.471360
C611	C61	0.606500	0.562810	0.661660
C621	C62	0.636400	0.500580	0.638060
C631	C63	0.630200	0.436580	0.673270
C641	C64	0.594200	0.434830	0.732080
C651	C65	0.564300	0.497060	0.755680
C661	C66	0.570500	0.561060	0.720470
C671	C67	0.792500	0.933950	0.864470
C681	C68	0.769000	0.952790	0.929300
C691	C69	0.738600	0.018400	0.939040
C701	C70	0.731700	0.065170	0.883950
C711	C71	0.755100	0.046330	0.819120
C721	C72	0.785500	0.980720	0.809380
C731	C73	0.864600	0.818000	0.942300
C741	C74	0.894700	0.764200	0.082700
C751	C75	0.800500	0.746700	0.024300
C761	C76	0.973100	0.808000	0.070500
C771	C77	0.957600	0.834700	0.000600
C781	C78	0.785300	0.772400	0.953700
O451	O45	0.577500	0.782800	0.768830
O461	O46	0.812900	0.841400	0.637700
O471	O47	0.831900	0.644500	0.810500
O481	O48	0.704300	0.546380	0.277150
O491	O49	0.876600	0.589630	0.384660
O501	O50	0.806300	0.693800	0.333210
O511	O51	0.521400	0.275160	0.710880
O521	O52	0.694400	0.351720	0.817790
O531	O53	0.552100	0.366860	0.843030
O541	O54	0.275800	0.807290	0.425950
O551	O55	0.161600	0.672090	0.414550
O561	O56	0.238800	0.782000	0.545410
O571	O57	0.211200	0.034720	0.755070
O581	O58	0.293900	0.950380	0.832980
O591	O59	0.306800	0.087800	0.907780
O601	O60	0.588600	0.125050	0.876940
O611	O61	0.751900	0.197740	0.991060
O621	O62	0.728500	0.204630	0.850000
O631	O63	0.960800	0.662830	0.162640
O641	O64	0.987000	0.798370	0.245520
O651	O65	0.620600	0.625360	0.176670
O661	O66	0.817900	0.693070	0.175630
O671	O67	0.848700	0.845570	0.287870
O681	O68	0.663000	0.777940	0.294600
O691	O69	0.665500	0.770790	0.130690
O701	O70	0.979700	0.582140	0.278460
O711	O71	0.003500	0.748150	0.382180
O721	O72	0.038600	0.525260	0.423990
O731	O73	0.065000	0.685330	0.524980
O741	O74	0.294700	0.015630	0.655990
O751	O75	0.344100	0.944980	0.531480
O761	O76	0.639700	0.209900	0.675810
O771	O77	0.823500	0.199580	0.732200
O781	O78	0.895800	0.340700	0.884200
O791	O79	0.814400	0.362080	0.726120
O801	O80	0.209600	0.855700	0.679410
O811	O81	0.409300	0.900200	0.687200
O821	O82	0.135900	0.891900	0.516900
Co121	Co12	0.761890	0.444090	0.070280
H1291	H129	0.740000	0.357000	0.933000
H1301	H130	0.766000	0.310200	0.981000
H1311	H131	0.876000	0.509000	0.014100
H1321	H132	0.903000	0.558000	0.086000
H1331	H133	0.633000	0.354000	0.116000
H1341	H134	0.609000	0.329000	0.037000
H1351	H135	0.631000	0.447000	0.935900
H1361	H136	0.645000	0.510000	0.993000
H1371	H137	0.906000	0.404000	0.161000
H1381	H138	0.839000	0.378000	0.187000
H1391	H139	0.741000	0.529000	0.190000
H1401	H140	0.786000	0.584000	0.164000
O831	O83	0.764600	0.357530	0.982790
O841	O84	0.882800	0.519830	0.062770
O851	O85	0.656500	0.356700	0.080900
O861	O86	0.674700	0.481700	0.978340
O871	O87	0.860100	0.415000	0.167700
O881	O88	0.765300	0.533700	0.156410
