data_TIDLID_clean_PM
_symmetry_space_group_name_H-M	'P1'
_cell_length_a	7.620000
_cell_length_b	20.963000
_cell_length_c	9.876000
_cell_angle_alpha	90.000000
_cell_angle_beta	90.000000
_cell_angle_gamma	90.000000
_symmetry_Int_Tables_number 1

loop_
_symmetry_equiv_pos_as_xyz
'x,y,z'

loop_
_atom_site_label
_atom_site_type_symbol
_atom_site_fract_x
_atom_site_fract_y
_atom_site_fract_z
N11	N1	0.590300	0.171300	0.136200
C11	C1	0.640700	0.120800	0.069100
H11	H1	0.756600	0.109000	0.053200
H21	H2	0.396800	0.024400	0.893300
N21	N2	0.090300	0.671300	0.636200
C21	C2	0.140700	0.620800	0.569100
H31	H3	0.256600	0.609000	0.553200
H41	H4	0.896800	0.524400	0.393300
N31	N3	0.409700	0.328700	0.136200
C31	C3	0.359300	0.379200	0.069100
H51	H5	0.243400	0.391000	0.053200
H61	H6	0.603200	0.475600	0.893300
N41	N4	0.909700	0.828700	0.636200
C41	C4	0.859300	0.879200	0.569100
H71	H7	0.743400	0.891000	0.553200
H81	H8	0.103200	0.975600	0.393300
N51	N5	0.409700	0.671300	0.863800
C51	C5	0.359300	0.620800	0.930900
H91	H9	0.243400	0.609000	0.946800
H101	H10	0.603200	0.524400	0.106700
N61	N6	0.909700	0.171300	0.363800
C61	C6	0.859300	0.120800	0.430900
H111	H11	0.743400	0.109000	0.446800
H121	H12	0.103200	0.024400	0.606700
N71	N7	0.590300	0.828700	0.863800
C71	C7	0.640700	0.879200	0.930900
H131	H13	0.756600	0.891000	0.946800
H141	H14	0.396800	0.975600	0.106700
N81	N8	0.090300	0.328700	0.363800
C81	C8	0.140700	0.379200	0.430900
H151	H15	0.256600	0.391000	0.446800
H161	H16	0.896800	0.475600	0.606700
N91	N9	0.409700	0.828700	0.863800
C91	C9	0.359300	0.879200	0.930900
H171	H17	0.243400	0.891000	0.946800
H181	H18	0.603200	0.975600	0.106700
N101	N10	0.909700	0.328700	0.363800
C101	C10	0.859300	0.379200	0.430900
H191	H19	0.743400	0.391000	0.446800
H201	H20	0.103200	0.475600	0.606700
N111	N11	0.590300	0.671300	0.863800
C111	C11	0.640700	0.620800	0.930900
H211	H21	0.756600	0.609000	0.946800
H221	H22	0.396800	0.524400	0.106700
N121	N12	0.090300	0.171300	0.363800
C121	C12	0.140700	0.120800	0.430900
H231	H23	0.256600	0.109000	0.446800
H241	H24	0.896800	0.024400	0.606700
N131	N13	0.590300	0.328700	0.136200
C131	C13	0.640700	0.379200	0.069100
H251	H25	0.756600	0.391000	0.053200
H261	H26	0.396800	0.475600	0.893300
N141	N14	0.090300	0.828700	0.636200
C141	C14	0.140700	0.879200	0.569100
H271	H27	0.256600	0.891000	0.553200
H281	H28	0.896800	0.975600	0.393300
N151	N15	0.409700	0.171300	0.136200
C151	C15	0.359300	0.120800	0.069100
H291	H29	0.243400	0.109000	0.053200
H301	H30	0.603200	0.024400	0.893300
N161	N16	0.909700	0.671300	0.636200
C161	C16	0.859300	0.620800	0.569100
H311	H31	0.743400	0.609000	0.553200
H321	H32	0.103200	0.524400	0.393300
Cd11	Cd1	0.750000	0.250000	0.250000
Cd21	Cd2	0.250000	0.250000	0.250000
Cd31	Cd3	0.250000	0.750000	0.750000
Cd41	Cd4	0.750000	0.750000	0.750000
Cl11	Cl1	0.000000	0.250000	0.070200
Cl21	Cl2	0.500000	0.750000	0.570200
Cl31	Cl3	0.000000	0.750000	0.929800
Cl41	Cl4	0.500000	0.250000	0.429800
N171	N17	0.500000	0.088900	0.027500
C171	C17	0.500000	0.026900	0.950500
N181	N18	0.000000	0.588900	0.527500
C181	C18	0.000000	0.526900	0.450500
N191	N19	0.500000	0.411100	0.027500
C191	C19	0.500000	0.473100	0.950500
N201	N20	0.000000	0.911100	0.527500
C201	C20	0.000000	0.973100	0.450500
N211	N21	0.500000	0.588900	0.972500
C211	C21	0.500000	0.526900	0.049500
N221	N22	0.000000	0.088900	0.472500
C221	C22	0.000000	0.026900	0.549500
N231	N23	0.500000	0.911100	0.972500
C231	C23	0.500000	0.973100	0.049500
N241	N24	0.000000	0.411100	0.472500
C241	C24	0.000000	0.473100	0.549500
