data_TIFBOA_clean_PM
_symmetry_space_group_name_H-M	'P1'
_cell_length_a	7.351800
_cell_length_b	11.624000
_cell_length_c	14.131000
_cell_angle_alpha	90.000000
_cell_angle_beta	90.000000
_cell_angle_gamma	98.724000
_symmetry_Int_Tables_number 1

loop_
_symmetry_equiv_pos_as_xyz
'x,y,z'

loop_
_atom_site_label
_atom_site_type_symbol
_atom_site_fract_x
_atom_site_fract_y
_atom_site_fract_z
Mn11	Mn1	0.501050	0.522650	0.499980
Mn21	Mn2	0.973200	0.974560	0.025090
Mn31	Mn3	0.498950	0.477350	0.999980
Mn41	Mn4	0.026800	0.025440	0.525090
Mo11	Mo1	0.945400	0.340470	0.257510
Mo21	Mo2	0.054600	0.659530	0.757510
H11	H1	0.673600	0.146700	0.044300
H21	H2	0.358200	0.147500	0.041600
H31	H3	0.277200	0.806600	0.003400
H41	H4	0.590300	0.806100	0.003200
H51	H5	0.326400	0.853300	0.544300
H61	H6	0.641800	0.852500	0.541600
H71	H7	0.722800	0.193400	0.503400
H81	H8	0.409700	0.193900	0.503200
C11	C1	0.700500	0.209900	0.270400
C21	C2	0.949500	0.524800	0.232190
C31	C3	0.777200	0.392900	0.369100
C41	C4	0.163300	0.426000	0.347300
C51	C5	0.169400	0.389100	0.161100
C61	C6	0.774000	0.361800	0.138500
C71	C7	0.995300	0.193300	0.175000
C81	C8	0.021100	0.221700	0.361000
C91	C9	0.593000	0.075500	0.035800
C101	C10	0.403700	0.075700	0.034600
C111	C11	0.357500	0.878000	0.012000
C121	C12	0.544200	0.877300	0.012500
C131	C13	0.299500	0.790100	0.770400
C141	C14	0.050500	0.475200	0.732190
C151	C15	0.222800	0.607100	0.869100
C161	C16	0.836700	0.574000	0.847300
C171	C17	0.830600	0.610900	0.661100
C181	C18	0.226000	0.638200	0.638500
C191	C19	0.004700	0.806700	0.675000
C201	C20	0.978900	0.778300	0.861000
C211	C21	0.407000	0.924500	0.535800
C221	C22	0.596300	0.924300	0.534600
C231	C23	0.642500	0.122000	0.512000
C241	C24	0.455800	0.122700	0.512500
N11	N1	0.575400	0.137800	0.275900
N21	N2	0.954500	0.622100	0.214300
N31	N3	0.685200	0.419500	0.428500
N41	N4	0.275300	0.470500	0.397050
N51	N5	0.282200	0.416000	0.104290
N61	N6	0.683600	0.375500	0.074390
N71	N7	0.012800	0.115200	0.127410
N81	N8	0.052000	0.158600	0.419100
N91	N9	0.663800	0.976500	0.025440
N101	N10	0.284300	0.977000	0.023640
N111	N11	0.424600	0.862200	0.775900
N121	N12	0.045500	0.377900	0.714300
N131	N13	0.314800	0.580500	0.928500
N141	N14	0.724700	0.529500	0.897050
N151	N15	0.717800	0.584000	0.604290
N161	N16	0.316400	0.624500	0.574390
N171	N17	0.987200	0.884800	0.627410
N181	N18	0.948000	0.841400	0.919100
N191	N19	0.336200	0.023500	0.525440
N201	N20	0.715700	0.023000	0.523640
