data_TIFHAT_charged_PM
_symmetry_space_group_name_H-M	'P1'
_cell_length_a	20.538100
_cell_length_b	20.538100
_cell_length_c	21.026800
_cell_angle_alpha	71.883400
_cell_angle_beta	71.877200
_cell_angle_gamma	111.296000
_symmetry_Int_Tables_number 1

loop_
_symmetry_equiv_pos_as_xyz
'x,y,z'

loop_
_atom_site_label
_atom_site_type_symbol
_atom_site_fract_x
_atom_site_fract_y
_atom_site_fract_z
Nd11	Nd1	0.115010	0.350000	0.780330
Nd21	Nd2	0.369670	0.104660	0.280330
H11	H1	0.951800	0.262400	0.975800
H21	H2	0.837800	0.248900	0.051900
H31	H3	0.744300	0.185400	0.924900
H41	H4	0.913100	0.234900	0.778800
H51	H5	0.820800	0.177700	0.817500
H61	H6	0.874600	0.144300	0.834500
H71	H7	0.629800	0.143400	0.014400
H81	H8	0.516600	0.136100	0.087700
H91	H9	0.744700	0.266500	0.096000
H101	H10	0.606200	0.308900	0.177300
H111	H11	0.678800	0.304000	0.182800
H121	H12	0.591900	0.232900	0.241600
H131	H13	0.179600	0.511500	0.579100
H141	H14	0.187500	0.624700	0.504600
H151	H15	0.247500	0.719800	0.631900
H161	H16	0.205400	0.548300	0.774100
H171	H17	0.249900	0.640700	0.742400
H181	H18	0.296700	0.600100	0.717000
H191	H19	0.299200	0.830100	0.541900
H201	H20	0.313700	0.949700	0.465200
H211	H21	0.170500	0.726500	0.458800
H221	H22	0.155000	0.890300	0.365900
H231	H23	0.129200	0.803600	0.378600
H241	H24	0.212800	0.874900	0.311900
H251	H25	0.261800	0.072400	0.475800
H261	H26	0.199200	0.110300	0.551900
H271	H27	0.389700	0.330800	0.424900
H281	H28	0.486300	0.308100	0.278800
H291	H29	0.504800	0.361700	0.317500
H301	H30	0.521200	0.290900	0.334500
H311	H31	0.342200	0.355800	0.514400
H321	H32	0.276200	0.395700	0.587700
H331	H33	0.137500	0.159300	0.596000
H341	H34	0.013800	0.216500	0.677300
H351	H35	0.013200	0.138400	0.682800
H361	H36	0.025500	0.166500	0.741600
H371	H37	0.409400	0.241300	0.079100
H381	H38	0.370700	0.307900	0.004600
H391	H39	0.148300	0.120600	0.131900
H401	H40	0.177600	0.020500	0.274100
H411	H41	0.116900	0.007700	0.242400
H421	H42	0.182900	0.986300	0.217000
H431	H43	0.128000	0.158900	0.041900
H441	H44	0.085100	0.221100	0.965200
H451	H45	0.314700	0.370700	0.958800
H461	H46	0.243800	0.479100	0.865900
H471	H47	0.317800	0.492200	0.878600
H481	H48	0.313200	0.475300	0.811900
C11	C1	0.908900	0.245700	0.966400
C21	C2	0.841500	0.238400	0.011300
C31	C3	0.775800	0.214900	0.997500
C41	C4	0.786100	0.200100	0.936000
C51	C5	0.855900	0.206400	0.890300
C61	C6	0.867200	0.189300	0.824300
C71	C7	0.700600	0.207400	0.045600
C81	C8	0.630700	0.167500	0.045200
C91	C9	0.563300	0.163000	0.088900
C101	C10	0.630700	0.237100	0.137800
C111	C11	0.698500	0.240700	0.093600
C121	C12	0.626500	0.274100	0.189600
C131	C13	0.193900	0.554200	0.588900
C141	C14	0.198800	0.621700	0.544700
C151	C15	0.220900	0.688500	0.558600
C161	C16	0.234500	0.678400	0.620100
C171	C17	0.229900	0.609000	0.665700
C181	C18	0.247000	0.598700	0.730500
C191	C19	0.231400	0.764200	0.509400
C201	C20	0.275300	0.831700	0.511000
C211	C21	0.283200	0.903500	0.464900
C221	C22	0.208700	0.842600	0.415300
C231	C23	0.199700	0.771700	0.461000
C241	C24	0.173200	0.853800	0.363200
C251	C25	0.287900	0.124700	0.466400
C261	C26	0.250300	0.147200	0.511300
C271	C27	0.287600	0.226700	0.497500
C281	C28	0.363900	0.277900	0.436000
C291	C29	0.403300	0.253800	0.390300
C301	C30	0.486400	0.308500	0.324300
C311	C31	0.247000	0.253800	0.545600
C321	C32	0.287300	0.324100	0.545200
C331	C33	0.248100	0.347800	0.588900
C341	C34	0.125100	0.231500	0.637800
C351	C35	0.165700	0.207900	0.593600
C361	C36	0.036300	0.183900	0.689600
C371	C37	0.356900	0.217200	0.088900
C381	C38	0.333600	0.256500	0.044700
C391	C39	0.252900	0.220500	0.058600
C401	C40	0.201500	0.145400	0.120100
C411	C41	0.225300	0.104400	0.165700
C421	C42	0.170800	0.022500	0.230500
C431	C43	0.226400	0.259200	0.009400
C441	C44	0.157300	0.213700	0.011000
C451	C45	0.131600	0.251900	0.964900
C461	C46	0.242100	0.376000	0.915300
C471	C47	0.267300	0.339300	0.961000
C481	C48	0.283000	0.463600	0.863200
N11	N1	0.917400	0.229200	0.906600
N21	N2	0.563500	0.197100	0.134000
N31	N3	0.210100	0.549400	0.648100
N41	N4	0.249300	0.907400	0.421700
N51	N5	0.364200	0.176000	0.406600
N61	N6	0.168900	0.302500	0.634000
N71	N7	0.302500	0.141800	0.148100
N81	N8	0.170900	0.329000	0.921700
O11	O1	0.984100	0.234200	0.866900
O21	O2	0.497000	0.194700	0.174500
O31	O3	0.208300	0.483600	0.689300
O41	O4	0.255400	0.976500	0.383100
O51	O5	0.118200	0.224600	0.825600
O61	O6	0.255900	0.379500	0.735800
O71	O7	0.051100	0.413300	0.839800
O81	O8	0.034000	0.383200	0.722400
O91	O9	0.398900	0.149000	0.366900
O101	O10	0.130800	0.328500	0.674500
O111	O11	0.327100	0.102400	0.189300
O121	O12	0.140400	0.361500	0.883100
O131	O13	0.449800	0.056200	0.325600
O141	O14	0.384700	0.008300	0.235800
O151	O15	0.246900	0.109100	0.339800
O161	O16	0.394400	0.243600	0.222400
Nd31	Nd3	0.630330	0.895340	0.719670
Nd41	Nd4	0.884990	0.650000	0.219670
H491	H49	0.738200	0.927600	0.524200
H501	H50	0.800800	0.889700	0.448100
H511	H51	0.610300	0.669200	0.575100
H521	H52	0.513700	0.691900	0.721200
H531	H53	0.495200	0.638300	0.682500
H541	H54	0.478800	0.709100	0.665500
H551	H55	0.657800	0.644200	0.485600
H561	H56	0.723800	0.604300	0.412300
H571	H57	0.862500	0.840700	0.404000
H581	H58	0.986200	0.783500	0.322700
H591	H59	0.986800	0.861600	0.317200
H601	H60	0.974500	0.833500	0.258400
H611	H61	0.590600	0.758700	0.920900
H621	H62	0.629300	0.692100	0.995400
H631	H63	0.851700	0.879400	0.868100
H641	H64	0.822400	0.979500	0.725900
H651	H65	0.883100	0.992300	0.757600
H661	H66	0.817100	0.013700	0.783000
H671	H67	0.872000	0.841100	0.958100
H681	H68	0.914900	0.778900	0.034800
H691	H69	0.685300	0.629300	0.041200
H701	H70	0.756200	0.520900	0.134100
H711	H71	0.682200	0.507800	0.121400
H721	H72	0.686800	0.524700	0.188100
H731	H73	0.048200	0.737600	0.024200
H741	H74	0.162200	0.751100	0.948100
H751	H75	0.255700	0.814600	0.075100
H761	H76	0.086900	0.765100	0.221200
H771	H77	0.179200	0.822300	0.182500
H781	H78	0.125400	0.855700	0.165500
H791	H79	0.370200	0.856600	0.985600
H801	H80	0.483400	0.863900	0.912300
H811	H81	0.255300	0.733500	0.904000
H821	H82	0.393800	0.691100	0.822700
H831	H83	0.321200	0.696000	0.817200
H841	H84	0.408100	0.767100	0.758400
H851	H85	0.820400	0.488500	0.420900
H861	H86	0.812500	0.375300	0.495400
H871	H87	0.752500	0.280200	0.368100
H881	H88	0.794600	0.451700	0.225900
H891	H89	0.750100	0.359300	0.257600
H901	H90	0.703300	0.399900	0.283000
H911	H91	0.700800	0.169900	0.458100
H921	H92	0.686300	0.050300	0.534800
H931	H93	0.829500	0.273500	0.541200
H941	H94	0.845000	0.109700	0.634100
H951	H95	0.870800	0.196400	0.621400
H961	H96	0.787200	0.125100	0.688100
C491	C49	0.712100	0.875300	0.533600
C501	C50	0.749700	0.852800	0.488700
C511	C51	0.712400	0.773300	0.502500
C521	C52	0.636100	0.722100	0.564000
C531	C53	0.596700	0.746200	0.609700
C541	C54	0.513600	0.691500	0.675700
C551	C55	0.753000	0.746200	0.454400
C561	C56	0.712700	0.675900	0.454800
C571	C57	0.751900	0.652200	0.411100
C581	C58	0.874900	0.768500	0.362200
C591	C59	0.834300	0.792100	0.406400
C601	C60	0.963700	0.816100	0.310400
C611	C61	0.643100	0.782800	0.911100
C621	C62	0.666400	0.743500	0.955300
C631	C63	0.747100	0.779500	0.941400
C641	C64	0.798500	0.854600	0.879900
C651	C65	0.774700	0.895600	0.834300
C661	C66	0.829200	0.977500	0.769500
C671	C67	0.773600	0.740800	0.990600
C681	C68	0.842700	0.786300	0.989000
C691	C69	0.868400	0.748100	0.035100
C701	C70	0.757900	0.624000	0.084700
C711	C71	0.732700	0.660700	0.039000
C721	C72	0.717000	0.536400	0.136800
C731	C73	0.091100	0.754300	0.033600
C741	C74	0.158500	0.761600	0.988700
C751	C75	0.224200	0.785100	0.002500
C761	C76	0.213900	0.799900	0.064000
C771	C77	0.144100	0.793600	0.109700
C781	C78	0.132800	0.810700	0.175700
C791	C79	0.299400	0.792600	0.954400
C801	C80	0.369300	0.832500	0.954800
C811	C81	0.436700	0.837000	0.911100
C821	C82	0.369300	0.762900	0.862200
C831	C83	0.301500	0.759300	0.906400
C841	C84	0.373500	0.725900	0.810400
C851	C85	0.806100	0.445800	0.411100
C861	C86	0.801200	0.378300	0.455300
C871	C87	0.779100	0.311500	0.441400
C881	C88	0.765500	0.321600	0.379900
C891	C89	0.770100	0.391000	0.334300
C901	C90	0.753000	0.401300	0.269500
C911	C91	0.768600	0.235800	0.490600
C921	C92	0.724700	0.168300	0.489000
C931	C93	0.716800	0.096500	0.535100
C941	C94	0.791300	0.157400	0.584700
C951	C95	0.800300	0.228300	0.539000
C961	C96	0.826800	0.146200	0.636800
N91	N9	0.635800	0.824000	0.593400
N101	N10	0.831100	0.697500	0.366000
N111	N11	0.697500	0.858200	0.851900
N121	N12	0.829100	0.671000	0.078300
N131	N13	0.082600	0.770800	0.093400
N141	N14	0.436500	0.802900	0.866000
N151	N15	0.789900	0.450600	0.351900
N161	N16	0.750700	0.092600	0.578300
O171	O17	0.601100	0.851000	0.633100
O181	O18	0.869200	0.671500	0.325500
O191	O19	0.672900	0.897600	0.810700
O201	O20	0.859600	0.638500	0.116900
O211	O21	0.550200	0.943800	0.674400
O221	O22	0.615300	0.991700	0.764200
O231	O23	0.753100	0.890900	0.660200
O241	O24	0.605600	0.756400	0.777600
O251	O25	0.015900	0.765800	0.133100
O261	O26	0.503000	0.805300	0.825500
O271	O27	0.791700	0.516400	0.310700
O281	O28	0.744600	0.023500	0.616900
O291	O29	0.881800	0.775400	0.174400
O301	O30	0.744100	0.620500	0.264200
O311	O31	0.948900	0.586700	0.160200
O321	O32	0.966000	0.616800	0.277600
Cl11	Cl1	0.977600	0.627600	0.450200
O331	O33	0.029500	0.615400	0.477500
O341	O34	0.920700	0.571400	0.457900
O351	O35	0.966400	0.683800	0.469600
O361	O36	0.023500	0.672000	0.367300
Cl21	Cl2	0.350550	0.001090	0.075040
O371	O37	0.312100	0.953500	0.156400
O381	O38	0.356800	0.956100	0.039300
O391	O39	0.301500	0.027800	0.058100
O401	O40	0.425500	0.061400	0.052700
Cl31	Cl3	0.948450	0.026880	0.255830
O411	O41	0.968000	0.001000	0.313400
O421	O42	0.924300	0.967300	0.234000
O431	O43	0.008200	0.099000	0.199000
O441	O44	0.884900	0.034200	0.286100
Cl41	Cl4	0.577800	0.427800	0.049800
O451	O45	0.592900	0.507000	0.022500
O461	O46	0.529300	0.378600	0.042100
O471	O47	0.653400	0.436000	0.030400
O481	O48	0.539300	0.390800	0.132700
Cl51	Cl5	0.576130	0.425590	0.424960
O491	O49	0.609900	0.468500	0.343600
O501	O50	0.495400	0.396100	0.460700
O511	O51	0.585900	0.359600	0.441900
O521	O52	0.614100	0.478200	0.447300
Cl61	Cl6	0.782710	0.204280	0.244170
O531	O53	0.814400	0.281400	0.186600
O541	O54	0.701300	0.158300	0.266000
O551	O55	0.798000	0.207200	0.301000
O561	O56	0.820300	0.171000	0.213900
Cl71	Cl7	0.022400	0.372400	0.549800
O571	O57	0.970500	0.384600	0.522500
O581	O58	0.079300	0.428600	0.542100
O591	O59	0.033600	0.316200	0.530400
O601	O60	0.976500	0.328000	0.632700
Cl81	Cl8	0.649450	0.998910	0.924960
O611	O61	0.687900	0.046500	0.843600
O621	O62	0.643200	0.043900	0.960700
O631	O63	0.698500	0.972200	0.941900
O641	O64	0.574500	0.938600	0.947300
Cl91	Cl9	0.051550	0.973120	0.744170
O651	O65	0.032000	0.999000	0.686600
O661	O66	0.075700	0.032700	0.766000
O671	O67	0.991800	0.901000	0.801000
O681	O68	0.115100	0.965800	0.713900
Cl101	Cl10	0.422200	0.572200	0.950200
O691	O69	0.407100	0.493000	0.977500
O701	O70	0.470700	0.621400	0.957900
O711	O71	0.346600	0.564000	0.969600
O721	O72	0.460700	0.609200	0.867300
Cl111	Cl11	0.423870	0.574410	0.575040
O731	O73	0.390100	0.531500	0.656400
O741	O74	0.504600	0.603900	0.539300
O751	O75	0.414100	0.640400	0.558100
O761	O76	0.385900	0.521800	0.552700
Cl121	Cl12	0.217290	0.795720	0.755830
O771	O77	0.185600	0.718600	0.813400
O781	O78	0.298700	0.841700	0.734000
O791	O79	0.202000	0.792800	0.699000
O801	O80	0.179700	0.829000	0.786100
