data_TIFHEX_charged_PM
_symmetry_space_group_name_H-M	'P1'
_cell_length_a	20.469200
_cell_length_b	20.469200
_cell_length_c	20.909000
_cell_angle_alpha	108.127000
_cell_angle_beta	108.127000
_cell_angle_gamma	111.369000
_symmetry_Int_Tables_number 1

loop_
_symmetry_equiv_pos_as_xyz
'x,y,z'

loop_
_atom_site_label
_atom_site_type_symbol
_atom_site_fract_x
_atom_site_fract_y
_atom_site_fract_z
Sm11	Sm1	0.615620	0.850320	0.719780
Sm21	Sm2	0.869460	0.604160	0.219780
H11	H1	0.771800	0.897200	0.912200
H21	H2	0.839800	0.855700	0.987700
H31	H3	0.635500	0.660600	0.901700
H41	H4	0.511200	0.632800	0.808600
H51	H5	0.524700	0.668000	0.754100
H61	H6	0.510800	0.712000	0.820200
H71	H7	0.696400	0.610600	0.949000
H81	H8	0.759700	0.572000	0.027100
H91	H9	0.889400	0.829300	0.075900
H101	H10	0.004000	0.779000	0.200800
H111	H11	0.989900	0.851300	0.214000
H121	H12	0.024100	0.828700	0.158600
H131	H13	0.583900	0.726500	0.533800
H141	H14	0.628900	0.658500	0.457400
H151	H15	0.816800	0.871600	0.543800
H161	H16	0.754100	0.970900	0.664800
H171	H17	0.787400	0.990600	0.610800
H181	H18	0.836900	0.979700	0.676600
H191	H19	0.649900	0.619300	0.368600
H201	H20	0.907800	0.741500	0.418700
H211	H21	0.873500	0.809700	0.492000
H221	H22	0.697600	0.508200	0.246800
H231	H23	0.627900	0.526100	0.237200
H241	H24	0.651000	0.491800	0.292400
H251	H25	0.015000	0.640400	0.412200
H261	H26	0.132000	0.647900	0.487700
H271	H27	0.241100	0.766200	0.401700
H281	H28	0.175800	0.797400	0.308600
H291	H29	0.086100	0.729400	0.254100
H301	H30	0.108200	0.809400	0.320200
H311	H31	0.338400	0.752600	0.449000
H321	H32	0.455100	0.767400	0.527100
H331	H33	0.246600	0.686500	0.575900
H341	H34	0.421800	0.696800	0.700800
H351	H35	0.362700	0.724100	0.714000
H361	H36	0.329900	0.634500	0.658600
H371	H37	0.807300	0.449900	0.033800
H381	H38	0.798900	0.328500	0.957400
H391	H39	0.672200	0.227000	0.043800
H401	H40	0.693900	0.410700	0.164800
H411	H41	0.620200	0.323400	0.110800
H421	H42	0.696900	0.339700	0.176600
H431	H43	0.749300	0.218700	0.868600
H441	H44	0.677200	0.010900	0.918700
H451	H45	0.682300	0.118500	0.992000
H461	H46	0.738600	0.049200	0.746800
H471	H47	0.711100	0.109300	0.737200
H481	H48	0.800600	0.141400	0.792400
C11	C1	0.744400	0.848100	0.909700
C21	C2	0.785000	0.822800	0.955400
C31	C3	0.746500	0.752300	0.953400
C41	C4	0.664800	0.709100	0.904100
C51	C5	0.625300	0.730200	0.860700
C61	C6	0.534400	0.681100	0.805700
C71	C7	0.785400	0.724900	0.001300
C81	C8	0.748100	0.647400	0.989100
C91	C9	0.786700	0.624000	0.035500
C101	C10	0.902500	0.751300	0.109600
C111	C11	0.863100	0.776000	0.064100
C121	C12	0.988200	0.807900	0.177100
C131	C13	0.632100	0.756200	0.535900
C141	C14	0.657900	0.713800	0.487700
C151	C15	0.726900	0.760500	0.490200
C161	C16	0.768600	0.839900	0.540500
C171	C17	0.743900	0.876000	0.586500
C181	C18	0.784000	0.961700	0.639300
C191	C19	0.751700	0.719300	0.440000
C201	C20	0.703100	0.645300	0.380000
C211	C21	0.726400	0.604700	0.333500
C221	C22	0.855000	0.717400	0.409200
C231	C23	0.835800	0.757600	0.453000
C241	C24	0.671300	0.526600	0.272700
C251	C25	0.061600	0.665300	0.409700
C261	C26	0.132600	0.670400	0.455400
C271	C27	0.201100	0.706900	0.453400
C281	C28	0.195000	0.739300	0.404100
C291	C29	0.130500	0.735400	0.360700
C301	C30	0.124600	0.771300	0.305700
C311	C31	0.276400	0.715900	0.501300
C321	C32	0.341700	0.741000	0.489100
C331	C33	0.411500	0.748800	0.535500
C341	C34	0.358300	0.707100	0.609600
C351	C35	0.288100	0.701000	0.564100
C361	C36	0.369200	0.688900	0.677100
C371	C37	0.779700	0.403800	0.035900
C381	C38	0.773900	0.329800	0.987700
C391	C39	0.729700	0.263300	0.990200
C401	C40	0.700600	0.271900	0.040500
C411	C41	0.710500	0.342600	0.086500
C421	C42	0.677600	0.355300	0.139300
C431	C43	0.720700	0.188300	0.940000
C441	C44	0.734700	0.176900	0.880000
C451	C45	0.728800	0.107100	0.833500
C461	C46	0.691800	0.054200	0.909200
C471	C47	0.695400	0.117200	0.953000
C481	C48	0.746100	0.101400	0.772700
N11	N1	0.667700	0.801300	0.864200
N21	N2	0.862800	0.674400	0.093200
N31	N3	0.671400	0.829300	0.578900
N41	N4	0.804100	0.643600	0.351300
N51	N5	0.062900	0.696500	0.364200
N61	N6	0.418800	0.730400	0.593200
N71	N7	0.749600	0.407500	0.078900
N81	N8	0.707700	0.047200	0.851300
O11	O1	0.630500	0.827900	0.823800
O21	O2	0.896800	0.648600	0.134400
O31	O3	0.640600	0.861200	0.619400
O41	O4	0.826400	0.601700	0.309700
O51	O5	0.618900	0.727800	0.674900
O61	O6	0.754700	0.877500	0.763800
O71	O7	0.534800	0.884200	0.778200
O81	O8	0.552500	0.912700	0.660600
O91	O9	0.995900	0.693300	0.323800
O101	O10	0.485800	0.737600	0.634400
O111	O11	0.758200	0.478800	0.119400
O121	O12	0.708000	0.983300	0.809700
O131	O13	0.947100	0.556000	0.174900
O141	O14	0.886300	0.509100	0.263800
O151	O15	0.894000	0.743400	0.278200
O161	O16	0.747900	0.608100	0.160600
Sm31	Sm3	0.130540	0.395840	0.780220
Sm41	Sm4	0.384380	0.149680	0.280220
H491	H49	0.985000	0.359600	0.587800
H501	H50	0.868000	0.352100	0.512300
H511	H51	0.758900	0.233800	0.598300
H521	H52	0.824200	0.202600	0.691400
H531	H53	0.913900	0.270600	0.745900
H541	H54	0.891800	0.190600	0.679800
H551	H55	0.661600	0.247400	0.551000
H561	H56	0.544900	0.232600	0.472900
H571	H57	0.753400	0.313500	0.424100
H581	H58	0.578200	0.303200	0.299200
H591	H59	0.637300	0.275900	0.286000
H601	H60	0.670100	0.365500	0.341400
H611	H61	0.192700	0.550100	0.966200
H621	H62	0.201100	0.671500	0.042600
H631	H63	0.327800	0.773000	0.956200
H641	H64	0.306100	0.589300	0.835200
H651	H65	0.379800	0.676600	0.889200
H661	H66	0.303100	0.660300	0.823400
H671	H67	0.250700	0.781300	0.131400
H681	H68	0.322800	0.989100	0.081300
H691	H69	0.317700	0.881500	0.008000
H701	H70	0.261400	0.950800	0.253200
H711	H71	0.288900	0.890700	0.262800
H721	H72	0.199400	0.858600	0.207600
H731	H73	0.228200	0.102800	0.087800
H741	H74	0.160200	0.144300	0.012300
H751	H75	0.364500	0.339400	0.098300
H761	H76	0.488800	0.367200	0.191400
H771	H77	0.475300	0.332000	0.245900
H781	H78	0.489200	0.288000	0.179800
H791	H79	0.303600	0.389400	0.051000
H801	H80	0.240300	0.428000	0.972900
H811	H81	0.110600	0.170700	0.924100
H821	H82	0.996000	0.221000	0.799200
H831	H83	0.010100	0.148700	0.786000
H841	H84	0.975900	0.171300	0.841400
H851	H85	0.416100	0.273500	0.466200
H861	H86	0.371100	0.341500	0.542600
H871	H87	0.183200	0.128400	0.456200
H881	H88	0.245900	0.029100	0.335200
H891	H89	0.212600	0.009400	0.389200
H901	H90	0.163100	0.020300	0.323400
H911	H91	0.350100	0.380700	0.631400
H921	H92	0.092200	0.258500	0.581300
H931	H93	0.126500	0.190300	0.508000
H941	H94	0.302400	0.491800	0.753200
H951	H95	0.372100	0.473900	0.762800
H961	H96	0.349000	0.508200	0.707600
C491	C49	0.938400	0.334700	0.590300
C501	C50	0.867400	0.329600	0.544600
C511	C51	0.798900	0.293100	0.546600
C521	C52	0.805000	0.260700	0.595900
C531	C53	0.869500	0.264600	0.639300
C541	C54	0.875400	0.228700	0.694300
C551	C55	0.723600	0.284100	0.498700
C561	C56	0.658300	0.259000	0.510900
C571	C57	0.588500	0.251200	0.464500
C581	C58	0.641700	0.292900	0.390400
C591	C59	0.711900	0.299000	0.435900
C601	C60	0.630800	0.311100	0.322900
C611	C61	0.220300	0.596200	0.964100
C621	C62	0.226100	0.670200	0.012300
C631	C63	0.270300	0.736700	0.009800
C641	C64	0.299400	0.728100	0.959500
C651	C65	0.289500	0.657400	0.913500
C661	C66	0.322400	0.644700	0.860700
C671	C67	0.279300	0.811700	0.060000
C681	C68	0.265300	0.823100	0.120000
C691	C69	0.271200	0.892900	0.166500
C701	C70	0.308200	0.945800	0.090800
C711	C71	0.304600	0.882800	0.047000
C721	C72	0.253900	0.898600	0.227300
C731	C73	0.255600	0.151900	0.090300
C741	C74	0.215000	0.177200	0.044600
C751	C75	0.253500	0.247700	0.046600
C761	C76	0.335200	0.290900	0.095900
C771	C77	0.374700	0.269800	0.139300
C781	C78	0.465600	0.318900	0.194300
C791	C79	0.214600	0.275100	0.998700
C801	C80	0.251900	0.352600	0.010900
C811	C81	0.213300	0.376000	0.964500
C821	C82	0.097500	0.248700	0.890400
C831	C83	0.136900	0.224000	0.935900
C841	C84	0.011800	0.192100	0.822900
C851	C85	0.367900	0.243800	0.464100
C861	C86	0.342100	0.286200	0.512300
C871	C87	0.273100	0.239500	0.509800
C881	C88	0.231400	0.160100	0.459500
C891	C89	0.256100	0.124000	0.413500
C901	C90	0.216000	0.038300	0.360700
C911	C91	0.248300	0.280700	0.560000
C921	C92	0.296900	0.354700	0.620000
C931	C93	0.273600	0.395300	0.666500
C941	C94	0.145000	0.282600	0.590800
C951	C95	0.164200	0.242400	0.547000
C961	C96	0.328700	0.473400	0.727300
N91	N9	0.937100	0.303500	0.635800
N101	N10	0.581200	0.269600	0.406800
N111	N11	0.250400	0.592500	0.921100
N121	N12	0.292300	0.952800	0.148700
N131	N13	0.332300	0.198700	0.135800
N141	N14	0.137200	0.325600	0.906800
N151	N15	0.328600	0.170700	0.421100
N161	N16	0.195900	0.356400	0.648700
O171	O17	0.004100	0.306700	0.676200
O181	O18	0.514200	0.262400	0.365600
O191	O19	0.241800	0.521200	0.880600
O201	O20	0.292000	0.016700	0.190300
O211	O21	0.052900	0.444000	0.825100
O221	O22	0.113700	0.490900	0.736200
O231	O23	0.106000	0.256600	0.721800
O241	O24	0.252100	0.391900	0.839400
O251	O25	0.369500	0.172100	0.176200
O261	O26	0.103200	0.351400	0.865600
O271	O27	0.359400	0.138800	0.380600
O281	O28	0.173600	0.398300	0.690300
O291	O29	0.381100	0.272200	0.325100
O301	O30	0.245300	0.122500	0.236200
O311	O31	0.465200	0.115800	0.221800
O321	O32	0.447500	0.087300	0.339400
Cl11	Cl1	0.716800	0.295100	0.744700
O331	O33	0.681200	0.216400	0.689000
O341	O34	0.700800	0.292400	0.799000
O351	O35	0.799800	0.340000	0.768800
O361	O36	0.680900	0.326600	0.710500
Cl21	Cl2	0.923300	0.073300	0.552400
O371	O37	0.906800	0.995200	0.519000
O381	O38	0.850600	0.066200	0.533000
O391	O39	0.966000	0.131000	0.543000
O401	O40	0.958400	0.113200	0.636600
Cl31	Cl3	0.924300	0.074900	0.926400
O411	O41	0.884300	0.023000	0.948100
O421	O42	0.891400	0.032300	0.846100
O431	O43	0.919000	0.142200	0.942400
O441	O44	0.005000	0.105200	0.965000
Cl41	Cl4	0.550400	0.472100	0.755300
O451	O45	0.527400	0.492200	0.811000
O461	O46	0.493400	0.401800	0.701000
O471	O47	0.571200	0.531000	0.731200
O481	O48	0.616100	0.470400	0.789500
Cl51	Cl5	0.520900	0.870900	0.947600
O491	O49	0.476200	0.887800	0.981000
O501	O50	0.533200	0.817600	0.967000
O511	O51	0.588000	0.923000	0.957000
O521	O52	0.476600	0.821800	0.863400
Cl61	Cl6	0.148500	0.497900	0.573600
O531	O53	0.074900	0.436200	0.551900
O541	O54	0.186200	0.545300	0.653900
O551	O55	0.199800	0.476600	0.557600
O561	O56	0.140200	0.540000	0.535000
Cl71	Cl7	0.283200	0.704900	0.255300
O571	O57	0.318800	0.783600	0.311000
O581	O58	0.299200	0.707600	0.201000
O591	O59	0.200200	0.660000	0.231200
O601	O60	0.319100	0.673400	0.289500
Cl81	Cl8	0.076700	0.926700	0.447600
O611	O61	0.093200	0.004800	0.481000
O621	O62	0.149400	0.933800	0.467000
O631	O63	0.034000	0.869000	0.457000
O641	O64	0.041600	0.886800	0.363400
Cl91	Cl9	0.075700	0.925100	0.073600
O651	O65	0.115700	0.977000	0.051900
O661	O66	0.108600	0.967700	0.153900
O671	O67	0.081000	0.857800	0.057600
O681	O68	0.995000	0.894800	0.035000
Cl101	Cl10	0.449600	0.527900	0.244700
O691	O69	0.472600	0.507800	0.189000
O701	O70	0.506600	0.598200	0.299000
O711	O71	0.428800	0.469000	0.268800
O721	O72	0.383900	0.529600	0.210500
Cl111	Cl11	0.479100	0.129100	0.052400
O731	O73	0.523800	0.112200	0.019000
O741	O74	0.466800	0.182400	0.033000
O751	O75	0.412000	0.077000	0.043000
O761	O76	0.523400	0.178200	0.136600
Cl121	Cl12	0.851500	0.502100	0.426400
O771	O77	0.925100	0.563800	0.448100
O781	O78	0.813800	0.454700	0.346100
O791	O79	0.800200	0.523400	0.442400
O801	O80	0.859800	0.460000	0.465000
