data_TIFZIR_clean_PM
_symmetry_space_group_name_H-M	'P1'
_cell_length_a	16.335100
_cell_length_b	9.275000
_cell_length_c	17.241600
_cell_angle_alpha	90.000000
_cell_angle_beta	117.987000
_cell_angle_gamma	90.000000
_symmetry_Int_Tables_number 1

loop_
_symmetry_equiv_pos_as_xyz
'x,y,z'

loop_
_atom_site_label
_atom_site_type_symbol
_atom_site_fract_x
_atom_site_fract_y
_atom_site_fract_z
Zn11	Zn1	0.135000	0.122300	0.023280
P11	P1	0.143250	0.373320	0.900850
P21	P2	0.020120	0.918520	0.633820
O11	O1	0.142080	0.319370	0.984100
O21	O2	0.235000	0.436280	0.918340
O31	O3	0.108900	0.259880	0.829900
O41	O4	0.065500	0.024660	0.709200
O51	O5	0.089100	0.859700	0.606970
O61	O6	0.931010	0.976420	0.561410
H11	H1	0.086200	0.486390	0.874130
H21	H2	0.991780	0.811080	0.663010
Zn21	Zn2	0.635000	0.622300	0.023280
P31	P3	0.643250	0.873320	0.900850
P41	P4	0.520120	0.418520	0.633820
O71	O7	0.642080	0.819370	0.984100
O81	O8	0.735000	0.936280	0.918340
O91	O9	0.608900	0.759880	0.829900
O101	O10	0.565500	0.524660	0.709200
O111	O11	0.589100	0.359700	0.606970
O121	O12	0.431010	0.476420	0.561410
H31	H3	0.586200	0.986390	0.874130
H41	H4	0.491780	0.311080	0.663010
Zn31	Zn3	0.865000	0.122300	0.476720
P51	P5	0.856750	0.373320	0.599150
P61	P6	0.979880	0.918520	0.866180
O131	O13	0.857920	0.319370	0.515900
O141	O14	0.765000	0.436280	0.581660
O151	O15	0.891100	0.259880	0.670100
O161	O16	0.934500	0.024660	0.790800
O171	O17	0.910900	0.859700	0.893030
O181	O18	0.068990	0.976420	0.938590
H51	H5	0.913800	0.486390	0.625870
H61	H6	0.008220	0.811080	0.836990
Zn41	Zn4	0.365000	0.622300	0.476720
P71	P7	0.356750	0.873320	0.599150
P81	P8	0.479880	0.418520	0.866180
O191	O19	0.357920	0.819370	0.515900
O201	O20	0.265000	0.936280	0.581660
O211	O21	0.391100	0.759880	0.670100
O221	O22	0.434500	0.524660	0.790800
O231	O23	0.410900	0.359700	0.893030
O241	O24	0.568990	0.476420	0.938590
H71	H7	0.413800	0.986390	0.625870
H81	H8	0.508220	0.311080	0.836990
Zn51	Zn5	0.865000	0.877700	0.976720
P91	P9	0.856750	0.626680	0.099150
P101	P10	0.979880	0.081480	0.366180
O251	O25	0.857920	0.680630	0.015900
O261	O26	0.765000	0.563720	0.081660
O271	O27	0.891100	0.740120	0.170100
O281	O28	0.934500	0.975340	0.290800
O291	O29	0.910900	0.140300	0.393030
O301	O30	0.068990	0.023580	0.438590
H91	H9	0.913800	0.513610	0.125870
H101	H10	0.008220	0.188920	0.336990
Zn61	Zn6	0.365000	0.377700	0.976720
P111	P11	0.356750	0.126680	0.099150
P121	P12	0.479880	0.581480	0.366180
O311	O31	0.357920	0.180630	0.015900
O321	O32	0.265000	0.063720	0.081660
O331	O33	0.391100	0.240120	0.170100
O341	O34	0.434500	0.475340	0.290800
O351	O35	0.410900	0.640300	0.393030
O361	O36	0.568990	0.523580	0.438590
H111	H11	0.413800	0.013610	0.125870
H121	H12	0.508220	0.688920	0.336990
Zn71	Zn7	0.135000	0.877700	0.523280
P131	P13	0.143250	0.626680	0.400850
P141	P14	0.020120	0.081480	0.133820
O371	O37	0.142080	0.680630	0.484100
O381	O38	0.235000	0.563720	0.418340
O391	O39	0.108900	0.740120	0.329900
O401	O40	0.065500	0.975340	0.209200
O411	O41	0.089100	0.140300	0.106970
O421	O42	0.931010	0.023580	0.061410
H131	H13	0.086200	0.513610	0.374130
H141	H14	0.991780	0.188920	0.163010
Zn81	Zn8	0.635000	0.377700	0.523280
P151	P15	0.643250	0.126680	0.400850
P161	P16	0.520120	0.581480	0.133820
O431	O43	0.642080	0.180630	0.484100
O441	O44	0.735000	0.063720	0.418340
O451	O45	0.608900	0.240120	0.329900
O461	O46	0.565500	0.475340	0.209200
O471	O47	0.589100	0.640300	0.106970
O481	O48	0.431010	0.523580	0.061410
H151	H15	0.586200	0.013610	0.374130
H161	H16	0.491780	0.688920	0.163010
Zn91	Zn9	0.000000	0.153850	0.750000
Zn101	Zn10	0.500000	0.653850	0.750000
Zn111	Zn11	0.000000	0.846150	0.250000
Zn121	Zn12	0.500000	0.346150	0.250000
