data_TIGSOT_clean_PM
_symmetry_space_group_name_H-M	'P1'
_cell_length_a	9.646000
_cell_length_b	9.410000
_cell_length_c	30.929000
_cell_angle_alpha	90.000000
_cell_angle_beta	93.338000
_cell_angle_gamma	90.000000
_symmetry_Int_Tables_number 1

loop_
_symmetry_equiv_pos_as_xyz
'x,y,z'

loop_
_atom_site_label
_atom_site_type_symbol
_atom_site_fract_x
_atom_site_fract_y
_atom_site_fract_z
Zn11	Zn1	0.035570	0.271060	0.140270
Zn21	Zn2	0.214630	0.556040	0.039690
Zn31	Zn3	0.061670	0.802110	0.193450
P11	P1	0.962490	0.110130	0.220800
P21	P2	0.248920	0.060780	0.182700
P31	P3	0.927410	0.374310	0.050420
P41	P4	0.024780	0.599270	0.114500
O11	O1	0.911000	0.198400	0.182050
O21	O2	0.934200	0.951100	0.213810
O31	O3	0.900200	0.162000	0.261850
O41	O4	0.180600	0.130100	0.141800
O51	O5	0.398300	0.103600	0.190500
O61	O6	0.230400	0.899400	0.181570
O71	O7	0.191400	0.275700	0.228640
H11	H1	0.148500	0.318200	0.246800
O81	O8	0.931600	0.254300	0.083250
O91	O9	0.069600	0.399600	0.033120
O101	O10	0.817400	0.343300	0.014470
O111	O11	0.969600	0.715900	0.142410
O121	O12	0.133900	0.659100	0.085800
O131	O13	0.077900	0.472400	0.140670
O141	O14	0.834500	0.645300	0.047970
H21	H2	0.865400	0.627200	0.024500
N11	N1	0.533000	0.878400	0.299100
H31	H3	0.565400	0.793300	0.300000
N21	N2	0.391800	0.452100	0.057300
C11	C1	0.153300	0.128400	0.228500
C21	C2	0.193500	0.054400	0.272300
H41	H4	0.154400	0.109800	0.295100
H51	H5	0.148500	0.962200	0.272000
C31	C3	0.344300	0.032200	0.284500
C41	C4	0.432700	0.143700	0.296800
H61	H6	0.398500	0.236200	0.296100
C51	C5	0.570600	0.120200	0.310000
H71	H7	0.629100	0.195400	0.318000
C61	C6	0.617900	0.984400	0.310800
H81	H8	0.709900	0.965500	0.319600
C71	C7	0.399700	0.897100	0.286100
H91	H9	0.344600	0.819300	0.278200
C81	C8	0.876900	0.535900	0.078800
C91	C9	0.753900	0.513300	0.108000
H101	H10	0.788900	0.460700	0.133300
H111	H11	0.726000	0.606100	0.118000
C101	C10	0.623500	0.437800	0.090000
C111	C11	0.604700	0.297400	0.097900
H121	H12	0.676100	0.243400	0.111100
C121	C12	0.480200	0.237000	0.086500
H131	H13	0.465400	0.141700	0.092600
C131	C13	0.375400	0.315700	0.065800
H141	H14	0.291500	0.271900	0.057700
C141	C14	0.512500	0.512200	0.070300
H151	H15	0.523000	0.609200	0.065900
Zn41	Zn4	0.964430	0.771060	0.359730
Zn51	Zn5	0.785370	0.056040	0.460310
Zn61	Zn6	0.938330	0.302110	0.306550
P51	P5	0.037510	0.610130	0.279200
P61	P6	0.751080	0.560780	0.317300
P71	P7	0.072590	0.874310	0.449580
P81	P8	0.975220	0.099270	0.385500
O151	O15	0.089000	0.698400	0.317950
O161	O16	0.065800	0.451100	0.286190
O171	O17	0.099800	0.662000	0.238150
O181	O18	0.819400	0.630100	0.358200
O191	O19	0.601700	0.603600	0.309500
O201	O20	0.769600	0.399400	0.318430
O211	O21	0.808600	0.775700	0.271360
H161	H16	0.851500	0.818200	0.253200
O221	O22	0.068400	0.754300	0.416750
O231	O23	0.930400	0.899600	0.466880
O241	O24	0.182600	0.843300	0.485530
O251	O25	0.030400	0.215900	0.357590
O261	O26	0.866100	0.159100	0.414200
O271	O27	0.922100	0.972400	0.359330
O281	O28	0.165500	0.145300	0.452030
H171	H17	0.134600	0.127200	0.475500
N31	N3	0.467000	0.378400	0.200900
H181	H18	0.434600	0.293300	0.200000
N41	N4	0.608200	0.952100	0.442700
C151	C15	0.846700	0.628400	0.271500
C161	C16	0.806500	0.554400	0.227700
H191	H19	0.845600	0.609800	0.204900
H201	H20	0.851500	0.462200	0.228000
C171	C17	0.655700	0.532200	0.215500
C181	C18	0.567300	0.643700	0.203200
H211	H21	0.601500	0.736200	0.203900
C191	C19	0.429400	0.620200	0.190000
H221	H22	0.370900	0.695400	0.182000
C201	C20	0.382100	0.484400	0.189200
H231	H23	0.290100	0.465500	0.180400
C211	C21	0.600300	0.397100	0.213900
H241	H24	0.655400	0.319300	0.221800
C221	C22	0.123100	0.035900	0.421200
C231	C23	0.246100	0.013300	0.392000
H251	H25	0.211100	0.960700	0.366700
H261	H26	0.274000	0.106100	0.382000
C241	C24	0.376500	0.937800	0.410000
C251	C25	0.395300	0.797400	0.402100
H271	H27	0.323900	0.743400	0.388900
C261	C26	0.519800	0.737000	0.413500
H281	H28	0.534600	0.641700	0.407400
C271	C27	0.624600	0.815700	0.434200
H291	H29	0.708500	0.771900	0.442300
C281	C28	0.487500	0.012200	0.429700
H301	H30	0.477000	0.109200	0.434100
Zn71	Zn7	0.964430	0.728940	0.859730
Zn81	Zn8	0.785370	0.443960	0.960310
Zn91	Zn9	0.938330	0.197890	0.806550
P91	P9	0.037510	0.889870	0.779200
P101	P10	0.751080	0.939220	0.817300
P111	P11	0.072590	0.625690	0.949580
P121	P12	0.975220	0.400730	0.885500
O291	O29	0.089000	0.801600	0.817950
O301	O30	0.065800	0.048900	0.786190
O311	O31	0.099800	0.838000	0.738150
O321	O32	0.819400	0.869900	0.858200
O331	O33	0.601700	0.896400	0.809500
O341	O34	0.769600	0.100600	0.818430
O351	O35	0.808600	0.724300	0.771360
H311	H31	0.851500	0.681800	0.753200
O361	O36	0.068400	0.745700	0.916750
O371	O37	0.930400	0.600400	0.966880
O381	O38	0.182600	0.656700	0.985530
O391	O39	0.030400	0.284100	0.857590
O401	O40	0.866100	0.340900	0.914200
O411	O41	0.922100	0.527600	0.859330
O421	O42	0.165500	0.354700	0.952030
H321	H32	0.134600	0.372800	0.975500
N51	N5	0.467000	0.121600	0.700900
H331	H33	0.434600	0.206700	0.700000
N61	N6	0.608200	0.547900	0.942700
C291	C29	0.846700	0.871600	0.771500
C301	C30	0.806500	0.945600	0.727700
H341	H34	0.845600	0.890200	0.704900
H351	H35	0.851500	0.037800	0.728000
C311	C31	0.655700	0.967800	0.715500
C321	C32	0.567300	0.856300	0.703200
H361	H36	0.601500	0.763800	0.703900
C331	C33	0.429400	0.879800	0.690000
H371	H37	0.370900	0.804600	0.682000
C341	C34	0.382100	0.015600	0.689200
H381	H38	0.290100	0.034500	0.680400
C351	C35	0.600300	0.102900	0.713900
H391	H39	0.655400	0.180700	0.721800
C361	C36	0.123100	0.464100	0.921200
C371	C37	0.246100	0.486700	0.892000
H401	H40	0.211100	0.539300	0.866700
H411	H41	0.274000	0.393900	0.882000
C381	C38	0.376500	0.562200	0.910000
C391	C39	0.395300	0.702600	0.902100
H421	H42	0.323900	0.756600	0.888900
C401	C40	0.519800	0.763000	0.913500
H431	H43	0.534600	0.858300	0.907400
C411	C41	0.624600	0.684300	0.934200
H441	H44	0.708500	0.728100	0.942300
C421	C42	0.487500	0.487800	0.929700
H451	H45	0.477000	0.390800	0.934100
Zn101	Zn10	0.035570	0.228940	0.640270
Zn111	Zn11	0.214630	0.943960	0.539690
Zn121	Zn12	0.061670	0.697890	0.693450
P131	P13	0.962490	0.389870	0.720800
P141	P14	0.248920	0.439220	0.682700
P151	P15	0.927410	0.125690	0.550420
P161	P16	0.024780	0.900730	0.614500
O431	O43	0.911000	0.301600	0.682050
O441	O44	0.934200	0.548900	0.713810
O451	O45	0.900200	0.338000	0.761850
O461	O46	0.180600	0.369900	0.641800
O471	O47	0.398300	0.396400	0.690500
O481	O48	0.230400	0.600600	0.681570
O491	O49	0.191400	0.224300	0.728640
H461	H46	0.148500	0.181800	0.746800
O501	O50	0.931600	0.245700	0.583250
O511	O51	0.069600	0.100400	0.533120
O521	O52	0.817400	0.156700	0.514470
O531	O53	0.969600	0.784100	0.642410
O541	O54	0.133900	0.840900	0.585800
O551	O55	0.077900	0.027600	0.640670
O561	O56	0.834500	0.854700	0.547970
H471	H47	0.865400	0.872800	0.524500
N71	N7	0.533000	0.621600	0.799100
H481	H48	0.565400	0.706700	0.800000
N81	N8	0.391800	0.047900	0.557300
C431	C43	0.153300	0.371600	0.728500
C441	C44	0.193500	0.445600	0.772300
H491	H49	0.154400	0.390200	0.795100
H501	H50	0.148500	0.537800	0.772000
C451	C45	0.344300	0.467800	0.784500
C461	C46	0.432700	0.356300	0.796800
H511	H51	0.398500	0.263800	0.796100
C471	C47	0.570600	0.379800	0.810000
H521	H52	0.629100	0.304600	0.818000
C481	C48	0.617900	0.515600	0.810800
H531	H53	0.709900	0.534500	0.819600
C491	C49	0.399700	0.602900	0.786100
H541	H54	0.344600	0.680700	0.778200
C501	C50	0.876900	0.964100	0.578800
C511	C51	0.753900	0.986700	0.608000
H551	H55	0.788900	0.039300	0.633300
H561	H56	0.726000	0.893900	0.618000
C521	C52	0.623500	0.062200	0.590000
C531	C53	0.604700	0.202600	0.597900
H571	H57	0.676100	0.256600	0.611100
C541	C54	0.480200	0.263000	0.586500
H581	H58	0.465400	0.358300	0.592600
C551	C55	0.375400	0.184300	0.565800
H591	H59	0.291500	0.228100	0.557700
C561	C56	0.512500	0.987800	0.570300
H601	H60	0.523000	0.890800	0.565900
