data_TIJPOT_clean_PM
_symmetry_space_group_name_H-M	'P1'
_cell_length_a	12.417600
_cell_length_b	22.534600
_cell_length_c	10.164400
_cell_angle_alpha	90.000000
_cell_angle_beta	107.054000
_cell_angle_gamma	90.000000
_symmetry_Int_Tables_number 1

loop_
_symmetry_equiv_pos_as_xyz
'x,y,z'

loop_
_atom_site_label
_atom_site_type_symbol
_atom_site_fract_x
_atom_site_fract_y
_atom_site_fract_z
C11	C1	0.157800	0.643030	0.884000
C21	C2	0.116100	0.706670	0.859000
H11	H1	0.161000	0.727600	0.807300
H21	H2	0.036800	0.706200	0.800500
C31	C3	0.039900	0.747120	0.041500
H31	H3	0.966300	0.730900	0.008000
C41	C4	0.216900	0.770000	0.063800
H41	H4	0.288400	0.772100	0.047600
C51	C5	0.187700	0.795300	0.168300
H51	H5	0.234800	0.819100	0.239400
C61	C6	0.011200	0.799100	0.244100
H61	H6	0.060100	0.797400	0.340500
H71	H7	0.949200	0.770400	0.235100
C71	C7	0.961300	0.860910	0.216100
C81	C8	0.549800	0.489510	0.884100
C91	C9	0.659200	0.497000	0.845900
H81	H8	0.654700	0.473000	0.762700
H91	H9	0.667300	0.539100	0.822800
C101	C10	0.809000	0.423930	0.974600
H101	H10	0.786700	0.390400	0.916300
C111	C11	0.895700	0.426390	0.091600
H111	H11	0.946900	0.395300	0.130200
C121	C12	0.812000	0.514050	0.060300
H121	H12	0.793500	0.554200	0.072600
C131	C13	0.983000	0.507700	0.260300
H131	H13	0.995400	0.481300	0.341100
H141	H14	0.959000	0.547000	0.285000
C141	C14	0.092100	0.514180	0.221800
N11	N1	0.122700	0.740270	0.984500
N21	N2	0.077300	0.780480	0.153200
N31	N3	0.759000	0.479000	0.955800
N41	N4	0.895300	0.482980	0.144300
O11	O1	0.912100	0.877960	0.301600
O21	O2	0.355900	0.547020	0.993500
H151	H15	0.384000	0.579500	0.028000
O31	O3	0.275800	0.540840	0.601100
H161	H16	0.225000	0.565400	0.564000
O41	O4	0.172800	0.621250	0.002500
O51	O5	0.168200	0.617130	0.780400
O61	O6	0.972300	0.888440	0.113500
O71	O7	0.557800	0.481690	0.009600
O81	O8	0.461200	0.492780	0.786900
O91	O9	0.081200	0.526890	0.097900
O101	O10	0.183500	0.507550	0.313800
Cu11	Cu1	0.422680	0.469620	0.064850
Cu21	Cu2	0.310850	0.552990	0.796000
Cu31	Cu3	0.216090	0.538710	0.040690
C151	C15	0.657800	0.143030	0.884000
C161	C16	0.616100	0.206670	0.859000
H171	H17	0.661000	0.227600	0.807300
H181	H18	0.536800	0.206200	0.800500
C171	C17	0.539900	0.247120	0.041500
H191	H19	0.466300	0.230900	0.008000
C181	C18	0.716900	0.270000	0.063800
H201	H20	0.788400	0.272100	0.047600
C191	C19	0.687700	0.295300	0.168300
H211	H21	0.734800	0.319100	0.239400
C201	C20	0.511200	0.299100	0.244100
H221	H22	0.560100	0.297400	0.340500
H231	H23	0.449200	0.270400	0.235100
C211	C21	0.461300	0.360910	0.216100
C221	C22	0.049800	0.989510	0.884100
C231	C23	0.159200	0.997000	0.845900
H241	H24	0.154700	0.973000	0.762700
H251	H25	0.167300	0.039100	0.822800
C241	C24	0.309000	0.923930	0.974600
H261	H26	0.286700	0.890400	0.916300
C251	C25	0.395700	0.926390	0.091600
H271	H27	0.446900	0.895300	0.130200
C261	C26	0.312000	0.014050	0.060300
H281	H28	0.293500	0.054200	0.072600
C271	C27	0.483000	0.007700	0.260300
H291	H29	0.495400	0.981300	0.341100
H301	H30	0.459000	0.047000	0.285000
C281	C28	0.592100	0.014180	0.221800
N51	N5	0.622700	0.240270	0.984500
N61	N6	0.577300	0.280480	0.153200
N71	N7	0.259000	0.979000	0.955800
N81	N8	0.395300	0.982980	0.144300
O111	O11	0.412100	0.377960	0.301600
O121	O12	0.855900	0.047020	0.993500
H311	H31	0.884000	0.079500	0.028000
O131	O13	0.775800	0.040840	0.601100
H321	H32	0.725000	0.065400	0.564000
O141	O14	0.672800	0.121250	0.002500
O151	O15	0.668200	0.117130	0.780400
O161	O16	0.472300	0.388440	0.113500
O171	O17	0.057800	0.981690	0.009600
O181	O18	0.961200	0.992780	0.786900
O191	O19	0.581200	0.026890	0.097900
O201	O20	0.683500	0.007550	0.313800
Cu41	Cu4	0.922680	0.969620	0.064850
Cu51	Cu5	0.810850	0.052990	0.796000
Cu61	Cu6	0.716090	0.038710	0.040690
C291	C29	0.157800	0.356970	0.384000
C301	C30	0.116100	0.293330	0.359000
H331	H33	0.161000	0.272400	0.307300
H341	H34	0.036800	0.293800	0.300500
C311	C31	0.039900	0.252880	0.541500
H351	H35	0.966300	0.269100	0.508000
C321	C32	0.216900	0.230000	0.563800
H361	H36	0.288400	0.227900	0.547600
C331	C33	0.187700	0.204700	0.668300
H371	H37	0.234800	0.180900	0.739400
C341	C34	0.011200	0.200900	0.744100
H381	H38	0.060100	0.202600	0.840500
H391	H39	0.949200	0.229600	0.735100
C351	C35	0.961300	0.139090	0.716100
C361	C36	0.549800	0.510490	0.384100
C371	C37	0.659200	0.503000	0.345900
H401	H40	0.654700	0.527000	0.262700
H411	H41	0.667300	0.460900	0.322800
C381	C38	0.809000	0.576070	0.474600
H421	H42	0.786700	0.609600	0.416300
C391	C39	0.895700	0.573610	0.591600
H431	H43	0.946900	0.604700	0.630200
C401	C40	0.812000	0.485950	0.560300
H441	H44	0.793500	0.445800	0.572600
C411	C41	0.983000	0.492300	0.760300
H451	H45	0.995400	0.518700	0.841100
H461	H46	0.959000	0.453000	0.785000
C421	C42	0.092100	0.485820	0.721800
N91	N9	0.122700	0.259730	0.484500
N101	N10	0.077300	0.219520	0.653200
N111	N11	0.759000	0.521000	0.455800
N121	N12	0.895300	0.517020	0.644300
O211	O21	0.912100	0.122040	0.801600
O221	O22	0.355900	0.452980	0.493500
H471	H47	0.384000	0.420500	0.528000
O231	O23	0.275800	0.459160	0.101100
H481	H48	0.225000	0.434600	0.064000
O241	O24	0.172800	0.378750	0.502500
O251	O25	0.168200	0.382870	0.280400
O261	O26	0.972300	0.111560	0.613500
O271	O27	0.557800	0.518310	0.509600
O281	O28	0.461200	0.507220	0.286900
O291	O29	0.081200	0.473110	0.597900
O301	O30	0.183500	0.492450	0.813800
Cu71	Cu7	0.422680	0.530380	0.564850
Cu81	Cu8	0.310850	0.447010	0.296000
Cu91	Cu9	0.216090	0.461290	0.540690
C431	C43	0.657800	0.856970	0.384000
C441	C44	0.616100	0.793330	0.359000
H491	H49	0.661000	0.772400	0.307300
H501	H50	0.536800	0.793800	0.300500
C451	C45	0.539900	0.752880	0.541500
H511	H51	0.466300	0.769100	0.508000
C461	C46	0.716900	0.730000	0.563800
H521	H52	0.788400	0.727900	0.547600
C471	C47	0.687700	0.704700	0.668300
H531	H53	0.734800	0.680900	0.739400
C481	C48	0.511200	0.700900	0.744100
H541	H54	0.560100	0.702600	0.840500
H551	H55	0.449200	0.729600	0.735100
C491	C49	0.461300	0.639090	0.716100
C501	C50	0.049800	0.010490	0.384100
C511	C51	0.159200	0.003000	0.345900
H561	H56	0.154700	0.027000	0.262700
H571	H57	0.167300	0.960900	0.322800
C521	C52	0.309000	0.076070	0.474600
H581	H58	0.286700	0.109600	0.416300
C531	C53	0.395700	0.073610	0.591600
H591	H59	0.446900	0.104700	0.630200
C541	C54	0.312000	0.985950	0.560300
H601	H60	0.293500	0.945800	0.572600
C551	C55	0.483000	0.992300	0.760300
H611	H61	0.495400	0.018700	0.841100
H621	H62	0.459000	0.953000	0.785000
C561	C56	0.592100	0.985820	0.721800
N131	N13	0.622700	0.759730	0.484500
N141	N14	0.577300	0.719520	0.653200
N151	N15	0.259000	0.021000	0.455800
N161	N16	0.395300	0.017020	0.644300
O311	O31	0.412100	0.622040	0.801600
O321	O32	0.855900	0.952980	0.493500
H631	H63	0.884000	0.920500	0.528000
O331	O33	0.775800	0.959160	0.101100
H641	H64	0.725000	0.934600	0.064000
O341	O34	0.672800	0.878750	0.502500
O351	O35	0.668200	0.882870	0.280400
O361	O36	0.472300	0.611560	0.613500
O371	O37	0.057800	0.018310	0.509600
O381	O38	0.961200	0.007220	0.286900
O391	O39	0.581200	0.973110	0.597900
O401	O40	0.683500	0.992450	0.813800
Cu101	Cu10	0.922680	0.030380	0.564850
Cu111	Cu11	0.810850	0.947010	0.296000
Cu121	Cu12	0.716090	0.961290	0.540690
