data_TIKMEH_clean_PM
_symmetry_space_group_name_H-M	'P1'
_cell_length_a	10.592500
_cell_length_b	19.440900
_cell_length_c	23.682000
_cell_angle_alpha	73.744000
_cell_angle_beta	83.661000
_cell_angle_gamma	89.712000
_symmetry_Int_Tables_number 1

loop_
_symmetry_equiv_pos_as_xyz
'x,y,z'

loop_
_atom_site_label
_atom_site_type_symbol
_atom_site_fract_x
_atom_site_fract_y
_atom_site_fract_z
Cd11	Cd1	0.106400	0.223810	0.240300
Cd21	Cd2	0.696940	0.156550	0.258710
Cd31	Cd3	0.085620	0.657580	0.252960
Cd41	Cd4	0.893600	0.776190	0.759700
Cd51	Cd5	0.450060	0.040900	0.760500
Cd61	Cd6	0.753560	0.545270	0.773290
Cd71	Cd7	0.303060	0.843450	0.741290
Cd81	Cd8	0.678520	0.712520	0.267080
Cd91	Cd9	0.321480	0.287480	0.732920
Cd101	Cd10	0.914380	0.342420	0.747040
Cd111	Cd11	0.549940	0.959100	0.239500
Cd121	Cd12	0.246440	0.454730	0.226710
H11	H1	0.283800	0.926500	0.255300
H21	H2	0.659400	0.577300	0.379700
H31	H3	0.188700	0.028700	0.255400
H41	H4	0.671400	0.631700	0.166100
H51	H5	0.803700	0.099400	0.151800
H61	H6	0.333000	0.458300	0.519600
H71	H7	0.212000	0.668200	0.956000
H81	H8	0.510600	0.141100	0.905600
H91	H9	0.255900	0.323500	0.336500
H101	H10	0.400300	0.814900	0.450500
H111	H11	0.510700	0.715800	0.979800
H121	H12	0.868600	0.127500	0.053600
H131	H13	0.843000	0.842500	0.046600
H141	H14	0.170000	0.134000	0.145200
H151	H15	0.999700	0.618200	0.479200
H161	H16	0.738200	0.029400	0.378400
H171	H17	0.478700	0.835000	0.928900
H181	H18	0.326900	0.253700	0.522200
H191	H19	0.276000	0.357000	0.931200
H201	H20	0.597000	0.529100	0.255900
H211	H21	0.716200	0.073500	0.744700
H221	H22	0.489400	0.858900	0.094400
H231	H23	0.811300	0.971300	0.744600
H241	H24	0.046100	0.503100	0.337800
H251	H25	0.124200	0.349800	0.013600
H261	H26	0.589400	0.213900	0.362400
H271	H27	0.834100	0.176400	0.737300
H281	H28	0.435100	0.805000	0.538200
H291	H29	0.599700	0.185100	0.549500
H301	H30	0.603300	0.332400	0.920900
H311	H31	0.943000	0.388600	0.858900
H321	H32	0.201800	0.142300	0.047400
H331	H33	0.165900	0.823600	0.262700
H341	H34	0.977100	0.320000	0.618900
H351	H35	0.131400	0.872500	0.946400
H361	H36	0.022900	0.680000	0.381100
H371	H37	0.724000	0.643000	0.068800
H381	H38	0.953900	0.496900	0.662200
H391	H39	0.417800	0.363600	0.073700
H401	H40	0.830000	0.866000	0.854800
H411	H41	0.730600	0.296600	0.144100
H421	H42	0.057000	0.611400	0.141100
H431	H43	0.129000	0.805900	0.142900
H441	H44	0.911900	0.666500	0.887200
H451	H45	0.788000	0.331800	0.044000
H461	H46	0.557800	0.160300	0.649600
H471	H47	0.637900	0.484500	0.673100
H481	H48	0.425000	0.041800	0.330500
H491	H49	0.340600	0.422700	0.620300
H501	H50	0.673100	0.746300	0.477800
H511	H51	0.744100	0.676500	0.663500
H521	H52	0.564900	0.195000	0.461800
H531	H53	0.834900	0.156600	0.959300
H541	H54	0.582200	0.636400	0.926300
H551	H55	0.000300	0.381800	0.520800
H561	H56	0.403000	0.470900	0.744100
H571	H57	0.875800	0.650200	0.986400
H581	H58	0.500100	0.573200	0.751900
H591	H59	0.619800	0.329100	0.244500
H601	H60	0.023500	0.437500	0.434000
H611	H61	0.269400	0.703400	0.855900
H621	H62	0.871000	0.194100	0.857100
H631	H63	0.614700	0.515200	0.574500
H641	H64	0.362100	0.515500	0.326900
H651	H65	0.272500	0.285900	0.434000
H661	H66	0.203000	0.175300	0.853800
H671	H67	0.261800	0.970600	0.621600
H681	H68	0.375700	0.023600	0.429300
H691	H69	0.410600	0.786100	0.637600
H701	H70	0.499900	0.426800	0.248100
H711	H71	0.713700	0.004700	0.478400
H721	H72	0.320600	0.222200	0.622700
H731	H73	0.328600	0.368300	0.833900
H741	H74	0.396700	0.667600	0.079100
H751	H75	0.196300	0.900600	0.848200
H761	H76	0.537900	0.214300	0.962800
H771	H77	0.679400	0.777800	0.377300
H781	H78	0.624300	0.976400	0.570700
H791	H79	0.091500	0.641500	0.041400
H801	H80	0.157000	0.157500	0.953400
H811	H81	0.797000	0.824700	0.146200
H821	H82	0.165100	0.843400	0.040700
H831	H83	0.575000	0.958200	0.669500
H841	H84	0.462100	0.785700	0.037200
H851	H85	0.667000	0.541700	0.480400
H861	H86	0.380200	0.670900	0.755500
H871	H87	0.798200	0.857700	0.952600
H881	H88	0.489300	0.284200	0.020200
H891	H89	0.976500	0.562500	0.566000
H901	H90	0.442200	0.839700	0.350400
H911	H91	0.908500	0.358500	0.958600
H921	H92	0.088100	0.333500	0.112800
H931	H93	0.727500	0.714100	0.566000
H941	H94	0.286300	0.995300	0.521600
H951	H95	0.521300	0.165000	0.071100
H961	H96	0.385300	0.484800	0.425500
C11	C1	0.516900	0.167300	0.790700
C21	C2	0.554200	0.214900	0.826800
C31	C3	0.758700	0.262300	0.125400
C41	C4	0.616300	0.082900	0.546600
C51	C5	0.579700	0.004900	0.644900
C61	C6	0.660000	0.371600	0.244200
C71	C7	0.526900	0.731400	0.938700
C81	C8	0.493300	0.197400	0.092000
C91	C9	0.204000	0.059700	0.742200
C101	C10	0.597300	0.285600	0.800700
C111	C11	0.404400	0.862300	0.427300
C121	C12	0.707800	0.674800	0.141900
C131	C13	0.207800	0.624800	0.760000
C141	C14	0.609000	0.015700	0.585300
C151	C15	0.160800	0.836800	0.929500
C161	C16	0.919600	0.341400	0.879400
C171	C17	0.330000	0.358900	0.509200
C181	C18	0.078500	0.197100	0.737100
C191	C19	0.739500	0.681400	0.083600
C201	C20	0.506700	0.802600	0.908000
C211	C21	0.665900	0.611900	0.399600
C221	C22	0.383700	0.917100	0.453400
C231	C23	0.860600	0.011400	0.743100
C241	C24	0.483100	0.832700	0.209300
C251	C25	0.327000	0.289400	0.541400
C261	C26	0.400200	0.196600	0.250400
C271	C27	0.670000	0.641100	0.490800
C281	C28	0.499000	0.098700	0.183400
C291	C29	0.281100	0.356600	0.355100
C301	C30	0.865700	0.695100	0.960400
C311	C31	0.241300	0.737700	0.874600
C321	C32	0.139400	0.988600	0.256900
C331	C33	0.792100	0.283800	0.065200
C341	C34	0.961300	0.473000	0.633100
C351	C35	0.839200	0.163200	0.070500
C361	C36	0.343200	0.468500	0.349400
C371	C37	0.399800	0.840500	0.554000
C381	C38	0.528100	0.825000	0.847400
C391	C39	0.864600	0.309100	0.241600
C401	C40	0.420300	0.995100	0.355100
C411	C41	0.635800	0.096200	0.483500
C421	C42	0.008300	0.994400	0.258900
C431	C43	0.501000	0.901300	0.816600
C441	C44	0.618700	0.314600	0.734600
C451	C45	0.338300	0.342500	0.184400
C461	C46	0.447000	0.767900	0.078200
C471	C47	0.064300	0.065100	0.741000
C481	C48	0.571600	0.684400	0.906700
C491	C49	0.600000	0.708600	0.846400
C501	C50	0.464600	0.811200	0.112000
C511	C51	0.473100	0.268600	0.061300
C521	C52	0.180900	0.183000	0.059300
C531	C53	0.080400	0.658600	0.120600
C541	C54	0.701800	0.063700	0.395200
C551	C55	0.144800	0.795500	0.060100
C561	C56	0.364200	0.903800	0.516500
C571	C57	0.646300	0.491000	0.251100
C581	C58	0.023900	0.487300	0.424600
C591	C59	0.381300	0.685400	0.265400
C601	C60	0.122300	0.772500	0.121900
C611	C61	0.428400	0.315600	0.093300
C621	C62	0.353700	0.509000	0.748900
C631	C63	0.643100	0.549400	0.591200
C641	C64	0.332400	0.409800	0.539700
C651	C65	0.205800	0.256300	0.954300
C661	C66	0.840700	0.821800	0.881800
C671	C67	0.991700	0.005600	0.741100
C681	C68	0.333100	0.595700	0.189600
C691	C69	0.852000	0.440500	0.238800
C701	C70	0.993800	0.446000	0.233300
C711	C71	0.356900	0.450600	0.408800
C721	C72	0.334100	0.388100	0.600400
C731	C73	0.471900	0.175000	0.152600
C741	C74	0.974700	0.369700	0.608200
C751	C75	0.189300	0.201800	0.929700
C761	C76	0.568800	0.122200	0.633200
C771	C77	0.718900	0.643400	0.644900
C781	C78	0.407000	0.697300	0.103100
C791	C79	0.952300	0.064900	0.259700
C801	C80	0.148000	0.559500	0.761200
C811	C81	0.792200	0.375200	0.240000
C821	C82	0.535400	0.188800	0.888000
C831	C83	0.666900	0.404300	0.810400
C841	C84	0.167000	0.435100	0.746300
C851	C85	0.616000	0.170800	0.386000
C861	C86	0.553000	0.232100	0.921800
C871	C87	0.445800	0.785100	0.173200
C881	C88	0.675700	0.729400	0.398100
C891	C89	0.006000	0.129700	0.739900
C901	C90	0.994000	0.870300	0.260100
C911	C91	0.810700	0.798200	0.070300
C921	C92	0.327900	0.380800	0.443500
C931	C93	0.197500	0.852900	0.870400
C941	C94	0.298200	0.936300	0.604800
C951	C95	0.400000	0.291400	0.153600
C961	C96	0.661700	0.657500	0.815600
C971	C97	0.832600	0.232500	0.035900
C981	C98	0.672100	0.619200	0.556500
C991	C99	0.617600	0.328900	0.836200
C1001	C100	0.391000	0.984300	0.414700
C1011	C101	0.687500	0.048600	0.455800
C1021	C102	0.312500	0.951400	0.544200
C1031	C103	0.167400	0.767500	0.964100
C1041	C104	0.290800	0.333700	0.413600
C1051	C105	0.877700	0.227500	0.878100
C1061	C106	0.260500	0.318600	0.916400
C1071	C107	0.221800	0.502900	0.752600
C1081	C108	0.656800	0.531500	0.650600
C1091	C109	0.976100	0.512700	0.575400
C1101	C110	0.006200	0.554000	0.766700
C1111	C111	0.673000	0.710600	0.458600
C1121	C112	0.431200	0.877800	0.366800
C1131	C113	0.804300	0.071800	0.742800
C1141	C114	0.709200	0.666300	0.586400
C1151	C115	0.794200	0.743700	0.045700
C1161	C116	0.424400	0.222200	0.184000
C1171	C117	0.025300	0.630300	0.391800
C1181	C118	0.292200	0.325200	0.858100
C1191	C119	0.402700	0.714400	0.199300
C1201	C120	0.874400	0.133300	0.739600
C1211	C121	0.600200	0.159500	0.446000
C1221	C122	0.899000	0.323800	0.939100
C1231	C123	0.038700	0.527000	0.366900
C1241	C124	0.135400	0.690900	0.758400
C1251	C125	0.990000	0.406900	0.549100
C1261	C126	0.796000	0.940300	0.257800
C1271	C127	0.101000	0.676200	0.060900
C1281	C128	0.887300	0.705700	0.900700
C1291	C129	0.802500	0.147100	0.129600
C1301	C130	0.667600	0.590200	0.460300
C1311	C131	0.340000	0.628400	0.755800
C1321	C132	0.047700	0.935100	0.740300
C1331	C133	0.382400	0.671100	0.163800
C1341	C134	0.112700	0.294300	0.099300
C1351	C135	0.195700	0.928200	0.257200
C1361	C136	0.575600	0.777800	0.816000
C1371	C137	0.324300	0.270600	0.601900
C1381	C138	0.159300	0.178200	0.118200
C1391	C139	0.990100	0.479600	0.531300
C1401	C140	0.779700	0.787600	0.130300
C1411	C141	0.778200	0.497100	0.247400
C1421	C142	0.921500	0.802900	0.262900
C1431	C143	0.595600	0.137700	0.572700
C1441	C144	0.125600	0.866700	0.260400
C1451	C145	0.855200	0.204500	0.939900
C1461	C146	0.412400	0.570700	0.752200
C1471	C147	0.134300	0.304900	0.039600
C1481	C148	0.384000	0.829200	0.614000
C1491	C149	0.172000	0.246600	0.018000
C1501	C150	0.010000	0.593100	0.450900
C1511	C151	0.819100	0.817000	0.940700
C1521	C152	0.935700	0.934900	0.259000
C1531	C153	0.828000	0.753400	0.982000
C1541	C154	0.587600	0.429300	0.247800
C1551	C155	0.833000	0.564900	0.253700
C1561	C156	0.207900	0.716200	0.934800
C1571	C157	0.599800	0.803400	0.749600
C1581	C158	0.009900	0.520400	0.468700
C1591	C159	0.136600	0.746700	0.028400
C1601	C160	0.220300	0.212400	0.869700
C1611	C161	0.863400	0.253300	0.971600
C1621	C162	0.593000	0.302700	0.896900
N11	N1	0.235300	0.804200	0.842400
N21	N2	0.673400	0.681000	0.368700
N31	N3	0.442000	0.942300	0.331200
N41	N4	0.764700	0.195800	0.157600
N51	N5	0.042900	0.597800	0.350300
N61	N6	0.326600	0.319000	0.631300
N71	N7	0.332700	0.876400	0.640300
N81	N8	0.273200	0.272300	0.833700
N91	N9	0.957100	0.402200	0.649700
N101	N10	0.092200	0.705600	0.151500
N111	N11	0.694900	0.576900	0.677400
N121	N12	0.726800	0.727700	0.166300
N131	N13	0.907800	0.294400	0.848500
N141	N14	0.124100	0.232600	0.139400
N151	N15	0.558000	0.057700	0.668800
N161	N16	0.875900	0.767400	0.860600
N171	N17	0.305100	0.423100	0.322600
N181	N18	0.667300	0.123600	0.359700
O11	O1	0.467800	0.192600	0.744800
O21	O2	0.757200	0.960600	0.207700
O31	O3	0.017400	0.252100	0.728900
O41	O4	0.446800	0.914400	0.769700
O51	O5	0.375800	0.549800	0.168200
O61	O6	0.757700	0.602500	0.275300
O71	O7	0.164800	0.931700	0.734900
O81	O8	0.490700	0.203300	0.278100
O91	O9	0.553200	0.085600	0.230300
O101	O10	0.369600	0.405800	0.164800
O111	O11	0.045700	0.425500	0.279800
O121	O12	0.532200	0.807400	0.255200
O131	O13	0.977500	0.315900	0.221600
O141	O14	0.723700	0.925100	0.303800
O151	O15	0.463600	0.897300	0.188700
O161	O16	0.744600	0.680200	0.771400
O171	O17	0.242800	0.039400	0.792300
O181	O18	0.624200	0.450200	0.831800
O191	O19	0.245200	0.581800	0.232100
O201	O20	0.835200	0.068300	0.265100
O211	O21	0.630400	0.594200	0.835200
O221	O22	0.295100	0.169500	0.273400
O231	O23	0.807400	0.251700	0.264300
O241	O24	0.276300	0.074900	0.696200
O251	O25	0.467800	0.050700	0.163000
O261	O26	0.536400	0.102700	0.811300
O271	O27	0.273000	0.693300	0.290000
O281	O28	0.704900	0.830500	0.726600
O291	O29	0.472400	0.654900	0.290800
O301	O30	0.974400	0.884200	0.744600
O311	O31	0.056400	0.469500	0.184900
O321	O32	0.982600	0.747900	0.271100
O331	O33	0.242300	0.397500	0.724700
O341	O34	0.943600	0.530500	0.815100
O351	O35	0.022500	0.684100	0.778400
O361	O36	0.025600	0.115800	0.255400
O371	O37	0.255400	0.319800	0.228600
O381	O38	0.727000	0.306700	0.710000
O391	O39	0.192200	0.192600	0.741500
O401	O40	0.949600	0.575700	0.239900
O411	O41	0.050400	0.424300	0.760100
O421	O42	0.807800	0.807400	0.258500
O431	O43	0.509300	0.796700	0.721900
O441	O44	0.532200	0.949300	0.837000
O451	O45	0.954300	0.574500	0.720200
O461	O46	0.754800	0.418200	0.767900
O471	O47	0.527600	0.345100	0.709200
O481	O48	0.192600	0.748300	0.735700
