data_TILHEC_clean_PM
_symmetry_space_group_name_H-M	'P1'
_cell_length_a	13.375100
_cell_length_b	14.384700
_cell_length_c	11.317800
_cell_angle_alpha	90.000000
_cell_angle_beta	111.405000
_cell_angle_gamma	90.000000
_symmetry_Int_Tables_number 1

loop_
_symmetry_equiv_pos_as_xyz
'x,y,z'

loop_
_atom_site_label
_atom_site_type_symbol
_atom_site_fract_x
_atom_site_fract_y
_atom_site_fract_z
O11	O1	0.865600	0.973900	0.291400
O21	O2	0.889800	0.033500	0.123800
C11	C1	0.843000	0.978300	0.175600
C21	C2	0.756600	0.917500	0.088000
C31	C3	0.707000	0.849900	0.135600
H11	H1	0.726100	0.844100	0.222900
C41	C4	0.579900	0.717600	0.113000
C51	C5	0.725900	0.926000	0.956900
H21	H2	0.757700	0.970800	0.922800
C61	C6	0.630600	0.791600	0.056300
C71	C7	0.601400	0.800000	0.926400
H31	H3	0.550300	0.760100	0.872400
O31	O3	0.602300	0.715700	0.228500
O41	O4	0.516400	0.662800	0.041500
C81	C8	0.647900	0.867300	0.877100
H41	H4	0.627000	0.873600	0.789600
O51	O5	0.365600	0.473900	0.291400
O61	O6	0.389800	0.533500	0.123800
C91	C9	0.343000	0.478300	0.175600
C101	C10	0.256600	0.417500	0.088000
C111	C11	0.207000	0.349900	0.135600
H51	H5	0.226100	0.344100	0.222900
C121	C12	0.079900	0.217600	0.113000
C131	C13	0.225900	0.426000	0.956900
H61	H6	0.257700	0.470800	0.922800
C141	C14	0.130600	0.291600	0.056300
C151	C15	0.101400	0.300000	0.926400
H71	H7	0.050300	0.260100	0.872400
O71	O7	0.102300	0.215700	0.228500
O81	O8	0.016400	0.162800	0.041500
C161	C16	0.147900	0.367300	0.877100
H81	H8	0.127000	0.373600	0.789600
O91	O9	0.134400	0.973900	0.208600
O101	O10	0.110200	0.033500	0.376200
C171	C17	0.157000	0.978300	0.324400
C181	C18	0.243400	0.917500	0.412000
C191	C19	0.293000	0.849900	0.364400
H91	H9	0.273900	0.844100	0.277100
C201	C20	0.420100	0.717600	0.387000
C211	C21	0.274100	0.926000	0.543100
H101	H10	0.242300	0.970800	0.577200
C221	C22	0.369400	0.791600	0.443700
C231	C23	0.398600	0.800000	0.573600
H111	H11	0.449700	0.760100	0.627600
O111	O11	0.397700	0.715700	0.271500
O121	O12	0.483600	0.662800	0.458500
C241	C24	0.352100	0.867300	0.622900
H121	H12	0.373000	0.873600	0.710400
O131	O13	0.634400	0.473900	0.208600
O141	O14	0.610200	0.533500	0.376200
C251	C25	0.657000	0.478300	0.324400
C261	C26	0.743400	0.417500	0.412000
C271	C27	0.793000	0.349900	0.364400
H131	H13	0.773900	0.344100	0.277100
C281	C28	0.920100	0.217600	0.387000
C291	C29	0.774100	0.426000	0.543100
H141	H14	0.742300	0.470800	0.577200
C301	C30	0.869400	0.291600	0.443700
C311	C31	0.898600	0.300000	0.573600
H151	H15	0.949700	0.260100	0.627600
O151	O15	0.897700	0.215700	0.271500
O161	O16	0.983600	0.162800	0.458500
C321	C32	0.852100	0.367300	0.622900
H161	H16	0.873000	0.373600	0.710400
O171	O17	0.134400	0.026100	0.708600
O181	O18	0.110200	0.966500	0.876200
C331	C33	0.157000	0.021700	0.824400
C341	C34	0.243400	0.082500	0.912000
C351	C35	0.293000	0.150100	0.864400
H171	H17	0.273900	0.155900	0.777100
C361	C36	0.420100	0.282400	0.887000
C371	C37	0.274100	0.074000	0.043100
H181	H18	0.242300	0.029200	0.077200
C381	C38	0.369400	0.208400	0.943700
C391	C39	0.398600	0.200000	0.073600
H191	H19	0.449700	0.239900	0.127600
O191	O19	0.397700	0.284300	0.771500
O201	O20	0.483600	0.337200	0.958500
C401	C40	0.352100	0.132700	0.122900
H201	H20	0.373000	0.126400	0.210400
O211	O21	0.634400	0.526100	0.708600
O221	O22	0.610200	0.466500	0.876200
C411	C41	0.657000	0.521700	0.824400
C421	C42	0.743400	0.582500	0.912000
C431	C43	0.793000	0.650100	0.864400
H211	H21	0.773900	0.655900	0.777100
C441	C44	0.920100	0.782400	0.887000
C451	C45	0.774100	0.574000	0.043100
H221	H22	0.742300	0.529200	0.077200
C461	C46	0.869400	0.708400	0.943700
C471	C47	0.898600	0.700000	0.073600
H231	H23	0.949700	0.739900	0.127600
O231	O23	0.897700	0.784300	0.771500
O241	O24	0.983600	0.837200	0.958500
C481	C48	0.852100	0.632700	0.122900
H241	H24	0.873000	0.626400	0.210400
O251	O25	0.865600	0.026100	0.791400
O261	O26	0.889800	0.966500	0.623800
C491	C49	0.843000	0.021700	0.675600
C501	C50	0.756600	0.082500	0.588000
C511	C51	0.707000	0.150100	0.635600
H251	H25	0.726100	0.155900	0.722900
C521	C52	0.579900	0.282400	0.613000
C531	C53	0.725900	0.074000	0.456900
H261	H26	0.757700	0.029200	0.422800
C541	C54	0.630600	0.208400	0.556300
C551	C55	0.601400	0.200000	0.426400
H271	H27	0.550300	0.239900	0.372400
O271	O27	0.602300	0.284300	0.728500
O281	O28	0.516400	0.337200	0.541500
C561	C56	0.647900	0.132700	0.377100
H281	H28	0.627000	0.126400	0.289600
O291	O29	0.365600	0.526100	0.791400
O301	O30	0.389800	0.466500	0.623800
C571	C57	0.343000	0.521700	0.675600
C581	C58	0.256600	0.582500	0.588000
C591	C59	0.207000	0.650100	0.635600
H291	H29	0.226100	0.655900	0.722900
C601	C60	0.079900	0.782400	0.613000
C611	C61	0.225900	0.574000	0.456900
H301	H30	0.257700	0.529200	0.422800
C621	C62	0.130600	0.708400	0.556300
C631	C63	0.101400	0.700000	0.426400
H311	H31	0.050300	0.739900	0.372400
O311	O31	0.102300	0.784300	0.728500
O321	O32	0.016400	0.837200	0.541500
C641	C64	0.147900	0.632700	0.377100
H321	H32	0.127000	0.626400	0.289600
Co11	Co1	0.000000	0.113660	0.250000
Co21	Co2	0.500000	0.613660	0.250000
Co31	Co3	0.000000	0.886340	0.750000
Co41	Co4	0.500000	0.386340	0.750000
Na11	Na1	0.000000	0.000000	0.500000
Na21	Na2	0.500000	0.500000	0.500000
Na31	Na3	0.000000	0.000000	0.000000
Na41	Na4	0.500000	0.500000	0.000000
