data_TILVUF_clean_PM
_symmetry_space_group_name_H-M	'P1'
_cell_length_a	8.978000
_cell_length_b	8.978000
_cell_length_c	11.934000
_cell_angle_alpha	90.000000
_cell_angle_beta	90.000000
_cell_angle_gamma	90.000000
_symmetry_Int_Tables_number 1

loop_
_symmetry_equiv_pos_as_xyz
'x,y,z'

loop_
_atom_site_label
_atom_site_type_symbol
_atom_site_fract_x
_atom_site_fract_y
_atom_site_fract_z
C11	C1	0.261000	0.122000	0.127000
C21	C2	0.514000	0.266000	0.924000
C31	C3	0.739000	0.878000	0.627000
C41	C4	0.486000	0.734000	0.424000
C51	C5	0.378000	0.761000	0.377000
C61	C6	0.234000	0.014000	0.174000
C71	C7	0.622000	0.239000	0.877000
C81	C8	0.766000	0.986000	0.674000
C91	C9	0.239000	0.622000	0.123000
C101	C10	0.986000	0.766000	0.326000
C111	C11	0.761000	0.378000	0.623000
C121	C12	0.014000	0.234000	0.826000
C131	C13	0.122000	0.261000	0.873000
C141	C14	0.266000	0.514000	0.076000
C151	C15	0.878000	0.739000	0.373000
C161	C16	0.734000	0.486000	0.576000
Cd11	Cd1	0.296300	0.296300	0.000000
Cd21	Cd2	0.703700	0.703700	0.500000
Cd31	Cd3	0.203700	0.796300	0.250000
Cd41	Cd4	0.796300	0.203700	0.750000
