data_TILWAM_clean_PM
_symmetry_space_group_name_H-M	'P1'
_cell_length_a	9.124000
_cell_length_b	9.124000
_cell_length_c	11.335000
_cell_angle_alpha	90.000000
_cell_angle_beta	90.000000
_cell_angle_gamma	90.000000
_symmetry_Int_Tables_number 1

loop_
_symmetry_equiv_pos_as_xyz
'x,y,z'

loop_
_atom_site_label
_atom_site_type_symbol
_atom_site_fract_x
_atom_site_fract_y
_atom_site_fract_z
C11	C1	0.274000	0.139000	0.116000
C21	C2	0.529000	0.258000	0.918000
C31	C3	0.726000	0.861000	0.616000
C41	C4	0.471000	0.742000	0.418000
C51	C5	0.361000	0.774000	0.366000
C61	C6	0.242000	0.029000	0.168000
C71	C7	0.639000	0.226000	0.866000
C81	C8	0.758000	0.971000	0.668000
C91	C9	0.226000	0.639000	0.134000
C101	C10	0.971000	0.758000	0.332000
C111	C11	0.774000	0.361000	0.634000
C121	C12	0.029000	0.242000	0.832000
C131	C13	0.139000	0.274000	0.884000
C141	C14	0.258000	0.529000	0.082000
C151	C15	0.861000	0.726000	0.384000
C161	C16	0.742000	0.471000	0.582000
Cd11	Cd1	0.317900	0.317900	0.000000
Cd21	Cd2	0.682100	0.682100	0.500000
Cd31	Cd3	0.182100	0.817900	0.250000
Cd41	Cd4	0.817900	0.182100	0.750000
