data_TIQGOQ_clean_PM
_symmetry_space_group_name_H-M	'P1'
_cell_length_a	12.238000
_cell_length_b	12.238000
_cell_length_c	12.398000
_cell_angle_alpha	90.000000
_cell_angle_beta	90.000000
_cell_angle_gamma	90.000000
_symmetry_Int_Tables_number 1

loop_
_symmetry_equiv_pos_as_xyz
'x,y,z'

loop_
_atom_site_label
_atom_site_type_symbol
_atom_site_fract_x
_atom_site_fract_y
_atom_site_fract_z
C11	C1	0.766700	0.865400	0.317800
H11	H1	0.724100	0.891900	0.374100
C21	C2	0.723500	0.859500	0.220400
H21	H2	0.650400	0.876900	0.209500
C31	C3	0.789000	0.826700	0.133700
C41	C4	0.895600	0.798600	0.153500
H31	H3	0.940700	0.776900	0.097100
C51	C5	0.936200	0.802800	0.259100
C61	C6	0.047300	0.762300	0.284200
C71	C7	0.076400	0.658900	0.262200
H41	H4	0.024700	0.611400	0.233600
C81	C8	0.179600	0.621800	0.280700
C91	C9	0.254700	0.691300	0.324600
H51	H5	0.325500	0.667800	0.338900
C101	C10	0.223600	0.796100	0.347200
H61	H6	0.274600	0.843300	0.377500
N11	N1	0.870300	0.834400	0.338700
N21	N2	0.122700	0.833500	0.327600
O11	O1	0.907100	0.841800	0.439500
O21	O2	0.098100	0.931700	0.344100
O31	O3	0.667500	0.914000	0.989700
O41	O4	0.666100	0.717200	0.006600
O51	O5	0.824100	0.807000	0.931000
O61	O6	0.148800	0.457400	0.151100
O71	O7	0.182100	0.416900	0.337300
O81	O8	0.327400	0.484800	0.219700
Na11	Na1	0.714800	0.529000	0.999600
S11	S1	0.732050	0.815230	0.001100
S21	S2	0.214000	0.482900	0.246200
O91	O9	0.582600	0.126600	0.111600
C111	C11	0.233300	0.134600	0.317800
H71	H7	0.275900	0.108100	0.374100
C121	C12	0.276500	0.140500	0.220400
H81	H8	0.349600	0.123100	0.209500
C131	C13	0.211000	0.173300	0.133700
C141	C14	0.104400	0.201400	0.153500
H91	H9	0.059300	0.223100	0.097100
C151	C15	0.063800	0.197200	0.259100
C161	C16	0.952700	0.237700	0.284200
C171	C17	0.923600	0.341100	0.262200
H101	H10	0.975300	0.388600	0.233600
C181	C18	0.820400	0.378200	0.280700
C191	C19	0.745300	0.308700	0.324600
H111	H11	0.674500	0.332200	0.338900
C201	C20	0.776400	0.203900	0.347200
H121	H12	0.725400	0.156700	0.377500
N31	N3	0.129700	0.165600	0.338700
N41	N4	0.877300	0.166500	0.327600
O101	O10	0.092900	0.158200	0.439500
O111	O11	0.901900	0.068300	0.344100
O121	O12	0.332500	0.086000	0.989700
O131	O13	0.333900	0.282800	0.006600
O141	O14	0.175900	0.193000	0.931000
O151	O15	0.851200	0.542600	0.151100
O161	O16	0.817900	0.583100	0.337300
O171	O17	0.672600	0.515200	0.219700
Na21	Na2	0.285200	0.471000	0.999600
S31	S3	0.267950	0.184770	0.001100
S41	S4	0.786000	0.517100	0.246200
O181	O18	0.417400	0.873400	0.111600
C211	C21	0.865400	0.233300	0.682200
H131	H13	0.891900	0.275900	0.625900
C221	C22	0.859500	0.276500	0.779600
H141	H14	0.876900	0.349600	0.790500
C231	C23	0.826700	0.211000	0.866300
C241	C24	0.798600	0.104400	0.846500
H151	H15	0.776900	0.059300	0.902900
C251	C25	0.802800	0.063800	0.740900
C261	C26	0.762300	0.952700	0.715800
C271	C27	0.658900	0.923600	0.737800
H161	H16	0.611400	0.975300	0.766400
C281	C28	0.621800	0.820400	0.719300
C291	C29	0.691300	0.745300	0.675400
H171	H17	0.667800	0.674500	0.661100
C301	C30	0.796100	0.776400	0.652800
H181	H18	0.843300	0.725400	0.622500
N51	N5	0.834400	0.129700	0.661300
N61	N6	0.833500	0.877300	0.672400
O191	O19	0.841800	0.092900	0.560500
O201	O20	0.931700	0.901900	0.655900
O211	O21	0.914000	0.332500	0.010300
O221	O22	0.717200	0.333900	0.993400
O231	O23	0.807000	0.175900	0.069000
O241	O24	0.457400	0.851200	0.848900
O251	O25	0.416900	0.817900	0.662700
O261	O26	0.484800	0.672600	0.780300
Na31	Na3	0.529000	0.285200	0.000400
S51	S5	0.815230	0.267950	0.998900
S61	S6	0.482900	0.786000	0.753800
O271	O27	0.126600	0.417400	0.888400
C311	C31	0.134600	0.766700	0.682200
H191	H19	0.108100	0.724100	0.625900
C321	C32	0.140500	0.723500	0.779600
H201	H20	0.123100	0.650400	0.790500
C331	C33	0.173300	0.789000	0.866300
C341	C34	0.201400	0.895600	0.846500
H211	H21	0.223100	0.940700	0.902900
C351	C35	0.197200	0.936200	0.740900
C361	C36	0.237700	0.047300	0.715800
C371	C37	0.341100	0.076400	0.737800
H221	H22	0.388600	0.024700	0.766400
C381	C38	0.378200	0.179600	0.719300
C391	C39	0.308700	0.254700	0.675400
H231	H23	0.332200	0.325500	0.661100
C401	C40	0.203900	0.223600	0.652800
H241	H24	0.156700	0.274600	0.622500
N71	N7	0.165600	0.870300	0.661300
N81	N8	0.166500	0.122700	0.672400
O281	O28	0.158200	0.907100	0.560500
O291	O29	0.068300	0.098100	0.655900
O301	O30	0.086000	0.667500	0.010300
O311	O31	0.282800	0.666100	0.993400
O321	O32	0.193000	0.824100	0.069000
O331	O33	0.542600	0.148800	0.848900
O341	O34	0.583100	0.182100	0.662700
O351	O35	0.515200	0.327400	0.780300
Na41	Na4	0.471000	0.714800	0.000400
S71	S7	0.184770	0.732050	0.998900
S81	S8	0.517100	0.214000	0.753800
O361	O36	0.873400	0.582600	0.888400
Na51	Na5	0.500000	0.000000	0.988200
Na61	Na6	0.000000	0.500000	0.011800
Sm11	Sm1	0.000000	0.000000	0.500000
Cl11	Cl1	0.500000	0.500000	0.945000
Cl21	Cl2	0.500000	0.500000	0.055000
