data_TIQGEG_clean_PM
_symmetry_space_group_name_H-M	'P1'
_cell_length_a	10.166300
_cell_length_b	14.260400
_cell_length_c	10.563700
_cell_angle_alpha	91.803000
_cell_angle_beta	90.000000
_cell_angle_gamma	90.000000
_symmetry_Int_Tables_number 1

loop_
_symmetry_equiv_pos_as_xyz
'x,y,z'

loop_
_atom_site_label
_atom_site_type_symbol
_atom_site_fract_x
_atom_site_fract_y
_atom_site_fract_z
Cu11	Cu1	0.845760	0.000980	0.236430
Cu21	Cu2	0.502240	0.898680	0.474320
Cu31	Cu3	0.345760	0.999020	0.263570
Cu41	Cu4	0.002240	0.101320	0.025680
Cu51	Cu5	0.154240	0.999020	0.763570
Cu61	Cu6	0.497760	0.101320	0.525680
Cu71	Cu7	0.654240	0.000980	0.736430
Cu81	Cu8	0.997760	0.898680	0.974320
Cu91	Cu9	0.000000	0.500000	0.500000
Cu101	Cu10	0.500000	0.500000	0.000000
Cu111	Cu11	0.000000	0.500000	0.000000
Cu121	Cu12	0.500000	0.500000	0.500000
Cu131	Cu13	0.000000	0.000000	0.500000
Cu141	Cu14	0.500000	0.000000	0.000000
H11	H1	0.876000	0.686000	0.349000
H21	H2	0.065000	0.739000	0.193000
H31	H3	0.237000	0.682000	0.289000
H41	H4	0.175000	0.719000	0.539000
H51	H5	0.831000	0.996000	0.019000
H61	H6	0.819000	0.065000	0.420000
H71	H7	0.376000	0.314000	0.151000
H81	H8	0.565000	0.261000	0.307000
H91	H9	0.737000	0.318000	0.211000
H101	H10	0.675000	0.281000	0.961000
H111	H11	0.331000	0.004000	0.481000
H121	H12	0.319000	0.935000	0.080000
H131	H13	0.124000	0.314000	0.651000
H141	H14	0.935000	0.261000	0.807000
H151	H15	0.763000	0.318000	0.711000
H161	H16	0.825000	0.281000	0.461000
H171	H17	0.169000	0.004000	0.981000
H181	H18	0.181000	0.935000	0.580000
H191	H19	0.624000	0.686000	0.849000
H201	H20	0.435000	0.739000	0.693000
H211	H21	0.263000	0.682000	0.789000
H221	H22	0.325000	0.719000	0.039000
H231	H23	0.669000	0.996000	0.519000
H241	H24	0.681000	0.065000	0.920000
C11	C1	0.972500	0.667030	0.335900
C21	C2	0.057800	0.744020	0.279700
C31	C3	0.192300	0.723720	0.338500
C41	C4	0.161800	0.675770	0.463100
C51	C5	0.982200	0.574480	0.259000
C61	C6	0.999600	0.839430	0.320100
C71	C7	0.282500	0.808780	0.353100
C81	C8	0.243700	0.586620	0.482500
C91	C9	0.472500	0.332970	0.164100
C101	C10	0.557800	0.255980	0.220300
C111	C11	0.692300	0.276280	0.161500
C121	C12	0.661800	0.324230	0.036900
C131	C13	0.482200	0.425520	0.241000
C141	C14	0.499600	0.160570	0.179900
C151	C15	0.782500	0.191220	0.146900
C161	C16	0.743700	0.413380	0.017500
C171	C17	0.027500	0.332970	0.664100
C181	C18	0.942200	0.255980	0.720300
C191	C19	0.807700	0.276280	0.661500
C201	C20	0.838200	0.324230	0.536900
C211	C21	0.017800	0.425520	0.741000
C221	C22	0.000400	0.160570	0.679900
C231	C23	0.717500	0.191220	0.646900
C241	C24	0.756300	0.413380	0.517500
C251	C25	0.527500	0.667030	0.835900
C261	C26	0.442200	0.744020	0.779700
C271	C27	0.307700	0.723720	0.838500
C281	C28	0.338200	0.675770	0.963100
C291	C29	0.517800	0.574480	0.759000
C301	C30	0.500400	0.839430	0.820100
C311	C31	0.217500	0.808780	0.853100
C321	C32	0.256300	0.586620	0.982500
O11	O1	0.021750	0.656340	0.462670
O21	O2	0.015360	0.500840	0.313200
O31	O3	0.955550	0.581290	0.144000
O41	O4	0.925380	0.875360	0.239540
O51	O5	0.026360	0.870900	0.429010
O61	O6	0.272600	0.869190	0.269640
O71	O7	0.361020	0.809840	0.445550
O81	O8	0.363290	0.594430	0.464100
O91	O9	0.187880	0.513020	0.519400
O101	O10	0.883670	0.993910	0.052540
O111	O11	0.833380	0.018640	0.418820
O121	O12	0.521750	0.343660	0.037330
O131	O13	0.515360	0.499160	0.186800
O141	O14	0.455550	0.418710	0.356000
O151	O15	0.425380	0.124640	0.260460
O161	O16	0.526360	0.129100	0.070990
O171	O17	0.772600	0.130810	0.230360
O181	O18	0.861020	0.190160	0.054450
O191	O19	0.863290	0.405570	0.035900
O201	O20	0.687880	0.486980	0.980600
O211	O21	0.383670	0.006090	0.447460
O221	O22	0.333380	0.981360	0.081180
O231	O23	0.978250	0.343660	0.537330
O241	O24	0.984640	0.499160	0.686800
O251	O25	0.044450	0.418710	0.856000
O261	O26	0.074620	0.124640	0.760460
O271	O27	0.973640	0.129100	0.570990
O281	O28	0.727400	0.130810	0.730360
O291	O29	0.638980	0.190160	0.554450
O301	O30	0.636710	0.405570	0.535900
O311	O31	0.812120	0.486980	0.480600
O321	O32	0.116330	0.006090	0.947460
O331	O33	0.166620	0.981360	0.581180
O341	O34	0.478250	0.656340	0.962670
O351	O35	0.484640	0.500840	0.813200
O361	O36	0.544450	0.581290	0.644000
O371	O37	0.574620	0.875360	0.739540
O381	O38	0.473640	0.870900	0.929010
O391	O39	0.227400	0.869190	0.769640
O401	O40	0.138980	0.809840	0.945550
O411	O41	0.136710	0.594430	0.964100
O421	O42	0.312120	0.513020	0.019400
O431	O43	0.616330	0.993910	0.552540
O441	O44	0.666620	0.018640	0.918820
