data_TIRRIW_clean_PM
_symmetry_space_group_name_H-M	'P1'
_cell_length_a	12.939000
_cell_length_b	13.092000
_cell_length_c	13.754000
_cell_angle_alpha	85.449000
_cell_angle_beta	70.302000
_cell_angle_gamma	83.731000
_symmetry_Int_Tables_number 1

loop_
_symmetry_equiv_pos_as_xyz
'x,y,z'

loop_
_atom_site_label
_atom_site_type_symbol
_atom_site_fract_x
_atom_site_fract_y
_atom_site_fract_z
Co11	Co1	0.194860	0.816820	0.170020
Co21	Co2	0.127760	0.825520	0.381690
H11	H1	0.872300	0.803400	0.168900
H21	H2	0.743800	0.781600	0.076500
H31	H3	0.566300	0.782800	0.077600
H41	H4	0.449900	0.832400	0.381400
H51	H5	0.580600	0.851200	0.475800
H61	H6	0.758700	0.857800	0.472400
H71	H7	0.126700	0.155300	0.400600
H81	H8	0.105700	0.325200	0.479800
H91	H9	0.117000	0.499500	0.461400
H101	H10	0.207400	0.486200	0.150100
H111	H11	0.217900	0.319500	0.072600
H121	H12	0.207400	0.144900	0.092700
H131	H13	0.079100	0.945700	0.041100
H141	H14	0.042100	0.938900	0.888200
H151	H15	0.211000	0.670800	0.839100
H161	H16	0.225100	0.673300	0.000600
H171	H17	0.114900	0.970300	0.710000
H181	H18	0.104100	0.971000	0.546700
H191	H19	0.204300	0.684800	0.523900
H201	H20	0.232300	0.679100	0.682200
C11	C1	0.948100	0.830800	0.317200
C21	C2	0.833600	0.828800	0.318800
C31	C3	0.812100	0.813400	0.231100
C41	C4	0.703800	0.811700	0.228700
C51	C5	0.684000	0.793600	0.138600
C61	C6	0.579100	0.793400	0.139900
C71	C7	0.487800	0.808400	0.231400
C81	C8	0.510100	0.823700	0.319000
C91	C9	0.615700	0.827300	0.322000
C101	C10	0.639500	0.842500	0.412400
C111	C11	0.745000	0.845100	0.411000
C121	C12	0.373300	0.809300	0.232700
C131	C13	0.159900	0.018600	0.261600
C141	C14	0.165300	0.132900	0.250200
C151	C15	0.144500	0.189300	0.334200
C161	C16	0.148400	0.295600	0.325900
C171	C17	0.125800	0.357400	0.412400
C181	C18	0.131800	0.460500	0.402000
C191	C19	0.160300	0.510000	0.302400
C201	C20	0.184800	0.453000	0.217000
C211	C21	0.177000	0.345200	0.226800
C221	C22	0.198900	0.286900	0.139800
C231	C23	0.192700	0.183900	0.152000
C241	C24	0.163700	0.623400	0.291300
C251	C25	0.114700	0.891700	0.995900
C261	C26	0.095900	0.891100	0.903300
C271	C27	0.158700	0.817200	0.830700
C281	C28	0.192900	0.733300	0.874200
C291	C29	0.202400	0.736100	0.971100
C301	C30	0.148900	0.819500	0.726600
C311	C31	0.126400	0.907000	0.677000
C321	C32	0.119600	0.907000	0.579000
C331	C33	0.179200	0.743100	0.565300
C341	C34	0.193300	0.737500	0.661200
N11	N1	0.182900	0.817500	0.025500
N21	N2	0.133400	0.824000	0.528600
O11	O1	0.023400	0.825390	0.229940
O21	O2	0.964600	0.837440	0.401430
O31	O3	0.298100	0.810930	0.317900
O41	O4	0.357500	0.808500	0.146400
O51	O5	0.182200	0.971400	0.178490
O61	O6	0.134500	0.978220	0.350510
O71	O7	0.136400	0.671970	0.373540
O81	O8	0.192100	0.665420	0.201230
Co31	Co3	0.805140	0.183180	0.829980
Co41	Co4	0.872240	0.174480	0.618310
H211	H21	0.127700	0.196600	0.831100
H221	H22	0.256200	0.218400	0.923500
H231	H23	0.433700	0.217200	0.922400
H241	H24	0.550100	0.167600	0.618600
H251	H25	0.419400	0.148800	0.524200
H261	H26	0.241300	0.142200	0.527600
H271	H27	0.873300	0.844700	0.599400
H281	H28	0.894300	0.674800	0.520200
H291	H29	0.883000	0.500500	0.538600
H301	H30	0.792600	0.513800	0.849900
H311	H31	0.782100	0.680500	0.927400
H321	H32	0.792600	0.855100	0.907300
H331	H33	0.920900	0.054300	0.958900
H341	H34	0.957900	0.061100	0.111800
H351	H35	0.789000	0.329200	0.160900
H361	H36	0.774900	0.326700	0.999400
H371	H37	0.885100	0.029700	0.290000
H381	H38	0.895900	0.029000	0.453300
H391	H39	0.795700	0.315200	0.476100
H401	H40	0.767700	0.320900	0.317800
C351	C35	0.051900	0.169200	0.682800
C361	C36	0.166400	0.171200	0.681200
C371	C37	0.187900	0.186600	0.768900
C381	C38	0.296200	0.188300	0.771300
C391	C39	0.316000	0.206400	0.861400
C401	C40	0.420900	0.206600	0.860100
C411	C41	0.512200	0.191600	0.768600
C421	C42	0.489900	0.176300	0.681000
C431	C43	0.384300	0.172700	0.678000
C441	C44	0.360500	0.157500	0.587600
C451	C45	0.255000	0.154900	0.589000
C461	C46	0.626700	0.190700	0.767300
C471	C47	0.840100	0.981400	0.738400
C481	C48	0.834700	0.867100	0.749800
C491	C49	0.855500	0.810700	0.665800
C501	C50	0.851600	0.704400	0.674100
C511	C51	0.874200	0.642600	0.587600
C521	C52	0.868200	0.539500	0.598000
C531	C53	0.839700	0.490000	0.697600
C541	C54	0.815200	0.547000	0.783000
C551	C55	0.823000	0.654800	0.773200
C561	C56	0.801100	0.713100	0.860200
C571	C57	0.807300	0.816100	0.848000
C581	C58	0.836300	0.376600	0.708700
C591	C59	0.885300	0.108300	0.004100
C601	C60	0.904100	0.108900	0.096700
C611	C61	0.841300	0.182800	0.169300
C621	C62	0.807100	0.266700	0.125800
C631	C63	0.797600	0.263900	0.028900
C641	C64	0.851100	0.180500	0.273400
C651	C65	0.873600	0.093000	0.323000
C661	C66	0.880400	0.093000	0.421000
C671	C67	0.820800	0.256900	0.434700
C681	C68	0.806700	0.262500	0.338800
N31	N3	0.817100	0.182500	0.974500
N41	N4	0.866600	0.176000	0.471400
O91	O9	0.976600	0.174610	0.770060
O101	O10	0.035400	0.162560	0.598570
O111	O11	0.701900	0.189070	0.682100
O121	O12	0.642500	0.191500	0.853600
O131	O13	0.817800	0.028600	0.821510
O141	O14	0.865500	0.021780	0.649490
O151	O15	0.863600	0.328030	0.626460
O161	O16	0.807900	0.334580	0.798770
