data_TISGUY_clean_PM
_symmetry_space_group_name_H-M	'P1'
_cell_length_a	9.956200
_cell_length_b	14.890400
_cell_length_c	28.226000
_cell_angle_alpha	90.000000
_cell_angle_beta	90.000000
_cell_angle_gamma	106.306000
_symmetry_Int_Tables_number 1

loop_
_symmetry_equiv_pos_as_xyz
'x,y,z'

loop_
_atom_site_label
_atom_site_type_symbol
_atom_site_fract_x
_atom_site_fract_y
_atom_site_fract_z
Ni11	Ni1	0.182170	0.829130	0.490400
Ni21	Ni2	0.766160	0.489110	0.335630
Ni31	Ni3	0.317830	0.170870	0.990400
Ni41	Ni4	0.733840	0.510890	0.835630
Ni51	Ni5	0.817830	0.170870	0.509600
Ni61	Ni6	0.233840	0.510890	0.664370
Ni71	Ni7	0.682170	0.829130	0.009600
Ni81	Ni8	0.266160	0.489110	0.164370
H11	H1	0.319400	0.722800	0.313500
H21	H2	0.289600	0.743800	0.232700
H31	H3	0.144000	0.833400	0.207900
H41	H4	0.007700	0.883900	0.262700
H51	H5	0.018300	0.992700	0.342400
H61	H6	0.851900	0.021000	0.394900
H71	H7	0.698100	0.898300	0.433500
H81	H8	0.709100	0.747100	0.423600
H91	H9	0.377800	0.163900	0.361500
H101	H10	0.301100	0.005600	0.343000
H111	H11	0.464000	0.929000	0.319200
H121	H12	0.699800	0.009800	0.313300
H131	H13	0.845600	0.131800	0.261300
H141	H14	0.083400	0.185500	0.251000
H151	H15	0.226000	0.270700	0.310700
H161	H16	0.124600	0.303200	0.381100
H171	H17	0.921600	0.858800	0.536600
H181	H18	0.192300	0.027700	0.452600
H191	H19	0.408900	0.949300	0.427800
H201	H20	0.376700	0.940200	0.566500
H211	H21	0.556600	0.606200	0.311700
H221	H22	0.890200	0.605000	0.244900
H231	H23	0.937200	0.370900	0.297000
H241	H24	0.609100	0.374800	0.257800
H251	H25	0.180600	0.277200	0.813500
H261	H26	0.210400	0.256200	0.732700
H271	H27	0.356000	0.166600	0.707900
H281	H28	0.492300	0.116100	0.762700
H291	H29	0.481700	0.007300	0.842400
H301	H30	0.648100	0.979000	0.894900
H311	H31	0.801900	0.101700	0.933500
H321	H32	0.790900	0.252900	0.923600
H331	H33	0.122200	0.836100	0.861500
H341	H34	0.198900	0.994400	0.843000
H351	H35	0.036000	0.071000	0.819200
H361	H36	0.800200	0.990200	0.813300
H371	H37	0.654400	0.868200	0.761300
H381	H38	0.416600	0.814500	0.751000
H391	H39	0.274000	0.729300	0.810700
H401	H40	0.375400	0.696800	0.881100
H411	H41	0.578400	0.141200	0.036600
H421	H42	0.307700	0.972300	0.952600
H431	H43	0.091100	0.050700	0.927800
H441	H44	0.123300	0.059800	0.066500
H451	H45	0.943400	0.393800	0.811700
H461	H46	0.609800	0.395000	0.744900
H471	H47	0.562800	0.629100	0.797000
H481	H48	0.890900	0.625200	0.757800
H491	H49	0.680600	0.277200	0.686500
H501	H50	0.710400	0.256200	0.767300
H511	H51	0.856000	0.166600	0.792100
H521	H52	0.992300	0.116100	0.737300
H531	H53	0.981700	0.007300	0.657600
H541	H54	0.148100	0.979000	0.605100
H551	H55	0.301900	0.101700	0.566500
H561	H56	0.290900	0.252900	0.576400
H571	H57	0.622200	0.836100	0.638500
H581	H58	0.698900	0.994400	0.657000
H591	H59	0.536000	0.071000	0.680800
H601	H60	0.300200	0.990200	0.686700
H611	H61	0.154400	0.868200	0.738700
H621	H62	0.916600	0.814500	0.749000
H631	H63	0.774000	0.729300	0.689300
H641	H64	0.875400	0.696800	0.618900
H651	H65	0.078400	0.141200	0.463400
H661	H66	0.807700	0.972300	0.547400
H671	H67	0.591100	0.050700	0.572200
H681	H68	0.623300	0.059800	0.433500
H691	H69	0.443400	0.393800	0.688300
H701	H70	0.109800	0.395000	0.755100
H711	H71	0.062800	0.629100	0.703000
H721	H72	0.390900	0.625200	0.742200
H731	H73	0.819400	0.722800	0.186500
H741	H74	0.789600	0.743800	0.267300
H751	H75	0.644000	0.833400	0.292100
H761	H76	0.507700	0.883900	0.237300
H771	H77	0.518300	0.992700	0.157600
H781	H78	0.351900	0.021000	0.105100
H791	H79	0.198100	0.898300	0.066500
H801	H80	0.209100	0.747100	0.076400
H811	H81	0.877800	0.163900	0.138500
H821	H82	0.801100	0.005600	0.157000
H831	H83	0.964000	0.929000	0.180800
H841	H84	0.199800	0.009800	0.186700
H851	H85	0.345600	0.131800	0.238700
H861	H86	0.583400	0.185500	0.249000
H871	H87	0.726000	0.270700	0.189300
H881	H88	0.624600	0.303200	0.118900
H891	H89	0.421600	0.858800	0.963400
H901	H90	0.692300	0.027700	0.047400
H911	H91	0.908900	0.949300	0.072200
H921	H92	0.876700	0.940200	0.933500
H931	H93	0.056600	0.606200	0.188300
H941	H94	0.390200	0.605000	0.255100
H951	H95	0.437200	0.370900	0.203000
H961	H96	0.109100	0.374800	0.242200
C11	C1	0.207200	0.775900	0.388680
C21	C2	0.173700	0.786500	0.336910
C31	C3	0.254100	0.754500	0.303220
C41	C4	0.239000	0.768600	0.255200
C51	C5	0.149800	0.819200	0.240520
C61	C6	0.068800	0.849100	0.273300
C71	C7	0.074400	0.829800	0.321460
C81	C8	0.969200	0.851600	0.353430
C91	C9	0.957700	0.942300	0.359300
C101	C10	0.857100	0.958900	0.390000
C111	C11	0.766800	0.886300	0.413000
C121	C12	0.772900	0.796800	0.407200
C131	C13	0.872200	0.778400	0.377240
C141	C14	0.873200	0.677900	0.372780
C151	C15	0.616300	0.286500	0.357690
C161	C16	0.585100	0.183500	0.348360
C171	C17	0.444000	0.132600	0.351550
C181	C18	0.397600	0.038600	0.340800
C191	C19	0.494000	0.993800	0.326640
C201	C20	0.634900	0.042100	0.323150
C211	C21	0.682900	0.137600	0.333850
C221	C22	0.837300	0.181300	0.328350
C231	C23	0.901800	0.165700	0.286140
C241	C24	0.042800	0.198000	0.279900
C251	C25	0.127600	0.248700	0.315100
C261	C26	0.067300	0.267100	0.357030
C271	C27	0.923000	0.232800	0.364140
C281	C28	0.129100	0.753300	0.586960
C291	C29	0.956300	0.917400	0.521030
C301	C30	0.112400	0.014700	0.472610
C311	C31	0.445300	0.969600	0.458260
C321	C32	0.426500	0.964200	0.538380
C331	C33	0.534600	0.557400	0.288860
C341	C34	0.934600	0.556300	0.244770
C351	C35	0.962400	0.421400	0.275100
C361	C36	0.564200	0.423300	0.257920
C371	C37	0.292800	0.224100	0.888680
C381	C38	0.326300	0.213500	0.836910
C391	C39	0.245900	0.245500	0.803220
C401	C40	0.261000	0.231400	0.755200
C411	C41	0.350200	0.180800	0.740520
C421	C42	0.431200	0.150900	0.773300
C431	C43	0.425600	0.170200	0.821460
C441	C44	0.530800	0.148400	0.853430
C451	C45	0.542300	0.057700	0.859300
C461	C46	0.642900	0.041100	0.890000
C471	C47	0.733200	0.113700	0.913000
C481	C48	0.727100	0.203200	0.907200
C491	C49	0.627800	0.221600	0.877240
C501	C50	0.626800	0.322100	0.872780
C511	C51	0.883700	0.713500	0.857690
C521	C52	0.914900	0.816500	0.848360
C531	C53	0.056000	0.867400	0.851550
C541	C54	0.102400	0.961400	0.840800
C551	C55	0.006000	0.006200	0.826640
C561	C56	0.865100	0.957900	0.823150
C571	C57	0.817100	0.862400	0.833850
C581	C58	0.662700	0.818700	0.828350
C591	C59	0.598200	0.834300	0.786140
C601	C60	0.457200	0.802000	0.779900
C611	C61	0.372400	0.751300	0.815100
C621	C62	0.432700	0.732900	0.857030
C631	C63	0.577000	0.767200	0.864140
C641	C64	0.370900	0.246700	0.086960
C651	C65	0.543700	0.082600	0.021030
C661	C66	0.387600	0.985300	0.972610
C671	C67	0.054700	0.030400	0.958260
C681	C68	0.073500	0.035800	0.038380
C691	C69	0.965400	0.442600	0.788860
C701	C70	0.565400	0.443700	0.744770
C711	C71	0.537600	0.578600	0.775100
C721	C72	0.935800	0.576700	0.757920
C731	C73	0.792800	0.224100	0.611320
C741	C74	0.826300	0.213500	0.663090
C751	C75	0.745900	0.245500	0.696780
C761	C76	0.761000	0.231400	0.744800
C771	C77	0.850200	0.180800	0.759480
C781	C78	0.931200	0.150900	0.726700
C791	C79	0.925600	0.170200	0.678540
C801	C80	0.030800	0.148400	0.646570
C811	C81	0.042300	0.057700	0.640700
C821	C82	0.142900	0.041100	0.610000
C831	C83	0.233200	0.113700	0.587000
C841	C84	0.227100	0.203200	0.592800
C851	C85	0.127800	0.221600	0.622760
C861	C86	0.126800	0.322100	0.627220
C871	C87	0.383700	0.713500	0.642310
C881	C88	0.414900	0.816500	0.651640
C891	C89	0.556000	0.867400	0.648450
C901	C90	0.602400	0.961400	0.659200
C911	C91	0.506000	0.006200	0.673360
C921	C92	0.365100	0.957900	0.676850
C931	C93	0.317100	0.862400	0.666150
C941	C94	0.162700	0.818700	0.671650
C951	C95	0.098200	0.834300	0.713860
C961	C96	0.957200	0.802000	0.720100
C971	C97	0.872400	0.751300	0.684900
C981	C98	0.932700	0.732900	0.642970
C991	C99	0.077000	0.767200	0.635860
C1001	C100	0.870900	0.246700	0.413040
C1011	C101	0.043700	0.082600	0.478970
C1021	C102	0.887600	0.985300	0.527390
C1031	C103	0.554700	0.030400	0.541740
C1041	C104	0.573500	0.035800	0.461620
C1051	C105	0.465400	0.442600	0.711140
C1061	C106	0.065400	0.443700	0.755230
C1071	C107	0.037600	0.578600	0.724900
C1081	C108	0.435800	0.576700	0.742080
C1091	C109	0.707200	0.775900	0.111320
C1101	C110	0.673700	0.786500	0.163090
C1111	C111	0.754100	0.754500	0.196780
C1121	C112	0.739000	0.768600	0.244800
C1131	C113	0.649800	0.819200	0.259480
C1141	C114	0.568800	0.849100	0.226700
C1151	C115	0.574400	0.829800	0.178540
C1161	C116	0.469200	0.851600	0.146570
C1171	C117	0.457700	0.942300	0.140700
C1181	C118	0.357100	0.958900	0.110000
C1191	C119	0.266800	0.886300	0.087000
C1201	C120	0.272900	0.796800	0.092800
C1211	C121	0.372200	0.778400	0.122760
C1221	C122	0.373200	0.677900	0.127220
C1231	C123	0.116300	0.286500	0.142310
C1241	C124	0.085100	0.183500	0.151640
C1251	C125	0.944000	0.132600	0.148450
C1261	C126	0.897600	0.038600	0.159200
C1271	C127	0.994000	0.993800	0.173360
C1281	C128	0.134900	0.042100	0.176850
C1291	C129	0.182900	0.137600	0.166150
C1301	C130	0.337300	0.181300	0.171650
C1311	C131	0.401800	0.165700	0.213860
C1321	C132	0.542800	0.198000	0.220100
C1331	C133	0.627600	0.248700	0.184900
C1341	C134	0.567300	0.267100	0.142970
C1351	C135	0.423000	0.232800	0.135860
C1361	C136	0.629100	0.753300	0.913040
C1371	C137	0.456300	0.917400	0.978970
C1381	C138	0.612400	0.014700	0.027390
C1391	C139	0.945300	0.969600	0.041740
C1401	C140	0.926500	0.964200	0.961620
C1411	C141	0.034600	0.557400	0.211140
C1421	C142	0.434600	0.556300	0.255230
C1431	C143	0.462400	0.421400	0.224900
C1441	C144	0.064200	0.423300	0.242080
N11	N1	0.069300	0.931300	0.493860
N21	N2	0.371200	0.933400	0.496310
N31	N3	0.602000	0.491200	0.290160
N41	N4	0.897800	0.488600	0.277320
N51	N5	0.430700	0.068700	0.993860
N61	N6	0.128800	0.066600	0.996310
N71	N7	0.898000	0.508800	0.790160
N81	N8	0.602200	0.511400	0.777320
N91	N9	0.930700	0.068700	0.506140
N101	N10	0.628800	0.066600	0.503690
N111	N11	0.398000	0.508800	0.709840
N121	N12	0.102200	0.511400	0.722680
N131	N13	0.569300	0.931300	0.006140
N141	N14	0.871200	0.933400	0.003690
N151	N15	0.102000	0.491200	0.209840
N161	N16	0.397800	0.488600	0.222680
O11	O1	0.184800	0.834500	0.417460
O21	O2	0.263200	0.713300	0.399020
O31	O3	0.824700	0.633400	0.336230
O41	O4	0.922100	0.642000	0.407230
O51	O5	0.707900	0.342900	0.332720
O61	O6	0.541600	0.310000	0.388250
O71	O7	0.169000	0.826300	0.562750
O81	O8	0.118800	0.673900	0.572280
O91	O9	0.315200	0.165500	0.917460
O101	O10	0.236800	0.286700	0.899020
O111	O11	0.675300	0.366600	0.836230
O121	O12	0.577900	0.358000	0.907230
O131	O13	0.792100	0.657100	0.832720
O141	O14	0.958400	0.690000	0.888250
O151	O15	0.331000	0.173700	0.062750
O161	O16	0.381200	0.326100	0.072280
O171	O17	0.815200	0.165500	0.582540
O181	O18	0.736800	0.286700	0.600980
O191	O19	0.175300	0.366600	0.663770
O201	O20	0.077900	0.358000	0.592770
O211	O21	0.292100	0.657100	0.667280
O221	O22	0.458400	0.690000	0.611750
O231	O23	0.831000	0.173700	0.437250
O241	O24	0.881200	0.326100	0.427720
O251	O25	0.684800	0.834500	0.082540
O261	O26	0.763200	0.713300	0.100980
O271	O27	0.324700	0.633400	0.163770
O281	O28	0.422100	0.642000	0.092770
O291	O29	0.207900	0.342900	0.167280
O301	O30	0.041600	0.310000	0.111750
O311	O31	0.669000	0.826300	0.937250
O321	O32	0.618800	0.673900	0.927720
