data_TISHAF_clean_PM
_symmetry_space_group_name_H-M	'P1'
_cell_length_a	20.822500
_cell_length_b	23.146300
_cell_length_c	23.146300
_cell_angle_alpha	68.585100
_cell_angle_beta	72.550300
_cell_angle_gamma	107.450000
_symmetry_Int_Tables_number 1

loop_
_symmetry_equiv_pos_as_xyz
'x,y,z'

loop_
_atom_site_label
_atom_site_type_symbol
_atom_site_fract_x
_atom_site_fract_y
_atom_site_fract_z
Fe11	Fe1	0.910130	0.507880	0.126060
Fe21	Fe2	0.967280	0.424610	0.038520
Fe31	Fe3	0.036190	0.126060	0.366060
Fe41	Fe4	0.005800	0.038520	0.536870
Fe51	Fe5	0.402250	0.366060	0.507880
Fe61	Fe6	0.542670	0.536870	0.424610
Fe71	Fe7	0.089870	0.492120	0.873940
Fe81	Fe8	0.032720	0.575390	0.961480
Fe91	Fe9	0.963810	0.873940	0.633940
Fe101	Fe10	0.994200	0.961480	0.463130
Fe111	Fe11	0.597750	0.633940	0.492120
Fe121	Fe12	0.457330	0.463130	0.575390
H11	H1	0.609700	0.022900	0.370700
H21	H2	0.384100	0.920300	0.489200
H31	H3	0.492300	0.129900	0.391300
H41	H4	0.605900	0.207700	0.371600
H51	H5	0.713500	0.314900	0.292200
H61	H6	0.795400	0.229000	0.189200
H71	H7	0.686400	0.124200	0.263200
H81	H8	0.596500	0.914500	0.450700
H91	H9	0.588900	0.805000	0.481300
H101	H10	0.391800	0.739500	0.473100
H111	H11	0.397900	0.848600	0.444800
H121	H12	0.305900	0.936400	0.570400
H131	H13	0.186000	0.926700	0.614100
H141	H14	0.248700	0.098600	0.438600
H151	H15	0.369700	0.109600	0.393200
H161	H16	0.201600	0.989800	0.901500
H171	H17	0.182400	0.889200	0.917600
H181	H18	0.130600	0.784300	0.924600
H191	H19	0.978900	0.705300	0.119800
H201	H20	0.035800	0.812500	0.112400
H211	H21	0.980400	0.370700	0.606400
H221	H22	0.873300	0.489200	0.590500
H231	H23	0.883600	0.391300	0.478800
H241	H24	0.977500	0.371600	0.420700
H251	H25	0.005700	0.292200	0.392900
H261	H26	0.984600	0.189200	0.581800
H271	H27	0.949600	0.263200	0.612600
H281	H28	0.047200	0.450700	0.634800
H291	H29	0.070200	0.481300	0.713700
H301	H30	0.864900	0.473100	0.787400
H311	H31	0.842700	0.444800	0.706600
H321	H32	0.876300	0.570400	0.493200
H331	H33	0.800100	0.614100	0.459200
H341	H34	0.687300	0.438600	0.462800
H351	H35	0.762900	0.393200	0.497200
H361	H36	0.103100	0.901500	0.108700
H371	H37	0.100000	0.917600	0.193200
H381	H38	0.055200	0.924600	0.291100
H391	H39	0.098700	0.119800	0.174900
H401	H40	0.148200	0.112400	0.075100
H411	H41	0.586800	0.606400	0.022900
H421	H42	0.463800	0.590500	0.920300
H431	H43	0.362400	0.478800	0.129900
H441	H44	0.398200	0.420700	0.207700
H451	H45	0.398600	0.392900	0.314900
H461	H46	0.566400	0.581800	0.229000
H471	H47	0.562200	0.612600	0.124200
H481	H48	0.682000	0.634800	0.914500
H491	H49	0.783900	0.713700	0.805000
H501	H50	0.652300	0.787400	0.739500
H511	H51	0.549300	0.706600	0.848600
H521	H52	0.369500	0.493200	0.936400
H531	H53	0.259300	0.459200	0.926700
H541	H54	0.150100	0.462800	0.098600
H551	H55	0.260100	0.497200	0.109600
H561	H56	0.211800	0.108700	0.989800
H571	H57	0.293200	0.193200	0.889200
H581	H58	0.346300	0.291100	0.784300
H591	H59	0.273600	0.174900	0.705300
H601	H60	0.223300	0.075100	0.812500
H611	H61	0.390300	0.977100	0.629300
H621	H62	0.615900	0.079700	0.510800
H631	H63	0.507700	0.870100	0.608700
H641	H64	0.394100	0.792300	0.628400
H651	H65	0.286500	0.685100	0.707800
H661	H66	0.204600	0.771000	0.810800
H671	H67	0.313600	0.875800	0.736800
H681	H68	0.403500	0.085500	0.549300
H691	H69	0.411100	0.195000	0.518700
H701	H70	0.608200	0.260500	0.526900
H711	H71	0.602100	0.151400	0.555200
H721	H72	0.694100	0.063600	0.429600
H731	H73	0.814000	0.073300	0.385900
H741	H74	0.751300	0.901400	0.561400
H751	H75	0.630300	0.890400	0.606800
H761	H76	0.798400	0.010200	0.098500
H771	H77	0.817600	0.110800	0.082400
H781	H78	0.869400	0.215700	0.075400
H791	H79	0.021100	0.294700	0.880200
H801	H80	0.964200	0.187500	0.887600
H811	H81	0.019600	0.629300	0.393600
H821	H82	0.126700	0.510800	0.409500
H831	H83	0.116400	0.608700	0.521200
H841	H84	0.022500	0.628400	0.579300
H851	H85	0.994300	0.707800	0.607100
H861	H86	0.015400	0.810800	0.418200
H871	H87	0.050400	0.736800	0.387400
H881	H88	0.952800	0.549300	0.365200
H891	H89	0.929800	0.518700	0.286300
H901	H90	0.135100	0.526900	0.212600
H911	H91	0.157300	0.555200	0.293400
H921	H92	0.123700	0.429600	0.506800
H931	H93	0.199900	0.385900	0.540800
H941	H94	0.312700	0.561400	0.537200
H951	H95	0.237100	0.606800	0.502800
H961	H96	0.896900	0.098500	0.891300
H971	H97	0.900000	0.082400	0.806800
H981	H98	0.944800	0.075400	0.708900
H991	H99	0.901300	0.880200	0.825100
H1001	H100	0.851800	0.887600	0.924900
H1011	H101	0.413200	0.393600	0.977100
H1021	H102	0.536200	0.409500	0.079700
H1031	H103	0.637600	0.521200	0.870100
H1041	H104	0.601800	0.579300	0.792300
H1051	H105	0.601400	0.607100	0.685100
H1061	H106	0.433600	0.418200	0.771000
H1071	H107	0.437800	0.387400	0.875800
H1081	H108	0.318000	0.365200	0.085500
H1091	H109	0.216100	0.286300	0.195000
H1101	H110	0.347700	0.212600	0.260500
H1111	H111	0.450700	0.293400	0.151400
H1121	H112	0.630500	0.506800	0.063600
H1131	H113	0.740700	0.540800	0.073300
H1141	H114	0.849900	0.537200	0.901400
H1151	H115	0.739900	0.502800	0.890400
H1161	H116	0.788200	0.891300	0.010200
H1171	H117	0.706800	0.806800	0.110800
H1181	H118	0.653700	0.708900	0.215700
H1191	H119	0.726400	0.825100	0.294700
H1201	H120	0.776700	0.924900	0.187500
C11	C1	0.561790	0.087790	0.373520
C21	C2	0.563730	0.023390	0.389400
C31	C3	0.496050	0.960390	0.433440
C41	C4	0.428770	0.962060	0.460550
C51	C5	0.425660	0.024800	0.446220
C61	C6	0.493620	0.087640	0.401780
C71	C7	0.633500	0.154740	0.325840
C81	C8	0.643210	0.211720	0.333890
C91	C9	0.708560	0.276330	0.286450
C101	C10	0.765140	0.282750	0.231430
C111	C11	0.756420	0.225620	0.225060
C121	C12	0.691240	0.161970	0.270250
C131	C13	0.832400	0.351920	0.180420
C141	C14	0.496480	0.891840	0.447600
C151	C15	0.554880	0.879320	0.456080
C161	C16	0.551090	0.814090	0.472720
C171	C17	0.491880	0.762000	0.476760
C181	C18	0.433050	0.774620	0.468170
C191	C19	0.436240	0.839680	0.452260
C201	C20	0.493010	0.694040	0.488510
C211	C21	0.350930	0.023790	0.475300
C221	C22	0.294410	0.968660	0.543230
C231	C23	0.222450	0.962460	0.569310
C241	C24	0.204180	0.009790	0.528650
C251	C25	0.259820	0.065110	0.464450
C261	C26	0.332900	0.072100	0.437300
C271	C27	0.123090	0.996170	0.554900
C281	C28	0.187860	0.994040	0.941260
C291	C29	0.144880	0.934030	0.006290
C301	C30	0.115770	0.862560	0.013750
C311	C31	0.141650	0.851650	0.959700
C321	C32	0.111460	0.788810	0.963730
C331	C33	0.052620	0.731780	0.025320
C341	C34	0.022090	0.741840	0.079270
C351	C35	0.055360	0.807060	0.074080
C361	C36	0.019510	0.661550	0.031320
C371	C37	0.935310	0.373520	0.538690
C381	C38	0.953130	0.389400	0.587210
C391	C39	0.929490	0.433440	0.606170
C401	C40	0.889320	0.460550	0.577390
C411	C41	0.871880	0.446220	0.528980
C421	C42	0.895400	0.401780	0.510580
C431	C43	0.959340	0.325840	0.519420
C441	C44	0.977100	0.333890	0.454390
C451	C45	0.995010	0.286450	0.437220
C461	C46	0.996570	0.231430	0.485820
C471	C47	0.981480	0.225060	0.549320
C481	C48	0.961490	0.270250	0.567780
C491	C49	0.012820	0.180420	0.467660
C501	C50	0.944080	0.447600	0.660560
C511	C51	0.010960	0.456080	0.664600
C521	C52	0.023810	0.472720	0.713190
C531	C53	0.968640	0.476760	0.761240
C541	C54	0.901220	0.468170	0.757210
C551	C55	0.888500	0.452260	0.708060
C561	C56	0.981520	0.488510	0.817450
C571	C57	0.826230	0.475300	0.500910
C581	C58	0.837640	0.543230	0.488110
C591	C59	0.791760	0.569310	0.468230
C601	C60	0.732830	0.528650	0.461560
C611	C61	0.724270	0.464450	0.470440
C621	C62	0.770200	0.437300	0.490600
C631	C63	0.677990	0.554900	0.448930
C641	C64	0.129120	0.941260	0.064700
C651	C65	0.151170	0.006290	0.059680
C661	C66	0.129520	0.013750	0.123690
C671	C67	0.101350	0.959700	0.188650
C681	C68	0.075190	0.963730	0.247460
C691	C69	0.077940	0.025320	0.242900
C701	C70	0.101360	0.079270	0.178890
C711	C71	0.129440	0.074080	0.118860
C721	C72	0.050830	0.031320	0.307130
C731	C73	0.474000	0.538690	0.087790
C741	C74	0.540340	0.587210	0.023390
C751	C75	0.535660	0.606170	0.960390
C761	C76	0.466710	0.577390	0.962060
C771	C77	0.400860	0.528980	0.024800
C781	C78	0.405980	0.510580	0.087640
C791	C79	0.478760	0.519420	0.154740
C801	C80	0.431490	0.454390	0.211720
C811	C81	0.432230	0.437220	0.276330
C821	C82	0.482390	0.485820	0.282750
C831	C83	0.530800	0.549320	0.225620
C841	C84	0.529270	0.567780	0.161970
C851	C85	0.480480	0.467660	0.351920
C861	C86	0.604640	0.660560	0.891840
C871	C87	0.675560	0.664600	0.879320
C881	C88	0.737000	0.713190	0.814090
C891	C89	0.729880	0.761240	0.762000
C901	C90	0.658430	0.757210	0.774620
C911	C91	0.596560	0.708060	0.839680
C921	C92	0.798970	0.817450	0.694040
C931	C93	0.327140	0.500910	0.023790
C941	C94	0.325750	0.488110	0.968660
C951	C95	0.259990	0.468230	0.962460
C961	C96	0.194390	0.461560	0.009790
C971	C97	0.194710	0.470440	0.065110
C981	C98	0.260800	0.490600	0.072100
C991	C99	0.126920	0.448930	0.996170
C1001	C100	0.193820	0.064700	0.994040
C1011	C101	0.210850	0.059680	0.934030
C1021	C102	0.253210	0.123690	0.862560
C1031	C103	0.290000	0.188650	0.851650
C1041	C104	0.322650	0.247460	0.788810
C1051	C105	0.320840	0.242900	0.731780
C1061	C106	0.280250	0.178890	0.741840
C1071	C107	0.248300	0.118860	0.807060
C1081	C108	0.357960	0.307130	0.661550
C1091	C109	0.438210	0.912210	0.626480
C1101	C110	0.436270	0.976610	0.610600
C1111	C111	0.503950	0.039610	0.566560
C1121	C112	0.571230	0.037940	0.539450
C1131	C113	0.574340	0.975200	0.553780
C1141	C114	0.506380	0.912360	0.598220
C1151	C115	0.366500	0.845260	0.674160
C1161	C116	0.356790	0.788280	0.666110
C1171	C117	0.291440	0.723670	0.713550
C1181	C118	0.234860	0.717250	0.768570
C1191	C119	0.243580	0.774380	0.774940
C1201	C120	0.308760	0.838030	0.729750
C1211	C121	0.167600	0.648080	0.819580
C1221	C122	0.503520	0.108160	0.552400
C1231	C123	0.445120	0.120680	0.543920
C1241	C124	0.448910	0.185910	0.527280
C1251	C125	0.508120	0.238000	0.523240
C1261	C126	0.566950	0.225380	0.531830
C1271	C127	0.563760	0.160320	0.547740
C1281	C128	0.506990	0.305960	0.511490
C1291	C129	0.649070	0.976210	0.524700
C1301	C130	0.705590	0.031340	0.456770
C1311	C131	0.777550	0.037540	0.430690
C1321	C132	0.795820	0.990210	0.471350
C1331	C133	0.740180	0.934890	0.535550
C1341	C134	0.667100	0.927900	0.562700
C1351	C135	0.876910	0.003830	0.445100
C1361	C136	0.812140	0.005960	0.058740
C1371	C137	0.855120	0.065970	0.993710
C1381	C138	0.884230	0.137440	0.986250
C1391	C139	0.858350	0.148350	0.040300
C1401	C140	0.888540	0.211190	0.036270
C1411	C141	0.947380	0.268220	0.974680
C1421	C142	0.977910	0.258160	0.920730
C1431	C143	0.944640	0.192940	0.925920
C1441	C144	0.980490	0.338450	0.968680
C1451	C145	0.064690	0.626480	0.461310
C1461	C146	0.046870	0.610600	0.412790
C1471	C147	0.070510	0.566560	0.393830
C1481	C148	0.110680	0.539450	0.422610
C1491	C149	0.128120	0.553780	0.471020
C1501	C150	0.104600	0.598220	0.489420
C1511	C151	0.040660	0.674160	0.480580
C1521	C152	0.022900	0.666110	0.545610
C1531	C153	0.004990	0.713550	0.562780
C1541	C154	0.003430	0.768570	0.514180
C1551	C155	0.018520	0.774940	0.450680
C1561	C156	0.038510	0.729750	0.432220
C1571	C157	0.987180	0.819580	0.532340
C1581	C158	0.055920	0.552400	0.339440
C1591	C159	0.989040	0.543920	0.335400
C1601	C160	0.976190	0.527280	0.286810
C1611	C161	0.031360	0.523240	0.238760
C1621	C162	0.098780	0.531830	0.242790
C1631	C163	0.111500	0.547740	0.291940
C1641	C164	0.018480	0.511490	0.182550
C1651	C165	0.173770	0.524700	0.499090
C1661	C166	0.162360	0.456770	0.511890
C1671	C167	0.208240	0.430690	0.531770
C1681	C168	0.267170	0.471350	0.538440
C1691	C169	0.275730	0.535550	0.529560
C1701	C170	0.229800	0.562700	0.509400
C1711	C171	0.322010	0.445100	0.551070
C1721	C172	0.870880	0.058740	0.935300
C1731	C173	0.848830	0.993710	0.940320
C1741	C174	0.870480	0.986250	0.876310
C1751	C175	0.898650	0.040300	0.811350
C1761	C176	0.924810	0.036270	0.752540
C1771	C177	0.922060	0.974680	0.757100
C1781	C178	0.898640	0.920730	0.821110
C1791	C179	0.870560	0.925920	0.881140
C1801	C180	0.949170	0.968680	0.692870
C1811	C181	0.526000	0.461310	0.912210
C1821	C182	0.459660	0.412790	0.976610
C1831	C183	0.464340	0.393830	0.039610
C1841	C184	0.533290	0.422610	0.037940
C1851	C185	0.599140	0.471020	0.975200
C1861	C186	0.594020	0.489420	0.912360
C1871	C187	0.521240	0.480580	0.845260
C1881	C188	0.568510	0.545610	0.788280
C1891	C189	0.567770	0.562780	0.723670
C1901	C190	0.517610	0.514180	0.717250
C1911	C191	0.469200	0.450680	0.774380
C1921	C192	0.470730	0.432220	0.838030
C1931	C193	0.519520	0.532340	0.648080
C1941	C194	0.395360	0.339440	0.108160
C1951	C195	0.324440	0.335400	0.120680
C1961	C196	0.263000	0.286810	0.185910
C1971	C197	0.270120	0.238760	0.238000
C1981	C198	0.341570	0.242790	0.225380
C1991	C199	0.403440	0.291940	0.160320
C2001	C200	0.201030	0.182550	0.305960
C2011	C201	0.672860	0.499090	0.976210
C2021	C202	0.674250	0.511890	0.031340
C2031	C203	0.740010	0.531770	0.037540
C2041	C204	0.805610	0.538440	0.990210
C2051	C205	0.805290	0.529560	0.934890
C2061	C206	0.739200	0.509400	0.927900
C2071	C207	0.873080	0.551070	0.003830
C2081	C208	0.806180	0.935300	0.005960
C2091	C209	0.789150	0.940320	0.065970
C2101	C210	0.746790	0.876310	0.137440
C2111	C211	0.710000	0.811350	0.148350
C2121	C212	0.677350	0.752540	0.211190
C2131	C213	0.679160	0.757100	0.268220
C2141	C214	0.719750	0.821110	0.258160
C2151	C215	0.751700	0.881140	0.192940
C2161	C216	0.642040	0.692870	0.338450
O11	O1	0.829170	0.405620	0.179730
O21	O2	0.889470	0.352630	0.138950
O31	O3	0.536020	0.679520	0.513980
O41	O4	0.455400	0.658680	0.469170
O51	O5	0.074700	0.936500	0.604220
O61	O6	0.108890	0.047100	0.526240
O71	O7	0.041220	0.657880	0.976770
O81	O8	0.975520	0.610400	0.092490
O91	O9	0.973060	0.500400	0.057190
O101	O10	0.008900	0.179730	0.414650
O111	O11	0.028420	0.138950	0.508420
O121	O12	0.050000	0.513980	0.806500
O131	O13	0.924570	0.469170	0.872150
O141	O14	0.678920	0.604220	0.459280
O151	O15	0.635130	0.526240	0.426660
O161	O16	0.017990	0.976770	0.365350
O171	O17	0.068010	0.092490	0.297110
O181	O18	0.030250	0.057190	0.442410
O191	O19	0.423550	0.414650	0.405620
O201	O20	0.536840	0.508420	0.352630
O211	O21	0.856500	0.806500	0.679520
O221	O22	0.796720	0.872150	0.658680
O231	O23	0.138200	0.459280	0.936500
O241	O24	0.061790	0.426660	0.047100
O251	O25	0.383340	0.365350	0.657880
O261	O26	0.365120	0.297110	0.610400
O271	O27	0.472660	0.442410	0.500400
O281	O28	0.170830	0.594380	0.820270
O291	O29	0.110530	0.647370	0.861050
O301	O30	0.463980	0.320480	0.486020
O311	O31	0.544600	0.341320	0.530830
O321	O32	0.925300	0.063500	0.395780
O331	O33	0.891110	0.952900	0.473760
O341	O34	0.958780	0.342120	0.023230
O351	O35	0.024480	0.389600	0.907510
O361	O36	0.026940	0.499600	0.942810
O371	O37	0.991100	0.820270	0.585350
O381	O38	0.971580	0.861050	0.491580
O391	O39	0.950000	0.486020	0.193500
O401	O40	0.075430	0.530830	0.127850
O411	O41	0.321080	0.395780	0.540720
O421	O42	0.364870	0.473760	0.573340
O431	O43	0.982010	0.023230	0.634650
O441	O44	0.931990	0.907510	0.702890
O451	O45	0.969750	0.942810	0.557590
O461	O46	0.576450	0.585350	0.594380
O471	O47	0.463160	0.491580	0.647370
O481	O48	0.143500	0.193500	0.320480
O491	O49	0.203280	0.127850	0.341320
O501	O50	0.861800	0.540720	0.063500
O511	O51	0.938210	0.573340	0.952900
O521	O52	0.616660	0.634650	0.342120
O531	O53	0.634880	0.702890	0.389600
O541	O54	0.527340	0.557590	0.499600
