data_TISKOW_clean_PM
_symmetry_space_group_name_H-M	'P1'
_cell_length_a	14.203600
_cell_length_b	14.460100
_cell_length_c	18.072400
_cell_angle_alpha	69.234600
_cell_angle_beta	66.860900
_cell_angle_gamma	60.585100
_symmetry_Int_Tables_number 1

loop_
_symmetry_equiv_pos_as_xyz
'x,y,z'

loop_
_atom_site_label
_atom_site_type_symbol
_atom_site_fract_x
_atom_site_fract_y
_atom_site_fract_z
Zn11	Zn1	0.758080	0.008160	0.635080
Zn21	Zn2	0.378770	0.204280	0.423500
Zn31	Zn3	0.189830	0.584030	0.594730
Zn41	Zn4	0.401320	0.491840	0.864920
Zn51	Zn5	0.006550	0.295720	0.076500
Zn61	Zn6	0.368590	0.915970	0.905270
Zn71	Zn7	0.241920	0.991840	0.364920
Zn81	Zn8	0.621230	0.795720	0.576500
Zn91	Zn9	0.810170	0.415970	0.405270
Zn101	Zn10	0.598680	0.508160	0.135080
Zn111	Zn11	0.993450	0.704280	0.923500
Zn121	Zn12	0.631410	0.084030	0.094730
Zn131	Zn13	0.500000	0.500000	0.500000
Zn141	Zn14	0.500000	0.000000	0.000000
H11	H1	0.512600	0.308900	0.437500
H21	H2	0.533800	0.461700	0.680500
H31	H3	0.212700	0.563900	0.777500
H41	H4	0.872200	0.163100	0.507700
H51	H5	0.808400	0.596900	0.477900
H61	H6	0.740000	0.152600	0.254800
H71	H7	0.922700	0.965700	0.459300
H81	H8	0.553900	0.246200	0.613800
H91	H9	0.259000	0.191100	0.062500
H101	H10	0.676000	0.038300	0.819500
H111	H11	0.554100	0.936100	0.722500
H121	H12	0.543000	0.336900	0.992300
H131	H13	0.883200	0.903100	0.022100
H141	H14	0.147400	0.347400	0.245200
H151	H15	0.347700	0.534300	0.040700
H161	H16	0.413900	0.253800	0.886200
H171	H17	0.487400	0.691100	0.562500
H181	H18	0.466200	0.538300	0.319500
H191	H19	0.787300	0.436100	0.222500
H201	H20	0.127800	0.836900	0.492300
H211	H21	0.191600	0.403100	0.522100
H221	H22	0.260000	0.847400	0.745200
H231	H23	0.077300	0.034300	0.540700
H241	H24	0.446100	0.753800	0.386200
H251	H25	0.741000	0.808900	0.937500
H261	H26	0.324000	0.961700	0.180500
H271	H27	0.445900	0.063900	0.277500
H281	H28	0.457000	0.663100	0.007700
H291	H29	0.116800	0.096900	0.977900
H301	H30	0.852600	0.652600	0.754800
H311	H31	0.652300	0.465700	0.959300
H321	H32	0.586100	0.746200	0.113800
C11	C1	0.437800	0.346800	0.463200
C21	C2	0.613400	0.070800	0.377600
C31	C3	0.783000	0.003500	0.430100
C41	C4	0.055300	0.036600	0.328600
C51	C5	0.457200	0.487300	0.687500
C61	C6	0.283100	0.542700	0.740300
C71	C7	0.795100	0.203400	0.523200
C81	C8	0.937300	0.054300	0.343500
C91	C9	0.735700	0.602600	0.491000
C101	C10	0.736200	0.935900	0.505100
C111	C11	0.923300	0.174300	0.199100
C121	C12	0.778100	0.113200	0.295400
C131	C13	0.881100	0.110600	0.280800
C141	C14	0.886600	0.002000	0.417600
C151	C15	0.622100	0.249000	0.580600
C161	C16	0.727800	0.059800	0.368000
C171	C17	0.247800	0.153200	0.036800
C181	C18	0.061800	0.429200	0.122400
C191	C19	0.216600	0.496500	0.069900
C201	C20	0.420500	0.463400	0.171400
C211	C21	0.632000	0.012700	0.812500
C221	C22	0.566100	0.957300	0.759700
C231	C23	0.521700	0.296600	0.976800
C241	C24	0.335100	0.445700	0.156500
C251	C25	0.829300	0.897400	0.009000
C261	C26	0.177200	0.564100	0.994900
C271	C27	0.296700	0.325700	0.300900
C281	C28	0.186700	0.386800	0.204600
C291	C29	0.272500	0.389400	0.219200
C301	C30	0.306200	0.498000	0.082400
C311	C31	0.451700	0.251000	0.919400
C321	C32	0.155600	0.440200	0.132000
C331	C33	0.562200	0.653200	0.536800
C341	C34	0.386600	0.929200	0.622400
C351	C35	0.217000	0.996500	0.569900
C361	C36	0.944700	0.963400	0.671400
C371	C37	0.542800	0.512700	0.312500
C381	C38	0.716900	0.457300	0.259700
C391	C39	0.204900	0.796600	0.476800
C401	C40	0.062700	0.945700	0.656500
C411	C41	0.264300	0.397400	0.509000
C421	C42	0.263800	0.064100	0.494900
C431	C43	0.076700	0.825700	0.800900
C441	C44	0.221900	0.886800	0.704600
C451	C45	0.118900	0.889400	0.719200
C461	C46	0.113400	0.998000	0.582400
C471	C47	0.377900	0.751000	0.419400
C481	C48	0.272200	0.940200	0.632000
C491	C49	0.752200	0.846800	0.963200
C501	C50	0.938200	0.570800	0.877600
C511	C51	0.783400	0.503500	0.930100
C521	C52	0.579500	0.536600	0.828600
C531	C53	0.368000	0.987300	0.187500
C541	C54	0.433900	0.042700	0.240300
C551	C55	0.478300	0.703400	0.023200
C561	C56	0.664900	0.554300	0.843500
C571	C57	0.170700	0.102600	0.991000
C581	C58	0.822800	0.435900	0.005100
C591	C59	0.703300	0.674300	0.699100
C601	C60	0.813300	0.613200	0.795400
C611	C61	0.727500	0.610600	0.780800
C621	C62	0.693800	0.502000	0.917600
C631	C63	0.548300	0.749000	0.080600
C641	C64	0.844400	0.559800	0.868000
N11	N1	0.414100	0.504700	0.629300
N21	N2	0.300410	0.540580	0.663400
N31	N3	0.710410	0.539180	0.471800
N41	N4	0.354100	0.324800	0.469000
N51	N5	0.721500	0.161900	0.578100
N61	N6	0.379200	0.510300	0.758500
N71	N7	0.745000	0.307700	0.494100
N81	N8	0.402730	0.428040	0.497900
N91	N9	0.631300	0.337600	0.531800
N101	N10	0.548100	0.995300	0.870700
N111	N11	0.504390	0.959420	0.836600
N121	N12	0.721390	0.960820	0.028200
N131	N13	0.147900	0.175200	0.031000
N141	N14	0.461500	0.338100	0.921900
N151	N15	0.648000	0.989700	0.741500
N161	N16	0.546800	0.192300	0.005900
N171	N17	0.328670	0.071960	0.002100
N181	N18	0.500700	0.162400	0.968200
N191	N19	0.585900	0.495300	0.370700
N201	N20	0.699590	0.459420	0.336600
N211	N21	0.289590	0.460820	0.528200
N221	N22	0.645900	0.675200	0.531000
N231	N23	0.278500	0.838100	0.421900
N241	N24	0.620800	0.489700	0.241500
N251	N25	0.255000	0.692300	0.505900
N261	N26	0.597270	0.571960	0.502100
N271	N27	0.368700	0.662400	0.468200
N281	N28	0.451900	0.004700	0.129300
N291	N29	0.495610	0.040580	0.163400
N301	N30	0.278610	0.039180	0.971800
N311	N31	0.852100	0.824800	0.969000
N321	N32	0.538500	0.661900	0.078100
N331	N33	0.352000	0.010300	0.258500
N341	N34	0.453200	0.807700	0.994100
N351	N35	0.671330	0.928040	0.997900
N361	N36	0.499300	0.837600	0.031800
O11	O1	0.958900	0.237000	0.198800
O21	O2	0.536290	0.120020	0.432000
O31	O3	0.920000	0.164500	0.135100
O41	O4	0.258630	0.071540	0.425200
O51	O5	0.696750	0.884400	0.492300
O61	O6	0.127500	0.997500	0.270500
O71	O7	0.923500	0.941200	0.617800
O81	O8	0.598800	0.039400	0.328400
O91	O9	0.394700	0.263000	0.301200
O101	O10	0.088310	0.379980	0.068000
O111	O11	0.219600	0.335500	0.364900
O121	O12	0.755370	0.428460	0.074800
O131	O13	0.073450	0.615600	0.007700
O141	O14	0.395500	0.502500	0.229500
O151	O15	0.482500	0.558800	0.882200
O161	O16	0.966600	0.460600	0.171600
O171	O17	0.041100	0.763000	0.801200
O181	O18	0.463710	0.879980	0.568000
O191	O19	0.080000	0.835500	0.864900
O201	O20	0.741370	0.928460	0.574800
O211	O21	0.303250	0.115600	0.507700
O221	O22	0.872500	0.002500	0.729500
O231	O23	0.076500	0.058800	0.382200
O241	O24	0.401200	0.960600	0.671600
O251	O25	0.605300	0.737000	0.698800
O261	O26	0.911690	0.620020	0.932000
O271	O27	0.780400	0.664500	0.635100
O281	O28	0.244630	0.571540	0.925200
O291	O29	0.926550	0.384400	0.992300
O301	O30	0.604500	0.497500	0.770500
O311	O31	0.517500	0.441200	0.117800
O321	O32	0.033400	0.539400	0.828400
