data_TISWEZ_clean_PM
_symmetry_space_group_name_H-M	'P1'
_cell_length_a	11.945000
_cell_length_b	19.216300
_cell_length_c	19.216300
_cell_angle_alpha	84.456600
_cell_angle_beta	71.892300
_cell_angle_gamma	71.892400
_symmetry_Int_Tables_number 1

loop_
_symmetry_equiv_pos_as_xyz
'x,y,z'

loop_
_atom_site_label
_atom_site_type_symbol
_atom_site_fract_x
_atom_site_fract_y
_atom_site_fract_z
Gd11	Gd1	0.942030	0.105680	0.521120
Gd21	Gd2	0.621240	0.701220	0.362880
Gd31	Gd3	0.057970	0.894320	0.478880
Gd41	Gd4	0.931170	0.605680	0.021120
Gd51	Gd5	0.015880	0.362880	0.798780
Gd61	Gd6	0.536850	0.521120	0.394320
Gd71	Gd7	0.463150	0.478880	0.605680
Gd81	Gd8	0.185340	0.798780	0.137120
Gd91	Gd9	0.677540	0.137120	0.701220
Gd101	Gd10	0.322460	0.862880	0.298780
Gd111	Gd11	0.378760	0.298780	0.637120
Gd121	Gd12	0.068830	0.394320	0.978880
Gd131	Gd13	0.814660	0.201220	0.862880
Gd141	Gd14	0.952290	0.978880	0.105680
Gd151	Gd15	0.984120	0.637120	0.201220
Gd161	Gd16	0.047710	0.021120	0.894320
H11	H1	0.684300	0.217500	0.411300
H21	H2	0.988400	0.822900	0.665100
H31	H3	0.198000	0.530000	0.236000
H41	H4	0.813100	0.282500	0.088700
H51	H5	0.592900	0.553500	0.078100
H61	H6	0.720900	0.902400	0.226600
H71	H7	0.706400	0.642500	0.562500
H81	H8	0.700200	0.449600	0.908000
H91	H9	0.846700	0.561100	0.790100
H101	H10	0.376700	0.273400	0.902400
H111	H11	0.332000	0.362000	0.976000
H121	H12	0.771400	0.352700	0.673700
H131	H13	0.791100	0.857200	0.051200
H141	H14	0.098200	0.088700	0.217500
H151	H15	0.248100	0.655800	0.751000
H161	H16	0.434000	0.764000	0.030000
H171	H17	0.702200	0.852700	0.173700
H181	H18	0.651100	0.937500	0.642500
H191	H19	0.976400	0.677100	0.834900
H201	H20	0.391800	0.908000	0.050400
H211	H21	0.635700	0.464800	0.846000
H221	H22	0.188700	0.834900	0.822900
H231	H23	0.268900	0.437500	0.142500
H241	H24	0.004000	0.113000	0.139000
H251	H25	0.697900	0.938900	0.709900
H261	H26	0.802000	0.470000	0.764000
H271	H27	0.349900	0.597600	0.273400
H281	H28	0.011600	0.177100	0.334900
H291	H29	0.536000	0.030000	0.736000
H301	H30	0.124100	0.173700	0.647300
H311	H31	0.653500	0.334900	0.322900
H321	H32	0.875900	0.826300	0.352700
H331	H33	0.153300	0.438900	0.209900
H341	H34	0.407100	0.446500	0.921900
H351	H35	0.096100	0.749000	0.655800
H361	H36	0.481700	0.154000	0.964800
H371	H37	0.275500	0.053500	0.578100
H381	H38	0.146400	0.578100	0.446500
H391	H39	0.850200	0.592000	0.449600
H401	H40	0.157700	0.051200	0.642800
H411	H41	0.000900	0.751000	0.844200
H421	H42	0.692000	0.976000	0.138000
H431	H43	0.751900	0.344200	0.249000
H441	H44	0.023600	0.322900	0.165100
H451	H45	0.623300	0.726600	0.097600
H461	H46	0.054800	0.773900	0.935300
H471	H47	0.264000	0.726100	0.564700
H481	H48	0.208900	0.142800	0.948800
H491	H49	0.244000	0.613000	0.639000
H501	H50	0.518300	0.846000	0.035200
H511	H51	0.308000	0.024000	0.862000
H521	H52	0.154900	0.844200	0.749000
H531	H53	0.999100	0.249000	0.155800
H541	H54	0.636800	0.209900	0.061100
H551	H55	0.553500	0.964800	0.346000
H561	H56	0.904400	0.411300	0.282500
H571	H57	0.842300	0.948800	0.357200
H581	H58	0.736000	0.273900	0.435300
H591	H59	0.228600	0.647300	0.326300
H601	H60	0.095600	0.588700	0.717500
H611	H61	0.199500	0.642800	0.448800
H621	H62	0.363200	0.790100	0.938900
H631	H63	0.186900	0.717500	0.911300
H641	H64	0.329000	0.078100	0.946500
H651	H65	0.364300	0.535200	0.154000
H661	H66	0.648300	0.551200	0.142800
H671	H67	0.731100	0.562500	0.857500
H681	H68	0.442200	0.949600	0.408000
H691	H69	0.554900	0.673700	0.147300
H701	H70	0.800500	0.357200	0.551200
H711	H71	0.671000	0.921900	0.053500
H721	H72	0.756000	0.387000	0.361000
H731	H73	0.668000	0.638000	0.024000
H741	H74	0.830000	0.862000	0.476000
H751	H75	0.853600	0.421900	0.553500
H761	H76	0.279100	0.097600	0.773400
H771	H77	0.828700	0.435300	0.226100
H781	H78	0.117000	0.639000	0.887000
H791	H79	0.272000	0.264000	0.530000
H801	H80	0.899500	0.654000	0.464800
H811	H81	0.293600	0.357500	0.437500
H821	H82	0.411400	0.857500	0.937500
H831	H83	0.143000	0.861000	0.613000
H841	H84	0.724500	0.946500	0.421900
H851	H85	0.694000	0.476000	0.638000
H861	H86	0.348900	0.062500	0.357500
H871	H87	0.346500	0.665100	0.677100
H881	H88	0.299800	0.550400	0.092000
H891	H89	0.728000	0.736000	0.470000
H901	H90	0.445100	0.326300	0.852700
H911	H91	0.351700	0.448800	0.857200
H921	H92	0.464000	0.970000	0.264000
H931	H93	0.407800	0.290100	0.438900
H941	H94	0.903900	0.251000	0.344200
H951	H95	0.883000	0.361000	0.113000
H961	H96	0.990100	0.064700	0.273900
H971	H97	0.588600	0.142500	0.062500
H981	H98	0.306000	0.524000	0.362000
H991	H99	0.608200	0.092000	0.949600
H1001	H100	0.857000	0.139000	0.387000
H1011	H101	0.901800	0.911300	0.782500
H1021	H102	0.592200	0.709900	0.561100
H1031	H103	0.171300	0.564700	0.773900
H1041	H104	0.566000	0.236000	0.970000
H1051	H105	0.557800	0.050400	0.592000
H1061	H106	0.170000	0.138000	0.524000
H1071	H107	0.315700	0.782500	0.588700
H1081	H108	0.996000	0.887000	0.861000
H1091	H109	0.811300	0.165100	0.177100
H1101	H110	0.149800	0.408000	0.550400
H1111	H111	0.845100	0.155800	0.251000
H1121	H112	0.446500	0.035200	0.654000
H1131	H113	0.100500	0.346000	0.535200
H1141	H114	0.945200	0.226100	0.064700
H1151	H115	0.650100	0.402400	0.726600
H1161	H116	0.947500	0.773400	0.402400
H1171	H117	0.302100	0.061100	0.290100
H1181	H118	0.052500	0.226600	0.597600
H1191	H119	0.297800	0.147300	0.826300
H1201	H120	0.009900	0.935300	0.726100
C11	C1	0.732300	0.223900	0.441500
C21	C2	0.190400	0.053600	0.590000
C31	C3	0.585300	0.149600	0.856800
C41	C4	0.809600	0.946400	0.410000
C51	C5	0.352200	0.832900	0.966100
C61	C6	0.102300	0.723900	0.941500
C71	C7	0.200400	0.024100	0.383300
C81	C8	0.843800	0.129500	0.210900
C91	C9	0.219600	0.590000	0.446400
C101	C10	0.414700	0.850400	0.143200
C111	C11	0.120200	0.172700	0.826100
C121	C12	0.242700	0.922000	0.758600
C131	C13	0.416300	0.383300	0.475900
C141	C14	0.149600	0.357700	0.561700
C151	C15	0.267700	0.776100	0.558500
C161	C16	0.666000	0.553600	0.090000
C171	C17	0.799600	0.975900	0.616700
C181	C18	0.348800	0.332900	0.466100
C191	C19	0.164700	0.258600	0.078000
C201	C20	0.681700	0.966100	0.667100
C211	C21	0.054700	0.789100	0.629500
C221	C22	0.812600	0.522000	0.287800
C231	C23	0.001300	0.241400	0.422000
C241	C24	0.774200	0.486500	0.054900
C251	C25	0.315800	0.629500	0.710900
C261	C26	0.685900	0.379500	0.678700
C271	C27	0.265100	0.643200	0.149600
C281	C28	0.815600	0.013500	0.445100
C291	C29	0.431000	0.857700	0.061700
C301	C30	0.065400	0.178700	0.620500
C311	C31	0.998700	0.758600	0.578000
C321	C32	0.244000	0.090000	0.946400
C331	C33	0.314100	0.620500	0.321300
C341	C34	0.107800	0.475900	0.116700
C351	C35	0.897700	0.276100	0.058500
C361	C36	0.334000	0.446400	0.910000
C371	C37	0.908300	0.649600	0.356800
C381	C38	0.156200	0.870500	0.789100
C391	C39	0.934600	0.821300	0.379500
C401	C40	0.043800	0.058500	0.223900
C411	C41	0.879800	0.827300	0.173900
C421	C42	0.184400	0.986500	0.554900
C431	C43	0.877600	0.022000	0.787800
C441	C44	0.826200	0.441500	0.276100
C451	C45	0.557900	0.856800	0.350400
C461	C46	0.583700	0.616700	0.524100
C471	C47	0.757300	0.078000	0.241400
C481	C48	0.850400	0.642300	0.438300
C491	C49	0.507300	0.061700	0.642300
C501	C50	0.899600	0.287800	0.978000
C511	C51	0.423300	0.578000	0.741400
C521	C52	0.381000	0.672700	0.326100
C531	C53	0.647800	0.167100	0.033900
C541	C54	0.173800	0.558500	0.723900
C551	C55	0.569000	0.142300	0.938300
C561	C56	0.707100	0.673900	0.172700
C571	C57	0.665400	0.212200	0.522000
C581	C58	0.780400	0.410000	0.553600
C591	C59	0.091700	0.350400	0.643200
C601	C60	0.734900	0.356800	0.850400
C611	C61	0.651200	0.667100	0.533900
C621	C62	0.170900	0.054900	0.013500
C631	C63	0.829100	0.945100	0.986500
C641	C64	0.288700	0.561700	0.142300
C651	C65	0.244100	0.120500	0.821300
C661	C66	0.026700	0.289100	0.129500
C671	C67	0.739300	0.445100	0.486500
C681	C68	0.576700	0.422000	0.258600
C691	C69	0.711300	0.438300	0.857700
C701	C70	0.260700	0.554900	0.513500
C711	C71	0.100400	0.712200	0.022000
C721	C72	0.334600	0.787800	0.478000
C731	C73	0.775500	0.116700	0.024100
C741	C74	0.053700	0.826100	0.327300
C751	C75	0.122400	0.978000	0.212200
C761	C76	0.946300	0.173900	0.672700
C771	C77	0.442100	0.143200	0.649600
C781	C78	0.318300	0.033900	0.332900
C791	C79	0.814900	0.533900	0.832900
C801	C80	0.292900	0.326100	0.827300
C811	C81	0.835300	0.741400	0.922000
C821	C82	0.619000	0.327300	0.673900
C831	C83	0.756000	0.910000	0.053600
C841	C84	0.225800	0.513500	0.945100
C851	C85	0.892200	0.524100	0.883300
C861	C86	0.635400	0.678700	0.120500
C871	C87	0.956200	0.941500	0.776100
C881	C88	0.492700	0.938300	0.357700
C891	C89	0.755900	0.879500	0.178700
C901	C90	0.364600	0.321300	0.879500
C911	C91	0.187400	0.478000	0.712200
C921	C92	0.684200	0.370500	0.289100
C931	C93	0.945300	0.210900	0.370500
C941	C94	0.224500	0.883300	0.975900
C951	C95	0.185100	0.466100	0.167100
C961	C96	0.973300	0.710900	0.870500
N11	N1	0.141700	0.826700	0.584100
N21	N2	0.760200	0.937400	0.121600
N31	N3	0.858300	0.173300	0.415900
N41	N4	0.414800	0.962800	0.309200
N51	N5	0.118200	0.121600	0.562600
N61	N6	0.947500	0.326700	0.084100
N71	N7	0.680800	0.437400	0.621600
N81	N8	0.239800	0.062600	0.878400
N91	N9	0.052500	0.673300	0.915900
N101	N10	0.276000	0.309200	0.537200
N111	N11	0.186800	0.537200	0.190800
N121	N12	0.813200	0.462800	0.809200
N131	N13	0.319200	0.562600	0.378400
N141	N14	0.622400	0.190800	0.962800
N151	N15	0.968400	0.084100	0.173300
N161	N16	0.031600	0.915900	0.826700
N171	N17	0.724000	0.690800	0.462800
N181	N18	0.274200	0.584100	0.673300
N191	N19	0.881800	0.878400	0.437400
N201	N20	0.585200	0.037200	0.690800
N211	N21	0.302400	0.378400	0.937400
N221	N22	0.697600	0.621600	0.062600
N231	N23	0.725800	0.415900	0.326700
N241	N24	0.377600	0.809200	0.037200
O11	O1	0.289100	0.436100	0.676500
O21	O2	0.041400	0.541800	0.109000
O31	O3	0.972400	0.852100	0.144500
O41	O4	0.724700	0.068500	0.459100
O51	O5	0.166700	0.319900	0.680100
O61	O6	0.109700	0.235300	0.801900
O71	O7	0.793200	0.959100	0.931500
O81	O8	0.910400	0.539200	0.260200
O91	O9	0.583200	0.609000	0.458200
O101	O10	0.353100	0.735300	0.301900
O111	O11	0.247700	0.568500	0.959100
O121	O12	0.918100	0.010200	0.455800
O131	O13	0.416800	0.391000	0.541800
O141	O14	0.034400	0.676500	0.063900
O151	O15	0.550400	0.239800	0.539200
O161	O16	0.192200	0.958200	0.391000
O171	O17	0.469000	0.647900	0.355500
O181	O18	0.116900	0.855500	0.352100
O191	O19	0.666700	0.180100	0.819900
O201	O20	0.967100	0.224600	0.489000
O211	O21	0.513400	0.819900	0.319900
O221	O22	0.883100	0.144500	0.647900
O231	O23	0.088400	0.801900	0.264700
O241	O24	0.646900	0.264700	0.698100
O251	O25	0.347500	0.672300	0.124100
O261	O26	0.121300	0.077400	0.415000
O271	O27	0.089600	0.460800	0.739800
O281	O28	0.191700	0.989000	0.775400
O291	O29	0.113700	0.422600	0.085000
O301	O30	0.153200	0.680100	0.180100
O311	O31	0.920200	0.726500	0.611100
O321	O32	0.901700	0.063900	0.823500
O331	O33	0.819300	0.724600	0.989000
O341	O34	0.081900	0.989800	0.544200
O351	O35	0.333300	0.819900	0.180100
O361	O36	0.846800	0.319900	0.819900
O371	O37	0.079800	0.273500	0.388900
O381	O38	0.486600	0.180100	0.680100
O391	O39	0.655000	0.698100	0.235300
O401	O40	0.528400	0.124100	0.827700
O411	O41	0.652500	0.327700	0.875900
O421	O42	0.807800	0.041800	0.609000
O431	O43	0.965600	0.323500	0.936100
O441	O44	0.886300	0.577400	0.915000
O451	O45	0.209800	0.960800	0.239800
O461	O46	0.019800	0.624100	0.327700
O471	O47	0.958600	0.458200	0.891000
O481	O48	0.531000	0.352100	0.644500
O491	O49	0.242200	0.226500	0.111100
O501	O50	0.829400	0.260200	0.960800
O511	O51	0.757800	0.773500	0.888900
O521	O52	0.878700	0.922600	0.585000
O531	O53	0.206800	0.040900	0.068500
O541	O54	0.725200	0.176500	0.563900
O551	O55	0.752300	0.431500	0.040900
O561	O56	0.890300	0.764700	0.198100
O571	O57	0.032900	0.775400	0.511000
O581	O58	0.928300	0.955800	0.989800
O591	O59	0.463700	0.415000	0.422600
O601	O60	0.150400	0.891000	0.041800
O611	O61	0.098300	0.936100	0.176500
O621	O62	0.824500	0.644500	0.147900
O631	O63	0.808300	0.011000	0.224600
O641	O64	0.183800	0.540900	0.568500
O651	O65	0.274800	0.823500	0.436100
O661	O66	0.833300	0.680100	0.319900
O671	O67	0.816200	0.459100	0.431500
O681	O68	0.790200	0.039200	0.760200
O691	O69	0.115900	0.510200	0.955800
O701	O70	0.801300	0.085000	0.077400
O711	O71	0.353300	0.888900	0.726500
O721	O72	0.710900	0.563900	0.323500
O731	O73	0.373900	0.544200	0.510200
O741	O74	0.911600	0.198100	0.735300
O751	O75	0.531300	0.388900	0.226500
O761	O76	0.198700	0.915000	0.922600
O771	O77	0.626100	0.455800	0.489800
O781	O78	0.646700	0.111100	0.273500
O791	O79	0.456100	0.511000	0.724600
O801	O80	0.170600	0.739800	0.039200
O811	O81	0.980200	0.375900	0.672300
O821	O82	0.471600	0.875900	0.172300
O831	O83	0.275300	0.931500	0.540900
O841	O84	0.884100	0.489800	0.044200
O851	O85	0.356100	0.172300	0.624100
O861	O86	0.543900	0.489000	0.275400
O871	O87	0.849600	0.109000	0.958200
O881	O88	0.643900	0.827700	0.375900
O891	O89	0.180700	0.275400	0.011000
O901	O90	0.175500	0.355500	0.852100
O911	O91	0.468700	0.611100	0.773500
O921	O92	0.071700	0.044200	0.010200
O931	O93	0.027600	0.147900	0.855500
O941	O94	0.345000	0.301900	0.764700
O951	O95	0.449600	0.760200	0.460800
O961	O96	0.536300	0.585000	0.577400
