data_TIVFEK_clean_PM
_symmetry_space_group_name_H-M	'P1'
_cell_length_a	10.060100
_cell_length_b	14.185100
_cell_length_c	10.253700
_cell_angle_alpha	92.262000
_cell_angle_beta	90.000000
_cell_angle_gamma	90.000000
_symmetry_Int_Tables_number 1

loop_
_symmetry_equiv_pos_as_xyz
'x,y,z'

loop_
_atom_site_label
_atom_site_type_symbol
_atom_site_fract_x
_atom_site_fract_y
_atom_site_fract_z
Cu11	Cu1	0.249100	0.285270	0.925670
Cu21	Cu2	0.231570	0.788660	0.931770
Cu31	Cu3	0.877740	0.770660	0.701520
Cu41	Cu4	0.406810	0.781580	0.656300
Cu51	Cu5	0.281240	0.664300	0.408190
Cu61	Cu6	0.264590	0.876120	0.440170
Cu71	Cu7	0.257200	0.287360	0.437990
Cu81	Cu8	0.750900	0.285270	0.425670
Cu91	Cu9	0.768430	0.788660	0.431770
Cu101	Cu10	0.122260	0.770660	0.201520
Cu111	Cu11	0.593190	0.781580	0.156300
Cu121	Cu12	0.718760	0.664300	0.908190
Cu131	Cu13	0.735410	0.876120	0.940170
Cu141	Cu14	0.742800	0.287360	0.937990
H11	H1	0.359000	0.495000	0.769000
H21	H2	0.181000	0.521000	0.621000
H31	H3	0.003000	0.454000	0.712000
H41	H4	0.065000	0.505000	0.969000
H51	H5	0.131000	0.094000	0.082000
H61	H6	0.314000	0.054000	0.254000
H71	H7	0.501000	0.095000	0.135000
H81	H8	0.433000	0.079000	0.891000
H91	H9	0.025000	0.845000	0.022000
H101	H10	0.926000	0.764000	0.936000
H111	H11	0.411000	0.870400	0.858000
H121	H12	0.474000	0.774000	0.422000
H131	H13	0.641000	0.495000	0.269000
H141	H14	0.819000	0.521000	0.121000
H151	H15	0.997000	0.454000	0.212000
H161	H16	0.935000	0.505000	0.469000
H171	H17	0.869000	0.094000	0.582000
H181	H18	0.686000	0.054000	0.754000
H191	H19	0.499000	0.095000	0.635000
H201	H20	0.567000	0.079000	0.391000
H211	H21	0.975000	0.845000	0.522000
H221	H22	0.074000	0.764000	0.436000
H231	H23	0.589000	0.870400	0.358000
H241	H24	0.526000	0.774000	0.922000
C11	C1	0.274600	0.462000	0.768500
C21	C2	0.176000	0.531800	0.706400
C31	C3	0.044300	0.502000	0.765900
C41	C4	0.080300	0.459700	0.897100
C51	C5	0.284500	0.371700	0.683400
C61	C6	0.218500	0.632100	0.742800
C71	C7	0.942000	0.581300	0.778200
C81	C8	0.001600	0.369000	0.919300
C91	C9	0.219000	0.117000	0.098000
C101	C10	0.309700	0.041900	0.158800
C111	C11	0.445800	0.060900	0.091200
C121	C12	0.409700	0.110800	0.967200
C131	C13	0.226100	0.210700	0.177800
C141	C14	0.258200	0.943000	0.124700
C151	C15	0.529900	0.974100	0.067500
C161	C16	0.491300	0.201000	0.950300
C171	C17	0.725400	0.462000	0.268500
C181	C18	0.824000	0.531800	0.206400
C191	C19	0.955700	0.502000	0.265900
C201	C20	0.919700	0.459700	0.397100
C211	C21	0.715500	0.371700	0.183400
C221	C22	0.781500	0.632100	0.242800
C231	C23	0.058000	0.581300	0.278200
C241	C24	0.998400	0.369000	0.419300
C251	C25	0.781000	0.117000	0.598000
C261	C26	0.690300	0.041900	0.658800
C271	C27	0.554200	0.060900	0.591200
C281	C28	0.590300	0.110800	0.467200
C291	C29	0.773900	0.210700	0.677800
C301	C30	0.741800	0.943000	0.624700
C311	C31	0.470100	0.974100	0.567500
C321	C32	0.508700	0.201000	0.450300
Cl11	Cl1	0.106020	0.970200	0.522430
Cl21	Cl2	0.625530	0.690280	0.652560
Cl31	Cl3	0.893980	0.970200	0.022430
Cl41	Cl4	0.374470	0.690280	0.152560
O11	O1	0.222200	0.443900	0.895200
O21	O2	0.243300	0.295400	0.728300
O31	O3	0.326600	0.380870	0.568600
O41	O4	0.277600	0.675350	0.652300
O51	O5	0.197600	0.662700	0.856300
O61	O6	0.953800	0.644520	0.696300
O71	O7	0.854000	0.574370	0.864600
O81	O8	0.878800	0.379900	0.918800
O91	O9	0.059500	0.292600	0.939200
O101	O10	0.067300	0.783300	0.024300
O111	O11	0.845600	0.768700	0.887500
O121	O12	0.269200	0.128570	0.968900
O131	O13	0.258600	0.284600	0.123000
O141	O14	0.199700	0.203160	0.297200
O151	O15	0.211800	0.895950	0.215200
O161	O16	0.267900	0.915920	0.007200
O171	O17	0.530400	0.915470	0.156400
O181	O18	0.594600	0.966890	0.961700
O191	O19	0.613800	0.191000	0.972100
O201	O20	0.439200	0.274800	0.911800
O211	O21	0.393500	0.806030	0.839100
O221	O22	0.391200	0.768920	0.467600
O231	O23	0.777800	0.443900	0.395200
O241	O24	0.756700	0.295400	0.228300
O251	O25	0.673400	0.380870	0.068600
O261	O26	0.722400	0.675350	0.152300
O271	O27	0.802400	0.662700	0.356300
O281	O28	0.046200	0.644520	0.196300
O291	O29	0.146000	0.574370	0.364600
O301	O30	0.121200	0.379900	0.418800
O311	O31	0.940500	0.292600	0.439200
O321	O32	0.932700	0.783300	0.524300
O331	O33	0.154400	0.768700	0.387500
O341	O34	0.730800	0.128570	0.468900
O351	O35	0.741400	0.284600	0.623000
O361	O36	0.800300	0.203160	0.797200
O371	O37	0.788200	0.895950	0.715200
O381	O38	0.732100	0.915920	0.507200
O391	O39	0.469600	0.915470	0.656400
O401	O40	0.405400	0.966890	0.461700
O411	O41	0.386200	0.191000	0.472100
O421	O42	0.560800	0.274800	0.411800
O431	O43	0.606500	0.806030	0.339100
O441	O44	0.608800	0.768920	0.967600
