data_TIVFAG_clean_PM
_symmetry_space_group_name_H-M	'P1'
_cell_length_a	10.038800
_cell_length_b	14.229100
_cell_length_c	10.341300
_cell_angle_alpha	92.449000
_cell_angle_beta	90.000000
_cell_angle_gamma	90.000000
_symmetry_Int_Tables_number 1

loop_
_symmetry_equiv_pos_as_xyz
'x,y,z'

loop_
_atom_site_label
_atom_site_type_symbol
_atom_site_fract_x
_atom_site_fract_y
_atom_site_fract_z
Cu11	Cu1	0.246990	0.282480	0.924500
Cu21	Cu2	0.232900	0.786860	0.928600
Cu31	Cu3	0.886630	0.773530	0.705320
Cu41	Cu4	0.409030	0.780410	0.657670
Cu51	Cu5	0.277010	0.667250	0.409750
Cu61	Cu6	0.265340	0.876980	0.439440
Cu71	Cu7	0.257720	0.286170	0.435850
Cu81	Cu8	0.753010	0.282480	0.424500
Cu91	Cu9	0.767100	0.786860	0.428600
Cu101	Cu10	0.113370	0.773530	0.205320
Cu111	Cu11	0.590970	0.780410	0.157670
Cu121	Cu12	0.722990	0.667250	0.909750
Cu131	Cu13	0.734660	0.876980	0.939440
Cu141	Cu14	0.742280	0.286170	0.935850
H11	H1	0.367800	0.486000	0.777600
H21	H2	0.175900	0.517800	0.611500
H31	H3	0.004300	0.451300	0.710300
H41	H4	0.062700	0.504400	0.969100
H51	H5	0.123000	0.092900	0.094400
H61	H6	0.314400	0.052600	0.251900
H71	H7	0.495100	0.105800	0.148300
H81	H8	0.427300	0.064700	0.890900
H91	H9	0.034000	0.829000	0.028000
H101	H10	0.925000	0.750000	0.934000
H111	H11	0.407000	0.871000	0.853000
H121	H12	0.480000	0.777000	0.446000
H131	H13	0.632200	0.486000	0.277600
H141	H14	0.824100	0.517800	0.111500
H151	H15	0.995700	0.451300	0.210300
H161	H16	0.937300	0.504400	0.469100
H171	H17	0.877000	0.092900	0.594400
H181	H18	0.685600	0.052600	0.751900
H191	H19	0.504900	0.105800	0.648300
H201	H20	0.572700	0.064700	0.390900
H211	H21	0.966000	0.829000	0.528000
H221	H22	0.075000	0.750000	0.434000
H231	H23	0.593000	0.871000	0.353000
H241	H24	0.520000	0.777000	0.946000
C11	C1	0.276800	0.457800	0.769200
C21	C2	0.178700	0.528400	0.707700
C31	C3	0.045800	0.501500	0.767700
C41	C4	0.082800	0.457600	0.896900
C51	C5	0.281200	0.367300	0.684600
C61	C6	0.224400	0.628200	0.743300
C71	C7	0.947200	0.581600	0.783900
C81	C8	0.001200	0.368100	0.917900
C91	C9	0.217300	0.115600	0.097200
C101	C10	0.307900	0.041500	0.156000
C111	C11	0.444600	0.060000	0.091000
C121	C12	0.407900	0.109400	0.965700
C131	C13	0.226500	0.209900	0.175800
C141	C14	0.255700	0.942000	0.123200
C151	C15	0.530200	0.973800	0.067900
C161	C16	0.489700	0.198000	0.948200
C171	C17	0.723200	0.457800	0.269200
C181	C18	0.821300	0.528400	0.207700
C191	C19	0.954200	0.501500	0.267700
C201	C20	0.917200	0.457600	0.396900
C211	C21	0.718800	0.367300	0.184600
C221	C22	0.775600	0.628200	0.243300
C231	C23	0.052800	0.581600	0.283900
C241	C24	0.998800	0.368100	0.417900
C251	C25	0.782700	0.115600	0.597200
C261	C26	0.692100	0.041500	0.656000
C271	C27	0.555400	0.060000	0.591000
C281	C28	0.592100	0.109400	0.465700
C291	C29	0.773500	0.209900	0.675800
C301	C30	0.744300	0.942000	0.623200
C311	C31	0.469800	0.973800	0.567900
C321	C32	0.510300	0.198000	0.448200
Cl11	Cl1	0.103990	0.974080	0.511130
Cl21	Cl2	0.625010	0.690120	0.656610
Cl31	Cl3	0.896010	0.974080	0.011130
Cl41	Cl4	0.374990	0.690120	0.156610
O11	O1	0.222700	0.440700	0.894800
O21	O2	0.239500	0.292000	0.729900
O31	O3	0.323200	0.375900	0.570200
O41	O4	0.280000	0.672500	0.653400
O51	O5	0.207900	0.658000	0.857100
O61	O6	0.959200	0.644900	0.703200
O71	O7	0.861900	0.577100	0.872200
O81	O8	0.877900	0.379400	0.914000
O91	O9	0.058100	0.291200	0.939800
O101	O10	0.072800	0.767500	0.024500
O111	O11	0.848000	0.772500	0.889900
O121	O12	0.266400	0.126600	0.968000
O131	O13	0.258200	0.283200	0.119600
O141	O14	0.200600	0.203600	0.294000
O151	O15	0.208200	0.896400	0.213200
O161	O16	0.265000	0.914400	0.005900
O171	O17	0.532100	0.915800	0.157000
O181	O18	0.593900	0.966200	0.962200
O191	O19	0.613100	0.189400	0.969800
O201	O20	0.436500	0.271000	0.908500
O211	O21	0.395900	0.805200	0.840000
O221	O22	0.389400	0.770100	0.471100
O231	O23	0.777300	0.440700	0.394800
O241	O24	0.760500	0.292000	0.229900
O251	O25	0.676800	0.375900	0.070200
O261	O26	0.720000	0.672500	0.153400
O271	O27	0.792100	0.658000	0.357100
O281	O28	0.040800	0.644900	0.203200
O291	O29	0.138100	0.577100	0.372200
O301	O30	0.122100	0.379400	0.414000
O311	O31	0.941900	0.291200	0.439800
O321	O32	0.927200	0.767500	0.524500
O331	O33	0.152000	0.772500	0.389900
O341	O34	0.733600	0.126600	0.468000
O351	O35	0.741800	0.283200	0.619600
O361	O36	0.799400	0.203600	0.794000
O371	O37	0.791800	0.896400	0.713200
O381	O38	0.735000	0.914400	0.505900
O391	O39	0.467900	0.915800	0.657000
O401	O40	0.406100	0.966200	0.462200
O411	O41	0.386900	0.189400	0.469800
O421	O42	0.563500	0.271000	0.408500
O431	O43	0.604100	0.805200	0.340000
O441	O44	0.610600	0.770100	0.971100
