data_TIVFIO_clean_PM
_symmetry_space_group_name_H-M	'P1'
_cell_length_a	10.043000
_cell_length_b	14.119000
_cell_length_c	10.210000
_cell_angle_alpha	92.160000
_cell_angle_beta	90.000000
_cell_angle_gamma	90.000000
_symmetry_Int_Tables_number 1

loop_
_symmetry_equiv_pos_as_xyz
'x,y,z'

loop_
_atom_site_label
_atom_site_type_symbol
_atom_site_fract_x
_atom_site_fract_y
_atom_site_fract_z
Cu11	Cu1	0.248730	0.285770	0.925510
Cu21	Cu2	0.232500	0.788890	0.933420
Cu31	Cu3	0.873500	0.769460	0.699480
Cu41	Cu4	0.405900	0.782320	0.654790
Cu51	Cu5	0.281750	0.663880	0.406820
Cu61	Cu6	0.263490	0.876090	0.442150
Cu71	Cu7	0.257370	0.287810	0.438130
Cu81	Cu8	0.751270	0.285770	0.425510
Cu91	Cu9	0.767500	0.788890	0.433420
Cu101	Cu10	0.126500	0.769460	0.199480
Cu111	Cu11	0.594100	0.782320	0.154790
Cu121	Cu12	0.718250	0.663880	0.906820
Cu131	Cu13	0.736510	0.876090	0.942150
Cu141	Cu14	0.742630	0.287810	0.938130
H11	H1	0.364100	0.494000	0.777400
H21	H2	0.174900	0.521700	0.607700
H31	H3	0.005500	0.450400	0.707200
H41	H4	0.058700	0.506900	0.969700
H51	H5	0.125400	0.093500	0.093900
H61	H6	0.317100	0.053700	0.256100
H71	H7	0.496200	0.105900	0.150100
H81	H8	0.428800	0.068200	0.889800
H91	H9	0.025000	0.848000	0.019000
H101	H10	0.927000	0.754000	0.929000
H111	H11	0.404000	0.872800	0.849000
H121	H12	0.473000	0.777000	0.418000
H131	H13	0.635900	0.494000	0.277400
H141	H14	0.825100	0.521700	0.107700
H151	H15	0.994500	0.450400	0.207200
H161	H16	0.941300	0.506900	0.469700
H171	H17	0.874600	0.093500	0.593900
H181	H18	0.682900	0.053700	0.756100
H191	H19	0.503800	0.105900	0.650100
H201	H20	0.571200	0.068200	0.389800
H211	H21	0.975000	0.848000	0.519000
H221	H22	0.073000	0.754000	0.429000
H231	H23	0.596000	0.872800	0.349000
H241	H24	0.527000	0.777000	0.918000
C11	C1	0.274400	0.463700	0.768200
C21	C2	0.176300	0.532400	0.705100
C31	C3	0.043500	0.502400	0.764900
C41	C4	0.080600	0.459700	0.897500
C51	C5	0.284400	0.372400	0.682500
C61	C6	0.218100	0.632800	0.741200
C71	C7	0.941200	0.581000	0.775800
C81	C8	0.002400	0.369200	0.918800
C91	C9	0.219200	0.117100	0.098200
C101	C10	0.309900	0.042400	0.159100
C111	C11	0.444400	0.060900	0.091800
C121	C12	0.409400	0.112600	0.966000
C131	C13	0.225200	0.210700	0.178500
C141	C14	0.258200	0.943600	0.126400
C151	C15	0.529800	0.972800	0.066300
C161	C16	0.491700	0.201700	0.948800
C171	C17	0.725600	0.463700	0.268200
C181	C18	0.823700	0.532400	0.205100
C191	C19	0.956500	0.502400	0.264900
C201	C20	0.919400	0.459700	0.397500
C211	C21	0.715600	0.372400	0.182500
C221	C22	0.781900	0.632800	0.241200
C231	C23	0.058800	0.581000	0.275800
C241	C24	0.997600	0.369200	0.418800
C251	C25	0.780800	0.117100	0.598200
C261	C26	0.690100	0.042400	0.659100
C271	C27	0.555600	0.060900	0.591800
C281	C28	0.590600	0.112600	0.466000
C291	C29	0.774800	0.210700	0.678500
C301	C30	0.741800	0.943600	0.626400
C311	C31	0.470200	0.972800	0.566300
C321	C32	0.508300	0.201700	0.448800
Cl11	Cl1	0.111340	0.962550	0.547150
Cl21	Cl2	0.627960	0.691170	0.649130
Cl31	Cl3	0.888660	0.962550	0.047150
Cl41	Cl4	0.372040	0.691170	0.149130
O11	O1	0.221200	0.445000	0.895400
O21	O2	0.244100	0.296300	0.727700
O31	O3	0.327200	0.381880	0.567400
O41	O4	0.278400	0.675500	0.651800
O51	O5	0.194700	0.664210	0.855500
O61	O6	0.953500	0.644980	0.694000
O71	O7	0.853600	0.574040	0.862200
O81	O8	0.879100	0.380450	0.918900
O91	O9	0.058700	0.293000	0.939200
O101	O10	0.067100	0.786830	0.024300
O111	O11	0.845500	0.768090	0.887000
O121	O12	0.269500	0.129380	0.967800
O131	O13	0.257800	0.284700	0.123400
O141	O14	0.198800	0.203650	0.298500
O151	O15	0.210600	0.896200	0.216400
O161	O16	0.267900	0.916340	0.006700
O171	O17	0.527100	0.914230	0.155100
O181	O18	0.595400	0.967320	0.961500
O191	O19	0.613300	0.191600	0.971800
O201	O20	0.438900	0.275690	0.912200
O211	O21	0.392800	0.806480	0.838700
O221	O22	0.391400	0.768160	0.465900
O231	O23	0.778800	0.445000	0.395400
O241	O24	0.755900	0.296300	0.227700
O251	O25	0.672800	0.381880	0.067400
O261	O26	0.721600	0.675500	0.151800
O271	O27	0.805300	0.664210	0.355500
O281	O28	0.046500	0.644980	0.194000
O291	O29	0.146400	0.574040	0.362200
O301	O30	0.120900	0.380450	0.418900
O311	O31	0.941300	0.293000	0.439200
O321	O32	0.932900	0.786830	0.524300
O331	O33	0.154500	0.768090	0.387000
O341	O34	0.730500	0.129380	0.467800
O351	O35	0.742200	0.284700	0.623400
O361	O36	0.801200	0.203650	0.798500
O371	O37	0.789400	0.896200	0.716400
O381	O38	0.732100	0.916340	0.506700
O391	O39	0.472900	0.914230	0.655100
O401	O40	0.404600	0.967320	0.461500
O411	O41	0.386700	0.191600	0.471800
O421	O42	0.561100	0.275690	0.412200
O431	O43	0.607200	0.806480	0.338700
O441	O44	0.608600	0.768160	0.965900
