data_TIVXOM_charged_PM
_symmetry_space_group_name_H-M	'P1'
_cell_length_a	9.819500
_cell_length_b	17.698400
_cell_length_c	17.698400
_cell_angle_alpha	63.340000
_cell_angle_beta	79.342300
_cell_angle_gamma	100.658000
_symmetry_Int_Tables_number 1

loop_
_symmetry_equiv_pos_as_xyz
'x,y,z'

loop_
_atom_site_label
_atom_site_type_symbol
_atom_site_fract_x
_atom_site_fract_y
_atom_site_fract_z
Ag11	Ag1	0.550550	0.918190	0.551720
Ag21	Ag2	0.102270	0.551720	0.530090
Ag31	Ag3	0.632360	0.530090	0.918190
Ag41	Ag4	0.449450	0.081810	0.448280
Ag51	Ag5	0.897730	0.448280	0.469910
Ag61	Ag6	0.367640	0.469910	0.081810
H11	H1	0.103300	0.645100	0.693800
H21	H2	0.293100	0.760700	0.560100
H31	H3	0.420600	0.888900	0.723200
H41	H4	0.260400	0.853700	0.785400
H51	H5	0.368000	0.798300	0.812600
H61	H6	0.207600	0.409100	0.960200
H71	H7	0.091200	0.496400	0.856700
H81	H8	0.087600	0.696900	0.871900
H91	H9	0.994000	0.634000	0.847800
H101	H10	0.299900	0.631900	0.027200
H111	H11	0.310000	0.705900	0.932400
H121	H12	0.160600	0.657700	0.008000
H131	H13	0.797100	0.693800	0.661100
H141	H14	0.853200	0.560100	0.679200
H151	H15	0.143800	0.723200	0.387900
H161	H16	0.045800	0.785400	0.360900
H171	H17	0.180600	0.812600	0.389100
H181	H18	0.167800	0.960200	0.630700
H191	H19	0.947900	0.856700	0.646900
H201	H20	0.959500	0.871900	0.431200
H211	H21	0.841800	0.847800	0.518200
H221	H22	0.327100	0.027200	0.340900
H231	H23	0.242400	0.932400	0.361700
H241	H24	0.168600	0.008000	0.334300
H251	H25	0.458200	0.661100	0.645100
H261	H26	0.532400	0.679200	0.760700
H271	H27	0.531700	0.387900	0.888900
H281	H28	0.406700	0.360900	0.853700
H291	H29	0.569700	0.389100	0.798300
H301	H30	0.798500	0.630700	0.409100
H311	H31	0.594800	0.646900	0.496400
H321	H32	0.390700	0.431200	0.696900
H331	H33	0.360000	0.518200	0.634000
H341	H34	0.668000	0.340900	0.631900
H351	H35	0.604100	0.361700	0.705900
H361	H36	0.502900	0.334300	0.657700
H371	H37	0.896700	0.354900	0.306200
H381	H38	0.706900	0.239300	0.439900
H391	H39	0.579400	0.111100	0.276800
H401	H40	0.739600	0.146300	0.214600
H411	H41	0.632000	0.201700	0.187400
H421	H42	0.792400	0.590900	0.039800
H431	H43	0.908800	0.503600	0.143300
H441	H44	0.912400	0.303100	0.128100
H451	H45	0.006000	0.366000	0.152200
H461	H46	0.700100	0.368100	0.972800
H471	H47	0.690000	0.294100	0.067600
H481	H48	0.839400	0.342300	0.992000
H491	H49	0.202900	0.306200	0.338900
H501	H50	0.146800	0.439900	0.320800
H511	H51	0.856200	0.276800	0.612100
H521	H52	0.954200	0.214600	0.639100
H531	H53	0.819400	0.187400	0.610900
H541	H54	0.832200	0.039800	0.369300
H551	H55	0.052100	0.143300	0.353100
H561	H56	0.040500	0.128100	0.568800
H571	H57	0.158200	0.152200	0.481800
H581	H58	0.672900	0.972800	0.659100
H591	H59	0.757600	0.067600	0.638300
H601	H60	0.831400	0.992000	0.665700
H611	H61	0.541800	0.338900	0.354900
H621	H62	0.467600	0.320800	0.239300
H631	H63	0.468300	0.612100	0.111100
H641	H64	0.593300	0.639100	0.146300
H651	H65	0.430300	0.610900	0.201700
H661	H66	0.201500	0.369300	0.590900
H671	H67	0.405200	0.353100	0.503600
H681	H68	0.609300	0.568800	0.303100
H691	H69	0.640000	0.481800	0.366000
H701	H70	0.332000	0.659100	0.368100
H711	H71	0.395900	0.638300	0.294100
H721	H72	0.497100	0.665700	0.342300
C11	C1	0.170200	0.693300	0.688400
C21	C2	0.275100	0.757200	0.615200
C31	C3	0.292500	0.789200	0.716600
C41	C4	0.339600	0.836800	0.763700
C51	C5	0.199000	0.464200	0.949600
C61	C6	0.135100	0.511800	0.892200
C71	C7	0.217000	0.582800	0.957200
C81	C8	0.092100	0.659500	0.845400
C91	C9	0.249700	0.650400	0.983500
C101	C10	0.858600	0.688400	0.618300
C111	C11	0.890300	0.615200	0.627600
C121	C12	0.009100	0.716600	0.494200
C131	C13	0.103300	0.763700	0.399500
C141	C14	0.148600	0.949600	0.586200
C151	C15	0.027300	0.892200	0.596000
C161	C16	0.174200	0.957200	0.460000
C171	C17	0.937500	0.845400	0.495100
C181	C18	0.233200	0.983500	0.366100
C191	C19	0.476900	0.618300	0.693300
C201	C20	0.517900	0.627600	0.757200
C211	C21	0.503300	0.494200	0.789200
C221	C22	0.502800	0.399500	0.836800
C231	C23	0.734800	0.586200	0.464200
C241	C24	0.623300	0.596000	0.511800
C251	C25	0.634200	0.460000	0.582800
C261	C26	0.432600	0.495100	0.659500
C271	C27	0.599300	0.366100	0.650400
C281	C28	0.829800	0.306700	0.311600
C291	C29	0.724900	0.242800	0.384800
C301	C30	0.707500	0.210800	0.283400
C311	C31	0.660400	0.163200	0.236300
C321	C32	0.801000	0.535800	0.050400
C331	C33	0.864900	0.488200	0.107800
C341	C34	0.783000	0.417200	0.042800
C351	C35	0.907900	0.340500	0.154600
C361	C36	0.750300	0.349600	0.016500
C371	C37	0.141400	0.311600	0.381700
C381	C38	0.109700	0.384800	0.372400
C391	C39	0.990900	0.283400	0.505800
C401	C40	0.896700	0.236300	0.600500
C411	C41	0.851400	0.050400	0.413800
C421	C42	0.972700	0.107800	0.404000
C431	C43	0.825800	0.042800	0.540000
C441	C44	0.062500	0.154600	0.504900
C451	C45	0.766800	0.016500	0.633900
C461	C46	0.523100	0.381700	0.306700
C471	C47	0.482100	0.372400	0.242800
C481	C48	0.496700	0.505800	0.210800
C491	C49	0.497200	0.600500	0.163200
C501	C50	0.265200	0.413800	0.535800
C511	C51	0.376700	0.404000	0.488200
C521	C52	0.365800	0.540000	0.417200
C531	C53	0.567400	0.504900	0.340500
C541	C54	0.400700	0.633900	0.349600
N11	N1	0.180780	0.713100	0.754210
N21	N2	0.352040	0.816310	0.632670
N31	N3	0.249160	0.507980	0.989850
N41	N4	0.148120	0.588350	0.896790
N51	N5	0.934990	0.754210	0.532690
N61	N6	0.984710	0.632670	0.551020
N71	N7	0.239010	0.989850	0.502170
N81	N8	0.044910	0.896790	0.514860
N91	N9	0.467680	0.532690	0.713100
N101	N10	0.535730	0.551020	0.816310
N111	N11	0.741180	0.502170	0.507980
N121	N12	0.559770	0.514860	0.588350
N131	N13	0.819220	0.286900	0.245790
N141	N14	0.647960	0.183690	0.367330
N151	N15	0.750840	0.492020	0.010150
N161	N16	0.851880	0.411650	0.103210
N171	N17	0.065010	0.245790	0.467310
N181	N18	0.015290	0.367330	0.448980
N191	N19	0.760990	0.010150	0.497830
N201	N20	0.955090	0.103210	0.485140
N211	N21	0.532320	0.467310	0.286900
N221	N22	0.464270	0.448980	0.183690
N231	N23	0.258820	0.497830	0.492020
N241	N24	0.440230	0.485140	0.411650
C551	C55	0.691700	0.873500	0.302800
S11	S1	0.575050	0.849840	0.398320
O11	O1	0.556000	0.929300	0.390600
O21	O2	0.453600	0.783500	0.415600
O31	O3	0.644300	0.812700	0.462800
F11	F1	0.681200	0.828500	0.257200
F21	F2	0.836500	0.923800	0.294100
F31	F3	0.664600	0.951500	0.224800
C561	C56	0.994500	0.302800	0.823700
S21	S2	0.973370	0.398320	0.751840
O41	O4	0.946600	0.390600	0.680100
O51	O5	0.869200	0.415600	0.800900
O61	O6	0.107100	0.462800	0.724500
F41	F4	0.938400	0.257200	0.914300
F51	F5	0.130600	0.294100	0.782100
F61	F6	0.889400	0.224800	0.823700
C571	C57	0.818200	0.823700	0.873500
S31	S3	0.725210	0.751840	0.849840
O71	O7	0.626700	0.680100	0.929300
O81	O8	0.670100	0.800900	0.783500
O91	O9	0.831600	0.724500	0.812700
F71	F7	0.852700	0.914300	0.828500
F81	F8	0.912700	0.782100	0.923800
F91	F9	0.713100	0.823700	0.951500
C581	C58	0.308300	0.126500	0.697200
S41	S4	0.424950	0.150160	0.601680
O101	O10	0.444000	0.070700	0.609400
O111	O11	0.546400	0.216500	0.584400
O121	O12	0.355700	0.187300	0.537200
F101	F10	0.318800	0.171500	0.742800
F111	F11	0.163500	0.076200	0.705900
F121	F12	0.335400	0.048500	0.775200
C591	C59	0.005500	0.697200	0.176300
S51	S5	0.026630	0.601680	0.248160
O131	O13	0.053400	0.609400	0.319900
O141	O14	0.130800	0.584400	0.199100
O151	O15	0.892900	0.537200	0.275500
F131	F13	0.061600	0.742800	0.085700
F141	F14	0.869400	0.705900	0.217900
F151	F15	0.110600	0.775200	0.176300
C601	C60	0.181800	0.176300	0.126500
S61	S6	0.274790	0.248160	0.150160
O161	O16	0.373300	0.319900	0.070700
O171	O17	0.329900	0.199100	0.216500
O181	O18	0.168400	0.275500	0.187300
F161	F16	0.147300	0.085700	0.171500
F171	F17	0.087300	0.217900	0.076200
F181	F18	0.286900	0.176300	0.048500
