data_TIXMIX_clean_PM
_symmetry_space_group_name_H-M	'P1'
_cell_length_a	14.113000
_cell_length_b	14.590000
_cell_length_c	10.469000
_cell_angle_alpha	90.000000
_cell_angle_beta	90.000000
_cell_angle_gamma	90.000000
_symmetry_Int_Tables_number 1

loop_
_symmetry_equiv_pos_as_xyz
'x,y,z'

loop_
_atom_site_label
_atom_site_type_symbol
_atom_site_fract_x
_atom_site_fract_y
_atom_site_fract_z
Co11	Co1	0.396920	0.169700	0.182640
Co21	Co2	0.113620	0.151520	0.119210
Zn11	Zn1	0.253610	0.038690	0.649910
Co31	Co3	0.246390	0.538690	0.149910
P11	P1	0.282240	0.138450	0.926400
H11	H1	0.264000	0.228000	0.904000
P21	P2	0.615660	0.131790	0.169600
H21	H2	0.682000	0.140000	0.275000
P31	P3	0.223500	0.089820	0.364900
H31	H3	0.234000	0.991700	0.344000
P41	P4	0.399000	0.384890	0.121300
H41	H4	0.342000	0.361000	0.016000
O11	O1	0.372800	0.134500	0.006000
O21	O2	0.303000	0.092800	0.800500
O31	O3	0.198000	0.095800	0.993400
O41	O4	0.135400	0.122800	0.297200
O51	O5	0.618900	0.217500	0.090800
O61	O6	0.518600	0.113800	0.230200
O71	O7	0.646900	0.048000	0.092500
O81	O8	0.218900	0.113400	0.506200
O91	O9	0.314400	0.115000	0.304800
O101	O10	0.355000	0.463900	0.195600
O111	O11	0.495700	0.410400	0.070200
O121	O12	0.403100	0.300400	0.203300
Zn21	Zn2	0.613620	0.348480	0.119210
Co41	Co4	0.603080	0.830300	0.682640
Co51	Co5	0.886380	0.848480	0.619210
Zn31	Zn3	0.746390	0.961310	0.149910
Co61	Co6	0.753610	0.461310	0.649910
P51	P5	0.717760	0.861550	0.426400
H51	H5	0.736000	0.772000	0.404000
P61	P6	0.384340	0.868210	0.669600
H61	H6	0.318000	0.860000	0.775000
P71	P7	0.776500	0.910180	0.864900
H71	H7	0.766000	0.008300	0.844000
P81	P8	0.601000	0.615110	0.621300
H81	H8	0.658000	0.639000	0.516000
O131	O13	0.627200	0.865500	0.506000
O141	O14	0.697000	0.907200	0.300500
O151	O15	0.802000	0.904200	0.493400
O161	O16	0.864600	0.877200	0.797200
O171	O17	0.381100	0.782500	0.590800
O181	O18	0.481400	0.886200	0.730200
O191	O19	0.353100	0.952000	0.592500
O201	O20	0.781100	0.886600	0.006200
O211	O21	0.685600	0.885000	0.804800
O221	O22	0.645000	0.536100	0.695600
O231	O23	0.504300	0.589600	0.570200
O241	O24	0.596900	0.699600	0.703300
Zn41	Zn4	0.386380	0.651520	0.619210
Co71	Co7	0.896920	0.330300	0.182640
P91	P9	0.782240	0.361550	0.926400
H91	H9	0.764000	0.272000	0.904000
P101	P10	0.115660	0.368210	0.169600
H101	H10	0.182000	0.360000	0.275000
P111	P11	0.723500	0.410180	0.364900
H111	H11	0.734000	0.508300	0.344000
P121	P12	0.899000	0.115110	0.121300
H121	H12	0.842000	0.139000	0.016000
O251	O25	0.872800	0.365500	0.006000
O261	O26	0.803000	0.407200	0.800500
O271	O27	0.698000	0.404200	0.993400
O281	O28	0.635400	0.377200	0.297200
O291	O29	0.118900	0.282500	0.090800
O301	O30	0.018600	0.386200	0.230200
O311	O31	0.146900	0.452000	0.092500
O321	O32	0.718900	0.386600	0.506200
O331	O33	0.814400	0.385000	0.304800
O341	O34	0.855000	0.036100	0.195600
O351	O35	0.995700	0.089600	0.070200
O361	O36	0.903100	0.199600	0.203300
Co81	Co8	0.103080	0.669700	0.682640
P131	P13	0.217760	0.638450	0.426400
H131	H13	0.236000	0.728000	0.404000
P141	P14	0.884340	0.631790	0.669600
H141	H14	0.818000	0.640000	0.775000
P151	P15	0.276500	0.589820	0.864900
H151	H15	0.266000	0.491700	0.844000
P161	P16	0.101000	0.884890	0.621300
H161	H16	0.158000	0.861000	0.516000
O371	O37	0.127200	0.634500	0.506000
O381	O38	0.197000	0.592800	0.300500
O391	O39	0.302000	0.595800	0.493400
O401	O40	0.364600	0.622800	0.797200
O411	O41	0.881100	0.717500	0.590800
O421	O42	0.981400	0.613800	0.730200
O431	O43	0.853100	0.548000	0.592500
O441	O44	0.281100	0.613400	0.006200
O451	O45	0.185600	0.615000	0.804800
O461	O46	0.145000	0.963900	0.695600
O471	O47	0.004300	0.910400	0.570200
O481	O48	0.096900	0.800400	0.703300
