data_TIXVON_clean_PM
_symmetry_space_group_name_H-M	'P1'
_cell_length_a	11.374800
_cell_length_b	23.711100
_cell_length_c	22.084200
_cell_angle_alpha	90.000000
_cell_angle_beta	90.000000
_cell_angle_gamma	90.000000
_symmetry_Int_Tables_number 1

loop_
_symmetry_equiv_pos_as_xyz
'x,y,z'

loop_
_atom_site_label
_atom_site_type_symbol
_atom_site_fract_x
_atom_site_fract_y
_atom_site_fract_z
Mg11	Mg1	0.711100	0.940580	0.002430
Mg21	Mg2	0.288900	0.059420	0.997570
Mg31	Mg3	0.000000	0.000000	0.000000
Mg41	Mg4	0.288900	0.440580	0.497570
Mg51	Mg5	0.788900	0.559420	0.002430
Mg61	Mg6	0.211100	0.059420	0.497570
Mg71	Mg7	0.000000	0.500000	0.500000
Mg81	Mg8	0.788900	0.940580	0.502430
Mg91	Mg9	0.211100	0.440580	0.997570
Mg101	Mg10	0.711100	0.559420	0.502430
Mg111	Mg11	0.500000	0.000000	0.500000
Mg121	Mg12	0.500000	0.500000	0.000000
H11	H1	0.114800	0.616400	0.369800
H21	H2	0.692300	0.696900	0.884700
H31	H3	0.863100	0.124100	0.749500
H41	H4	0.938900	0.433600	0.324800
H51	H5	0.096300	0.583300	0.126300
H61	H6	0.061100	0.933600	0.175200
H71	H7	0.898600	0.171800	0.329400
H81	H8	0.624500	0.767800	0.821900
H91	H9	0.318600	0.685300	0.804700
H101	H10	0.061100	0.566400	0.675200
H111	H11	0.907300	0.755100	0.204400
H121	H12	0.181400	0.685300	0.304700
H131	H13	0.407300	0.244900	0.295600
H141	H14	0.592700	0.755100	0.704400
H151	H15	0.681400	0.314700	0.195300
H161	H16	0.438900	0.933600	0.675200
H171	H17	0.872100	0.123300	0.977600
H181	H18	0.621700	0.287700	0.932100
H191	H19	0.407300	0.255100	0.795600
H201	H20	0.092700	0.255100	0.295600
H211	H21	0.818600	0.185300	0.195300
H221	H22	0.385200	0.616400	0.869800
H231	H23	0.378300	0.787700	0.567900
H241	H24	0.878300	0.212300	0.932100
H251	H25	0.898600	0.328200	0.829400
H261	H26	0.403700	0.916700	0.126300
H271	H27	0.596300	0.083300	0.873700
H281	H28	0.938900	0.066400	0.824800
H291	H29	0.375500	0.267800	0.678100
H301	H30	0.627900	0.376700	0.977600
H311	H31	0.114800	0.883600	0.869800
H321	H32	0.192300	0.303100	0.615300
H331	H33	0.121700	0.712300	0.567900
H341	H34	0.627900	0.123300	0.477600
H351	H35	0.124500	0.232200	0.678100
H361	H36	0.601400	0.328200	0.329400
H371	H37	0.092700	0.244900	0.795600
H381	H38	0.329200	0.186200	0.368400
H391	H39	0.101400	0.828200	0.670600
H401	H40	0.614800	0.116400	0.630200
H411	H41	0.596300	0.416700	0.373700
H421	H42	0.192300	0.196900	0.115300
H431	H43	0.375500	0.232200	0.178100
H441	H44	0.363100	0.624100	0.250500
H451	H45	0.624500	0.732200	0.321900
H461	H46	0.875500	0.732200	0.821900
H471	H47	0.878300	0.287700	0.432100
H481	H48	0.136900	0.624100	0.750500
H491	H49	0.372100	0.623300	0.022400
H501	H50	0.170800	0.186200	0.868400
H511	H51	0.692300	0.803100	0.384700
H521	H52	0.307700	0.196900	0.615300
H531	H53	0.807700	0.803100	0.884700
H541	H54	0.681400	0.185300	0.695300
H551	H55	0.170800	0.313800	0.368400
H561	H56	0.329200	0.313800	0.868400
H571	H57	0.670800	0.813800	0.631600
H581	H58	0.378300	0.712300	0.067900
H591	H59	0.372100	0.876700	0.522400
H601	H60	0.863100	0.375900	0.249500
H611	H61	0.181400	0.814700	0.804700
H621	H62	0.636900	0.375900	0.749500
H631	H63	0.614800	0.383600	0.130200
H641	H64	0.670800	0.686200	0.131600
H651	H65	0.398600	0.671800	0.670600
H661	H66	0.101400	0.671800	0.170600
H671	H67	0.829200	0.813800	0.131600
H681	H68	0.121700	0.787700	0.067900
H691	H69	0.875500	0.767800	0.321900
H701	H70	0.818600	0.314700	0.695300
H711	H71	0.403700	0.583300	0.626300
H721	H72	0.907300	0.744900	0.704400
H731	H73	0.621700	0.212300	0.432100
H741	H74	0.829200	0.686200	0.631600
H751	H75	0.561100	0.433600	0.824800
H761	H76	0.903700	0.083300	0.373700
H771	H77	0.096300	0.916700	0.626300
H781	H78	0.136900	0.875900	0.250500
H791	H79	0.127900	0.623300	0.522400
H801	H80	0.885200	0.116400	0.130200
H811	H81	0.307700	0.303100	0.115300
H821	H82	0.903700	0.416700	0.873700
H831	H83	0.872100	0.376700	0.477600
H841	H84	0.363100	0.875900	0.750500
H851	H85	0.592700	0.744900	0.204400
H861	H86	0.438900	0.566400	0.175200
H871	H87	0.398600	0.828200	0.170600
H881	H88	0.885200	0.383600	0.630200
H891	H89	0.318600	0.814700	0.304700
H901	H90	0.561100	0.066400	0.324800
H911	H91	0.385200	0.883600	0.369800
H921	H92	0.807700	0.696900	0.384700
H931	H93	0.127900	0.876700	0.022400
H941	H94	0.124500	0.267800	0.178100
H951	H95	0.636900	0.124100	0.249500
H961	H96	0.601400	0.171800	0.829400
C11	C1	0.938000	0.708900	0.698800
C21	C2	0.678100	0.186130	0.420300
C31	C3	0.231700	0.536080	0.045460
C41	C4	0.653600	0.390880	0.385400
C51	C5	0.818400	0.367320	0.447500
C61	C6	0.156200	0.661900	0.141200
C71	C7	0.607700	0.826100	0.654800
C81	C8	0.076500	0.262700	0.668400
C91	C9	0.883700	0.805090	0.869400
C101	C10	0.970000	0.397720	0.319000
C111	C11	0.561400	0.620770	0.144800
C121	C12	0.605000	0.584190	0.093400
C131	C13	0.424200	0.863200	0.726000
C141	C14	0.576500	0.737300	0.831600
C151	C15	0.893200	0.188100	0.178400
C161	C16	0.438600	0.379230	0.855200
C171	C17	0.846400	0.109120	0.385400
C181	C18	0.758100	0.199380	0.376700
C191	C19	0.933700	0.353320	0.639800
C201	C20	0.587700	0.604270	0.927300
C211	C21	0.234600	0.594080	0.070820
C221	C22	0.438000	0.291100	0.801200
C231	C23	0.343800	0.838100	0.141200
C241	C24	0.029800	0.690100	0.734200
C251	C25	0.383700	0.305090	0.130600
C261	C26	0.821900	0.313870	0.420300
C271	C27	0.758100	0.300620	0.876700
C281	C28	0.036200	0.766500	0.808400
C291	C29	0.454600	0.149390	0.615030
C301	C30	0.606800	0.311900	0.178400
C311	C31	0.062000	0.208900	0.801200
C321	C32	0.536200	0.266500	0.191600
C331	C33	0.768300	0.463920	0.954540
C341	C34	0.265400	0.594080	0.570820
C351	C35	0.606800	0.188100	0.678400
C361	C36	0.741900	0.300620	0.376700
C371	C37	0.395000	0.415810	0.906600
C381	C38	0.438600	0.120770	0.355200
C391	C39	0.318400	0.632680	0.052500
C401	C40	0.454600	0.350610	0.115030
C411	C41	0.433700	0.853320	0.360200
C421	C42	0.470200	0.809900	0.734200
C431	C43	0.923500	0.762700	0.831600
C441	C44	0.678100	0.313870	0.920300
C451	C45	0.893200	0.311900	0.678400
C461	C46	0.765400	0.405920	0.929180
C471	C47	0.843800	0.338100	0.858800
C481	C48	0.346400	0.609120	0.614600
C491	C49	0.566300	0.146680	0.639800
C501	C50	0.530000	0.397720	0.819000
C511	C51	0.433700	0.646680	0.860200
C521	C52	0.681600	0.367320	0.947500
C531	C53	0.045400	0.149390	0.115030
C541	C54	0.423500	0.262700	0.168400
C551	C55	0.393200	0.688100	0.821600
C561	C56	0.530000	0.102280	0.319000
C571	C57	0.938600	0.620770	0.644800
C581	C58	0.970000	0.102280	0.819000
C591	C59	0.231700	0.963920	0.545460
C601	C60	0.105000	0.415810	0.406600
C611	C61	0.765400	0.094080	0.429180
C621	C62	0.575800	0.136800	0.274000
C631	C63	0.045400	0.350610	0.615030
C641	C64	0.268300	0.963920	0.045460
C651	C65	0.087700	0.395730	0.572700
C661	C66	0.734600	0.094080	0.929180
C671	C67	0.061400	0.120770	0.855200
C681	C68	0.105000	0.084190	0.906600
C691	C69	0.241900	0.699380	0.123300
C701	C70	0.321900	0.686130	0.079700
C711	C71	0.587700	0.895730	0.427300
C721	C72	0.463800	0.733500	0.808400
C731	C73	0.924200	0.136800	0.774000
C741	C74	0.061400	0.379230	0.355200
C751	C75	0.561400	0.879230	0.644800
C761	C76	0.846400	0.390880	0.885400
C771	C77	0.181600	0.632680	0.552500
C781	C78	0.741900	0.199380	0.876700
C791	C79	0.343800	0.661900	0.641200
C801	C80	0.265400	0.905920	0.070820
C811	C81	0.178100	0.813870	0.079700
C821	C82	0.605000	0.915810	0.593400
C831	C83	0.241900	0.800620	0.623300
C841	C84	0.470200	0.690100	0.234200
C851	C85	0.318400	0.867320	0.552500
C861	C86	0.545400	0.850610	0.384970
C871	C87	0.731700	0.036080	0.954540
C881	C88	0.970200	0.309900	0.265800
C891	C89	0.076500	0.237300	0.168400
C901	C90	0.075800	0.863200	0.226000
C911	C91	0.912300	0.895730	0.927300
C921	C92	0.656200	0.338100	0.358800
C931	C93	0.036200	0.733500	0.308400
C941	C94	0.181600	0.867320	0.052500
C951	C95	0.616300	0.694910	0.869400
C961	C96	0.536200	0.233500	0.691600
C971	C97	0.562000	0.791100	0.698800
C981	C98	0.030000	0.897720	0.181000
C991	C99	0.062000	0.291100	0.301200
C1001	C100	0.545400	0.649390	0.884970
C1011	C101	0.066300	0.853320	0.860200
C1021	C102	0.470000	0.897720	0.681000
C1031	C103	0.030000	0.602280	0.681000
C1041	C104	0.116300	0.305090	0.630600
C1051	C105	0.575800	0.363200	0.774000
C1061	C106	0.178100	0.686130	0.579700
C1071	C107	0.566300	0.353320	0.139800
C1081	C108	0.412300	0.395730	0.072700
C1091	C109	0.768300	0.036080	0.454540
C1101	C110	0.346400	0.890880	0.114600
C1111	C111	0.576500	0.762700	0.331600
C1121	C112	0.954600	0.850610	0.884970
C1131	C113	0.153600	0.609120	0.114600
C1141	C114	0.616300	0.805090	0.369400
C1151	C115	0.731700	0.463920	0.454540
C1161	C116	0.883700	0.694910	0.369400
C1171	C117	0.321900	0.813870	0.579700
C1181	C118	0.963800	0.233500	0.191600
C1191	C119	0.106800	0.688100	0.321600
C1201	C120	0.383700	0.194910	0.630600
C1211	C121	0.395000	0.084190	0.406600
C1221	C122	0.392300	0.173900	0.345200
C1231	C123	0.087700	0.104270	0.072700
C1241	C124	0.923500	0.737300	0.331600
C1251	C125	0.681600	0.132680	0.447500
C1261	C126	0.107700	0.326100	0.345200
C1271	C127	0.895000	0.915810	0.093400
C1281	C128	0.424200	0.636800	0.226000
C1291	C129	0.258100	0.800620	0.123300
C1301	C130	0.970200	0.190100	0.765800
C1311	C131	0.116300	0.194910	0.130600
C1321	C132	0.818400	0.132680	0.947500
C1331	C133	0.438000	0.208900	0.301200
C1341	C134	0.412300	0.104270	0.572700
C1351	C135	0.529800	0.190100	0.265800
C1361	C136	0.924200	0.363200	0.274000
C1371	C137	0.066300	0.646680	0.360200
C1381	C138	0.954600	0.649390	0.384970
C1391	C139	0.963800	0.266500	0.691600
C1401	C140	0.268300	0.536080	0.545460
C1411	C141	0.895000	0.584190	0.593400
C1421	C142	0.529800	0.309900	0.765800
C1431	C143	0.938600	0.879230	0.144800
C1441	C144	0.656200	0.161900	0.858800
C1451	C145	0.933700	0.146680	0.139800
C1461	C146	0.392300	0.326100	0.845200
C1471	C147	0.562000	0.708900	0.198800
C1481	C148	0.912300	0.604270	0.427300
C1491	C149	0.075800	0.636800	0.726000
C1501	C150	0.653600	0.109120	0.885400
C1511	C151	0.892300	0.826100	0.154800
C1521	C152	0.892300	0.673900	0.654800
C1531	C153	0.607700	0.673900	0.154800
C1541	C154	0.843800	0.161900	0.358800
C1551	C155	0.258100	0.699380	0.623300
C1561	C156	0.156200	0.838100	0.641200
C1571	C157	0.107700	0.173900	0.845200
C1581	C158	0.463800	0.766500	0.308400
C1591	C159	0.106800	0.811900	0.821600
C1601	C160	0.029800	0.809900	0.234200
C1611	C161	0.821900	0.186130	0.920300
C1621	C162	0.938000	0.791100	0.198800
C1631	C163	0.470000	0.602280	0.181000
C1641	C164	0.234600	0.905920	0.570820
C1651	C165	0.393200	0.811900	0.321600
C1661	C166	0.734600	0.405920	0.429180
C1671	C167	0.423500	0.237300	0.668400
C1681	C168	0.153600	0.890880	0.614600
O11	O1	0.987600	0.571580	0.448250
O21	O2	0.589000	0.276930	0.723970
O31	O3	0.146300	0.504420	0.057470
O41	O4	0.589000	0.223070	0.223970
O51	O5	0.250000	0.750000	0.655800
O61	O6	0.814000	0.017860	0.988370
O71	O7	0.959500	0.544130	0.577170
O81	O8	0.646300	0.004420	0.942530
O91	O9	0.411000	0.723070	0.276030
O101	O10	0.540500	0.544130	0.077170
O111	O11	0.459500	0.044130	0.422830
O121	O12	0.303600	0.103310	0.561020
O131	O13	0.314000	0.982140	0.511630
O141	O14	0.040500	0.455870	0.422830
O151	O15	0.797900	0.597250	0.570570
O161	O16	0.459500	0.455870	0.922830
O171	O17	0.250000	0.750000	0.155800
O181	O18	0.750000	0.250000	0.844200
O191	O19	0.487600	0.428420	0.051750
O201	O20	0.646300	0.495580	0.442530
O211	O21	0.803600	0.896690	0.938980
O221	O22	0.487600	0.071580	0.551750
O231	O23	0.297900	0.402750	0.929430
O241	O24	0.987600	0.928420	0.948250
O251	O25	0.803600	0.603310	0.438980
O261	O26	0.040500	0.044130	0.922830
O271	O27	0.314000	0.517860	0.011630
O281	O28	0.797900	0.902750	0.070570
O291	O29	0.686000	0.482140	0.988370
O301	O30	0.297900	0.097250	0.429430
O311	O31	0.202100	0.097250	0.929430
O321	O32	0.911000	0.276930	0.223970
O331	O33	0.686000	0.017860	0.488370
O341	O34	0.853700	0.004420	0.442530
O351	O35	0.303600	0.396690	0.061020
O361	O36	0.540500	0.955870	0.577170
O371	O37	0.012400	0.071580	0.051750
O381	O38	0.353700	0.995580	0.057470
O391	O39	0.202100	0.402750	0.429430
O401	O40	0.696400	0.896690	0.438980
O411	O41	0.512400	0.928420	0.448250
O421	O42	0.089000	0.723070	0.776030
O431	O43	0.512400	0.571580	0.948250
O441	O44	0.702100	0.597250	0.070570
O451	O45	0.702100	0.902750	0.570570
O461	O46	0.411000	0.776930	0.776030
O471	O47	0.012400	0.428420	0.551750
O481	O48	0.089000	0.776930	0.276030
O491	O49	0.959500	0.955870	0.077170
O501	O50	0.853700	0.495580	0.942530
O511	O51	0.196400	0.396690	0.561020
O521	O52	0.186000	0.517860	0.511630
O531	O53	0.696400	0.603310	0.938980
O541	O54	0.814000	0.482140	0.488370
O551	O55	0.911000	0.223070	0.723970
O561	O56	0.353700	0.504420	0.557470
O571	O57	0.186000	0.982140	0.011630
O581	O58	0.196400	0.103310	0.061020
O591	O59	0.750000	0.250000	0.344200
O601	O60	0.146300	0.995580	0.557470
