data_TIYZEG_clean_PM
_symmetry_space_group_name_H-M	'P1'
_cell_length_a	9.238000
_cell_length_b	12.268000
_cell_length_c	18.098000
_cell_angle_alpha	90.000000
_cell_angle_beta	91.410000
_cell_angle_gamma	90.000000
_symmetry_Int_Tables_number 1

loop_
_symmetry_equiv_pos_as_xyz
'x,y,z'

loop_
_atom_site_label
_atom_site_type_symbol
_atom_site_fract_x
_atom_site_fract_y
_atom_site_fract_z
Ag11	Ag1	0.625580	0.437590	0.508560
Ag21	Ag2	0.859700	0.371050	0.254090
Ag31	Ag3	0.916300	0.413830	0.760050
Cu11	Cu1	0.148700	0.212100	0.515040
C11	C1	0.440800	0.350800	0.505900
N11	N1	0.343400	0.292800	0.506000
C21	C2	0.964300	0.168100	0.658300
N21	N2	0.024600	0.186400	0.606100
C31	C3	0.805000	0.421200	0.358500
N31	N3	0.764400	0.440800	0.416200
C41	C4	0.006300	0.135000	0.360900
N41	N4	0.060100	0.160100	0.414400
C51	C5	0.821300	0.451800	0.660900
N51	N5	0.766800	0.460700	0.603000
N61	N6	0.052600	0.354700	0.501500
H11	H1	0.976400	0.347300	0.470800
H21	H2	0.114700	0.402000	0.482600
H31	H3	0.023400	0.379100	0.545000
N71	N7	0.249500	0.070300	0.534600
C61	C6	0.245900	0.984300	0.493000
H41	H4	0.192000	0.988000	0.449000
C71	C7	0.314800	0.889700	0.508900
H51	H5	0.307400	0.831400	0.476200
C81	C8	0.390100	0.880200	0.568800
H61	H6	0.442600	0.816900	0.578600
C91	C9	0.392400	0.967100	0.619900
H71	H7	0.437500	0.962000	0.666300
C101	C10	0.322400	0.060100	0.595700
H81	H8	0.328500	0.121000	0.626200
Ag41	Ag4	0.374420	0.937590	0.991440
Ag51	Ag5	0.140300	0.871050	0.245910
Ag61	Ag6	0.083700	0.913830	0.739950
Cu21	Cu2	0.851300	0.712100	0.984960
C111	C11	0.559200	0.850800	0.994100
N81	N8	0.656600	0.792800	0.994000
C121	C12	0.035700	0.668100	0.841700
N91	N9	0.975400	0.686400	0.893900
C131	C13	0.195000	0.921200	0.141500
N101	N10	0.235600	0.940800	0.083800
C141	C14	0.993700	0.635000	0.139100
N111	N11	0.939900	0.660100	0.085600
C151	C15	0.178700	0.951800	0.839100
N121	N12	0.233200	0.960700	0.897000
N131	N13	0.947400	0.854700	0.998500
H91	H9	0.023600	0.847300	0.029200
H101	H10	0.885300	0.902000	0.017400
H111	H11	0.976600	0.879100	0.955000
N141	N14	0.750500	0.570300	0.965400
C161	C16	0.754100	0.484300	0.007000
H121	H12	0.808000	0.488000	0.051000
C171	C17	0.685200	0.389700	0.991100
H131	H13	0.692600	0.331400	0.023800
C181	C18	0.609900	0.380200	0.931200
H141	H14	0.557400	0.316900	0.921400
C191	C19	0.607600	0.467100	0.880100
H151	H15	0.562500	0.462000	0.833700
C201	C20	0.677600	0.560100	0.904300
H161	H16	0.671500	0.621000	0.873800
Ag71	Ag7	0.374420	0.562410	0.491440
Ag81	Ag8	0.140300	0.628950	0.745910
Ag91	Ag9	0.083700	0.586170	0.239950
Cu31	Cu3	0.851300	0.787900	0.484960
C211	C21	0.559200	0.649200	0.494100
N151	N15	0.656600	0.707200	0.494000
C221	C22	0.035700	0.831900	0.341700
N161	N16	0.975400	0.813600	0.393900
C231	C23	0.195000	0.578800	0.641500
N171	N17	0.235600	0.559200	0.583800
C241	C24	0.993700	0.865000	0.639100
N181	N18	0.939900	0.839900	0.585600
C251	C25	0.178700	0.548200	0.339100
N191	N19	0.233200	0.539300	0.397000
N201	N20	0.947400	0.645300	0.498500
H171	H17	0.023600	0.652700	0.529200
H181	H18	0.885300	0.598000	0.517400
H191	H19	0.976600	0.620900	0.455000
N211	N21	0.750500	0.929700	0.465400
C261	C26	0.754100	0.015700	0.507000
H201	H20	0.808000	0.012000	0.551000
C271	C27	0.685200	0.110300	0.491100
H211	H21	0.692600	0.168600	0.523800
C281	C28	0.609900	0.119800	0.431200
H221	H22	0.557400	0.183100	0.421400
C291	C29	0.607600	0.032900	0.380100
H231	H23	0.562500	0.038000	0.333700
C301	C30	0.677600	0.939900	0.404300
H241	H24	0.671500	0.879000	0.373800
Ag101	Ag10	0.625580	0.062410	0.008560
Ag111	Ag11	0.859700	0.128950	0.754090
Ag121	Ag12	0.916300	0.086170	0.260050
Cu41	Cu4	0.148700	0.287900	0.015040
C311	C31	0.440800	0.149200	0.005900
N221	N22	0.343400	0.207200	0.006000
C321	C32	0.964300	0.331900	0.158300
N231	N23	0.024600	0.313600	0.106100
C331	C33	0.805000	0.078800	0.858500
N241	N24	0.764400	0.059200	0.916200
C341	C34	0.006300	0.365000	0.860900
N251	N25	0.060100	0.339900	0.914400
C351	C35	0.821300	0.048200	0.160900
N261	N26	0.766800	0.039300	0.103000
N271	N27	0.052600	0.145300	0.001500
H251	H25	0.976400	0.152700	0.970800
H261	H26	0.114700	0.098000	0.982600
H271	H27	0.023400	0.120900	0.045000
N281	N28	0.249500	0.429700	0.034600
C361	C36	0.245900	0.515700	0.993000
H281	H28	0.192000	0.512000	0.949000
C371	C37	0.314800	0.610300	0.008900
H291	H29	0.307400	0.668600	0.976200
C381	C38	0.390100	0.619800	0.068800
H301	H30	0.442600	0.683100	0.078600
C391	C39	0.392400	0.532900	0.119900
H311	H31	0.437500	0.538000	0.166300
C401	C40	0.322400	0.439900	0.095700
H321	H32	0.328500	0.379000	0.126200
