data_TIYZIK_clean_PM
_symmetry_space_group_name_H-M	'P1'
_cell_length_a	9.014000
_cell_length_b	12.273000
_cell_length_c	17.835000
_cell_angle_alpha	90.000000
_cell_angle_beta	91.020000
_cell_angle_gamma	90.000000
_symmetry_Int_Tables_number 1

loop_
_symmetry_equiv_pos_as_xyz
'x,y,z'

loop_
_atom_site_label
_atom_site_type_symbol
_atom_site_fract_x
_atom_site_fract_y
_atom_site_fract_z
Cu11	Cu1	0.624380	0.056250	0.006740
Ag11	Ag1	0.912340	0.081590	0.257360
Ag21	Ag2	0.854610	0.126470	0.755220
C11	C1	0.801100	0.074600	0.859900
N11	N1	0.750500	0.058500	0.916300
C21	C2	0.813200	0.046600	0.155200
N21	N2	0.751000	0.039000	0.098500
Cu21	Cu2	0.151290	0.286890	0.014790
C31	C3	0.003900	0.366000	0.858100
N31	N3	0.058900	0.339200	0.913200
N41	N4	0.027600	0.313700	0.107900
C41	C4	0.963500	0.334000	0.159900
N51	N5	0.349000	0.203800	0.007500
C51	C5	0.444900	0.141500	0.006900
N61	N6	0.255000	0.429300	0.035500
C61	C6	0.246600	0.516800	0.991600
H11	H1	0.192500	0.512500	0.946900
C71	C7	0.315700	0.613800	0.010300
H21	H2	0.307900	0.673700	0.978500
C81	C8	0.395200	0.620600	0.075600
H31	H3	0.443200	0.685100	0.088800
C91	C9	0.403900	0.532200	0.121500
H41	H4	0.457900	0.535000	0.166400
C101	C10	0.330300	0.438200	0.099800
H51	H5	0.334000	0.378300	0.131700
N71	N7	0.050300	0.142400	0.002500
H61	H6	0.955100	0.152800	0.990500
H71	H7	0.093600	0.104900	0.966200
H81	H8	0.057400	0.105300	0.045300
Cu31	Cu3	0.375620	0.556250	0.493260
Ag31	Ag3	0.087660	0.581590	0.242640
Ag41	Ag4	0.145390	0.626470	0.744780
C111	C11	0.198900	0.574600	0.640100
N81	N8	0.249500	0.558500	0.583700
C121	C12	0.186800	0.546600	0.344800
N91	N9	0.249000	0.539000	0.401500
Cu41	Cu4	0.848710	0.786890	0.485210
C131	C13	0.996100	0.866000	0.641900
N101	N10	0.941100	0.839200	0.586800
N111	N11	0.972400	0.813700	0.392100
C141	C14	0.036500	0.834000	0.340100
N121	N12	0.651000	0.703800	0.492500
C151	C15	0.555100	0.641500	0.493100
N131	N13	0.745000	0.929300	0.464500
C161	C16	0.753400	0.016800	0.508400
H91	H9	0.807500	0.012500	0.553100
C171	C17	0.684300	0.113800	0.489700
H101	H10	0.692100	0.173700	0.521500
C181	C18	0.604800	0.120600	0.424400
H111	H11	0.556800	0.185100	0.411200
C191	C19	0.596100	0.032200	0.378500
H121	H12	0.542100	0.035000	0.333600
C201	C20	0.669700	0.938200	0.400200
H131	H13	0.666000	0.878300	0.368300
N141	N14	0.949700	0.642400	0.497500
H141	H14	0.044900	0.652800	0.509500
H151	H15	0.906400	0.604900	0.533800
H161	H16	0.942600	0.605300	0.454700
Cu51	Cu5	0.375620	0.943750	0.993260
Ag51	Ag5	0.087660	0.918410	0.742640
Ag61	Ag6	0.145390	0.873530	0.244780
C211	C21	0.198900	0.925400	0.140100
N151	N15	0.249500	0.941500	0.083700
C221	C22	0.186800	0.953400	0.844800
N161	N16	0.249000	0.961000	0.901500
Cu61	Cu6	0.848710	0.713110	0.985210
C231	C23	0.996100	0.634000	0.141900
N171	N17	0.941100	0.660800	0.086800
N181	N18	0.972400	0.686300	0.892100
C241	C24	0.036500	0.666000	0.840100
N191	N19	0.651000	0.796200	0.992500
C251	C25	0.555100	0.858500	0.993100
N201	N20	0.745000	0.570700	0.964500
C261	C26	0.753400	0.483200	0.008400
H171	H17	0.807500	0.487500	0.053100
C271	C27	0.684300	0.386200	0.989700
H181	H18	0.692100	0.326300	0.021500
C281	C28	0.604800	0.379400	0.924400
H191	H19	0.556800	0.314900	0.911200
C291	C29	0.596100	0.467800	0.878500
H201	H20	0.542100	0.465000	0.833600
C301	C30	0.669700	0.561800	0.900200
H211	H21	0.666000	0.621700	0.868300
N211	N21	0.949700	0.857600	0.997500
H221	H22	0.044900	0.847200	0.009500
H231	H23	0.906400	0.895100	0.033800
H241	H24	0.942600	0.894700	0.954700
Cu71	Cu7	0.624380	0.443750	0.506740
Ag71	Ag7	0.912340	0.418410	0.757360
Ag81	Ag8	0.854610	0.373530	0.255220
C311	C31	0.801100	0.425400	0.359900
N221	N22	0.750500	0.441500	0.416300
C321	C32	0.813200	0.453400	0.655200
N231	N23	0.751000	0.461000	0.598500
Cu81	Cu8	0.151290	0.213110	0.514790
C331	C33	0.003900	0.134000	0.358100
N241	N24	0.058900	0.160800	0.413200
N251	N25	0.027600	0.186300	0.607900
C341	C34	0.963500	0.166000	0.659900
N261	N26	0.349000	0.296200	0.507500
C351	C35	0.444900	0.358500	0.506900
N271	N27	0.255000	0.070700	0.535500
C361	C36	0.246600	0.983200	0.491600
H251	H25	0.192500	0.987500	0.446900
C371	C37	0.315700	0.886200	0.510300
H261	H26	0.307900	0.826300	0.478500
C381	C38	0.395200	0.879400	0.575600
H271	H27	0.443200	0.814900	0.588800
C391	C39	0.403900	0.967800	0.621500
H281	H28	0.457900	0.965000	0.666400
C401	C40	0.330300	0.061800	0.599800
H291	H29	0.334000	0.121700	0.631700
N281	N28	0.050300	0.357600	0.502500
H301	H30	0.955100	0.347200	0.490500
H311	H31	0.093600	0.395100	0.466200
H321	H32	0.057400	0.394700	0.545300
