data_TIZVED01_charged_PM
_symmetry_space_group_name_H-M	'P1'
_cell_length_a	9.599000
_cell_length_b	13.367000
_cell_length_c	14.468300
_cell_angle_alpha	95.069900
_cell_angle_beta	109.374000
_cell_angle_gamma	74.550000
_symmetry_Int_Tables_number 1

loop_
_symmetry_equiv_pos_as_xyz
'x,y,z'

loop_
_atom_site_label
_atom_site_type_symbol
_atom_site_fract_x
_atom_site_fract_y
_atom_site_fract_z
Cu11	Cu1	0.184290	0.981500	0.226780
Cu21	Cu2	0.957510	0.481500	0.773220
H11	H1	0.578700	0.673900	0.150600
H21	H2	0.569300	0.822000	0.864000
H31	H3	0.747200	0.512000	0.152400
H41	H4	0.822500	0.543700	0.086600
H51	H5	0.749600	0.467600	0.034600
H61	H6	0.427700	0.977300	0.920600
H71	H7	0.300300	0.923400	0.862200
H81	H8	0.311700	0.962200	0.968200
H91	H9	0.226800	0.847300	0.556800
H101	H10	0.902200	0.633900	0.445800
H111	H11	0.303000	0.750100	0.729400
H121	H12	0.161700	0.730700	0.747400
H131	H13	0.162500	0.841900	0.725200
H141	H14	0.868200	0.773900	0.260000
H151	H15	0.869600	0.660400	0.276200
H161	H16	0.009600	0.684300	0.260400
H171	H17	0.428100	0.173900	0.849400
H181	H18	0.705300	0.322000	0.136000
H191	H19	0.594800	0.012000	0.847600
H201	H20	0.735900	0.043700	0.913400
H211	H21	0.715000	0.967600	0.965400
H221	H22	0.507100	0.477300	0.079400
H231	H23	0.438100	0.423400	0.137800
H241	H24	0.343500	0.462200	0.031800
H251	H25	0.670000	0.347300	0.443200
H261	H26	0.456400	0.133900	0.554200
H271	H27	0.573600	0.250100	0.270600
H281	H28	0.414300	0.230700	0.252600
H291	H29	0.437300	0.341900	0.274800
H301	H30	0.608200	0.273900	0.740000
H311	H31	0.593400	0.160400	0.723800
H321	H32	0.749200	0.184300	0.739600
C11	C1	0.384000	0.854000	0.110000
C21	C2	0.482000	0.788000	0.052000
C31	C3	0.576700	0.698000	0.093400
C41	C4	0.669100	0.631000	0.042200
C51	C5	0.662300	0.668000	0.952600
C61	C6	0.567400	0.770000	0.916800
C71	C7	0.473200	0.827200	0.966400
C81	C8	0.749800	0.610000	0.899600
C91	C9	0.770400	0.529000	0.080800
C101	C10	0.372100	0.934000	0.926200
C111	C11	0.134900	0.840000	0.371800
C121	C12	0.095000	0.788500	0.440000
C131	C13	0.164300	0.802000	0.540600
C141	C14	0.133500	0.752800	0.609000
C151	C15	0.025700	0.691000	0.569400
C161	C16	0.968100	0.673000	0.470200
C171	C17	0.006400	0.724000	0.406800
C181	C18	0.997100	0.629000	0.638200
C191	C19	0.187700	0.769000	0.711400
C201	C20	0.927700	0.703000	0.291400
C211	C21	0.274000	0.354000	0.890000
C221	C22	0.430000	0.288000	0.948000
C231	C23	0.483300	0.198000	0.906600
C241	C24	0.626900	0.131000	0.957800
C251	C25	0.709700	0.168000	0.047400
C261	C26	0.650600	0.270000	0.083200
C271	C27	0.506800	0.327200	0.033600
C281	C28	0.850200	0.110000	0.100400
C291	C29	0.689600	0.029000	0.919200
C301	C30	0.445900	0.434000	0.073800
C311	C31	0.763100	0.340000	0.628200
C321	C32	0.655000	0.288500	0.560000
C331	C33	0.623700	0.302000	0.459400
C341	C34	0.524500	0.252800	0.391000
C351	C35	0.456300	0.191000	0.430600
C361	C36	0.497900	0.173000	0.529800
C371	C37	0.599600	0.224000	0.593200
C381	C38	0.358900	0.129000	0.361800
C391	C39	0.476300	0.269000	0.288600
C401	C40	0.636300	0.203000	0.708600
N11	N1	0.314700	0.896600	0.151400
N21	N2	0.831900	0.556600	0.855800
N31	N3	0.156900	0.887000	0.315800
N41	N4	0.973000	0.583600	0.686000
N51	N5	0.163300	0.396600	0.848600
N61	N6	0.976100	0.056600	0.144200
N71	N7	0.841100	0.387000	0.684200
N81	N8	0.287000	0.083600	0.314000
B11	B1	0.261900	0.061000	0.653800
F11	F1	0.389900	0.996000	0.697800
F21	F2	0.238300	0.048600	0.554600
F31	F3	0.296000	0.152400	0.682000
F41	F4	0.158500	0.038400	0.681000
B21	B2	0.608100	0.561000	0.346200
F51	F5	0.692100	0.496000	0.302200
F61	F6	0.683700	0.548600	0.445400
F71	F7	0.614000	0.652400	0.318000
F81	F8	0.477500	0.538400	0.319000
