data_TIZVIH_charged_PM
_symmetry_space_group_name_H-M	'P1'
_cell_length_a	9.590000
_cell_length_b	13.416000
_cell_length_c	14.528600
_cell_angle_alpha	95.155700
_cell_angle_beta	109.271000
_cell_angle_gamma	74.200100
_symmetry_Int_Tables_number 1

loop_
_symmetry_equiv_pos_as_xyz
'x,y,z'

loop_
_atom_site_label
_atom_site_type_symbol
_atom_site_fract_x
_atom_site_fract_y
_atom_site_fract_z
Cu11	Cu1	0.290870	0.225400	0.228940
Cu21	Cu2	0.061930	0.725400	0.771060
H11	H1	0.685200	0.919200	0.150400
H21	H2	0.689800	0.033600	0.872800
H31	H3	0.869200	0.762300	0.139200
H41	H4	0.977400	0.771200	0.082800
H51	H5	0.842200	0.721800	0.032800
H61	H6	0.366700	0.172100	0.914200
H71	H7	0.488100	0.229400	0.974600
H81	H8	0.480200	0.194600	0.868600
H91	H9	0.341500	0.096800	0.563200
H101	H10	0.001600	0.870400	0.440600
H111	H11	0.368300	0.051800	0.730800
H121	H12	0.352500	0.942300	0.743800
H131	H13	0.218400	0.039000	0.741400
H141	H14	0.070400	0.981900	0.256000
H151	H15	0.930500	0.965600	0.278000
H161	H16	0.071500	0.872900	0.284400
H171	H17	0.534800	0.419200	0.849600
H181	H18	0.817000	0.533600	0.127200
H191	H19	0.730000	0.262300	0.860800
H201	H20	0.894600	0.271200	0.917200
H211	H21	0.809400	0.221800	0.967200
H221	H22	0.452500	0.672100	0.085800
H231	H23	0.513500	0.729400	0.025400
H241	H24	0.611600	0.694600	0.131400
H251	H25	0.778300	0.596800	0.436800
H261	H26	0.561000	0.370400	0.559400
H271	H27	0.637500	0.551800	0.269200
H281	H28	0.608700	0.442300	0.256200
H291	H29	0.477000	0.539000	0.258600
H301	H30	0.814400	0.481900	0.744000
H311	H31	0.652500	0.465600	0.722000
H321	H32	0.787100	0.372900	0.715600
C11	C1	0.489400	0.096000	0.108800
C21	C2	0.582500	0.034300	0.053000
C31	C3	0.683500	0.939000	0.091000
C41	C4	0.777900	0.874000	0.041800
C51	C5	0.763800	0.914000	0.951600
C61	C6	0.672100	0.013000	0.916200
C71	C7	0.581700	0.071500	0.967400
C81	C8	0.856800	0.853100	0.897600
C91	C9	0.878100	0.772000	0.076200
C101	C10	0.477000	0.177000	0.926000
C111	C11	0.237700	0.087000	0.373400
C121	C12	0.200600	0.033000	0.439200
C131	C13	0.267100	0.048000	0.540200
C141	C14	0.236700	0.996800	0.607400
C151	C15	0.131600	0.936000	0.567200
C161	C16	0.073700	0.919400	0.471400
C171	C17	0.110100	0.968000	0.402200
C181	C18	0.095900	0.876000	0.635800
C191	C19	0.292800	0.014000	0.715600
C201	C20	0.038400	0.951000	0.294800
C211	C21	0.380600	0.596000	0.891200
C221	C22	0.529500	0.534300	0.947000
C231	C23	0.592500	0.439000	0.909000
C241	C24	0.736100	0.374000	0.958200
C251	C25	0.812200	0.414000	0.048400
C261	C26	0.755900	0.513000	0.083800
C271	C27	0.614300	0.571500	0.032600
C281	C28	0.959200	0.353100	0.102400
C291	C29	0.801900	0.272000	0.923800
C301	C30	0.551000	0.677000	0.074000
C311	C31	0.864300	0.587000	0.626600
C321	C32	0.761400	0.533000	0.560800
C331	C33	0.726900	0.548000	0.459800
C341	C34	0.629300	0.496800	0.392600
C351	C35	0.564400	0.436000	0.432800
C361	C36	0.602300	0.419400	0.528600
C371	C37	0.707900	0.468000	0.597800
C381	C38	0.460100	0.376000	0.364200
C391	C39	0.577200	0.514000	0.284400
C401	C40	0.743600	0.451000	0.705200
N11	N1	0.417600	0.141900	0.151200
N21	N2	0.932900	0.801900	0.851800
N31	N3	0.264900	0.129100	0.319800
N41	N4	0.078100	0.826700	0.686200
N51	N5	0.266400	0.641900	0.848800
N61	N6	0.081100	0.301900	0.148200
N71	N7	0.945100	0.629100	0.680200
N81	N8	0.391900	0.326700	0.313800
Cl11	Cl1	0.707600	0.809000	0.346000
O11	O1	0.779600	0.795700	0.447200
O21	O2	0.709500	0.908000	0.319000
O31	O3	0.801500	0.737000	0.299000
O41	O4	0.570000	0.785000	0.316000
Cl21	Cl2	0.361600	0.309000	0.654000
O51	O5	0.332400	0.295700	0.552800
O61	O6	0.390500	0.408000	0.681000
O71	O7	0.502500	0.237000	0.701000
O81	O8	0.254000	0.285000	0.684000
