data_TOBKAY_clean_PM
_symmetry_space_group_name_H-M	'P1'
_cell_length_a	6.439900
_cell_length_b	17.023000
_cell_length_c	23.833000
_cell_angle_alpha	90.000000
_cell_angle_beta	90.792000
_cell_angle_gamma	90.000000
_symmetry_Int_Tables_number 1

loop_
_symmetry_equiv_pos_as_xyz
'x,y,z'

loop_
_atom_site_label
_atom_site_type_symbol
_atom_site_fract_x
_atom_site_fract_y
_atom_site_fract_z
Gd11	Gd1	0.262970	0.063120	0.022160
C11	C1	0.232900	0.938800	0.932300
C21	C2	0.270500	0.892500	0.883300
C31	C3	0.466100	0.854300	0.873700
C41	C4	0.484400	0.810600	0.824500
H11	H1	0.612300	0.787900	0.816700
C51	C5	0.322800	0.799100	0.786600
C61	C6	0.132900	0.837000	0.797000
H21	H2	0.022000	0.830700	0.772000
C71	C7	0.110400	0.882400	0.843100
H31	H3	0.984500	0.907900	0.848500
C81	C8	0.355700	0.748500	0.736300
C91	C9	0.194800	0.701700	0.716700
H41	H4	0.066600	0.703000	0.734200
C101	C10	0.224800	0.652500	0.670900
C111	C11	0.411100	0.650500	0.643200
C121	C12	0.571500	0.698300	0.662800
H51	H5	0.699400	0.697300	0.645100
C131	C13	0.541500	0.748300	0.708900
H61	H6	0.648200	0.781300	0.721000
C141	C14	0.446800	0.599600	0.593300
O11	O1	0.060900	0.974900	0.940300
O21	O2	0.375500	0.949100	0.969700
O31	O3	0.602900	0.612200	0.562700
O41	O4	0.319300	0.542400	0.586400
O51	O5	0.628700	0.861100	0.907700
O61	O6	0.057700	0.605800	0.655700
H71	H7	0.093000	0.575000	0.631200
Gd21	Gd2	0.737030	0.563120	0.477840
C151	C15	0.767100	0.438800	0.567700
C161	C16	0.729500	0.392500	0.616700
C171	C17	0.533900	0.354300	0.626300
C181	C18	0.515600	0.310600	0.675500
H81	H8	0.387700	0.287900	0.683300
C191	C19	0.677200	0.299100	0.713400
C201	C20	0.867100	0.337000	0.703000
H91	H9	0.978000	0.330700	0.728000
C211	C21	0.889600	0.382400	0.656900
H101	H10	0.015500	0.407900	0.651500
C221	C22	0.644300	0.248500	0.763700
C231	C23	0.805200	0.201700	0.783300
H111	H11	0.933400	0.203000	0.765800
C241	C24	0.775200	0.152500	0.829100
C251	C25	0.588900	0.150500	0.856800
C261	C26	0.428500	0.198300	0.837200
H121	H12	0.300600	0.197300	0.854900
C271	C27	0.458500	0.248300	0.791100
H131	H13	0.351800	0.281300	0.779000
C281	C28	0.553200	0.099600	0.906700
O71	O7	0.939100	0.474900	0.559700
O81	O8	0.624500	0.449100	0.530300
O91	O9	0.397100	0.112200	0.937300
O101	O10	0.680700	0.042400	0.913600
O111	O11	0.371300	0.361100	0.592300
O121	O12	0.942300	0.105800	0.844300
H141	H14	0.907000	0.075000	0.868800
Gd31	Gd3	0.737030	0.936880	0.977840
C291	C29	0.767100	0.061200	0.067700
C301	C30	0.729500	0.107500	0.116700
C311	C31	0.533900	0.145700	0.126300
C321	C32	0.515600	0.189400	0.175500
H151	H15	0.387700	0.212100	0.183300
C331	C33	0.677200	0.200900	0.213400
C341	C34	0.867100	0.163000	0.203000
H161	H16	0.978000	0.169300	0.228000
C351	C35	0.889600	0.117600	0.156900
H171	H17	0.015500	0.092100	0.151500
C361	C36	0.644300	0.251500	0.263700
C371	C37	0.805200	0.298300	0.283300
H181	H18	0.933400	0.297000	0.265800
C381	C38	0.775200	0.347500	0.329100
C391	C39	0.588900	0.349500	0.356800
C401	C40	0.428500	0.301700	0.337200
H191	H19	0.300600	0.302700	0.354900
C411	C41	0.458500	0.251700	0.291100
H201	H20	0.351800	0.218700	0.279000
C421	C42	0.553200	0.400400	0.406700
O131	O13	0.939100	0.025100	0.059700
O141	O14	0.624500	0.050900	0.030300
O151	O15	0.397100	0.387800	0.437300
O161	O16	0.680700	0.457600	0.413600
O171	O17	0.371300	0.138900	0.092300
O181	O18	0.942300	0.394200	0.344300
H211	H21	0.907000	0.425000	0.368800
Gd41	Gd4	0.262970	0.436880	0.522160
C431	C43	0.232900	0.561200	0.432300
C441	C44	0.270500	0.607500	0.383300
C451	C45	0.466100	0.645700	0.373700
C461	C46	0.484400	0.689400	0.324500
H221	H22	0.612300	0.712100	0.316700
C471	C47	0.322800	0.700900	0.286600
C481	C48	0.132900	0.663000	0.297000
H231	H23	0.022000	0.669300	0.272000
C491	C49	0.110400	0.617600	0.343100
H241	H24	0.984500	0.592100	0.348500
C501	C50	0.355700	0.751500	0.236300
C511	C51	0.194800	0.798300	0.216700
H251	H25	0.066600	0.797000	0.234200
C521	C52	0.224800	0.847500	0.170900
C531	C53	0.411100	0.849500	0.143200
C541	C54	0.571500	0.801700	0.162800
H261	H26	0.699400	0.802700	0.145100
C551	C55	0.541500	0.751700	0.208900
H271	H27	0.648200	0.718700	0.221000
C561	C56	0.446800	0.900400	0.093300
O191	O19	0.060900	0.525100	0.440300
O201	O20	0.375500	0.550900	0.469700
O211	O21	0.602900	0.887800	0.062700
O221	O22	0.319300	0.957600	0.086400
O231	O23	0.628700	0.638900	0.407700
O241	O24	0.057700	0.894200	0.155700
H281	H28	0.093000	0.925000	0.131200
