data_TOFLAD_clean_PM
_symmetry_space_group_name_H-M	'P1'
_cell_length_a	18.666000
_cell_length_b	13.998000
_cell_length_c	27.179000
_cell_angle_alpha	90.000000
_cell_angle_beta	131.032000
_cell_angle_gamma	90.000000
_symmetry_Int_Tables_number 1

loop_
_symmetry_equiv_pos_as_xyz
'x,y,z'

loop_
_atom_site_label
_atom_site_type_symbol
_atom_site_fract_x
_atom_site_fract_y
_atom_site_fract_z
C11	C1	0.401500	0.945400	0.927500
H11	H1	0.399000	0.979800	0.955600
C21	C2	0.397500	0.994300	0.883100
H21	H2	0.389800	0.060200	0.880300
C31	C3	0.404300	0.949200	0.842900
C41	C4	0.416900	0.854300	0.850900
H31	H3	0.425300	0.819800	0.825800
C51	C5	0.417700	0.806600	0.896200
H41	H4	0.424800	0.740600	0.899800
C61	C6	0.395600	0.001000	0.790200
C71	C7	0.398100	0.097300	0.788000
H51	H5	0.407700	0.133200	0.820600
C81	C8	0.386500	0.144500	0.737400
C91	C9	0.378800	0.089100	0.692900
H61	H6	0.372300	0.118100	0.659300
C101	C10	0.372700	0.931400	0.649100
C111	C11	0.369100	0.972200	0.600600
H71	H7	0.365800	0.038300	0.595800
C121	C12	0.370300	0.915300	0.559500
H81	H8	0.366300	0.944700	0.527000
C131	C13	0.375100	0.833500	0.651000
H91	H9	0.373800	0.801500	0.680400
C141	C14	0.379600	0.781700	0.609600
H101	H10	0.384800	0.715600	0.613900
C151	C15	0.384800	0.249700	0.731700
C161	C16	0.380600	0.310300	0.771300
H111	H11	0.379900	0.284400	0.802500
C171	C17	0.377800	0.407900	0.763700
H121	H12	0.376700	0.446200	0.791200
C181	C18	0.381800	0.395800	0.684300
H131	H13	0.383800	0.424700	0.654300
C191	C19	0.385100	0.297100	0.687100
H141	H14	0.387500	0.262500	0.659000
C201	C20	0.578200	0.686700	0.077600
C211	C21	0.672100	0.631700	0.121000
C221	C22	0.754300	0.675800	0.173700
H151	H15	0.752500	0.740000	0.181600
C231	C23	0.839100	0.626900	0.214900
C241	C24	0.842100	0.533300	0.200700
H161	H16	0.899100	0.499800	0.228100
C251	C25	0.762500	0.488100	0.146800
C261	C26	0.676600	0.538200	0.106600
H171	H17	0.622200	0.508600	0.070000
C271	C27	0.930800	0.674200	0.271200
C281	C28	0.769400	0.387800	0.130700
C291	C29	0.122400	0.717100	0.979100
H181	H18	0.125700	0.783000	0.984400
C301	C30	0.126200	0.662200	0.022000
H191	H19	0.132400	0.691100	0.055500
C311	C31	0.120700	0.564500	0.016300
C321	C32	0.109500	0.528000	0.963700
H201	H20	0.103300	0.462500	0.956400
C331	C33	0.107400	0.588500	0.921900
H211	H21	0.101000	0.561800	0.887800
C341	C34	0.123800	0.506900	0.062500
C351	C35	0.130100	0.545500	0.109800
H221	H22	0.132900	0.611600	0.114400
C361	C36	0.132500	0.489600	0.151200
C371	C37	0.130900	0.393100	0.147900
H231	H23	0.133700	0.356500	0.177700
C381	C38	0.125100	0.350000	0.100100
C391	C39	0.137000	0.539000	0.201800
C401	C40	0.162500	0.634700	0.218300
H241	H24	0.179100	0.669900	0.198100
C411	C41	0.163300	0.677800	0.264500
H251	H25	0.184700	0.740600	0.275800
C421	C42	0.114400	0.545500	0.279200
H261	H26	0.097400	0.512700	0.300000
C431	C43	0.115000	0.495000	0.235800
H271	H27	0.100400	0.430200	0.229400
C441	C44	0.119700	0.242600	0.093100
C451	C45	0.138600	0.185600	0.142300
H281	H28	0.153400	0.213600	0.179000
C461	C46	0.135200	0.086700	0.136600
H291	H29	0.147900	0.048500	0.169500
N11	N1	0.113000	0.044800	0.081600
C471	C47	0.094100	0.101800	0.032400
H301	H30	0.079300	0.073800	0.995600
C481	C48	0.097500	0.200800	0.038100
H311	H31	0.084800	0.238900	0.005200
C491	C49	0.380500	0.994700	0.696600
Cd11	Cd1	0.398860	0.763000	0.001040
Cd21	Cd2	0.119160	0.777150	0.860770
N21	N2	0.408700	0.851600	0.933600
N31	N3	0.376800	0.822100	0.564200
N41	N4	0.114300	0.682200	0.929000
N51	N5	0.136200	0.637000	0.293500
N61	N6	0.376400	0.450600	0.719300
N71	N7	0.386400	0.947200	0.743700
N81	N8	0.121700	0.407700	0.056500
O11	O1	0.509300	0.645000	0.027000
O21	O2	0.572900	0.768200	0.093500
O31	O3	0.850600	0.351800	0.168700
O41	O4	0.698000	0.348500	0.081900
O51	O5	0.940200	0.761700	0.272100
O61	O6	0.997000	0.620600	0.316300
C501	C50	0.598500	0.445400	0.572500
H321	H32	0.601000	0.479800	0.544400
C511	C51	0.602500	0.494300	0.616900
H331	H33	0.610200	0.560200	0.619700
C521	C52	0.595700	0.449200	0.657100
C531	C53	0.583100	0.354300	0.649100
H341	H34	0.574700	0.319800	0.674200
C541	C54	0.582300	0.306600	0.603800
H351	H35	0.575200	0.240600	0.600200
C551	C55	0.604400	0.501000	0.709800
C561	C56	0.601900	0.597300	0.712000
H361	H36	0.592300	0.633200	0.679400
C571	C57	0.613500	0.644500	0.762600
C581	C58	0.621200	0.589100	0.807100
H371	H37	0.627700	0.618100	0.840700
C591	C59	0.627300	0.431400	0.850900
C601	C60	0.630900	0.472200	0.899400
H381	H38	0.634200	0.538300	0.904200
C611	C61	0.629700	0.415300	0.940500
H391	H39	0.633700	0.444700	0.973000
C621	C62	0.624900	0.333500	0.849000
H401	H40	0.626200	0.301500	0.819600
C631	C63	0.620400	0.281700	0.890400
H411	H41	0.615200	0.215600	0.886100
C641	C64	0.615200	0.749700	0.768300
C651	C65	0.619400	0.810300	0.728700
H421	H42	0.620100	0.784400	0.697500
C661	C66	0.622200	0.907900	0.736300
H431	H43	0.623300	0.946200	0.708800
C671	C67	0.618200	0.895800	0.815700
H441	H44	0.616200	0.924700	0.845700
C681	C68	0.614900	0.797100	0.812900
H451	H45	0.612500	0.762500	0.841000
C691	C69	0.421800	0.186700	0.422400
C701	C70	0.327900	0.131700	0.379000
C711	C71	0.245700	0.175800	0.326300
H461	H46	0.247500	0.240000	0.318400
C721	C72	0.160900	0.126900	0.285100
C731	C73	0.157900	0.033300	0.299300
H471	H47	0.100900	0.999800	0.271900
C741	C74	0.237500	0.988100	0.353200
C751	C75	0.323400	0.038200	0.393400
H481	H48	0.377800	0.008600	0.430000
C761	C76	0.069200	0.174200	0.228800
C771	C77	0.230600	0.887800	0.369300
C781	C78	0.877600	0.217100	0.520900
H491	H49	0.874300	0.283000	0.515600
C791	C79	0.873800	0.162200	0.478000
H501	H50	0.867600	0.191100	0.444500
C801	C80	0.879300	0.064500	0.483700
C811	C81	0.890500	0.028000	0.536300
H511	H51	0.896700	0.962500	0.543600
C821	C82	0.892600	0.088500	0.578100
H521	H52	0.899000	0.061800	0.612200
C831	C83	0.876200	0.006900	0.437500
C841	C84	0.869900	0.045500	0.390200
H531	H53	0.867100	0.111600	0.385600
C851	C85	0.867500	0.989600	0.348800
C861	C86	0.869100	0.893100	0.352100
H541	H54	0.866300	0.856500	0.322300
C871	C87	0.874900	0.850000	0.399900
C881	C88	0.863000	0.039000	0.298200
C891	C89	0.837500	0.134700	0.281700
H551	H55	0.820900	0.169900	0.301900
C901	C90	0.836700	0.177800	0.235500
H561	H56	0.815300	0.240600	0.224200
C911	C91	0.885600	0.045500	0.220800
H571	H57	0.902600	0.012700	0.200000
C921	C92	0.885000	0.995000	0.264200
H581	H58	0.899600	0.930200	0.270600
C931	C93	0.880300	0.742600	0.406900
C941	C94	0.861400	0.685600	0.357700
H591	H59	0.846600	0.713600	0.321000
C951	C95	0.864800	0.586700	0.363400
H601	H60	0.852100	0.548500	0.330500
N91	N9	0.887000	0.544800	0.418400
C961	C96	0.905900	0.601800	0.467600
H611	H61	0.920700	0.573800	0.504400
C971	C97	0.902500	0.700800	0.461900
H621	H62	0.915200	0.738900	0.494800
C981	C98	0.619500	0.494700	0.803400
Cd31	Cd3	0.601140	0.263000	0.498960
Cd41	Cd4	0.880840	0.277150	0.639230
N101	N10	0.591300	0.351600	0.566400
N111	N11	0.623200	0.322100	0.935800
N121	N12	0.885700	0.182200	0.571000
N131	N13	0.863800	0.137000	0.206500
N141	N14	0.623600	0.950600	0.780700
N151	N15	0.613600	0.447200	0.756300
N161	N16	0.878300	0.907700	0.443500
O71	O7	0.490700	0.145000	0.473000
O81	O8	0.427100	0.268200	0.406500
O91	O9	0.149400	0.851800	0.331300
O101	O10	0.302000	0.848500	0.418100
O111	O11	0.059800	0.261700	0.227900
O121	O12	0.003000	0.120600	0.183700
C991	C99	0.598500	0.054600	0.072500
H631	H63	0.601000	0.020200	0.044400
C1001	C100	0.602500	0.005700	0.116900
H641	H64	0.610200	0.939800	0.119700
C1011	C101	0.595700	0.050800	0.157100
C1021	C102	0.583100	0.145700	0.149100
H651	H65	0.574700	0.180200	0.174200
C1031	C103	0.582300	0.193400	0.103800
H661	H66	0.575200	0.259400	0.100200
C1041	C104	0.604400	0.999000	0.209800
C1051	C105	0.601900	0.902700	0.212000
H671	H67	0.592300	0.866800	0.179400
C1061	C106	0.613500	0.855500	0.262600
C1071	C107	0.621200	0.910900	0.307100
H681	H68	0.627700	0.881900	0.340700
C1081	C108	0.627300	0.068600	0.350900
C1091	C109	0.630900	0.027800	0.399400
H691	H69	0.634200	0.961700	0.404200
C1101	C110	0.629700	0.084700	0.440500
H701	H70	0.633700	0.055300	0.473000
C1111	C111	0.624900	0.166500	0.349000
H711	H71	0.626200	0.198500	0.319600
C1121	C112	0.620400	0.218300	0.390400
H721	H72	0.615200	0.284400	0.386100
C1131	C113	0.615200	0.750300	0.268300
C1141	C114	0.619400	0.689700	0.228700
H731	H73	0.620100	0.715600	0.197500
C1151	C115	0.622200	0.592100	0.236300
H741	H74	0.623300	0.553800	0.208800
C1161	C116	0.618200	0.604200	0.315700
H751	H75	0.616200	0.575300	0.345700
C1171	C117	0.614900	0.702900	0.312900
H761	H76	0.612500	0.737500	0.341000
C1181	C118	0.421800	0.313300	0.922400
C1191	C119	0.327900	0.368300	0.879000
C1201	C120	0.245700	0.324200	0.826300
H771	H77	0.247500	0.260000	0.818400
C1211	C121	0.160900	0.373100	0.785100
C1221	C122	0.157900	0.466700	0.799300
H781	H78	0.100900	0.500200	0.771900
C1231	C123	0.237500	0.511900	0.853200
C1241	C124	0.323400	0.461800	0.893400
H791	H79	0.377800	0.491400	0.930000
C1251	C125	0.069200	0.325800	0.728800
C1261	C126	0.230600	0.612200	0.869300
C1271	C127	0.877600	0.282900	0.020900
H801	H80	0.874300	0.217000	0.015600
C1281	C128	0.873800	0.337800	0.978000
H811	H81	0.867600	0.308900	0.944500
C1291	C129	0.879300	0.435500	0.983700
C1301	C130	0.890500	0.472000	0.036300
H821	H82	0.896700	0.537500	0.043600
C1311	C131	0.892600	0.411500	0.078100
H831	H83	0.899000	0.438200	0.112200
C1321	C132	0.876200	0.493100	0.937500
C1331	C133	0.869900	0.454500	0.890200
H841	H84	0.867100	0.388400	0.885600
C1341	C134	0.867500	0.510400	0.848800
C1351	C135	0.869100	0.606900	0.852100
H851	H85	0.866300	0.643500	0.822300
C1361	C136	0.874900	0.650000	0.899900
C1371	C137	0.863000	0.461000	0.798200
C1381	C138	0.837500	0.365300	0.781700
H861	H86	0.820900	0.330100	0.801900
C1391	C139	0.836700	0.322200	0.735500
H871	H87	0.815300	0.259400	0.724200
C1401	C140	0.885600	0.454500	0.720800
H881	H88	0.902600	0.487300	0.700000
C1411	C141	0.885000	0.505000	0.764200
H891	H89	0.899600	0.569800	0.770600
C1421	C142	0.880300	0.757400	0.906900
C1431	C143	0.861400	0.814400	0.857700
H901	H90	0.846600	0.786400	0.821000
C1441	C144	0.864800	0.913300	0.863400
H911	H91	0.852100	0.951500	0.830500
N171	N17	0.887000	0.955200	0.918400
C1451	C145	0.905900	0.898200	0.967600
H921	H92	0.920700	0.926200	0.004400
C1461	C146	0.902500	0.799200	0.961900
H931	H93	0.915200	0.761100	0.994800
C1471	C147	0.619500	0.005300	0.303400
Cd51	Cd5	0.601140	0.237000	0.998960
Cd61	Cd6	0.880840	0.222850	0.139230
N181	N18	0.591300	0.148400	0.066400
N191	N19	0.623200	0.177900	0.435800
N201	N20	0.885700	0.317800	0.071000
N211	N21	0.863800	0.363000	0.706500
N221	N22	0.623600	0.549400	0.280700
N231	N23	0.613600	0.052800	0.256300
N241	N24	0.878300	0.592300	0.943500
O131	O13	0.490700	0.355000	0.973000
O141	O14	0.427100	0.231800	0.906500
O151	O15	0.149400	0.648200	0.831300
O161	O16	0.302000	0.651500	0.918100
O171	O17	0.059800	0.238300	0.727900
O181	O18	0.003000	0.379400	0.683700
C1481	C148	0.401500	0.554600	0.427500
H941	H94	0.399000	0.520200	0.455600
C1491	C149	0.397500	0.505700	0.383100
H951	H95	0.389800	0.439800	0.380300
C1501	C150	0.404300	0.550800	0.342900
C1511	C151	0.416900	0.645700	0.350900
H961	H96	0.425300	0.680200	0.325800
C1521	C152	0.417700	0.693400	0.396200
H971	H97	0.424800	0.759400	0.399800
C1531	C153	0.395600	0.499000	0.290200
C1541	C154	0.398100	0.402700	0.288000
H981	H98	0.407700	0.366800	0.320600
C1551	C155	0.386500	0.355500	0.237400
C1561	C156	0.378800	0.410900	0.192900
H991	H99	0.372300	0.381900	0.159300
C1571	C157	0.372700	0.568600	0.149100
C1581	C158	0.369100	0.527800	0.100600
H1001	H100	0.365800	0.461700	0.095800
C1591	C159	0.370300	0.584700	0.059500
H1011	H101	0.366300	0.555300	0.027000
C1601	C160	0.375100	0.666500	0.151000
H1021	H102	0.373800	0.698500	0.180400
C1611	C161	0.379600	0.718300	0.109600
H1031	H103	0.384800	0.784400	0.113900
C1621	C162	0.384800	0.250300	0.231700
C1631	C163	0.380600	0.189700	0.271300
H1041	H104	0.379900	0.215600	0.302500
C1641	C164	0.377800	0.092100	0.263700
H1051	H105	0.376700	0.053800	0.291200
C1651	C165	0.381800	0.104200	0.184300
H1061	H106	0.383800	0.075300	0.154300
C1661	C166	0.385100	0.202900	0.187100
H1071	H107	0.387500	0.237500	0.159000
C1671	C167	0.578200	0.813300	0.577600
C1681	C168	0.672100	0.868300	0.621000
C1691	C169	0.754300	0.824200	0.673700
H1081	H108	0.752500	0.760000	0.681600
C1701	C170	0.839100	0.873100	0.714900
C1711	C171	0.842100	0.966700	0.700700
H1091	H109	0.899100	0.000200	0.728100
C1721	C172	0.762500	0.011900	0.646800
C1731	C173	0.676600	0.961800	0.606600
H1101	H110	0.622200	0.991400	0.570000
C1741	C174	0.930800	0.825800	0.771200
C1751	C175	0.769400	0.112200	0.630700
C1761	C176	0.122400	0.782900	0.479100
H1111	H111	0.125700	0.717000	0.484400
C1771	C177	0.126200	0.837800	0.522000
H1121	H112	0.132400	0.808900	0.555500
C1781	C178	0.120700	0.935500	0.516300
C1791	C179	0.109500	0.972000	0.463700
H1131	H113	0.103300	0.037500	0.456400
C1801	C180	0.107400	0.911500	0.421900
H1141	H114	0.101000	0.938200	0.387800
C1811	C181	0.123800	0.993100	0.562500
C1821	C182	0.130100	0.954500	0.609800
H1151	H115	0.132900	0.888400	0.614400
C1831	C183	0.132500	0.010400	0.651200
C1841	C184	0.130900	0.106900	0.647900
H1161	H116	0.133700	0.143500	0.677700
C1851	C185	0.125100	0.150000	0.600100
C1861	C186	0.137000	0.961000	0.701800
C1871	C187	0.162500	0.865300	0.718300
H1171	H117	0.179100	0.830100	0.698100
C1881	C188	0.163300	0.822200	0.764500
H1181	H118	0.184700	0.759400	0.775800
C1891	C189	0.114400	0.954500	0.779200
H1191	H119	0.097400	0.987300	0.800000
C1901	C190	0.115000	0.005000	0.735800
H1201	H120	0.100400	0.069800	0.729400
C1911	C191	0.119700	0.257400	0.593100
C1921	C192	0.138600	0.314400	0.642300
H1211	H121	0.153400	0.286400	0.679000
C1931	C193	0.135200	0.413300	0.636600
H1221	H122	0.147900	0.451500	0.669500
N251	N25	0.113000	0.455200	0.581600
C1941	C194	0.094100	0.398200	0.532400
H1231	H123	0.079300	0.426200	0.495600
C1951	C195	0.097500	0.299200	0.538100
H1241	H124	0.084800	0.261100	0.505200
C1961	C196	0.380500	0.505300	0.196600
Cd71	Cd7	0.398860	0.737000	0.501040
Cd81	Cd8	0.119160	0.722850	0.360770
N261	N26	0.408700	0.648400	0.433600
N271	N27	0.376800	0.677900	0.064200
N281	N28	0.114300	0.817800	0.429000
N291	N29	0.136200	0.863000	0.793500
N301	N30	0.376400	0.049400	0.219300
N311	N31	0.386400	0.552800	0.243700
N321	N32	0.121700	0.092300	0.556500
O191	O19	0.509300	0.855000	0.527000
O201	O20	0.572900	0.731800	0.593500
O211	O21	0.850600	0.148200	0.668700
O221	O22	0.698000	0.151500	0.581900
O231	O23	0.940200	0.738300	0.772100
O241	O24	0.997000	0.879400	0.816300
