data_TOFQEM_clean_PM
_symmetry_space_group_name_H-M	'P1'
_cell_length_a	25.366000
_cell_length_b	6.039200
_cell_length_c	12.319500
_cell_angle_alpha	90.000000
_cell_angle_beta	90.000000
_cell_angle_gamma	90.000000
_symmetry_Int_Tables_number 1

loop_
_symmetry_equiv_pos_as_xyz
'x,y,z'

loop_
_atom_site_label
_atom_site_type_symbol
_atom_site_fract_x
_atom_site_fract_y
_atom_site_fract_z
Cd11	Cd1	0.371370	0.699710	0.864920
C11	C1	0.460300	0.777500	0.050200
H11	H1	0.460400	0.917000	0.018200
C21	C2	0.499700	0.727100	0.122100
H21	H2	0.525900	0.830400	0.137100
C31	C3	0.500600	0.523800	0.172200
C41	C4	0.459000	0.384000	0.151000
H31	H3	0.456800	0.247500	0.185600
C51	C5	0.420300	0.448900	0.077300
H41	H4	0.392000	0.353900	0.065600
C61	C6	0.544700	0.451700	0.244200
C71	C7	0.333100	0.983000	0.656200
H51	H5	0.362100	0.067800	0.676300
C81	C8	0.300300	0.063900	0.577100
H61	H6	0.307700	0.199200	0.544300
C91	C9	0.257200	0.946300	0.546600
C101	C10	0.249900	0.741600	0.594800
H71	H7	0.221800	0.651600	0.574800
C111	C11	0.285300	0.673400	0.673500
H81	H8	0.280000	0.535600	0.705400
C121	C12	0.217300	0.041100	0.469100
O11	O1	0.547970	0.254900	0.270700
O21	O2	0.579140	0.593200	0.271300
O31	O3	0.186590	0.912000	0.418700
O41	O4	0.212840	0.245700	0.463800
N11	N1	0.421450	0.636000	0.023400
N21	N2	0.325600	0.789600	0.705700
Cd21	Cd2	0.628630	0.300290	0.364920
C131	C13	0.539700	0.222500	0.550200
H91	H9	0.539600	0.083000	0.518200
C141	C14	0.500300	0.272900	0.622100
H101	H10	0.474100	0.169600	0.637100
C151	C15	0.499400	0.476200	0.672200
C161	C16	0.541000	0.616000	0.651000
H111	H11	0.543200	0.752500	0.685600
C171	C17	0.579700	0.551100	0.577300
H121	H12	0.608000	0.646100	0.565600
C181	C18	0.455300	0.548300	0.744200
C191	C19	0.666900	0.017000	0.156200
H131	H13	0.637900	0.932200	0.176300
C201	C20	0.699700	0.936100	0.077100
H141	H14	0.692300	0.800800	0.044300
C211	C21	0.742800	0.053700	0.046600
C221	C22	0.750100	0.258400	0.094800
H151	H15	0.778200	0.348400	0.074800
C231	C23	0.714700	0.326600	0.173500
H161	H16	0.720000	0.464400	0.205400
C241	C24	0.782700	0.958900	0.969100
O51	O5	0.452030	0.745100	0.770700
O61	O6	0.420860	0.406800	0.771300
O71	O7	0.813410	0.088000	0.918700
O81	O8	0.787160	0.754300	0.963800
N31	N3	0.578550	0.364000	0.523400
N41	N4	0.674400	0.210400	0.205700
Cd31	Cd3	0.871370	0.800290	0.864920
C251	C25	0.960300	0.722500	0.050200
H171	H17	0.960400	0.583000	0.018200
C261	C26	0.999700	0.772900	0.122100
H181	H18	0.025900	0.669600	0.137100
C271	C27	0.000600	0.976200	0.172200
C281	C28	0.959000	0.116000	0.151000
H191	H19	0.956800	0.252500	0.185600
C291	C29	0.920300	0.051100	0.077300
H201	H20	0.892000	0.146100	0.065600
C301	C30	0.044700	0.048300	0.244200
C311	C31	0.833100	0.517000	0.656200
H211	H21	0.862100	0.432200	0.676300
C321	C32	0.800300	0.436100	0.577100
H221	H22	0.807700	0.300800	0.544300
C331	C33	0.757200	0.553700	0.546600
C341	C34	0.749900	0.758400	0.594800
H231	H23	0.721800	0.848400	0.574800
C351	C35	0.785300	0.826600	0.673500
H241	H24	0.780000	0.964400	0.705400
C361	C36	0.717300	0.458900	0.469100
O91	O9	0.047970	0.245100	0.270700
O101	O10	0.079140	0.906800	0.271300
O111	O11	0.686590	0.588000	0.418700
O121	O12	0.712840	0.254300	0.463800
N51	N5	0.921450	0.864000	0.023400
N61	N6	0.825600	0.710400	0.705700
Cd41	Cd4	0.128630	0.199710	0.364920
C371	C37	0.039700	0.277500	0.550200
H251	H25	0.039600	0.417000	0.518200
C381	C38	0.000300	0.227100	0.622100
H261	H26	0.974100	0.330400	0.637100
C391	C39	0.999400	0.023800	0.672200
C401	C40	0.041000	0.884000	0.651000
H271	H27	0.043200	0.747500	0.685600
C411	C41	0.079700	0.948900	0.577300
H281	H28	0.108000	0.853900	0.565600
C421	C42	0.955300	0.951700	0.744200
C431	C43	0.166900	0.483000	0.156200
H291	H29	0.137900	0.567800	0.176300
C441	C44	0.199700	0.563900	0.077100
H301	H30	0.192300	0.699200	0.044300
C451	C45	0.242800	0.446300	0.046600
C461	C46	0.250100	0.241600	0.094800
H311	H31	0.278200	0.151600	0.074800
C471	C47	0.214700	0.173400	0.173500
H321	H32	0.220000	0.035600	0.205400
C481	C48	0.282700	0.541100	0.969100
O131	O13	0.952030	0.754900	0.770700
O141	O14	0.920860	0.093200	0.771300
O151	O15	0.313410	0.412000	0.918700
O161	O16	0.287160	0.745700	0.963800
N71	N7	0.078550	0.136000	0.523400
N81	N8	0.174400	0.289600	0.205700
