data_TOHPUC_clean_PM
_symmetry_space_group_name_H-M	'P1'
_cell_length_a	11.083000
_cell_length_b	17.983000
_cell_length_c	17.983000
_cell_angle_alpha	90.000000
_cell_angle_beta	90.000000
_cell_angle_gamma	90.000000
_symmetry_Int_Tables_number 1

loop_
_symmetry_equiv_pos_as_xyz
'x,y,z'

loop_
_atom_site_label
_atom_site_type_symbol
_atom_site_fract_x
_atom_site_fract_y
_atom_site_fract_z
V11	V1	0.154570	0.037360	0.559690
V21	V2	0.654570	0.962640	0.440310
V31	V3	0.404570	0.940310	0.537360
V41	V4	0.904570	0.059690	0.462640
V51	V5	0.095430	0.462640	0.059690
V61	V6	0.595430	0.537360	0.940310
V71	V7	0.845430	0.559690	0.037360
V81	V8	0.345430	0.440310	0.962640
V91	V9	0.250000	0.039330	0.960670
V101	V10	0.750000	0.960670	0.039330
V111	V11	0.500000	0.539330	0.539330
V121	V12	0.000000	0.460670	0.460670
V131	V13	0.000000	0.067130	0.067130
V141	V14	0.500000	0.932870	0.932870
V151	V15	0.250000	0.432870	0.567130
V161	V16	0.750000	0.567130	0.432870
Ni11	Ni1	0.172190	0.029310	0.764600
Ni21	Ni2	0.672190	0.970690	0.235400
Ni31	Ni3	0.422190	0.735400	0.529310
Ni41	Ni4	0.922190	0.264600	0.470690
Ni51	Ni5	0.077810	0.470690	0.264600
Ni61	Ni6	0.577810	0.529310	0.735400
Ni71	Ni7	0.827810	0.764600	0.029310
Ni81	Ni8	0.327810	0.235400	0.970690
H11	H1	0.212400	0.890200	0.654000
H21	H2	0.200300	0.759400	0.687600
H31	H3	0.141500	0.881900	0.866000
H41	H4	0.224000	0.722100	0.868500
H51	H5	0.085600	0.738500	0.875600
H61	H6	0.932000	0.026200	0.666800
H71	H7	0.945200	0.038200	0.883600
H81	H8	0.732500	0.034600	0.848200
H91	H9	0.051200	0.485900	0.843000
H101	H10	0.131200	0.511300	0.775900
H111	H11	0.024500	0.610600	0.878100
H121	H12	0.160900	0.587900	0.880000
H131	H13	0.055200	0.670600	0.763000
H141	H14	0.192100	0.648200	0.765500
H151	H15	0.712400	0.109800	0.346000
H161	H16	0.700300	0.240600	0.312400
H171	H17	0.641500	0.118100	0.134000
H181	H18	0.724000	0.277900	0.131500
H191	H19	0.585600	0.261500	0.124400
H201	H20	0.432000	0.973800	0.333200
H211	H21	0.445200	0.961800	0.116400
H221	H22	0.232500	0.965400	0.151800
H231	H23	0.551200	0.514100	0.157000
H241	H24	0.631200	0.488700	0.224100
H251	H25	0.524500	0.389400	0.121900
H261	H26	0.660900	0.412100	0.120000
H271	H27	0.555200	0.329400	0.237000
H281	H28	0.692100	0.351800	0.234500
H291	H29	0.462400	0.846000	0.390200
H301	H30	0.450300	0.812400	0.259400
H311	H31	0.391500	0.634000	0.381900
H321	H32	0.474000	0.631500	0.222100
H331	H33	0.335600	0.624400	0.238500
H341	H34	0.182000	0.833200	0.526200
H351	H35	0.195200	0.616400	0.538200
H361	H36	0.982500	0.651800	0.534600
H371	H37	0.301200	0.657000	0.985900
H381	H38	0.381200	0.724100	0.011300
H391	H39	0.274500	0.621900	0.110600
H401	H40	0.410900	0.620000	0.087900
H411	H41	0.305200	0.737000	0.170600
H421	H42	0.442100	0.734500	0.148200
H431	H43	0.962400	0.154000	0.609800
H441	H44	0.950300	0.187600	0.740600
H451	H45	0.891500	0.366000	0.618100
H461	H46	0.974000	0.368500	0.777900
H471	H47	0.835600	0.375600	0.761500
H481	H48	0.682000	0.166800	0.473800
H491	H49	0.695200	0.383600	0.461800
H501	H50	0.482500	0.348200	0.465400
H511	H51	0.801200	0.343000	0.014100
H521	H52	0.881200	0.275900	0.988700
H531	H53	0.774500	0.378100	0.889400
H541	H54	0.910900	0.380000	0.912100
H551	H55	0.805200	0.263000	0.829400
H561	H56	0.942100	0.265500	0.851800
H571	H57	0.037600	0.609800	0.154000
H581	H58	0.049700	0.740600	0.187600
H591	H59	0.108500	0.618100	0.366000
H601	H60	0.026000	0.777900	0.368500
H611	H61	0.164400	0.761500	0.375600
H621	H62	0.318000	0.473800	0.166800
H631	H63	0.304800	0.461800	0.383600
H641	H64	0.517500	0.465400	0.348200
H651	H65	0.198800	0.014100	0.343000
H661	H66	0.118800	0.988700	0.275900
H671	H67	0.225500	0.889400	0.378100
H681	H68	0.089100	0.912100	0.380000
H691	H69	0.194800	0.829400	0.263000
H701	H70	0.057900	0.851800	0.265500
H711	H71	0.537600	0.390200	0.846000
H721	H72	0.549700	0.259400	0.812400
H731	H73	0.608500	0.381900	0.634000
H741	H74	0.526000	0.222100	0.631500
H751	H75	0.664400	0.238500	0.624400
H761	H76	0.818000	0.526200	0.833200
H771	H77	0.804800	0.538200	0.616400
H781	H78	0.017500	0.534600	0.651800
H791	H79	0.698800	0.985900	0.657000
H801	H80	0.618800	0.011300	0.724100
H811	H81	0.725500	0.110600	0.621900
H821	H82	0.589100	0.087900	0.620000
H831	H83	0.694800	0.170600	0.737000
H841	H84	0.557900	0.148200	0.734500
H851	H85	0.787600	0.654000	0.890200
H861	H86	0.799700	0.687600	0.759400
H871	H87	0.858500	0.866000	0.881900
H881	H88	0.776000	0.868500	0.722100
H891	H89	0.914400	0.875600	0.738500
H901	H90	0.068000	0.666800	0.026200
H911	H91	0.054800	0.883600	0.038200
H921	H92	0.267500	0.848200	0.034600
H931	H93	0.948800	0.843000	0.485900
H941	H94	0.868800	0.775900	0.511300
H951	H95	0.975500	0.878100	0.610600
H961	H96	0.839100	0.880000	0.587900
H971	H97	0.944800	0.763000	0.670600
H981	H98	0.807900	0.765500	0.648200
H991	H99	0.287600	0.346000	0.109800
H1001	H100	0.299700	0.312400	0.240600
H1011	H101	0.358500	0.134000	0.118100
H1021	H102	0.276000	0.131500	0.277900
H1031	H103	0.414400	0.124400	0.261500
H1041	H104	0.568000	0.333200	0.973800
H1051	H105	0.554800	0.116400	0.961800
H1061	H106	0.767500	0.151800	0.965400
H1071	H107	0.448800	0.157000	0.514100
H1081	H108	0.368800	0.224100	0.488700
H1091	H109	0.475500	0.121900	0.389400
H1101	H110	0.339100	0.120000	0.412100
H1111	H111	0.444800	0.237000	0.329400
H1121	H112	0.307900	0.234500	0.351800
C11	C1	0.197100	0.872060	0.701540
C21	C2	0.190100	0.799620	0.719440
C31	C3	0.158300	0.868020	0.817300
C41	C4	0.150400	0.730050	0.840410
C51	C5	0.909600	0.028870	0.716580
C61	C6	0.916100	0.035300	0.835170
C71	C7	0.798200	0.033500	0.816100
C81	C8	0.062800	0.525090	0.806630
C91	C9	0.092800	0.596700	0.847320
C101	C10	0.122900	0.661100	0.795860
C111	C11	0.697100	0.127940	0.298460
C121	C12	0.690100	0.200380	0.280560
C131	C13	0.658300	0.131980	0.182700
C141	C14	0.650400	0.269950	0.159590
C151	C15	0.409600	0.971130	0.283420
C161	C16	0.416100	0.964700	0.164830
C171	C17	0.298200	0.966500	0.183900
C181	C18	0.562800	0.474910	0.193370
C191	C19	0.592800	0.403300	0.152680
C201	C20	0.622900	0.338900	0.204140
C211	C21	0.447100	0.798460	0.372060
C221	C22	0.440100	0.780560	0.299620
C231	C23	0.408300	0.682700	0.368020
C241	C24	0.400400	0.659590	0.230050
C251	C25	0.159600	0.783420	0.528870
C261	C26	0.166100	0.664830	0.535300
C271	C27	0.048200	0.683900	0.533500
C281	C28	0.312800	0.693370	0.025090
C291	C29	0.342800	0.652680	0.096700
C301	C30	0.372900	0.704140	0.161100
C311	C31	0.947100	0.201540	0.627940
C321	C32	0.940100	0.219440	0.700380
C331	C33	0.908300	0.317300	0.631980
C341	C34	0.900400	0.340410	0.769950
C351	C35	0.659600	0.216580	0.471130
C361	C36	0.666100	0.335170	0.464700
C371	C37	0.548200	0.316100	0.466500
C381	C38	0.812800	0.306630	0.974910
C391	C39	0.842800	0.347320	0.903300
C401	C40	0.872900	0.295860	0.838900
C411	C41	0.052900	0.627940	0.201540
C421	C42	0.059900	0.700380	0.219440
C431	C43	0.091700	0.631980	0.317300
C441	C44	0.099600	0.769950	0.340410
C451	C45	0.340400	0.471130	0.216580
C461	C46	0.333900	0.464700	0.335170
C471	C47	0.451800	0.466500	0.316100
C481	C48	0.187200	0.974910	0.306630
C491	C49	0.157200	0.903300	0.347320
C501	C50	0.127100	0.838900	0.295860
C511	C51	0.552900	0.372060	0.798460
C521	C52	0.559900	0.299620	0.780560
C531	C53	0.591700	0.368020	0.682700
C541	C54	0.599600	0.230050	0.659590
C551	C55	0.840400	0.528870	0.783420
C561	C56	0.833900	0.535300	0.664830
C571	C57	0.951800	0.533500	0.683900
C581	C58	0.687200	0.025090	0.693370
C591	C59	0.657200	0.096700	0.652680
C601	C60	0.627100	0.161100	0.704140
C611	C61	0.802900	0.701540	0.872060
C621	C62	0.809900	0.719440	0.799620
C631	C63	0.841700	0.817300	0.868020
C641	C64	0.849600	0.840410	0.730050
C651	C65	0.090400	0.716580	0.028870
C661	C66	0.083900	0.835170	0.035300
C671	C67	0.201800	0.816100	0.033500
C681	C68	0.937200	0.806630	0.525090
C691	C69	0.907200	0.847320	0.596700
C701	C70	0.877100	0.795860	0.661100
C711	C71	0.302900	0.298460	0.127940
C721	C72	0.309900	0.280560	0.200380
C731	C73	0.341700	0.182700	0.131980
C741	C74	0.349600	0.159590	0.269950
C751	C75	0.590400	0.283420	0.971130
C761	C76	0.583900	0.164830	0.964700
C771	C77	0.701800	0.183900	0.966500
C781	C78	0.437200	0.193370	0.474910
C791	C79	0.407200	0.152680	0.403300
C801	C80	0.377100	0.204140	0.338900
N11	N1	0.165000	0.796990	0.793440
N21	N2	0.178700	0.915160	0.762680
N31	N3	0.986700	0.032430	0.772450
N41	N4	0.955100	0.529570	0.759510
N51	N5	0.665000	0.203010	0.206560
N61	N6	0.678700	0.084840	0.237320
N71	N7	0.486700	0.967570	0.227550
N81	N8	0.455100	0.470430	0.240490
N91	N9	0.415000	0.706560	0.296990
N101	N10	0.428700	0.737320	0.415160
N111	N11	0.236700	0.727550	0.532430
N121	N12	0.205100	0.740490	0.029570
N131	N13	0.915000	0.293440	0.703010
N141	N14	0.928700	0.262680	0.584840
N151	N15	0.736700	0.272450	0.467570
N161	N16	0.705100	0.259510	0.970430
N171	N17	0.085000	0.703010	0.293440
N181	N18	0.071300	0.584840	0.262680
N191	N19	0.263300	0.467570	0.272450
N201	N20	0.294900	0.970430	0.259510
N211	N21	0.585000	0.296990	0.706560
N221	N22	0.571300	0.415160	0.737320
N231	N23	0.763300	0.532430	0.727550
N241	N24	0.794900	0.029570	0.740490
N251	N25	0.835000	0.793440	0.796990
N261	N26	0.821300	0.762680	0.915160
N271	N27	0.013300	0.772450	0.032430
N281	N28	0.044900	0.759510	0.529570
N291	N29	0.335000	0.206560	0.203010
N301	N30	0.321300	0.237320	0.084840
N311	N31	0.513300	0.227550	0.967570
N321	N32	0.544900	0.240490	0.470430
O11	O1	0.132770	0.025920	0.027450
O21	O2	0.194470	0.029360	0.877010
O31	O3	0.251660	0.966960	0.520730
O41	O4	0.160790	0.033750	0.650690
O51	O5	0.632770	0.974080	0.972550
O61	O6	0.694470	0.970640	0.122990
O71	O7	0.751660	0.033040	0.479270
O81	O8	0.660790	0.966250	0.349310
O91	O9	0.382770	0.472550	0.525920
O101	O10	0.444470	0.622990	0.529360
O111	O11	0.501660	0.979270	0.466960
O121	O12	0.410790	0.849310	0.533750
O131	O13	0.882770	0.527450	0.474080
O141	O14	0.944470	0.377010	0.470640
O151	O15	0.001660	0.020730	0.533040
O161	O16	0.910790	0.150690	0.466250
O171	O17	0.117230	0.474080	0.527450
O181	O18	0.055530	0.470640	0.377010
O191	O19	0.998340	0.533040	0.020730
O201	O20	0.089210	0.466250	0.150690
O211	O21	0.617230	0.525920	0.472550
O221	O22	0.555530	0.529360	0.622990
O231	O23	0.498340	0.466960	0.979270
O241	O24	0.589210	0.533750	0.849310
O251	O25	0.867230	0.027450	0.025920
O261	O26	0.805530	0.877010	0.029360
O271	O27	0.748340	0.520730	0.966960
O281	O28	0.839210	0.650690	0.033750
O291	O29	0.367230	0.972550	0.974080
O301	O30	0.305530	0.122990	0.970640
O311	O31	0.248340	0.479270	0.033040
O321	O32	0.339210	0.349310	0.966250
