data_TOHYOF_clean_PM
_symmetry_space_group_name_H-M	'P1'
_cell_length_a	12.375000
_cell_length_b	23.376000
_cell_length_c	8.589300
_cell_angle_alpha	90.000000
_cell_angle_beta	104.460000
_cell_angle_gamma	90.000000
_symmetry_Int_Tables_number 1

loop_
_symmetry_equiv_pos_as_xyz
'x,y,z'

loop_
_atom_site_label
_atom_site_type_symbol
_atom_site_fract_x
_atom_site_fract_y
_atom_site_fract_z
Cd11	Cd1	0.239290	0.218770	0.452460
O11	O1	0.094100	0.938500	0.346200
O21	O2	0.248400	0.782800	0.628900
O31	O3	0.443200	0.948100	0.673200
O41	O4	0.216400	0.141900	0.616700
O51	O5	0.255600	0.118500	0.393900
O61	O6	0.895700	0.784500	0.108800
O71	O7	0.951400	0.709100	0.243800
O81	O8	0.706900	0.773500	0.785400
O91	O9	0.594400	0.762400	0.937400
N11	N1	0.166900	0.860100	0.486400
N21	N2	0.345400	0.865100	0.654800
N31	N3	0.270400	0.943800	0.503900
C11	C1	0.170700	0.916400	0.438400
C21	C2	0.253400	0.832500	0.592900
C31	C3	0.356900	0.921400	0.611400
C41	C4	0.062700	0.826800	0.423800
H11	H1	0.999900	0.852700	0.390700
H21	H2	0.049100	0.802200	0.507800
C51	C5	0.073900	0.791100	0.282700
H31	H3	0.133500	0.763400	0.317800
H41	H4	0.093100	0.815500	0.202300
C61	C6	0.966100	0.760100	0.209900
C71	C7	0.437200	0.837100	0.773300
H51	H5	0.407400	0.805900	0.824100
H61	H6	0.470900	0.864500	0.856200
C81	C8	0.524200	0.814600	0.697000
H71	H7	0.559000	0.846500	0.655500
H81	H8	0.489000	0.790400	0.606900
C91	C9	0.613400	0.780600	0.812800
C101	C10	0.279700	0.005100	0.465000
H91	H9	0.242600	0.011500	0.352800
H101	H10	0.357800	0.014900	0.480500
C111	C11	0.228700	0.043200	0.567900
H111	H11	0.268100	0.038100	0.679800
H121	H12	0.151600	0.032200	0.556300
C121	C12	0.233300	0.105400	0.523400
Cd21	Cd2	0.760710	0.718770	0.047540
O101	O10	0.905900	0.438500	0.153800
O111	O11	0.751600	0.282800	0.871100
O121	O12	0.556800	0.448100	0.826800
O131	O13	0.783600	0.641900	0.883300
O141	O14	0.744400	0.618500	0.106100
O151	O15	0.104300	0.284500	0.391200
O161	O16	0.048600	0.209100	0.256200
O171	O17	0.293100	0.273500	0.714600
O181	O18	0.405600	0.262400	0.562600
N41	N4	0.833100	0.360100	0.013600
N51	N5	0.654600	0.365100	0.845200
N61	N6	0.729600	0.443800	0.996100
C131	C13	0.829300	0.416400	0.061600
C141	C14	0.746600	0.332500	0.907100
C151	C15	0.643100	0.421400	0.888600
C161	C16	0.937300	0.326800	0.076200
H131	H13	0.000100	0.352700	0.109300
H141	H14	0.950900	0.302200	0.992200
C171	C17	0.926100	0.291100	0.217300
H151	H15	0.866500	0.263400	0.182200
H161	H16	0.906900	0.315500	0.297700
C181	C18	0.033900	0.260100	0.290100
C191	C19	0.562800	0.337100	0.726700
H171	H17	0.592600	0.305900	0.675900
H181	H18	0.529100	0.364500	0.643800
C201	C20	0.475800	0.314600	0.803000
H191	H19	0.441000	0.346500	0.844500
H201	H20	0.511000	0.290400	0.893100
C211	C21	0.386600	0.280600	0.687200
C221	C22	0.720300	0.505100	0.035000
H211	H21	0.757400	0.511500	0.147200
H221	H22	0.642200	0.514900	0.019500
C231	C23	0.771300	0.543200	0.932100
H231	H23	0.731900	0.538100	0.820200
H241	H24	0.848400	0.532200	0.943700
C241	C24	0.766700	0.605400	0.976600
Cd31	Cd3	0.760710	0.781230	0.547540
O191	O19	0.905900	0.061500	0.653800
O201	O20	0.751600	0.217200	0.371100
O211	O21	0.556800	0.051900	0.326800
O221	O22	0.783600	0.858100	0.383300
O231	O23	0.744400	0.881500	0.606100
O241	O24	0.104300	0.215500	0.891200
O251	O25	0.048600	0.290900	0.756200
O261	O26	0.293100	0.226500	0.214600
O271	O27	0.405600	0.237600	0.062600
N71	N7	0.833100	0.139900	0.513600
N81	N8	0.654600	0.134900	0.345200
N91	N9	0.729600	0.056200	0.496100
C251	C25	0.829300	0.083600	0.561600
C261	C26	0.746600	0.167500	0.407100
C271	C27	0.643100	0.078600	0.388600
C281	C28	0.937300	0.173200	0.576200
H251	H25	0.000100	0.147300	0.609300
H261	H26	0.950900	0.197800	0.492200
C291	C29	0.926100	0.208900	0.717300
H271	H27	0.866500	0.236600	0.682200
H281	H28	0.906900	0.184500	0.797700
C301	C30	0.033900	0.239900	0.790100
C311	C31	0.562800	0.162900	0.226700
H291	H29	0.592600	0.194100	0.175900
H301	H30	0.529100	0.135500	0.143800
C321	C32	0.475800	0.185400	0.303000
H311	H31	0.441000	0.153500	0.344500
H321	H32	0.511000	0.209600	0.393100
C331	C33	0.386600	0.219400	0.187200
C341	C34	0.720300	0.994900	0.535000
H331	H33	0.757400	0.988500	0.647200
H341	H34	0.642200	0.985100	0.519500
C351	C35	0.771300	0.956800	0.432100
H351	H35	0.731900	0.961900	0.320200
H361	H36	0.848400	0.967800	0.443700
C361	C36	0.766700	0.894600	0.476600
Cd41	Cd4	0.239290	0.281230	0.952460
O281	O28	0.094100	0.561500	0.846200
O291	O29	0.248400	0.717200	0.128900
O301	O30	0.443200	0.551900	0.173200
O311	O31	0.216400	0.358100	0.116700
O321	O32	0.255600	0.381500	0.893900
O331	O33	0.895700	0.715500	0.608800
O341	O34	0.951400	0.790900	0.743800
O351	O35	0.706900	0.726500	0.285400
O361	O36	0.594400	0.737600	0.437400
N101	N10	0.166900	0.639900	0.986400
N111	N11	0.345400	0.634900	0.154800
N121	N12	0.270400	0.556200	0.003900
C371	C37	0.170700	0.583600	0.938400
C381	C38	0.253400	0.667500	0.092900
C391	C39	0.356900	0.578600	0.111400
C401	C40	0.062700	0.673200	0.923800
H371	H37	0.999900	0.647300	0.890700
H381	H38	0.049100	0.697800	0.007800
C411	C41	0.073900	0.708900	0.782700
H391	H39	0.133500	0.736600	0.817800
H401	H40	0.093100	0.684500	0.702300
C421	C42	0.966100	0.739900	0.709900
C431	C43	0.437200	0.662900	0.273300
H411	H41	0.407400	0.694100	0.324100
H421	H42	0.470900	0.635500	0.356200
C441	C44	0.524200	0.685400	0.197000
H431	H43	0.559000	0.653500	0.155500
H441	H44	0.489000	0.709600	0.106900
C451	C45	0.613400	0.719400	0.312800
C461	C46	0.279700	0.494900	0.965000
H451	H45	0.242600	0.488500	0.852800
H461	H46	0.357800	0.485100	0.980500
C471	C47	0.228700	0.456800	0.067900
H471	H47	0.268100	0.461900	0.179800
H481	H48	0.151600	0.467800	0.056300
C481	C48	0.233300	0.394600	0.023400
