data_TOHYUM_clean_PM
_symmetry_space_group_name_H-M	'P1'
_cell_length_a	20.055300
_cell_length_b	11.146200
_cell_length_c	19.535400
_cell_angle_alpha	90.000000
_cell_angle_beta	108.352000
_cell_angle_gamma	90.000000
_symmetry_Int_Tables_number 1

loop_
_symmetry_equiv_pos_as_xyz
'x,y,z'

loop_
_atom_site_label
_atom_site_type_symbol
_atom_site_fract_x
_atom_site_fract_y
_atom_site_fract_z
Zn11	Zn1	0.411620	0.708460	0.232280
Zn21	Zn2	0.275670	0.712590	0.098050
Zn31	Zn3	0.278520	0.566530	0.238450
Zn41	Zn4	0.275470	0.852680	0.239690
C11	C1	0.410800	0.557400	0.356800
C21	C2	0.408800	0.376400	0.591500
C31	C3	0.448400	0.525300	0.433800
C41	C4	0.413600	0.462800	0.474400
H11	H1	0.368200	0.434900	0.452300
C51	C5	0.446300	0.441600	0.547500
C61	C6	0.514500	0.483300	0.579100
H21	H2	0.536700	0.469800	0.628000
C71	C7	0.550000	0.543900	0.539900
H31	H3	0.595700	0.570700	0.561900
C81	C8	0.515900	0.565200	0.465300
H41	H4	0.539200	0.605900	0.438000
C91	C9	0.258000	0.432600	0.110300
C101	C10	0.251500	0.984600	0.111200
C111	C11	0.242900	0.316300	0.069700
C121	C12	0.250200	0.208500	0.106700
H51	H5	0.263400	0.208700	0.156800
C131	C13	0.237800	0.100100	0.069500
C141	C14	0.217200	0.099300	0.995100
H61	H6	0.209100	0.027000	0.970000
C151	C15	0.208800	0.208100	0.957800
H71	H7	0.193800	0.208300	0.907700
C161	C16	0.222600	0.316100	0.995400
H81	H8	0.218200	0.388100	0.970300
C171	C17	0.151800	0.685800	0.239800
C181	C18	0.938800	0.445100	0.240100
C191	C19	0.075200	0.677800	0.232700
C201	C20	0.043900	0.566800	0.235700
H91	H9	0.070000	0.496600	0.240200
C211	C21	0.973000	0.561900	0.231800
C221	C22	0.935200	0.667800	0.224800
H101	H10	0.888700	0.665500	0.224500
C231	C23	0.965700	0.776900	0.218100
H111	H11	0.939300	0.847100	0.210900
C241	C24	0.034800	0.780200	0.222200
H121	H12	0.055200	0.853500	0.217700
O11	O1	0.443300	0.617300	0.324000
O21	O2	0.348700	0.522000	0.331000
O31	O3	0.357800	0.313300	0.560800
O41	O4	0.435800	0.390600	0.659600
O51	O5	0.256600	0.526800	0.077200
O61	O6	0.270100	0.425000	0.178700
O71	O7	0.276100	0.898800	0.085300
O81	O8	0.238700	0.983100	0.171000
O91	O9	0.185600	0.588500	0.248600
O101	O10	0.177100	0.787500	0.237500
O111	O11	0.309400	0.711000	0.203500
O121	O12	0.881800	0.450300	0.252800
O131	O13	0.969700	0.350900	0.232900
Zn51	Zn5	0.911620	0.208460	0.232280
Zn61	Zn6	0.775670	0.212590	0.098050
Zn71	Zn7	0.778520	0.066530	0.238450
Zn81	Zn8	0.775470	0.352680	0.239690
C251	C25	0.910800	0.057400	0.356800
C261	C26	0.908800	0.876400	0.591500
C271	C27	0.948400	0.025300	0.433800
C281	C28	0.913600	0.962800	0.474400
H131	H13	0.868200	0.934900	0.452300
C291	C29	0.946300	0.941600	0.547500
C301	C30	0.014500	0.983300	0.579100
H141	H14	0.036700	0.969800	0.628000
C311	C31	0.050000	0.043900	0.539900
H151	H15	0.095700	0.070700	0.561900
C321	C32	0.015900	0.065200	0.465300
H161	H16	0.039200	0.105900	0.438000
C331	C33	0.758000	0.932600	0.110300
C341	C34	0.751500	0.484600	0.111200
C351	C35	0.742900	0.816300	0.069700
C361	C36	0.750200	0.708500	0.106700
H171	H17	0.763400	0.708700	0.156800
C371	C37	0.737800	0.600100	0.069500
C381	C38	0.717200	0.599300	0.995100
H181	H18	0.709100	0.527000	0.970000
C391	C39	0.708800	0.708100	0.957800
H191	H19	0.693800	0.708300	0.907700
C401	C40	0.722600	0.816100	0.995400
H201	H20	0.718200	0.888100	0.970300
C411	C41	0.651800	0.185800	0.239800
C421	C42	0.438800	0.945100	0.240100
C431	C43	0.575200	0.177800	0.232700
C441	C44	0.543900	0.066800	0.235700
H211	H21	0.570000	0.996600	0.240200
C451	C45	0.473000	0.061900	0.231800
C461	C46	0.435200	0.167800	0.224800
H221	H22	0.388700	0.165500	0.224500
C471	C47	0.465700	0.276900	0.218100
H231	H23	0.439300	0.347100	0.210900
C481	C48	0.534800	0.280200	0.222200
H241	H24	0.555200	0.353500	0.217700
O141	O14	0.943300	0.117300	0.324000
O151	O15	0.848700	0.022000	0.331000
O161	O16	0.857800	0.813300	0.560800
O171	O17	0.935800	0.890600	0.659600
O181	O18	0.756600	0.026800	0.077200
O191	O19	0.770100	0.925000	0.178700
O201	O20	0.776100	0.398800	0.085300
O211	O21	0.738700	0.483100	0.171000
O221	O22	0.685600	0.088500	0.248600
O231	O23	0.677100	0.287500	0.237500
O241	O24	0.809400	0.211000	0.203500
O251	O25	0.381800	0.950300	0.252800
O261	O26	0.469700	0.850900	0.232900
Zn91	Zn9	0.411620	0.291540	0.732280
Zn101	Zn10	0.275670	0.287410	0.598050
Zn111	Zn11	0.278520	0.433470	0.738450
Zn121	Zn12	0.275470	0.147320	0.739690
C491	C49	0.410800	0.442600	0.856800
C501	C50	0.408800	0.623600	0.091500
C511	C51	0.448400	0.474700	0.933800
C521	C52	0.413600	0.537200	0.974400
H251	H25	0.368200	0.565100	0.952300
C531	C53	0.446300	0.558400	0.047500
C541	C54	0.514500	0.516700	0.079100
H261	H26	0.536700	0.530200	0.128000
C551	C55	0.550000	0.456100	0.039900
H271	H27	0.595700	0.429300	0.061900
C561	C56	0.515900	0.434800	0.965300
H281	H28	0.539200	0.394100	0.938000
C571	C57	0.258000	0.567400	0.610300
C581	C58	0.251500	0.015400	0.611200
C591	C59	0.242900	0.683700	0.569700
C601	C60	0.250200	0.791500	0.606700
H291	H29	0.263400	0.791300	0.656800
C611	C61	0.237800	0.899900	0.569500
C621	C62	0.217200	0.900700	0.495100
H301	H30	0.209100	0.973000	0.470000
C631	C63	0.208800	0.791900	0.457800
H311	H31	0.193800	0.791700	0.407700
C641	C64	0.222600	0.683900	0.495400
H321	H32	0.218200	0.611900	0.470300
C651	C65	0.151800	0.314200	0.739800
C661	C66	0.938800	0.554900	0.740100
C671	C67	0.075200	0.322200	0.732700
C681	C68	0.043900	0.433200	0.735700
H331	H33	0.070000	0.503400	0.740200
C691	C69	0.973000	0.438100	0.731800
C701	C70	0.935200	0.332200	0.724800
H341	H34	0.888700	0.334500	0.724500
C711	C71	0.965700	0.223100	0.718100
H351	H35	0.939300	0.152900	0.710900
C721	C72	0.034800	0.219800	0.722200
H361	H36	0.055200	0.146500	0.717700
O271	O27	0.443300	0.382700	0.824000
O281	O28	0.348700	0.478000	0.831000
O291	O29	0.357800	0.686700	0.060800
O301	O30	0.435800	0.609400	0.159600
O311	O31	0.256600	0.473200	0.577200
O321	O32	0.270100	0.575000	0.678700
O331	O33	0.276100	0.101200	0.585300
O341	O34	0.238700	0.016900	0.671000
O351	O35	0.185600	0.411500	0.748600
O361	O36	0.177100	0.212500	0.737500
O371	O37	0.309400	0.289000	0.703500
O381	O38	0.881800	0.549700	0.752800
O391	O39	0.969700	0.649100	0.732900
Zn131	Zn13	0.911620	0.791540	0.732280
Zn141	Zn14	0.775670	0.787410	0.598050
Zn151	Zn15	0.778520	0.933470	0.738450
Zn161	Zn16	0.775470	0.647320	0.739690
C731	C73	0.910800	0.942600	0.856800
C741	C74	0.908800	0.123600	0.091500
C751	C75	0.948400	0.974700	0.933800
C761	C76	0.913600	0.037200	0.974400
H371	H37	0.868200	0.065100	0.952300
C771	C77	0.946300	0.058400	0.047500
C781	C78	0.014500	0.016700	0.079100
H381	H38	0.036700	0.030200	0.128000
C791	C79	0.050000	0.956100	0.039900
H391	H39	0.095700	0.929300	0.061900
C801	C80	0.015900	0.934800	0.965300
H401	H40	0.039200	0.894100	0.938000
C811	C81	0.758000	0.067400	0.610300
C821	C82	0.751500	0.515400	0.611200
C831	C83	0.742900	0.183700	0.569700
C841	C84	0.750200	0.291500	0.606700
H411	H41	0.763400	0.291300	0.656800
C851	C85	0.737800	0.399900	0.569500
C861	C86	0.717200	0.400700	0.495100
H421	H42	0.709100	0.473000	0.470000
C871	C87	0.708800	0.291900	0.457800
H431	H43	0.693800	0.291700	0.407700
C881	C88	0.722600	0.183900	0.495400
H441	H44	0.718200	0.111900	0.470300
C891	C89	0.651800	0.814200	0.739800
C901	C90	0.438800	0.054900	0.740100
C911	C91	0.575200	0.822200	0.732700
C921	C92	0.543900	0.933200	0.735700
H451	H45	0.570000	0.003400	0.740200
C931	C93	0.473000	0.938100	0.731800
C941	C94	0.435200	0.832200	0.724800
H461	H46	0.388700	0.834500	0.724500
C951	C95	0.465700	0.723100	0.718100
H471	H47	0.439300	0.652900	0.710900
C961	C96	0.534800	0.719800	0.722200
H481	H48	0.555200	0.646500	0.717700
O401	O40	0.943300	0.882700	0.824000
O411	O41	0.848700	0.978000	0.831000
O421	O42	0.857800	0.186700	0.060800
O431	O43	0.935800	0.109400	0.159600
O441	O44	0.756600	0.973200	0.577200
O451	O45	0.770100	0.075000	0.678700
O461	O46	0.776100	0.601200	0.585300
O471	O47	0.738700	0.516900	0.671000
O481	O48	0.685600	0.911500	0.748600
O491	O49	0.677100	0.712500	0.737500
O501	O50	0.809400	0.789000	0.703500
O511	O51	0.381800	0.049700	0.752800
O521	O52	0.469700	0.149100	0.732900
