data_TOHYUL_clean_PM
_symmetry_space_group_name_H-M	'P1'
_cell_length_a	13.380000
_cell_length_b	17.640000
_cell_length_c	21.460000
_cell_angle_alpha	90.000000
_cell_angle_beta	90.000000
_cell_angle_gamma	90.000000
_symmetry_Int_Tables_number 1

loop_
_symmetry_equiv_pos_as_xyz
'x,y,z'

loop_
_atom_site_label
_atom_site_type_symbol
_atom_site_fract_x
_atom_site_fract_y
_atom_site_fract_z
Cd11	Cd1	0.702940	0.872220	0.143130
Cd21	Cd2	0.670520	0.056590	0.234250
Cd31	Cd3	0.852880	0.199280	0.219880
Cd41	Cd4	0.297060	0.127780	0.643130
Cd51	Cd5	0.329480	0.943410	0.734250
Cd61	Cd6	0.147120	0.800720	0.719880
Cd71	Cd7	0.797060	0.372220	0.143130
Cd81	Cd8	0.829480	0.556590	0.234250
Cd91	Cd9	0.647120	0.699280	0.219880
Cd101	Cd10	0.202940	0.627780	0.643130
Cd111	Cd11	0.170520	0.443410	0.734250
Cd121	Cd12	0.352880	0.300720	0.719880
H11	H1	0.006600	0.907900	0.162100
H21	H2	0.950200	0.914600	0.098200
H31	H3	0.012400	0.042800	0.167800
H41	H4	0.949300	0.046900	0.106000
H51	H5	0.326100	0.035000	0.168700
H61	H6	0.378400	0.055600	0.105500
H71	H7	0.448500	0.933100	0.103000
H81	H8	0.400900	0.917000	0.168700
H91	H9	0.240000	0.970400	0.918000
H101	H10	0.139600	0.924700	0.917200
H111	H11	0.329500	0.853900	0.936600
H121	H12	0.227600	0.809300	0.930700
H131	H13	0.396300	0.637000	0.080000
H141	H14	0.349200	0.687300	0.132800
H151	H15	0.443700	0.745200	0.024700
H161	H16	0.390400	0.797300	0.073600
H171	H17	0.960600	0.767000	0.045300
H181	H18	0.022500	0.788600	0.104700
H191	H19	0.989600	0.670300	0.148600
H201	H20	0.932200	0.645300	0.088300
H211	H21	0.097000	0.588600	0.904300
H221	H22	0.213100	0.576800	0.901900
H231	H23	0.110300	0.702000	0.851500
H241	H24	0.227200	0.698800	0.854800
H251	H25	0.993400	0.092100	0.662100
H261	H26	0.049800	0.085400	0.598200
H271	H27	0.987600	0.957200	0.667800
H281	H28	0.050700	0.953100	0.606000
H291	H29	0.673900	0.965000	0.668700
H301	H30	0.621600	0.944400	0.605500
H311	H31	0.551500	0.066900	0.603000
H321	H32	0.599100	0.083000	0.668700
H331	H33	0.760000	0.029600	0.418000
H341	H34	0.860400	0.075300	0.417200
H351	H35	0.670500	0.146100	0.436600
H361	H36	0.772400	0.190700	0.430700
H371	H37	0.603700	0.363000	0.580000
H381	H38	0.650800	0.312700	0.632800
H391	H39	0.556300	0.254800	0.524700
H401	H40	0.609600	0.202700	0.573600
H411	H41	0.039400	0.233000	0.545300
H421	H42	0.977500	0.211400	0.604700
H431	H43	0.010400	0.329700	0.648600
H441	H44	0.067800	0.354700	0.588300
H451	H45	0.903000	0.411400	0.404300
H461	H46	0.786900	0.423200	0.401900
H471	H47	0.889700	0.298000	0.351500
H481	H48	0.772800	0.301200	0.354800
H491	H49	0.493400	0.407900	0.162100
H501	H50	0.549800	0.414600	0.098200
H511	H51	0.487600	0.542800	0.167800
H521	H52	0.550700	0.546900	0.106000
H531	H53	0.173900	0.535000	0.168700
H541	H54	0.121600	0.555600	0.105500
H551	H55	0.051500	0.433100	0.103000
H561	H56	0.099100	0.417000	0.168700
H571	H57	0.260000	0.470400	0.918000
H581	H58	0.360400	0.424700	0.917200
H591	H59	0.170500	0.353900	0.936600
H601	H60	0.272400	0.309300	0.930700
H611	H61	0.103700	0.137000	0.080000
H621	H62	0.150800	0.187300	0.132800
H631	H63	0.056300	0.245200	0.024700
H641	H64	0.109600	0.297300	0.073600
H651	H65	0.539400	0.267000	0.045300
H661	H66	0.477500	0.288600	0.104700
H671	H67	0.510400	0.170300	0.148600
H681	H68	0.567800	0.145300	0.088300
H691	H69	0.403000	0.088600	0.904300
H701	H70	0.286900	0.076800	0.901900
H711	H71	0.389700	0.202000	0.851500
H721	H72	0.272800	0.198800	0.854800
H731	H73	0.506600	0.592100	0.662100
H741	H74	0.450200	0.585400	0.598200
H751	H75	0.512400	0.457200	0.667800
H761	H76	0.449300	0.453100	0.606000
H771	H77	0.826100	0.465000	0.668700
H781	H78	0.878400	0.444400	0.605500
H791	H79	0.948500	0.566900	0.603000
H801	H80	0.900900	0.583000	0.668700
H811	H81	0.740000	0.529600	0.418000
H821	H82	0.639600	0.575300	0.417200
H831	H83	0.829500	0.646100	0.436600
H841	H84	0.727600	0.690700	0.430700
H851	H85	0.896300	0.863000	0.580000
H861	H86	0.849200	0.812700	0.632800
H871	H87	0.943700	0.754800	0.524700
H881	H88	0.890400	0.702700	0.573600
H891	H89	0.460600	0.733000	0.545300
H901	H90	0.522500	0.711400	0.604700
H911	H91	0.489600	0.829700	0.648600
H921	H92	0.432200	0.854700	0.588300
H931	H93	0.597000	0.911400	0.404300
H941	H94	0.713100	0.923200	0.401900
H951	H95	0.610300	0.798000	0.351500
H961	H96	0.727200	0.801200	0.354800
C11	C1	0.178900	0.966100	0.128600
C21	C2	0.275500	0.967200	0.032800
C31	C3	0.100800	0.930200	0.029800
C41	C4	0.999000	0.938800	0.125000
C51	C5	0.962300	0.016900	0.143100
C61	C6	0.867200	0.007300	0.180300
C71	C7	0.349400	0.014400	0.129400
C81	C8	0.427400	0.956300	0.141800
C91	C9	0.517900	0.995900	0.173800
C101	C10	0.205800	0.926800	0.935500
C111	C11	0.263700	0.854300	0.917600
C121	C12	0.271200	0.858200	0.847200
C131	C13	0.260400	0.647800	0.997300
C141	C14	0.082600	0.684100	0.991900
C151	C15	0.186100	0.722700	0.079800
C161	C16	0.362100	0.684400	0.088400
C171	C17	0.428100	0.750700	0.068600
C181	C18	0.524700	0.757800	0.104500
C191	C19	0.004100	0.747000	0.077500
C201	C20	0.947500	0.688200	0.114900
C211	C21	0.849900	0.720000	0.142100
C221	C22	0.160900	0.614700	0.905500
C231	C23	0.167400	0.668200	0.850600
C241	C24	0.170100	0.628300	0.788800
C251	C25	0.821100	0.033900	0.628600
C261	C26	0.724500	0.032800	0.532800
C271	C27	0.899200	0.069800	0.529800
C281	C28	0.001000	0.061200	0.625000
C291	C29	0.037700	0.983100	0.643100
C301	C30	0.132800	0.992700	0.680300
C311	C31	0.650600	0.985600	0.629400
C321	C32	0.572600	0.043700	0.641800
C331	C33	0.482100	0.004100	0.673800
C341	C34	0.794200	0.073200	0.435500
C351	C35	0.736300	0.145700	0.417600
C361	C36	0.728800	0.141800	0.347200
C371	C37	0.739600	0.352200	0.497300
C381	C38	0.917400	0.315900	0.491900
C391	C39	0.813900	0.277300	0.579800
C401	C40	0.637900	0.315600	0.588400
C411	C41	0.571900	0.249300	0.568600
C421	C42	0.475300	0.242200	0.604500
C431	C43	0.995900	0.253000	0.577500
C441	C44	0.052500	0.311800	0.614900
C451	C45	0.150100	0.280000	0.642100
C461	C46	0.839100	0.385300	0.405500
C471	C47	0.832600	0.331800	0.350600
C481	C48	0.829900	0.371700	0.288800
C491	C49	0.321100	0.466100	0.128600
C501	C50	0.224500	0.467200	0.032800
C511	C51	0.399200	0.430200	0.029800
C521	C52	0.501000	0.438800	0.125000
C531	C53	0.537700	0.516900	0.143100
C541	C54	0.632800	0.507300	0.180300
C551	C55	0.150600	0.514400	0.129400
C561	C56	0.072600	0.456300	0.141800
C571	C57	0.982100	0.495900	0.173800
C581	C58	0.294200	0.426800	0.935500
C591	C59	0.236300	0.354300	0.917600
C601	C60	0.228800	0.358200	0.847200
C611	C61	0.239600	0.147800	0.997300
C621	C62	0.417400	0.184100	0.991900
C631	C63	0.313900	0.222700	0.079800
C641	C64	0.137900	0.184400	0.088400
C651	C65	0.071900	0.250700	0.068600
C661	C66	0.975300	0.257800	0.104500
C671	C67	0.495900	0.247000	0.077500
C681	C68	0.552500	0.188200	0.114900
C691	C69	0.650100	0.220000	0.142100
C701	C70	0.339100	0.114700	0.905500
C711	C71	0.332600	0.168200	0.850600
C721	C72	0.329900	0.128300	0.788800
C731	C73	0.678900	0.533900	0.628600
C741	C74	0.775500	0.532800	0.532800
C751	C75	0.600800	0.569800	0.529800
C761	C76	0.499000	0.561200	0.625000
C771	C77	0.462300	0.483100	0.643100
C781	C78	0.367200	0.492700	0.680300
C791	C79	0.849400	0.485600	0.629400
C801	C80	0.927400	0.543700	0.641800
C811	C81	0.017900	0.504100	0.673800
C821	C82	0.705800	0.573200	0.435500
C831	C83	0.763700	0.645700	0.417600
C841	C84	0.771200	0.641800	0.347200
C851	C85	0.760400	0.852200	0.497300
C861	C86	0.582600	0.815900	0.491900
C871	C87	0.686100	0.777300	0.579800
C881	C88	0.862100	0.815600	0.588400
C891	C89	0.928100	0.749300	0.568600
C901	C90	0.024700	0.742200	0.604500
C911	C91	0.504100	0.753000	0.577500
C921	C92	0.447500	0.811800	0.614900
C931	C93	0.349900	0.780000	0.642100
C941	C94	0.660900	0.885300	0.405500
C951	C95	0.667400	0.831800	0.350600
C961	C96	0.670100	0.871700	0.288800
N11	N1	0.095200	0.944200	0.092400
N21	N2	0.265000	0.983300	0.095400
N31	N3	0.196200	0.937200	0.003000
N41	N4	0.264200	0.686400	0.053100
N51	N5	0.093000	0.716900	0.048900
N61	N6	0.170900	0.653100	0.965100
N71	N7	0.904800	0.055800	0.592400
N81	N8	0.735000	0.016700	0.595400
N91	N9	0.803800	0.062800	0.503000
N101	N10	0.735800	0.313600	0.553100
N111	N11	0.907000	0.283100	0.548900
N121	N12	0.829100	0.346900	0.465100
N131	N13	0.404800	0.444200	0.092400
N141	N14	0.235000	0.483300	0.095400
N151	N15	0.303800	0.437200	0.003000
N161	N16	0.235800	0.186400	0.053100
N171	N17	0.407000	0.216900	0.048900
N181	N18	0.329100	0.153100	0.965100
N191	N19	0.595200	0.555800	0.592400
N201	N20	0.765000	0.516700	0.595400
N211	N21	0.696200	0.562800	0.503000
N221	N22	0.764200	0.813600	0.553100
N231	N23	0.593000	0.783100	0.548900
N241	N24	0.670900	0.846900	0.465100
O11	O1	0.174600	0.974200	0.183600
O21	O2	0.353000	0.983900	0.006000
O31	O3	0.028900	0.911400	0.000200
O41	O4	0.826600	0.945100	0.185100
O51	O5	0.830500	0.066900	0.205600
O61	O6	0.502000	0.042600	0.215100
O71	O7	0.605700	0.981900	0.153800
O81	O8	0.344100	0.889500	0.825300
O91	O9	0.196100	0.835400	0.816100
O101	O10	0.329800	0.609000	0.978600
O111	O11	0.006200	0.681900	0.964200
O121	O12	0.193200	0.758300	0.128700
O131	O13	0.552700	0.702200	0.135300
O141	O14	0.568500	0.819800	0.099400
O151	O15	0.165200	0.559900	0.787100
O161	O16	0.170800	0.671800	0.739800
O171	O17	0.805000	0.680200	0.184500
O181	O18	0.820300	0.783000	0.125100
O191	O19	0.825400	0.025800	0.683600
O201	O20	0.647000	0.016100	0.506000
O211	O21	0.971100	0.088600	0.500200
O221	O22	0.173400	0.054900	0.685100
O231	O23	0.169500	0.933100	0.705600
O241	O24	0.498000	0.957400	0.715100
O251	O25	0.394300	0.018100	0.653800
O261	O26	0.655900	0.110500	0.325300
O271	O27	0.803900	0.164600	0.316100
O281	O28	0.670200	0.391000	0.478600
O291	O29	0.993800	0.318100	0.464200
O301	O30	0.806800	0.241700	0.628700
O311	O31	0.447300	0.297800	0.635300
O321	O32	0.431500	0.180200	0.599400
O331	O33	0.834800	0.440100	0.287100
O341	O34	0.829200	0.328200	0.239800
O351	O35	0.195000	0.319800	0.684500
O361	O36	0.179700	0.217000	0.625100
O371	O37	0.325400	0.474200	0.183600
O381	O38	0.147000	0.483900	0.006000
O391	O39	0.471100	0.411400	0.000200
O401	O40	0.673400	0.445100	0.185100
O411	O41	0.669500	0.566900	0.205600
O421	O42	0.998000	0.542600	0.215100
O431	O43	0.894300	0.481900	0.153800
O441	O44	0.155900	0.389500	0.825300
O451	O45	0.303900	0.335400	0.816100
O461	O46	0.170200	0.109000	0.978600
O471	O47	0.493800	0.181900	0.964200
O481	O48	0.306800	0.258300	0.128700
O491	O49	0.947300	0.202200	0.135300
O501	O50	0.931500	0.319800	0.099400
O511	O51	0.334800	0.059900	0.787100
O521	O52	0.329200	0.171800	0.739800
O531	O53	0.695000	0.180200	0.184500
O541	O54	0.679700	0.283000	0.125100
O551	O55	0.674600	0.525800	0.683600
O561	O56	0.853000	0.516100	0.506000
O571	O57	0.528900	0.588600	0.500200
O581	O58	0.326600	0.554900	0.685100
O591	O59	0.330500	0.433100	0.705600
O601	O60	0.002000	0.457400	0.715100
O611	O61	0.105700	0.518100	0.653800
O621	O62	0.844100	0.610500	0.325300
O631	O63	0.696100	0.664600	0.316100
O641	O64	0.829800	0.891000	0.478600
O651	O65	0.506200	0.818100	0.464200
O661	O66	0.693200	0.741700	0.628700
O671	O67	0.052700	0.797800	0.635300
O681	O68	0.068500	0.680200	0.599400
O691	O69	0.665200	0.940100	0.287100
O701	O70	0.670800	0.828200	0.239800
O711	O71	0.305000	0.819800	0.684500
O721	O72	0.320300	0.717000	0.625100
