data_TOJVIZ_clean_PM
_symmetry_space_group_name_H-M	'P1'
_cell_length_a	17.280000
_cell_length_b	14.802000
_cell_length_c	14.365000
_cell_angle_alpha	90.000000
_cell_angle_beta	116.308000
_cell_angle_gamma	90.000000
_symmetry_Int_Tables_number 1

loop_
_symmetry_equiv_pos_as_xyz
'x,y,z'

loop_
_atom_site_label
_atom_site_type_symbol
_atom_site_fract_x
_atom_site_fract_y
_atom_site_fract_z
Co11	Co1	0.191390	0.483070	0.157610
Co21	Co2	0.200850	0.498480	0.414580
O11	O1	0.513600	0.418500	0.560600
O21	O2	0.126500	0.483200	0.994700
N11	N1	0.597000	0.427800	0.620300
N21	N2	0.041700	0.473700	0.939800
C11	C1	0.646700	0.351900	0.646600
H11	H1	0.621800	0.295400	0.623900
C21	C2	0.735000	0.359700	0.707700
H21	H2	0.769600	0.308400	0.723300
C31	C3	0.773100	0.444100	0.746200
C41	C4	0.717400	0.517300	0.718100
H31	H3	0.739800	0.574500	0.741200
C51	C5	0.631000	0.508200	0.657600
H41	H4	0.595500	0.558700	0.642200
C61	C6	0.007800	0.391200	0.914500
H51	H5	0.043900	0.341200	0.938600
C71	C7	0.921400	0.378100	0.853900
H61	H6	0.898700	0.320000	0.839200
C81	C8	0.866900	0.454900	0.813700
C91	C9	0.904700	0.539800	0.841200
H71	H7	0.871200	0.591400	0.815900
C101	C10	0.991200	0.547800	0.905400
H81	H8	0.015400	0.604800	0.925600
O31	O3	0.139800	0.607100	0.323600
O41	O4	0.107600	0.581900	0.157400
O51	O5	0.794700	0.913500	0.011000
O61	O6	0.772400	0.883000	0.150000
C111	C11	0.974600	0.916800	0.276300
H91	H9	0.928200	0.956500	0.254600
C121	C12	0.049600	0.938800	0.359500
H101	H10	0.053900	0.992700	0.394700
C131	C13	0.120400	0.880300	0.392300
H111	H11	0.172000	0.896600	0.448400
C141	C14	0.115300	0.798900	0.343300
H121	H12	0.162700	0.760300	0.367500
C151	C15	0.036400	0.773100	0.254200
C161	C16	0.965200	0.833100	0.220600
C171	C17	0.887300	0.810800	0.132800
C181	C18	0.883200	0.733900	0.078100
H131	H13	0.832700	0.719700	0.019400
C191	C19	0.954100	0.677200	0.109800
H141	H14	0.950300	0.625900	0.070400
C201	C20	0.029100	0.693600	0.196700
C211	C21	0.098900	0.620900	0.228900
C221	C22	0.811600	0.875000	0.095100
O71	O7	0.266400	0.392200	0.506600
O81	O8	0.281200	0.419700	0.666900
O91	O9	0.610500	0.089400	0.818400
O101	O10	0.608700	0.112800	0.665400
C231	C23	0.405700	0.068600	0.589300
H151	H15	0.451600	0.028300	0.609200
C241	C24	0.324500	0.040800	0.521800
H161	H16	0.315000	0.981400	0.498200
C251	C25	0.255500	0.102300	0.488300
H171	H17	0.201000	0.084200	0.439800
C261	C26	0.267600	0.187500	0.525900
H181	H18	0.221000	0.226900	0.503800
C271	C27	0.348500	0.217100	0.596400
C281	C28	0.420700	0.155800	0.628500
C291	C29	0.504200	0.184100	0.703600
C301	C30	0.515690	0.265690	0.753490
H191	H19	0.568900	0.280600	0.807600
C311	C31	0.444790	0.327360	0.721160
H201	H20	0.452800	0.383000	0.754200
C321	C32	0.365700	0.306610	0.643090
C331	C33	0.298870	0.377100	0.603170
C341	C34	0.581470	0.123850	0.731450
O111	O11	0.275410	0.477250	0.325160
H211	H21	0.319700	0.523300	0.343800
H221	H22	0.303700	0.418800	0.342700
Co31	Co3	0.691390	0.983070	0.157610
Co41	Co4	0.700850	0.998480	0.414580
O121	O12	0.013600	0.918500	0.560600
O131	O13	0.626500	0.983200	0.994700
N31	N3	0.097000	0.927800	0.620300
N41	N4	0.541700	0.973700	0.939800
C351	C35	0.146700	0.851900	0.646600
H231	H23	0.121800	0.795400	0.623900
C361	C36	0.235000	0.859700	0.707700
H241	H24	0.269600	0.808400	0.723300
C371	C37	0.273100	0.944100	0.746200
C381	C38	0.217400	0.017300	0.718100
H251	H25	0.239800	0.074500	0.741200
C391	C39	0.131000	0.008200	0.657600
H261	H26	0.095500	0.058700	0.642200
C401	C40	0.507800	0.891200	0.914500
H271	H27	0.543900	0.841200	0.938600
C411	C41	0.421400	0.878100	0.853900
H281	H28	0.398700	0.820000	0.839200
C421	C42	0.366900	0.954900	0.813700
C431	C43	0.404700	0.039800	0.841200
H291	H29	0.371200	0.091400	0.815900
C441	C44	0.491200	0.047800	0.905400
H301	H30	0.515400	0.104800	0.925600
O141	O14	0.639800	0.107100	0.323600
O151	O15	0.607600	0.081900	0.157400
O161	O16	0.294700	0.413500	0.011000
O171	O17	0.272400	0.383000	0.150000
C451	C45	0.474600	0.416800	0.276300
H311	H31	0.428200	0.456500	0.254600
C461	C46	0.549600	0.438800	0.359500
H321	H32	0.553900	0.492700	0.394700
C471	C47	0.620400	0.380300	0.392300
H331	H33	0.672000	0.396600	0.448400
C481	C48	0.615300	0.298900	0.343300
H341	H34	0.662700	0.260300	0.367500
C491	C49	0.536400	0.273100	0.254200
C501	C50	0.465200	0.333100	0.220600
C511	C51	0.387300	0.310800	0.132800
C521	C52	0.383200	0.233900	0.078100
H351	H35	0.332700	0.219700	0.019400
C531	C53	0.454100	0.177200	0.109800
H361	H36	0.450300	0.125900	0.070400
C541	C54	0.529100	0.193600	0.196700
C551	C55	0.598900	0.120900	0.228900
C561	C56	0.311600	0.375000	0.095100
O181	O18	0.766400	0.892200	0.506600
O191	O19	0.781200	0.919700	0.666900
O201	O20	0.110500	0.589400	0.818400
O211	O21	0.108700	0.612800	0.665400
C571	C57	0.905700	0.568600	0.589300
H371	H37	0.951600	0.528300	0.609200
C581	C58	0.824500	0.540800	0.521800
H381	H38	0.815000	0.481400	0.498200
C591	C59	0.755500	0.602300	0.488300
H391	H39	0.701000	0.584200	0.439800
C601	C60	0.767600	0.687500	0.525900
H401	H40	0.721000	0.726900	0.503800
C611	C61	0.848500	0.717100	0.596400
C621	C62	0.920700	0.655800	0.628500
C631	C63	0.004200	0.684100	0.703600
C641	C64	0.015690	0.765690	0.753490
H411	H41	0.068900	0.780600	0.807600
C651	C65	0.944790	0.827360	0.721160
H421	H42	0.952800	0.883000	0.754200
C661	C66	0.865700	0.806610	0.643090
C671	C67	0.798870	0.877100	0.603170
C681	C68	0.081470	0.623850	0.731450
O221	O22	0.775410	0.977250	0.325160
H431	H43	0.819700	0.023300	0.343800
H441	H44	0.803700	0.918800	0.342700
Co51	Co5	0.191390	0.516930	0.657610
Co61	Co6	0.200850	0.501520	0.914580
O231	O23	0.513600	0.581500	0.060600
O241	O24	0.126500	0.516800	0.494700
N51	N5	0.597000	0.572200	0.120300
N61	N6	0.041700	0.526300	0.439800
C691	C69	0.646700	0.648100	0.146600
H451	H45	0.621800	0.704600	0.123900
C701	C70	0.735000	0.640300	0.207700
H461	H46	0.769600	0.691600	0.223300
C711	C71	0.773100	0.555900	0.246200
C721	C72	0.717400	0.482700	0.218100
H471	H47	0.739800	0.425500	0.241200
C731	C73	0.631000	0.491800	0.157600
H481	H48	0.595500	0.441300	0.142200
C741	C74	0.007800	0.608800	0.414500
H491	H49	0.043900	0.658800	0.438600
C751	C75	0.921400	0.621900	0.353900
H501	H50	0.898700	0.680000	0.339200
C761	C76	0.866900	0.545100	0.313700
C771	C77	0.904700	0.460200	0.341200
H511	H51	0.871200	0.408600	0.315900
C781	C78	0.991200	0.452200	0.405400
H521	H52	0.015400	0.395200	0.425600
O251	O25	0.139800	0.392900	0.823600
O261	O26	0.107600	0.418100	0.657400
O271	O27	0.794700	0.086500	0.511000
O281	O28	0.772400	0.117000	0.650000
C791	C79	0.974600	0.083200	0.776300
H531	H53	0.928200	0.043500	0.754600
C801	C80	0.049600	0.061200	0.859500
H541	H54	0.053900	0.007300	0.894700
C811	C81	0.120400	0.119700	0.892300
H551	H55	0.172000	0.103400	0.948400
C821	C82	0.115300	0.201100	0.843300
H561	H56	0.162700	0.239700	0.867500
C831	C83	0.036400	0.226900	0.754200
C841	C84	0.965200	0.166900	0.720600
C851	C85	0.887300	0.189200	0.632800
C861	C86	0.883200	0.266100	0.578100
H571	H57	0.832700	0.280300	0.519400
C871	C87	0.954100	0.322800	0.609800
H581	H58	0.950300	0.374100	0.570400
C881	C88	0.029100	0.306400	0.696700
C891	C89	0.098900	0.379100	0.728900
C901	C90	0.811600	0.125000	0.595100
O291	O29	0.266400	0.607800	0.006600
O301	O30	0.281200	0.580300	0.166900
O311	O31	0.610500	0.910600	0.318400
O321	O32	0.608700	0.887200	0.165400
C911	C91	0.405700	0.931400	0.089300
H591	H59	0.451600	0.971700	0.109200
C921	C92	0.324500	0.959200	0.021800
H601	H60	0.315000	0.018600	0.998200
C931	C93	0.255500	0.897700	0.988300
H611	H61	0.201000	0.915800	0.939800
C941	C94	0.267600	0.812500	0.025900
H621	H62	0.221000	0.773100	0.003800
C951	C95	0.348500	0.782900	0.096400
C961	C96	0.420700	0.844200	0.128500
C971	C97	0.504200	0.815900	0.203600
C981	C98	0.515690	0.734310	0.253490
H631	H63	0.568900	0.719400	0.307600
C991	C99	0.444790	0.672640	0.221160
H641	H64	0.452800	0.617000	0.254200
C1001	C100	0.365700	0.693390	0.143090
C1011	C101	0.298870	0.622900	0.103170
C1021	C102	0.581470	0.876150	0.231450
O331	O33	0.275410	0.522750	0.825160
H651	H65	0.319700	0.476700	0.843800
H661	H66	0.303700	0.581200	0.842700
Co71	Co7	0.691390	0.016930	0.657610
Co81	Co8	0.700850	0.001520	0.914580
O341	O34	0.013600	0.081500	0.060600
O351	O35	0.626500	0.016800	0.494700
N71	N7	0.097000	0.072200	0.120300
N81	N8	0.541700	0.026300	0.439800
C1031	C103	0.146700	0.148100	0.146600
H671	H67	0.121800	0.204600	0.123900
C1041	C104	0.235000	0.140300	0.207700
H681	H68	0.269600	0.191600	0.223300
C1051	C105	0.273100	0.055900	0.246200
C1061	C106	0.217400	0.982700	0.218100
H691	H69	0.239800	0.925500	0.241200
C1071	C107	0.131000	0.991800	0.157600
H701	H70	0.095500	0.941300	0.142200
C1081	C108	0.507800	0.108800	0.414500
H711	H71	0.543900	0.158800	0.438600
C1091	C109	0.421400	0.121900	0.353900
H721	H72	0.398700	0.180000	0.339200
C1101	C110	0.366900	0.045100	0.313700
C1111	C111	0.404700	0.960200	0.341200
H731	H73	0.371200	0.908600	0.315900
C1121	C112	0.491200	0.952200	0.405400
H741	H74	0.515400	0.895200	0.425600
O361	O36	0.639800	0.892900	0.823600
O371	O37	0.607600	0.918100	0.657400
O381	O38	0.294700	0.586500	0.511000
O391	O39	0.272400	0.617000	0.650000
C1131	C113	0.474600	0.583200	0.776300
H751	H75	0.428200	0.543500	0.754600
C1141	C114	0.549600	0.561200	0.859500
H761	H76	0.553900	0.507300	0.894700
C1151	C115	0.620400	0.619700	0.892300
H771	H77	0.672000	0.603400	0.948400
C1161	C116	0.615300	0.701100	0.843300
H781	H78	0.662700	0.739700	0.867500
C1171	C117	0.536400	0.726900	0.754200
C1181	C118	0.465200	0.666900	0.720600
C1191	C119	0.387300	0.689200	0.632800
C1201	C120	0.383200	0.766100	0.578100
H791	H79	0.332700	0.780300	0.519400
C1211	C121	0.454100	0.822800	0.609800
H801	H80	0.450300	0.874100	0.570400
C1221	C122	0.529100	0.806400	0.696700
C1231	C123	0.598900	0.879100	0.728900
C1241	C124	0.311600	0.625000	0.595100
O401	O40	0.766400	0.107800	0.006600
O411	O41	0.781200	0.080300	0.166900
O421	O42	0.110500	0.410600	0.318400
O431	O43	0.108700	0.387200	0.165400
C1251	C125	0.905700	0.431400	0.089300
H811	H81	0.951600	0.471700	0.109200
C1261	C126	0.824500	0.459200	0.021800
H821	H82	0.815000	0.518600	0.998200
C1271	C127	0.755500	0.397700	0.988300
H831	H83	0.701000	0.415800	0.939800
C1281	C128	0.767600	0.312500	0.025900
H841	H84	0.721000	0.273100	0.003800
C1291	C129	0.848500	0.282900	0.096400
C1301	C130	0.920700	0.344200	0.128500
C1311	C131	0.004200	0.315900	0.203600
C1321	C132	0.015690	0.234310	0.253490
H851	H85	0.068900	0.219400	0.307600
C1331	C133	0.944790	0.172640	0.221160
H861	H86	0.952800	0.117000	0.254200
C1341	C134	0.865700	0.193390	0.143090
C1351	C135	0.798870	0.122900	0.103170
C1361	C136	0.081470	0.376150	0.231450
O441	O44	0.775410	0.022750	0.825160
H871	H87	0.819700	0.976700	0.843800
H881	H88	0.803700	0.081200	0.842700
