data_TONLOZ_clean_PM
_symmetry_space_group_name_H-M	'P1'
_cell_length_a	12.004700
_cell_length_b	10.956300
_cell_length_c	21.076700
_cell_angle_alpha	90.000000
_cell_angle_beta	106.389000
_cell_angle_gamma	90.000000
_symmetry_Int_Tables_number 1

loop_
_symmetry_equiv_pos_as_xyz
'x,y,z'

loop_
_atom_site_label
_atom_site_type_symbol
_atom_site_fract_x
_atom_site_fract_y
_atom_site_fract_z
Cd11	Cd1	0.636050	0.680640	0.960290
Ca11	Ca1	0.356220	0.554550	0.872720
O11	O1	0.627200	0.768800	0.865100
O21	O2	0.438100	0.724300	0.835040
O31	O3	0.220400	0.881200	0.590880
O41	O4	0.309700	0.773600	0.530280
O51	O5	0.731900	0.849500	0.658900
O61	O6	0.963400	0.968600	0.606970
O71	O7	0.781900	0.000400	0.549500
O81	O8	0.041700	0.677100	0.506710
O91	O9	0.944100	0.848700	0.478120
C11	C1	0.528300	0.762400	0.823600
C21	C2	0.522700	0.799700	0.753840
C31	C3	0.418800	0.806800	0.704100
H11	H1	0.348900	0.800500	0.714600
C41	C4	0.418200	0.823100	0.639060
C51	C5	0.523100	0.832900	0.623200
H21	H2	0.523400	0.839900	0.579300
C61	C6	0.625800	0.832200	0.672800
C71	C7	0.627300	0.816500	0.738200
H31	H3	0.697300	0.817000	0.771400
C81	C8	0.307800	0.825900	0.583000
C91	C9	0.765600	0.760400	0.621300
C101	C10	0.836300	0.798600	0.582900
C111	C11	0.881600	0.711100	0.549300
C121	C12	0.857400	0.588100	0.554600
H41	H4	0.890300	0.529800	0.533300
C131	C13	0.784100	0.552600	0.591700
H51	H5	0.765700	0.470600	0.593900
C141	C14	0.738400	0.638300	0.625300
H61	H6	0.689700	0.614200	0.650300
C151	C15	0.862800	0.932000	0.579500
C161	C16	0.959600	0.747000	0.508400
Cd21	Cd2	0.863950	0.180640	0.539710
Ca21	Ca2	0.143780	0.054550	0.627280
O101	O10	0.872800	0.268800	0.634900
O111	O11	0.061900	0.224300	0.664960
O121	O12	0.279600	0.381200	0.909120
O131	O13	0.190300	0.273600	0.969720
O141	O14	0.768100	0.349500	0.841100
O151	O15	0.536600	0.468600	0.893030
O161	O16	0.718100	0.500400	0.950500
O171	O17	0.458300	0.177100	0.993290
O181	O18	0.555900	0.348700	0.021880
C171	C17	0.971700	0.262400	0.676400
C181	C18	0.977300	0.299700	0.746160
C191	C19	0.081200	0.306800	0.795900
H71	H7	0.151100	0.300500	0.785400
C201	C20	0.081800	0.323100	0.860940
C211	C21	0.976900	0.332900	0.876800
H81	H8	0.976600	0.339900	0.920700
C221	C22	0.874200	0.332200	0.827200
C231	C23	0.872700	0.316500	0.761800
H91	H9	0.802700	0.317000	0.728600
C241	C24	0.192200	0.325900	0.917000
C251	C25	0.734400	0.260400	0.878700
C261	C26	0.663700	0.298600	0.917100
C271	C27	0.618400	0.211100	0.950700
C281	C28	0.642600	0.088100	0.945400
H101	H10	0.609700	0.029800	0.966700
C291	C29	0.715900	0.052600	0.908300
H111	H11	0.734300	0.970600	0.906100
C301	C30	0.761600	0.138300	0.874700
H121	H12	0.810300	0.114200	0.849700
C311	C31	0.637200	0.432000	0.920500
C321	C32	0.540400	0.247000	0.991600
Cd31	Cd3	0.363950	0.319360	0.039710
Ca31	Ca3	0.643780	0.445450	0.127280
O191	O19	0.372800	0.231200	0.134900
O201	O20	0.561900	0.275700	0.164960
O211	O21	0.779600	0.118800	0.409120
O221	O22	0.690300	0.226400	0.469720
O231	O23	0.268100	0.150500	0.341100
O241	O24	0.036600	0.031400	0.393030
O251	O25	0.218100	0.999600	0.450500
O261	O26	0.958300	0.322900	0.493290
O271	O27	0.055900	0.151300	0.521880
C331	C33	0.471700	0.237600	0.176400
C341	C34	0.477300	0.200300	0.246160
C351	C35	0.581200	0.193200	0.295900
H131	H13	0.651100	0.199500	0.285400
C361	C36	0.581800	0.176900	0.360940
C371	C37	0.476900	0.167100	0.376800
H141	H14	0.476600	0.160100	0.420700
C381	C38	0.374200	0.167800	0.327200
C391	C39	0.372700	0.183500	0.261800
H151	H15	0.302700	0.183000	0.228600
C401	C40	0.692200	0.174100	0.417000
C411	C41	0.234400	0.239600	0.378700
C421	C42	0.163700	0.201400	0.417100
C431	C43	0.118400	0.288900	0.450700
C441	C44	0.142600	0.411900	0.445400
H161	H16	0.109700	0.470200	0.466700
C451	C45	0.215900	0.447400	0.408300
H171	H17	0.234300	0.529400	0.406100
C461	C46	0.261600	0.361700	0.374700
H181	H18	0.310300	0.385800	0.349700
C471	C47	0.137200	0.068000	0.420500
C481	C48	0.040400	0.253000	0.491600
Cd41	Cd4	0.136050	0.819360	0.460290
Ca41	Ca4	0.856220	0.945450	0.372720
O281	O28	0.127200	0.731200	0.365100
O291	O29	0.938100	0.775700	0.335040
O301	O30	0.720400	0.618800	0.090880
O311	O31	0.809700	0.726400	0.030280
O321	O32	0.231900	0.650500	0.158900
O331	O33	0.463400	0.531400	0.106970
O341	O34	0.281900	0.499600	0.049500
O351	O35	0.541700	0.822900	0.006710
O361	O36	0.444100	0.651300	0.978120
C491	C49	0.028300	0.737600	0.323600
C501	C50	0.022700	0.700300	0.253840
C511	C51	0.918800	0.693200	0.204100
H191	H19	0.848900	0.699500	0.214600
C521	C52	0.918200	0.676900	0.139060
C531	C53	0.023100	0.667100	0.123200
H201	H20	0.023400	0.660100	0.079300
C541	C54	0.125800	0.667800	0.172800
C551	C55	0.127300	0.683500	0.238200
H211	H21	0.197300	0.683000	0.271400
C561	C56	0.807800	0.674100	0.083000
C571	C57	0.265600	0.739600	0.121300
C581	C58	0.336300	0.701400	0.082900
C591	C59	0.381600	0.788900	0.049300
C601	C60	0.357400	0.911900	0.054600
H221	H22	0.390300	0.970200	0.033300
C611	C61	0.284100	0.947400	0.091700
H231	H23	0.265700	0.029400	0.093900
C621	C62	0.238400	0.861700	0.125300
H241	H24	0.189700	0.885800	0.150300
C631	C63	0.362800	0.568000	0.079500
C641	C64	0.459600	0.753000	0.008400
