data_TONMAM_clean_PM
_symmetry_space_group_name_H-M	'P1'
_cell_length_a	10.272600
_cell_length_b	13.334600
_cell_length_c	15.274500
_cell_angle_alpha	100.554000
_cell_angle_beta	107.524000
_cell_angle_gamma	99.341000
_symmetry_Int_Tables_number 1

loop_
_symmetry_equiv_pos_as_xyz
'x,y,z'

loop_
_atom_site_label
_atom_site_type_symbol
_atom_site_fract_x
_atom_site_fract_y
_atom_site_fract_z
Ba11	Ba1	0.527880	0.820200	0.490160
Ba21	Ba2	0.088450	0.925030	0.391520
C11	C1	0.782700	0.617900	0.923000
C21	C2	0.153300	0.759900	0.980000
C31	C3	0.759600	0.695700	0.875900
H11	H1	0.768200	0.763700	0.909000
C41	C4	0.094800	0.736300	0.881200
C51	C5	0.723400	0.670600	0.778000
C61	C6	0.773200	0.517600	0.875600
H21	H2	0.793000	0.467000	0.909000
C71	C7	0.136700	0.939600	0.986400
H31	H3	0.150900	0.007500	0.022000
C81	C8	0.734000	0.492000	0.777800
C91	C9	0.056900	0.814600	0.836500
H41	H4	0.018400	0.799000	0.770800
C101	C10	0.076100	0.915300	0.889000
C111	C11	0.175700	0.862500	0.030200
C121	C12	0.914600	0.702500	0.210300
C131	C13	0.709600	0.569300	0.729600
H51	H5	0.683700	0.552700	0.663900
C141	C14	0.458800	0.950600	0.254100
C151	C15	0.074800	0.629700	0.820700
C161	C16	0.576200	0.633000	0.003900
H61	H6	0.547900	0.608400	0.938500
C171	C17	0.369600	0.950200	0.316700
C181	C18	0.715600	0.655100	0.058100
C191	C19	0.715500	0.382800	0.723900
C201	C20	0.662100	0.706600	0.200000
C211	C21	0.761000	0.689800	0.156600
C221	C22	0.703800	0.751300	0.305200
C231	C23	0.389300	0.920800	0.156800
C241	C24	0.699300	0.750900	0.722500
C251	C25	0.462100	0.922400	0.093800
H71	H7	0.414100	0.902900	0.028900
C261	C26	0.036900	0.997300	0.837300
C271	C27	0.690800	0.010300	0.392700
C281	C28	0.605800	0.980400	0.288800
C291	C29	0.677300	0.980700	0.224800
H81	H8	0.774800	0.999800	0.247200
C301	C30	0.521100	0.684800	0.144300
H91	H9	0.454600	0.695500	0.172800
C311	C31	0.606100	0.953200	0.128700
H101	H10	0.655800	0.955400	0.087000
C321	C32	0.478600	0.647600	0.047200
H111	H11	0.383900	0.632400	0.011000
O11	O1	0.072900	0.091900	0.891000
H121	H12	0.051000	0.128000	0.858000
O21	O2	0.978200	0.974000	0.751900
O31	O3	0.826700	0.859500	0.531000
H131	H13	0.843600	0.841700	0.479900
H141	H14	0.868800	0.822600	0.564900
O41	O4	0.669200	0.731200	0.637300
O51	O5	0.712900	0.844200	0.774900
H151	H15	0.687000	0.880000	0.739000
O61	O6	0.751000	0.319900	0.778700
H161	H16	0.738000	0.269000	0.751000
O71	O7	0.670400	0.356700	0.637900
O81	O8	0.821300	0.641400	0.021400
O91	O9	0.831100	0.791900	0.351100
O101	O10	0.608700	0.746800	0.340500
O111	O11	0.950700	0.628400	0.242700
O121	O12	0.997800	0.786400	0.217100
O131	O13	0.244500	0.889400	0.128270
O141	O14	0.113000	0.561200	0.869400
H171	H17	0.093000	0.501000	0.826000
O151	O15	0.029900	0.609100	0.735300
O161	O16	0.332400	0.867900	0.340700
O171	O17	0.625700	0.013900	0.452000
O181	O18	0.821700	0.027900	0.415700
O191	O19	0.328700	0.031900	0.339100
Ba31	Ba3	0.472120	0.179800	0.509840
Ba41	Ba4	0.911550	0.074970	0.608480
C331	C33	0.217300	0.382100	0.077000
C341	C34	0.846700	0.240100	0.020000
C351	C35	0.240400	0.304300	0.124100
H181	H18	0.231800	0.236300	0.091000
C361	C36	0.905200	0.263700	0.118800
C371	C37	0.276600	0.329400	0.222000
C381	C38	0.226800	0.482400	0.124400
H191	H19	0.207000	0.533000	0.091000
C391	C39	0.863300	0.060400	0.013600
H201	H20	0.849100	0.992500	0.978000
C401	C40	0.266000	0.508000	0.222200
C411	C41	0.943100	0.185400	0.163500
H211	H21	0.981600	0.201000	0.229200
C421	C42	0.923900	0.084700	0.111000
C431	C43	0.824300	0.137500	0.969800
C441	C44	0.085400	0.297500	0.789700
C451	C45	0.290400	0.430700	0.270400
H221	H22	0.316300	0.447300	0.336100
C461	C46	0.541200	0.049400	0.745900
C471	C47	0.925200	0.370300	0.179300
C481	C48	0.423800	0.367000	0.996100
H231	H23	0.452100	0.391600	0.061500
C491	C49	0.630400	0.049800	0.683300
C501	C50	0.284400	0.344900	0.941900
C511	C51	0.284500	0.617200	0.276100
C521	C52	0.337900	0.293400	0.800000
C531	C53	0.239000	0.310200	0.843400
C541	C54	0.296200	0.248700	0.694800
C551	C55	0.610700	0.079200	0.843200
C561	C56	0.300700	0.249100	0.277500
C571	C57	0.537900	0.077600	0.906200
H241	H24	0.585900	0.097100	0.971100
C581	C58	0.963100	0.002700	0.162700
C591	C59	0.309200	0.989700	0.607300
C601	C60	0.394200	0.019600	0.711200
C611	C61	0.322700	0.019300	0.775200
H251	H25	0.225200	0.000200	0.752800
C621	C62	0.478900	0.315200	0.855700
H261	H26	0.545400	0.304500	0.827200
C631	C63	0.393900	0.046800	0.871300
H271	H27	0.344200	0.044600	0.913000
C641	C64	0.521400	0.352400	0.952800
H281	H28	0.616100	0.367600	0.989000
O201	O20	0.927100	0.908100	0.109000
H291	H29	0.949000	0.872000	0.142000
O211	O21	0.021800	0.026000	0.248100
O221	O22	0.173300	0.140500	0.469000
H301	H30	0.156400	0.158300	0.520100
H311	H31	0.131200	0.177400	0.435100
O231	O23	0.330800	0.268800	0.362700
O241	O24	0.287100	0.155800	0.225100
H321	H32	0.313000	0.120000	0.261000
O251	O25	0.249000	0.680100	0.221300
H331	H33	0.262000	0.731000	0.249000
O261	O26	0.329600	0.643300	0.362100
O271	O27	0.178700	0.358600	0.978600
O281	O28	0.168900	0.208100	0.648900
O291	O29	0.391300	0.253200	0.659500
O301	O30	0.049300	0.371600	0.757300
O311	O31	0.002200	0.213600	0.782900
O321	O32	0.755500	0.110600	0.871730
O331	O33	0.887000	0.438800	0.130600
H341	H34	0.907000	0.499000	0.174000
O341	O34	0.970100	0.390900	0.264700
O351	O35	0.667600	0.132100	0.659300
O361	O36	0.374300	0.986100	0.548000
O371	O37	0.178300	0.972100	0.584300
O381	O38	0.671300	0.968100	0.660900
