data_TONQOD_clean_PM
_symmetry_space_group_name_H-M	'P1'
_cell_length_a	9.294500
_cell_length_b	19.430500
_cell_length_c	19.430500
_cell_angle_alpha	67.729100
_cell_angle_beta	76.162300
_cell_angle_gamma	76.162400
_symmetry_Int_Tables_number 1

loop_
_symmetry_equiv_pos_as_xyz
'x,y,z'

loop_
_atom_site_label
_atom_site_type_symbol
_atom_site_fract_x
_atom_site_fract_y
_atom_site_fract_z
Zn11	Zn1	0.638760	0.514010	0.514010
Zn21	Zn2	0.166780	0.985990	0.985990
Zn31	Zn3	0.833220	0.014010	0.014010
Zn41	Zn4	0.361240	0.485990	0.485990
H11	H1	0.893100	0.551000	0.286400
H21	H2	0.013700	0.548800	0.167400
H31	H3	0.647800	0.486500	0.141500
H41	H4	0.527500	0.492800	0.259000
H51	H5	0.230500	0.949000	0.213600
H61	H6	0.229900	0.951200	0.332600
H71	H7	0.775800	0.013500	0.358500
H81	H8	0.779300	0.007200	0.241000
H91	H9	0.769500	0.786400	0.051000
H101	H10	0.770100	0.667400	0.048800
H111	H11	0.224200	0.641500	0.986500
H121	H12	0.220700	0.759000	0.992800
H131	H13	0.106900	0.713600	0.449000
H141	H14	0.986300	0.832600	0.451200
H151	H15	0.352200	0.858500	0.513500
H161	H16	0.472500	0.741000	0.507200
H171	H17	0.106900	0.449000	0.713600
H181	H18	0.986300	0.451200	0.832600
H191	H19	0.352200	0.513500	0.858500
H201	H20	0.472500	0.507200	0.741000
H211	H21	0.769500	0.051000	0.786400
H221	H22	0.770100	0.048800	0.667400
H231	H23	0.224200	0.986500	0.641500
H241	H24	0.220700	0.992800	0.759000
H251	H25	0.230500	0.213600	0.949000
H261	H26	0.229900	0.332600	0.951200
H271	H27	0.775800	0.358500	0.013500
H281	H28	0.779300	0.241000	0.007200
H291	H29	0.893100	0.286400	0.551000
H301	H30	0.013700	0.167400	0.548800
H311	H31	0.647800	0.141500	0.486500
H321	H32	0.527500	0.259000	0.492800
H331	H33	0.865100	0.409900	0.090100
H341	H34	0.865100	0.090100	0.409900
H351	H35	0.134900	0.590100	0.909900
H361	H36	0.134900	0.909900	0.590100
C11	C1	0.624330	0.521970	0.362370
C21	C2	0.697570	0.522230	0.284430
C31	C3	0.842940	0.538590	0.256530
C41	C4	0.915150	0.536850	0.186250
C51	C5	0.840030	0.517170	0.142170
C61	C6	0.697870	0.500330	0.170330
C71	C7	0.626790	0.503610	0.240610
C81	C8	0.921850	0.510550	0.068150
C91	C9	0.008670	0.978030	0.137630
C101	C10	0.004230	0.977770	0.215570
C111	C11	0.138060	0.961410	0.243470
C121	C12	0.138250	0.963150	0.313750
C131	C13	0.999370	0.982830	0.357830
C141	C14	0.868530	0.999670	0.329670
C151	C15	0.871010	0.996390	0.259390
C161	C16	0.000550	0.989450	0.431850
C171	C17	0.991330	0.862370	0.021970
C181	C18	0.995770	0.784430	0.022230
C191	C19	0.861940	0.756530	0.038590
C201	C20	0.861750	0.686250	0.036850
C211	C21	0.000630	0.642170	0.017170
C221	C22	0.131470	0.670330	0.000330
C231	C23	0.128990	0.740610	0.003610
C241	C24	0.999450	0.568150	0.010550
C251	C25	0.375670	0.637630	0.478030
C261	C26	0.302430	0.715570	0.477770
C271	C27	0.157060	0.743470	0.461410
C281	C28	0.084850	0.813750	0.463150
C291	C29	0.159970	0.857830	0.482830
C301	C30	0.302130	0.829670	0.499670
C311	C31	0.373210	0.759390	0.496390
C321	C32	0.078150	0.931850	0.489450
C331	C33	0.375670	0.478030	0.637630
C341	C34	0.302430	0.477770	0.715570
C351	C35	0.157060	0.461410	0.743470
C361	C36	0.084850	0.463150	0.813750
C371	C37	0.159970	0.482830	0.857830
C381	C38	0.302130	0.499670	0.829670
C391	C39	0.373210	0.496390	0.759390
C401	C40	0.078150	0.489450	0.931850
C411	C41	0.991330	0.021970	0.862370
C421	C42	0.995770	0.022230	0.784430
C431	C43	0.861940	0.038590	0.756530
C441	C44	0.861750	0.036850	0.686250
C451	C45	0.000630	0.017170	0.642170
C461	C46	0.131470	0.000330	0.670330
C471	C47	0.128990	0.003610	0.740610
C481	C48	0.999450	0.010550	0.568150
C491	C49	0.008670	0.137630	0.978030
C501	C50	0.004230	0.215570	0.977770
C511	C51	0.138060	0.243470	0.961410
C521	C52	0.138250	0.313750	0.963150
C531	C53	0.999370	0.357830	0.982830
C541	C54	0.868530	0.329670	0.999670
C551	C55	0.871010	0.259390	0.996390
C561	C56	0.000550	0.431850	0.989450
C571	C57	0.624330	0.362370	0.521970
C581	C58	0.697570	0.284430	0.522230
C591	C59	0.842940	0.256530	0.538590
C601	C60	0.915150	0.186250	0.536850
C611	C61	0.840030	0.142170	0.517170
C621	C62	0.697870	0.170330	0.500330
C631	C63	0.626790	0.240610	0.503610
C641	C64	0.921850	0.068150	0.510550
C651	C65	0.922200	0.446300	0.053700
C661	C66	0.922200	0.053700	0.446300
C671	C67	0.077800	0.553700	0.946300
C681	C68	0.077800	0.946300	0.553700
O11	O1	0.702070	0.530390	0.401670
O21	O2	0.490690	0.511080	0.381340
O31	O3	0.134130	0.969610	0.098330
O41	O4	0.883110	0.988920	0.118660
O51	O5	0.865870	0.901670	0.030390
O61	O6	0.116890	0.881340	0.011080
O71	O7	0.297930	0.598330	0.469610
O81	O8	0.509310	0.618660	0.488920
O91	O9	0.297930	0.469610	0.598330
O101	O10	0.509310	0.488920	0.618660
O111	O11	0.865870	0.030390	0.901670
O121	O12	0.116890	0.011080	0.881340
O131	O13	0.134130	0.098330	0.969610
O141	O14	0.883110	0.118660	0.988920
O151	O15	0.702070	0.401670	0.530390
O161	O16	0.490690	0.381340	0.511080
