data_TONTUN_clean_PM
_symmetry_space_group_name_H-M	'P1'
_cell_length_a	12.871700
_cell_length_b	12.871700
_cell_length_c	61.931000
_cell_angle_alpha	90.000000
_cell_angle_beta	90.000000
_cell_angle_gamma	120.000000
_symmetry_Int_Tables_number 1

loop_
_symmetry_equiv_pos_as_xyz
'x,y,z'

loop_
_atom_site_label
_atom_site_type_symbol
_atom_site_fract_x
_atom_site_fract_y
_atom_site_fract_z
N11	N1	0.334020	0.801580	0.021720
N21	N2	0.540830	0.194820	0.015680
C11	C1	0.365890	0.895490	0.029150
C21	C2	0.480260	0.109490	0.025620
C31	C3	0.407350	0.009030	0.038240
C41	C4	0.389770	0.023750	0.061160
C51	C5	0.288370	0.938820	0.072530
C61	C6	0.474700	0.125150	0.072540
H11	H1	0.230700	0.870200	0.065400
H21	H2	0.544400	0.186800	0.065800
N31	N3	0.000690	0.134910	0.355050
N41	N4	0.207500	0.528150	0.349010
C71	C7	0.032560	0.228820	0.362480
C81	C8	0.146930	0.442820	0.358950
C91	C9	0.074020	0.342360	0.371570
C101	C10	0.056440	0.357080	0.394490
C111	C11	0.955040	0.272150	0.405860
C121	C12	0.141370	0.458480	0.405870
H31	H3	0.897370	0.203530	0.398730
H41	H4	0.211070	0.520130	0.399130
N51	N5	0.667350	0.468250	0.688390
N61	N6	0.874160	0.861490	0.682350
C131	C13	0.699220	0.562160	0.695820
C141	C14	0.813590	0.776160	0.692290
C151	C15	0.740680	0.675700	0.704910
C161	C16	0.723100	0.690420	0.727830
C171	C17	0.621700	0.605490	0.739200
C181	C18	0.808030	0.791820	0.739210
H51	H5	0.564030	0.536870	0.732070
H61	H6	0.877730	0.853470	0.732470
N71	N7	0.198420	0.532440	0.021720
N81	N8	0.805180	0.346010	0.015680
C191	C19	0.104510	0.470400	0.029150
C201	C20	0.890510	0.370770	0.025620
C211	C21	0.990970	0.398320	0.038240
C221	C22	0.976250	0.366020	0.061160
C231	C23	0.061180	0.349550	0.072530
C241	C24	0.874850	0.349550	0.072540
H71	H7	0.129800	0.360500	0.065400
H81	H8	0.813200	0.357600	0.065800
N91	N9	0.865090	0.865770	0.355050
N101	N10	0.471850	0.679340	0.349010
C251	C25	0.771180	0.803730	0.362480
C261	C26	0.557180	0.704100	0.358950
C271	C27	0.657640	0.731650	0.371570
C281	C28	0.642920	0.699350	0.394490
C291	C29	0.727850	0.682880	0.405860
C301	C30	0.541520	0.682880	0.405870
H91	H9	0.796470	0.693830	0.398730
H101	H10	0.479870	0.690930	0.399130
N111	N11	0.531750	0.199110	0.688390
N121	N12	0.138510	0.012680	0.682350
C311	C31	0.437840	0.137070	0.695820
C321	C32	0.223840	0.037440	0.692290
C331	C33	0.324300	0.064990	0.704910
C341	C34	0.309580	0.032690	0.727830
C351	C35	0.394510	0.016220	0.739200
C361	C36	0.208180	0.016220	0.739210
H111	H11	0.463130	0.027170	0.732070
H121	H12	0.146530	0.024270	0.732470
N131	N13	0.467560	0.665980	0.021720
N141	N14	0.653990	0.459170	0.015680
C371	C37	0.529600	0.634110	0.029150
C381	C38	0.629230	0.519740	0.025620
C391	C39	0.601680	0.592650	0.038240
C401	C40	0.633980	0.610230	0.061160
C411	C41	0.650450	0.711630	0.072530
C421	C42	0.650450	0.525300	0.072540
H131	H13	0.639500	0.769300	0.065400
H141	H14	0.642400	0.455600	0.065800
N151	N15	0.134230	0.999310	0.355050
N161	N16	0.320660	0.792500	0.349010
C431	C43	0.196270	0.967440	0.362480
C441	C44	0.295900	0.853070	0.358950
C451	C45	0.268350	0.925980	0.371570
C461	C46	0.300650	0.943560	0.394490
C471	C47	0.317120	0.044960	0.405860
C481	C48	0.317120	0.858630	0.405870
H151	H15	0.306170	0.102630	0.398730
H161	H16	0.309070	0.788930	0.399130
N171	N17	0.800890	0.332650	0.688390
N181	N18	0.987320	0.125840	0.682350
C491	C49	0.862930	0.300780	0.695820
C501	C50	0.962560	0.186410	0.692290
C511	C51	0.935010	0.259320	0.704910
C521	C52	0.967310	0.276900	0.727830
C531	C53	0.983780	0.378300	0.739200
C541	C54	0.983780	0.191970	0.739210
H171	H17	0.972830	0.435970	0.732070
H181	H18	0.975730	0.122270	0.732470
N191	N19	0.801580	0.334020	0.478280
N201	N20	0.194820	0.540830	0.484320
C551	C55	0.895490	0.365890	0.470850
C561	C56	0.109490	0.480260	0.474380
C571	C57	0.009030	0.407350	0.461760
C581	C58	0.023750	0.389770	0.438840
C591	C59	0.938820	0.288370	0.427470
C601	C60	0.125150	0.474700	0.427460
H191	H19	0.870200	0.230700	0.434600
H201	H20	0.186800	0.544400	0.434200
N211	N21	0.468250	0.667350	0.811610
N221	N22	0.861490	0.874160	0.817650
C611	C61	0.562160	0.699220	0.804180
C621	C62	0.776160	0.813590	0.807710
C631	C63	0.675700	0.740680	0.795090
C641	C64	0.690420	0.723100	0.772170
C651	C65	0.605490	0.621700	0.760800
C661	C66	0.791820	0.808030	0.760790
H211	H21	0.536870	0.564030	0.767930
H221	H22	0.853470	0.877730	0.767530
N231	N23	0.134910	0.000690	0.144950
N241	N24	0.528150	0.207500	0.150990
C671	C67	0.228820	0.032560	0.137520
C681	C68	0.442820	0.146930	0.141050
C691	C69	0.342360	0.074020	0.128430
C701	C70	0.357080	0.056440	0.105510
C711	C71	0.272150	0.955040	0.094140
C721	C72	0.458480	0.141370	0.094130
H231	H23	0.203530	0.897370	0.101270
H241	H24	0.520130	0.211070	0.100870
N251	N25	0.532440	0.198420	0.478280
N261	N26	0.346010	0.805180	0.484320
C731	C73	0.470400	0.104510	0.470850
C741	C74	0.370770	0.890510	0.474380
C751	C75	0.398320	0.990970	0.461760
C761	C76	0.366020	0.976250	0.438840
C771	C77	0.349550	0.061180	0.427470
C781	C78	0.349550	0.874850	0.427460
H251	H25	0.360500	0.129800	0.434600
H261	H26	0.357600	0.813200	0.434200
N271	N27	0.199110	0.531750	0.811610
N281	N28	0.012680	0.138510	0.817650
C791	C79	0.137070	0.437840	0.804180
C801	C80	0.037440	0.223840	0.807710
C811	C81	0.064990	0.324300	0.795090
C821	C82	0.032690	0.309580	0.772170
C831	C83	0.016220	0.394510	0.760800
C841	C84	0.016220	0.208180	0.760790
H271	H27	0.027170	0.463130	0.767930
H281	H28	0.024270	0.146530	0.767530
N291	N29	0.865770	0.865090	0.144950
N301	N30	0.679340	0.471850	0.150990
C851	C85	0.803730	0.771180	0.137520
C861	C86	0.704100	0.557180	0.141050
C871	C87	0.731650	0.657640	0.128430
C881	C88	0.699350	0.642920	0.105510
C891	C89	0.682880	0.727850	0.094140
C901	C90	0.682880	0.541520	0.094130
H291	H29	0.693830	0.796470	0.101270
H301	H30	0.690930	0.479870	0.100870
N311	N31	0.665980	0.467560	0.478280
N321	N32	0.459170	0.653990	0.484320
C911	C91	0.634110	0.529600	0.470850
C921	C92	0.519740	0.629230	0.474380
C931	C93	0.592650	0.601680	0.461760
C941	C94	0.610230	0.633980	0.438840
C951	C95	0.711630	0.650450	0.427470
C961	C96	0.525300	0.650450	0.427460
H311	H31	0.769300	0.639500	0.434600
H321	H32	0.455600	0.642400	0.434200
N331	N33	0.332650	0.800890	0.811610
N341	N34	0.125840	0.987320	0.817650
C971	C97	0.300780	0.862930	0.804180
C981	C98	0.186410	0.962560	0.807710
C991	C99	0.259320	0.935010	0.795090
C1001	C100	0.276900	0.967310	0.772170
C1011	C101	0.378300	0.983780	0.760800
C1021	C102	0.191970	0.983780	0.760790
H331	H33	0.435970	0.972830	0.767930
H341	H34	0.122270	0.975730	0.767530
N351	N35	0.999310	0.134230	0.144950
N361	N36	0.792500	0.320660	0.150990
C1031	C103	0.967440	0.196270	0.137520
C1041	C104	0.853070	0.295900	0.141050
C1051	C105	0.925980	0.268350	0.128430
C1061	C106	0.943560	0.300650	0.105510
C1071	C107	0.044960	0.317120	0.094140
C1081	C108	0.858630	0.317120	0.094130
H351	H35	0.102630	0.306170	0.101270
H361	H36	0.788930	0.309070	0.100870
N371	N37	0.665980	0.198420	0.978280
N381	N38	0.459170	0.805180	0.984320
C1091	C109	0.634110	0.104510	0.970850
C1101	C110	0.519740	0.890510	0.974380
C1111	C111	0.592650	0.990970	0.961760
C1121	C112	0.610230	0.976250	0.938840
C1131	C113	0.711630	0.061180	0.927470
C1141	C114	0.525300	0.874850	0.927460
H371	H37	0.769300	0.129800	0.934600
H381	H38	0.455600	0.813200	0.934200
N391	N39	0.332650	0.531750	0.311610
N401	N40	0.125840	0.138510	0.317650
C1151	C115	0.300780	0.437840	0.304180
C1161	C116	0.186410	0.223840	0.307710
C1171	C117	0.259320	0.324300	0.295090
C1181	C118	0.276900	0.309580	0.272170
C1191	C119	0.378300	0.394510	0.260800
C1201	C120	0.191970	0.208180	0.260790
H391	H39	0.435970	0.463130	0.267930
H401	H40	0.122270	0.146530	0.267530
N411	N41	0.999310	0.865090	0.644950
N421	N42	0.792500	0.471850	0.650990
C1211	C121	0.967440	0.771180	0.637520
C1221	C122	0.853070	0.557180	0.641050
C1231	C123	0.925980	0.657640	0.628430
C1241	C124	0.943560	0.642920	0.605510
C1251	C125	0.044960	0.727850	0.594140
C1261	C126	0.858630	0.541520	0.594130
H411	H41	0.102630	0.796470	0.601270
H421	H42	0.788930	0.479870	0.600870
N431	N43	0.801580	0.467560	0.978280
N441	N44	0.194820	0.653990	0.984320
C1271	C127	0.895490	0.529600	0.970850
C1281	C128	0.109490	0.629230	0.974380
C1291	C129	0.009030	0.601680	0.961760
C1301	C130	0.023750	0.633980	0.938840
C1311	C131	0.938820	0.650450	0.927470
C1321	C132	0.125150	0.650450	0.927460
H431	H43	0.870200	0.639500	0.934600
H441	H44	0.186800	0.642400	0.934200
N451	N45	0.468250	0.800890	0.311610
N461	N46	0.861490	0.987320	0.317650
C1331	C133	0.562160	0.862930	0.304180
C1341	C134	0.776160	0.962560	0.307710
C1351	C135	0.675700	0.935010	0.295090
C1361	C136	0.690420	0.967310	0.272170
C1371	C137	0.605490	0.983780	0.260800
C1381	C138	0.791820	0.983780	0.260790
H451	H45	0.536870	0.972830	0.267930
H461	H46	0.853470	0.975730	0.267530
N471	N47	0.134910	0.134230	0.644950
N481	N48	0.528150	0.320660	0.650990
C1391	C139	0.228820	0.196270	0.637520
C1401	C140	0.442820	0.295900	0.641050
C1411	C141	0.342360	0.268350	0.628430
C1421	C142	0.357080	0.300650	0.605510
C1431	C143	0.272150	0.317120	0.594140
C1441	C144	0.458480	0.317120	0.594130
H471	H47	0.203530	0.306170	0.601270
H481	H48	0.520130	0.309070	0.600870
N491	N49	0.532440	0.334020	0.978280
N501	N50	0.346010	0.540830	0.984320
C1451	C145	0.470400	0.365890	0.970850
C1461	C146	0.370770	0.480260	0.974380
C1471	C147	0.398320	0.407350	0.961760
C1481	C148	0.366020	0.389770	0.938840
C1491	C149	0.349550	0.288370	0.927470
C1501	C150	0.349550	0.474700	0.927460
H491	H49	0.360500	0.230700	0.934600
H501	H50	0.357600	0.544400	0.934200
N511	N51	0.199110	0.667350	0.311610
N521	N52	0.012680	0.874160	0.317650
C1511	C151	0.137070	0.699220	0.304180
C1521	C152	0.037440	0.813590	0.307710
C1531	C153	0.064990	0.740680	0.295090
C1541	C154	0.032690	0.723100	0.272170
C1551	C155	0.016220	0.621700	0.260800
C1561	C156	0.016220	0.808030	0.260790
H511	H51	0.027170	0.564030	0.267930
H521	H52	0.024270	0.877730	0.267530
N531	N53	0.865770	0.000690	0.644950
N541	N54	0.679340	0.207500	0.650990
C1571	C157	0.803730	0.032560	0.637520
C1581	C158	0.704100	0.146930	0.641050
C1591	C159	0.731650	0.074020	0.628430
C1601	C160	0.699350	0.056440	0.605510
C1611	C161	0.682880	0.955040	0.594140
C1621	C162	0.682880	0.141370	0.594130
H531	H53	0.693830	0.897370	0.601270
H541	H54	0.690930	0.211070	0.600870
N551	N55	0.198420	0.665980	0.521720
N561	N56	0.805180	0.459170	0.515680
C1631	C163	0.104510	0.634110	0.529150
C1641	C164	0.890510	0.519740	0.525620
C1651	C165	0.990970	0.592650	0.538240
C1661	C166	0.976250	0.610230	0.561160
C1671	C167	0.061180	0.711630	0.572530
C1681	C168	0.874850	0.525300	0.572540
H551	H55	0.129800	0.769300	0.565400
H561	H56	0.813200	0.455600	0.565800
N571	N57	0.865090	0.999310	0.855050
N581	N58	0.471850	0.792500	0.849010
C1691	C169	0.771180	0.967440	0.862480
C1701	C170	0.557180	0.853070	0.858950
C1711	C171	0.657640	0.925980	0.871570
C1721	C172	0.642920	0.943560	0.894490
C1731	C173	0.727850	0.044960	0.905860
C1741	C174	0.541520	0.858630	0.905870
H571	H57	0.796470	0.102630	0.898730
H581	H58	0.479870	0.788930	0.899130
N591	N59	0.531750	0.332650	0.188390
N601	N60	0.138510	0.125840	0.182350
C1751	C175	0.437840	0.300780	0.195820
C1761	C176	0.223840	0.186410	0.192290
C1771	C177	0.324300	0.259320	0.204910
C1781	C178	0.309580	0.276900	0.227830
C1791	C179	0.394510	0.378300	0.239200
C1801	C180	0.208180	0.191970	0.239210
H591	H59	0.463130	0.435970	0.232070
H601	H60	0.146530	0.122270	0.232470
N611	N61	0.467560	0.801580	0.521720
N621	N62	0.653990	0.194820	0.515680
C1811	C181	0.529600	0.895490	0.529150
C1821	C182	0.629230	0.109490	0.525620
C1831	C183	0.601680	0.009030	0.538240
C1841	C184	0.633980	0.023750	0.561160
C1851	C185	0.650450	0.938820	0.572530
C1861	C186	0.650450	0.125150	0.572540
H611	H61	0.639500	0.870200	0.565400
H621	H62	0.642400	0.186800	0.565800
N631	N63	0.134230	0.134910	0.855050
N641	N64	0.320660	0.528150	0.849010
C1871	C187	0.196270	0.228820	0.862480
C1881	C188	0.295900	0.442820	0.858950
C1891	C189	0.268350	0.342360	0.871570
C1901	C190	0.300650	0.357080	0.894490
C1911	C191	0.317120	0.272150	0.905860
C1921	C192	0.317120	0.458480	0.905870
H631	H63	0.306170	0.203530	0.898730
H641	H64	0.309070	0.520130	0.899130
N651	N65	0.800890	0.468250	0.188390
N661	N66	0.987320	0.861490	0.182350
C1931	C193	0.862930	0.562160	0.195820
C1941	C194	0.962560	0.776160	0.192290
C1951	C195	0.935010	0.675700	0.204910
C1961	C196	0.967310	0.690420	0.227830
C1971	C197	0.983780	0.605490	0.239200
C1981	C198	0.983780	0.791820	0.239210
H651	H65	0.972830	0.536870	0.232070
H661	H66	0.975730	0.853470	0.232470
N671	N67	0.334020	0.532440	0.521720
N681	N68	0.540830	0.346010	0.515680
C1991	C199	0.365890	0.470400	0.529150
C2001	C200	0.480260	0.370770	0.525620
C2011	C201	0.407350	0.398320	0.538240
C2021	C202	0.389770	0.366020	0.561160
C2031	C203	0.288370	0.349550	0.572530
C2041	C204	0.474700	0.349550	0.572540
H671	H67	0.230700	0.360500	0.565400
H681	H68	0.544400	0.357600	0.565800
N691	N69	0.000690	0.865770	0.855050
N701	N70	0.207500	0.679340	0.849010
C2051	C205	0.032560	0.803730	0.862480
C2061	C206	0.146930	0.704100	0.858950
C2071	C207	0.074020	0.731650	0.871570
C2081	C208	0.056440	0.699350	0.894490
C2091	C209	0.955040	0.682880	0.905860
C2101	C210	0.141370	0.682880	0.905870
H691	H69	0.897370	0.693830	0.898730
H701	H70	0.211070	0.690930	0.899130
N711	N71	0.667350	0.199110	0.188390
N721	N72	0.874160	0.012680	0.182350
C2111	C211	0.699220	0.137070	0.195820
C2121	C212	0.813590	0.037440	0.192290
C2131	C213	0.740680	0.064990	0.204910
C2141	C214	0.723100	0.032690	0.227830
C2151	C215	0.621700	0.016220	0.239200
C2161	C216	0.808030	0.016220	0.239210
H711	H71	0.564030	0.027170	0.232070
H721	H72	0.877730	0.024270	0.232470
Ni11	Ni1	0.333330	0.666670	0.003360
Ni21	Ni2	0.000000	0.000000	0.336690
Ni31	Ni3	0.666670	0.333330	0.670030
Ni41	Ni4	0.666670	0.333330	0.496640
Ni51	Ni5	0.333330	0.666670	0.829970
Ni61	Ni6	0.000000	0.000000	0.163310
Ni71	Ni7	0.666670	0.333330	0.996640
Ni81	Ni8	0.333330	0.666670	0.329970
Ni91	Ni9	0.000000	0.000000	0.663310
Ni101	Ni10	0.333330	0.666670	0.503360
Ni111	Ni11	0.000000	0.000000	0.836690
Ni121	Ni12	0.666670	0.333330	0.170030
