data_TONTIB_clean_PM
_symmetry_space_group_name_H-M	'P1'
_cell_length_a	13.015700
_cell_length_b	13.015700
_cell_length_c	62.615000
_cell_angle_alpha	90.000000
_cell_angle_beta	90.000000
_cell_angle_gamma	120.000000
_symmetry_Int_Tables_number 1

loop_
_symmetry_equiv_pos_as_xyz
'x,y,z'

loop_
_atom_site_label
_atom_site_type_symbol
_atom_site_fract_x
_atom_site_fract_y
_atom_site_fract_z
N11	N1	0.459710	0.650060	0.984070
C11	C1	0.592250	0.601240	0.961280
C21	C2	0.710190	0.650470	0.927350
H11	H1	0.768300	0.639600	0.934500
C31	C3	0.609740	0.633480	0.938510
C41	C4	0.520120	0.627320	0.973930
C51	C5	0.525910	0.650290	0.927380
H21	H2	0.456800	0.639200	0.934600
N21	N2	0.667170	0.471270	0.977800
C61	C6	0.634910	0.531480	0.970270
N31	N3	0.126380	0.983390	0.317400
C71	C7	0.258920	0.934570	0.294610
C81	C8	0.376860	0.983800	0.260680
H31	H3	0.434970	0.972930	0.267830
C91	C9	0.276410	0.966810	0.271840
C101	C10	0.186790	0.960650	0.307260
C111	C11	0.192580	0.983620	0.260710
H41	H4	0.123470	0.972530	0.267930
N41	N4	0.333840	0.804600	0.311130
C121	C12	0.301580	0.864810	0.303600
N51	N5	0.793040	0.316730	0.650740
C131	C13	0.925580	0.267910	0.627950
C141	C14	0.043520	0.317140	0.594020
H51	H5	0.101630	0.306270	0.601170
C151	C15	0.943070	0.300150	0.605180
C161	C16	0.853450	0.293990	0.640600
C171	C17	0.859240	0.316960	0.594050
H61	H6	0.790130	0.305870	0.601270
N61	N6	0.000500	0.137940	0.644470
C181	C18	0.968240	0.198150	0.636940
N71	N7	0.349940	0.809650	0.984070
C191	C19	0.398760	0.991010	0.961280
C201	C20	0.349530	0.059720	0.927350
H71	H7	0.360400	0.128700	0.934500
C211	C21	0.366520	0.976260	0.938510
C221	C22	0.372680	0.892800	0.973930
C231	C23	0.349710	0.875620	0.927380
H81	H8	0.360800	0.817600	0.934600
N81	N8	0.528730	0.195900	0.977800
C241	C24	0.468520	0.103430	0.970270
N91	N9	0.016610	0.142980	0.317400
C251	C25	0.065430	0.324340	0.294610
C261	C26	0.016200	0.393050	0.260680
H91	H9	0.027070	0.462030	0.267830
C271	C27	0.033190	0.309590	0.271840
C281	C28	0.039350	0.226130	0.307260
C291	C29	0.016380	0.208950	0.260710
H101	H10	0.027470	0.150930	0.267930
N101	N10	0.195400	0.529230	0.311130
C301	C30	0.135190	0.436760	0.303600
N111	N11	0.683270	0.476320	0.650740
C311	C31	0.732090	0.657680	0.627950
C321	C32	0.682860	0.726390	0.594020
H111	H11	0.693730	0.795370	0.601170
C331	C33	0.699850	0.642930	0.605180
C341	C34	0.706010	0.559470	0.640600
C351	C35	0.683040	0.542290	0.594050
H121	H12	0.694130	0.484270	0.601270
N121	N12	0.862060	0.862570	0.644470
C361	C36	0.801850	0.770100	0.636940
N131	N13	0.190350	0.540290	0.984070
C371	C37	0.008990	0.407750	0.961280
C381	C38	0.940280	0.289810	0.927350
H131	H13	0.871300	0.231700	0.934500
C391	C39	0.023740	0.390260	0.938510
C401	C40	0.107200	0.479880	0.973930
C411	C41	0.124380	0.474090	0.927380
H141	H14	0.182400	0.543200	0.934600
N141	N14	0.804100	0.332830	0.977800
C421	C42	0.896570	0.365090	0.970270
N151	N15	0.857020	0.873620	0.317400
C431	C43	0.675660	0.741080	0.294610
C441	C44	0.606950	0.623140	0.260680
H151	H15	0.537970	0.565030	0.267830
C451	C45	0.690410	0.723590	0.271840
C461	C46	0.773870	0.813210	0.307260
C471	C47	0.791050	0.807420	0.260710
H161	H16	0.849070	0.876530	0.267930
N161	N16	0.470770	0.666160	0.311130
C481	C48	0.563240	0.698420	0.303600
N171	N17	0.523680	0.206960	0.650740
C491	C49	0.342320	0.074420	0.627950
C501	C50	0.273610	0.956480	0.594020
H171	H17	0.204630	0.898370	0.601170
C511	C51	0.357070	0.056930	0.605180
C521	C52	0.440530	0.146550	0.640600
C531	C53	0.457710	0.140760	0.594050
H181	H18	0.515730	0.209870	0.601270
N181	N18	0.137430	0.999500	0.644470
C541	C54	0.229900	0.031760	0.636940
N191	N19	0.650060	0.459710	0.515930
C551	C55	0.601240	0.592250	0.538720
C561	C56	0.650470	0.710190	0.572650
H191	H19	0.639600	0.768300	0.565500
C571	C57	0.633480	0.609740	0.561490
C581	C58	0.627320	0.520120	0.526070
C591	C59	0.650290	0.525910	0.572620
H201	H20	0.639200	0.456800	0.565400
N201	N20	0.471270	0.667170	0.522200
C601	C60	0.531480	0.634910	0.529730
N211	N21	0.316730	0.793040	0.849260
C611	C61	0.267910	0.925580	0.872050
C621	C62	0.317140	0.043520	0.905980
H211	H21	0.306270	0.101630	0.898830
C631	C63	0.300150	0.943070	0.894820
C641	C64	0.293990	0.853450	0.859400
C651	C65	0.316960	0.859240	0.905950
H221	H22	0.305870	0.790130	0.898730
N221	N22	0.137940	0.000500	0.855530
C661	C66	0.198150	0.968240	0.863060
N231	N23	0.983390	0.126380	0.182600
C671	C67	0.934570	0.258920	0.205390
C681	C68	0.983800	0.376860	0.239320
H231	H23	0.972930	0.434970	0.232170
C691	C69	0.966810	0.276410	0.228160
C701	C70	0.960650	0.186790	0.192740
C711	C71	0.983620	0.192580	0.239290
H241	H24	0.972530	0.123470	0.232070
N241	N24	0.804600	0.333840	0.188870
C721	C72	0.864810	0.301580	0.196400
N251	N25	0.809650	0.349940	0.515930
C731	C73	0.991010	0.398760	0.538720
C741	C74	0.059720	0.349530	0.572650
H251	H25	0.128700	0.360400	0.565500
C751	C75	0.976260	0.366520	0.561490
C761	C76	0.892800	0.372680	0.526070
C771	C77	0.875620	0.349710	0.572620
H261	H26	0.817600	0.360800	0.565400
N261	N26	0.195900	0.528730	0.522200
C781	C78	0.103430	0.468520	0.529730
N271	N27	0.476320	0.683270	0.849260
C791	C79	0.657680	0.732090	0.872050
C801	C80	0.726390	0.682860	0.905980
H271	H27	0.795370	0.693730	0.898830
C811	C81	0.642930	0.699850	0.894820
C821	C82	0.559470	0.706010	0.859400
C831	C83	0.542290	0.683040	0.905950
H281	H28	0.484270	0.694130	0.898730
N281	N28	0.862570	0.862060	0.855530
C841	C84	0.770100	0.801850	0.863060
N291	N29	0.142980	0.016610	0.182600
C851	C85	0.324340	0.065430	0.205390
C861	C86	0.393050	0.016200	0.239320
H291	H29	0.462030	0.027070	0.232170
C871	C87	0.309590	0.033190	0.228160
C881	C88	0.226130	0.039350	0.192740
C891	C89	0.208950	0.016380	0.239290
H301	H30	0.150930	0.027470	0.232070
N301	N30	0.529230	0.195400	0.188870
C901	C90	0.436760	0.135190	0.196400
N311	N31	0.540290	0.190350	0.515930
C911	C91	0.407750	0.008990	0.538720
C921	C92	0.289810	0.940280	0.572650
H311	H31	0.231700	0.871300	0.565500
C931	C93	0.390260	0.023740	0.561490
C941	C94	0.479880	0.107200	0.526070
C951	C95	0.474090	0.124380	0.572620
H321	H32	0.543200	0.182400	0.565400
N321	N32	0.332830	0.804100	0.522200
C961	C96	0.365090	0.896570	0.529730
N331	N33	0.206960	0.523680	0.849260
C971	C97	0.074420	0.342320	0.872050
C981	C98	0.956480	0.273610	0.905980
H331	H33	0.898370	0.204630	0.898830
C991	C99	0.056930	0.357070	0.894820
C1001	C100	0.146550	0.440530	0.859400
C1011	C101	0.140760	0.457710	0.905950
H341	H34	0.209870	0.515730	0.898730
N341	N34	0.999500	0.137430	0.855530
C1021	C102	0.031760	0.229900	0.863060
N351	N35	0.873620	0.857020	0.182600
C1031	C103	0.741080	0.675660	0.205390
C1041	C104	0.623140	0.606950	0.239320
H351	H35	0.565030	0.537970	0.232170
C1051	C105	0.723590	0.690410	0.228160
C1061	C106	0.813210	0.773870	0.192740
C1071	C107	0.807420	0.791050	0.239290
H361	H36	0.876530	0.849070	0.232070
N361	N36	0.666160	0.470770	0.188870
C1081	C108	0.698420	0.563240	0.196400
N371	N37	0.540290	0.349940	0.015930
C1091	C109	0.407750	0.398760	0.038720
C1101	C110	0.289810	0.349530	0.072650
H371	H37	0.231700	0.360400	0.065500
C1111	C111	0.390260	0.366520	0.061490
C1121	C112	0.479880	0.372680	0.026070
C1131	C113	0.474090	0.349710	0.072620
H381	H38	0.543200	0.360800	0.065400
N381	N38	0.332830	0.528730	0.022200
C1141	C114	0.365090	0.468520	0.029730
N391	N39	0.206960	0.683270	0.349260
C1151	C115	0.074420	0.732090	0.372050
C1161	C116	0.956480	0.682860	0.405980
H391	H39	0.898370	0.693730	0.398830
C1171	C117	0.056930	0.699850	0.394820
C1181	C118	0.146550	0.706010	0.359400
C1191	C119	0.140760	0.683040	0.405950
H401	H40	0.209870	0.694130	0.398730
N401	N40	0.999500	0.862060	0.355530
C1201	C120	0.031760	0.801850	0.363060
N411	N41	0.873620	0.016610	0.682600
C1211	C121	0.741080	0.065430	0.705390
C1221	C122	0.623140	0.016200	0.739320
H411	H41	0.565030	0.027070	0.732170
C1231	C123	0.723590	0.033190	0.728160
C1241	C124	0.813210	0.039350	0.692740
C1251	C125	0.807420	0.016380	0.739290
H421	H42	0.876530	0.027470	0.732070
N421	N42	0.666160	0.195400	0.688870
C1261	C126	0.698420	0.135190	0.696400
N431	N43	0.650060	0.190350	0.015930
C1271	C127	0.601240	0.008990	0.038720
C1281	C128	0.650470	0.940280	0.072650
H431	H43	0.639600	0.871300	0.065500
C1291	C129	0.633480	0.023740	0.061490
C1301	C130	0.627320	0.107200	0.026070
C1311	C131	0.650290	0.124380	0.072620
H441	H44	0.639200	0.182400	0.065400
N441	N44	0.471270	0.804100	0.022200
C1321	C132	0.531480	0.896570	0.029730
N451	N45	0.316730	0.523680	0.349260
C1331	C133	0.267910	0.342320	0.372050
C1341	C134	0.317140	0.273610	0.405980
H451	H45	0.306270	0.204630	0.398830
C1351	C135	0.300150	0.357070	0.394820
C1361	C136	0.293990	0.440530	0.359400
C1371	C137	0.316960	0.457710	0.405950
H461	H46	0.305870	0.515730	0.398730
N461	N46	0.137940	0.137430	0.355530
C1381	C138	0.198150	0.229900	0.363060
N471	N47	0.983390	0.857020	0.682600
C1391	C139	0.934570	0.675660	0.705390
C1401	C140	0.983800	0.606950	0.739320
H471	H47	0.972930	0.537970	0.732170
C1411	C141	0.966810	0.690410	0.728160
C1421	C142	0.960650	0.773870	0.692740
C1431	C143	0.983620	0.791050	0.739290
H481	H48	0.972530	0.849070	0.732070
N481	N48	0.804600	0.470770	0.688870
C1441	C144	0.864810	0.563240	0.696400
N491	N49	0.809650	0.459710	0.015930
C1451	C145	0.991010	0.592250	0.038720
C1461	C146	0.059720	0.710190	0.072650
H491	H49	0.128700	0.768300	0.065500
C1471	C147	0.976260	0.609740	0.061490
C1481	C148	0.892800	0.520120	0.026070
C1491	C149	0.875620	0.525910	0.072620
H501	H50	0.817600	0.456800	0.065400
N501	N50	0.195900	0.667170	0.022200
C1501	C150	0.103430	0.634910	0.029730
N511	N51	0.476320	0.793040	0.349260
C1511	C151	0.657680	0.925580	0.372050
C1521	C152	0.726390	0.043520	0.405980
H511	H51	0.795370	0.101630	0.398830
C1531	C153	0.642930	0.943070	0.394820
C1541	C154	0.559470	0.853450	0.359400
C1551	C155	0.542290	0.859240	0.405950
H521	H52	0.484270	0.790130	0.398730
N521	N52	0.862570	0.000500	0.355530
C1561	C156	0.770100	0.968240	0.363060
N531	N53	0.142980	0.126380	0.682600
C1571	C157	0.324340	0.258920	0.705390
C1581	C158	0.393050	0.376860	0.739320
H531	H53	0.462030	0.434970	0.732170
C1591	C159	0.309590	0.276410	0.728160
C1601	C160	0.226130	0.186790	0.692740
C1611	C161	0.208950	0.192580	0.739290
H541	H54	0.150930	0.123470	0.732070
N541	N54	0.529230	0.333840	0.688870
C1621	C162	0.436760	0.301580	0.696400
N551	N55	0.349940	0.540290	0.484070
C1631	C163	0.398760	0.407750	0.461280
C1641	C164	0.349530	0.289810	0.427350
H551	H55	0.360400	0.231700	0.434500
C1651	C165	0.366520	0.390260	0.438510
C1661	C166	0.372680	0.479880	0.473930
C1671	C167	0.349710	0.474090	0.427380
H561	H56	0.360800	0.543200	0.434600
N561	N56	0.528730	0.332830	0.477800
C1681	C168	0.468520	0.365090	0.470270
N571	N57	0.016610	0.873620	0.817400
C1691	C169	0.065430	0.741080	0.794610
C1701	C170	0.016200	0.623140	0.760680
H571	H57	0.027070	0.565030	0.767830
C1711	C171	0.033190	0.723590	0.771840
C1721	C172	0.039350	0.813210	0.807260
C1731	C173	0.016380	0.807420	0.760710
H581	H58	0.027470	0.876530	0.767930
N581	N58	0.195400	0.666160	0.811130
C1741	C174	0.135190	0.698420	0.803600
N591	N59	0.683270	0.206960	0.150740
C1751	C175	0.732090	0.074420	0.127950
C1761	C176	0.682860	0.956480	0.094020
H591	H59	0.693730	0.898370	0.101170
C1771	C177	0.699850	0.056930	0.105180
C1781	C178	0.706010	0.146550	0.140600
C1791	C179	0.683040	0.140760	0.094050
H601	H60	0.694130	0.209870	0.101270
N601	N60	0.862060	0.999500	0.144470
C1801	C180	0.801850	0.031760	0.136940
N611	N61	0.190350	0.650060	0.484070
C1811	C181	0.008990	0.601240	0.461280
C1821	C182	0.940280	0.650470	0.427350
H611	H61	0.871300	0.639600	0.434500
C1831	C183	0.023740	0.633480	0.438510
C1841	C184	0.107200	0.627320	0.473930
C1851	C185	0.124380	0.650290	0.427380
H621	H62	0.182400	0.639200	0.434600
N621	N62	0.804100	0.471270	0.477800
C1861	C186	0.896570	0.531480	0.470270
N631	N63	0.857020	0.983390	0.817400
C1871	C187	0.675660	0.934570	0.794610
C1881	C188	0.606950	0.983800	0.760680
H631	H63	0.537970	0.972930	0.767830
C1891	C189	0.690410	0.966810	0.771840
C1901	C190	0.773870	0.960650	0.807260
C1911	C191	0.791050	0.983620	0.760710
H641	H64	0.849070	0.972530	0.767930
N641	N64	0.470770	0.804600	0.811130
C1921	C192	0.563240	0.864810	0.803600
N651	N65	0.523680	0.316730	0.150740
C1931	C193	0.342320	0.267910	0.127950
C1941	C194	0.273610	0.317140	0.094020
H651	H65	0.204630	0.306270	0.101170
C1951	C195	0.357070	0.300150	0.105180
C1961	C196	0.440530	0.293990	0.140600
C1971	C197	0.457710	0.316960	0.094050
H661	H66	0.515730	0.305870	0.101270
N661	N66	0.137430	0.137940	0.144470
C1981	C198	0.229900	0.198150	0.136940
N671	N67	0.459710	0.809650	0.484070
C1991	C199	0.592250	0.991010	0.461280
C2001	C200	0.710190	0.059720	0.427350
H671	H67	0.768300	0.128700	0.434500
C2011	C201	0.609740	0.976260	0.438510
C2021	C202	0.520120	0.892800	0.473930
C2031	C203	0.525910	0.875620	0.427380
H681	H68	0.456800	0.817600	0.434600
N681	N68	0.667170	0.195900	0.477800
C2041	C204	0.634910	0.103430	0.470270
N691	N69	0.126380	0.142980	0.817400
C2051	C205	0.258920	0.324340	0.794610
C2061	C206	0.376860	0.393050	0.760680
H691	H69	0.434970	0.462030	0.767830
C2071	C207	0.276410	0.309590	0.771840
C2081	C208	0.186790	0.226130	0.807260
C2091	C209	0.192580	0.208950	0.760710
H701	H70	0.123470	0.150930	0.767930
N701	N70	0.333840	0.529230	0.811130
C2101	C210	0.301580	0.436760	0.803600
N711	N71	0.793040	0.476320	0.150740
C2111	C211	0.925580	0.657680	0.127950
C2121	C212	0.043520	0.726390	0.094020
H711	H71	0.101630	0.795370	0.101170
C2131	C213	0.943070	0.642930	0.105180
C2141	C214	0.853450	0.559470	0.140600
C2151	C215	0.859240	0.542290	0.094050
H721	H72	0.790130	0.484270	0.101270
N721	N72	0.000500	0.862570	0.144470
C2161	C216	0.968240	0.770100	0.136940
Fe11	Fe1	0.333330	0.666670	0.003540
Fe21	Fe2	0.000000	0.000000	0.336880
Fe31	Fe3	0.666670	0.333330	0.670210
Fe41	Fe4	0.666670	0.333330	0.496460
Fe51	Fe5	0.333330	0.666670	0.829790
Fe61	Fe6	0.000000	0.000000	0.163120
Fe71	Fe7	0.666670	0.333330	0.996460
Fe81	Fe8	0.333330	0.666670	0.329790
Fe91	Fe9	0.000000	0.000000	0.663120
Fe101	Fe10	0.333330	0.666670	0.503540
Fe111	Fe11	0.000000	0.000000	0.836880
Fe121	Fe12	0.666670	0.333330	0.170210
