data_TONTOH_clean_PM
_symmetry_space_group_name_H-M	'P1'
_cell_length_a	12.902100
_cell_length_b	12.902100
_cell_length_c	62.407000
_cell_angle_alpha	90.000000
_cell_angle_beta	90.000000
_cell_angle_gamma	120.000000
_symmetry_Int_Tables_number 1

loop_
_symmetry_equiv_pos_as_xyz
'x,y,z'

loop_
_atom_site_label
_atom_site_type_symbol
_atom_site_fract_x
_atom_site_fract_y
_atom_site_fract_z
N11	N1	0.197330	0.531410	0.022140
C11	C1	0.104000	0.470020	0.029580
C21	C2	0.891210	0.371720	0.026000
C31	C3	0.990990	0.398670	0.038580
C41	C4	0.976040	0.366290	0.061400
C51	C5	0.060590	0.349370	0.072610
H11	H1	0.130100	0.360100	0.065400
C61	C6	0.874730	0.349690	0.072690
H21	H2	0.816300	0.361200	0.065500
N21	N2	0.807170	0.348280	0.015950
N31	N3	0.864000	0.864740	0.355470
C71	C7	0.770670	0.803350	0.362910
C81	C8	0.557880	0.705050	0.359330
C91	C9	0.657660	0.732000	0.371910
C101	C10	0.642710	0.699620	0.394730
C111	C11	0.727260	0.682700	0.405940
H31	H3	0.796770	0.693430	0.398730
C121	C12	0.541400	0.683020	0.406020
H41	H4	0.482970	0.694530	0.398830
N41	N4	0.473840	0.681610	0.349280
N51	N5	0.530660	0.198080	0.688810
C131	C13	0.437330	0.136690	0.696250
C141	C14	0.224540	0.038390	0.692670
C151	C15	0.324320	0.065340	0.705250
C161	C16	0.309370	0.032960	0.728070
C171	C17	0.393920	0.016040	0.739280
H51	H5	0.463430	0.026770	0.732070
C181	C18	0.208060	0.016360	0.739360
H61	H6	0.149630	0.027870	0.732170
N61	N6	0.140500	0.014950	0.682620
N71	N7	0.468590	0.665920	0.022140
C191	C19	0.529980	0.633980	0.029580
C201	C20	0.628280	0.519490	0.026000
C211	C21	0.601330	0.592320	0.038580
C221	C22	0.633710	0.609750	0.061400
C231	C23	0.650630	0.711220	0.072610
H71	H7	0.639900	0.770000	0.065400
C241	C24	0.650310	0.525040	0.072690
H81	H8	0.638800	0.455100	0.065500
N81	N8	0.651720	0.458890	0.015950
N91	N9	0.135260	0.999250	0.355470
C251	C25	0.196650	0.967310	0.362910
C261	C26	0.294950	0.852820	0.359330
C271	C27	0.268000	0.925650	0.371910
C281	C28	0.300380	0.943080	0.394730
C291	C29	0.317300	0.044550	0.405940
H91	H9	0.306570	0.103330	0.398730
C301	C30	0.316980	0.858370	0.406020
H101	H10	0.305470	0.788430	0.398830
N101	N10	0.318390	0.792220	0.349280
N111	N11	0.801920	0.332590	0.688810
C311	C31	0.863310	0.300650	0.696250
C321	C32	0.961610	0.186160	0.692670
C331	C33	0.934660	0.258990	0.705250
C341	C34	0.967040	0.276420	0.728070
C351	C35	0.983960	0.377890	0.739280
H111	H11	0.973230	0.436670	0.732070
C361	C36	0.983640	0.191710	0.739360
H121	H12	0.972130	0.121770	0.732170
N121	N12	0.985050	0.125560	0.682620
N131	N13	0.334080	0.802670	0.022140
C371	C37	0.366020	0.896000	0.029580
C381	C38	0.480510	0.108790	0.026000
C391	C39	0.407680	0.009010	0.038580
C401	C40	0.390250	0.023960	0.061400
C411	C41	0.288780	0.939410	0.072610
H131	H13	0.230000	0.869900	0.065400
C421	C42	0.474960	0.125270	0.072690
H141	H14	0.544900	0.183700	0.065500
N141	N14	0.541110	0.192830	0.015950
N151	N15	0.000750	0.136000	0.355470
C431	C43	0.032690	0.229330	0.362910
C441	C44	0.147180	0.442120	0.359330
C451	C45	0.074350	0.342340	0.371910
C461	C46	0.056920	0.357290	0.394730
C471	C47	0.955450	0.272740	0.405940
H151	H15	0.896670	0.203230	0.398730
C481	C48	0.141630	0.458600	0.406020
H161	H16	0.211570	0.517030	0.398830
N161	N16	0.207780	0.526160	0.349280
N171	N17	0.667410	0.469340	0.688810
C491	C49	0.699350	0.562670	0.696250
C501	C50	0.813840	0.775460	0.692670
C511	C51	0.741010	0.675680	0.705250
C521	C52	0.723580	0.690630	0.728070
C531	C53	0.622110	0.606080	0.739280
H171	H17	0.563330	0.536570	0.732070
C541	C54	0.808290	0.791940	0.739360
H181	H18	0.878230	0.850370	0.732170
N181	N18	0.874440	0.859500	0.682620
N191	N19	0.531410	0.197330	0.477860
C551	C55	0.470020	0.104000	0.470420
C561	C56	0.371720	0.891210	0.474000
C571	C57	0.398670	0.990990	0.461420
C581	C58	0.366290	0.976040	0.438600
C591	C59	0.349370	0.060590	0.427390
H191	H19	0.360100	0.130100	0.434600
C601	C60	0.349690	0.874730	0.427310
H201	H20	0.361200	0.816300	0.434500
N201	N20	0.348280	0.807170	0.484050
N211	N21	0.198080	0.530660	0.811190
C611	C61	0.136690	0.437330	0.803750
C621	C62	0.038390	0.224540	0.807330
C631	C63	0.065340	0.324320	0.794750
C641	C64	0.032960	0.309370	0.771930
C651	C65	0.016040	0.393920	0.760720
H211	H21	0.026770	0.463430	0.767930
C661	C66	0.016360	0.208060	0.760640
H221	H22	0.027870	0.149630	0.767830
N221	N22	0.014950	0.140500	0.817380
N231	N23	0.864740	0.864000	0.144530
C671	C67	0.803350	0.770670	0.137090
C681	C68	0.705050	0.557880	0.140670
C691	C69	0.732000	0.657660	0.128090
C701	C70	0.699620	0.642710	0.105270
C711	C71	0.682700	0.727260	0.094060
H231	H23	0.693430	0.796770	0.101270
C721	C72	0.683020	0.541400	0.093980
H241	H24	0.694530	0.482970	0.101170
N241	N24	0.681610	0.473840	0.150720
N251	N25	0.665920	0.468590	0.477860
C731	C73	0.633980	0.529980	0.470420
C741	C74	0.519490	0.628280	0.474000
C751	C75	0.592320	0.601330	0.461420
C761	C76	0.609750	0.633710	0.438600
C771	C77	0.711220	0.650630	0.427390
H251	H25	0.770000	0.639900	0.434600
C781	C78	0.525040	0.650310	0.427310
H261	H26	0.455100	0.638800	0.434500
N261	N26	0.458890	0.651720	0.484050
N271	N27	0.332590	0.801920	0.811190
C791	C79	0.300650	0.863310	0.803750
C801	C80	0.186160	0.961610	0.807330
C811	C81	0.258990	0.934660	0.794750
C821	C82	0.276420	0.967040	0.771930
C831	C83	0.377890	0.983960	0.760720
H271	H27	0.436670	0.973230	0.767930
C841	C84	0.191710	0.983640	0.760640
H281	H28	0.121770	0.972130	0.767830
N281	N28	0.125560	0.985050	0.817380
N291	N29	0.999250	0.135260	0.144530
C851	C85	0.967310	0.196650	0.137090
C861	C86	0.852820	0.294950	0.140670
C871	C87	0.925650	0.268000	0.128090
C881	C88	0.943080	0.300380	0.105270
C891	C89	0.044550	0.317300	0.094060
H291	H29	0.103330	0.306570	0.101270
C901	C90	0.858370	0.316980	0.093980
H301	H30	0.788430	0.305470	0.101170
N301	N30	0.792220	0.318390	0.150720
N311	N31	0.802670	0.334080	0.477860
C911	C91	0.896000	0.366020	0.470420
C921	C92	0.108790	0.480510	0.474000
C931	C93	0.009010	0.407680	0.461420
C941	C94	0.023960	0.390250	0.438600
C951	C95	0.939410	0.288780	0.427390
H311	H31	0.869900	0.230000	0.434600
C961	C96	0.125270	0.474960	0.427310
H321	H32	0.183700	0.544900	0.434500
N321	N32	0.192830	0.541110	0.484050
N331	N33	0.469340	0.667410	0.811190
C971	C97	0.562670	0.699350	0.803750
C981	C98	0.775460	0.813840	0.807330
C991	C99	0.675680	0.741010	0.794750
C1001	C100	0.690630	0.723580	0.771930
C1011	C101	0.606080	0.622110	0.760720
H331	H33	0.536570	0.563330	0.767930
C1021	C102	0.791940	0.808290	0.760640
H341	H34	0.850370	0.878230	0.767830
N341	N34	0.859500	0.874440	0.817380
N351	N35	0.136000	0.000750	0.144530
C1031	C103	0.229330	0.032690	0.137090
C1041	C104	0.442120	0.147180	0.140670
C1051	C105	0.342340	0.074350	0.128090
C1061	C106	0.357290	0.056920	0.105270
C1071	C107	0.272740	0.955450	0.094060
H351	H35	0.203230	0.896670	0.101270
C1081	C108	0.458600	0.141630	0.093980
H361	H36	0.517030	0.211570	0.101170
N361	N36	0.526160	0.207780	0.150720
N371	N37	0.802670	0.468590	0.977860
C1091	C109	0.896000	0.529980	0.970420
C1101	C110	0.108790	0.628280	0.974000
C1111	C111	0.009010	0.601330	0.961420
C1121	C112	0.023960	0.633710	0.938600
C1131	C113	0.939410	0.650630	0.927390
H371	H37	0.869900	0.639900	0.934600
C1141	C114	0.125270	0.650310	0.927310
H381	H38	0.183700	0.638800	0.934500
N381	N38	0.192830	0.651720	0.984050
N391	N39	0.469340	0.801920	0.311190
C1151	C115	0.562670	0.863310	0.303750
C1161	C116	0.775460	0.961610	0.307330
C1171	C117	0.675680	0.934660	0.294750
C1181	C118	0.690630	0.967040	0.271930
C1191	C119	0.606080	0.983960	0.260720
H391	H39	0.536570	0.973230	0.267930
C1201	C120	0.791940	0.983640	0.260640
H401	H40	0.850370	0.972130	0.267830
N401	N40	0.859500	0.985050	0.317380
N411	N41	0.136000	0.135260	0.644530
C1211	C121	0.229330	0.196650	0.637090
C1221	C122	0.442120	0.294950	0.640670
C1231	C123	0.342340	0.268000	0.628090
C1241	C124	0.357290	0.300380	0.605270
C1251	C125	0.272740	0.317300	0.594060
H411	H41	0.203230	0.306570	0.601270
C1261	C126	0.458600	0.316980	0.593980
H421	H42	0.517030	0.305470	0.601170
N421	N42	0.526160	0.318390	0.650720
N431	N43	0.531410	0.334080	0.977860
C1271	C127	0.470020	0.366020	0.970420
C1281	C128	0.371720	0.480510	0.974000
C1291	C129	0.398670	0.407680	0.961420
C1301	C130	0.366290	0.390250	0.938600
C1311	C131	0.349370	0.288780	0.927390
H431	H43	0.360100	0.230000	0.934600
C1321	C132	0.349690	0.474960	0.927310
H441	H44	0.361200	0.544900	0.934500
N441	N44	0.348280	0.541110	0.984050
N451	N45	0.198080	0.667410	0.311190
C1331	C133	0.136690	0.699350	0.303750
C1341	C134	0.038390	0.813840	0.307330
C1351	C135	0.065340	0.741010	0.294750
C1361	C136	0.032960	0.723580	0.271930
C1371	C137	0.016040	0.622110	0.260720
H451	H45	0.026770	0.563330	0.267930
C1381	C138	0.016360	0.808290	0.260640
H461	H46	0.027870	0.878230	0.267830
N461	N46	0.014950	0.874440	0.317380
N471	N47	0.864740	0.000750	0.644530
C1391	C139	0.803350	0.032690	0.637090
C1401	C140	0.705050	0.147180	0.640670
C1411	C141	0.732000	0.074350	0.628090
C1421	C142	0.699620	0.056920	0.605270
C1431	C143	0.682700	0.955450	0.594060
H471	H47	0.693430	0.896670	0.601270
C1441	C144	0.683020	0.141630	0.593980
H481	H48	0.694530	0.211570	0.601170
N481	N48	0.681610	0.207780	0.650720
N491	N49	0.665920	0.197330	0.977860
C1451	C145	0.633980	0.104000	0.970420
C1461	C146	0.519490	0.891210	0.974000
C1471	C147	0.592320	0.990990	0.961420
C1481	C148	0.609750	0.976040	0.938600
C1491	C149	0.711220	0.060590	0.927390
H491	H49	0.770000	0.130100	0.934600
C1501	C150	0.525040	0.874730	0.927310
H501	H50	0.455100	0.816300	0.934500
N501	N50	0.458890	0.807170	0.984050
N511	N51	0.332590	0.530660	0.311190
C1511	C151	0.300650	0.437330	0.303750
C1521	C152	0.186160	0.224540	0.307330
C1531	C153	0.258990	0.324320	0.294750
C1541	C154	0.276420	0.309370	0.271930
C1551	C155	0.377890	0.393920	0.260720
H511	H51	0.436670	0.463430	0.267930
C1561	C156	0.191710	0.208060	0.260640
H521	H52	0.121770	0.149630	0.267830
N521	N52	0.125560	0.140500	0.317380
N531	N53	0.999250	0.864000	0.644530
C1571	C157	0.967310	0.770670	0.637090
C1581	C158	0.852820	0.557880	0.640670
C1591	C159	0.925650	0.657660	0.628090
C1601	C160	0.943080	0.642710	0.605270
C1611	C161	0.044550	0.727260	0.594060
H531	H53	0.103330	0.796770	0.601270
C1621	C162	0.858370	0.541400	0.593980
H541	H54	0.788430	0.482970	0.601170
N541	N54	0.792220	0.473840	0.650720
N551	N55	0.468590	0.802670	0.522140
C1631	C163	0.529980	0.896000	0.529580
C1641	C164	0.628280	0.108790	0.526000
C1651	C165	0.601330	0.009010	0.538580
C1661	C166	0.633710	0.023960	0.561400
C1671	C167	0.650630	0.939410	0.572610
H551	H55	0.639900	0.869900	0.565400
C1681	C168	0.650310	0.125270	0.572690
H561	H56	0.638800	0.183700	0.565500
N561	N56	0.651720	0.192830	0.515950
N571	N57	0.135260	0.136000	0.855470
C1691	C169	0.196650	0.229330	0.862910
C1701	C170	0.294950	0.442120	0.859330
C1711	C171	0.268000	0.342340	0.871910
C1721	C172	0.300380	0.357290	0.894730
C1731	C173	0.317300	0.272740	0.905940
H571	H57	0.306570	0.203230	0.898730
C1741	C174	0.316980	0.458600	0.906020
H581	H58	0.305470	0.517030	0.898830
N581	N58	0.318390	0.526160	0.849280
N591	N59	0.801920	0.469340	0.188810
C1751	C175	0.863310	0.562670	0.196250
C1761	C176	0.961610	0.775460	0.192670
C1771	C177	0.934660	0.675680	0.205250
C1781	C178	0.967040	0.690630	0.228070
C1791	C179	0.983960	0.606080	0.239280
H591	H59	0.973230	0.536570	0.232070
C1801	C180	0.983640	0.791940	0.239360
H601	H60	0.972130	0.850370	0.232170
N601	N60	0.985050	0.859500	0.182620
N611	N61	0.334080	0.531410	0.522140
C1811	C181	0.366020	0.470020	0.529580
C1821	C182	0.480510	0.371720	0.526000
C1831	C183	0.407680	0.398670	0.538580
C1841	C184	0.390250	0.366290	0.561400
C1851	C185	0.288780	0.349370	0.572610
H611	H61	0.230000	0.360100	0.565400
C1861	C186	0.474960	0.349690	0.572690
H621	H62	0.544900	0.361200	0.565500
N621	N62	0.541110	0.348280	0.515950
N631	N63	0.000750	0.864740	0.855470
C1871	C187	0.032690	0.803350	0.862910
C1881	C188	0.147180	0.705050	0.859330
C1891	C189	0.074350	0.732000	0.871910
C1901	C190	0.056920	0.699620	0.894730
C1911	C191	0.955450	0.682700	0.905940
H631	H63	0.896670	0.693430	0.898730
C1921	C192	0.141630	0.683020	0.906020
H641	H64	0.211570	0.694530	0.898830
N641	N64	0.207780	0.681610	0.849280
N651	N65	0.667410	0.198080	0.188810
C1931	C193	0.699350	0.136690	0.196250
C1941	C194	0.813840	0.038390	0.192670
C1951	C195	0.741010	0.065340	0.205250
C1961	C196	0.723580	0.032960	0.228070
C1971	C197	0.622110	0.016040	0.239280
H651	H65	0.563330	0.026770	0.232070
C1981	C198	0.808290	0.016360	0.239360
H661	H66	0.878230	0.027870	0.232170
N661	N66	0.874440	0.014950	0.182620
N671	N67	0.197330	0.665920	0.522140
C1991	C199	0.104000	0.633980	0.529580
C2001	C200	0.891210	0.519490	0.526000
C2011	C201	0.990990	0.592320	0.538580
C2021	C202	0.976040	0.609750	0.561400
C2031	C203	0.060590	0.711220	0.572610
H671	H67	0.130100	0.770000	0.565400
C2041	C204	0.874730	0.525040	0.572690
H681	H68	0.816300	0.455100	0.565500
N681	N68	0.807170	0.458890	0.515950
N691	N69	0.864000	0.999250	0.855470
C2051	C205	0.770670	0.967310	0.862910
C2061	C206	0.557880	0.852820	0.859330
C2071	C207	0.657660	0.925650	0.871910
C2081	C208	0.642710	0.943080	0.894730
C2091	C209	0.727260	0.044550	0.905940
H691	H69	0.796770	0.103330	0.898730
C2101	C210	0.541400	0.858370	0.906020
H701	H70	0.482970	0.788430	0.898830
N701	N70	0.473840	0.792220	0.849280
N711	N71	0.530660	0.332590	0.188810
C2111	C211	0.437330	0.300650	0.196250
C2121	C212	0.224540	0.186160	0.192670
C2131	C213	0.324320	0.258990	0.205250
C2141	C214	0.309370	0.276420	0.228070
C2151	C215	0.393920	0.377890	0.239280
H711	H71	0.463430	0.436670	0.232070
C2161	C216	0.208060	0.191710	0.239360
H721	H72	0.149630	0.121770	0.232170
N721	N72	0.140500	0.125560	0.182620
Co11	Co1	0.333330	0.666670	0.003470
Co21	Co2	0.000000	0.000000	0.336800
Co31	Co3	0.666670	0.333330	0.670140
Co41	Co4	0.666670	0.333330	0.496530
Co51	Co5	0.333330	0.666670	0.829860
Co61	Co6	0.000000	0.000000	0.163200
Co71	Co7	0.666670	0.333330	0.996530
Co81	Co8	0.333330	0.666670	0.329860
Co91	Co9	0.000000	0.000000	0.663200
Co101	Co10	0.333330	0.666670	0.503470
Co111	Co11	0.000000	0.000000	0.836800
Co121	Co12	0.666670	0.333330	0.170140
