data_TONVAV_clean_PM
_symmetry_space_group_name_H-M	'P1'
_cell_length_a	12.972800
_cell_length_b	12.972800
_cell_length_c	62.652000
_cell_angle_alpha	90.000000
_cell_angle_beta	90.000000
_cell_angle_gamma	120.000000
_symmetry_Int_Tables_number 1

loop_
_symmetry_equiv_pos_as_xyz
'x,y,z'

loop_
_atom_site_label
_atom_site_type_symbol
_atom_site_fract_x
_atom_site_fract_y
_atom_site_fract_z
N11	N1	0.348750	0.539940	0.984000
C11	C1	0.372150	0.479590	0.973910
C21	C2	0.366170	0.389560	0.938580
C31	C3	0.398730	0.407100	0.961310
C41	C4	0.349600	0.473770	0.927370
H11	H1	0.360800	0.543200	0.934500
C51	C5	0.349330	0.288690	0.927400
H21	H2	0.359900	0.230200	0.934600
C61	C6	0.468740	0.364690	0.970330
N21	N2	0.528820	0.331620	0.977720
N31	N3	0.015420	0.873270	0.317340
C71	C7	0.038820	0.812920	0.307240
C81	C8	0.032840	0.722890	0.271910
C91	C9	0.065400	0.740430	0.294640
C101	C10	0.016270	0.807100	0.260710
H31	H3	0.027470	0.876530	0.267830
C111	C11	0.016000	0.622020	0.260730
H41	H4	0.026570	0.563530	0.267930
C121	C12	0.135410	0.698020	0.303660
N41	N4	0.195490	0.664950	0.311050
N51	N5	0.682080	0.206610	0.650670
C131	C13	0.705480	0.146260	0.640570
C141	C14	0.699500	0.056230	0.605250
C151	C15	0.732060	0.073770	0.627970
C161	C16	0.682930	0.140440	0.594040
H51	H5	0.694130	0.209870	0.601170
C171	C17	0.682660	0.955360	0.594060
H61	H6	0.693230	0.896870	0.601270
C181	C18	0.802070	0.031360	0.637000
N61	N6	0.862150	0.998290	0.644390
N71	N7	0.460060	0.808810	0.984000
C191	C19	0.520410	0.892560	0.973910
C201	C20	0.610440	0.976610	0.938580
C211	C21	0.592900	0.991630	0.961310
C221	C22	0.526230	0.875830	0.927370
H71	H7	0.456800	0.817600	0.934500
C231	C23	0.711310	0.060640	0.927400
H81	H8	0.769800	0.129700	0.934600
C241	C24	0.635310	0.104050	0.970330
N81	N8	0.668380	0.197200	0.977720
N91	N9	0.126730	0.142140	0.317340
C251	C25	0.187080	0.225890	0.307240
C261	C26	0.277110	0.309940	0.271910
C271	C27	0.259570	0.324960	0.294640
C281	C28	0.192900	0.209160	0.260710
H91	H9	0.123470	0.150930	0.267830
C291	C29	0.377980	0.393970	0.260730
H101	H10	0.436470	0.463030	0.267930
C301	C30	0.301980	0.437380	0.303660
N101	N10	0.335050	0.530530	0.311050
N111	N11	0.793390	0.475480	0.650670
C311	C31	0.853740	0.559230	0.640570
C321	C32	0.943770	0.643280	0.605250
C331	C33	0.926230	0.658300	0.627970
C341	C34	0.859560	0.542500	0.594040
H111	H11	0.790130	0.484270	0.601170
C351	C35	0.044640	0.727310	0.594060
H121	H12	0.103130	0.796370	0.601270
C361	C36	0.968640	0.770720	0.637000
N121	N12	0.001710	0.863870	0.644390
N131	N13	0.191190	0.651250	0.984000
C371	C37	0.107440	0.627850	0.973910
C381	C38	0.023390	0.633830	0.938580
C391	C39	0.008370	0.601270	0.961310
C401	C40	0.124170	0.650400	0.927370
H131	H13	0.182400	0.639200	0.934500
C411	C41	0.939360	0.650670	0.927400
H141	H14	0.870300	0.640100	0.934600
C421	C42	0.895950	0.531260	0.970330
N141	N14	0.802800	0.471180	0.977720
N151	N15	0.857860	0.984580	0.317340
C431	C43	0.774110	0.961180	0.307240
C441	C44	0.690060	0.967160	0.271910
C451	C45	0.675040	0.934600	0.294640
C461	C46	0.790840	0.983730	0.260710
H151	H15	0.849070	0.972530	0.267830
C471	C47	0.606030	0.984000	0.260730
H161	H16	0.536970	0.973430	0.267930
C481	C48	0.562620	0.864590	0.303660
N161	N16	0.469470	0.804510	0.311050
N171	N17	0.524520	0.317920	0.650670
C491	C49	0.440770	0.294520	0.640570
C501	C50	0.356720	0.300500	0.605250
C511	C51	0.341700	0.267940	0.627970
C521	C52	0.457500	0.317070	0.594040
H171	H17	0.515730	0.305870	0.601170
C531	C53	0.272690	0.317340	0.594060
H181	H18	0.203630	0.306770	0.601270
C541	C54	0.229280	0.197930	0.637000
N181	N18	0.136130	0.137850	0.644390
N191	N19	0.539940	0.348750	0.516000
C551	C55	0.479590	0.372150	0.526090
C561	C56	0.389560	0.366170	0.561420
C571	C57	0.407100	0.398730	0.538690
C581	C58	0.473770	0.349600	0.572630
H191	H19	0.543200	0.360800	0.565500
C591	C59	0.288690	0.349330	0.572600
H201	H20	0.230200	0.359900	0.565400
C601	C60	0.364690	0.468740	0.529670
N201	N20	0.331620	0.528820	0.522280
N211	N21	0.206610	0.682080	0.849330
C611	C61	0.146260	0.705480	0.859430
C621	C62	0.056230	0.699500	0.894750
C631	C63	0.073770	0.732060	0.872030
C641	C64	0.140440	0.682930	0.905960
H211	H21	0.209870	0.694130	0.898830
C651	C65	0.955360	0.682660	0.905940
H221	H22	0.896870	0.693230	0.898730
C661	C66	0.031360	0.802070	0.863000
N221	N22	0.998290	0.862150	0.855610
N231	N23	0.873270	0.015420	0.182660
C671	C67	0.812920	0.038820	0.192760
C681	C68	0.722890	0.032840	0.228090
C691	C69	0.740430	0.065400	0.205360
C701	C70	0.807100	0.016270	0.239290
H231	H23	0.876530	0.027470	0.232170
C711	C71	0.622020	0.016000	0.239270
H241	H24	0.563530	0.026570	0.232070
C721	C72	0.698020	0.135410	0.196340
N241	N24	0.664950	0.195490	0.188950
N251	N25	0.808810	0.460060	0.516000
C731	C73	0.892560	0.520410	0.526090
C741	C74	0.976610	0.610440	0.561420
C751	C75	0.991630	0.592900	0.538690
C761	C76	0.875830	0.526230	0.572630
H251	H25	0.817600	0.456800	0.565500
C771	C77	0.060640	0.711310	0.572600
H261	H26	0.129700	0.769800	0.565400
C781	C78	0.104050	0.635310	0.529670
N261	N26	0.197200	0.668380	0.522280
N271	N27	0.475480	0.793390	0.849330
C791	C79	0.559230	0.853740	0.859430
C801	C80	0.643280	0.943770	0.894750
C811	C81	0.658300	0.926230	0.872030
C821	C82	0.542500	0.859560	0.905960
H271	H27	0.484270	0.790130	0.898830
C831	C83	0.727310	0.044640	0.905940
H281	H28	0.796370	0.103130	0.898730
C841	C84	0.770720	0.968640	0.863000
N281	N28	0.863870	0.001710	0.855610
N291	N29	0.142140	0.126730	0.182660
C851	C85	0.225890	0.187080	0.192760
C861	C86	0.309940	0.277110	0.228090
C871	C87	0.324960	0.259570	0.205360
C881	C88	0.209160	0.192900	0.239290
H291	H29	0.150930	0.123470	0.232170
C891	C89	0.393970	0.377980	0.239270
H301	H30	0.463030	0.436470	0.232070
C901	C90	0.437380	0.301980	0.196340
N301	N30	0.530530	0.335050	0.188950
N311	N31	0.651250	0.191190	0.516000
C911	C91	0.627850	0.107440	0.526090
C921	C92	0.633830	0.023390	0.561420
C931	C93	0.601270	0.008370	0.538690
C941	C94	0.650400	0.124170	0.572630
H311	H31	0.639200	0.182400	0.565500
C951	C95	0.650670	0.939360	0.572600
H321	H32	0.640100	0.870300	0.565400
C961	C96	0.531260	0.895950	0.529670
N321	N32	0.471180	0.802800	0.522280
N331	N33	0.317920	0.524520	0.849330
C971	C97	0.294520	0.440770	0.859430
C981	C98	0.300500	0.356720	0.894750
C991	C99	0.267940	0.341700	0.872030
C1001	C100	0.317070	0.457500	0.905960
H331	H33	0.305870	0.515730	0.898830
C1011	C101	0.317340	0.272690	0.905940
H341	H34	0.306770	0.203630	0.898730
C1021	C102	0.197930	0.229280	0.863000
N341	N34	0.137850	0.136130	0.855610
N351	N35	0.984580	0.857860	0.182660
C1031	C103	0.961180	0.774110	0.192760
C1041	C104	0.967160	0.690060	0.228090
C1051	C105	0.934600	0.675040	0.205360
C1061	C106	0.983730	0.790840	0.239290
H351	H35	0.972530	0.849070	0.232170
C1071	C107	0.984000	0.606030	0.239270
H361	H36	0.973430	0.536970	0.232070
C1081	C108	0.864590	0.562620	0.196340
N361	N36	0.804510	0.469470	0.188950
N371	N37	0.651250	0.460060	0.016000
C1091	C109	0.627850	0.520410	0.026090
C1101	C110	0.633830	0.610440	0.061420
C1111	C111	0.601270	0.592900	0.038690
C1121	C112	0.650400	0.526230	0.072630
H371	H37	0.639200	0.456800	0.065500
C1131	C113	0.650670	0.711310	0.072600
H381	H38	0.640100	0.769800	0.065400
C1141	C114	0.531260	0.635310	0.029670
N381	N38	0.471180	0.668380	0.022280
N391	N39	0.317920	0.793390	0.349330
C1151	C115	0.294520	0.853740	0.359430
C1161	C116	0.300500	0.943770	0.394750
C1171	C117	0.267940	0.926230	0.372030
C1181	C118	0.317070	0.859560	0.405960
H391	H39	0.305870	0.790130	0.398830
C1191	C119	0.317340	0.044640	0.405940
H401	H40	0.306770	0.103130	0.398730
C1201	C120	0.197930	0.968640	0.363000
N401	N40	0.137850	0.001710	0.355610
N411	N41	0.984580	0.126730	0.682660
C1211	C121	0.961180	0.187080	0.692760
C1221	C122	0.967160	0.277110	0.728090
C1231	C123	0.934600	0.259570	0.705360
C1241	C124	0.983730	0.192900	0.739290
H411	H41	0.972530	0.123470	0.732170
C1251	C125	0.984000	0.377980	0.739270
H421	H42	0.973430	0.436470	0.732070
C1261	C126	0.864590	0.301980	0.696340
N421	N42	0.804510	0.335050	0.688950
N431	N43	0.539940	0.191190	0.016000
C1271	C127	0.479590	0.107440	0.026090
C1281	C128	0.389560	0.023390	0.061420
C1291	C129	0.407100	0.008370	0.038690
C1301	C130	0.473770	0.124170	0.072630
H431	H43	0.543200	0.182400	0.065500
C1311	C131	0.288690	0.939360	0.072600
H441	H44	0.230200	0.870300	0.065400
C1321	C132	0.364690	0.895950	0.029670
N441	N44	0.331620	0.802800	0.022280
N451	N45	0.206610	0.524520	0.349330
C1331	C133	0.146260	0.440770	0.359430
C1341	C134	0.056230	0.356720	0.394750
C1351	C135	0.073770	0.341700	0.372030
C1361	C136	0.140440	0.457500	0.405960
H451	H45	0.209870	0.515730	0.398830
C1371	C137	0.955360	0.272690	0.405940
H461	H46	0.896870	0.203630	0.398730
C1381	C138	0.031360	0.229280	0.363000
N461	N46	0.998290	0.136130	0.355610
N471	N47	0.873270	0.857860	0.682660
C1391	C139	0.812920	0.774110	0.692760
C1401	C140	0.722890	0.690060	0.728090
C1411	C141	0.740430	0.675040	0.705360
C1421	C142	0.807100	0.790840	0.739290
H471	H47	0.876530	0.849070	0.732170
C1431	C143	0.622020	0.606030	0.739270
H481	H48	0.563530	0.536970	0.732070
C1441	C144	0.698020	0.562620	0.696340
N481	N48	0.664950	0.469470	0.688950
N491	N49	0.808810	0.348750	0.016000
C1451	C145	0.892560	0.372150	0.026090
C1461	C146	0.976610	0.366170	0.061420
C1471	C147	0.991630	0.398730	0.038690
C1481	C148	0.875830	0.349600	0.072630
H491	H49	0.817600	0.360800	0.065500
C1491	C149	0.060640	0.349330	0.072600
H501	H50	0.129700	0.359900	0.065400
C1501	C150	0.104050	0.468740	0.029670
N501	N50	0.197200	0.528820	0.022280
N511	N51	0.475480	0.682080	0.349330
C1511	C151	0.559230	0.705480	0.359430
C1521	C152	0.643280	0.699500	0.394750
C1531	C153	0.658300	0.732060	0.372030
C1541	C154	0.542500	0.682930	0.405960
H511	H51	0.484270	0.694130	0.398830
C1551	C155	0.727310	0.682660	0.405940
H521	H52	0.796370	0.693230	0.398730
C1561	C156	0.770720	0.802070	0.363000
N521	N52	0.863870	0.862150	0.355610
N531	N53	0.142140	0.015420	0.682660
C1571	C157	0.225890	0.038820	0.692760
C1581	C158	0.309940	0.032840	0.728090
C1591	C159	0.324960	0.065400	0.705360
C1601	C160	0.209160	0.016270	0.739290
H531	H53	0.150930	0.027470	0.732170
C1611	C161	0.393970	0.016000	0.739270
H541	H54	0.463030	0.026570	0.732070
C1621	C162	0.437380	0.135410	0.696340
N541	N54	0.530530	0.195490	0.688950
N551	N55	0.460060	0.651250	0.484000
C1631	C163	0.520410	0.627850	0.473910
C1641	C164	0.610440	0.633830	0.438580
C1651	C165	0.592900	0.601270	0.461310
C1661	C166	0.526230	0.650400	0.427370
H551	H55	0.456800	0.639200	0.434500
C1671	C167	0.711310	0.650670	0.427400
H561	H56	0.769800	0.640100	0.434600
C1681	C168	0.635310	0.531260	0.470330
N561	N56	0.668380	0.471180	0.477720
N571	N57	0.126730	0.984580	0.817340
C1691	C169	0.187080	0.961180	0.807240
C1701	C170	0.277110	0.967160	0.771910
C1711	C171	0.259570	0.934600	0.794640
C1721	C172	0.192900	0.983730	0.760710
H571	H57	0.123470	0.972530	0.767830
C1731	C173	0.377980	0.984000	0.760730
H581	H58	0.436470	0.973430	0.767930
C1741	C174	0.301980	0.864590	0.803660
N581	N58	0.335050	0.804510	0.811050
N591	N59	0.793390	0.317920	0.150670
C1751	C175	0.853740	0.294520	0.140570
C1761	C176	0.943770	0.300500	0.105250
C1771	C177	0.926230	0.267940	0.127970
C1781	C178	0.859560	0.317070	0.094040
H591	H59	0.790130	0.305870	0.101170
C1791	C179	0.044640	0.317340	0.094060
H601	H60	0.103130	0.306770	0.101270
C1801	C180	0.968640	0.197930	0.137000
N601	N60	0.001710	0.137850	0.144390
N611	N61	0.191190	0.539940	0.484000
C1811	C181	0.107440	0.479590	0.473910
C1821	C182	0.023390	0.389560	0.438580
C1831	C183	0.008370	0.407100	0.461310
C1841	C184	0.124170	0.473770	0.427370
H611	H61	0.182400	0.543200	0.434500
C1851	C185	0.939360	0.288690	0.427400
H621	H62	0.870300	0.230200	0.434600
C1861	C186	0.895950	0.364690	0.470330
N621	N62	0.802800	0.331620	0.477720
N631	N63	0.857860	0.873270	0.817340
C1871	C187	0.774110	0.812920	0.807240
C1881	C188	0.690060	0.722890	0.771910
C1891	C189	0.675040	0.740430	0.794640
C1901	C190	0.790840	0.807100	0.760710
H631	H63	0.849070	0.876530	0.767830
C1911	C191	0.606030	0.622020	0.760730
H641	H64	0.536970	0.563530	0.767930
C1921	C192	0.562620	0.698020	0.803660
N641	N64	0.469470	0.664950	0.811050
N651	N65	0.524520	0.206610	0.150670
C1931	C193	0.440770	0.146260	0.140570
C1941	C194	0.356720	0.056230	0.105250
C1951	C195	0.341700	0.073770	0.127970
C1961	C196	0.457500	0.140440	0.094040
H651	H65	0.515730	0.209870	0.101170
C1971	C197	0.272690	0.955360	0.094060
H661	H66	0.203630	0.896870	0.101270
C1981	C198	0.229280	0.031360	0.137000
N661	N66	0.136130	0.998290	0.144390
N671	N67	0.348750	0.808810	0.484000
C1991	C199	0.372150	0.892560	0.473910
C2001	C200	0.366170	0.976610	0.438580
C2011	C201	0.398730	0.991630	0.461310
C2021	C202	0.349600	0.875830	0.427370
H671	H67	0.360800	0.817600	0.434500
C2031	C203	0.349330	0.060640	0.427400
H681	H68	0.359900	0.129700	0.434600
C2041	C204	0.468740	0.104050	0.470330
N681	N68	0.528820	0.197200	0.477720
N691	N69	0.015420	0.142140	0.817340
C2051	C205	0.038820	0.225890	0.807240
C2061	C206	0.032840	0.309940	0.771910
C2071	C207	0.065400	0.324960	0.794640
C2081	C208	0.016270	0.209160	0.760710
H691	H69	0.027470	0.150930	0.767830
C2091	C209	0.016000	0.393970	0.760730
H701	H70	0.026570	0.463030	0.767930
C2101	C210	0.135410	0.437380	0.803660
N701	N70	0.195490	0.530530	0.811050
N711	N71	0.682080	0.475480	0.150670
C2111	C211	0.705480	0.559230	0.140570
C2121	C212	0.699500	0.643280	0.105250
C2131	C213	0.732060	0.658300	0.127970
C2141	C214	0.682930	0.542500	0.094040
H711	H71	0.694130	0.484270	0.101170
C2151	C215	0.682660	0.727310	0.094060
H721	H72	0.693230	0.796370	0.101270
C2161	C216	0.802070	0.770720	0.137000
N721	N72	0.862150	0.863870	0.144390
Zn11	Zn1	0.333330	0.666670	0.003620
Zn21	Zn2	0.000000	0.000000	0.336950
Zn31	Zn3	0.666670	0.333330	0.670280
Zn41	Zn4	0.666670	0.333330	0.496380
Zn51	Zn5	0.333330	0.666670	0.829720
Zn61	Zn6	0.000000	0.000000	0.163050
Zn71	Zn7	0.666670	0.333330	0.996380
Zn81	Zn8	0.333330	0.666670	0.329720
Zn91	Zn9	0.000000	0.000000	0.663050
Zn101	Zn10	0.333330	0.666670	0.503620
Zn111	Zn11	0.000000	0.000000	0.836950
Zn121	Zn12	0.666670	0.333330	0.170280
