data_TONWUO01_clean_PM
_symmetry_space_group_name_H-M	'P1'
_cell_length_a	19.265000
_cell_length_b	19.265000
_cell_length_c	15.913000
_cell_angle_alpha	90.000000
_cell_angle_beta	90.000000
_cell_angle_gamma	90.000000
_symmetry_Int_Tables_number 1

loop_
_symmetry_equiv_pos_as_xyz
'x,y,z'

loop_
_atom_site_label
_atom_site_type_symbol
_atom_site_fract_x
_atom_site_fract_y
_atom_site_fract_z
N11	N1	0.703700	0.313500	0.557400
O11	O1	0.596200	0.239900	0.821400
O21	O2	0.545000	0.314200	0.738200
C11	C1	0.595300	0.278300	0.758100
C21	C2	0.659400	0.279000	0.703100
C31	C3	0.644400	0.316100	0.620900
C41	C4	0.719800	0.240100	0.530600
C51	C5	0.679700	0.352500	0.483000
C61	C6	0.768600	0.345400	0.589700
N21	N2	0.203700	0.813500	0.057400
O31	O3	0.096200	0.739900	0.321400
O41	O4	0.045000	0.814200	0.238200
C71	C7	0.095300	0.778300	0.258100
C81	C8	0.159400	0.779000	0.203100
C91	C9	0.144400	0.816100	0.120900
C101	C10	0.219800	0.740100	0.030600
C111	C11	0.179700	0.852500	0.983000
C121	C12	0.268600	0.845400	0.089700
N31	N3	0.796300	0.686500	0.057400
O51	O5	0.903800	0.760100	0.321400
O61	O6	0.955000	0.685800	0.238200
C131	C13	0.904700	0.721700	0.258100
C141	C14	0.840600	0.721000	0.203100
C151	C15	0.855600	0.683900	0.120900
C161	C16	0.780200	0.759900	0.030600
C171	C17	0.820300	0.647500	0.983000
C181	C18	0.731400	0.654600	0.089700
N41	N4	0.296300	0.186500	0.557400
O71	O7	0.403800	0.260100	0.821400
O81	O8	0.455000	0.185800	0.738200
C191	C19	0.404700	0.221700	0.758100
C201	C20	0.340600	0.221000	0.703100
C211	C21	0.355600	0.183900	0.620900
C221	C22	0.280200	0.259900	0.530600
C231	C23	0.320300	0.147500	0.483000
C241	C24	0.231400	0.154600	0.589700
N51	N5	0.936500	0.453700	0.807400
O91	O9	0.010100	0.346200	0.071400
O101	O10	0.935800	0.295000	0.988200
C251	C25	0.971700	0.345300	0.008100
C261	C26	0.971000	0.409400	0.953100
C271	C27	0.933900	0.394400	0.870900
C281	C28	0.009900	0.469800	0.780600
C291	C29	0.897500	0.429700	0.733000
C301	C30	0.904600	0.518600	0.839700
N61	N6	0.436500	0.953700	0.307400
O111	O11	0.510100	0.846200	0.571400
O121	O12	0.435800	0.795000	0.488200
C311	C31	0.471700	0.845300	0.508100
C321	C32	0.471000	0.909400	0.453100
C331	C33	0.433900	0.894400	0.370900
C341	C34	0.509900	0.969800	0.280600
C351	C35	0.397500	0.929700	0.233000
C361	C36	0.404600	0.018600	0.339700
N71	N7	0.563500	0.546300	0.307400
O131	O13	0.489900	0.653800	0.571400
O141	O14	0.564200	0.705000	0.488200
C371	C37	0.528300	0.654700	0.508100
C381	C38	0.529000	0.590600	0.453100
C391	C39	0.566100	0.605600	0.370900
C401	C40	0.490100	0.530200	0.280600
C411	C41	0.602500	0.570300	0.233000
C421	C42	0.595400	0.481400	0.339700
N81	N8	0.063500	0.046300	0.807400
O151	O15	0.989900	0.153800	0.071400
O161	O16	0.064200	0.205000	0.988200
C431	C43	0.028300	0.154700	0.008100
C441	C44	0.029000	0.090600	0.953100
C451	C45	0.066100	0.105600	0.870900
C461	C46	0.990100	0.030200	0.780600
C471	C47	0.102500	0.070300	0.733000
C481	C48	0.095400	0.981400	0.839700
N91	N9	0.796300	0.313500	0.442600
O171	O17	0.903800	0.239900	0.178600
O181	O18	0.955000	0.314200	0.261800
C491	C49	0.904700	0.278300	0.241900
C501	C50	0.840600	0.279000	0.296900
C511	C51	0.855600	0.316100	0.379100
C521	C52	0.780200	0.240100	0.469400
C531	C53	0.820300	0.352500	0.517000
C541	C54	0.731400	0.345400	0.410300
N101	N10	0.296300	0.813500	0.942600
O191	O19	0.403800	0.739900	0.678600
O201	O20	0.455000	0.814200	0.761800
C551	C55	0.404700	0.778300	0.741900
C561	C56	0.340600	0.779000	0.796900
C571	C57	0.355600	0.816100	0.879100
C581	C58	0.280200	0.740100	0.969400
C591	C59	0.320300	0.852500	0.017000
C601	C60	0.231400	0.845400	0.910300
N111	N11	0.703700	0.686500	0.942600
O211	O21	0.596200	0.760100	0.678600
O221	O22	0.545000	0.685800	0.761800
C611	C61	0.595300	0.721700	0.741900
C621	C62	0.659400	0.721000	0.796900
C631	C63	0.644400	0.683900	0.879100
C641	C64	0.719800	0.759900	0.969400
C651	C65	0.679700	0.647500	0.017000
C661	C66	0.768600	0.654600	0.910300
N121	N12	0.203700	0.186500	0.442600
O231	O23	0.096200	0.260100	0.178600
O241	O24	0.045000	0.185800	0.261800
C671	C67	0.095300	0.221700	0.241900
C681	C68	0.159400	0.221000	0.296900
C691	C69	0.144400	0.183900	0.379100
C701	C70	0.219800	0.259900	0.469400
C711	C71	0.179700	0.147500	0.517000
C721	C72	0.268600	0.154600	0.410300
N131	N13	0.563500	0.453700	0.192600
O251	O25	0.489900	0.346200	0.928600
O261	O26	0.564200	0.295000	0.011800
C731	C73	0.528300	0.345300	0.991900
C741	C74	0.529000	0.409400	0.046900
C751	C75	0.566100	0.394400	0.129100
C761	C76	0.490100	0.469800	0.219400
C771	C77	0.602500	0.429700	0.267000
C781	C78	0.595400	0.518600	0.160300
N141	N14	0.063500	0.953700	0.692600
O271	O27	0.989900	0.846200	0.428600
O281	O28	0.064200	0.795000	0.511800
C791	C79	0.028300	0.845300	0.491900
C801	C80	0.029000	0.909400	0.546900
C811	C81	0.066100	0.894400	0.629100
C821	C82	0.990100	0.969800	0.719400
C831	C83	0.102500	0.929700	0.767000
C841	C84	0.095400	0.018600	0.660300
N151	N15	0.936500	0.546300	0.692600
O291	O29	0.010100	0.653800	0.428600
O301	O30	0.935800	0.705000	0.511800
C851	C85	0.971700	0.654700	0.491900
C861	C86	0.971000	0.590600	0.546900
C871	C87	0.933900	0.605600	0.629100
C881	C88	0.009900	0.530200	0.719400
C891	C89	0.897500	0.570300	0.767000
C901	C90	0.904600	0.481400	0.660300
N161	N16	0.436500	0.046300	0.192600
O311	O31	0.510100	0.153800	0.928600
O321	O32	0.435800	0.205000	0.011800
C911	C91	0.471700	0.154700	0.991900
C921	C92	0.471000	0.090600	0.046900
C931	C93	0.433900	0.105600	0.129100
C941	C94	0.509900	0.030200	0.219400
C951	C95	0.397500	0.070300	0.267000
C961	C96	0.404600	0.981400	0.160300
Zn11	Zn1	0.500000	0.250000	0.875000
Zn21	Zn2	0.000000	0.750000	0.375000
Zn31	Zn3	0.000000	0.250000	0.125000
Zn41	Zn4	0.500000	0.750000	0.625000
N171	N17	0.296300	0.686500	0.442600
O331	O33	0.403800	0.760100	0.178600
O341	O34	0.455000	0.685800	0.261800
C971	C97	0.404700	0.721700	0.241900
C981	C98	0.340600	0.721000	0.296900
C991	C99	0.355600	0.683900	0.379100
C1001	C100	0.280200	0.759900	0.469400
C1011	C101	0.320300	0.647500	0.517000
C1021	C102	0.231400	0.654600	0.410300
N181	N18	0.796300	0.186500	0.942600
O351	O35	0.903800	0.260100	0.678600
O361	O36	0.955000	0.185800	0.761800
C1031	C103	0.904700	0.221700	0.741900
C1041	C104	0.840600	0.221000	0.796900
C1051	C105	0.855600	0.183900	0.879100
C1061	C106	0.780200	0.259900	0.969400
C1071	C107	0.820300	0.147500	0.017000
C1081	C108	0.731400	0.154600	0.910300
N191	N19	0.203700	0.313500	0.942600
O371	O37	0.096200	0.239900	0.678600
O381	O38	0.045000	0.314200	0.761800
C1091	C109	0.095300	0.278300	0.741900
C1101	C110	0.159400	0.279000	0.796900
C1111	C111	0.144400	0.316100	0.879100
C1121	C112	0.219800	0.240100	0.969400
C1131	C113	0.179700	0.352500	0.017000
C1141	C114	0.268600	0.345400	0.910300
N201	N20	0.703700	0.813500	0.442600
O391	O39	0.596200	0.739900	0.178600
O401	O40	0.545000	0.814200	0.261800
C1151	C115	0.595300	0.778300	0.241900
C1161	C116	0.659400	0.779000	0.296900
C1171	C117	0.644400	0.816100	0.379100
C1181	C118	0.719800	0.740100	0.469400
C1191	C119	0.679700	0.852500	0.517000
C1201	C120	0.768600	0.845400	0.410300
N211	N21	0.063500	0.546300	0.192600
O411	O41	0.989900	0.653800	0.928600
O421	O42	0.064200	0.705000	0.011800
C1211	C121	0.028300	0.654700	0.991900
C1221	C122	0.029000	0.590600	0.046900
C1231	C123	0.066100	0.605600	0.129100
C1241	C124	0.990100	0.530200	0.219400
C1251	C125	0.102500	0.570300	0.267000
C1261	C126	0.095400	0.481400	0.160300
N221	N22	0.563500	0.046300	0.692600
O431	O43	0.489900	0.153800	0.428600
O441	O44	0.564200	0.205000	0.511800
C1271	C127	0.528300	0.154700	0.491900
C1281	C128	0.529000	0.090600	0.546900
C1291	C129	0.566100	0.105600	0.629100
C1301	C130	0.490100	0.030200	0.719400
C1311	C131	0.602500	0.070300	0.767000
C1321	C132	0.595400	0.981400	0.660300
N231	N23	0.436500	0.453700	0.692600
O451	O45	0.510100	0.346200	0.428600
O461	O46	0.435800	0.295000	0.511800
C1331	C133	0.471700	0.345300	0.491900
C1341	C134	0.471000	0.409400	0.546900
C1351	C135	0.433900	0.394400	0.629100
C1361	C136	0.509900	0.469800	0.719400
C1371	C137	0.397500	0.429700	0.767000
C1381	C138	0.404600	0.518600	0.660300
N241	N24	0.936500	0.953700	0.192600
O471	O47	0.010100	0.846200	0.928600
O481	O48	0.935800	0.795000	0.011800
C1391	C139	0.971700	0.845300	0.991900
C1401	C140	0.971000	0.909400	0.046900
C1411	C141	0.933900	0.894400	0.129100
C1421	C142	0.009900	0.969800	0.219400
C1431	C143	0.897500	0.929700	0.267000
C1441	C144	0.904600	0.018600	0.160300
N251	N25	0.203700	0.686500	0.557400
O491	O49	0.096200	0.760100	0.821400
O501	O50	0.045000	0.685800	0.738200
C1451	C145	0.095300	0.721700	0.758100
C1461	C146	0.159400	0.721000	0.703100
C1471	C147	0.144400	0.683900	0.620900
C1481	C148	0.219800	0.759900	0.530600
C1491	C149	0.179700	0.647500	0.483000
C1501	C150	0.268600	0.654600	0.589700
N261	N26	0.703700	0.186500	0.057400
O511	O51	0.596200	0.260100	0.321400
O521	O52	0.545000	0.185800	0.238200
C1511	C151	0.595300	0.221700	0.258100
C1521	C152	0.659400	0.221000	0.203100
C1531	C153	0.644400	0.183900	0.120900
C1541	C154	0.719800	0.259900	0.030600
C1551	C155	0.679700	0.147500	0.983000
C1561	C156	0.768600	0.154600	0.089700
N271	N27	0.296300	0.313500	0.057400
O531	O53	0.403800	0.239900	0.321400
O541	O54	0.455000	0.314200	0.238200
C1571	C157	0.404700	0.278300	0.258100
C1581	C158	0.340600	0.279000	0.203100
C1591	C159	0.355600	0.316100	0.120900
C1601	C160	0.280200	0.240100	0.030600
C1611	C161	0.320300	0.352500	0.983000
C1621	C162	0.231400	0.345400	0.089700
N281	N28	0.796300	0.813500	0.557400
O551	O55	0.903800	0.739900	0.821400
O561	O56	0.955000	0.814200	0.738200
C1631	C163	0.904700	0.778300	0.758100
C1641	C164	0.840600	0.779000	0.703100
C1651	C165	0.855600	0.816100	0.620900
C1661	C166	0.780200	0.740100	0.530600
C1671	C167	0.820300	0.852500	0.483000
C1681	C168	0.731400	0.845400	0.589700
N291	N29	0.436500	0.546300	0.807400
O571	O57	0.510100	0.653800	0.071400
O581	O58	0.435800	0.705000	0.988200
C1691	C169	0.471700	0.654700	0.008100
C1701	C170	0.471000	0.590600	0.953100
C1711	C171	0.433900	0.605600	0.870900
C1721	C172	0.509900	0.530200	0.780600
C1731	C173	0.397500	0.570300	0.733000
C1741	C174	0.404600	0.481400	0.839700
N301	N30	0.936500	0.046300	0.307400
O591	O59	0.010100	0.153800	0.571400
O601	O60	0.935800	0.205000	0.488200
C1751	C175	0.971700	0.154700	0.508100
C1761	C176	0.971000	0.090600	0.453100
C1771	C177	0.933900	0.105600	0.370900
C1781	C178	0.009900	0.030200	0.280600
C1791	C179	0.897500	0.070300	0.233000
C1801	C180	0.904600	0.981400	0.339700
N311	N31	0.063500	0.453700	0.307400
O611	O61	0.989900	0.346200	0.571400
O621	O62	0.064200	0.295000	0.488200
C1811	C181	0.028300	0.345300	0.508100
C1821	C182	0.029000	0.409400	0.453100
C1831	C183	0.066100	0.394400	0.370900
C1841	C184	0.990100	0.469800	0.280600
C1851	C185	0.102500	0.429700	0.233000
C1861	C186	0.095400	0.518600	0.339700
N321	N32	0.563500	0.953700	0.807400
O631	O63	0.489900	0.846200	0.071400
O641	O64	0.564200	0.795000	0.988200
C1871	C187	0.528300	0.845300	0.008100
C1881	C188	0.529000	0.909400	0.953100
C1891	C189	0.566100	0.894400	0.870900
C1901	C190	0.490100	0.969800	0.780600
C1911	C191	0.602500	0.929700	0.733000
C1921	C192	0.595400	0.018600	0.839700
Zn51	Zn5	0.500000	0.750000	0.125000
Zn61	Zn6	0.000000	0.250000	0.625000
Zn71	Zn7	0.000000	0.750000	0.875000
Zn81	Zn8	0.500000	0.250000	0.375000
