data_TONWUO_clean_PM
_symmetry_space_group_name_H-M	'P1'
_cell_length_a	24.970000
_cell_length_b	19.252000
_cell_length_c	15.913000
_cell_angle_alpha	90.000000
_cell_angle_beta	129.460000
_cell_angle_gamma	90.000000
_symmetry_Int_Tables_number 1

loop_
_symmetry_equiv_pos_as_xyz
'x,y,z'

loop_
_atom_site_label
_atom_site_type_symbol
_atom_site_fract_x
_atom_site_fract_y
_atom_site_fract_z
N11	N1	0.454100	0.063400	0.260600
N21	N2	0.045900	0.936300	0.853500
O11	O1	0.345700	0.990500	0.416500
O21	O2	0.294100	0.064700	0.281800
C11	C1	0.344900	0.029300	0.352800
C21	C2	0.410400	0.028600	0.364400
C31	C3	0.393500	0.066200	0.265000
C41	C4	0.469900	0.989700	0.250300
C51	C5	0.429800	0.102300	0.161200
C61	C6	0.518100	0.094800	0.357300
O31	O3	0.153100	0.010900	0.224900
O41	O4	0.205100	0.936700	0.193100
C71	C7	0.155100	0.972700	0.163400
C81	C8	0.091200	0.971200	0.044900
C91	C9	0.105500	0.934700	0.976900
C101	C10	0.030700	0.009200	0.809600
C111	C11	0.070300	0.897400	0.803100
C121	C12	0.981300	0.903700	0.821200
O51	O5	0.239500	0.096200	0.418900
O61	O6	0.314700	0.045900	0.576200
C131	C13	0.276600	0.095800	0.518600
C141	C14	0.279000	0.158600	0.577400
C151	C15	0.315900	0.145400	0.696500
N31	N3	0.312700	0.203400	0.755200
C161	C16	0.240200	0.220600	0.709800
C171	C17	0.239600	0.280700	0.772200
C181	C18	0.345200	0.267100	0.755600
C191	C19	0.352400	0.319700	0.834800
C201	C20	0.352800	0.179000	0.871200
C211	C21	0.345300	0.229400	0.935400
N41	N4	0.314000	0.297000	0.872000
C221	C22	0.317000	0.355900	0.938200
C231	C23	0.279600	0.340200	0.982600
C241	C24	0.279000	0.404600	0.037400
O71	O7	0.240600	0.404000	0.062900
O81	O8	0.314000	0.455000	0.052700
Zn11	Zn1	0.248900	0.000400	0.373900
H11	H1	0.446800	0.053000	0.429400
H21	H2	0.425100	0.981900	0.367600
H31	H3	0.352900	0.045200	0.200600
H41	H4	0.384400	0.114200	0.267700
H51	H5	0.429500	0.969300	0.184800
H61	H6	0.482100	0.962700	0.310900
H71	H7	0.424800	0.150300	0.171400
H81	H8	0.385600	0.085100	0.098800
H91	H9	0.537300	0.067600	0.421300
H101	H10	0.506300	0.139700	0.367500
H111	H11	0.076400	0.017800	0.018100
H121	H12	0.054800	0.946800	0.037300
H131	H13	0.145300	0.956500	0.991900
H141	H14	0.116100	0.887100	0.000100
H151	H15	0.071100	0.028700	0.823700
H161	H16	0.019500	0.036600	0.846900
H171	H17	0.076300	0.849500	0.824100
H181	H18	0.114500	0.915600	0.830100
H191	H19	0.962200	0.931400	0.846700
H201	H20	0.992100	0.858500	0.854000
H211	H21	0.302900	0.195100	0.571900
H221	H22	0.232400	0.173200	0.543000
H231	H23	0.363600	0.135600	0.731400
H241	H24	0.294900	0.105100	0.700600
H251	H25	0.215300	0.235700	0.636000
H261	H26	0.218000	0.180300	0.710700
H271	H27	0.214500	0.265900	0.796100
H281	H28	0.218000	0.321400	0.727600
H291	H29	0.389900	0.256900	0.776700
H301	H30	0.315800	0.286400	0.683600
H311	H31	0.335600	0.364300	0.800500
H321	H32	0.400500	0.323400	0.897900
H331	H33	0.335600	0.134400	0.871500
H341	H34	0.401000	0.175200	0.905000
H351	H35	0.389900	0.240200	0.003300
H361	H36	0.316200	0.209700	0.949300
H371	H37	0.364900	0.365300	0.998000
H381	H38	0.296100	0.396400	0.892700
H391	H39	0.232900	0.326100	0.924100
H401	H40	0.303500	0.303300	0.034800
N51	N5	0.954100	0.563400	0.260600
N61	N6	0.545900	0.436300	0.853500
O91	O9	0.845700	0.490500	0.416500
O101	O10	0.794100	0.564700	0.281800
C251	C25	0.844900	0.529300	0.352800
C261	C26	0.910400	0.528600	0.364400
C271	C27	0.893500	0.566200	0.265000
C281	C28	0.969900	0.489700	0.250300
C291	C29	0.929800	0.602300	0.161200
C301	C30	0.018100	0.594800	0.357300
O111	O11	0.653100	0.510900	0.224900
O121	O12	0.705100	0.436700	0.193100
C311	C31	0.655100	0.472700	0.163400
C321	C32	0.591200	0.471200	0.044900
C331	C33	0.605500	0.434700	0.976900
C341	C34	0.530700	0.509200	0.809600
C351	C35	0.570300	0.397400	0.803100
C361	C36	0.481300	0.403700	0.821200
O131	O13	0.739500	0.596200	0.418900
O141	O14	0.814700	0.545900	0.576200
C371	C37	0.776600	0.595800	0.518600
C381	C38	0.779000	0.658600	0.577400
C391	C39	0.815900	0.645400	0.696500
N71	N7	0.812700	0.703400	0.755200
C401	C40	0.740200	0.720600	0.709800
C411	C41	0.739600	0.780700	0.772200
C421	C42	0.845200	0.767100	0.755600
C431	C43	0.852400	0.819700	0.834800
C441	C44	0.852800	0.679000	0.871200
C451	C45	0.845300	0.729400	0.935400
N81	N8	0.814000	0.797000	0.872000
C461	C46	0.817000	0.855900	0.938200
C471	C47	0.779600	0.840200	0.982600
C481	C48	0.779000	0.904600	0.037400
O151	O15	0.740600	0.904000	0.062900
O161	O16	0.814000	0.955000	0.052700
Zn21	Zn2	0.748900	0.500400	0.373900
H411	H41	0.946800	0.553000	0.429400
H421	H42	0.925100	0.481900	0.367600
H431	H43	0.852900	0.545200	0.200600
H441	H44	0.884400	0.614200	0.267700
H451	H45	0.929500	0.469300	0.184800
H461	H46	0.982100	0.462700	0.310900
H471	H47	0.924800	0.650300	0.171400
H481	H48	0.885600	0.585100	0.098800
H491	H49	0.037300	0.567600	0.421300
H501	H50	0.006300	0.639700	0.367500
H511	H51	0.576400	0.517800	0.018100
H521	H52	0.554800	0.446800	0.037300
H531	H53	0.645300	0.456500	0.991900
H541	H54	0.616100	0.387100	0.000100
H551	H55	0.571100	0.528700	0.823700
H561	H56	0.519500	0.536600	0.846900
H571	H57	0.576300	0.349500	0.824100
H581	H58	0.614500	0.415600	0.830100
H591	H59	0.462200	0.431400	0.846700
H601	H60	0.492100	0.358500	0.854000
H611	H61	0.802900	0.695100	0.571900
H621	H62	0.732400	0.673200	0.543000
H631	H63	0.863600	0.635600	0.731400
H641	H64	0.794900	0.605100	0.700600
H651	H65	0.715300	0.735700	0.636000
H661	H66	0.718000	0.680300	0.710700
H671	H67	0.714500	0.765900	0.796100
H681	H68	0.718000	0.821400	0.727600
H691	H69	0.889900	0.756900	0.776700
H701	H70	0.815800	0.786400	0.683600
H711	H71	0.835600	0.864300	0.800500
H721	H72	0.900500	0.823400	0.897900
H731	H73	0.835600	0.634400	0.871500
H741	H74	0.901000	0.675200	0.905000
H751	H75	0.889900	0.740200	0.003300
H761	H76	0.816200	0.709700	0.949300
H771	H77	0.864900	0.865300	0.998000
H781	H78	0.796100	0.896400	0.892700
H791	H79	0.732900	0.826100	0.924100
H801	H80	0.803500	0.803300	0.034800
N91	N9	0.545900	0.063400	0.239400
N101	N10	0.954100	0.936300	0.646500
O171	O17	0.654300	0.990500	0.083500
O181	O18	0.705900	0.064700	0.218200
C491	C49	0.655100	0.029300	0.147200
C501	C50	0.589600	0.028600	0.135600
C511	C51	0.606500	0.066200	0.235000
C521	C52	0.530100	0.989700	0.249700
C531	C53	0.570200	0.102300	0.338800
C541	C54	0.481900	0.094800	0.142700
O191	O19	0.846900	0.010900	0.275100
O201	O20	0.794900	0.936700	0.306900
C551	C55	0.844900	0.972700	0.336600
C561	C56	0.908800	0.971200	0.455100
C571	C57	0.894500	0.934700	0.523100
C581	C58	0.969300	0.009200	0.690400
C591	C59	0.929700	0.897400	0.696900
C601	C60	0.018700	0.903700	0.678800
O211	O21	0.760500	0.096200	0.081100
O221	O22	0.685300	0.045900	0.923800
C611	C61	0.723400	0.095800	0.981400
C621	C62	0.721000	0.158600	0.922600
C631	C63	0.684100	0.145400	0.803500
N111	N11	0.687300	0.203400	0.744800
C641	C64	0.759800	0.220600	0.790200
C651	C65	0.760400	0.280700	0.727800
C661	C66	0.654800	0.267100	0.744400
C671	C67	0.647600	0.319700	0.665200
C681	C68	0.647200	0.179000	0.628800
C691	C69	0.654700	0.229400	0.564600
N121	N12	0.686000	0.297000	0.628000
C701	C70	0.683000	0.355900	0.561800
C711	C71	0.720400	0.340200	0.517400
C721	C72	0.721000	0.404600	0.462600
O231	O23	0.759400	0.404000	0.437100
O241	O24	0.686000	0.455000	0.447300
Zn31	Zn3	0.751100	0.000400	0.126100
H811	H81	0.553200	0.053000	0.070600
H821	H82	0.574900	0.981900	0.132400
H831	H83	0.647100	0.045200	0.299400
H841	H84	0.615600	0.114200	0.232300
H851	H85	0.570500	0.969300	0.315200
H861	H86	0.517900	0.962700	0.189100
H871	H87	0.575200	0.150300	0.328600
H881	H88	0.614400	0.085100	0.401200
H891	H89	0.462700	0.067600	0.078700
H901	H90	0.493700	0.139700	0.132500
H911	H91	0.923600	0.017800	0.481900
H921	H92	0.945200	0.946800	0.462700
H931	H93	0.854700	0.956500	0.508100
H941	H94	0.883900	0.887100	0.499900
H951	H95	0.928900	0.028700	0.676300
H961	H96	0.980500	0.036600	0.653100
H971	H97	0.923700	0.849500	0.675900
H981	H98	0.885500	0.915600	0.669900
H991	H99	0.037800	0.931400	0.653300
H1001	H100	0.007900	0.858500	0.646000
H1011	H101	0.697100	0.195100	0.928100
H1021	H102	0.767600	0.173200	0.957000
H1031	H103	0.636400	0.135600	0.768600
H1041	H104	0.705100	0.105100	0.799400
H1051	H105	0.784700	0.235700	0.864000
H1061	H106	0.782000	0.180300	0.789300
H1071	H107	0.785500	0.265900	0.703900
H1081	H108	0.782000	0.321400	0.772400
H1091	H109	0.610100	0.256900	0.723300
H1101	H110	0.684200	0.286400	0.816400
H1111	H111	0.664400	0.364300	0.699500
H1121	H112	0.599500	0.323400	0.602100
H1131	H113	0.664400	0.134400	0.628500
H1141	H114	0.599000	0.175200	0.595000
H1151	H115	0.610100	0.240200	0.496700
H1161	H116	0.683800	0.209700	0.550700
H1171	H117	0.635100	0.365300	0.502000
H1181	H118	0.703900	0.396400	0.607300
H1191	H119	0.767100	0.326100	0.575900
H1201	H120	0.696500	0.303300	0.465200
N131	N13	0.045900	0.563400	0.239400
N141	N14	0.454100	0.436300	0.646500
O251	O25	0.154300	0.490500	0.083500
O261	O26	0.205900	0.564700	0.218200
C731	C73	0.155100	0.529300	0.147200
C741	C74	0.089600	0.528600	0.135600
C751	C75	0.106500	0.566200	0.235000
C761	C76	0.030100	0.489700	0.249700
C771	C77	0.070200	0.602300	0.338800
C781	C78	0.981900	0.594800	0.142700
O271	O27	0.346900	0.510900	0.275100
O281	O28	0.294900	0.436700	0.306900
C791	C79	0.344900	0.472700	0.336600
C801	C80	0.408800	0.471200	0.455100
C811	C81	0.394500	0.434700	0.523100
C821	C82	0.469300	0.509200	0.690400
C831	C83	0.429700	0.397400	0.696900
C841	C84	0.518700	0.403700	0.678800
O291	O29	0.260500	0.596200	0.081100
O301	O30	0.185300	0.545900	0.923800
C851	C85	0.223400	0.595800	0.981400
C861	C86	0.221000	0.658600	0.922600
C871	C87	0.184100	0.645400	0.803500
N151	N15	0.187300	0.703400	0.744800
C881	C88	0.259800	0.720600	0.790200
C891	C89	0.260400	0.780700	0.727800
C901	C90	0.154800	0.767100	0.744400
C911	C91	0.147600	0.819700	0.665200
C921	C92	0.147200	0.679000	0.628800
C931	C93	0.154700	0.729400	0.564600
N161	N16	0.186000	0.797000	0.628000
C941	C94	0.183000	0.855900	0.561800
C951	C95	0.220400	0.840200	0.517400
C961	C96	0.221000	0.904600	0.462600
O311	O31	0.259400	0.904000	0.437100
O321	O32	0.186000	0.955000	0.447300
Zn41	Zn4	0.251100	0.500400	0.126100
H1211	H121	0.053200	0.553000	0.070600
H1221	H122	0.074900	0.481900	0.132400
H1231	H123	0.147100	0.545200	0.299400
H1241	H124	0.115600	0.614200	0.232300
H1251	H125	0.070500	0.469300	0.315200
H1261	H126	0.017900	0.462700	0.189100
H1271	H127	0.075200	0.650300	0.328600
H1281	H128	0.114400	0.585100	0.401200
H1291	H129	0.962700	0.567600	0.078700
H1301	H130	0.993700	0.639700	0.132500
H1311	H131	0.423600	0.517800	0.481900
H1321	H132	0.445200	0.446800	0.462700
H1331	H133	0.354700	0.456500	0.508100
H1341	H134	0.383900	0.387100	0.499900
H1351	H135	0.428900	0.528700	0.676300
H1361	H136	0.480500	0.536600	0.653100
H1371	H137	0.423700	0.349500	0.675900
H1381	H138	0.385500	0.415600	0.669900
H1391	H139	0.537800	0.431400	0.653300
H1401	H140	0.507900	0.358500	0.646000
H1411	H141	0.197100	0.695100	0.928100
H1421	H142	0.267600	0.673200	0.957000
H1431	H143	0.136400	0.635600	0.768600
H1441	H144	0.205100	0.605100	0.799400
H1451	H145	0.284700	0.735700	0.864000
H1461	H146	0.282000	0.680300	0.789300
H1471	H147	0.285500	0.765900	0.703900
H1481	H148	0.282000	0.821400	0.772400
H1491	H149	0.110100	0.756900	0.723300
H1501	H150	0.184200	0.786400	0.816400
H1511	H151	0.164400	0.864300	0.699500
H1521	H152	0.099500	0.823400	0.602100
H1531	H153	0.164400	0.634400	0.628500
H1541	H154	0.099000	0.675200	0.595000
H1551	H155	0.110100	0.740200	0.496700
H1561	H156	0.183800	0.709700	0.550700
H1571	H157	0.135100	0.865300	0.502000
H1581	H158	0.203900	0.896400	0.607300
H1591	H159	0.267100	0.826100	0.575900
H1601	H160	0.196500	0.803300	0.465200
N171	N17	0.545900	0.936600	0.739400
N181	N18	0.954100	0.063700	0.146500
O331	O33	0.654300	0.009500	0.583500
O341	O34	0.705900	0.935300	0.718200
C971	C97	0.655100	0.970700	0.647200
C981	C98	0.589600	0.971400	0.635600
C991	C99	0.606500	0.933800	0.735000
C1001	C100	0.530100	0.010300	0.749700
C1011	C101	0.570200	0.897700	0.838800
C1021	C102	0.481900	0.905200	0.642700
O351	O35	0.846900	0.989100	0.775100
O361	O36	0.794900	0.063300	0.806900
C1031	C103	0.844900	0.027300	0.836600
C1041	C104	0.908800	0.028800	0.955100
C1051	C105	0.894500	0.065300	0.023100
C1061	C106	0.969300	0.990800	0.190400
C1071	C107	0.929700	0.102600	0.196900
C1081	C108	0.018700	0.096300	0.178800
O371	O37	0.760500	0.903800	0.581100
O381	O38	0.685300	0.954100	0.423800
C1091	C109	0.723400	0.904200	0.481400
C1101	C110	0.721000	0.841400	0.422600
C1111	C111	0.684100	0.854600	0.303500
N191	N19	0.687300	0.796600	0.244800
C1121	C112	0.759800	0.779400	0.290200
C1131	C113	0.760400	0.719300	0.227800
C1141	C114	0.654800	0.732900	0.244400
C1151	C115	0.647600	0.680300	0.165200
C1161	C116	0.647200	0.821000	0.128800
C1171	C117	0.654700	0.770600	0.064600
N201	N20	0.686000	0.703000	0.128000
C1181	C118	0.683000	0.644100	0.061800
C1191	C119	0.720400	0.659800	0.017400
C1201	C120	0.721000	0.595400	0.962600
O391	O39	0.759400	0.596000	0.937100
O401	O40	0.686000	0.545000	0.947300
Zn51	Zn5	0.751100	0.999600	0.626100
H1611	H161	0.553200	0.947000	0.570600
H1621	H162	0.574900	0.018100	0.632400
H1631	H163	0.647100	0.954800	0.799400
H1641	H164	0.615600	0.885800	0.732300
H1651	H165	0.570500	0.030700	0.815200
H1661	H166	0.517900	0.037300	0.689100
H1671	H167	0.575200	0.849700	0.828600
H1681	H168	0.614400	0.914900	0.901200
H1691	H169	0.462700	0.932400	0.578700
H1701	H170	0.493700	0.860300	0.632500
H1711	H171	0.923600	0.982200	0.981900
H1721	H172	0.945200	0.053200	0.962700
H1731	H173	0.854700	0.043500	0.008100
H1741	H174	0.883900	0.112900	0.999900
H1751	H175	0.928900	0.971300	0.176300
H1761	H176	0.980500	0.963400	0.153100
H1771	H177	0.923700	0.150500	0.175900
H1781	H178	0.885500	0.084400	0.169900
H1791	H179	0.037800	0.068600	0.153300
H1801	H180	0.007900	0.141500	0.146000
H1811	H181	0.697100	0.804900	0.428100
H1821	H182	0.767600	0.826800	0.457000
H1831	H183	0.636400	0.864400	0.268600
H1841	H184	0.705100	0.894900	0.299400
H1851	H185	0.784700	0.764300	0.364000
H1861	H186	0.782000	0.819700	0.289300
H1871	H187	0.785500	0.734100	0.203900
H1881	H188	0.782000	0.678600	0.272400
H1891	H189	0.610100	0.743100	0.223300
H1901	H190	0.684200	0.713600	0.316400
H1911	H191	0.664400	0.635700	0.199500
H1921	H192	0.599500	0.676600	0.102100
H1931	H193	0.664400	0.865600	0.128500
H1941	H194	0.599000	0.824800	0.095000
H1951	H195	0.610100	0.759800	0.996700
H1961	H196	0.683800	0.790300	0.050700
H1971	H197	0.635100	0.634700	0.002000
H1981	H198	0.703900	0.603600	0.107300
H1991	H199	0.767100	0.673900	0.075900
H2001	H200	0.696500	0.696700	0.965200
N211	N21	0.045900	0.436600	0.739400
N221	N22	0.454100	0.563700	0.146500
O411	O41	0.154300	0.509500	0.583500
O421	O42	0.205900	0.435300	0.718200
C1211	C121	0.155100	0.470700	0.647200
C1221	C122	0.089600	0.471400	0.635600
C1231	C123	0.106500	0.433800	0.735000
C1241	C124	0.030100	0.510300	0.749700
C1251	C125	0.070200	0.397700	0.838800
C1261	C126	0.981900	0.405200	0.642700
O431	O43	0.346900	0.489100	0.775100
O441	O44	0.294900	0.563300	0.806900
C1271	C127	0.344900	0.527300	0.836600
C1281	C128	0.408800	0.528800	0.955100
C1291	C129	0.394500	0.565300	0.023100
C1301	C130	0.469300	0.490800	0.190400
C1311	C131	0.429700	0.602600	0.196900
C1321	C132	0.518700	0.596300	0.178800
O451	O45	0.260500	0.403800	0.581100
O461	O46	0.185300	0.454100	0.423800
C1331	C133	0.223400	0.404200	0.481400
C1341	C134	0.221000	0.341400	0.422600
C1351	C135	0.184100	0.354600	0.303500
N231	N23	0.187300	0.296600	0.244800
C1361	C136	0.259800	0.279400	0.290200
C1371	C137	0.260400	0.219300	0.227800
C1381	C138	0.154800	0.232900	0.244400
C1391	C139	0.147600	0.180300	0.165200
C1401	C140	0.147200	0.321000	0.128800
C1411	C141	0.154700	0.270600	0.064600
N241	N24	0.186000	0.203000	0.128000
C1421	C142	0.183000	0.144100	0.061800
C1431	C143	0.220400	0.159800	0.017400
C1441	C144	0.221000	0.095400	0.962600
O471	O47	0.259400	0.096000	0.937100
O481	O48	0.186000	0.045000	0.947300
Zn61	Zn6	0.251100	0.499600	0.626100
H2011	H201	0.053200	0.447000	0.570600
H2021	H202	0.074900	0.518100	0.632400
H2031	H203	0.147100	0.454800	0.799400
H2041	H204	0.115600	0.385800	0.732300
H2051	H205	0.070500	0.530700	0.815200
H2061	H206	0.017900	0.537300	0.689100
H2071	H207	0.075200	0.349700	0.828600
H2081	H208	0.114400	0.414900	0.901200
H2091	H209	0.962700	0.432400	0.578700
H2101	H210	0.993700	0.360300	0.632500
H2111	H211	0.423600	0.482200	0.981900
H2121	H212	0.445200	0.553200	0.962700
H2131	H213	0.354700	0.543500	0.008100
H2141	H214	0.383900	0.612900	0.999900
H2151	H215	0.428900	0.471300	0.176300
H2161	H216	0.480500	0.463400	0.153100
H2171	H217	0.423700	0.650500	0.175900
H2181	H218	0.385500	0.584400	0.169900
H2191	H219	0.537800	0.568600	0.153300
H2201	H220	0.507900	0.641500	0.146000
H2211	H221	0.197100	0.304900	0.428100
H2221	H222	0.267600	0.326800	0.457000
H2231	H223	0.136400	0.364400	0.268600
H2241	H224	0.205100	0.394900	0.299400
H2251	H225	0.284700	0.264300	0.364000
H2261	H226	0.282000	0.319700	0.289300
H2271	H227	0.285500	0.234100	0.203900
H2281	H228	0.282000	0.178600	0.272400
H2291	H229	0.110100	0.243100	0.223300
H2301	H230	0.184200	0.213600	0.316400
H2311	H231	0.164400	0.135700	0.199500
H2321	H232	0.099500	0.176600	0.102100
H2331	H233	0.164400	0.365600	0.128500
H2341	H234	0.099000	0.324800	0.095000
H2351	H235	0.110100	0.259800	0.996700
H2361	H236	0.183800	0.290300	0.050700
H2371	H237	0.135100	0.134700	0.002000
H2381	H238	0.203900	0.103600	0.107300
H2391	H239	0.267100	0.173900	0.075900
H2401	H240	0.196500	0.196700	0.965200
N251	N25	0.454100	0.936600	0.760600
N261	N26	0.045900	0.063700	0.353500
O491	O49	0.345700	0.009500	0.916500
O501	O50	0.294100	0.935300	0.781800
C1451	C145	0.344900	0.970700	0.852800
C1461	C146	0.410400	0.971400	0.864400
C1471	C147	0.393500	0.933800	0.765000
C1481	C148	0.469900	0.010300	0.750300
C1491	C149	0.429800	0.897700	0.661200
C1501	C150	0.518100	0.905200	0.857300
O511	O51	0.153100	0.989100	0.724900
O521	O52	0.205100	0.063300	0.693100
C1511	C151	0.155100	0.027300	0.663400
C1521	C152	0.091200	0.028800	0.544900
C1531	C153	0.105500	0.065300	0.476900
C1541	C154	0.030700	0.990800	0.309600
C1551	C155	0.070300	0.102600	0.303100
C1561	C156	0.981300	0.096300	0.321200
O531	O53	0.239500	0.903800	0.918900
O541	O54	0.314700	0.954100	0.076200
C1571	C157	0.276600	0.904200	0.018600
C1581	C158	0.279000	0.841400	0.077400
C1591	C159	0.315900	0.854600	0.196500
N271	N27	0.312700	0.796600	0.255200
C1601	C160	0.240200	0.779400	0.209800
C1611	C161	0.239600	0.719300	0.272200
C1621	C162	0.345200	0.732900	0.255600
C1631	C163	0.352400	0.680300	0.334800
C1641	C164	0.352800	0.821000	0.371200
C1651	C165	0.345300	0.770600	0.435400
N281	N28	0.314000	0.703000	0.372000
C1661	C166	0.317000	0.644100	0.438200
C1671	C167	0.279600	0.659800	0.482600
C1681	C168	0.279000	0.595400	0.537400
O551	O55	0.240600	0.596000	0.562900
O561	O56	0.314000	0.545000	0.552700
Zn71	Zn7	0.248900	0.999600	0.873900
H2411	H241	0.446800	0.947000	0.929400
H2421	H242	0.425100	0.018100	0.867600
H2431	H243	0.352900	0.954800	0.700600
H2441	H244	0.384400	0.885800	0.767700
H2451	H245	0.429500	0.030700	0.684800
H2461	H246	0.482100	0.037300	0.810900
H2471	H247	0.424800	0.849700	0.671400
H2481	H248	0.385600	0.914900	0.598800
H2491	H249	0.537300	0.932400	0.921300
H2501	H250	0.506300	0.860300	0.867500
H2511	H251	0.076400	0.982200	0.518100
H2521	H252	0.054800	0.053200	0.537300
H2531	H253	0.145300	0.043500	0.491900
H2541	H254	0.116100	0.112900	0.500100
H2551	H255	0.071100	0.971300	0.323700
H2561	H256	0.019500	0.963400	0.346900
H2571	H257	0.076300	0.150500	0.324100
H2581	H258	0.114500	0.084400	0.330100
H2591	H259	0.962200	0.068600	0.346700
H2601	H260	0.992100	0.141500	0.354000
H2611	H261	0.302900	0.804900	0.071900
H2621	H262	0.232400	0.826800	0.043000
H2631	H263	0.363600	0.864400	0.231400
H2641	H264	0.294900	0.894900	0.200600
H2651	H265	0.215300	0.764300	0.136000
H2661	H266	0.218000	0.819700	0.210700
H2671	H267	0.214500	0.734100	0.296100
H2681	H268	0.218000	0.678600	0.227600
H2691	H269	0.389900	0.743100	0.276700
H2701	H270	0.315800	0.713600	0.183600
H2711	H271	0.335600	0.635700	0.300500
H2721	H272	0.400500	0.676600	0.397900
H2731	H273	0.335600	0.865600	0.371500
H2741	H274	0.401000	0.824800	0.405000
H2751	H275	0.389900	0.759800	0.503300
H2761	H276	0.316200	0.790300	0.449300
H2771	H277	0.364900	0.634700	0.498000
H2781	H278	0.296100	0.603600	0.392700
H2791	H279	0.232900	0.673900	0.424100
H2801	H280	0.303500	0.696700	0.534800
N291	N29	0.954100	0.436600	0.760600
N301	N30	0.545900	0.563700	0.353500
O571	O57	0.845700	0.509500	0.916500
O581	O58	0.794100	0.435300	0.781800
C1691	C169	0.844900	0.470700	0.852800
C1701	C170	0.910400	0.471400	0.864400
C1711	C171	0.893500	0.433800	0.765000
C1721	C172	0.969900	0.510300	0.750300
C1731	C173	0.929800	0.397700	0.661200
C1741	C174	0.018100	0.405200	0.857300
O591	O59	0.653100	0.489100	0.724900
O601	O60	0.705100	0.563300	0.693100
C1751	C175	0.655100	0.527300	0.663400
C1761	C176	0.591200	0.528800	0.544900
C1771	C177	0.605500	0.565300	0.476900
C1781	C178	0.530700	0.490800	0.309600
C1791	C179	0.570300	0.602600	0.303100
C1801	C180	0.481300	0.596300	0.321200
O611	O61	0.739500	0.403800	0.918900
O621	O62	0.814700	0.454100	0.076200
C1811	C181	0.776600	0.404200	0.018600
C1821	C182	0.779000	0.341400	0.077400
C1831	C183	0.815900	0.354600	0.196500
N311	N31	0.812700	0.296600	0.255200
C1841	C184	0.740200	0.279400	0.209800
C1851	C185	0.739600	0.219300	0.272200
C1861	C186	0.845200	0.232900	0.255600
C1871	C187	0.852400	0.180300	0.334800
C1881	C188	0.852800	0.321000	0.371200
C1891	C189	0.845300	0.270600	0.435400
N321	N32	0.814000	0.203000	0.372000
C1901	C190	0.817000	0.144100	0.438200
C1911	C191	0.779600	0.159800	0.482600
C1921	C192	0.779000	0.095400	0.537400
O631	O63	0.740600	0.096000	0.562900
O641	O64	0.814000	0.045000	0.552700
Zn81	Zn8	0.748900	0.499600	0.873900
H2811	H281	0.946800	0.447000	0.929400
H2821	H282	0.925100	0.518100	0.867600
H2831	H283	0.852900	0.454800	0.700600
H2841	H284	0.884400	0.385800	0.767700
H2851	H285	0.929500	0.530700	0.684800
H2861	H286	0.982100	0.537300	0.810900
H2871	H287	0.924800	0.349700	0.671400
H2881	H288	0.885600	0.414900	0.598800
H2891	H289	0.037300	0.432400	0.921300
H2901	H290	0.006300	0.360300	0.867500
H2911	H291	0.576400	0.482200	0.518100
H2921	H292	0.554800	0.553200	0.537300
H2931	H293	0.645300	0.543500	0.491900
H2941	H294	0.616100	0.612900	0.500100
H2951	H295	0.571100	0.471300	0.323700
H2961	H296	0.519500	0.463400	0.346900
H2971	H297	0.576300	0.650500	0.324100
H2981	H298	0.614500	0.584400	0.330100
H2991	H299	0.462200	0.568600	0.346700
H3001	H300	0.492100	0.641500	0.354000
H3011	H301	0.802900	0.304900	0.071900
H3021	H302	0.732400	0.326800	0.043000
H3031	H303	0.863600	0.364400	0.231400
H3041	H304	0.794900	0.394900	0.200600
H3051	H305	0.715300	0.264300	0.136000
H3061	H306	0.718000	0.319700	0.210700
H3071	H307	0.714500	0.234100	0.296100
H3081	H308	0.718000	0.178600	0.227600
H3091	H309	0.889900	0.243100	0.276700
H3101	H310	0.815800	0.213600	0.183600
H3111	H311	0.835600	0.135700	0.300500
H3121	H312	0.900500	0.176600	0.397900
H3131	H313	0.835600	0.365600	0.371500
H3141	H314	0.901000	0.324800	0.405000
H3151	H315	0.889900	0.259800	0.503300
H3161	H316	0.816200	0.290300	0.449300
H3171	H317	0.864900	0.134700	0.498000
H3181	H318	0.796100	0.103600	0.392700
H3191	H319	0.732900	0.173900	0.424100
H3201	H320	0.803500	0.196700	0.534800
