data_TOPKIT_clean_PM
_symmetry_space_group_name_H-M	'P1'
_cell_length_a	18.559000
_cell_length_b	18.559000
_cell_length_c	10.980000
_cell_angle_alpha	90.000000
_cell_angle_beta	90.000000
_cell_angle_gamma	120.000000
_symmetry_Int_Tables_number 1

loop_
_symmetry_equiv_pos_as_xyz
'x,y,z'

loop_
_atom_site_label
_atom_site_type_symbol
_atom_site_fract_x
_atom_site_fract_y
_atom_site_fract_z
S11	S1	0.058600	0.227700	0.048900
O11	O1	0.371540	0.481370	0.509800
O21	O2	0.411010	0.440200	0.343800
C11	C1	0.359200	0.450400	0.405900
C21	C2	0.276400	0.423200	0.347600
C31	C3	0.254700	0.381400	0.237000
H11	H1	0.291700	0.366800	0.199300
S21	S2	0.772300	0.830900	0.048900
O31	O3	0.518630	0.890170	0.509800
O41	O4	0.559800	0.970810	0.343800
C41	C4	0.549600	0.908800	0.405900
C51	C5	0.576800	0.853200	0.347600
C61	C6	0.618600	0.873300	0.237000
H21	H2	0.633200	0.924900	0.199300
S31	S3	0.169100	0.941400	0.048900
O51	O5	0.109830	0.628460	0.509800
O61	O6	0.029190	0.588990	0.343800
C71	C7	0.091200	0.640800	0.405900
C81	C8	0.146800	0.723600	0.347600
C91	C9	0.126700	0.745300	0.237000
H31	H3	0.075100	0.708300	0.199300
S41	S4	0.227700	0.058600	0.951100
O71	O7	0.481370	0.371540	0.490200
O81	O8	0.440200	0.411010	0.656200
C101	C10	0.450400	0.359200	0.594100
C111	C11	0.423200	0.276400	0.652400
C121	C12	0.381400	0.254700	0.763000
H41	H4	0.366800	0.291700	0.800700
S51	S5	0.830900	0.772300	0.951100
O91	O9	0.890170	0.518630	0.490200
O101	O10	0.970810	0.559800	0.656200
C131	C13	0.908800	0.549600	0.594100
C141	C14	0.853200	0.576800	0.652400
C151	C15	0.873300	0.618600	0.763000
H51	H5	0.924900	0.633200	0.800700
S61	S6	0.941400	0.169100	0.951100
O111	O11	0.628460	0.109830	0.490200
O121	O12	0.588990	0.029190	0.656200
C161	C16	0.640800	0.091200	0.594100
C171	C17	0.723600	0.146800	0.652400
C181	C18	0.745300	0.126700	0.763000
H61	H6	0.708300	0.075100	0.800700
S71	S7	0.941400	0.772300	0.951100
O131	O13	0.628460	0.518630	0.490200
O141	O14	0.588990	0.559800	0.656200
C191	C19	0.640800	0.549600	0.594100
C201	C20	0.723600	0.576800	0.652400
C211	C21	0.745300	0.618600	0.763000
H71	H7	0.708300	0.633200	0.800700
S81	S8	0.227700	0.169100	0.951100
O151	O15	0.481370	0.109830	0.490200
O161	O16	0.440200	0.029190	0.656200
C221	C22	0.450400	0.091200	0.594100
C231	C23	0.423200	0.146800	0.652400
C241	C24	0.381400	0.126700	0.763000
H81	H8	0.366800	0.075100	0.800700
S91	S9	0.830900	0.058600	0.951100
O171	O17	0.890170	0.371540	0.490200
O181	O18	0.970810	0.411010	0.656200
C251	C25	0.908800	0.359200	0.594100
C261	C26	0.853200	0.276400	0.652400
C271	C27	0.873300	0.254700	0.763000
H91	H9	0.924900	0.291700	0.800700
S101	S10	0.772300	0.941400	0.048900
O191	O19	0.518630	0.628460	0.509800
O201	O20	0.559800	0.588990	0.343800
C281	C28	0.549600	0.640800	0.405900
C291	C29	0.576800	0.723600	0.347600
C301	C30	0.618600	0.745300	0.237000
H101	H10	0.633200	0.708300	0.199300
S111	S11	0.169100	0.227700	0.048900
O211	O21	0.109830	0.481370	0.509800
O221	O22	0.029190	0.440200	0.343800
C311	C31	0.091200	0.450400	0.405900
C321	C32	0.146800	0.423200	0.347600
C331	C33	0.126700	0.381400	0.237000
H111	H11	0.075100	0.366800	0.199300
S121	S12	0.058600	0.830900	0.048900
O231	O23	0.371540	0.890170	0.509800
O241	O24	0.411010	0.970810	0.343800
C341	C34	0.359200	0.908800	0.405900
C351	C35	0.276400	0.853200	0.347600
C361	C36	0.254700	0.873300	0.237000
H121	H12	0.291700	0.924900	0.199300
Cu11	Cu1	0.476170	0.523830	0.598100
Cu21	Cu2	0.476170	0.952340	0.598100
Cu31	Cu3	0.047660	0.523830	0.598100
Cu41	Cu4	0.523830	0.476170	0.401900
Cu51	Cu5	0.952340	0.476170	0.401900
Cu61	Cu6	0.523830	0.047660	0.401900
C371	C37	0.180450	0.360900	0.180800
C381	C38	0.221700	0.443400	0.403500
H131	H13	0.235500	0.471000	0.480000
C391	C39	0.082150	0.164300	0.167100
C401	C40	0.158800	0.317600	0.054900
C411	C41	0.639100	0.819550	0.180800
C421	C42	0.556600	0.778300	0.403500
H141	H14	0.529000	0.764500	0.480000
C431	C43	0.835700	0.917850	0.167100
C441	C44	0.682400	0.841200	0.054900
C451	C45	0.180450	0.819550	0.180800
C461	C46	0.221700	0.778300	0.403500
H151	H15	0.235500	0.764500	0.480000
C471	C47	0.082150	0.917850	0.167100
C481	C48	0.158800	0.841200	0.054900
C491	C49	0.360900	0.180450	0.819200
C501	C50	0.443400	0.221700	0.596500
H161	H16	0.471000	0.235500	0.520000
C511	C51	0.164300	0.082150	0.832900
C521	C52	0.317600	0.158800	0.945100
C531	C53	0.819550	0.639100	0.819200
C541	C54	0.778300	0.556600	0.596500
H171	H17	0.764500	0.529000	0.520000
C551	C55	0.917850	0.835700	0.832900
C561	C56	0.841200	0.682400	0.945100
C571	C57	0.819550	0.180450	0.819200
C581	C58	0.778300	0.221700	0.596500
H181	H18	0.764500	0.235500	0.520000
C591	C59	0.917850	0.082150	0.832900
C601	C60	0.841200	0.158800	0.945100
