data_TORXAB_clean_PM
_symmetry_space_group_name_H-M	'P1'
_cell_length_a	12.327500
_cell_length_b	12.327500
_cell_length_c	12.541500
_cell_angle_alpha	90.000000
_cell_angle_beta	90.000000
_cell_angle_gamma	120.000000
_symmetry_Int_Tables_number 1

loop_
_symmetry_equiv_pos_as_xyz
'x,y,z'

loop_
_atom_site_label
_atom_site_type_symbol
_atom_site_fract_x
_atom_site_fract_y
_atom_site_fract_z
N11	N1	0.351100	0.226700	0.093200
N21	N2	0.445800	0.308900	0.032600
N31	N3	0.503000	0.250500	0.996500
N41	N4	0.446700	0.133800	0.033000
N51	N5	0.527400	0.473500	0.836100
N61	N6	0.587900	0.412600	0.801600
C11	C1	0.351500	0.120500	0.092800
H11	H1	0.294700	0.047800	0.128500
N71	N7	0.773300	0.124400	0.093200
N81	N8	0.691100	0.136900	0.032600
N91	N9	0.749500	0.252500	0.996500
N101	N10	0.866200	0.312900	0.033000
N111	N11	0.526500	0.053900	0.836100
N121	N12	0.587400	0.175300	0.801600
C21	C2	0.879500	0.231000	0.092800
H21	H2	0.952200	0.246900	0.128500
N131	N13	0.875600	0.648900	0.093200
N141	N14	0.863100	0.554200	0.032600
N151	N15	0.747500	0.497000	0.996500
N161	N16	0.687100	0.553300	0.033000
N171	N17	0.946100	0.472600	0.836100
N181	N18	0.824700	0.412100	0.801600
C31	C3	0.769000	0.648500	0.092800
H31	H3	0.753100	0.705300	0.128500
N191	N19	0.773300	0.648900	0.406800
N201	N20	0.691100	0.554200	0.467400
N211	N21	0.749500	0.497000	0.503500
N221	N22	0.866200	0.553300	0.467000
N231	N23	0.526500	0.472600	0.663900
N241	N24	0.587400	0.412100	0.698400
C41	C4	0.879500	0.648500	0.407200
H41	H4	0.952200	0.705300	0.371500
N251	N25	0.875600	0.226700	0.406800
N261	N26	0.863100	0.308900	0.467400
N271	N27	0.747500	0.250500	0.503500
N281	N28	0.687100	0.133800	0.467000
N291	N29	0.946100	0.473500	0.663900
N301	N30	0.824700	0.412600	0.698400
C51	C5	0.769000	0.120500	0.407200
H51	H5	0.753100	0.047800	0.371500
N311	N31	0.351100	0.124400	0.406800
N321	N32	0.445800	0.136900	0.467400
N331	N33	0.503000	0.252500	0.503500
N341	N34	0.446700	0.312900	0.467000
N351	N35	0.527400	0.053900	0.663900
N361	N36	0.587900	0.175300	0.698400
C61	C6	0.351500	0.231000	0.407200
H61	H6	0.294700	0.246900	0.371500
N371	N37	0.648900	0.773300	0.906800
N381	N38	0.554200	0.691100	0.967400
N391	N39	0.497000	0.749500	0.003500
N401	N40	0.553300	0.866200	0.967000
N411	N41	0.472600	0.526500	0.163900
N421	N42	0.412100	0.587400	0.198400
C71	C7	0.648500	0.879500	0.907200
H71	H7	0.705300	0.952200	0.871500
N431	N43	0.226700	0.875600	0.906800
N441	N44	0.308900	0.863100	0.967400
N451	N45	0.250500	0.747500	0.003500
N461	N46	0.133800	0.687100	0.967000
N471	N47	0.473500	0.946100	0.163900
N481	N48	0.412600	0.824700	0.198400
C81	C8	0.120500	0.769000	0.907200
H81	H8	0.047800	0.753100	0.871500
N491	N49	0.124400	0.351100	0.906800
N501	N50	0.136900	0.445800	0.967400
N511	N51	0.252500	0.503000	0.003500
N521	N52	0.312900	0.446700	0.967000
N531	N53	0.053900	0.527400	0.163900
N541	N54	0.175300	0.587900	0.198400
C91	C9	0.231000	0.351500	0.907200
H91	H9	0.246900	0.294700	0.871500
N551	N55	0.226700	0.351100	0.593200
N561	N56	0.308900	0.445800	0.532600
N571	N57	0.250500	0.503000	0.496500
N581	N58	0.133800	0.446700	0.533000
N591	N59	0.473500	0.527400	0.336100
N601	N60	0.412600	0.587900	0.301600
C101	C10	0.120500	0.351500	0.592800
H101	H10	0.047800	0.294700	0.628500
N611	N61	0.124400	0.773300	0.593200
N621	N62	0.136900	0.691100	0.532600
N631	N63	0.252500	0.749500	0.496500
N641	N64	0.312900	0.866200	0.533000
N651	N65	0.053900	0.526500	0.336100
N661	N66	0.175300	0.587400	0.301600
C111	C11	0.231000	0.879500	0.592800
H111	H11	0.246900	0.952200	0.628500
N671	N67	0.648900	0.875600	0.593200
N681	N68	0.554200	0.863100	0.532600
N691	N69	0.497000	0.747500	0.496500
N701	N70	0.553300	0.687100	0.533000
N711	N71	0.472600	0.946100	0.336100
N721	N72	0.412100	0.824700	0.301600
C121	C12	0.648500	0.769000	0.592800
H121	H12	0.705300	0.753100	0.628500
Cu11	Cu1	0.500000	0.500000	0.000000
Cu21	Cu2	0.500000	0.000000	0.000000
Cu31	Cu3	0.000000	0.500000	0.000000
Cu41	Cu4	0.500000	0.500000	0.500000
Cu51	Cu5	0.000000	0.500000	0.500000
Cu61	Cu6	0.500000	0.000000	0.500000
Cu71	Cu7	0.666670	0.333330	0.900790
Cu81	Cu8	0.666670	0.333330	0.599210
Cu91	Cu9	0.333330	0.666670	0.099210
Cu101	Cu10	0.333330	0.666670	0.400790
C131	C13	0.490800	0.509200	0.750000
H131	H13	0.447300	0.552700	0.750000
C141	C14	0.490800	0.981600	0.750000
H141	H14	0.447300	0.894600	0.750000
C151	C15	0.018400	0.509200	0.750000
H151	H15	0.105400	0.552700	0.750000
C161	C16	0.509200	0.490800	0.250000
H161	H16	0.552700	0.447300	0.250000
C171	C17	0.509200	0.018400	0.250000
H171	H17	0.552700	0.105400	0.250000
C181	C18	0.981600	0.490800	0.250000
H181	H18	0.894600	0.447300	0.250000
