data_TORXIJ_clean_PM
_symmetry_space_group_name_H-M	'P1'
_cell_length_a	11.611900
_cell_length_b	8.611600
_cell_length_c	8.876100
_cell_angle_alpha	90.000000
_cell_angle_beta	90.000000
_cell_angle_gamma	90.000000
_symmetry_Int_Tables_number 1

loop_
_symmetry_equiv_pos_as_xyz
'x,y,z'

loop_
_atom_site_label
_atom_site_type_symbol
_atom_site_fract_x
_atom_site_fract_y
_atom_site_fract_z
N11	N1	0.719800	0.584700	0.339500
N21	N2	0.625600	0.493000	0.342400
N31	N3	0.630600	0.388900	0.236700
N41	N4	0.729600	0.410500	0.161900
C11	C1	0.782200	0.530700	0.225700
H11	H1	0.852700	0.571200	0.195000
N51	N5	0.280200	0.415300	0.339500
N61	N6	0.374400	0.507000	0.342400
N71	N7	0.369400	0.611100	0.236700
N81	N8	0.270400	0.589500	0.161900
C21	C2	0.217800	0.469300	0.225700
H21	H2	0.147300	0.428800	0.195000
N91	N9	0.780200	0.084700	0.160500
N101	N10	0.874400	0.993000	0.157600
N111	N11	0.869400	0.888900	0.263300
N121	N12	0.770400	0.910500	0.338100
C31	C3	0.717800	0.030700	0.274300
H31	H3	0.647300	0.071200	0.305000
N131	N13	0.219800	0.915300	0.160500
N141	N14	0.125600	0.007000	0.157600
N151	N15	0.130600	0.111100	0.263300
N161	N16	0.229600	0.089500	0.338100
C41	C4	0.282200	0.969300	0.274300
H41	H4	0.352700	0.928800	0.305000
N171	N17	0.280200	0.415300	0.660500
N181	N18	0.374400	0.507000	0.657600
N191	N19	0.369400	0.611100	0.763300
N201	N20	0.270400	0.589500	0.838100
C51	C5	0.217800	0.469300	0.774300
H51	H5	0.147300	0.428800	0.805000
N211	N21	0.719800	0.584700	0.660500
N221	N22	0.625600	0.493000	0.657600
N231	N23	0.630600	0.388900	0.763300
N241	N24	0.729600	0.410500	0.838100
C61	C6	0.782200	0.530700	0.774300
H61	H6	0.852700	0.571200	0.805000
N251	N25	0.219800	0.915300	0.839500
N261	N26	0.125600	0.007000	0.842400
N271	N27	0.130600	0.111100	0.736700
N281	N28	0.229600	0.089500	0.661900
C71	C7	0.282200	0.969300	0.725700
H71	H7	0.352700	0.928800	0.695000
N291	N29	0.780200	0.084700	0.839500
N301	N30	0.874400	0.993000	0.842400
N311	N31	0.869400	0.888900	0.736700
N321	N32	0.770400	0.910500	0.661900
C81	C8	0.717800	0.030700	0.725700
H81	H8	0.647300	0.071200	0.695000
Cu11	Cu1	0.731670	0.756050	0.500000
Cl11	Cl1	0.521220	0.801140	0.500000
Cu21	Cu2	0.268330	0.243950	0.500000
Cl21	Cl2	0.478780	0.198860	0.500000
Cu31	Cu3	0.768330	0.256050	0.000000
Cl31	Cl3	0.978780	0.301140	0.000000
Cu41	Cu4	0.231670	0.743950	0.000000
Cl41	Cl4	0.021220	0.698860	0.000000
Cu51	Cu5	0.500000	0.500000	0.500000
Cu61	Cu6	0.000000	0.000000	0.000000
