data_TOTWAC_clean_PM
_symmetry_space_group_name_H-M	'P1'
_cell_length_a	16.852000
_cell_length_b	17.116000
_cell_length_c	9.710300
_cell_angle_alpha	90.000000
_cell_angle_beta	118.683000
_cell_angle_gamma	90.000000
_symmetry_Int_Tables_number 1

loop_
_symmetry_equiv_pos_as_xyz
'x,y,z'

loop_
_atom_site_label
_atom_site_type_symbol
_atom_site_fract_x
_atom_site_fract_y
_atom_site_fract_z
O11	O1	0.140400	0.189100	0.593600
C11	C1	0.063000	0.160100	0.502800
Zn11	Zn1	0.733160	0.392110	0.155790
N11	N1	0.745300	0.475200	0.309600
N21	N2	0.843200	0.320200	0.265800
C21	C2	0.925400	0.345700	0.363000
H11	H1	0.934000	0.399300	0.378600
C31	C3	0.830900	0.242600	0.242200
H21	H2	0.773700	0.223700	0.172700
C41	C4	0.901600	0.190100	0.319000
H31	H3	0.891400	0.136700	0.301800
C51	C5	0.709100	0.488800	0.400600
N31	N3	0.746300	0.553200	0.485500
N41	N4	0.806900	0.532800	0.338300
N51	N5	0.807000	0.579400	0.443800
C61	C6	0.986500	0.217200	0.420100
C71	C7	0.638600	0.440300	0.408100
H41	H4	0.581800	0.448500	0.315100
H51	H5	0.633100	0.454900	0.498600
H61	H6	0.655100	0.386200	0.415600
C81	C8	0.999700	0.297400	0.443200
H71	H7	0.056500	0.317900	0.510100
O21	O2	0.048300	0.090000	0.477400
O31	O3	0.640400	0.689100	0.593600
C91	C9	0.563000	0.660100	0.502800
Zn21	Zn2	0.233160	0.892110	0.155790
N61	N6	0.245300	0.975200	0.309600
N71	N7	0.343200	0.820200	0.265800
C101	C10	0.425400	0.845700	0.363000
H81	H8	0.434000	0.899300	0.378600
C111	C11	0.330900	0.742600	0.242200
H91	H9	0.273700	0.723700	0.172700
C121	C12	0.401600	0.690100	0.319000
H101	H10	0.391400	0.636700	0.301800
C131	C13	0.209100	0.988800	0.400600
N81	N8	0.246300	0.053200	0.485500
N91	N9	0.306900	0.032800	0.338300
N101	N10	0.307000	0.079400	0.443800
C141	C14	0.486500	0.717200	0.420100
C151	C15	0.138600	0.940300	0.408100
H111	H11	0.081800	0.948500	0.315100
H121	H12	0.133100	0.954900	0.498600
H131	H13	0.155100	0.886200	0.415600
C161	C16	0.499700	0.797400	0.443200
H141	H14	0.556500	0.817900	0.510100
O41	O4	0.548300	0.590000	0.477400
O51	O5	0.140400	0.810900	0.093600
C171	C17	0.063000	0.839900	0.002800
Zn31	Zn3	0.733160	0.607890	0.655790
N111	N11	0.745300	0.524800	0.809600
N121	N12	0.843200	0.679800	0.765800
C181	C18	0.925400	0.654300	0.863000
H151	H15	0.934000	0.600700	0.878600
C191	C19	0.830900	0.757400	0.742200
H161	H16	0.773700	0.776300	0.672700
C201	C20	0.901600	0.809900	0.819000
H171	H17	0.891400	0.863300	0.801800
C211	C21	0.709100	0.511200	0.900600
N131	N13	0.746300	0.446800	0.985500
N141	N14	0.806900	0.467200	0.838300
N151	N15	0.807000	0.420600	0.943800
C221	C22	0.986500	0.782800	0.920100
C231	C23	0.638600	0.559700	0.908100
H181	H18	0.581800	0.551500	0.815100
H191	H19	0.633100	0.545100	0.998600
H201	H20	0.655100	0.613800	0.915600
C241	C24	0.999700	0.702600	0.943200
H211	H21	0.056500	0.682100	0.010100
O61	O6	0.048300	0.910000	0.977400
O71	O7	0.640400	0.310900	0.093600
C251	C25	0.563000	0.339900	0.002800
Zn41	Zn4	0.233160	0.107890	0.655790
N161	N16	0.245300	0.024800	0.809600
N171	N17	0.343200	0.179800	0.765800
C261	C26	0.425400	0.154300	0.863000
H221	H22	0.434000	0.100700	0.878600
C271	C27	0.330900	0.257400	0.742200
H231	H23	0.273700	0.276300	0.672700
C281	C28	0.401600	0.309900	0.819000
H241	H24	0.391400	0.363300	0.801800
C291	C29	0.209100	0.011200	0.900600
N181	N18	0.246300	0.946800	0.985500
N191	N19	0.306900	0.967200	0.838300
N201	N20	0.307000	0.920600	0.943800
C301	C30	0.486500	0.282800	0.920100
C311	C31	0.138600	0.059700	0.908100
H251	H25	0.081800	0.051500	0.815100
H261	H26	0.133100	0.045100	0.998600
H271	H27	0.155100	0.113800	0.915600
C321	C32	0.499700	0.202600	0.943200
H281	H28	0.556500	0.182100	0.010100
O81	O8	0.548300	0.410000	0.977400
O91	O9	0.859600	0.189100	0.906400
C331	C33	0.937000	0.160100	0.997200
Zn51	Zn5	0.266840	0.392110	0.344210
N211	N21	0.254700	0.475200	0.190400
N221	N22	0.156800	0.320200	0.234200
C341	C34	0.074600	0.345700	0.137000
H291	H29	0.066000	0.399300	0.121400
C351	C35	0.169100	0.242600	0.257800
H301	H30	0.226300	0.223700	0.327300
C361	C36	0.098400	0.190100	0.181000
H311	H31	0.108600	0.136700	0.198200
C371	C37	0.290900	0.488800	0.099400
N231	N23	0.253700	0.553200	0.014500
N241	N24	0.193100	0.532800	0.161700
N251	N25	0.193000	0.579400	0.056200
C381	C38	0.013500	0.217200	0.079900
C391	C39	0.361400	0.440300	0.091900
H321	H32	0.418200	0.448500	0.184900
H331	H33	0.366900	0.454900	0.001400
H341	H34	0.344900	0.386200	0.084400
C401	C40	0.000300	0.297400	0.056800
H351	H35	0.943500	0.317900	0.989900
O101	O10	0.951700	0.090000	0.022600
O111	O11	0.359600	0.689100	0.906400
C411	C41	0.437000	0.660100	0.997200
Zn61	Zn6	0.766840	0.892110	0.344210
N261	N26	0.754700	0.975200	0.190400
N271	N27	0.656800	0.820200	0.234200
C421	C42	0.574600	0.845700	0.137000
H361	H36	0.566000	0.899300	0.121400
C431	C43	0.669100	0.742600	0.257800
H371	H37	0.726300	0.723700	0.327300
C441	C44	0.598400	0.690100	0.181000
H381	H38	0.608600	0.636700	0.198200
C451	C45	0.790900	0.988800	0.099400
N281	N28	0.753700	0.053200	0.014500
N291	N29	0.693100	0.032800	0.161700
N301	N30	0.693000	0.079400	0.056200
C461	C46	0.513500	0.717200	0.079900
C471	C47	0.861400	0.940300	0.091900
H391	H39	0.918200	0.948500	0.184900
H401	H40	0.866900	0.954900	0.001400
H411	H41	0.844900	0.886200	0.084400
C481	C48	0.500300	0.797400	0.056800
H421	H42	0.443500	0.817900	0.989900
O121	O12	0.451700	0.590000	0.022600
O131	O13	0.859600	0.810900	0.406400
C491	C49	0.937000	0.839900	0.497200
Zn71	Zn7	0.266840	0.607890	0.844210
N311	N31	0.254700	0.524800	0.690400
N321	N32	0.156800	0.679800	0.734200
C501	C50	0.074600	0.654300	0.637000
H431	H43	0.066000	0.600700	0.621400
C511	C51	0.169100	0.757400	0.757800
H441	H44	0.226300	0.776300	0.827300
C521	C52	0.098400	0.809900	0.681000
H451	H45	0.108600	0.863300	0.698200
C531	C53	0.290900	0.511200	0.599400
N331	N33	0.253700	0.446800	0.514500
N341	N34	0.193100	0.467200	0.661700
N351	N35	0.193000	0.420600	0.556200
C541	C54	0.013500	0.782800	0.579900
C551	C55	0.361400	0.559700	0.591900
H461	H46	0.418200	0.551500	0.684900
H471	H47	0.366900	0.545100	0.501400
H481	H48	0.344900	0.613800	0.584400
C561	C56	0.000300	0.702600	0.556800
H491	H49	0.943500	0.682100	0.489900
O141	O14	0.951700	0.910000	0.522600
O151	O15	0.359600	0.310900	0.406400
C571	C57	0.437000	0.339900	0.497200
Zn81	Zn8	0.766840	0.107890	0.844210
N361	N36	0.754700	0.024800	0.690400
N371	N37	0.656800	0.179800	0.734200
C581	C58	0.574600	0.154300	0.637000
H501	H50	0.566000	0.100700	0.621400
C591	C59	0.669100	0.257400	0.757800
H511	H51	0.726300	0.276300	0.827300
C601	C60	0.598400	0.309900	0.681000
H521	H52	0.608600	0.363300	0.698200
C611	C61	0.790900	0.011200	0.599400
N381	N38	0.753700	0.946800	0.514500
N391	N39	0.693100	0.967200	0.661700
N401	N40	0.693000	0.920600	0.556200
C621	C62	0.513500	0.282800	0.579900
C631	C63	0.861400	0.059700	0.591900
H531	H53	0.918200	0.051500	0.684900
H541	H54	0.866900	0.045100	0.501400
H551	H55	0.844900	0.113800	0.584400
C641	C64	0.500300	0.202600	0.556800
H561	H56	0.443500	0.182100	0.489900
O161	O16	0.451700	0.410000	0.522600
