data_TOVHUJ_clean_PM
_symmetry_space_group_name_H-M	'P1'
_cell_length_a	9.891800
_cell_length_b	23.570000
_cell_length_c	15.366800
_cell_angle_alpha	90.000000
_cell_angle_beta	90.000000
_cell_angle_gamma	90.000000
_symmetry_Int_Tables_number 1

loop_
_symmetry_equiv_pos_as_xyz
'x,y,z'

loop_
_atom_site_label
_atom_site_type_symbol
_atom_site_fract_x
_atom_site_fract_y
_atom_site_fract_z
Fe11	Fe1	0.295280	0.569280	0.136810
Fe21	Fe2	0.490710	0.500000	0.274230
Fe31	Fe3	0.704720	0.930720	0.636810
Fe41	Fe4	0.704720	0.069280	0.636810
Fe51	Fe5	0.509290	0.000000	0.774230
Fe61	Fe6	0.295280	0.430720	0.136810
H11	H1	0.612900	0.796900	0.071600
H21	H2	0.086400	0.247500	0.409300
H31	H3	0.913600	0.252500	0.909300
H41	H4	0.131700	0.674900	0.319000
H51	H5	0.131700	0.325100	0.319000
H61	H6	0.004500	0.210100	0.537500
H71	H7	0.913600	0.747500	0.909300
H81	H8	0.567600	0.874500	0.981300
H91	H9	0.592100	0.302000	0.079800
H101	H10	0.842600	0.426700	0.163300
H111	H11	0.432400	0.374500	0.481300
H121	H12	0.612900	0.203100	0.071600
H131	H13	0.432400	0.625500	0.481300
H141	H14	0.407900	0.198000	0.579800
H151	H15	0.157400	0.926700	0.663300
H161	H16	0.387100	0.296900	0.571600
H171	H17	0.567600	0.125500	0.981300
H181	H18	0.868300	0.174900	0.819000
H191	H19	0.995500	0.289900	0.037500
H201	H20	0.157400	0.073300	0.663300
H211	H21	0.842600	0.573300	0.163300
H221	H22	0.004500	0.789900	0.537500
H231	H23	0.592100	0.698000	0.079800
H241	H24	0.387100	0.703100	0.571600
H251	H25	0.086400	0.752500	0.409300
H261	H26	0.995500	0.710100	0.037500
H271	H27	0.407900	0.802000	0.579800
H281	H28	0.868300	0.825100	0.819000
C11	C1	0.829370	0.608720	0.135000
C21	C2	0.920160	0.310050	0.060100
C31	C3	0.790570	0.712200	0.051780
C41	C4	0.209430	0.212200	0.551780
C51	C5	0.920160	0.689950	0.060100
C61	C6	0.362200	0.651260	0.466660
C71	C7	0.232520	0.735170	0.499000
C81	C8	0.286350	0.357130	0.391620
C91	C9	0.939470	0.361810	0.101600
C101	C10	0.300150	0.131050	0.627000
C111	C11	0.767480	0.764830	0.999000
C121	C12	0.420300	0.902390	0.657100
C131	C13	0.170630	0.108720	0.635000
C141	C14	0.325900	0.400610	0.326500
C151	C15	0.664730	0.197410	0.020340
C161	C16	0.713650	0.857130	0.891620
C171	C17	0.209430	0.787800	0.551780
C181	C18	0.767480	0.235170	0.999000
C191	C19	0.843400	0.773280	0.923900
C201	C20	0.183500	0.319370	0.370270
C211	C21	0.183500	0.680630	0.370270
C221	C22	0.335270	0.697410	0.520340
C231	C23	0.327700	0.500000	0.879800
C241	C24	0.816500	0.819370	0.870270
C251	C25	0.699850	0.368950	0.127000
C261	C26	0.079840	0.810050	0.560100
C271	C27	0.672300	0.000000	0.379800
C281	C28	0.319440	0.182770	0.585360
C291	C29	0.713650	0.142870	0.891620
C301	C30	0.790570	0.287800	0.051780
C311	C31	0.579700	0.597610	0.157100
C321	C32	0.079840	0.189950	0.560100
C331	C33	0.232520	0.264830	0.499000
C341	C34	0.060530	0.138190	0.601600
C351	C35	0.335270	0.302590	0.520340
C361	C36	0.664730	0.802590	0.020340
C371	C37	0.816500	0.180630	0.870270
C381	C38	0.325900	0.599390	0.326500
C391	C39	0.680560	0.317230	0.085360
C401	C40	0.579700	0.402390	0.157100
C411	C41	0.170630	0.891280	0.635000
C421	C42	0.319440	0.817230	0.585360
C431	C43	0.843400	0.226720	0.923900
C441	C44	0.923600	0.113250	0.612000
C451	C45	0.686500	0.000000	0.473200
C461	C46	0.156600	0.273280	0.423900
C471	C47	0.699850	0.631050	0.127000
C481	C48	0.156600	0.726720	0.423900
C491	C49	0.829370	0.391280	0.135000
C501	C50	0.637800	0.848740	0.966660
C511	C51	0.680560	0.682770	0.085360
C521	C52	0.674100	0.900610	0.826500
C531	C53	0.076400	0.386750	0.112000
C541	C54	0.923600	0.886750	0.612000
C551	C55	0.060530	0.861810	0.601600
C561	C56	0.637800	0.151260	0.966660
C571	C57	0.420300	0.097610	0.657100
C581	C58	0.362200	0.348740	0.466660
C591	C59	0.286350	0.642870	0.391620
C601	C60	0.076400	0.613250	0.112000
C611	C61	0.674100	0.099390	0.826500
C621	C62	0.939470	0.638190	0.101600
C631	C63	0.313500	0.500000	0.973200
C641	C64	0.300150	0.868950	0.627000
O11	O1	0.646000	0.000000	0.682800
O21	O2	0.180390	0.358750	0.092430
O31	O3	0.088520	0.437160	0.138200
O41	O4	0.271200	0.395600	0.251970
O51	O5	0.308400	0.546400	0.012390
O61	O6	0.088520	0.562840	0.138200
O71	O7	0.593820	0.939360	0.847460
O81	O8	0.271200	0.604400	0.251970
O91	O9	0.601750	0.441150	0.210990
O101	O10	0.911480	0.937160	0.638200
O111	O11	0.354000	0.500000	0.182800
O121	O12	0.531250	0.889660	0.623700
O131	O13	0.819610	0.858750	0.592430
O141	O14	0.601750	0.558850	0.210990
O151	O15	0.728800	0.104400	0.751970
O161	O16	0.468750	0.389660	0.123700
O171	O17	0.406180	0.439360	0.347460
O181	O18	0.819610	0.141250	0.592430
O191	O19	0.308400	0.453600	0.012390
O201	O20	0.180390	0.641250	0.092430
O211	O21	0.406180	0.560640	0.347460
O221	O22	0.593820	0.060640	0.847460
O231	O23	0.691600	0.953600	0.512390
O241	O24	0.468750	0.610340	0.123700
O251	O25	0.911480	0.062840	0.638200
O261	O26	0.531250	0.110340	0.623700
O271	O27	0.691600	0.046400	0.512390
O281	O28	0.398250	0.058850	0.710990
O291	O29	0.398250	0.941150	0.710990
O301	O30	0.728800	0.895600	0.751970
