data_TOVJEV_clean_PM
_symmetry_space_group_name_H-M	'P1'
_cell_length_a	27.005000
_cell_length_b	18.564000
_cell_length_c	36.389000
_cell_angle_alpha	90.000000
_cell_angle_beta	98.848000
_cell_angle_gamma	90.000000
_symmetry_Int_Tables_number 1

loop_
_symmetry_equiv_pos_as_xyz
'x,y,z'

loop_
_atom_site_label
_atom_site_type_symbol
_atom_site_fract_x
_atom_site_fract_y
_atom_site_fract_z
Fe11	Fe1	0.238860	0.091770	0.201500
Fe21	Fe2	0.296510	0.149020	0.133290
Fe31	Fe3	0.190520	0.223900	0.146850
O11	O1	0.311750	0.106450	0.224920
O21	O2	0.348840	0.151480	0.179450
O31	O3	0.694970	0.757120	0.371060
O41	O4	0.763430	0.807420	0.355160
O51	O5	0.696610	0.538900	0.367170
O61	O6	0.741070	0.502450	0.324680
O71	O7	0.165910	0.063600	0.184700
O81	O8	0.134090	0.152070	0.147030
O91	O9	0.816420	0.754880	0.300750
O101	O10	0.781980	0.666650	0.263990
O111	O11	0.813950	0.793660	0.908240
O121	O12	0.747360	0.857020	0.917600
O131	O13	0.241640	0.155250	0.160390
N11	N1	0.539130	0.277000	0.308150
H11	H1	0.553900	0.318600	0.314200
H21	H2	0.508000	0.276100	0.296600
N21	N2	0.948540	0.949700	0.058660
H31	H3	0.976600	0.974300	0.063800
H41	H4	0.934700	0.943400	0.035400
C11	C1	0.348190	0.129960	0.212190
C21	C2	0.396890	0.135480	0.237970
C31	C3	0.403470	0.105410	0.272150
H51	H5	0.376300	0.081200	0.280600
C41	C4	0.450000	0.109500	0.295380
H61	H6	0.453800	0.087700	0.319300
C51	C5	0.489780	0.143850	0.284540
C61	C6	0.482590	0.176700	0.250290
H71	H7	0.509300	0.203200	0.242600
C71	C7	0.436650	0.171900	0.226550
H81	H8	0.432800	0.193500	0.202600
C81	C8	0.541310	0.145740	0.307640
C91	C9	0.566010	0.081750	0.317460
H91	H9	0.549600	0.037100	0.311400
C101	C10	0.615510	0.082560	0.336500
C111	C11	0.638450	0.149530	0.344750
H101	H10	0.671900	0.150800	0.357500
C121	C12	0.614550	0.212780	0.335090
C131	C13	0.565580	0.211560	0.316960
C141	C14	0.641630	0.013800	0.345380
C151	C15	0.617760	0.952400	0.355100
H111	H11	0.583200	0.954800	0.357400
C161	C16	0.642780	0.887690	0.361520
H121	H12	0.625300	0.847200	0.369100
C171	C17	0.691840	0.880300	0.357280
C181	C18	0.716900	0.941800	0.348120
H131	H13	0.751400	0.939100	0.345700
C191	C19	0.691620	0.007300	0.342450
H141	H14	0.709400	0.048700	0.336400
C201	C20	0.719470	0.809600	0.361540
C211	C21	0.641120	0.283670	0.341920
C221	C22	0.680880	0.297860	0.324590
H151	H15	0.693300	0.261000	0.310300
C231	C23	0.704350	0.365570	0.327100
H161	H16	0.731600	0.373700	0.314000
C241	C24	0.689380	0.418920	0.347430
C251	C25	0.651680	0.402270	0.366500
H171	H17	0.641200	0.437300	0.382700
C261	C26	0.627830	0.336400	0.363310
H181	H18	0.600900	0.328300	0.376800
C271	C27	0.710570	0.491940	0.346260
C281	C28	0.131430	0.092300	0.162650
C291	C29	0.083970	0.051100	0.153060
C301	C30	0.044790	0.079800	0.129740
H191	H19	0.047200	0.127000	0.120100
C311	C31	0.001180	0.040000	0.119940
H201	H20	0.974600	0.059800	0.102800
C321	C32	0.995640	0.972200	0.134530
C331	C33	0.035750	0.944000	0.158670
H211	H21	0.033300	0.897300	0.168900
C341	C34	0.079650	0.984000	0.167890
H221	H22	0.106800	0.964500	0.184600
C351	C35	0.947690	0.930340	0.125120
C361	C36	0.925890	0.898980	0.152980
H231	H23	0.942000	0.905000	0.177900
C371	C37	0.881910	0.859100	0.147030
C381	C38	0.860040	0.850040	0.109590
H241	H24	0.829800	0.823300	0.104200
C391	C39	0.881290	0.878980	0.080200
C401	C40	0.924930	0.919500	0.088710
C411	C41	0.860730	0.825200	0.177420
C421	C42	0.838340	0.760600	0.174450
H251	H25	0.835400	0.736100	0.151300
C431	C43	0.819210	0.727900	0.203620
H261	H26	0.803300	0.682200	0.200100
C441	C44	0.823320	0.761900	0.237670
C451	C45	0.845330	0.827000	0.241210
H271	H27	0.848900	0.851100	0.264500
C461	C46	0.862890	0.859700	0.211410
H281	H28	0.876700	0.906800	0.214400
C471	C47	0.805870	0.723700	0.269580
C481	C48	0.857470	0.866550	0.041000
C491	C49	0.881350	0.831000	0.016360
H291	H29	0.914300	0.813700	0.024600
C501	C50	0.860540	0.818650	0.980050
H301	H30	0.879000	0.793800	0.963800
C511	C51	0.812810	0.842470	0.967510
C521	C52	0.788110	0.879520	0.991380
H311	H31	0.755400	0.897600	0.982900
C531	C53	0.810190	0.891320	0.028060
H321	H32	0.792200	0.916900	0.044400
C541	C54	0.790070	0.829760	0.928760
Fe41	Fe4	0.761140	0.591770	0.298500
Fe51	Fe5	0.703490	0.649020	0.366710
Fe61	Fe6	0.809480	0.723900	0.353150
O141	O14	0.688250	0.606450	0.275080
O151	O15	0.651160	0.651480	0.320550
O161	O16	0.305030	0.257120	0.128940
O171	O17	0.236570	0.307420	0.144840
O181	O18	0.303390	0.038900	0.132830
O191	O19	0.258930	0.002450	0.175320
O201	O20	0.834090	0.563600	0.315300
O211	O21	0.865910	0.652070	0.352970
O221	O22	0.183580	0.254880	0.199250
O231	O23	0.218020	0.166650	0.236010
O241	O24	0.186050	0.293660	0.591760
O251	O25	0.252640	0.357020	0.582400
O261	O26	0.758360	0.655250	0.339610
N31	N3	0.460870	0.777000	0.191850
H331	H33	0.446100	0.818600	0.185800
H341	H34	0.492000	0.776100	0.203400
N41	N4	0.051460	0.449700	0.441340
H351	H35	0.023400	0.474300	0.436200
H361	H36	0.065300	0.443400	0.464600
C551	C55	0.651810	0.629960	0.287810
C561	C56	0.603110	0.635480	0.262030
C571	C57	0.596530	0.605410	0.227850
H371	H37	0.623700	0.581200	0.219400
C581	C58	0.550000	0.609500	0.204620
H381	H38	0.546200	0.587700	0.180700
C591	C59	0.510220	0.643850	0.215460
C601	C60	0.517410	0.676700	0.249710
H391	H39	0.490700	0.703200	0.257400
C611	C61	0.563350	0.671900	0.273450
H401	H40	0.567200	0.693500	0.297400
C621	C62	0.458690	0.645740	0.192360
C631	C63	0.433990	0.581750	0.182540
H411	H41	0.450400	0.537100	0.188600
C641	C64	0.384490	0.582560	0.163500
C651	C65	0.361550	0.649530	0.155250
H421	H42	0.328100	0.650800	0.142500
C661	C66	0.385450	0.712780	0.164910
C671	C67	0.434420	0.711560	0.183040
C681	C68	0.358370	0.513800	0.154620
C691	C69	0.382240	0.452400	0.144900
H431	H43	0.416800	0.454800	0.142600
C701	C70	0.357220	0.387690	0.138480
H441	H44	0.374700	0.347200	0.130900
C711	C71	0.308160	0.380300	0.142720
C721	C72	0.283100	0.441800	0.151880
H451	H45	0.248600	0.439100	0.154300
C731	C73	0.308380	0.507300	0.157550
H461	H46	0.290600	0.548700	0.163600
C741	C74	0.280530	0.309600	0.138460
C751	C75	0.358880	0.783670	0.158080
C761	C76	0.319120	0.797860	0.175410
H471	H47	0.306700	0.761000	0.189700
C771	C77	0.295650	0.865570	0.172900
H481	H48	0.268400	0.873700	0.186000
C781	C78	0.310620	0.918920	0.152570
C791	C79	0.348320	0.902270	0.133500
H491	H49	0.358800	0.937300	0.117300
C801	C80	0.372170	0.836400	0.136690
H501	H50	0.399100	0.828300	0.123200
C811	C81	0.289430	0.991940	0.153740
C821	C82	0.868570	0.592300	0.337350
C831	C83	0.916030	0.551100	0.346940
C841	C84	0.955210	0.579800	0.370260
H511	H51	0.952800	0.627000	0.379900
C851	C85	0.998820	0.540000	0.380060
H521	H52	0.025400	0.559800	0.397200
C861	C86	0.004360	0.472200	0.365470
C871	C87	0.964250	0.444000	0.341330
H531	H53	0.966700	0.397300	0.331100
C881	C88	0.920350	0.484000	0.332110
H541	H54	0.893200	0.464500	0.315400
C891	C89	0.052310	0.430340	0.374880
C901	C90	0.074110	0.398980	0.347020
H551	H55	0.058000	0.405000	0.322100
C911	C91	0.118090	0.359100	0.352970
C921	C92	0.139960	0.350040	0.390410
H561	H56	0.170200	0.323300	0.395800
C931	C93	0.118710	0.378980	0.419800
C941	C94	0.075070	0.419500	0.411290
C951	C95	0.139270	0.325200	0.322580
C961	C96	0.161660	0.260600	0.325550
H571	H57	0.164600	0.236100	0.348700
C971	C97	0.180790	0.227900	0.296380
H581	H58	0.196700	0.182200	0.299900
C981	C98	0.176680	0.261900	0.262330
C991	C99	0.154670	0.327000	0.258790
H591	H59	0.151100	0.351100	0.235500
C1001	C100	0.137110	0.359700	0.288590
H601	H60	0.123300	0.406800	0.285600
C1011	C101	0.194130	0.223700	0.230420
C1021	C102	0.142530	0.366550	0.459000
C1031	C103	0.118650	0.331000	0.483640
H611	H61	0.085700	0.313700	0.475400
C1041	C104	0.139460	0.318650	0.519950
H621	H62	0.121000	0.293800	0.536200
C1051	C105	0.187190	0.342470	0.532490
C1061	C106	0.211890	0.379520	0.508620
H631	H63	0.244600	0.397600	0.517100
C1071	C107	0.189810	0.391320	0.471940
H641	H64	0.207800	0.416900	0.455600
C1081	C108	0.209930	0.329760	0.571240
Fe71	Fe7	0.761140	0.908230	0.798500
Fe81	Fe8	0.703490	0.850980	0.866710
Fe91	Fe9	0.809480	0.776100	0.853150
O271	O27	0.688250	0.893550	0.775080
O281	O28	0.651160	0.848520	0.820550
O291	O29	0.305030	0.242880	0.628940
O301	O30	0.236570	0.192580	0.644840
O311	O31	0.303390	0.461100	0.632830
O321	O32	0.258930	0.497550	0.675320
O331	O33	0.834090	0.936400	0.815300
O341	O34	0.865910	0.847930	0.852970
O351	O35	0.183580	0.245120	0.699250
O361	O36	0.218020	0.333350	0.736010
O371	O37	0.186050	0.206340	0.091760
O381	O38	0.252640	0.142980	0.082400
O391	O39	0.758360	0.844750	0.839610
N51	N5	0.460870	0.723000	0.691850
H651	H65	0.446100	0.681400	0.685800
H661	H66	0.492000	0.723900	0.703400
N61	N6	0.051460	0.050300	0.941340
H671	H67	0.023400	0.025700	0.936200
H681	H68	0.065300	0.056600	0.964600
C1091	C109	0.651810	0.870040	0.787810
C1101	C110	0.603110	0.864520	0.762030
C1111	C111	0.596530	0.894590	0.727850
H691	H69	0.623700	0.918800	0.719400
C1121	C112	0.550000	0.890500	0.704620
H701	H70	0.546200	0.912300	0.680700
C1131	C113	0.510220	0.856150	0.715460
C1141	C114	0.517410	0.823300	0.749710
H711	H71	0.490700	0.796800	0.757400
C1151	C115	0.563350	0.828100	0.773450
H721	H72	0.567200	0.806500	0.797400
C1161	C116	0.458690	0.854260	0.692360
C1171	C117	0.433990	0.918250	0.682540
H731	H73	0.450400	0.962900	0.688600
C1181	C118	0.384490	0.917440	0.663500
C1191	C119	0.361550	0.850470	0.655250
H741	H74	0.328100	0.849200	0.642500
C1201	C120	0.385450	0.787220	0.664910
C1211	C121	0.434420	0.788440	0.683040
C1221	C122	0.358370	0.986200	0.654620
C1231	C123	0.382240	0.047600	0.644900
H751	H75	0.416800	0.045200	0.642600
C1241	C124	0.357220	0.112310	0.638480
H761	H76	0.374700	0.152800	0.630900
C1251	C125	0.308160	0.119700	0.642720
C1261	C126	0.283100	0.058200	0.651880
H771	H77	0.248600	0.060900	0.654300
C1271	C127	0.308380	0.992700	0.657550
H781	H78	0.290600	0.951300	0.663600
C1281	C128	0.280530	0.190400	0.638460
C1291	C129	0.358880	0.716330	0.658080
C1301	C130	0.319120	0.702140	0.675410
H791	H79	0.306700	0.739000	0.689700
C1311	C131	0.295650	0.634430	0.672900
H801	H80	0.268400	0.626300	0.686000
C1321	C132	0.310620	0.581080	0.652570
C1331	C133	0.348320	0.597730	0.633500
H811	H81	0.358800	0.562700	0.617300
C1341	C134	0.372170	0.663600	0.636690
H821	H82	0.399100	0.671700	0.623200
C1351	C135	0.289430	0.508060	0.653740
C1361	C136	0.868570	0.907700	0.837350
C1371	C137	0.916030	0.948900	0.846940
C1381	C138	0.955210	0.920200	0.870260
H831	H83	0.952800	0.873000	0.879900
C1391	C139	0.998820	0.960000	0.880060
H841	H84	0.025400	0.940200	0.897200
C1401	C140	0.004360	0.027800	0.865470
C1411	C141	0.964250	0.056000	0.841330
H851	H85	0.966700	0.102700	0.831100
C1421	C142	0.920350	0.016000	0.832110
H861	H86	0.893200	0.035500	0.815400
C1431	C143	0.052310	0.069660	0.874880
C1441	C144	0.074110	0.101020	0.847020
H871	H87	0.058000	0.095000	0.822100
C1451	C145	0.118090	0.140900	0.852970
C1461	C146	0.139960	0.149960	0.890410
H881	H88	0.170200	0.176700	0.895800
C1471	C147	0.118710	0.121020	0.919800
C1481	C148	0.075070	0.080500	0.911290
C1491	C149	0.139270	0.174800	0.822580
C1501	C150	0.161660	0.239400	0.825550
H891	H89	0.164600	0.263900	0.848700
C1511	C151	0.180790	0.272100	0.796380
H901	H90	0.196700	0.317800	0.799900
C1521	C152	0.176680	0.238100	0.762330
C1531	C153	0.154670	0.173000	0.758790
H911	H91	0.151100	0.148900	0.735500
C1541	C154	0.137110	0.140300	0.788590
H921	H92	0.123300	0.093200	0.785600
C1551	C155	0.194130	0.276300	0.730420
C1561	C156	0.142530	0.133450	0.959000
C1571	C157	0.118650	0.169000	0.983640
H931	H93	0.085700	0.186300	0.975400
C1581	C158	0.139460	0.181350	0.019950
H941	H94	0.121000	0.206200	0.036200
C1591	C159	0.187190	0.157530	0.032490
C1601	C160	0.211890	0.120480	0.008620
H951	H95	0.244600	0.102400	0.017100
C1611	C161	0.189810	0.108680	0.971940
H961	H96	0.207800	0.083100	0.955600
C1621	C162	0.209930	0.170240	0.071240
Fe101	Fe10	0.238860	0.408230	0.701500
Fe111	Fe11	0.296510	0.350980	0.633290
Fe121	Fe12	0.190520	0.276100	0.646850
O401	O40	0.311750	0.393550	0.724920
O411	O41	0.348840	0.348520	0.679450
O421	O42	0.694970	0.742880	0.871060
O431	O43	0.763430	0.692580	0.855160
O441	O44	0.696610	0.961100	0.867170
O451	O45	0.741070	0.997550	0.824680
O461	O46	0.165910	0.436400	0.684700
O471	O47	0.134090	0.347930	0.647030
O481	O48	0.816420	0.745120	0.800750
O491	O49	0.781980	0.833350	0.763990
O501	O50	0.813950	0.706340	0.408240
O511	O51	0.747360	0.642980	0.417600
O521	O52	0.241640	0.344750	0.660390
N71	N7	0.539130	0.223000	0.808150
H971	H97	0.553900	0.181400	0.814200
H981	H98	0.508000	0.223900	0.796600
N81	N8	0.948540	0.550300	0.558660
H991	H99	0.976600	0.525700	0.563800
H1001	H100	0.934700	0.556600	0.535400
C1631	C163	0.348190	0.370040	0.712190
C1641	C164	0.396890	0.364520	0.737970
C1651	C165	0.403470	0.394590	0.772150
H1011	H101	0.376300	0.418800	0.780600
C1661	C166	0.450000	0.390500	0.795380
H1021	H102	0.453800	0.412300	0.819300
C1671	C167	0.489780	0.356150	0.784540
C1681	C168	0.482590	0.323300	0.750290
H1031	H103	0.509300	0.296800	0.742600
C1691	C169	0.436650	0.328100	0.726550
H1041	H104	0.432800	0.306500	0.702600
C1701	C170	0.541310	0.354260	0.807640
C1711	C171	0.566010	0.418250	0.817460
H1051	H105	0.549600	0.462900	0.811400
C1721	C172	0.615510	0.417440	0.836500
C1731	C173	0.638450	0.350470	0.844750
H1061	H106	0.671900	0.349200	0.857500
C1741	C174	0.614550	0.287220	0.835090
C1751	C175	0.565580	0.288440	0.816960
C1761	C176	0.641630	0.486200	0.845380
C1771	C177	0.617760	0.547600	0.855100
H1071	H107	0.583200	0.545200	0.857400
C1781	C178	0.642780	0.612310	0.861520
H1081	H108	0.625300	0.652800	0.869100
C1791	C179	0.691840	0.619700	0.857280
C1801	C180	0.716900	0.558200	0.848120
H1091	H109	0.751400	0.560900	0.845700
C1811	C181	0.691620	0.492700	0.842450
H1101	H110	0.709400	0.451300	0.836400
C1821	C182	0.719470	0.690400	0.861540
C1831	C183	0.641120	0.216330	0.841920
C1841	C184	0.680880	0.202140	0.824590
H1111	H111	0.693300	0.239000	0.810300
C1851	C185	0.704350	0.134430	0.827100
H1121	H112	0.731600	0.126300	0.814000
C1861	C186	0.689380	0.081080	0.847430
C1871	C187	0.651680	0.097730	0.866500
H1131	H113	0.641200	0.062700	0.882700
C1881	C188	0.627830	0.163600	0.863310
H1141	H114	0.600900	0.171700	0.876800
C1891	C189	0.710570	0.008060	0.846260
C1901	C190	0.131430	0.407700	0.662650
C1911	C191	0.083970	0.448900	0.653060
C1921	C192	0.044790	0.420200	0.629740
H1151	H115	0.047200	0.373000	0.620100
C1931	C193	0.001180	0.460000	0.619940
H1161	H116	0.974600	0.440200	0.602800
C1941	C194	0.995640	0.527800	0.634530
C1951	C195	0.035750	0.556000	0.658670
H1171	H117	0.033300	0.602700	0.668900
C1961	C196	0.079650	0.516000	0.667890
H1181	H118	0.106800	0.535500	0.684600
C1971	C197	0.947690	0.569660	0.625120
C1981	C198	0.925890	0.601020	0.652980
H1191	H119	0.942000	0.595000	0.677900
C1991	C199	0.881910	0.640900	0.647030
C2001	C200	0.860040	0.649960	0.609590
H1201	H120	0.829800	0.676700	0.604200
C2011	C201	0.881290	0.621020	0.580200
C2021	C202	0.924930	0.580500	0.588710
C2031	C203	0.860730	0.674800	0.677420
C2041	C204	0.838340	0.739400	0.674450
H1211	H121	0.835400	0.763900	0.651300
C2051	C205	0.819210	0.772100	0.703620
H1221	H122	0.803300	0.817800	0.700100
C2061	C206	0.823320	0.738100	0.737670
C2071	C207	0.845330	0.673000	0.741210
H1231	H123	0.848900	0.648900	0.764500
C2081	C208	0.862890	0.640300	0.711410
H1241	H124	0.876700	0.593200	0.714400
C2091	C209	0.805870	0.776300	0.769580
C2101	C210	0.857470	0.633450	0.541000
C2111	C211	0.881350	0.669000	0.516360
H1251	H125	0.914300	0.686300	0.524600
C2121	C212	0.860540	0.681350	0.480050
H1261	H126	0.879000	0.706200	0.463800
C2131	C213	0.812810	0.657530	0.467510
C2141	C214	0.788110	0.620480	0.491380
H1271	H127	0.755400	0.602400	0.482900
C2151	C215	0.810190	0.608680	0.528060
H1281	H128	0.792200	0.583100	0.544400
C2161	C216	0.790070	0.670240	0.428760
