data_TOVJAP_charged_PM
_symmetry_space_group_name_H-M	'P1'
_cell_length_a	10.150000
_cell_length_b	14.383000
_cell_length_c	18.355000
_cell_angle_alpha	90.390000
_cell_angle_beta	90.000000
_cell_angle_gamma	90.000000
_symmetry_Int_Tables_number 1

loop_
_symmetry_equiv_pos_as_xyz
'x,y,z'

loop_
_atom_site_label
_atom_site_type_symbol
_atom_site_fract_x
_atom_site_fract_y
_atom_site_fract_z
V11	V1	0.816200	0.758900	0.896000
V21	V2	0.301700	0.712200	0.803500
V31	V3	0.651500	0.746900	0.196600
V41	V4	0.138900	0.746900	0.107300
V51	V5	0.316200	0.741100	0.604000
V61	V6	0.801700	0.787800	0.696500
V71	V7	0.151500	0.753100	0.303400
V81	V8	0.638900	0.753100	0.392700
V91	V9	0.183800	0.241100	0.104000
V101	V10	0.698300	0.287800	0.196500
V111	V11	0.348500	0.253100	0.803400
V121	V12	0.861100	0.253100	0.892700
V131	V13	0.683800	0.258900	0.396000
V141	V14	0.198300	0.212200	0.303500
V151	V15	0.848500	0.246900	0.696600
V161	V16	0.361100	0.246900	0.607300
Fe11	Fe1	0.000000	0.000000	0.000000
Fe21	Fe2	0.500000	0.500000	0.500000
P11	P1	0.363000	0.846500	0.199000
P21	P2	0.571800	0.835300	0.813300
P31	P3	0.856400	0.816600	0.069300
P41	P4	0.111800	0.802100	0.933600
P51	P5	0.863000	0.653500	0.301000
P61	P6	0.071800	0.664700	0.686700
P71	P7	0.356400	0.683400	0.430700
P81	P8	0.611800	0.697900	0.566400
P91	P9	0.637000	0.153500	0.801000
P101	P10	0.428200	0.164700	0.186700
P111	P11	0.143600	0.183400	0.930700
P121	P12	0.888200	0.197900	0.066400
P131	P13	0.137000	0.346500	0.699000
P141	P14	0.928200	0.335300	0.313300
P151	P15	0.643600	0.316600	0.569300
P161	P16	0.388200	0.302100	0.433600
H11	H1	0.386200	0.977700	0.225500
H21	H2	0.496000	0.931800	0.750600
H31	H3	0.886200	0.522300	0.274500
H41	H4	0.996000	0.568200	0.749400
H51	H5	0.613800	0.022300	0.774500
H61	H6	0.504000	0.068200	0.249400
H71	H7	0.113800	0.477700	0.725500
H81	H8	0.004000	0.431800	0.250600
O11	O1	0.751200	0.655600	0.890500
O21	O2	0.612000	0.658000	0.148500
O31	O3	0.184700	0.641100	0.113700
O41	O4	0.318300	0.610800	0.832100
O51	O5	0.293200	0.824700	0.127100
O61	O6	0.511500	0.842600	0.187300
O71	O7	0.325300	0.772900	0.256500
O81	O8	0.322000	0.943100	0.225500
O91	O9	0.675500	0.847800	0.872000
O101	O10	0.627800	0.788400	0.745600
O111	O11	0.460500	0.774800	0.840000
O121	O12	0.514700	0.930600	0.794100
O131	O13	0.786000	0.803200	0.997100
O141	O14	0.946400	0.733000	0.085200
O151	O15	0.750500	0.828900	0.129100
O161	O16	0.941800	0.905500	0.071100
O171	O17	0.001100	0.730800	0.918300
O181	O18	0.216600	0.793800	0.874100
O191	O19	0.174800	0.783500	0.007100
O201	O20	0.056000	0.902200	0.929600
O211	O21	0.884700	0.784000	0.794500
O221	O22	0.573800	0.718300	0.293700
O231	O23	0.825300	0.002900	0.951300
O241	O24	0.251200	0.844400	0.609500
O251	O25	0.112000	0.842000	0.351500
O261	O26	0.684700	0.858900	0.386300
O271	O27	0.818300	0.889200	0.667900
O281	O28	0.793200	0.675300	0.372900
O291	O29	0.011500	0.657400	0.312700
O301	O30	0.825300	0.727100	0.243500
O311	O31	0.822000	0.556900	0.274500
O321	O32	0.175500	0.652200	0.628000
O331	O33	0.127800	0.711600	0.754400
O341	O34	0.960500	0.725200	0.660000
O351	O35	0.014700	0.569400	0.705900
O361	O36	0.286000	0.696800	0.502900
O371	O37	0.446400	0.767000	0.414800
O381	O38	0.250500	0.671100	0.370900
O391	O39	0.441800	0.594500	0.428900
O401	O40	0.501100	0.769200	0.581700
O411	O41	0.716600	0.706200	0.625900
O421	O42	0.674800	0.716500	0.492900
O431	O43	0.556000	0.597800	0.570400
O441	O44	0.384700	0.716000	0.705500
O451	O45	0.073800	0.781700	0.206300
O461	O46	0.325300	0.497100	0.548700
O471	O47	0.248800	0.344400	0.109500
O481	O48	0.388000	0.342000	0.851500
O491	O49	0.815300	0.358900	0.886300
O501	O50	0.681700	0.389200	0.167900
O511	O51	0.706800	0.175300	0.872900
O521	O52	0.488500	0.157400	0.812700
O531	O53	0.674700	0.227100	0.743500
O541	O54	0.678000	0.056900	0.774500
O551	O55	0.324500	0.152200	0.128000
O561	O56	0.372200	0.211600	0.254400
O571	O57	0.539500	0.225200	0.160000
O581	O58	0.485300	0.069400	0.205900
O591	O59	0.214000	0.196800	0.002900
O601	O60	0.053600	0.267000	0.914800
O611	O61	0.249500	0.171100	0.870900
O621	O62	0.058200	0.094500	0.928900
O631	O63	0.998900	0.269200	0.081700
O641	O64	0.783400	0.206200	0.125900
O651	O65	0.825200	0.216500	0.992900
O661	O66	0.944000	0.097800	0.070400
O671	O67	0.115300	0.216000	0.205500
O681	O68	0.426200	0.281700	0.706300
O691	O69	0.174700	0.997100	0.048700
O701	O70	0.748800	0.155600	0.390500
O711	O71	0.888000	0.158000	0.648500
O721	O72	0.315300	0.141100	0.613700
O731	O73	0.181700	0.110800	0.332100
O741	O74	0.206800	0.324700	0.627100
O751	O75	0.988500	0.342600	0.687300
O761	O76	0.174700	0.272900	0.756500
O771	O77	0.178000	0.443100	0.725500
O781	O78	0.824500	0.347800	0.372000
O791	O79	0.872200	0.288400	0.245600
O801	O80	0.039500	0.274800	0.340000
O811	O81	0.985300	0.430600	0.294100
O821	O82	0.714000	0.303200	0.497100
O831	O83	0.553600	0.233000	0.585200
O841	O84	0.749500	0.328900	0.629100
O851	O85	0.558200	0.405500	0.571100
O861	O86	0.498900	0.230800	0.418300
O871	O87	0.283400	0.293800	0.374100
O881	O88	0.325200	0.283500	0.507100
O891	O89	0.444000	0.402200	0.429600
O901	O90	0.615300	0.284000	0.294500
O911	O91	0.926200	0.218300	0.793700
O921	O92	0.674700	0.502900	0.451300
H91	H9	0.680100	0.049300	0.178700
H101	H10	0.731000	0.955100	0.174400
H111	H11	0.806700	0.031800	0.144300
H121	H12	0.824800	0.094000	0.255800
H131	H13	0.757200	0.004400	0.285100
H141	H14	0.925500	0.922000	0.266700
H151	H15	0.970600	0.012700	0.306300
H161	H16	0.026700	0.964800	0.168200
H171	H17	0.119800	0.981100	0.227100
H181	H18	0.049800	0.058800	0.194900
C11	C1	0.816300	0.027500	0.247800
C21	C2	0.938800	0.988300	0.260200
N11	N1	0.752800	0.014700	0.180100
N21	N2	0.043900	0.999300	0.207500
H191	H19	0.180100	0.450700	0.321300
H201	H20	0.231000	0.544900	0.325600
H211	H21	0.306700	0.468200	0.355700
H221	H22	0.324800	0.406000	0.244200
H231	H23	0.257200	0.495600	0.214900
H241	H24	0.425500	0.578000	0.233300
H251	H25	0.470600	0.487300	0.193700
H261	H26	0.526700	0.535200	0.331800
H271	H27	0.619800	0.518900	0.272900
H281	H28	0.549800	0.441200	0.305100
C31	C3	0.316300	0.472500	0.252200
C41	C4	0.438800	0.511700	0.239800
N31	N3	0.252800	0.485300	0.319900
N41	N4	0.543900	0.500700	0.292500
H291	H29	0.319900	0.950700	0.821300
H301	H30	0.269000	0.044900	0.825600
H311	H31	0.193300	0.968200	0.855700
H321	H32	0.175200	0.906000	0.744200
H331	H33	0.242800	0.995600	0.714900
H341	H34	0.074500	0.078000	0.733300
H351	H35	0.029400	0.987300	0.693700
H361	H36	0.973300	0.035200	0.831800
H371	H37	0.880200	0.018900	0.772900
H381	H38	0.950200	0.941200	0.805100
C51	C5	0.183700	0.972500	0.752200
C61	C6	0.061200	0.011700	0.739800
N51	N5	0.247200	0.985300	0.819900
N61	N6	0.956100	0.000700	0.792500
H391	H39	0.819900	0.549300	0.678700
H401	H40	0.769000	0.455100	0.674400
H411	H41	0.693300	0.531800	0.644300
H421	H42	0.675200	0.594000	0.755800
H431	H43	0.742800	0.504400	0.785100
H441	H44	0.574500	0.422000	0.766700
H451	H45	0.529400	0.512700	0.806300
H461	H46	0.473300	0.464800	0.668200
H471	H47	0.380200	0.481100	0.727100
H481	H48	0.450200	0.558800	0.694900
C71	C7	0.683700	0.527500	0.747800
C81	C8	0.561200	0.488300	0.760200
N71	N7	0.747200	0.514700	0.680100
N81	N8	0.456100	0.499300	0.707500
