data_TOVJIZ_clean_PM
_symmetry_space_group_name_H-M	'P1'
_cell_length_a	18.375000
_cell_length_b	24.688000
_cell_length_c	35.257000
_cell_angle_alpha	90.345000
_cell_angle_beta	90.000000
_cell_angle_gamma	90.000000
_symmetry_Int_Tables_number 1

loop_
_symmetry_equiv_pos_as_xyz
'x,y,z'

loop_
_atom_site_label
_atom_site_type_symbol
_atom_site_fract_x
_atom_site_fract_y
_atom_site_fract_z
Fe11	Fe1	0.340490	0.828190	0.891280
Fe21	Fe2	0.765920	0.293040	0.621370
Fe31	Fe3	0.904550	0.254340	0.674610
Fe41	Fe4	0.404550	0.745660	0.825390
Fe51	Fe5	0.840490	0.171810	0.608720
Fe61	Fe6	0.234080	0.706960	0.378630
Fe71	Fe7	0.595450	0.254340	0.174610
Fe81	Fe8	0.734080	0.293040	0.121370
Fe91	Fe9	0.159510	0.828190	0.391280
Fe101	Fe10	0.095450	0.745660	0.325390
Fe111	Fe11	0.659510	0.171810	0.108720
Fe121	Fe12	0.265920	0.706960	0.878630
H11	H1	0.289600	0.954900	0.809500
H21	H2	0.565000	0.356100	0.767200
H31	H3	0.411400	0.927800	0.694500
H41	H4	0.436300	0.750700	0.067800
H51	H5	0.781600	0.979900	0.738900
H61	H6	0.323100	0.645000	0.974500
H71	H7	0.081000	0.863000	0.242700
H81	H8	0.784100	0.004600	0.296800
H91	H9	0.536800	0.044700	0.635300
H101	H10	0.571800	0.514700	0.836300
H111	H11	0.591200	0.537300	0.096500
H121	H12	0.718400	0.979900	0.238900
H131	H13	0.071800	0.485300	0.663700
H141	H14	0.581000	0.137000	0.257300
H151	H15	0.448000	0.765800	0.367700
H161	H16	0.453600	0.029900	0.688800
H171	H17	0.101400	0.789800	0.511200
H181	H18	0.763500	0.316300	0.332900
H191	H19	0.935000	0.356100	0.267200
H201	H20	0.065000	0.643900	0.732800
H211	H21	0.419000	0.863000	0.742700
H221	H22	0.131700	0.664400	0.786400
H231	H23	0.601400	0.210200	0.988800
H241	H24	0.558600	0.808300	0.353000
H251	H25	0.088600	0.927800	0.194500
H261	H26	0.875900	0.768300	0.349500
H271	H27	0.514200	0.598800	0.831000
H281	H28	0.440800	0.575200	0.183700
H291	H29	0.215900	0.995400	0.703200
H301	H30	0.823100	0.355000	0.525500
H311	H31	0.656000	0.953000	0.875500
H321	H32	0.588600	0.072200	0.305500
H331	H33	0.803600	0.293400	0.778800
H341	H34	0.919000	0.137000	0.757300
H351	H35	0.715900	0.004600	0.796800
H361	H36	0.898600	0.210200	0.488800
H371	H37	0.176900	0.645000	0.474500
H381	H38	0.853300	0.086900	0.119200
H391	H39	0.485800	0.401200	0.169000
H401	H40	0.940800	0.424800	0.316300
H411	H41	0.941400	0.808300	0.853000
H421	H42	0.463200	0.955300	0.364700
H431	H43	0.063700	0.750700	0.567800
H441	H44	0.631700	0.335600	0.713600
H451	H45	0.736500	0.316300	0.832900
H461	H46	0.985800	0.598800	0.331000
H471	H47	0.908800	0.537300	0.596500
H481	H48	0.141000	0.701000	0.624400
H491	H49	0.368300	0.664400	0.286400
H501	H50	0.526800	0.450300	0.943800
H511	H51	0.156000	0.047000	0.624500
H521	H52	0.473200	0.549700	0.056200
H531	H53	0.973200	0.450300	0.443800
H541	H54	0.359000	0.701000	0.124400
H551	H55	0.624100	0.768300	0.849500
H561	H56	0.696400	0.293400	0.278800
H571	H57	0.646700	0.086900	0.619200
H581	H58	0.963200	0.044700	0.135300
H591	H59	0.408800	0.462700	0.903500
H601	H60	0.036800	0.955300	0.864700
H611	H61	0.844000	0.953000	0.375500
H621	H62	0.868300	0.335600	0.213600
H631	H63	0.563700	0.249300	0.932200
H641	H64	0.281600	0.020100	0.761100
H651	H65	0.139300	0.605800	0.531400
H661	H66	0.124100	0.231700	0.650500
H671	H67	0.026800	0.549700	0.556200
H681	H68	0.046400	0.029900	0.188800
H691	H69	0.263500	0.683700	0.167100
H701	H70	0.398600	0.789800	0.011200
H711	H71	0.911400	0.072200	0.805500
H721	H72	0.375900	0.231700	0.150500
H731	H73	0.639300	0.394200	0.968600
H741	H74	0.043700	0.088800	0.612300
H751	H75	0.146700	0.913100	0.880800
H761	H76	0.860700	0.394200	0.468600
H771	H77	0.710400	0.045100	0.190500
H781	H78	0.052000	0.765800	0.867700
H791	H79	0.236500	0.683700	0.667100
H801	H80	0.641000	0.299000	0.875600
H811	H81	0.014200	0.401200	0.669000
H821	H82	0.344000	0.047000	0.124500
H831	H83	0.158600	0.140300	0.126900
H841	H84	0.352200	0.546800	0.899100
H851	H85	0.091200	0.462700	0.403500
H861	H86	0.353300	0.913100	0.380800
H871	H87	0.559200	0.424800	0.816300
H881	H88	0.236700	0.190400	0.661400
H891	H89	0.456300	0.088800	0.112300
H901	H90	0.441400	0.191700	0.647000
H911	H91	0.841400	0.859700	0.873100
H921	H92	0.360700	0.605800	0.031400
H931	H93	0.676900	0.355000	0.025500
H941	H94	0.552000	0.234200	0.632300
H951	H95	0.059200	0.575200	0.683700
H961	H96	0.428200	0.485300	0.163700
H971	H97	0.647800	0.453200	0.100900
H981	H98	0.852200	0.453200	0.600900
H991	H99	0.058600	0.191700	0.147000
H1001	H100	0.789600	0.045100	0.690500
H1011	H101	0.341400	0.140300	0.626900
H1021	H102	0.948000	0.234200	0.132300
H1031	H103	0.736700	0.809600	0.838600
H1041	H104	0.936300	0.249300	0.432200
H1051	H105	0.763300	0.809600	0.338600
H1061	H106	0.218400	0.020100	0.261100
H1071	H107	0.196400	0.706600	0.221200
H1081	H108	0.303600	0.706600	0.721200
H1091	H109	0.147800	0.546800	0.399100
H1101	H110	0.658600	0.859700	0.373100
H1111	H111	0.435000	0.643900	0.232800
H1121	H112	0.284100	0.995400	0.203200
H1131	H113	0.263300	0.190400	0.161400
H1141	H114	0.546400	0.970100	0.311200
H1151	H115	0.956300	0.911200	0.387700
H1161	H116	0.953600	0.970100	0.811200
H1171	H117	0.928200	0.514700	0.336300
H1181	H118	0.859000	0.299000	0.375600
H1191	H119	0.210400	0.954900	0.309500
H1201	H120	0.543700	0.911200	0.887700
C11	C1	0.886280	0.343910	0.269830
C21	C2	0.890800	0.247770	0.484760
C31	C3	0.223290	0.089190	0.156770
C41	C4	0.136740	0.861880	0.311350
C51	C5	0.714920	0.320110	0.808570
C61	C6	0.197240	0.169560	0.651800
C71	C7	0.154010	0.666520	0.493440
C81	C8	0.830280	0.253300	0.548180
C91	C9	0.516910	0.829690	0.358520
C101	C10	0.631510	0.356650	0.972690
C111	C11	0.395000	0.891860	0.375050
C121	C12	0.542200	0.399000	0.905710
C131	C13	0.276710	0.089190	0.656770
C141	C14	0.908720	0.955010	0.819330
C151	C15	0.658100	0.889500	0.356100
C161	C16	0.504510	0.519120	0.129200
C171	C17	0.390800	0.752230	0.015240
C181	C18	0.605000	0.108140	0.624950
C191	C19	0.814570	0.050630	0.713750
C201	C20	0.857390	0.278310	0.512450
C211	C21	0.466900	0.572920	0.128300
C221	C22	0.266500	0.700730	0.793330
C231	C23	0.886430	0.331590	0.374600
C241	C24	0.492640	0.571210	0.845920
C251	C25	0.613570	0.331590	0.874600
C261	C26	0.539350	0.083070	0.634350
C271	C27	0.394850	0.641810	0.160020
C281	C28	0.417210	0.109390	0.122570
C291	C29	0.766500	0.299270	0.706670
C301	C30	0.346800	0.668690	0.262060
C311	C31	0.608740	0.104980	0.253460
C321	C32	0.222450	0.045750	0.181910
C331	C33	0.564800	0.406120	0.839550
C341	C34	0.654390	0.019810	0.276540
C351	C35	0.850290	0.915470	0.370230
C361	C36	0.341900	0.110500	0.643900
C371	C37	0.356500	0.660770	0.194130
C381	C38	0.369280	0.194240	0.145130
C391	C39	0.149710	0.084530	0.629770
C401	C40	0.391980	0.635810	0.862580
C411	C41	0.157170	0.023450	0.193810
C421	C42	0.004510	0.480880	0.370800
C431	C43	0.809720	0.011740	0.742700
C441	C44	0.154390	0.980190	0.223460
C451	C45	0.408320	0.088760	0.655550
C461	C46	0.391140	0.835780	0.375970
C471	C47	0.016910	0.170310	0.141480
C481	C48	0.572770	0.418710	0.135600
C491	C49	0.072770	0.581290	0.364400
C501	C50	0.391260	0.895020	0.746540
C511	C51	0.895000	0.108140	0.124950
C521	C52	0.158100	0.110500	0.143900
C531	C53	0.435200	0.593880	0.160450
C541	C54	0.908320	0.911240	0.844450
C551	C55	0.657170	0.976550	0.306190
C561	C56	0.669720	0.253300	0.048180
C571	C57	0.457800	0.601000	0.094290
C581	C58	0.022140	0.113690	0.142370
C591	C59	0.401800	0.673970	0.054990
C601	C60	0.342830	0.023450	0.693810
C611	C61	0.082790	0.109390	0.622570
C621	C62	0.048740	0.804200	0.867450
C631	C63	0.894850	0.358190	0.339980
C641	C64	0.573540	0.836760	0.869650
C651	C65	0.108860	0.835780	0.875970
C661	C66	0.863260	0.138120	0.688650
C671	C67	0.451260	0.804200	0.367450
C681	C68	0.144500	0.903330	0.280840
C691	C69	0.598200	0.326030	0.945010
C701	C70	0.935200	0.406120	0.339550
C711	C71	0.064800	0.593880	0.660450
C721	C72	0.527010	0.521160	0.849040
C731	C73	0.109200	0.752230	0.515240
C741	C74	0.603330	0.459500	0.113910
C751	C75	0.654010	0.333480	0.006560
C761	C76	0.608020	0.364190	0.137420
C771	C77	0.643500	0.339230	0.805870
C781	C78	0.285080	0.679890	0.191430
C791	C79	0.293100	0.114500	0.144540
C801	C80	0.548740	0.195800	0.632550
C811	C81	0.690280	0.011740	0.242700
C821	C82	0.886650	0.066550	0.782200
C831	C83	0.350290	0.084530	0.129770
C841	C84	0.483090	0.170310	0.641480
C851	C85	0.569340	0.509480	0.111090
C861	C86	0.999280	0.189400	0.628590
C871	C87	0.723290	0.910810	0.343230
C881	C88	0.842830	0.976550	0.806190
C891	C89	0.649710	0.915470	0.870230
C901	C90	0.777550	0.954250	0.818090
C911	C91	0.190280	0.988260	0.257300
C921	C92	0.591680	0.911240	0.344450
C931	C93	0.302760	0.169560	0.151800
C941	C94	0.613720	0.343910	0.769830
C951	C95	0.495490	0.480880	0.870800
C961	C96	0.891140	0.164220	0.124030
C971	C97	0.007360	0.571210	0.345920
C981	C98	0.930660	0.509480	0.611090
C991	C99	0.255190	0.693450	0.723560
C1001	C100	0.427230	0.581290	0.864400
C1011	C101	0.913220	0.270890	0.451090
C1021	C102	0.472990	0.478840	0.150960
C1031	C103	0.706900	0.885500	0.855460
C1041	C104	0.417480	0.647920	0.092750
C1051	C105	0.723800	0.312420	0.740730
C1061	C106	0.582790	0.890610	0.877430
C1071	C107	0.977860	0.886310	0.857630
C1081	C108	0.855500	0.096670	0.719160
C1091	C109	0.355500	0.903330	0.780840
C1101	C110	0.636740	0.138120	0.188650
C1111	C111	0.642610	0.278310	0.012450
C1121	C112	0.113570	0.668410	0.625400
C1131	C113	0.793100	0.885500	0.355460
C1141	C114	0.244810	0.693450	0.223560
C1151	C115	0.098200	0.673970	0.554990
C1161	C116	0.605150	0.358190	0.839980
C1171	C117	0.386430	0.668410	0.125400
C1181	C118	0.185430	0.949370	0.286250
C1191	C119	0.586780	0.270890	0.951090
C1201	C120	0.679000	0.191360	0.615170
C1211	C121	0.869280	0.805760	0.354870
C1221	C122	0.960650	0.083070	0.134350
C1231	C123	0.039350	0.916930	0.865650
C1241	C124	0.179000	0.808640	0.884830
C1251	C125	0.856500	0.339230	0.305870
C1261	C126	0.917210	0.890610	0.377430
C1271	C127	0.130720	0.194240	0.645130
C1281	C128	0.108020	0.635810	0.362580
C1291	C129	0.330280	0.746700	0.951820
C1301	C130	0.755190	0.306550	0.776440
C1311	C131	0.426460	0.163240	0.130350
C1321	C132	0.082520	0.647920	0.592750
C1331	C133	0.697240	0.830440	0.848200
C1341	C134	0.917480	0.352080	0.407250
C1351	C135	0.314570	0.949370	0.786250
C1361	C136	0.386280	0.656090	0.230170
C1371	C137	0.276200	0.687580	0.259270
C1381	C138	0.722450	0.954250	0.318090
C1391	C139	0.153200	0.668690	0.762060
C1401	C140	0.644500	0.096670	0.219160
C1411	C141	0.460650	0.916930	0.365650
C1421	C142	0.744810	0.306550	0.276440
C1431	C143	0.143500	0.660770	0.694130
C1441	C144	0.321000	0.808640	0.384830
C1451	C145	0.105000	0.891860	0.875050
C1461	C146	0.785080	0.320110	0.308570
C1471	C147	0.499280	0.810600	0.871410
C1481	C148	0.113720	0.656090	0.730170
C1491	C149	0.277550	0.045750	0.681910
C1501	C150	0.233500	0.700730	0.293330
C1511	C151	0.966900	0.427080	0.371700
C1521	C152	0.846800	0.331310	0.237940
C1531	C153	0.169720	0.746700	0.451820
C1541	C154	0.821000	0.191360	0.115170
C1551	C155	0.027010	0.478840	0.650960
C1561	C156	0.891260	0.104980	0.753460
C1571	C157	0.841900	0.889500	0.856100
C1581	C158	0.033100	0.572920	0.628300
C1591	C159	0.363260	0.861880	0.811350
C1601	C160	0.896670	0.459500	0.613910
C1611	C161	0.630720	0.805760	0.854870
C1621	C162	0.776710	0.910810	0.843230
C1631	C163	0.500720	0.189400	0.128590
C1641	C164	0.368490	0.643350	0.027310
C1651	C165	0.927230	0.418710	0.635600
C1661	C166	0.868490	0.356650	0.472690
C1671	C167	0.309720	0.988260	0.757300
C1681	C168	0.214920	0.679890	0.691430
C1691	C169	0.357390	0.721690	0.987550
C1701	C170	0.591280	0.955010	0.319330
C1711	C171	0.901800	0.326030	0.445010
C1721	C172	0.206900	0.114500	0.644540
C1731	C173	0.477860	0.113690	0.642370
C1741	C174	0.091680	0.088760	0.155550
C1751	C175	0.972990	0.521160	0.349040
C1761	C176	0.802760	0.830440	0.348200
C1771	C177	0.951260	0.195800	0.132550
C1781	C178	0.223800	0.687580	0.759270
C1791	C179	0.733500	0.299270	0.206670
C1801	C180	0.091280	0.044990	0.180670
C1811	C181	0.042200	0.601000	0.594290
C1821	C182	0.086780	0.729110	0.548910
C1831	C183	0.582520	0.352080	0.907250
C1841	C184	0.992640	0.428790	0.654080
C1851	C185	0.142610	0.721690	0.487550
C1861	C186	0.845990	0.333480	0.506560
C1871	C187	0.000720	0.810600	0.371410
C1881	C188	0.073540	0.163240	0.630350
C1891	C189	0.609200	0.247770	0.984760
C1901	C190	0.386650	0.933450	0.717800
C1911	C191	0.613350	0.066550	0.282200
C1921	C192	0.685430	0.050630	0.213750
C1931	C193	0.105150	0.641810	0.660020
C1941	C194	0.533100	0.427080	0.871700
C1951	C195	0.608860	0.164220	0.624030
C1961	C196	0.891980	0.364190	0.637420
C1971	C197	0.983090	0.829690	0.858520
C1981	C198	0.845610	0.019810	0.776540
C1991	C199	0.926460	0.836760	0.369650
C2001	C200	0.653200	0.331310	0.737940
C2011	C201	0.103330	0.540500	0.386090
C2021	C202	0.108740	0.895020	0.246540
C2031	C203	0.522140	0.886310	0.357630
C2041	C204	0.345990	0.666520	0.993440
C2051	C205	0.413220	0.729110	0.048910
C2061	C206	0.131510	0.643350	0.527310
C2071	C207	0.957800	0.399000	0.405710
C2081	C208	0.995490	0.519120	0.629200
C2091	C209	0.776200	0.312420	0.240730
C2101	C210	0.396670	0.540500	0.886090
C2111	C211	0.069340	0.490520	0.388910
C2121	C212	0.408720	0.044990	0.680670
C2131	C213	0.507360	0.428790	0.154080
C2141	C214	0.113350	0.933450	0.217800
C2151	C215	0.430660	0.490520	0.888910
C2161	C216	0.345610	0.980190	0.723460
O11	O1	0.835920	0.238180	0.634710
O21	O2	0.450840	0.838510	0.887900
O31	O3	0.098030	0.821530	0.304840
O41	O4	0.164080	0.761820	0.365290
O51	O5	0.992100	0.420320	0.438130
O61	O6	0.507900	0.420320	0.938130
O71	O7	0.318350	0.758250	0.377830
O81	O8	0.818350	0.241750	0.122170
O91	O9	0.509430	0.234570	0.142930
O101	O10	0.335920	0.761820	0.865290
O111	O11	0.258570	0.687480	0.325420
O121	O12	0.950840	0.161490	0.612100
O131	O13	0.855220	0.208480	0.557830
O141	O14	0.420700	0.667960	0.838690
O151	O15	0.268300	0.836110	0.396020
O161	O16	0.681650	0.241750	0.622170
O171	O17	0.668800	0.128190	0.157950
O181	O18	0.009430	0.765430	0.357070
O191	O19	0.289320	0.026420	0.193930
O201	O20	0.231700	0.836110	0.896020
O211	O21	0.549160	0.161490	0.112100
O221	O22	0.163160	0.644710	0.381500
O231	O23	0.664080	0.238180	0.134710
O241	O24	0.768300	0.163890	0.103980
O251	O25	0.731700	0.163890	0.603980
O261	O26	0.490570	0.765430	0.857070
O271	O27	0.049160	0.838510	0.387900
O281	O28	0.401970	0.821530	0.804840
O291	O29	0.336840	0.644710	0.881500
O301	O30	0.355220	0.791520	0.942170
O311	O31	0.492100	0.579680	0.061870
O321	O32	0.144780	0.791520	0.442170
O331	O33	0.831200	0.128190	0.657950
O341	O34	0.990570	0.234570	0.642930
O351	O35	0.716680	0.280940	0.066510
O361	O36	0.331200	0.871810	0.842050
O371	O37	0.827530	0.274930	0.711690
O381	O38	0.168800	0.871810	0.342050
O391	O39	0.007900	0.579680	0.561870
O401	O40	0.672470	0.274930	0.211690
O411	O41	0.598030	0.178470	0.195160
O421	O42	0.741430	0.312520	0.674580
O431	O43	0.836840	0.355290	0.618500
O441	O44	0.920700	0.332040	0.661310
O451	O45	0.241430	0.687480	0.825420
O461	O46	0.710680	0.973580	0.806070
O471	O47	0.758570	0.312520	0.174580
O481	O48	0.783320	0.280940	0.566510
O491	O49	0.181650	0.758250	0.877830
O501	O50	0.216680	0.719060	0.433490
O511	O51	0.789320	0.973580	0.306070
O521	O52	0.283320	0.719060	0.933490
O531	O53	0.663160	0.355290	0.118500
O541	O54	0.210680	0.026420	0.693930
O551	O55	0.901970	0.178470	0.695160
O561	O56	0.579300	0.332040	0.161310
O571	O57	0.079300	0.667960	0.338690
O581	O58	0.327530	0.725070	0.788310
O591	O59	0.172470	0.725070	0.288310
O601	O60	0.644780	0.208480	0.057830
