data_TOWNUQ_clean_PM
_symmetry_space_group_name_H-M	'P1'
_cell_length_a	11.870000
_cell_length_b	31.338000
_cell_length_c	24.763000
_cell_angle_alpha	90.000000
_cell_angle_beta	90.000000
_cell_angle_gamma	90.000000
_symmetry_Int_Tables_number 1

loop_
_symmetry_equiv_pos_as_xyz
'x,y,z'

loop_
_atom_site_label
_atom_site_type_symbol
_atom_site_fract_x
_atom_site_fract_y
_atom_site_fract_z
O11	O1	0.534000	0.205090	0.654400
O21	O2	0.706400	0.200900	0.621300
O31	O3	0.753700	0.799730	0.004300
O41	O4	0.909700	0.796030	0.952000
O51	O5	0.350700	0.203170	0.584500
O61	O6	0.371800	0.204840	0.494700
C11	C1	0.629100	0.189200	0.651800
C21	C2	0.912700	0.064900	0.823100
H11	H1	0.950900	0.063600	0.858100
H21	H2	0.890900	0.094400	0.815400
H31	H3	0.963700	0.054700	0.794800
C31	C3	0.516200	0.955000	0.836100
H41	H4	0.459500	0.965800	0.810800
H51	H5	0.485300	0.955300	0.872800
H61	H6	0.536700	0.925700	0.826100
C41	C4	0.817900	0.813000	0.967100
C51	C5	0.333800	0.189100	0.537700
C61	C6	0.057900	0.037760	0.510500
C71	C7	0.957600	0.028930	0.537600
C81	C8	0.099800	0.008880	0.473100
H71	H7	0.168100	0.014900	0.454600
C91	C9	0.901300	0.059500	0.578800
H81	H8	0.937800	0.056400	0.614100
H91	H9	0.821100	0.052500	0.582000
H101	H10	0.909500	0.089000	0.566300
C101	C10	0.653800	0.153350	0.691900
C111	C11	0.748500	0.127730	0.685500
H111	H11	0.799300	0.132900	0.656500
C121	C12	0.768600	0.094570	0.721400
H121	H12	0.833400	0.077100	0.717100
C131	C13	0.694100	0.086810	0.764000
C141	C14	0.599700	0.112550	0.770400
H131	H13	0.549100	0.107500	0.799400
C151	C15	0.579600	0.145560	0.734400
H141	H14	0.514900	0.163000	0.738800
C161	C16	0.707600	0.047810	0.799800
C171	C17	0.808800	0.037120	0.824500
C181	C18	0.815700	0.999320	0.853900
H151	H15	0.884700	0.991800	0.870900
C191	C19	0.722700	0.972270	0.858600
C201	C20	0.621300	0.983470	0.833800
C211	C21	0.614300	0.021230	0.804400
H161	H16	0.545400	0.028900	0.787400
C221	C22	0.741200	0.930340	0.886400
C231	C23	0.835700	0.906560	0.872200
H171	H17	0.884800	0.916600	0.844700
C241	C24	0.858600	0.868210	0.898000
H181	H18	0.923200	0.852100	0.888200
C251	C25	0.786700	0.853360	0.938400
C261	C26	0.692100	0.877100	0.952700
H191	H19	0.643100	0.867000	0.980200
C271	C27	0.669500	0.915520	0.926700
H201	H20	0.605000	0.931700	0.936600
C281	C28	0.255900	0.151230	0.531000
C291	C29	0.226900	0.127100	0.575900
H211	H21	0.251900	0.135600	0.610700
C301	C30	0.161500	0.090600	0.570300
H221	H22	0.141800	0.074300	0.601200
C311	C31	0.124900	0.077880	0.519300
C321	C32	0.153400	0.102300	0.474300
H231	H23	0.127600	0.094100	0.439600
C331	C33	0.219100	0.138600	0.479900
H241	H24	0.239000	0.154900	0.449000
O71	O7	0.966000	0.794910	0.154400
O81	O8	0.793600	0.799100	0.121300
O91	O9	0.746300	0.200270	0.504300
O101	O10	0.590300	0.203970	0.452000
O111	O11	0.149300	0.796830	0.084500
O121	O12	0.128200	0.795160	0.994700
C341	C34	0.870900	0.810800	0.151800
C351	C35	0.587300	0.935100	0.323100
H251	H25	0.549100	0.936400	0.358100
H261	H26	0.609100	0.905600	0.315400
H271	H27	0.536300	0.945300	0.294800
C361	C36	0.983800	0.045000	0.336100
H281	H28	0.040500	0.034200	0.310800
H291	H29	0.014700	0.044700	0.372800
H301	H30	0.963300	0.074300	0.326100
C371	C37	0.682100	0.187000	0.467100
C381	C38	0.166200	0.810900	0.037700
C391	C39	0.442100	0.962240	0.010500
C401	C40	0.542400	0.971070	0.037600
C411	C41	0.400200	0.991120	0.973100
H311	H31	0.331900	0.985100	0.954600
C421	C42	0.598700	0.940500	0.078800
H321	H32	0.562200	0.943600	0.114100
H331	H33	0.678900	0.947500	0.082000
H341	H34	0.590500	0.911000	0.066300
C431	C43	0.846200	0.846650	0.191900
C441	C44	0.751500	0.872270	0.185500
H351	H35	0.700700	0.867100	0.156500
C451	C45	0.731400	0.905430	0.221400
H361	H36	0.666600	0.922900	0.217100
C461	C46	0.805900	0.913190	0.264000
C471	C47	0.900300	0.887450	0.270400
H371	H37	0.950900	0.892500	0.299400
C481	C48	0.920400	0.854440	0.234400
H381	H38	0.985100	0.837000	0.238800
C491	C49	0.792400	0.952190	0.299800
C501	C50	0.691200	0.962880	0.324500
C511	C51	0.684300	0.000680	0.353900
H391	H39	0.615300	0.008200	0.370900
C521	C52	0.777300	0.027730	0.358600
C531	C53	0.878700	0.016530	0.333800
C541	C54	0.885700	0.978770	0.304400
H401	H40	0.954600	0.971100	0.287400
C551	C55	0.758800	0.069660	0.386400
C561	C56	0.664300	0.093440	0.372200
H411	H41	0.615200	0.083400	0.344700
C571	C57	0.641400	0.131790	0.398000
H421	H42	0.576800	0.147900	0.388200
C581	C58	0.713300	0.146640	0.438400
C591	C59	0.807900	0.122900	0.452700
H431	H43	0.856900	0.133000	0.480200
C601	C60	0.830500	0.084480	0.426700
H441	H44	0.895000	0.068300	0.436600
C611	C61	0.244100	0.848770	0.031000
C621	C62	0.273100	0.872900	0.075900
H451	H45	0.248100	0.864400	0.110700
C631	C63	0.338500	0.909400	0.070300
H461	H46	0.358200	0.925700	0.101200
C641	C64	0.375100	0.922120	0.019300
C651	C65	0.346600	0.897700	0.974300
H471	H47	0.372400	0.905900	0.939600
C661	C66	0.280900	0.861400	0.979900
H481	H48	0.261000	0.845100	0.949000
O131	O13	0.466000	0.705090	0.345600
O141	O14	0.293600	0.700900	0.378700
O151	O15	0.246300	0.299730	0.995700
O161	O16	0.090300	0.296030	0.048000
O171	O17	0.649300	0.703170	0.415500
O181	O18	0.628200	0.704840	0.505300
C671	C67	0.370900	0.689200	0.348200
C681	C68	0.087300	0.564900	0.176900
H491	H49	0.049100	0.563600	0.141900
H501	H50	0.109100	0.594400	0.184600
H511	H51	0.036300	0.554700	0.205200
C691	C69	0.483800	0.455000	0.163900
H521	H52	0.540500	0.465800	0.189200
H531	H53	0.514700	0.455300	0.127200
H541	H54	0.463300	0.425700	0.173900
C701	C70	0.182100	0.313000	0.032900
C711	C71	0.666200	0.689100	0.462300
C721	C72	0.942100	0.537760	0.489500
C731	C73	0.042400	0.528930	0.462400
C741	C74	0.900200	0.508880	0.526900
H551	H55	0.831900	0.514900	0.545400
C751	C75	0.098700	0.559500	0.421200
H561	H56	0.062200	0.556400	0.385900
H571	H57	0.178900	0.552500	0.418000
H581	H58	0.090500	0.589000	0.433700
C761	C76	0.346200	0.653350	0.308100
C771	C77	0.251500	0.627730	0.314500
H591	H59	0.200700	0.632900	0.343500
C781	C78	0.231400	0.594570	0.278600
H601	H60	0.166600	0.577100	0.282900
C791	C79	0.305900	0.586810	0.236000
C801	C80	0.400300	0.612550	0.229600
H611	H61	0.450900	0.607500	0.200600
C811	C81	0.420400	0.645560	0.265600
H621	H62	0.485100	0.663000	0.261200
C821	C82	0.292400	0.547810	0.200200
C831	C83	0.191200	0.537120	0.175500
C841	C84	0.184300	0.499320	0.146100
H631	H63	0.115300	0.491800	0.129100
C851	C85	0.277300	0.472270	0.141400
C861	C86	0.378700	0.483470	0.166200
C871	C87	0.385700	0.521230	0.195600
H641	H64	0.454600	0.528900	0.212600
C881	C88	0.258800	0.430340	0.113600
C891	C89	0.164300	0.406560	0.127800
H651	H65	0.115200	0.416600	0.155300
C901	C90	0.141400	0.368210	0.102000
H661	H66	0.076800	0.352100	0.111800
C911	C91	0.213300	0.353360	0.061600
C921	C92	0.307900	0.377100	0.047300
H671	H67	0.356900	0.367000	0.019800
C931	C93	0.330500	0.415520	0.073300
H681	H68	0.395000	0.431700	0.063400
C941	C94	0.744100	0.651230	0.469000
C951	C95	0.773100	0.627100	0.424100
H691	H69	0.748100	0.635600	0.389300
C961	C96	0.838500	0.590600	0.429700
H701	H70	0.858200	0.574300	0.398800
C971	C97	0.875100	0.577880	0.480700
C981	C98	0.846600	0.602300	0.525700
H711	H71	0.872400	0.594100	0.560400
C991	C99	0.780900	0.638600	0.520100
H721	H72	0.761000	0.654900	0.551000
O191	O19	0.034000	0.294910	0.845600
O201	O20	0.206400	0.299100	0.878700
O211	O21	0.253700	0.700270	0.495700
O221	O22	0.409700	0.703970	0.548000
O231	O23	0.850700	0.296830	0.915500
O241	O24	0.871800	0.295160	0.005300
C1001	C100	0.129100	0.310800	0.848200
C1011	C101	0.412700	0.435100	0.676900
H731	H73	0.450900	0.436400	0.641900
H741	H74	0.390900	0.405600	0.684600
H751	H75	0.463700	0.445300	0.705200
C1021	C102	0.016200	0.545000	0.663900
H761	H76	0.959500	0.534200	0.689200
H771	H77	0.985300	0.544700	0.627200
H781	H78	0.036700	0.574300	0.673900
C1031	C103	0.317900	0.687000	0.532900
C1041	C104	0.833800	0.310900	0.962300
C1051	C105	0.557900	0.462240	0.989500
C1061	C106	0.457600	0.471070	0.962400
C1071	C107	0.599800	0.491120	0.026900
H791	H79	0.668100	0.485100	0.045400
C1081	C108	0.401300	0.440500	0.921200
H801	H80	0.437800	0.443600	0.885900
H811	H81	0.321100	0.447500	0.918000
H821	H82	0.409500	0.411000	0.933700
C1091	C109	0.153800	0.346650	0.808100
C1101	C110	0.248500	0.372270	0.814500
H831	H83	0.299300	0.367100	0.843500
C1111	C111	0.268600	0.405430	0.778600
H841	H84	0.333400	0.422900	0.782900
C1121	C112	0.194100	0.413190	0.736000
C1131	C113	0.099700	0.387450	0.729600
H851	H85	0.049100	0.392500	0.700600
C1141	C114	0.079600	0.354440	0.765600
H861	H86	0.014900	0.337000	0.761200
C1151	C115	0.207600	0.452190	0.700200
C1161	C116	0.308800	0.462880	0.675500
C1171	C117	0.315700	0.500680	0.646100
H871	H87	0.384700	0.508200	0.629100
C1181	C118	0.222700	0.527730	0.641400
C1191	C119	0.121300	0.516530	0.666200
C1201	C120	0.114300	0.478770	0.695600
H881	H88	0.045400	0.471100	0.712600
C1211	C121	0.241200	0.569660	0.613600
C1221	C122	0.335700	0.593440	0.627800
H891	H89	0.384800	0.583400	0.655300
C1231	C123	0.358600	0.631790	0.602000
H901	H90	0.423200	0.647900	0.611800
C1241	C124	0.286700	0.646640	0.561600
C1251	C125	0.192100	0.622900	0.547300
H911	H91	0.143100	0.633000	0.519800
C1261	C126	0.169500	0.584480	0.573300
H921	H92	0.105000	0.568300	0.563400
C1271	C127	0.755900	0.348770	0.969000
C1281	C128	0.726900	0.372900	0.924100
H931	H93	0.751900	0.364400	0.889300
C1291	C129	0.661500	0.409400	0.929700
H941	H94	0.641800	0.425700	0.898800
C1301	C130	0.624900	0.422120	0.980700
C1311	C131	0.653400	0.397700	0.025700
H951	H95	0.627600	0.405900	0.060400
C1321	C132	0.719100	0.361400	0.020100
H961	H96	0.739000	0.345100	0.051000
O251	O25	0.466000	0.794910	0.345600
O261	O26	0.293600	0.799100	0.378700
O271	O27	0.246300	0.200270	0.995700
O281	O28	0.090300	0.203970	0.048000
O291	O29	0.649300	0.796830	0.415500
O301	O30	0.628200	0.795160	0.505300
C1331	C133	0.370900	0.810800	0.348200
C1341	C134	0.087300	0.935100	0.176900
H971	H97	0.049100	0.936400	0.141900
H981	H98	0.109100	0.905600	0.184600
H991	H99	0.036300	0.945300	0.205200
C1351	C135	0.483800	0.045000	0.163900
H1001	H100	0.540500	0.034200	0.189200
H1011	H101	0.514700	0.044700	0.127200
H1021	H102	0.463300	0.074300	0.173900
C1361	C136	0.182100	0.187000	0.032900
C1371	C137	0.666200	0.810900	0.462300
C1381	C138	0.942100	0.962240	0.489500
C1391	C139	0.042400	0.971070	0.462400
C1401	C140	0.900200	0.991120	0.526900
H1031	H103	0.831900	0.985100	0.545400
C1411	C141	0.098700	0.940500	0.421200
H1041	H104	0.062200	0.943600	0.385900
H1051	H105	0.178900	0.947500	0.418000
H1061	H106	0.090500	0.911000	0.433700
C1421	C142	0.346200	0.846650	0.308100
C1431	C143	0.251500	0.872270	0.314500
H1071	H107	0.200700	0.867100	0.343500
C1441	C144	0.231400	0.905430	0.278600
H1081	H108	0.166600	0.922900	0.282900
C1451	C145	0.305900	0.913190	0.236000
C1461	C146	0.400300	0.887450	0.229600
H1091	H109	0.450900	0.892500	0.200600
C1471	C147	0.420400	0.854440	0.265600
H1101	H110	0.485100	0.837000	0.261200
C1481	C148	0.292400	0.952190	0.200200
C1491	C149	0.191200	0.962880	0.175500
C1501	C150	0.184300	0.000680	0.146100
H1111	H111	0.115300	0.008200	0.129100
C1511	C151	0.277300	0.027730	0.141400
C1521	C152	0.378700	0.016530	0.166200
C1531	C153	0.385700	0.978770	0.195600
H1121	H112	0.454600	0.971100	0.212600
C1541	C154	0.258800	0.069660	0.113600
C1551	C155	0.164300	0.093440	0.127800
H1131	H113	0.115200	0.083400	0.155300
C1561	C156	0.141400	0.131790	0.102000
H1141	H114	0.076800	0.147900	0.111800
C1571	C157	0.213300	0.146640	0.061600
C1581	C158	0.307900	0.122900	0.047300
H1151	H115	0.356900	0.133000	0.019800
C1591	C159	0.330500	0.084480	0.073300
H1161	H116	0.395000	0.068300	0.063400
C1601	C160	0.744100	0.848770	0.469000
C1611	C161	0.773100	0.872900	0.424100
H1171	H117	0.748100	0.864400	0.389300
C1621	C162	0.838500	0.909400	0.429700
H1181	H118	0.858200	0.925700	0.398800
C1631	C163	0.875100	0.922120	0.480700
C1641	C164	0.846600	0.897700	0.525700
H1191	H119	0.872400	0.905900	0.560400
C1651	C165	0.780900	0.861400	0.520100
H1201	H120	0.761000	0.845100	0.551000
O311	O31	0.034000	0.205090	0.845600
O321	O32	0.206400	0.200900	0.878700
O331	O33	0.253700	0.799730	0.495700
O341	O34	0.409700	0.796030	0.548000
O351	O35	0.850700	0.203170	0.915500
O361	O36	0.871800	0.204840	0.005300
C1661	C166	0.129100	0.189200	0.848200
C1671	C167	0.412700	0.064900	0.676900
H1211	H121	0.450900	0.063600	0.641900
H1221	H122	0.390900	0.094400	0.684600
H1231	H123	0.463700	0.054700	0.705200
C1681	C168	0.016200	0.955000	0.663900
H1241	H124	0.959500	0.965800	0.689200
H1251	H125	0.985300	0.955300	0.627200
H1261	H126	0.036700	0.925700	0.673900
C1691	C169	0.317900	0.813000	0.532900
C1701	C170	0.833800	0.189100	0.962300
C1711	C171	0.557900	0.037760	0.989500
C1721	C172	0.457600	0.028930	0.962400
C1731	C173	0.599800	0.008880	0.026900
H1271	H127	0.668100	0.014900	0.045400
C1741	C174	0.401300	0.059500	0.921200
H1281	H128	0.437800	0.056400	0.885900
H1291	H129	0.321100	0.052500	0.918000
H1301	H130	0.409500	0.089000	0.933700
C1751	C175	0.153800	0.153350	0.808100
C1761	C176	0.248500	0.127730	0.814500
H1311	H131	0.299300	0.132900	0.843500
C1771	C177	0.268600	0.094570	0.778600
H1321	H132	0.333400	0.077100	0.782900
C1781	C178	0.194100	0.086810	0.736000
C1791	C179	0.099700	0.112550	0.729600
H1331	H133	0.049100	0.107500	0.700600
C1801	C180	0.079600	0.145560	0.765600
H1341	H134	0.014900	0.163000	0.761200
C1811	C181	0.207600	0.047810	0.700200
C1821	C182	0.308800	0.037120	0.675500
C1831	C183	0.315700	0.999320	0.646100
H1351	H135	0.384700	0.991800	0.629100
C1841	C184	0.222700	0.972270	0.641400
C1851	C185	0.121300	0.983470	0.666200
C1861	C186	0.114300	0.021230	0.695600
H1361	H136	0.045400	0.028900	0.712600
C1871	C187	0.241200	0.930340	0.613600
C1881	C188	0.335700	0.906560	0.627800
H1371	H137	0.384800	0.916600	0.655300
C1891	C189	0.358600	0.868210	0.602000
H1381	H138	0.423200	0.852100	0.611800
C1901	C190	0.286700	0.853360	0.561600
C1911	C191	0.192100	0.877100	0.547300
H1391	H139	0.143100	0.867000	0.519800
C1921	C192	0.169500	0.915520	0.573300
H1401	H140	0.105000	0.931700	0.563400
C1931	C193	0.755900	0.151230	0.969000
C1941	C194	0.726900	0.127100	0.924100
H1411	H141	0.751900	0.135600	0.889300
C1951	C195	0.661500	0.090600	0.929700
H1421	H142	0.641800	0.074300	0.898800
C1961	C196	0.624900	0.077880	0.980700
C1971	C197	0.653400	0.102300	0.025700
H1431	H143	0.627600	0.094100	0.060400
C1981	C198	0.719100	0.138600	0.020100
H1441	H144	0.739000	0.154900	0.051000
O371	O37	0.534000	0.294910	0.654400
O381	O38	0.706400	0.299100	0.621300
O391	O39	0.753700	0.700270	0.004300
O401	O40	0.909700	0.703970	0.952000
O411	O41	0.350700	0.296830	0.584500
O421	O42	0.371800	0.295160	0.494700
C1991	C199	0.629100	0.310800	0.651800
C2001	C200	0.912700	0.435100	0.823100
H1451	H145	0.950900	0.436400	0.858100
H1461	H146	0.890900	0.405600	0.815400
H1471	H147	0.963700	0.445300	0.794800
C2011	C201	0.516200	0.545000	0.836100
H1481	H148	0.459500	0.534200	0.810800
H1491	H149	0.485300	0.544700	0.872800
H1501	H150	0.536700	0.574300	0.826100
C2021	C202	0.817900	0.687000	0.967100
C2031	C203	0.333800	0.310900	0.537700
C2041	C204	0.057900	0.462240	0.510500
C2051	C205	0.957600	0.471070	0.537600
C2061	C206	0.099800	0.491120	0.473100
H1511	H151	0.168100	0.485100	0.454600
C2071	C207	0.901300	0.440500	0.578800
H1521	H152	0.937800	0.443600	0.614100
H1531	H153	0.821100	0.447500	0.582000
H1541	H154	0.909500	0.411000	0.566300
C2081	C208	0.653800	0.346650	0.691900
C2091	C209	0.748500	0.372270	0.685500
H1551	H155	0.799300	0.367100	0.656500
C2101	C210	0.768600	0.405430	0.721400
H1561	H156	0.833400	0.422900	0.717100
C2111	C211	0.694100	0.413190	0.764000
C2121	C212	0.599700	0.387450	0.770400
H1571	H157	0.549100	0.392500	0.799400
C2131	C213	0.579600	0.354440	0.734400
H1581	H158	0.514900	0.337000	0.738800
C2141	C214	0.707600	0.452190	0.799800
C2151	C215	0.808800	0.462880	0.824500
C2161	C216	0.815700	0.500680	0.853900
H1591	H159	0.884700	0.508200	0.870900
C2171	C217	0.722700	0.527730	0.858600
C2181	C218	0.621300	0.516530	0.833800
C2191	C219	0.614300	0.478770	0.804400
H1601	H160	0.545400	0.471100	0.787400
C2201	C220	0.741200	0.569660	0.886400
C2211	C221	0.835700	0.593440	0.872200
H1611	H161	0.884800	0.583400	0.844700
C2221	C222	0.858600	0.631790	0.898000
H1621	H162	0.923200	0.647900	0.888200
C2231	C223	0.786700	0.646640	0.938400
C2241	C224	0.692100	0.622900	0.952700
H1631	H163	0.643100	0.633000	0.980200
C2251	C225	0.669500	0.584480	0.926700
H1641	H164	0.605000	0.568300	0.936600
C2261	C226	0.255900	0.348770	0.531000
C2271	C227	0.226900	0.372900	0.575900
H1651	H165	0.251900	0.364400	0.610700
C2281	C228	0.161500	0.409400	0.570300
H1661	H166	0.141800	0.425700	0.601200
C2291	C229	0.124900	0.422120	0.519300
C2301	C230	0.153400	0.397700	0.474300
H1671	H167	0.127600	0.405900	0.439600
C2311	C231	0.219100	0.361400	0.479900
H1681	H168	0.239000	0.345100	0.449000
O431	O43	0.966000	0.705090	0.154400
O441	O44	0.793600	0.700900	0.121300
O451	O45	0.746300	0.299730	0.504300
O461	O46	0.590300	0.296030	0.452000
O471	O47	0.149300	0.703170	0.084500
O481	O48	0.128200	0.704840	0.994700
C2321	C232	0.870900	0.689200	0.151800
C2331	C233	0.587300	0.564900	0.323100
H1691	H169	0.549100	0.563600	0.358100
H1701	H170	0.609100	0.594400	0.315400
H1711	H171	0.536300	0.554700	0.294800
C2341	C234	0.983800	0.455000	0.336100
H1721	H172	0.040500	0.465800	0.310800
H1731	H173	0.014700	0.455300	0.372800
H1741	H174	0.963300	0.425700	0.326100
C2351	C235	0.682100	0.313000	0.467100
C2361	C236	0.166200	0.689100	0.037700
C2371	C237	0.442100	0.537760	0.010500
C2381	C238	0.542400	0.528930	0.037600
C2391	C239	0.400200	0.508880	0.973100
H1751	H175	0.331900	0.514900	0.954600
C2401	C240	0.598700	0.559500	0.078800
H1761	H176	0.562200	0.556400	0.114100
H1771	H177	0.678900	0.552500	0.082000
H1781	H178	0.590500	0.589000	0.066300
C2411	C241	0.846200	0.653350	0.191900
C2421	C242	0.751500	0.627730	0.185500
H1791	H179	0.700700	0.632900	0.156500
C2431	C243	0.731400	0.594570	0.221400
H1801	H180	0.666600	0.577100	0.217100
C2441	C244	0.805900	0.586810	0.264000
C2451	C245	0.900300	0.612550	0.270400
H1811	H181	0.950900	0.607500	0.299400
C2461	C246	0.920400	0.645560	0.234400
H1821	H182	0.985100	0.663000	0.238800
C2471	C247	0.792400	0.547810	0.299800
C2481	C248	0.691200	0.537120	0.324500
C2491	C249	0.684300	0.499320	0.353900
H1831	H183	0.615300	0.491800	0.370900
C2501	C250	0.777300	0.472270	0.358600
C2511	C251	0.878700	0.483470	0.333800
C2521	C252	0.885700	0.521230	0.304400
H1841	H184	0.954600	0.528900	0.287400
C2531	C253	0.758800	0.430340	0.386400
C2541	C254	0.664300	0.406560	0.372200
H1851	H185	0.615200	0.416600	0.344700
C2551	C255	0.641400	0.368210	0.398000
H1861	H186	0.576800	0.352100	0.388200
C2561	C256	0.713300	0.353360	0.438400
C2571	C257	0.807900	0.377100	0.452700
H1871	H187	0.856900	0.367000	0.480200
C2581	C258	0.830500	0.415520	0.426700
H1881	H188	0.895000	0.431700	0.436600
C2591	C259	0.244100	0.651230	0.031000
C2601	C260	0.273100	0.627100	0.075900
H1891	H189	0.248100	0.635600	0.110700
C2611	C261	0.338500	0.590600	0.070300
H1901	H190	0.358200	0.574300	0.101200
C2621	C262	0.375100	0.577880	0.019300
C2631	C263	0.346600	0.602300	0.974300
H1911	H191	0.372400	0.594100	0.939600
C2641	C264	0.280900	0.638600	0.979900
H1921	H192	0.261000	0.654900	0.949000
Fe11	Fe1	0.454530	0.250000	0.611150
Fe21	Fe2	0.714910	0.250000	0.561660
Fe31	Fe3	0.491820	0.250000	0.481040
O491	O49	0.549100	0.250000	0.551700
Fe41	Fe4	0.045470	0.750000	0.111150
Fe51	Fe5	0.785090	0.750000	0.061660
Fe61	Fe6	0.008180	0.750000	0.981040
O501	O50	0.950900	0.750000	0.051700
Fe71	Fe7	0.545470	0.750000	0.388850
Fe81	Fe8	0.285090	0.750000	0.438340
Fe91	Fe9	0.508180	0.750000	0.518960
O511	O51	0.450900	0.750000	0.448300
Fe101	Fe10	0.954530	0.250000	0.888850
Fe111	Fe11	0.214910	0.250000	0.938340
Fe121	Fe12	0.991820	0.250000	0.018960
O521	O52	0.049100	0.250000	0.948300
