data_TOXMUQ_clean_PM
_symmetry_space_group_name_H-M	'P1'
_cell_length_a	14.822800
_cell_length_b	14.822800
_cell_length_c	11.791900
_cell_angle_alpha	90.000000
_cell_angle_beta	90.000000
_cell_angle_gamma	90.000000
_symmetry_Int_Tables_number 1

loop_
_symmetry_equiv_pos_as_xyz
'x,y,z'

loop_
_atom_site_label
_atom_site_type_symbol
_atom_site_fract_x
_atom_site_fract_y
_atom_site_fract_z
O11	O1	0.603870	0.286450	0.753900
O21	O2	0.624880	0.379190	0.606040
C11	C1	0.589920	0.356030	0.698740
C21	C2	0.538810	0.428760	0.762060
C31	C3	0.537670	0.429050	0.881250
H11	H1	0.573180	0.381620	0.907350
O31	O3	0.103870	0.786450	0.253900
O41	O4	0.124880	0.879190	0.106040
C41	C4	0.089920	0.856030	0.198740
C51	C5	0.038810	0.928760	0.262060
C61	C6	0.037670	0.929050	0.381250
H21	H2	0.073180	0.881620	0.407350
O51	O5	0.896130	0.213550	0.253900
O61	O6	0.875120	0.120810	0.106040
C71	C7	0.910080	0.143970	0.198740
C81	C8	0.961190	0.071240	0.262060
C91	C9	0.962330	0.070950	0.381250
H31	H3	0.926820	0.118380	0.407350
O71	O7	0.396130	0.713550	0.753900
O81	O8	0.375120	0.620810	0.606040
C101	C10	0.410080	0.643970	0.698740
C111	C11	0.461190	0.571240	0.762060
C121	C12	0.462330	0.570950	0.881250
H41	H4	0.426820	0.618380	0.907350
O91	O9	0.713550	0.103870	0.003900
O101	O10	0.620810	0.124880	0.856040
C131	C13	0.643970	0.089920	0.948740
C141	C14	0.571240	0.038810	0.012060
C151	C15	0.570950	0.037670	0.131250
H51	H5	0.618380	0.073180	0.157350
O111	O11	0.213550	0.603870	0.503900
O121	O12	0.120810	0.624880	0.356040
C161	C16	0.143970	0.589920	0.448740
C171	C17	0.071240	0.538810	0.512060
C181	C18	0.070950	0.537670	0.631250
H61	H6	0.118380	0.573180	0.657350
O131	O13	0.786450	0.396130	0.503900
O141	O14	0.879190	0.375120	0.356040
C191	C19	0.856030	0.410080	0.448740
C201	C20	0.928760	0.461190	0.512060
C211	C21	0.929050	0.462330	0.631250
H71	H7	0.881620	0.426820	0.657350
O151	O15	0.286450	0.896130	0.003900
O161	O16	0.379190	0.875120	0.856040
C221	C22	0.356030	0.910080	0.948740
C231	C23	0.428760	0.961190	0.012060
C241	C24	0.429050	0.962330	0.131250
H81	H8	0.381620	0.926820	0.157350
O171	O17	0.896130	0.286450	0.996100
O181	O18	0.875120	0.379190	0.143960
C251	C25	0.910080	0.356030	0.051260
C261	C26	0.961190	0.428760	0.987940
C271	C27	0.962330	0.429050	0.868750
H91	H9	0.926820	0.381620	0.842650
O191	O19	0.396130	0.786450	0.496100
O201	O20	0.375120	0.879190	0.643960
C281	C28	0.410080	0.856030	0.551260
C291	C29	0.461190	0.928760	0.487940
C301	C30	0.462330	0.929050	0.368750
H101	H10	0.426820	0.881620	0.342650
O211	O21	0.603870	0.213550	0.496100
O221	O22	0.624880	0.120810	0.643960
C311	C31	0.589920	0.143970	0.551260
C321	C32	0.538810	0.071240	0.487940
C331	C33	0.537670	0.070950	0.368750
H111	H11	0.573180	0.118380	0.342650
O231	O23	0.103870	0.713550	0.996100
O241	O24	0.124880	0.620810	0.143960
C341	C34	0.089920	0.643970	0.051260
C351	C35	0.038810	0.571240	0.987940
C361	C36	0.037670	0.570950	0.868750
H121	H12	0.073180	0.618380	0.842650
O251	O25	0.786450	0.103870	0.746100
O261	O26	0.879190	0.124880	0.893960
C371	C37	0.856030	0.089920	0.801260
C381	C38	0.928760	0.038810	0.737940
C391	C39	0.929050	0.037670	0.618750
H131	H13	0.881620	0.073180	0.592650
O271	O27	0.286450	0.603870	0.246100
O281	O28	0.379190	0.624880	0.393960
C401	C40	0.356030	0.589920	0.301260
C411	C41	0.428760	0.538810	0.237940
C421	C42	0.429050	0.537670	0.118750
H141	H14	0.381620	0.573180	0.092650
O291	O29	0.713550	0.396130	0.246100
O301	O30	0.620810	0.375120	0.393960
C431	C43	0.643970	0.410080	0.301260
C441	C44	0.571240	0.461190	0.237940
C451	C45	0.570950	0.462330	0.118750
H151	H15	0.618380	0.426820	0.092650
O311	O31	0.213550	0.896130	0.746100
O321	O32	0.120810	0.875120	0.893960
C461	C46	0.143970	0.910080	0.801260
C471	C47	0.071240	0.961190	0.737940
C481	C48	0.070950	0.962330	0.618750
H161	H16	0.118380	0.926820	0.592650
Al11	Al1	0.694150	0.305850	0.500000
Al21	Al2	0.194150	0.805850	0.000000
Al31	Al3	0.805850	0.194150	0.000000
Al41	Al4	0.305850	0.694150	0.500000
Al51	Al5	0.694150	0.194150	0.750000
Al61	Al6	0.194150	0.694150	0.250000
Al71	Al7	0.805850	0.305850	0.250000
Al81	Al8	0.305850	0.805850	0.750000
O331	O33	0.755520	0.250000	0.625000
H171	H17	0.814860	0.250000	0.625000
O341	O34	0.255520	0.750000	0.125000
H181	H18	0.314860	0.750000	0.125000
O351	O35	0.744480	0.250000	0.125000
H191	H19	0.685140	0.250000	0.125000
O361	O36	0.244480	0.750000	0.625000
H201	H20	0.185140	0.750000	0.625000
O371	O37	0.750000	0.255520	0.875000
H211	H21	0.750000	0.314860	0.875000
O381	O38	0.250000	0.755520	0.375000
H221	H22	0.250000	0.814860	0.375000
O391	O39	0.750000	0.244480	0.375000
H231	H23	0.750000	0.185140	0.375000
O401	O40	0.250000	0.744480	0.875000
H241	H24	0.250000	0.685140	0.875000
C491	C49	0.500000	0.500000	0.705620
C501	C50	0.500000	0.500000	0.937190
H251	H25	0.500000	0.500000	0.629000
C511	C51	0.000000	0.000000	0.205620
C521	C52	0.000000	0.000000	0.437190
H261	H26	0.000000	0.000000	0.129000
C531	C53	0.500000	0.000000	0.955620
C541	C54	0.500000	0.000000	0.187190
H271	H27	0.500000	0.000000	0.879000
C551	C55	0.000000	0.500000	0.455620
C561	C56	0.000000	0.500000	0.687190
H281	H28	0.000000	0.500000	0.379000
C571	C57	0.000000	0.500000	0.044380
C581	C58	0.000000	0.500000	0.812810
H291	H29	0.000000	0.500000	0.121000
C591	C59	0.500000	0.000000	0.544380
C601	C60	0.500000	0.000000	0.312810
H301	H30	0.500000	0.000000	0.621000
C611	C61	0.000000	0.000000	0.794380
C621	C62	0.000000	0.000000	0.562810
H311	H31	0.000000	0.000000	0.871000
C631	C63	0.500000	0.500000	0.294380
C641	C64	0.500000	0.500000	0.062810
H321	H32	0.500000	0.500000	0.371000
