data_TOXNEB_clean_PM
_symmetry_space_group_name_H-M	'P1'
_cell_length_a	14.785400
_cell_length_b	14.785400
_cell_length_c	11.774000
_cell_angle_alpha	90.000000
_cell_angle_beta	90.000000
_cell_angle_gamma	90.000000
_symmetry_Int_Tables_number 1

loop_
_symmetry_equiv_pos_as_xyz
'x,y,z'

loop_
_atom_site_label
_atom_site_type_symbol
_atom_site_fract_x
_atom_site_fract_y
_atom_site_fract_z
O11	O1	0.625000	0.380160	0.599970
O21	O2	0.607740	0.286480	0.740830
C11	C1	0.594250	0.362750	0.697000
C21	C2	0.543120	0.430760	0.758450
C31	C3	0.543120	0.430760	0.876720
H11	H1	0.575630	0.378560	0.921310
O31	O3	0.125000	0.880160	0.099970
O41	O4	0.107740	0.786480	0.240830
C41	C4	0.094250	0.862750	0.197000
C51	C5	0.043120	0.930760	0.258450
C61	C6	0.043120	0.930760	0.376720
H21	H2	0.075630	0.878560	0.421310
O51	O5	0.875000	0.119840	0.099970
O61	O6	0.892260	0.213520	0.240830
C71	C7	0.905750	0.137250	0.197000
C81	C8	0.956880	0.069240	0.258450
C91	C9	0.956880	0.069240	0.376720
H31	H3	0.924370	0.121440	0.421310
O71	O7	0.375000	0.619840	0.599970
O81	O8	0.392260	0.713520	0.740830
C101	C10	0.405750	0.637250	0.697000
C111	C11	0.456880	0.569240	0.758450
C121	C12	0.456880	0.569240	0.876720
H41	H4	0.424370	0.621440	0.921310
O91	O9	0.619840	0.125000	0.849970
O101	O10	0.713520	0.107740	0.990830
C131	C13	0.637250	0.094250	0.947000
C141	C14	0.569240	0.043120	0.008450
C151	C15	0.569240	0.043120	0.126720
H51	H5	0.621440	0.075630	0.171310
O111	O11	0.119840	0.625000	0.349970
O121	O12	0.213520	0.607740	0.490830
C161	C16	0.137250	0.594250	0.447000
C171	C17	0.069240	0.543120	0.508450
C181	C18	0.069240	0.543120	0.626720
H61	H6	0.121440	0.575630	0.671310
O131	O13	0.880160	0.375000	0.349970
O141	O14	0.786480	0.392260	0.490830
C191	C19	0.862750	0.405750	0.447000
C201	C20	0.930760	0.456880	0.508450
C211	C21	0.930760	0.456880	0.626720
H71	H7	0.878560	0.424370	0.671310
O151	O15	0.380160	0.875000	0.849970
O161	O16	0.286480	0.892260	0.990830
C221	C22	0.362750	0.905750	0.947000
C231	C23	0.430760	0.956880	0.008450
C241	C24	0.430760	0.956880	0.126720
H81	H8	0.378560	0.924370	0.171310
O171	O17	0.875000	0.380160	0.150030
O181	O18	0.892260	0.286480	0.009170
C251	C25	0.905750	0.362750	0.053000
C261	C26	0.956880	0.430760	0.991550
C271	C27	0.956880	0.430760	0.873280
H91	H9	0.924370	0.378560	0.828690
O191	O19	0.375000	0.880160	0.650030
O201	O20	0.392260	0.786480	0.509170
C281	C28	0.405750	0.862750	0.553000
C291	C29	0.456880	0.930760	0.491550
C301	C30	0.456880	0.930760	0.373280
H101	H10	0.424370	0.878560	0.328690
O211	O21	0.625000	0.119840	0.650030
O221	O22	0.607740	0.213520	0.509170
C311	C31	0.594250	0.137250	0.553000
C321	C32	0.543120	0.069240	0.491550
C331	C33	0.543120	0.069240	0.373280
H111	H11	0.575630	0.121440	0.328690
O231	O23	0.125000	0.619840	0.150030
O241	O24	0.107740	0.713520	0.009170
C341	C34	0.094250	0.637250	0.053000
C351	C35	0.043120	0.569240	0.991550
C361	C36	0.043120	0.569240	0.873280
H121	H12	0.075630	0.621440	0.828690
O251	O25	0.880160	0.125000	0.900030
O261	O26	0.786480	0.107740	0.759170
C371	C37	0.862750	0.094250	0.803000
C381	C38	0.930760	0.043120	0.741550
C391	C39	0.930760	0.043120	0.623280
H131	H13	0.878560	0.075630	0.578690
O271	O27	0.380160	0.625000	0.400030
O281	O28	0.286480	0.607740	0.259170
C401	C40	0.362750	0.594250	0.303000
C411	C41	0.430760	0.543120	0.241550
C421	C42	0.430760	0.543120	0.123280
H141	H14	0.378560	0.575630	0.078690
O291	O29	0.619840	0.375000	0.400030
O301	O30	0.713520	0.392260	0.259170
C431	C43	0.637250	0.405750	0.303000
C441	C44	0.569240	0.456880	0.241550
C451	C45	0.569240	0.456880	0.123280
H151	H15	0.621440	0.424370	0.078690
O311	O31	0.119840	0.875000	0.900030
O321	O32	0.213520	0.892260	0.759170
C461	C46	0.137250	0.905750	0.803000
C471	C47	0.069240	0.956880	0.741550
C481	C48	0.069240	0.956880	0.623280
H161	H16	0.121440	0.924370	0.578690
Al11	Al1	0.692430	0.307570	0.500000
Al21	Al2	0.192430	0.807570	0.000000
Al31	Al3	0.807570	0.192430	0.000000
Al41	Al4	0.307570	0.692430	0.500000
Al51	Al5	0.692430	0.192430	0.750000
Al61	Al6	0.192430	0.692430	0.250000
Al71	Al7	0.807570	0.307570	0.250000
Al81	Al8	0.307570	0.807570	0.750000
O331	O33	0.752500	0.250000	0.625000
H171	H17	0.814940	0.250000	0.625000
O341	O34	0.252500	0.750000	0.125000
H181	H18	0.314940	0.750000	0.125000
O351	O35	0.747500	0.250000	0.125000
H191	H19	0.685060	0.250000	0.125000
O361	O36	0.247500	0.750000	0.625000
H201	H20	0.185060	0.750000	0.625000
O371	O37	0.750000	0.252500	0.875000
H211	H21	0.750000	0.314940	0.875000
O381	O38	0.250000	0.752500	0.375000
H221	H22	0.250000	0.814940	0.375000
O391	O39	0.750000	0.247500	0.375000
H231	H23	0.750000	0.185060	0.375000
O401	O40	0.250000	0.747500	0.875000
H241	H24	0.250000	0.685060	0.875000
C491	C49	0.500000	0.500000	0.699310
C501	C50	0.500000	0.500000	0.935860
H251	H25	0.500000	0.500000	0.610130
C511	C51	0.000000	0.000000	0.199310
C521	C52	0.000000	0.000000	0.435860
H261	H26	0.000000	0.000000	0.110130
C531	C53	0.500000	0.000000	0.949310
C541	C54	0.500000	0.000000	0.185860
H271	H27	0.500000	0.000000	0.860130
C551	C55	0.000000	0.500000	0.449310
C561	C56	0.000000	0.500000	0.685860
H281	H28	0.000000	0.500000	0.360130
C571	C57	0.000000	0.500000	0.050690
C581	C58	0.000000	0.500000	0.814140
H291	H29	0.000000	0.500000	0.139870
C591	C59	0.500000	0.000000	0.550690
C601	C60	0.500000	0.000000	0.314140
H301	H30	0.500000	0.000000	0.639870
C611	C61	0.000000	0.000000	0.800690
C621	C62	0.000000	0.000000	0.564140
H311	H31	0.000000	0.000000	0.889870
C631	C63	0.500000	0.500000	0.300690
C641	C64	0.500000	0.500000	0.064140
H321	H32	0.500000	0.500000	0.389870
