data_TUGSOE_charged_PM
_symmetry_space_group_name_H-M	'P1'
_cell_length_a	13.620500
_cell_length_b	15.415100
_cell_length_c	15.979400
_cell_angle_alpha	88.440000
_cell_angle_beta	65.051000
_cell_angle_gamma	75.632000
_symmetry_Int_Tables_number 1

loop_
_symmetry_equiv_pos_as_xyz
'x,y,z'

loop_
_atom_site_label
_atom_site_type_symbol
_atom_site_fract_x
_atom_site_fract_y
_atom_site_fract_z
Cd11	Cd1	0.988680	0.181290	0.190500
Cd21	Cd2	0.011320	0.818710	0.809500
Cd31	Cd3	0.000000	0.000000	0.000000
H11	H1	0.170000	0.106800	0.822700
H21	H2	0.155400	0.277200	0.010500
H31	H3	0.297300	0.173200	0.704600
H41	H4	0.178300	0.242300	0.725600
H51	H5	0.322100	0.278600	0.588500
H61	H6	0.473500	0.224800	0.628600
H71	H7	0.468400	0.325900	0.600600
H81	H8	0.495300	0.310300	0.738000
H91	H9	0.352000	0.275600	0.875100
H101	H10	0.403500	0.193500	0.796400
H111	H11	0.097400	0.370700	0.847500
H121	H12	0.162600	0.384400	0.907500
H131	H13	0.167500	0.402600	0.682600
H141	H14	0.279800	0.436000	0.632500
H151	H15	0.388400	0.454600	0.725400
H161	H16	0.341300	0.433800	0.832200
H171	H17	0.156100	0.529600	0.935600
H181	H18	0.139000	0.578700	0.698000
H191	H19	0.048700	0.725300	0.603300
H201	H20	0.238600	0.886100	0.470400
H211	H21	0.320600	0.751000	0.341900
H221	H22	0.295500	0.659500	0.385500
H231	H23	0.353800	0.641900	0.222300
H241	H24	0.291600	0.796600	0.200500
H251	H25	0.243900	0.736000	0.154400
H261	H26	0.163600	0.884000	0.357500
H271	H27	0.035800	0.878200	0.409500
H281	H28	0.093400	0.649100	0.467300
H291	H29	0.993200	0.735000	0.476800
H301	H30	0.024700	0.628700	0.356000
H311	H31	0.201000	0.594400	0.222400
H321	H32	0.220000	0.563700	0.312300
H331	H33	0.962400	0.785200	0.335900
H341	H34	0.042300	0.730200	0.236600
H351	H35	0.081000	0.829600	0.119000
H361	H36	0.074400	0.002200	0.301800
H371	H37	0.267300	0.890100	0.957300
H381	H38	0.287500	0.724500	0.761000
H391	H39	0.402700	0.611200	0.813100
H401	H40	0.480100	0.660300	0.731100
H411	H41	0.595200	0.528900	0.758500
H421	H42	0.601300	0.517800	0.905500
H431	H43	0.475900	0.525200	0.918500
H441	H44	0.472300	0.626400	0.030500
H451	H45	0.358700	0.758600	0.003200
H461	H46	0.327800	0.671400	0.979000
H471	H47	0.529300	0.797400	0.767800
H481	H48	0.481200	0.836800	0.873700
H491	H49	0.725300	0.596000	0.776500
H501	H50	0.677200	0.651300	0.709200
H511	H51	0.649400	0.657200	0.944500
H521	H52	0.553300	0.750100	0.981700
H531	H53	0.830000	0.893200	0.177300
H541	H54	0.844600	0.722800	0.989500
H551	H55	0.702700	0.826800	0.295400
H561	H56	0.821700	0.757700	0.274400
H571	H57	0.677900	0.721400	0.411500
H581	H58	0.526500	0.775200	0.371400
H591	H59	0.531600	0.674100	0.399400
H601	H60	0.504700	0.689700	0.262000
H611	H61	0.648000	0.724400	0.124900
H621	H62	0.596500	0.806500	0.203600
H631	H63	0.902600	0.629300	0.152500
H641	H64	0.837400	0.615600	0.092500
H651	H65	0.832500	0.597400	0.317400
H661	H66	0.720200	0.564000	0.367500
H671	H67	0.611600	0.545400	0.274600
H681	H68	0.658700	0.566200	0.167800
H691	H69	0.843900	0.470400	0.064400
H701	H70	0.861000	0.421300	0.302000
H711	H71	0.951300	0.274700	0.396700
H721	H72	0.761400	0.113900	0.529600
H731	H73	0.679400	0.249000	0.658100
H741	H74	0.704500	0.340500	0.614500
H751	H75	0.646200	0.358100	0.777700
H761	H76	0.708400	0.203400	0.799500
H771	H77	0.756100	0.264000	0.845600
H781	H78	0.836400	0.116000	0.642500
H791	H79	0.964200	0.121800	0.590500
H801	H80	0.906600	0.350900	0.532700
H811	H81	0.006800	0.265000	0.523200
H821	H82	0.975300	0.371300	0.644000
H831	H83	0.799000	0.405600	0.777600
H841	H84	0.780000	0.436300	0.687700
H851	H85	0.037600	0.214800	0.664100
H861	H86	0.957700	0.269800	0.763400
H871	H87	0.919000	0.170400	0.881000
H881	H88	0.925600	0.997800	0.698200
H891	H89	0.732700	0.109900	0.042700
H901	H90	0.712500	0.275500	0.239000
H911	H91	0.597300	0.388800	0.186900
H921	H92	0.519900	0.339700	0.268900
H931	H93	0.404800	0.471100	0.241500
H941	H94	0.398700	0.482200	0.094500
H951	H95	0.524100	0.474800	0.081500
H961	H96	0.527700	0.373600	0.969500
H971	H97	0.641300	0.241400	0.996800
H981	H98	0.672200	0.328600	0.021000
H991	H99	0.470700	0.202600	0.232200
H1001	H100	0.518800	0.163200	0.126300
H1011	H101	0.274700	0.404000	0.223500
H1021	H102	0.322800	0.348700	0.290800
H1031	H103	0.350600	0.342800	0.055500
H1041	H104	0.446700	0.249900	0.018300
C11	C1	0.154100	0.136100	0.880300
C21	C2	0.145900	0.228500	0.982200
C31	C3	0.243100	0.266700	0.817200
C41	C4	0.253600	0.236800	0.722700
C51	C5	0.313800	0.297700	0.650900
C61	C6	0.428900	0.288100	0.647400
C71	C7	0.418800	0.316500	0.741400
C81	C8	0.359200	0.257100	0.813500
C91	C9	0.172400	0.365000	0.845300
C101	C10	0.234100	0.424600	0.772900
C111	C11	0.243200	0.396800	0.679100
C121	C12	0.349500	0.415200	0.770300
C131	C13	0.140600	0.559600	0.888100
C141	C14	0.130900	0.585700	0.759600
C151	C15	0.091300	0.768400	0.589900
C161	C16	0.193900	0.855800	0.518400
C171	C17	0.149900	0.761800	0.416100
C181	C18	0.270400	0.710800	0.354300
C191	C19	0.275400	0.676700	0.262900
C201	C20	0.240200	0.757300	0.213800
C211	C21	0.119800	0.810000	0.277200
C221	C22	0.113400	0.843900	0.369100
C231	C23	0.070800	0.701300	0.435700
C241	C24	0.076100	0.668700	0.344000
C251	C25	0.196800	0.616400	0.281700
C261	C26	0.040100	0.750700	0.295700
C271	C27	0.072600	0.883900	0.151000
C281	C28	0.068600	0.977700	0.250600
C291	C29	0.250100	0.862300	0.914700
C301	C30	0.261200	0.772400	0.807500
C311	C31	0.419200	0.728500	0.860800
C321	C32	0.461400	0.644100	0.795400
C331	C33	0.566400	0.584500	0.801600
C341	C34	0.534900	0.557800	0.900900
C351	C35	0.492300	0.643200	0.965600
C361	C36	0.387400	0.703600	0.960500
C371	C37	0.509400	0.781000	0.832200
C381	C38	0.613000	0.719300	0.839700
C391	C39	0.657200	0.634800	0.773600
C401	C40	0.582200	0.694800	0.939300
C411	C41	0.806000	0.741600	0.805800
C421	C42	0.684000	0.863400	0.806600
C431	C43	0.845900	0.863900	0.119700
C441	C44	0.854100	0.771500	0.017800
C451	C45	0.756900	0.733300	0.182800
C461	C46	0.746400	0.763200	0.277300
C471	C47	0.686200	0.702300	0.349100
C481	C48	0.571100	0.711900	0.352600
C491	C49	0.581200	0.683500	0.258600
C501	C50	0.640800	0.742900	0.186500
C511	C51	0.827600	0.635000	0.154700
C521	C52	0.765900	0.575400	0.227100
C531	C53	0.756800	0.603200	0.320900
C541	C54	0.650500	0.584800	0.229700
C551	C55	0.859400	0.440400	0.111900
C561	C56	0.869100	0.414300	0.240400
C571	C57	0.908700	0.231600	0.410100
C581	C58	0.806100	0.144200	0.481600
C591	C59	0.850100	0.238200	0.583900
C601	C60	0.729600	0.289200	0.645700
C611	C61	0.724600	0.323300	0.737100
C621	C62	0.759800	0.242700	0.786200
C631	C63	0.880200	0.190000	0.722800
C641	C64	0.886600	0.156100	0.630900
C651	C65	0.929200	0.298700	0.564300
C661	C66	0.923900	0.331300	0.656000
C671	C67	0.803200	0.383600	0.718300
C681	C68	0.959900	0.249300	0.704300
C691	C69	0.927400	0.116100	0.849000
C701	C70	0.931400	0.022300	0.749400
C711	C71	0.749900	0.137700	0.085300
C721	C72	0.738800	0.227600	0.192500
C731	C73	0.580800	0.271500	0.139200
C741	C74	0.538600	0.355900	0.204600
C751	C75	0.433600	0.415500	0.198400
C761	C76	0.465100	0.442200	0.099100
C771	C77	0.507700	0.356800	0.034400
C781	C78	0.612600	0.296400	0.039500
C791	C79	0.490600	0.219000	0.167800
C801	C80	0.387000	0.280700	0.160300
C811	C81	0.342800	0.365200	0.226400
C821	C82	0.417800	0.305200	0.060700
C831	C83	0.194000	0.258400	0.194200
C841	C84	0.316000	0.136600	0.193400
N11	N1	0.100100	0.109500	0.961200
N21	N2	0.094100	0.168900	0.027200
N31	N3	0.184100	0.210800	0.889600
N41	N4	0.167800	0.519300	0.804400
N51	N5	0.090400	0.645000	0.895700
N61	N6	0.081900	0.661800	0.813500
N71	N7	0.105900	0.811100	0.651000
N81	N8	0.171300	0.868600	0.606000
N91	N9	0.145400	0.794000	0.504800
N101	N10	0.086400	0.889500	0.229700
N111	N11	0.045800	0.964700	0.125700
N121	N12	0.042100	0.025000	0.190100
N131	N13	0.157600	0.890700	0.902500
N141	N14	0.165600	0.834000	0.833500
N151	N15	0.317300	0.786800	0.856700
N161	N16	0.700900	0.768800	0.813100
N171	N17	0.853600	0.804400	0.795600
N181	N18	0.776800	0.887500	0.795900
N191	N19	0.899900	0.890500	0.038800
N201	N20	0.905900	0.831100	0.972800
N211	N21	0.815900	0.789200	0.110400
N221	N22	0.832200	0.480700	0.195600
N231	N23	0.909600	0.355000	0.104300
N241	N24	0.918100	0.338200	0.186500
N251	N25	0.894100	0.188900	0.349000
N261	N26	0.828700	0.131400	0.394000
N271	N27	0.854600	0.206000	0.495200
N281	N28	0.913600	0.110500	0.770300
N291	N29	0.954200	0.035300	0.874300
N301	N30	0.957900	0.975000	0.809900
N311	N31	0.842400	0.109300	0.097500
N321	N32	0.834400	0.166000	0.166500
N331	N33	0.682700	0.213200	0.143300
N341	N34	0.299100	0.231200	0.186900
N351	N35	0.146400	0.195600	0.204400
N361	N36	0.223200	0.112500	0.204100
N371	N37	0.855000	0.516800	0.893800
O11	O1	0.846900	0.582500	0.940100
O21	O2	0.918000	0.498500	0.811000
O31	O3	0.794700	0.464500	0.935700
N381	N38	0.359400	0.515300	0.460400
O41	O4	0.450500	0.531600	0.428700
O51	O5	0.275800	0.567800	0.524100
O61	O6	0.348700	0.446200	0.431000
N391	N39	0.587800	0.046000	0.686300
O71	O7	0.511000	0.018600	0.748700
O81	O8	0.637200	0.089600	0.709800
O91	O9	0.597100	0.039400	0.606600
N401	N40	0.390300	0.948800	0.087800
O101	O10	0.461000	0.890200	0.103600
O111	O11	0.394600	0.027900	0.094100
O121	O12	0.318300	0.958500	0.043600
N411	N41	0.145000	0.483200	0.106200
O131	O13	0.153100	0.417500	0.059900
O141	O14	0.082000	0.501500	0.189000
O151	O15	0.205300	0.535500	0.064300
N421	N42	0.640600	0.484700	0.539600
O161	O16	0.549500	0.468400	0.571300
O171	O17	0.724200	0.432200	0.475900
O181	O18	0.651300	0.553800	0.569000
N431	N43	0.412200	0.954000	0.313700
O191	O19	0.489000	0.981400	0.251300
O201	O20	0.362800	0.910400	0.290200
O211	O21	0.402900	0.960600	0.393400
N441	N44	0.609700	0.051200	0.912200
O221	O22	0.539000	0.109800	0.896400
O231	O23	0.605400	0.972100	0.905900
O241	O24	0.681700	0.041500	0.956400
