data_TUGTAR_clean_PM
_symmetry_space_group_name_H-M	'P1'
_cell_length_a	13.843600
_cell_length_b	17.803900
_cell_length_c	17.147600
_cell_angle_alpha	90.000000
_cell_angle_beta	110.268000
_cell_angle_gamma	90.000000
_symmetry_Int_Tables_number 1

loop_
_symmetry_equiv_pos_as_xyz
'x,y,z'

loop_
_atom_site_label
_atom_site_type_symbol
_atom_site_fract_x
_atom_site_fract_y
_atom_site_fract_z
Cu11	Cu1	0.239290	0.510550	0.437820
O11	O1	0.369600	0.466700	0.501500
H11	H1	0.373600	0.469500	0.559200
N11	N1	0.163800	0.416400	0.451700
N21	N2	0.081300	0.412800	0.478400
N31	N3	0.120100	0.298600	0.456300
N41	N4	0.890000	0.052000	0.142200
N51	N5	0.979500	0.061900	0.126000
N61	N6	0.007100	0.089900	0.257000
N71	N7	0.786900	0.060300	0.953000
N81	N8	0.869100	0.051000	0.926200
N91	N9	0.739800	0.095700	0.823000
N101	N10	0.574800	0.412900	0.568000
N111	N11	0.678200	0.403800	0.584500
N121	N12	0.617000	0.298900	0.613300
C11	C1	0.186000	0.346400	0.438500
H21	H2	0.239900	0.331800	0.419400
C21	C2	0.057000	0.342600	0.479900
H31	H3	0.001700	0.324900	0.495700
C31	C3	0.909000	0.067900	0.220600
H41	H4	0.860100	0.064400	0.248000
C41	C4	0.047400	0.086800	0.195300
H51	H5	0.115800	0.100900	0.201500
C51	C5	0.118200	0.215100	0.447100
C61	C6	0.227400	0.184500	0.476700
H61	H6	0.263000	0.197800	0.535800
H71	H7	0.266300	0.206600	0.443600
C71	C7	0.222700	0.099100	0.466600
H81	H8	0.294500	0.078800	0.485700
C81	C8	0.168700	0.078400	0.375000
H91	H9	0.207200	0.099600	0.341000
H101	H10	0.166200	0.023200	0.368400
C91	C9	0.059700	0.110300	0.346100
C101	C10	0.063600	0.195500	0.354600
H111	H11	0.992900	0.216400	0.334700
H121	H12	0.101900	0.217300	0.320800
C111	C11	0.059900	0.182200	0.499500
H131	H13	0.989000	0.202600	0.481300
H141	H14	0.094900	0.195300	0.558700
C121	C12	0.057100	0.095900	0.488000
H151	H15	0.018400	0.073200	0.521700
C131	C13	0.001600	0.077000	0.397200
H161	H16	0.997000	0.021900	0.389700
H171	H17	0.930800	0.097600	0.378800
C141	C14	0.165700	0.064400	0.518100
H181	H18	0.200800	0.076700	0.577500
H191	H19	0.163800	0.009100	0.511800
C151	C15	0.711300	0.087200	0.889400
H201	H20	0.644900	0.099200	0.890500
C161	C16	0.839100	0.073300	0.847800
H211	H21	0.881000	0.073500	0.814200
C171	C17	0.539600	0.348900	0.587000
H221	H22	0.470400	0.339600	0.582700
C181	C18	0.700500	0.334600	0.612100
H231	H23	0.767400	0.313100	0.628900
C191	C19	0.670100	0.115900	0.736800
C201	C20	0.701500	0.069700	0.675400
H241	H24	0.697300	0.015600	0.687000
H251	H25	0.773500	0.081500	0.681100
C211	C21	0.630200	0.087600	0.587500
H261	H26	0.651400	0.056800	0.547400
C221	C22	0.640700	0.171300	0.569600
H271	H27	0.712800	0.182800	0.575400
H281	H28	0.595900	0.183600	0.512200
C231	C23	0.609000	0.217200	0.631600
C241	C24	0.680300	0.200000	0.720600
H291	H29	0.660400	0.230600	0.760800
H301	H30	0.752500	0.212100	0.727100
C251	C25	0.559300	0.097800	0.727100
H311	H31	0.553300	0.043800	0.738800
H321	H32	0.538600	0.127500	0.767600
C261	C26	0.489600	0.115800	0.640400
H331	H33	0.416900	0.103600	0.634800
C271	C27	0.497600	0.199900	0.622900
H341	H34	0.451000	0.212300	0.566000
H351	H35	0.477100	0.230500	0.662800
C281	C28	0.520400	0.069300	0.576700
H361	H36	0.513400	0.015000	0.585900
H371	H37	0.475000	0.081900	0.519500
Cu21	Cu2	0.760710	0.010550	0.062180
O21	O2	0.630400	0.966700	0.998500
H381	H38	0.626400	0.969500	0.940800
N131	N13	0.836200	0.916400	0.048300
N141	N14	0.918700	0.912800	0.021600
N151	N15	0.879900	0.798600	0.043700
N161	N16	0.110000	0.552000	0.357800
N171	N17	0.020500	0.561900	0.374000
N181	N18	0.992900	0.589900	0.243000
N191	N19	0.213100	0.560300	0.547000
N201	N20	0.130900	0.551000	0.573800
N211	N21	0.260200	0.595700	0.677000
N221	N22	0.425200	0.912900	0.932000
N231	N23	0.321800	0.903800	0.915500
N241	N24	0.383000	0.798900	0.886700
C291	C29	0.814000	0.846400	0.061500
H391	H39	0.760100	0.831800	0.080600
C301	C30	0.943000	0.842600	0.020100
H401	H40	0.998300	0.824900	0.004300
C311	C31	0.091000	0.567900	0.279400
H411	H41	0.139900	0.564400	0.252000
C321	C32	0.952600	0.586800	0.304700
H421	H42	0.884200	0.600900	0.298500
C331	C33	0.881800	0.715100	0.052900
C341	C34	0.772600	0.684500	0.023300
H431	H43	0.737000	0.697800	0.964200
H441	H44	0.733700	0.706600	0.056400
C351	C35	0.777300	0.599100	0.033400
H451	H45	0.705500	0.578800	0.014300
C361	C36	0.831300	0.578400	0.125000
H461	H46	0.792800	0.599600	0.159000
H471	H47	0.833800	0.523200	0.131600
C371	C37	0.940300	0.610300	0.153900
C381	C38	0.936400	0.695500	0.145400
H481	H48	0.007100	0.716400	0.165300
H491	H49	0.898100	0.717300	0.179200
C391	C39	0.940100	0.682200	0.000500
H501	H50	0.011000	0.702600	0.018700
H511	H51	0.905100	0.695300	0.941300
C401	C40	0.942900	0.595900	0.012000
H521	H52	0.981600	0.573200	0.978300
C411	C41	0.998400	0.577000	0.102800
H531	H53	0.003000	0.521900	0.110300
H541	H54	0.069200	0.597600	0.121200
C421	C42	0.834300	0.564400	0.981900
H551	H55	0.799200	0.576700	0.922500
H561	H56	0.836200	0.509100	0.988200
C431	C43	0.288700	0.587200	0.610600
H571	H57	0.355100	0.599200	0.609500
C441	C44	0.160900	0.573300	0.652200
H581	H58	0.119000	0.573500	0.685800
C451	C45	0.460400	0.848900	0.913000
H591	H59	0.529600	0.839600	0.917300
C461	C46	0.299500	0.834600	0.887900
H601	H60	0.232600	0.813100	0.871100
C471	C47	0.329900	0.615900	0.763200
C481	C48	0.298500	0.569700	0.824600
H611	H61	0.302700	0.515600	0.813000
H621	H62	0.226500	0.581500	0.818900
C491	C49	0.369800	0.587600	0.912500
H631	H63	0.348600	0.556800	0.952600
C501	C50	0.359300	0.671300	0.930400
H641	H64	0.287200	0.682800	0.924600
H651	H65	0.404100	0.683600	0.987800
C511	C51	0.391000	0.717200	0.868400
C521	C52	0.319700	0.700000	0.779400
H661	H66	0.339600	0.730600	0.739200
H671	H67	0.247500	0.712100	0.772900
C531	C53	0.440700	0.597800	0.772900
H681	H68	0.446700	0.543800	0.761200
H691	H69	0.461400	0.627500	0.732400
C541	C54	0.510400	0.615800	0.859600
H701	H70	0.583100	0.603600	0.865200
C551	C55	0.502400	0.699900	0.877100
H711	H71	0.549000	0.712300	0.934000
H721	H72	0.522900	0.730500	0.837200
C561	C56	0.479600	0.569300	0.923300
H731	H73	0.486600	0.515000	0.914100
H741	H74	0.525000	0.581900	0.980500
Cu31	Cu3	0.760710	0.489450	0.562180
O31	O3	0.630400	0.533300	0.498500
H751	H75	0.626400	0.530500	0.440800
N251	N25	0.836200	0.583600	0.548300
N261	N26	0.918700	0.587200	0.521600
N271	N27	0.879900	0.701400	0.543700
N281	N28	0.110000	0.948000	0.857800
N291	N29	0.020500	0.938100	0.874000
N301	N30	0.992900	0.910100	0.743000
N311	N31	0.213100	0.939700	0.047000
N321	N32	0.130900	0.949000	0.073800
N331	N33	0.260200	0.904300	0.177000
N341	N34	0.425200	0.587100	0.432000
N351	N35	0.321800	0.596200	0.415500
N361	N36	0.383000	0.701100	0.386700
C571	C57	0.814000	0.653600	0.561500
H761	H76	0.760100	0.668200	0.580600
C581	C58	0.943000	0.657400	0.520100
H771	H77	0.998300	0.675100	0.504300
C591	C59	0.091000	0.932100	0.779400
H781	H78	0.139900	0.935600	0.752000
C601	C60	0.952600	0.913200	0.804700
H791	H79	0.884200	0.899100	0.798500
C611	C61	0.881800	0.784900	0.552900
C621	C62	0.772600	0.815500	0.523300
H801	H80	0.737000	0.802200	0.464200
H811	H81	0.733700	0.793400	0.556400
C631	C63	0.777300	0.900900	0.533400
H821	H82	0.705500	0.921200	0.514300
C641	C64	0.831300	0.921600	0.625000
H831	H83	0.792800	0.900400	0.659000
H841	H84	0.833800	0.976800	0.631600
C651	C65	0.940300	0.889700	0.653900
C661	C66	0.936400	0.804500	0.645400
H851	H85	0.007100	0.783600	0.665300
H861	H86	0.898100	0.782700	0.679200
C671	C67	0.940100	0.817800	0.500500
H871	H87	0.011000	0.797400	0.518700
H881	H88	0.905100	0.804700	0.441300
C681	C68	0.942900	0.904100	0.512000
H891	H89	0.981600	0.926800	0.478300
C691	C69	0.998400	0.923000	0.602800
H901	H90	0.003000	0.978100	0.610300
H911	H91	0.069200	0.902400	0.621200
C701	C70	0.834300	0.935600	0.481900
H921	H92	0.799200	0.923300	0.422500
H931	H93	0.836200	0.990900	0.488200
C711	C71	0.288700	0.912800	0.110600
H941	H94	0.355100	0.900800	0.109500
C721	C72	0.160900	0.926700	0.152200
H951	H95	0.119000	0.926500	0.185800
C731	C73	0.460400	0.651100	0.413000
H961	H96	0.529600	0.660400	0.417300
C741	C74	0.299500	0.665400	0.387900
H971	H97	0.232600	0.686900	0.371100
C751	C75	0.329900	0.884100	0.263200
C761	C76	0.298500	0.930300	0.324600
H981	H98	0.302700	0.984400	0.313000
H991	H99	0.226500	0.918500	0.318900
C771	C77	0.369800	0.912400	0.412500
H1001	H100	0.348600	0.943200	0.452600
C781	C78	0.359300	0.828700	0.430400
H1011	H101	0.287200	0.817200	0.424600
H1021	H102	0.404100	0.816400	0.487800
C791	C79	0.391000	0.782800	0.368400
C801	C80	0.319700	0.800000	0.279400
H1031	H103	0.339600	0.769400	0.239200
H1041	H104	0.247500	0.787900	0.272900
C811	C81	0.440700	0.902200	0.272900
H1051	H105	0.446700	0.956200	0.261200
H1061	H106	0.461400	0.872500	0.232400
C821	C82	0.510400	0.884200	0.359600
H1071	H107	0.583100	0.896400	0.365200
C831	C83	0.502400	0.800100	0.377100
H1081	H108	0.549000	0.787700	0.434000
H1091	H109	0.522900	0.769500	0.337200
C841	C84	0.479600	0.930700	0.423300
H1101	H110	0.486600	0.985000	0.414100
H1111	H111	0.525000	0.918100	0.480500
Cu41	Cu4	0.239290	0.989450	0.937820
O41	O4	0.369600	0.033300	0.001500
H1121	H112	0.373600	0.030500	0.059200
N371	N37	0.163800	0.083600	0.951700
N381	N38	0.081300	0.087200	0.978400
N391	N39	0.120100	0.201400	0.956300
N401	N40	0.890000	0.448000	0.642200
N411	N41	0.979500	0.438100	0.626000
N421	N42	0.007100	0.410100	0.757000
N431	N43	0.786900	0.439700	0.453000
N441	N44	0.869100	0.449000	0.426200
N451	N45	0.739800	0.404300	0.323000
N461	N46	0.574800	0.087100	0.068000
N471	N47	0.678200	0.096200	0.084500
N481	N48	0.617000	0.201100	0.113300
C851	C85	0.186000	0.153600	0.938500
H1131	H113	0.239900	0.168200	0.919400
C861	C86	0.057000	0.157400	0.979900
H1141	H114	0.001700	0.175100	0.995700
C871	C87	0.909000	0.432100	0.720600
H1151	H115	0.860100	0.435600	0.748000
C881	C88	0.047400	0.413200	0.695300
H1161	H116	0.115800	0.399100	0.701500
C891	C89	0.118200	0.284900	0.947100
C901	C90	0.227400	0.315500	0.976700
H1171	H117	0.263000	0.302200	0.035800
H1181	H118	0.266300	0.293400	0.943600
C911	C91	0.222700	0.400900	0.966600
H1191	H119	0.294500	0.421200	0.985700
C921	C92	0.168700	0.421600	0.875000
H1201	H120	0.207200	0.400400	0.841000
H1211	H121	0.166200	0.476800	0.868400
C931	C93	0.059700	0.389700	0.846100
C941	C94	0.063600	0.304500	0.854600
H1221	H122	0.992900	0.283600	0.834700
H1231	H123	0.101900	0.282700	0.820800
C951	C95	0.059900	0.317800	0.999500
H1241	H124	0.989000	0.297400	0.981300
H1251	H125	0.094900	0.304700	0.058700
C961	C96	0.057100	0.404100	0.988000
H1261	H126	0.018400	0.426800	0.021700
C971	C97	0.001600	0.423000	0.897200
H1271	H127	0.997000	0.478100	0.889700
H1281	H128	0.930800	0.402400	0.878800
C981	C98	0.165700	0.435600	0.018100
H1291	H129	0.200800	0.423300	0.077500
H1301	H130	0.163800	0.490900	0.011800
C991	C99	0.711300	0.412800	0.389400
H1311	H131	0.644900	0.400800	0.390500
C1001	C100	0.839100	0.426700	0.347800
H1321	H132	0.881000	0.426500	0.314200
C1011	C101	0.539600	0.151100	0.087000
H1331	H133	0.470400	0.160400	0.082700
C1021	C102	0.700500	0.165400	0.112100
H1341	H134	0.767400	0.186900	0.128900
C1031	C103	0.670100	0.384100	0.236800
C1041	C104	0.701500	0.430300	0.175400
H1351	H135	0.697300	0.484400	0.187000
H1361	H136	0.773500	0.418500	0.181100
C1051	C105	0.630200	0.412400	0.087500
H1371	H137	0.651400	0.443200	0.047400
C1061	C106	0.640700	0.328700	0.069600
H1381	H138	0.712800	0.317200	0.075400
H1391	H139	0.595900	0.316400	0.012200
C1071	C107	0.609000	0.282800	0.131600
C1081	C108	0.680300	0.300000	0.220600
H1401	H140	0.660400	0.269400	0.260800
H1411	H141	0.752500	0.287900	0.227100
C1091	C109	0.559300	0.402200	0.227100
H1421	H142	0.553300	0.456200	0.238800
H1431	H143	0.538600	0.372500	0.267600
C1101	C110	0.489600	0.384200	0.140400
H1441	H144	0.416900	0.396400	0.134800
C1111	C111	0.497600	0.300100	0.122900
H1451	H145	0.451000	0.287700	0.066000
H1461	H146	0.477100	0.269500	0.162800
C1121	C112	0.520400	0.430700	0.076700
H1471	H147	0.513400	0.485000	0.085900
H1481	H148	0.475000	0.418100	0.019500
Cu51	Cu5	0.500000	0.500000	0.500000
Cu61	Cu6	0.500000	0.000000	0.000000
Cu71	Cu7	0.000000	0.000000	0.000000
Cu81	Cu8	0.000000	0.500000	0.500000
