data_TUKCOT_clean_PM
_symmetry_space_group_name_H-M	'P1'
_cell_length_a	9.042000
_cell_length_b	9.042000
_cell_length_c	27.231000
_cell_angle_alpha	90.000000
_cell_angle_beta	90.000000
_cell_angle_gamma	90.000000
_symmetry_Int_Tables_number 1

loop_
_symmetry_equiv_pos_as_xyz
'x,y,z'

loop_
_atom_site_label
_atom_site_type_symbol
_atom_site_fract_x
_atom_site_fract_y
_atom_site_fract_z
Cd11	Cd1	0.185520	0.382490	0.199680
C11	C1	0.488300	0.797500	0.309770
H11	H1	0.416600	0.825000	0.332500
C21	C2	0.529900	0.891700	0.272680
C31	C3	0.638000	0.856500	0.238740
H21	H2	0.663700	0.922400	0.213900
C41	C4	0.707000	0.720000	0.242780
C51	C5	0.665200	0.619100	0.279100
H31	H3	0.709600	0.526500	0.280900
C61	C6	0.556600	0.659400	0.312370
C71	C7	0.386800	0.091900	0.230680
H41	H4	0.378500	0.046800	0.200100
C81	C8	0.365600	0.246000	0.290240
H51	H5	0.338500	0.329000	0.308300
C91	C9	0.446700	0.131000	0.307480
H61	H6	0.486100	0.120500	0.338800
C101	C10	0.878000	0.548700	0.200160
H71	H7	0.836500	0.460900	0.211400
C111	C11	0.019600	0.703700	0.164290
H81	H8	0.096700	0.742800	0.145800
C121	C12	0.914800	0.784000	0.186940
H91	H9	0.905300	0.886400	0.186800
C131	C13	0.597200	0.444900	0.368110
H101	H10	0.692100	0.421400	0.357500
C141	C14	0.383100	0.557800	0.376020
H111	H11	0.304500	0.623200	0.372300
C151	C15	0.391400	0.442600	0.407820
H121	H12	0.317900	0.415300	0.429900
N11	N1	0.329900	0.220700	0.242070
N21	N2	0.458600	0.034200	0.269420
N31	N3	0.996600	0.556500	0.172310
N41	N4	0.824500	0.684300	0.210290
N51	N5	0.514800	0.558500	0.350230
N61	N6	0.524800	0.372900	0.402390
Cd21	Cd2	0.814480	0.617510	0.699680
C161	C16	0.511700	0.202500	0.809770
H131	H13	0.583400	0.175000	0.832500
C171	C17	0.470100	0.108300	0.772680
C181	C18	0.362000	0.143500	0.738740
H141	H14	0.336300	0.077600	0.713900
C191	C19	0.293000	0.280000	0.742780
C201	C20	0.334800	0.380900	0.779100
H151	H15	0.290400	0.473500	0.780900
C211	C21	0.443400	0.340600	0.812370
C221	C22	0.613200	0.908100	0.730680
H161	H16	0.621500	0.953200	0.700100
C231	C23	0.634400	0.754000	0.790240
H171	H17	0.661500	0.671000	0.808300
C241	C24	0.553300	0.869000	0.807480
H181	H18	0.513900	0.879500	0.838800
C251	C25	0.122000	0.451300	0.700160
H191	H19	0.163500	0.539100	0.711400
C261	C26	0.980400	0.296300	0.664290
H201	H20	0.903300	0.257200	0.645800
C271	C27	0.085200	0.216000	0.686940
H211	H21	0.094700	0.113600	0.686800
C281	C28	0.402800	0.555100	0.868110
H221	H22	0.307900	0.578600	0.857500
C291	C29	0.616900	0.442200	0.876020
H231	H23	0.695500	0.376800	0.872300
C301	C30	0.608600	0.557400	0.907820
H241	H24	0.682100	0.584700	0.929900
N71	N7	0.670100	0.779300	0.742070
N81	N8	0.541400	0.965800	0.769420
N91	N9	0.003400	0.443500	0.672310
N101	N10	0.175500	0.315700	0.710290
N111	N11	0.485200	0.441500	0.850230
N121	N12	0.475200	0.627100	0.902390
Cd31	Cd3	0.617510	0.185520	0.449680
C311	C31	0.202500	0.488300	0.559770
H251	H25	0.175000	0.416600	0.582500
C321	C32	0.108300	0.529900	0.522680
C331	C33	0.143500	0.638000	0.488740
H261	H26	0.077600	0.663700	0.463900
C341	C34	0.280000	0.707000	0.492780
C351	C35	0.380900	0.665200	0.529100
H271	H27	0.473500	0.709600	0.530900
C361	C36	0.340600	0.556600	0.562370
C371	C37	0.908100	0.386800	0.480680
H281	H28	0.953200	0.378500	0.450100
C381	C38	0.754000	0.365600	0.540240
H291	H29	0.671000	0.338500	0.558300
C391	C39	0.869000	0.446700	0.557480
H301	H30	0.879500	0.486100	0.588800
C401	C40	0.451300	0.878000	0.450160
H311	H31	0.539100	0.836500	0.461400
C411	C41	0.296300	0.019600	0.414290
H321	H32	0.257200	0.096700	0.395800
C421	C42	0.216000	0.914800	0.436940
H331	H33	0.113600	0.905300	0.436800
C431	C43	0.555100	0.597200	0.618110
H341	H34	0.578600	0.692100	0.607500
C441	C44	0.442200	0.383100	0.626020
H351	H35	0.376800	0.304500	0.622300
C451	C45	0.557400	0.391400	0.657820
H361	H36	0.584700	0.317900	0.679900
N131	N13	0.779300	0.329900	0.492070
N141	N14	0.965800	0.458600	0.519420
N151	N15	0.443500	0.996600	0.422310
N161	N16	0.315700	0.824500	0.460290
N171	N17	0.441500	0.514800	0.600230
N181	N18	0.627100	0.524800	0.652390
Cd41	Cd4	0.382490	0.814480	0.949680
C461	C46	0.797500	0.511700	0.059770
H371	H37	0.825000	0.583400	0.082500
C471	C47	0.891700	0.470100	0.022680
C481	C48	0.856500	0.362000	0.988740
H381	H38	0.922400	0.336300	0.963900
C491	C49	0.720000	0.293000	0.992780
C501	C50	0.619100	0.334800	0.029100
H391	H39	0.526500	0.290400	0.030900
C511	C51	0.659400	0.443400	0.062370
C521	C52	0.091900	0.613200	0.980680
H401	H40	0.046800	0.621500	0.950100
C531	C53	0.246000	0.634400	0.040240
H411	H41	0.329000	0.661500	0.058300
C541	C54	0.131000	0.553300	0.057480
H421	H42	0.120500	0.513900	0.088800
C551	C55	0.548700	0.122000	0.950160
H431	H43	0.460900	0.163500	0.961400
C561	C56	0.703700	0.980400	0.914290
H441	H44	0.742800	0.903300	0.895800
C571	C57	0.784000	0.085200	0.936940
H451	H45	0.886400	0.094700	0.936800
C581	C58	0.444900	0.402800	0.118110
H461	H46	0.421400	0.307900	0.107500
C591	C59	0.557800	0.616900	0.126020
H471	H47	0.623200	0.695500	0.122300
C601	C60	0.442600	0.608600	0.157820
H481	H48	0.415300	0.682100	0.179900
N191	N19	0.220700	0.670100	0.992070
N201	N20	0.034200	0.541400	0.019420
N211	N21	0.556500	0.003400	0.922310
N221	N22	0.684300	0.175500	0.960290
N231	N23	0.558500	0.485200	0.100230
N241	N24	0.372900	0.475200	0.152390
