data_TULNIZ_clean_PM
_symmetry_space_group_name_H-M	'P1'
_cell_length_a	14.944000
_cell_length_b	16.940000
_cell_length_c	10.384000
_cell_angle_alpha	90.000000
_cell_angle_beta	123.740000
_cell_angle_gamma	90.000000
_symmetry_Int_Tables_number 1

loop_
_symmetry_equiv_pos_as_xyz
'x,y,z'

loop_
_atom_site_label
_atom_site_type_symbol
_atom_site_fract_x
_atom_site_fract_y
_atom_site_fract_z
Co11	Co1	0.154700	0.451800	0.671460
O11	O1	0.143170	0.496040	0.852700
N11	N1	0.990900	0.474050	0.489800
N21	N2	0.199400	0.576680	0.687000
O21	O2	0.185490	0.402470	0.514500
N31	N3	0.111500	0.338070	0.702800
C11	C1	0.174200	0.565370	0.898200
C21	C2	0.934000	0.537500	0.479900
C31	C3	0.940600	0.422960	0.370800
S11	S1	0.237940	0.639920	0.607640
C41	C4	0.201800	0.614080	0.803100
C51	C5	0.831000	0.552400	0.353400
H11	H1	0.965200	0.573200	0.561700
C61	C6	0.838700	0.434270	0.240400
H21	H2	0.976900	0.377000	0.377000
N41	N4	0.257100	0.716120	0.718200
C71	C7	0.233500	0.694540	0.818900
H31	H3	0.794900	0.597500	0.351700
C81	C8	0.781100	0.500880	0.229500
H41	H4	0.808900	0.397500	0.160400
C91	C9	0.241600	0.755060	0.934800
C101	C10	0.670800	0.518200	0.085200
O31	O3	0.158500	0.792260	0.894100
O41	O4	0.331700	0.763170	0.057200
H51	H5	0.619600	0.526400	0.113600
H61	H6	0.646700	0.473300	0.015500
C111	C11	0.674900	0.591300	0.003600
C121	C12	0.569600	0.611500	0.853200
H71	H7	0.696600	0.635900	0.073400
H81	H8	0.729700	0.583500	0.982100
H91	H9	0.551700	0.570500	0.777400
H101	H10	0.512400	0.614000	0.870900
C131	C13	0.578400	0.689810	0.791500
C141	C14	0.517200	0.755400	0.777000
C151	C15	0.653400	0.701100	0.754400
H111	H11	0.463900	0.750800	0.796900
C161	C16	0.535800	0.827200	0.733300
H121	H12	0.694800	0.658800	0.759000
C171	C17	0.667200	0.774130	0.711000
H131	H13	0.493900	0.870100	0.724400
H141	H14	0.717700	0.779500	0.685900
Co21	Co2	0.654700	0.951800	0.671460
O51	O5	0.643170	0.996040	0.852700
N51	N5	0.490900	0.974050	0.489800
N61	N6	0.699400	0.076680	0.687000
O61	O6	0.685490	0.902470	0.514500
N71	N7	0.611500	0.838070	0.702800
C181	C18	0.674200	0.065370	0.898200
C191	C19	0.434000	0.037500	0.479900
C201	C20	0.440600	0.922960	0.370800
S21	S2	0.737940	0.139920	0.607640
C211	C21	0.701800	0.114080	0.803100
C221	C22	0.331000	0.052400	0.353400
H151	H15	0.465200	0.073200	0.561700
C231	C23	0.338700	0.934270	0.240400
H161	H16	0.476900	0.877000	0.377000
N81	N8	0.757100	0.216120	0.718200
C241	C24	0.733500	0.194540	0.818900
H171	H17	0.294900	0.097500	0.351700
C251	C25	0.281100	0.000880	0.229500
H181	H18	0.308900	0.897500	0.160400
C261	C26	0.741600	0.255060	0.934800
C271	C27	0.170800	0.018200	0.085200
O71	O7	0.658500	0.292260	0.894100
O81	O8	0.831700	0.263170	0.057200
H191	H19	0.119600	0.026400	0.113600
H201	H20	0.146700	0.973300	0.015500
C281	C28	0.174900	0.091300	0.003600
C291	C29	0.069600	0.111500	0.853200
H211	H21	0.196600	0.135900	0.073400
H221	H22	0.229700	0.083500	0.982100
H231	H23	0.051700	0.070500	0.777400
H241	H24	0.012400	0.114000	0.870900
C301	C30	0.078400	0.189810	0.791500
C311	C31	0.017200	0.255400	0.777000
C321	C32	0.153400	0.201100	0.754400
H251	H25	0.963900	0.250800	0.796900
C331	C33	0.035800	0.327200	0.733300
H261	H26	0.194800	0.158800	0.759000
C341	C34	0.167200	0.274130	0.711000
H271	H27	0.993900	0.370100	0.724400
H281	H28	0.217700	0.279500	0.685900
Co31	Co3	0.154700	0.548200	0.171460
O91	O9	0.143170	0.503960	0.352700
N91	N9	0.990900	0.525950	0.989800
N101	N10	0.199400	0.423320	0.187000
O101	O10	0.185490	0.597530	0.014500
N111	N11	0.111500	0.661930	0.202800
C351	C35	0.174200	0.434630	0.398200
C361	C36	0.934000	0.462500	0.979900
C371	C37	0.940600	0.577040	0.870800
S31	S3	0.237940	0.360080	0.107640
C381	C38	0.201800	0.385920	0.303100
C391	C39	0.831000	0.447600	0.853400
H291	H29	0.965200	0.426800	0.061700
C401	C40	0.838700	0.565730	0.740400
H301	H30	0.976900	0.623000	0.877000
N121	N12	0.257100	0.283880	0.218200
C411	C41	0.233500	0.305460	0.318900
H311	H31	0.794900	0.402500	0.851700
C421	C42	0.781100	0.499120	0.729500
H321	H32	0.808900	0.602500	0.660400
C431	C43	0.241600	0.244940	0.434800
C441	C44	0.670800	0.481800	0.585200
O111	O11	0.158500	0.207740	0.394100
O121	O12	0.331700	0.236830	0.557200
H331	H33	0.619600	0.473600	0.613600
H341	H34	0.646700	0.526700	0.515500
C451	C45	0.674900	0.408700	0.503600
C461	C46	0.569600	0.388500	0.353200
H351	H35	0.696600	0.364100	0.573400
H361	H36	0.729700	0.416500	0.482100
H371	H37	0.551700	0.429500	0.277400
H381	H38	0.512400	0.386000	0.370900
C471	C47	0.578400	0.310190	0.291500
C481	C48	0.517200	0.244600	0.277000
C491	C49	0.653400	0.298900	0.254400
H391	H39	0.463900	0.249200	0.296900
C501	C50	0.535800	0.172800	0.233300
H401	H40	0.694800	0.341200	0.259000
C511	C51	0.667200	0.225870	0.211000
H411	H41	0.493900	0.129900	0.224400
H421	H42	0.717700	0.220500	0.185900
Co41	Co4	0.654700	0.048200	0.171460
O131	O13	0.643170	0.003960	0.352700
N131	N13	0.490900	0.025950	0.989800
N141	N14	0.699400	0.923320	0.187000
O141	O14	0.685490	0.097530	0.014500
N151	N15	0.611500	0.161930	0.202800
C521	C52	0.674200	0.934630	0.398200
C531	C53	0.434000	0.962500	0.979900
C541	C54	0.440600	0.077040	0.870800
S41	S4	0.737940	0.860080	0.107640
C551	C55	0.701800	0.885920	0.303100
C561	C56	0.331000	0.947600	0.853400
H431	H43	0.465200	0.926800	0.061700
C571	C57	0.338700	0.065730	0.740400
H441	H44	0.476900	0.123000	0.877000
N161	N16	0.757100	0.783880	0.218200
C581	C58	0.733500	0.805460	0.318900
H451	H45	0.294900	0.902500	0.851700
C591	C59	0.281100	0.999120	0.729500
H461	H46	0.308900	0.102500	0.660400
C601	C60	0.741600	0.744940	0.434800
C611	C61	0.170800	0.981800	0.585200
O151	O15	0.658500	0.707740	0.394100
O161	O16	0.831700	0.736830	0.557200
H471	H47	0.119600	0.973600	0.613600
H481	H48	0.146700	0.026700	0.515500
C621	C62	0.174900	0.908700	0.503600
C631	C63	0.069600	0.888500	0.353200
H491	H49	0.196600	0.864100	0.573400
H501	H50	0.229700	0.916500	0.482100
H511	H51	0.051700	0.929500	0.277400
H521	H52	0.012400	0.886000	0.370900
C641	C64	0.078400	0.810190	0.291500
C651	C65	0.017200	0.744600	0.277000
C661	C66	0.153400	0.798900	0.254400
H531	H53	0.963900	0.749200	0.296900
C671	C67	0.035800	0.672800	0.233300
H541	H54	0.194800	0.841200	0.259000
C681	C68	0.167200	0.725870	0.211000
H551	H55	0.993900	0.629900	0.224400
H561	H56	0.217700	0.720500	0.185900
