data_TUMQOJ_clean_PM
_symmetry_space_group_name_H-M	'P1'
_cell_length_a	9.805400
_cell_length_b	17.981400
_cell_length_c	11.977500
_cell_angle_alpha	90.000000
_cell_angle_beta	97.881000
_cell_angle_gamma	90.000000
_symmetry_Int_Tables_number 1

loop_
_symmetry_equiv_pos_as_xyz
'x,y,z'

loop_
_atom_site_label
_atom_site_type_symbol
_atom_site_fract_x
_atom_site_fract_y
_atom_site_fract_z
C11	C1	0.322100	0.091200	0.189000
C21	C2	0.836300	0.139400	0.204900
C31	C3	0.579200	0.115700	0.200800
H11	H1	0.589000	0.068800	0.166100
C41	C4	0.449300	0.138200	0.223500
C51	C5	0.696000	0.161200	0.228400
C61	C6	0.435200	0.205900	0.279100
H21	H2	0.348200	0.221100	0.297600
C71	C7	0.679500	0.230500	0.280700
H31	H3	0.755700	0.263100	0.297900
C81	C8	0.551000	0.250200	0.306400
C91	C9	0.563000	0.333900	0.474600
H41	H4	0.597200	0.297700	0.529100
C101	C10	0.488500	0.387500	0.315700
C111	C11	0.442300	0.407300	0.196300
C121	C12	0.439400	0.360100	0.105000
H51	H5	0.473300	0.310700	0.114200
C131	C13	0.385400	0.387100	0.999100
H61	H6	0.384500	0.356400	0.934500
C141	C14	0.333900	0.457200	0.988200
H71	H7	0.291700	0.474900	0.916900
C151	C15	0.344000	0.503100	0.083100
H81	H8	0.312000	0.552900	0.075000
N11	N1	0.534700	0.321350	0.362100
N21	N2	0.535900	0.403960	0.497300
N31	N3	0.488900	0.437710	0.395600
N41	N4	0.398400	0.478200	0.186700
O11	O1	0.329300	0.033300	0.132200
O21	O2	0.209500	0.115750	0.218300
O31	O3	0.860200	0.070420	0.192200
O41	O4	0.924400	0.189400	0.197800
Zn11	Zn1	0.445530	0.547720	0.339090
C161	C16	0.177900	0.591200	0.311000
C171	C17	0.663700	0.639400	0.295100
C181	C18	0.920800	0.615700	0.299200
H91	H9	0.911000	0.568800	0.333900
C191	C19	0.050700	0.638200	0.276500
C201	C20	0.804000	0.661200	0.271600
C211	C21	0.064800	0.705900	0.220900
H101	H10	0.151800	0.721100	0.202400
C221	C22	0.820500	0.730500	0.219300
H111	H11	0.744300	0.763100	0.202100
C231	C23	0.949000	0.750200	0.193600
C241	C24	0.937000	0.833900	0.025400
H121	H12	0.902800	0.797700	0.970900
C251	C25	0.011500	0.887500	0.184300
C261	C26	0.057700	0.907300	0.303700
C271	C27	0.060600	0.860100	0.395000
H131	H13	0.026700	0.810700	0.385800
C281	C28	0.114600	0.887100	0.500900
H141	H14	0.115500	0.856400	0.565500
C291	C29	0.166100	0.957200	0.511800
H151	H15	0.208300	0.974900	0.583100
C301	C30	0.156000	0.003100	0.416900
H161	H16	0.188000	0.052900	0.425000
N51	N5	0.965300	0.821350	0.137900
N61	N6	0.964100	0.903960	0.002700
N71	N7	0.011100	0.937710	0.104400
N81	N8	0.101600	0.978200	0.313300
O51	O5	0.170700	0.533300	0.367800
O61	O6	0.290500	0.615750	0.281700
O71	O7	0.639800	0.570420	0.307800
O81	O8	0.575600	0.689400	0.302200
Zn21	Zn2	0.054470	0.047720	0.160910
C311	C31	0.677900	0.908800	0.811000
C321	C32	0.163700	0.860600	0.795100
C331	C33	0.420800	0.884300	0.799200
H171	H17	0.411000	0.931200	0.833900
C341	C34	0.550700	0.861800	0.776500
C351	C35	0.304000	0.838800	0.771600
C361	C36	0.564800	0.794100	0.720900
H181	H18	0.651800	0.778900	0.702400
C371	C37	0.320500	0.769500	0.719300
H191	H19	0.244300	0.736900	0.702100
C381	C38	0.449000	0.749800	0.693600
C391	C39	0.437000	0.666100	0.525400
H201	H20	0.402800	0.702300	0.470900
C401	C40	0.511500	0.612500	0.684300
C411	C41	0.557700	0.592700	0.803700
C421	C42	0.560600	0.639900	0.895000
H211	H21	0.526700	0.689300	0.885800
C431	C43	0.614600	0.612900	0.000900
H221	H22	0.615500	0.643600	0.065500
C441	C44	0.666100	0.542800	0.011800
H231	H23	0.708300	0.525100	0.083100
C451	C45	0.656000	0.496900	0.916900
H241	H24	0.688000	0.447100	0.925000
N91	N9	0.465300	0.678650	0.637900
N101	N10	0.464100	0.596040	0.502700
N111	N11	0.511100	0.562290	0.604400
N121	N12	0.601600	0.521800	0.813300
O91	O9	0.670700	0.966700	0.867800
O101	O10	0.790500	0.884250	0.781700
O111	O11	0.139800	0.929580	0.807800
O121	O12	0.075600	0.810600	0.802200
Zn31	Zn3	0.554470	0.452280	0.660910
C461	C46	0.822100	0.408800	0.689000
C471	C47	0.336300	0.360600	0.704900
C481	C48	0.079200	0.384300	0.700800
H251	H25	0.089000	0.431200	0.666100
C491	C49	0.949300	0.361800	0.723500
C501	C50	0.196000	0.338800	0.728400
C511	C51	0.935200	0.294100	0.779100
H261	H26	0.848200	0.278900	0.797600
C521	C52	0.179500	0.269500	0.780700
H271	H27	0.255700	0.236900	0.797900
C531	C53	0.051000	0.249800	0.806400
C541	C54	0.063000	0.166100	0.974600
H281	H28	0.097200	0.202300	0.029100
C551	C55	0.988500	0.112500	0.815700
C561	C56	0.942300	0.092700	0.696300
C571	C57	0.939400	0.139900	0.605000
H291	H29	0.973300	0.189300	0.614200
C581	C58	0.885400	0.112900	0.499100
H301	H30	0.884500	0.143600	0.434500
C591	C59	0.833900	0.042800	0.488200
H311	H31	0.791700	0.025100	0.416900
C601	C60	0.844000	0.996900	0.583100
H321	H32	0.812000	0.947100	0.575000
N131	N13	0.034700	0.178650	0.862100
N141	N14	0.035900	0.096040	0.997300
N151	N15	0.988900	0.062290	0.895600
N161	N16	0.898400	0.021800	0.686700
O131	O13	0.829300	0.466700	0.632200
O141	O14	0.709500	0.384250	0.718300
O151	O15	0.360200	0.429580	0.692200
O161	O16	0.424400	0.310600	0.697800
Zn41	Zn4	0.945530	0.952280	0.839090
