data_TUMRIE_clean_PM
_symmetry_space_group_name_H-M	'P1'
_cell_length_a	9.997700
_cell_length_b	18.288700
_cell_length_c	12.008200
_cell_angle_alpha	90.000000
_cell_angle_beta	100.581000
_cell_angle_gamma	90.000000
_symmetry_Int_Tables_number 1

loop_
_symmetry_equiv_pos_as_xyz
'x,y,z'

loop_
_atom_site_label
_atom_site_type_symbol
_atom_site_fract_x
_atom_site_fract_y
_atom_site_fract_z
C11	C1	0.320200	0.090080	0.227400
C21	C2	0.815600	0.125150	0.204000
C31	C3	0.568700	0.108720	0.218400
H11	H1	0.572100	0.060500	0.189600
C41	C4	0.448600	0.134660	0.246600
C51	C5	0.684500	0.152990	0.232000
C61	C6	0.443600	0.204790	0.290400
H21	H2	0.362400	0.222800	0.311000
C71	C7	0.680000	0.223660	0.274900
H31	H3	0.757800	0.254400	0.284300
C81	C8	0.559600	0.247880	0.303400
C91	C9	0.639300	0.270800	0.551100
H41	H4	0.732500	0.259700	0.541900
H51	H5	0.583200	0.226600	0.536500
H61	H6	0.639800	0.287800	0.628500
C101	C10	0.582100	0.328820	0.469600
C111	C11	0.505400	0.383540	0.309300
C121	C12	0.456400	0.402580	0.189500
C131	C13	0.449900	0.355480	0.097700
H71	H7	0.487400	0.307800	0.109900
C141	C14	0.342300	0.442960	0.979300
H81	H8	0.296900	0.458200	0.906500
C151	C15	0.354800	0.491820	0.069600
H91	H9	0.321600	0.540300	0.056600
N11	N1	0.553340	0.318730	0.355210
N21	N2	0.552900	0.396760	0.492430
N31	N3	0.504600	0.431320	0.391300
N41	N4	0.412400	0.471590	0.173740
N51	N5	0.392300	0.375520	0.992500
O11	O1	0.315500	0.030370	0.176200
O21	O2	0.218810	0.117440	0.261320
O31	O3	0.826200	0.057570	0.187120
O41	O4	0.910790	0.168770	0.199450
Cd11	Cd1	0.452150	0.551750	0.334130
C161	C16	0.179800	0.590080	0.272600
C171	C17	0.684400	0.625150	0.296000
C181	C18	0.931300	0.608720	0.281600
H101	H10	0.927900	0.560500	0.310400
C191	C19	0.051400	0.634660	0.253400
C201	C20	0.815500	0.652990	0.268000
C211	C21	0.056400	0.704790	0.209600
H111	H11	0.137600	0.722800	0.189000
C221	C22	0.820000	0.723660	0.225100
H121	H12	0.742200	0.754400	0.215700
C231	C23	0.940400	0.747880	0.196600
C241	C24	0.860700	0.770800	0.948900
H131	H13	0.767500	0.759700	0.958100
H141	H14	0.916800	0.726600	0.963500
H151	H15	0.860200	0.787800	0.871500
C251	C25	0.917900	0.828820	0.030400
C261	C26	0.994600	0.883540	0.190700
C271	C27	0.043600	0.902580	0.310500
C281	C28	0.050100	0.855480	0.402300
H161	H16	0.012600	0.807800	0.390100
C291	C29	0.157700	0.942960	0.520700
H171	H17	0.203100	0.958200	0.593500
C301	C30	0.145200	0.991820	0.430400
H181	H18	0.178400	0.040300	0.443400
N61	N6	0.946660	0.818730	0.144790
N71	N7	0.947100	0.896760	0.007570
N81	N8	0.995400	0.931320	0.108700
N91	N9	0.087600	0.971590	0.326260
N101	N10	0.107700	0.875520	0.507500
O51	O5	0.184500	0.530370	0.323800
O61	O6	0.281190	0.617440	0.238680
O71	O7	0.673800	0.557570	0.312880
O81	O8	0.589210	0.668770	0.300550
Cd21	Cd2	0.047850	0.051750	0.165870
C311	C31	0.679800	0.909920	0.772600
C321	C32	0.184400	0.874850	0.796000
C331	C33	0.431300	0.891280	0.781600
H191	H19	0.427900	0.939500	0.810400
C341	C34	0.551400	0.865340	0.753400
C351	C35	0.315500	0.847010	0.768000
C361	C36	0.556400	0.795210	0.709600
H201	H20	0.637600	0.777200	0.689000
C371	C37	0.320000	0.776340	0.725100
H211	H21	0.242200	0.745600	0.715700
C381	C38	0.440400	0.752120	0.696600
C391	C39	0.360700	0.729200	0.448900
H221	H22	0.267500	0.740300	0.458100
H231	H23	0.416800	0.773400	0.463500
H241	H24	0.360200	0.712200	0.371500
C401	C40	0.417900	0.671180	0.530400
C411	C41	0.494600	0.616460	0.690700
C421	C42	0.543600	0.597420	0.810500
C431	C43	0.550100	0.644520	0.902300
H251	H25	0.512600	0.692200	0.890100
C441	C44	0.657700	0.557040	0.020700
H261	H26	0.703100	0.541800	0.093500
C451	C45	0.645200	0.508180	0.930400
H271	H27	0.678400	0.459700	0.943400
N111	N11	0.446660	0.681270	0.644790
N121	N12	0.447100	0.603240	0.507570
N131	N13	0.495400	0.568680	0.608700
N141	N14	0.587600	0.528410	0.826260
N151	N15	0.607700	0.624480	0.007500
O91	O9	0.684500	0.969630	0.823800
O101	O10	0.781190	0.882560	0.738680
O111	O11	0.173800	0.942430	0.812880
O121	O12	0.089210	0.831230	0.800550
Cd31	Cd3	0.547850	0.448250	0.665870
C461	C46	0.820200	0.409920	0.727400
C471	C47	0.315600	0.374850	0.704000
C481	C48	0.068700	0.391280	0.718400
H281	H28	0.072100	0.439500	0.689600
C491	C49	0.948600	0.365340	0.746600
C501	C50	0.184500	0.347010	0.732000
C511	C51	0.943600	0.295210	0.790400
H291	H29	0.862400	0.277200	0.811000
C521	C52	0.180000	0.276340	0.774900
H301	H30	0.257800	0.245600	0.784300
C531	C53	0.059600	0.252120	0.803400
C541	C54	0.139300	0.229200	0.051100
H311	H31	0.232500	0.240300	0.041900
H321	H32	0.083200	0.273400	0.036500
H331	H33	0.139800	0.212200	0.128500
C551	C55	0.082100	0.171180	0.969600
C561	C56	0.005400	0.116460	0.809300
C571	C57	0.956400	0.097420	0.689500
C581	C58	0.949900	0.144520	0.597700
H341	H34	0.987400	0.192200	0.609900
C591	C59	0.842300	0.057040	0.479300
H351	H35	0.796900	0.041800	0.406500
C601	C60	0.854800	0.008180	0.569600
H361	H36	0.821600	0.959700	0.556600
N161	N16	0.053340	0.181270	0.855210
N171	N17	0.052900	0.103240	0.992430
N181	N18	0.004600	0.068680	0.891300
N191	N19	0.912400	0.028410	0.673740
N201	N20	0.892300	0.124480	0.492500
O131	O13	0.815500	0.469630	0.676200
O141	O14	0.718810	0.382560	0.761320
O151	O15	0.326200	0.442430	0.687120
O161	O16	0.410790	0.331230	0.699450
Cd41	Cd4	0.952150	0.948250	0.834130
