data_TUMRUQ_clean_PM
_symmetry_space_group_name_H-M	'P1'
_cell_length_a	9.960200
_cell_length_b	17.008600
_cell_length_c	12.227900
_cell_angle_alpha	90.000000
_cell_angle_beta	96.947000
_cell_angle_gamma	90.000000
_symmetry_Int_Tables_number 1

loop_
_symmetry_equiv_pos_as_xyz
'x,y,z'

loop_
_atom_site_label
_atom_site_type_symbol
_atom_site_fract_x
_atom_site_fract_y
_atom_site_fract_z
C11	C1	0.334900	0.057400	0.217400
C21	C2	0.833100	0.117000	0.238600
C31	C3	0.583000	0.088300	0.233900
H11	H1	0.597000	0.038600	0.201400
C41	C4	0.453600	0.110900	0.253600
C51	C5	0.693000	0.139400	0.262400
C61	C6	0.432000	0.182400	0.301800
H21	H2	0.343300	0.197900	0.313800
C71	C7	0.672400	0.211100	0.311600
H31	H3	0.745800	0.246000	0.330900
C81	C8	0.541700	0.231100	0.332500
C91	C9	0.592800	0.255700	0.580300
H41	H4	0.691700	0.256500	0.594600
H51	H5	0.562700	0.203900	0.551900
H61	H6	0.554400	0.266200	0.649000
C101	C10	0.546900	0.316600	0.498300
C111	C11	0.480100	0.376000	0.343100
C121	C12	0.442400	0.397200	0.226900
C131	C13	0.384500	0.367100	0.047600
H71	H7	0.374300	0.329800	0.989400
C141	C14	0.358300	0.444900	0.023500
H81	H8	0.324800	0.461200	0.951000
C151	C15	0.382200	0.498400	0.107800
H91	H9	0.366900	0.552700	0.093100
N11	N1	0.520500	0.304120	0.387500
N21	N2	0.522100	0.391280	0.519400
N31	N3	0.479500	0.428360	0.420900
N41	N4	0.426800	0.475020	0.210700
N51	N5	0.424400	0.341900	0.151100
O11	O1	0.352200	0.985000	0.215800
O21	O2	0.224100	0.092350	0.192900
O31	O3	0.843800	0.059520	0.172300
O41	O4	0.932000	0.154550	0.283700
Cu11	Cu1	0.455560	0.548500	0.341400
C161	C16	0.165100	0.557400	0.282600
C171	C17	0.666900	0.617000	0.261400
C181	C18	0.917000	0.588300	0.266100
H101	H10	0.903000	0.538600	0.298600
C191	C19	0.046400	0.610900	0.246400
C201	C20	0.807000	0.639400	0.237600
C211	C21	0.068000	0.682400	0.198200
H111	H11	0.156700	0.697900	0.186200
C221	C22	0.827600	0.711100	0.188400
H121	H12	0.754200	0.746000	0.169100
C231	C23	0.958300	0.731100	0.167500
C241	C24	0.907200	0.755700	0.919700
H131	H13	0.808300	0.756500	0.905400
H141	H14	0.937300	0.703900	0.948100
H151	H15	0.945600	0.766200	0.851000
C251	C25	0.953100	0.816600	0.001700
C261	C26	0.019900	0.876000	0.156900
C271	C27	0.057600	0.897200	0.273100
C281	C28	0.115500	0.867100	0.452400
H161	H16	0.125700	0.829800	0.510600
C291	C29	0.141700	0.944900	0.476500
H171	H17	0.175200	0.961200	0.549000
C301	C30	0.117800	0.998400	0.392200
H181	H18	0.133100	0.052700	0.406900
N61	N6	0.979500	0.804120	0.112500
N71	N7	0.977900	0.891280	0.980600
N81	N8	0.020500	0.928360	0.079100
N91	N9	0.073200	0.975020	0.289300
N101	N10	0.075600	0.841900	0.348900
O51	O5	0.147800	0.485000	0.284200
O61	O6	0.275900	0.592350	0.307100
O71	O7	0.656200	0.559520	0.327700
O81	O8	0.568000	0.654550	0.216300
Cu21	Cu2	0.044440	0.048500	0.158600
C311	C31	0.665100	0.942600	0.782600
C321	C32	0.166900	0.883000	0.761400
C331	C33	0.417000	0.911700	0.766100
H191	H19	0.403000	0.961400	0.798600
C341	C34	0.546400	0.889100	0.746400
C351	C35	0.307000	0.860600	0.737600
C361	C36	0.568000	0.817600	0.698200
H201	H20	0.656700	0.802100	0.686200
C371	C37	0.327600	0.788900	0.688400
H211	H21	0.254200	0.754000	0.669100
C381	C38	0.458300	0.768900	0.667500
C391	C39	0.407200	0.744300	0.419700
H221	H22	0.308300	0.743500	0.405400
H231	H23	0.437300	0.796100	0.448100
H241	H24	0.445600	0.733800	0.351000
C401	C40	0.453100	0.683400	0.501700
C411	C41	0.519900	0.624000	0.656900
C421	C42	0.557600	0.602800	0.773100
C431	C43	0.615500	0.632900	0.952400
H251	H25	0.625700	0.670200	0.010600
C441	C44	0.641700	0.555100	0.976500
H261	H26	0.675200	0.538800	0.049000
C451	C45	0.617800	0.501600	0.892200
H271	H27	0.633100	0.447300	0.906900
N111	N11	0.479500	0.695880	0.612500
N121	N12	0.477900	0.608720	0.480600
N131	N13	0.520500	0.571640	0.579100
N141	N14	0.573200	0.524980	0.789300
N151	N15	0.575600	0.658100	0.848900
O91	O9	0.647800	0.015000	0.784200
O101	O10	0.775900	0.907650	0.807100
O111	O11	0.156200	0.940480	0.827700
O121	O12	0.068000	0.845450	0.716300
Cu31	Cu3	0.544440	0.451500	0.658600
C461	C46	0.834900	0.442600	0.717400
C471	C47	0.333100	0.383000	0.738600
C481	C48	0.083000	0.411700	0.733900
H281	H28	0.097000	0.461400	0.701400
C491	C49	0.953600	0.389100	0.753600
C501	C50	0.193000	0.360600	0.762400
C511	C51	0.932000	0.317600	0.801800
H291	H29	0.843300	0.302100	0.813800
C521	C52	0.172400	0.288900	0.811600
H301	H30	0.245800	0.254000	0.830900
C531	C53	0.041700	0.268900	0.832500
C541	C54	0.092800	0.244300	0.080300
H311	H31	0.191700	0.243500	0.094600
H321	H32	0.062700	0.296100	0.051900
H331	H33	0.054400	0.233800	0.149000
C551	C55	0.046900	0.183400	0.998300
C561	C56	0.980100	0.124000	0.843100
C571	C57	0.942400	0.102800	0.726900
C581	C58	0.884500	0.132900	0.547600
H341	H34	0.874300	0.170200	0.489400
C591	C59	0.858300	0.055100	0.523500
H351	H35	0.824800	0.038800	0.451000
C601	C60	0.882200	0.001600	0.607800
H361	H36	0.866900	0.947300	0.593100
N161	N16	0.020500	0.195880	0.887500
N171	N17	0.022100	0.108720	0.019400
N181	N18	0.979500	0.071640	0.920900
N191	N19	0.926800	0.024980	0.710700
N201	N20	0.924400	0.158100	0.651100
O131	O13	0.852200	0.515000	0.715800
O141	O14	0.724100	0.407650	0.692900
O151	O15	0.343800	0.440480	0.672300
O161	O16	0.432000	0.345450	0.783700
Cu41	Cu4	0.955560	0.951500	0.841400
