data_TUPDOZ_clean_PM
_symmetry_space_group_name_H-M	'P1'
_cell_length_a	12.606500
_cell_length_b	10.137000
_cell_length_c	17.570100
_cell_angle_alpha	90.000000
_cell_angle_beta	90.000000
_cell_angle_gamma	90.000000
_symmetry_Int_Tables_number 1

loop_
_symmetry_equiv_pos_as_xyz
'x,y,z'

loop_
_atom_site_label
_atom_site_type_symbol
_atom_site_fract_x
_atom_site_fract_y
_atom_site_fract_z
O11	O1	0.853200	0.448400	0.914020
O21	O2	0.777000	0.266100	0.874700
N11	N1	0.032600	0.053100	0.163500
N21	N2	0.979400	0.958000	0.202500
N31	N3	0.135100	0.997900	0.257600
C11	C1	0.837900	0.324300	0.919000
C21	C2	0.892900	0.251900	0.980500
C31	C3	0.977000	0.304600	0.018300
H11	H1	0.003700	0.385800	0.002900
C41	C4	0.024800	0.239600	0.080100
H21	H2	0.081400	0.277400	0.106200
C51	C5	0.985500	0.119000	0.100900
C61	C6	0.901100	0.064600	0.063800
H31	H3	0.873900	0.983700	0.079300
C71	C7	0.856600	0.130800	0.002900
H41	H4	0.800600	0.092200	0.976600
C81	C8	0.044000	0.927600	0.257400
H51	H5	0.028900	0.863000	0.293400
C91	C9	0.124500	0.075800	0.197000
H61	H6	0.174500	0.137100	0.180700
O31	O3	0.646800	0.551600	0.914020
O41	O4	0.723000	0.733900	0.874700
N41	N4	0.467400	0.946900	0.163500
N51	N5	0.520600	0.042000	0.202500
N61	N6	0.364900	0.002100	0.257600
C101	C10	0.662100	0.675700	0.919000
C111	C11	0.607100	0.748100	0.980500
C121	C12	0.523000	0.695400	0.018300
H71	H7	0.496300	0.614200	0.002900
C131	C13	0.475200	0.760400	0.080100
H81	H8	0.418600	0.722600	0.106200
C141	C14	0.514500	0.881000	0.100900
C151	C15	0.598900	0.935400	0.063800
H91	H9	0.626100	0.016300	0.079300
C161	C16	0.643400	0.869200	0.002900
H101	H10	0.699400	0.907800	0.976600
C171	C17	0.456000	0.072400	0.257400
H111	H11	0.471100	0.137000	0.293400
C181	C18	0.375500	0.924200	0.197000
H121	H12	0.325500	0.862900	0.180700
O51	O5	0.353200	0.051600	0.414020
O61	O6	0.277000	0.233900	0.374700
N71	N7	0.532600	0.446900	0.663500
N81	N8	0.479400	0.542000	0.702500
N91	N9	0.635100	0.502100	0.757600
C191	C19	0.337900	0.175700	0.419000
C201	C20	0.392900	0.248100	0.480500
C211	C21	0.477000	0.195400	0.518300
H131	H13	0.503700	0.114200	0.502900
C221	C22	0.524800	0.260400	0.580100
H141	H14	0.581400	0.222600	0.606200
C231	C23	0.485500	0.381000	0.600900
C241	C24	0.401100	0.435400	0.563800
H151	H15	0.373900	0.516300	0.579300
C251	C25	0.356600	0.369200	0.502900
H161	H16	0.300600	0.407800	0.476600
C261	C26	0.544000	0.572400	0.757400
H171	H17	0.528900	0.637000	0.793400
C271	C27	0.624500	0.424200	0.697000
H181	H18	0.674500	0.362900	0.680700
O71	O7	0.146800	0.948400	0.414020
O81	O8	0.223000	0.766100	0.374700
N101	N10	0.967400	0.553100	0.663500
N111	N11	0.020600	0.458000	0.702500
N121	N12	0.864900	0.497900	0.757600
C281	C28	0.162100	0.824300	0.419000
C291	C29	0.107100	0.751900	0.480500
C301	C30	0.023000	0.804600	0.518300
H191	H19	0.996300	0.885800	0.502900
C311	C31	0.975200	0.739600	0.580100
H201	H20	0.918600	0.777400	0.606200
C321	C32	0.014500	0.619000	0.600900
C331	C33	0.098900	0.564600	0.563800
H211	H21	0.126100	0.483700	0.579300
C341	C34	0.143400	0.630800	0.502900
H221	H22	0.199400	0.592200	0.476600
C351	C35	0.956000	0.427600	0.757400
H231	H23	0.971100	0.363000	0.793400
C361	C36	0.875500	0.575800	0.697000
H241	H24	0.825500	0.637100	0.680700
Cu11	Cu1	0.750000	0.500000	0.834720
Cu21	Cu2	0.250000	0.000000	0.334720
O91	O9	0.646800	0.948400	0.585980
O101	O10	0.723000	0.766100	0.625300
N131	N13	0.467400	0.553100	0.336500
N141	N14	0.520600	0.458000	0.297500
N151	N15	0.364900	0.497900	0.242400
C371	C37	0.662100	0.824300	0.581000
C381	C38	0.607100	0.751900	0.519500
C391	C39	0.523000	0.804600	0.481700
H251	H25	0.496300	0.885800	0.497100
C401	C40	0.475200	0.739600	0.419900
H261	H26	0.418600	0.777400	0.393800
C411	C41	0.514500	0.619000	0.399100
C421	C42	0.598900	0.564600	0.436200
H271	H27	0.626100	0.483700	0.420700
C431	C43	0.643400	0.630800	0.497100
H281	H28	0.699400	0.592200	0.523400
C441	C44	0.456000	0.427600	0.242600
H291	H29	0.471100	0.363000	0.206600
C451	C45	0.375500	0.575800	0.303000
H301	H30	0.325500	0.637100	0.319300
O111	O11	0.853200	0.051600	0.585980
O121	O12	0.777000	0.233900	0.625300
N161	N16	0.032600	0.446900	0.336500
N171	N17	0.979400	0.542000	0.297500
N181	N18	0.135100	0.502100	0.242400
C461	C46	0.837900	0.175700	0.581000
C471	C47	0.892900	0.248100	0.519500
C481	C48	0.977000	0.195400	0.481700
H311	H31	0.003700	0.114200	0.497100
C491	C49	0.024800	0.260400	0.419900
H321	H32	0.081400	0.222600	0.393800
C501	C50	0.985500	0.381000	0.399100
C511	C51	0.901100	0.435400	0.436200
H331	H33	0.873900	0.516300	0.420700
C521	C52	0.856600	0.369200	0.497100
H341	H34	0.800600	0.407800	0.523400
C531	C53	0.044000	0.572400	0.242600
H351	H35	0.028900	0.637000	0.206600
C541	C54	0.124500	0.424200	0.303000
H361	H36	0.174500	0.362900	0.319300
O131	O13	0.146800	0.551600	0.085980
O141	O14	0.223000	0.733900	0.125300
N191	N19	0.967400	0.946900	0.836500
N201	N20	0.020600	0.042000	0.797500
N211	N21	0.864900	0.002100	0.742400
C551	C55	0.162100	0.675700	0.081000
C561	C56	0.107100	0.748100	0.019500
C571	C57	0.023000	0.695400	0.981700
H371	H37	0.996300	0.614200	0.997100
C581	C58	0.975200	0.760400	0.919900
H381	H38	0.918600	0.722600	0.893800
C591	C59	0.014500	0.881000	0.899100
C601	C60	0.098900	0.935400	0.936200
H391	H39	0.126100	0.016300	0.920700
C611	C61	0.143400	0.869200	0.997100
H401	H40	0.199400	0.907800	0.023400
C621	C62	0.956000	0.072400	0.742600
H411	H41	0.971100	0.137000	0.706600
C631	C63	0.875500	0.924200	0.803000
H421	H42	0.825500	0.862900	0.819300
O151	O15	0.353200	0.448400	0.085980
O161	O16	0.277000	0.266100	0.125300
N221	N22	0.532600	0.053100	0.836500
N231	N23	0.479400	0.958000	0.797500
N241	N24	0.635100	0.997900	0.742400
C641	C64	0.337900	0.324300	0.081000
C651	C65	0.392900	0.251900	0.019500
C661	C66	0.477000	0.304600	0.981700
H431	H43	0.503700	0.385800	0.997100
C671	C67	0.524800	0.239600	0.919900
H441	H44	0.581400	0.277400	0.893800
C681	C68	0.485500	0.119000	0.899100
C691	C69	0.401100	0.064600	0.936200
H451	H45	0.373900	0.983700	0.920700
C701	C70	0.356600	0.130800	0.997100
H461	H46	0.300600	0.092200	0.023400
C711	C71	0.544000	0.927600	0.742600
H471	H47	0.528900	0.863000	0.706600
C721	C72	0.624500	0.075800	0.803000
H481	H48	0.674500	0.137100	0.819300
Cu31	Cu3	0.750000	0.000000	0.665280
Cu41	Cu4	0.250000	0.500000	0.165280
