data_TURDOB_clean_PM
_symmetry_space_group_name_H-M	'P1'
_cell_length_a	11.446300
_cell_length_b	24.652800
_cell_length_c	20.325600
_cell_angle_alpha	90.000000
_cell_angle_beta	92.694800
_cell_angle_gamma	90.000000
_symmetry_Int_Tables_number 1

loop_
_symmetry_equiv_pos_as_xyz
'x,y,z'

loop_
_atom_site_label
_atom_site_type_symbol
_atom_site_fract_x
_atom_site_fract_y
_atom_site_fract_z
Co11	Co1	0.438820	0.190400	0.267300
Co21	Co2	0.441190	0.266070	0.014500
Co31	Co3	0.464460	0.186210	0.762660
Co41	Co4	0.425790	0.271850	0.512470
N11	N1	0.628400	0.191000	0.267200
N21	N2	0.249600	0.183800	0.269900
O11	O1	0.432200	0.162330	0.173200
O21	O2	0.442400	0.225750	0.359000
O31	O3	0.457500	0.161490	0.666400
N31	N3	0.631000	0.267400	0.013900
O41	O4	0.451900	0.235280	0.109600
O51	O5	0.414600	0.300620	0.417700
N41	N4	0.235300	0.277500	0.513400
N51	N5	0.249700	0.271500	0.015000
O61	O6	0.441500	0.236850	0.606600
C11	C1	0.674800	0.275800	0.454000
H11	H1	0.632000	0.272600	0.413000
N61	N6	0.273300	0.179300	0.761100
O71	O7	0.433000	0.276320	0.245800
H21	H2	0.503000	0.280000	0.233000
C21	C2	0.070900	0.262000	0.071500
H31	H3	0.034100	0.253200	0.111100
N71	N7	0.615500	0.277000	0.509400
C31	C3	0.192000	0.259400	0.069000
H41	H4	0.236100	0.248600	0.107600
C41	C4	0.190800	0.196700	0.324200
H51	H5	0.235100	0.206600	0.363100
C51	C5	0.070800	0.196300	0.326400
H61	H6	0.034500	0.204900	0.366100
C61	C6	0.094900	0.190800	0.815200
H71	H7	0.057400	0.200500	0.854200
O81	O8	0.409200	0.184600	0.495000
C71	C7	0.182100	0.168400	0.216800
H81	H8	0.220500	0.157300	0.178600
C81	C8	0.064900	0.291700	0.960300
H91	H9	0.023200	0.303700	0.921500
C91	C9	0.186100	0.288500	0.961700
H101	H10	0.225500	0.298700	0.923500
C101	C10	0.003900	0.277300	0.015700
C111	C11	0.209600	0.160900	0.708000
H111	H11	0.249800	0.148900	0.670900
C121	C12	0.424500	0.275700	0.364200
C131	C13	0.811200	0.177100	0.326500
H121	H12	0.852400	0.169600	0.367200
C141	C14	0.860900	0.283900	0.512800
C151	C15	0.176300	0.259500	0.564400
H131	H13	0.219400	0.244400	0.601100
C161	C16	0.050900	0.304900	0.462800
H141	H14	0.009500	0.321600	0.426600
C171	C17	0.088200	0.158700	0.705200
H151	H15	0.046900	0.146200	0.666500
C181	C18	0.214300	0.192500	0.813900
H161	H16	0.257400	0.203700	0.852600
C191	C19	0.691600	0.180500	0.323600
H171	H17	0.651300	0.175300	0.362900
C201	C20	0.447100	0.186700	0.613200
C211	C21	0.028000	0.174900	0.759400
C221	C22	0.435900	0.151000	0.550500
H181	H18	0.370000	0.124900	0.555300
C231	C23	0.002600	0.183000	0.270100
C241	C24	0.415900	0.310300	0.301400
H191	H19	0.480100	0.337900	0.304100
C251	C25	0.796400	0.279000	0.454000
H201	H20	0.834700	0.277900	0.413600
C261	C26	0.872400	0.184900	0.269300
C271	C27	0.062500	0.167500	0.214100
H211	H21	0.020300	0.156600	0.175000
C281	C28	0.991100	0.283800	0.514600
C291	C29	0.172700	0.301300	0.464200
H221	H22	0.212900	0.316400	0.428700
C301	C30	0.056300	0.261900	0.566400
H231	H23	0.018600	0.248200	0.603700
C311	C31	0.677400	0.283500	0.565600
H241	H24	0.636400	0.286000	0.605000
N81	N8	0.455500	0.109500	0.303400
N91	N9	0.550400	0.846000	0.945400
C321	C32	0.436500	0.186000	0.118600
C331	C33	0.299800	0.340200	0.295000
O91	O9	0.425900	0.179430	0.000100
H251	H25	0.358000	0.178000	0.978000
O101	O10	0.469000	0.272770	0.747200
H261	H26	0.523000	0.290000	0.727000
O111	O11	0.466300	0.218660	0.857600
C341	C34	0.500400	0.007100	0.359000
C351	C35	0.547400	0.022600	0.299700
H271	H27	0.595700	0.998300	0.277000
C361	C36	0.409400	0.094500	0.360100
H281	H28	0.360900	0.119600	0.381400
C371	C37	0.810100	0.259800	0.959000
H291	H29	0.848500	0.250900	0.920000
C381	C38	0.899500	0.175400	0.759000
C391	C39	0.839200	0.166900	0.817400
H301	H30	0.881000	0.158500	0.857500
C401	C40	0.691400	0.256100	0.960400
H311	H31	0.648900	0.245000	0.921400
C411	C41	0.443800	0.305000	0.803100
H321	H32	0.505100	0.333700	0.808800
C421	C42	0.693500	0.284700	0.067800
H331	H33	0.652800	0.294500	0.105700
C431	C43	0.325100	0.332200	0.793600
C441	C44	0.241600	0.313700	0.747500
H341	H34	0.260600	0.284900	0.718900
C451	C45	0.509600	0.002600	0.857000
C461	C46	0.512100	0.944000	0.455800
H351	H35	0.488500	0.972700	0.483500
C471	C47	0.477800	0.936300	0.947400
H361	H36	0.434600	0.963000	0.969600
C481	C48	0.131400	0.336400	0.742300
H371	H37	0.074700	0.322400	0.711100
C491	C49	0.532400	0.893500	0.481500
H381	H38	0.522100	0.888200	0.527100
C501	C50	0.500800	0.010200	0.789600
H391	H39	0.506100	0.980100	0.760700
N101	N10	0.477600	0.105800	0.802400
C511	C51	0.581500	0.860100	0.383300
H401	H40	0.607200	0.830700	0.357400
C521	C52	0.484100	0.061600	0.764700
H411	H41	0.476900	0.065900	0.718200
C531	C53	0.493900	0.885600	0.974900
H421	H42	0.463200	0.878600	0.016600
C541	C54	0.585400	0.907300	0.856500
H431	H43	0.618900	0.913400	0.815300
N111	N11	0.565700	0.851600	0.446200
C551	C55	0.562300	0.910000	0.353000
H441	H44	0.574300	0.914000	0.307300
O121	O12	0.435900	0.292150	0.918600
C561	C56	0.596100	0.857200	0.886900
H451	H45	0.637600	0.829400	0.865600
C571	C57	0.205000	0.319500	0.258400
H461	H46	0.213900	0.287300	0.233600
N121	N12	0.653900	0.182200	0.759900
C581	C58	0.547900	0.119000	0.544000
C591	C59	0.874400	0.276400	0.014700
C601	C60	0.097100	0.345300	0.257400
H471	H47	0.032900	0.330300	0.232300
C611	C61	0.448600	0.269100	0.864400
C621	C62	0.718900	0.171000	0.815000
H481	H48	0.679700	0.165500	0.854700
C631	C63	0.103400	0.379100	0.782000
H491	H49	0.027900	0.395100	0.778200
C641	C64	0.186400	0.398400	0.827400
H501	H50	0.167500	0.427800	0.855200
C651	C65	0.813000	0.288700	0.070500
H511	H51	0.853700	0.299700	0.110100
C661	C66	0.524800	0.948500	0.887200
C671	C67	0.807000	0.194500	0.211000
H521	H52	0.844400	0.198900	0.170600
C681	C68	0.830700	0.181900	0.702200
H531	H53	0.865600	0.183300	0.660800
C691	C69	0.490700	0.098200	0.867400
H541	H54	0.488400	0.129100	0.895300
C701	C70	0.688200	0.197500	0.212900
H551	H55	0.645000	0.204700	0.172800
C711	C71	0.523100	0.073300	0.274400
H561	H56	0.556200	0.083200	0.234000
C721	C72	0.297000	0.375500	0.833400
H571	H57	0.353500	0.389500	0.864700
C731	C73	0.712800	0.186300	0.705400
H581	H58	0.668900	0.192800	0.665400
C741	C74	0.798200	0.286800	0.570300
H591	H59	0.838100	0.291100	0.612000
C751	C75	0.525900	0.953600	0.389000
C761	C76	0.638800	0.140200	0.511300
H601	H60	0.629700	0.174400	0.490200
C771	C77	0.428800	0.044300	0.388900
H611	H61	0.393500	0.035300	0.428800
C781	C78	0.507300	0.048100	0.896000
H621	H62	0.517000	0.045000	0.942600
C791	C79	0.421100	0.148200	0.058700
H631	H63	0.341900	0.131100	0.059500
C801	C80	0.511800	0.103600	0.063800
C811	C81	0.179100	0.415100	0.326300
H641	H64	0.171000	0.448900	0.348000
C821	C82	0.625400	0.114800	0.053300
H651	H65	0.648000	0.150100	0.040000
C831	C83	0.285800	0.389000	0.328300
H661	H66	0.350400	0.404400	0.352600
C841	C84	0.082500	0.391500	0.292000
H671	H67	0.007500	0.407900	0.293000
C851	C85	0.759600	0.064000	0.538200
H681	H68	0.831800	0.045100	0.537100
C861	C86	0.559400	0.069500	0.573200
H691	H69	0.496100	0.053700	0.594900
C871	C87	0.666500	0.042400	0.570600
H701	H70	0.675600	0.008200	0.591700
C881	C88	0.479800	0.052600	0.084200
H711	H71	0.400200	0.046100	0.092800
C891	C89	0.671200	0.021900	0.081400
H721	H72	0.726700	0.993400	0.086500
C901	C90	0.710200	0.073000	0.062700
H731	H73	0.790700	0.079700	0.056400
C911	C91	0.558300	0.011100	0.092400
H741	H74	0.534300	0.976000	0.105500
C921	C92	0.745100	0.112600	0.508400
H751	H75	0.807300	0.128000	0.485300
H761	H76	0.342300	0.186000	0.477200
Co51	Co5	0.561180	0.690400	0.732700
Co61	Co6	0.558810	0.766070	0.985500
Co71	Co7	0.535540	0.686210	0.237340
Co81	Co8	0.574210	0.771850	0.487530
N131	N13	0.371600	0.691000	0.732800
N141	N14	0.750400	0.683800	0.730100
O131	O13	0.567800	0.662330	0.826800
O141	O14	0.557600	0.725750	0.641000
O151	O15	0.542500	0.661490	0.333600
N151	N15	0.369000	0.767400	0.986100
O161	O16	0.548100	0.735280	0.890400
O171	O17	0.585400	0.800620	0.582300
N161	N16	0.764700	0.777500	0.486600
N171	N17	0.750300	0.771500	0.985000
O181	O18	0.558500	0.736850	0.393400
C931	C93	0.325200	0.775800	0.546000
H771	H77	0.368000	0.772600	0.587000
N181	N18	0.726700	0.679300	0.238900
O191	O19	0.567000	0.776320	0.754200
H781	H78	0.497000	0.780000	0.767000
C941	C94	0.929100	0.762000	0.928500
H791	H79	0.965900	0.753200	0.888900
N191	N19	0.384500	0.777000	0.490600
C951	C95	0.808000	0.759400	0.931000
H801	H80	0.763900	0.748600	0.892400
C961	C96	0.809200	0.696700	0.675800
H811	H81	0.764900	0.706600	0.636900
C971	C97	0.929200	0.696300	0.673600
H821	H82	0.965500	0.704900	0.633900
C981	C98	0.905100	0.690800	0.184800
H831	H83	0.942600	0.700500	0.145800
O201	O20	0.590800	0.684600	0.505000
C991	C99	0.817900	0.668400	0.783200
H841	H84	0.779500	0.657300	0.821400
C1001	C100	0.935100	0.791700	0.039700
H851	H85	0.976800	0.803700	0.078500
C1011	C101	0.813900	0.788500	0.038300
H861	H86	0.774500	0.798700	0.076500
C1021	C102	0.996100	0.777300	0.984300
C1031	C103	0.790400	0.660900	0.292000
H871	H87	0.750200	0.648900	0.329100
C1041	C104	0.575500	0.775700	0.635800
C1051	C105	0.188800	0.677100	0.673500
H881	H88	0.147600	0.669600	0.632800
C1061	C106	0.139100	0.783900	0.487200
C1071	C107	0.823700	0.759500	0.435600
H891	H89	0.780600	0.744400	0.398900
C1081	C108	0.949100	0.804900	0.537200
H901	H90	0.990500	0.821600	0.573400
C1091	C109	0.911800	0.658700	0.294800
H911	H91	0.953100	0.646200	0.333500
C1101	C110	0.785700	0.692500	0.186100
H921	H92	0.742600	0.703700	0.147400
C1111	C111	0.308400	0.680500	0.676400
H931	H93	0.348700	0.675300	0.637100
C1121	C112	0.552900	0.686700	0.386800
C1131	C113	0.972000	0.674900	0.240600
C1141	C114	0.564100	0.651000	0.449500
H941	H94	0.630000	0.624900	0.444700
C1151	C115	0.997400	0.683000	0.729900
C1161	C116	0.584100	0.810300	0.698600
H951	H95	0.519900	0.837900	0.695900
C1171	C117	0.203600	0.779000	0.546000
H961	H96	0.165300	0.777900	0.586400
C1181	C118	0.127600	0.684900	0.730700
C1191	C119	0.937500	0.667500	0.785900
H971	H97	0.979700	0.656600	0.825000
C1201	C120	0.008900	0.783800	0.485400
C1211	C121	0.827300	0.801300	0.535800
H981	H98	0.787100	0.816400	0.571300
C1221	C122	0.943700	0.761900	0.433600
H991	H99	0.981400	0.748200	0.396300
C1231	C123	0.322600	0.783500	0.434400
H1001	H100	0.363600	0.786000	0.395000
N201	N20	0.544500	0.609500	0.696600
N211	N21	0.449600	0.346000	0.054600
C1241	C124	0.563500	0.686000	0.881400
C1251	C125	0.700200	0.840200	0.705000
O211	O21	0.574100	0.679430	0.999900
H1011	H101	0.642000	0.678000	0.022000
O221	O22	0.531000	0.772770	0.252800
H1021	H102	0.477000	0.790000	0.273000
O231	O23	0.533700	0.718660	0.142400
C1261	C126	0.499600	0.507100	0.641000
C1271	C127	0.452600	0.522600	0.700300
H1031	H103	0.404300	0.498300	0.723000
C1281	C128	0.590600	0.594500	0.639900
H1041	H104	0.639100	0.619600	0.618600
C1291	C129	0.189900	0.759800	0.041000
H1051	H105	0.151500	0.750900	0.080000
C1301	C130	0.100500	0.675400	0.241000
C1311	C131	0.160800	0.666900	0.182600
H1061	H106	0.119000	0.658500	0.142500
C1321	C132	0.308600	0.756100	0.039600
H1071	H107	0.351100	0.745000	0.078600
C1331	C133	0.556200	0.805000	0.196900
H1081	H108	0.494900	0.833700	0.191200
C1341	C134	0.306500	0.784700	0.932200
H1091	H109	0.347200	0.794500	0.894300
C1351	C135	0.674900	0.832200	0.206400
C1361	C136	0.758400	0.813700	0.252500
H1101	H110	0.739400	0.784900	0.281100
C1371	C137	0.490400	0.502600	0.143000
C1381	C138	0.487900	0.444000	0.544200
H1111	H111	0.511500	0.472700	0.516500
C1391	C139	0.522200	0.436300	0.052600
H1121	H112	0.565400	0.463000	0.030400
C1401	C140	0.868600	0.836400	0.257700
H1131	H113	0.925300	0.822400	0.288900
C1411	C141	0.467600	0.393500	0.518500
H1141	H114	0.477900	0.388200	0.472900
C1421	C142	0.499200	0.510200	0.210400
H1151	H115	0.493900	0.480100	0.239300
N221	N22	0.522400	0.605800	0.197600
C1431	C143	0.418500	0.360100	0.616700
H1161	H116	0.392800	0.330700	0.642600
C1441	C144	0.515900	0.561600	0.235300
H1171	H117	0.523100	0.565900	0.281800
C1451	C145	0.506100	0.385600	0.025100
H1181	H118	0.536800	0.378600	0.983400
C1461	C146	0.414600	0.407300	0.143500
H1191	H119	0.381100	0.413400	0.184700
N231	N23	0.434300	0.351600	0.553800
C1471	C147	0.437700	0.410000	0.647000
H1201	H120	0.425700	0.414000	0.692700
O241	O24	0.564100	0.792150	0.081400
C1481	C148	0.403900	0.357200	0.113100
H1211	H121	0.362400	0.329400	0.134400
C1491	C149	0.795000	0.819500	0.741600
H1221	H122	0.786100	0.787300	0.766400
N241	N24	0.346100	0.682200	0.240100
C1501	C150	0.452100	0.619000	0.456000
C1511	C151	0.125600	0.776400	0.985300
C1521	C152	0.902900	0.845300	0.742600
H1231	H123	0.967100	0.830300	0.767700
C1531	C153	0.551400	0.769100	0.135600
C1541	C154	0.281100	0.671000	0.185000
H1241	H124	0.320300	0.665500	0.145300
C1551	C155	0.896600	0.879100	0.218000
H1251	H125	0.972100	0.895100	0.221800
C1561	C156	0.813600	0.898400	0.172600
H1261	H126	0.832500	0.927800	0.144800
C1571	C157	0.187000	0.788700	0.929500
H1271	H127	0.146300	0.799700	0.889900
C1581	C158	0.475200	0.448500	0.112800
C1591	C159	0.193000	0.694500	0.789000
H1281	H128	0.155600	0.698900	0.829400
C1601	C160	0.169300	0.681900	0.297800
H1291	H129	0.134400	0.683300	0.339200
C1611	C161	0.509300	0.598200	0.132600
H1301	H130	0.511600	0.629100	0.104700
C1621	C162	0.311800	0.697500	0.787100
H1311	H131	0.355000	0.704700	0.827200
C1631	C163	0.476900	0.573300	0.725600
H1321	H132	0.443800	0.583200	0.766000
C1641	C164	0.703000	0.875500	0.166600
H1331	H133	0.646500	0.889500	0.135300
C1651	C165	0.287200	0.686300	0.294600
H1341	H134	0.331100	0.692800	0.334600
C1661	C166	0.201800	0.786800	0.429700
H1351	H135	0.161900	0.791100	0.388000
C1671	C167	0.474100	0.453600	0.611000
C1681	C168	0.361200	0.640200	0.488700
H1361	H136	0.370300	0.674400	0.509800
C1691	C169	0.571200	0.544300	0.611100
H1371	H137	0.606500	0.535300	0.571200
C1701	C170	0.492700	0.548100	0.104000
H1381	H138	0.483000	0.545000	0.057400
C1711	C171	0.578900	0.648200	0.941300
H1391	H139	0.658100	0.631100	0.940500
C1721	C172	0.488200	0.603600	0.936200
C1731	C173	0.820900	0.915100	0.673700
H1401	H140	0.829000	0.948900	0.652000
C1741	C174	0.374600	0.614800	0.946700
H1411	H141	0.352000	0.650100	0.960000
C1751	C175	0.714200	0.889000	0.671700
H1421	H142	0.649600	0.904400	0.647400
C1761	C176	0.917500	0.891500	0.708000
H1431	H143	0.992500	0.907900	0.707000
C1771	C177	0.240400	0.564000	0.461800
H1441	H144	0.168200	0.545100	0.462900
C1781	C178	0.440600	0.569500	0.426800
H1451	H145	0.503900	0.553700	0.405100
C1791	C179	0.333500	0.542400	0.429400
H1461	H146	0.324400	0.508200	0.408300
C1801	C180	0.520200	0.552600	0.915800
H1471	H147	0.599800	0.546100	0.907200
C1811	C181	0.328800	0.521900	0.918600
H1481	H148	0.273300	0.493400	0.913500
C1821	C182	0.289800	0.573000	0.937300
H1491	H149	0.209300	0.579700	0.943600
C1831	C183	0.441700	0.511100	0.907600
H1501	H150	0.465700	0.476000	0.894500
C1841	C184	0.254900	0.612600	0.491600
H1511	H151	0.192700	0.628000	0.514700
H1521	H152	0.657700	0.686000	0.522800
