data_TURFAP_clean_PM
_symmetry_space_group_name_H-M	'P1'
_cell_length_a	10.220800
_cell_length_b	23.966000
_cell_length_c	11.428600
_cell_angle_alpha	90.000000
_cell_angle_beta	91.711400
_cell_angle_gamma	90.000000
_symmetry_Int_Tables_number 1

loop_
_symmetry_equiv_pos_as_xyz
'x,y,z'

loop_
_atom_site_label
_atom_site_type_symbol
_atom_site_fract_x
_atom_site_fract_y
_atom_site_fract_z
Co11	Co1	0.995980	0.660510	0.580530
Co21	Co2	0.493380	0.741610	0.561910
O11	O1	0.305800	0.707600	0.561600
O21	O2	0.808000	0.694100	0.569400
O31	O3	0.185000	0.631500	0.585200
O41	O4	0.682500	0.770500	0.563500
N11	N1	0.995700	0.653700	0.771500
N21	N2	0.492700	0.748800	0.751400
N31	N3	0.496900	0.742800	0.371900
C11	C1	0.106600	0.660200	0.327500
H11	H1	0.186500	0.667500	0.369200
N41	N4	0.000600	0.655000	0.389900
C21	C2	0.384100	0.736600	0.810600
H21	H2	0.307000	0.725900	0.767900
C31	C3	0.604100	0.736600	0.311700
H31	H3	0.683600	0.729100	0.353900
C41	C4	0.112000	0.656000	0.208700
H41	H4	0.192300	0.660000	0.169800
C51	C5	0.608000	0.740500	0.190600
H51	H5	0.687700	0.735500	0.151300
C61	C6	0.883300	0.662600	0.950900
H61	H6	0.805000	0.672100	0.989100
O51	O5	0.527700	0.652300	0.559400
H71	H7	0.537000	0.651000	0.483100
C71	C7	0.996500	0.645900	0.147500
O61	O6	0.025000	0.750700	0.593000
H81	H8	0.077000	0.771000	0.639000
C81	C8	0.291600	0.656200	0.576000
N51	N5	0.088100	0.079000	0.425500
C91	C9	0.991400	0.645200	0.016700
C101	C10	0.214700	0.071900	0.402900
H91	H9	0.261900	0.102400	0.371700
C111	C11	0.381000	0.739100	0.932200
H101	H10	0.301400	0.731600	0.970000
C121	C12	0.887500	0.666500	0.831000
H111	H11	0.811400	0.678500	0.788400
C131	C13	0.386000	0.754200	0.310300
H121	H12	0.307600	0.759600	0.351400
C141	C14	0.890200	0.642800	0.330600
H131	H13	0.812800	0.637300	0.373200
C151	C15	0.492900	0.751700	0.129000
C161	C16	0.790300	0.745900	0.566100
N61	N6	0.413500	0.823500	0.546900
C171	C17	0.599400	0.764300	0.815200
H141	H14	0.675800	0.774300	0.774600
C181	C18	0.604800	0.766700	0.936300
H151	H15	0.683000	0.777900	0.976900
C191	C19	0.099300	0.628600	0.954000
H161	H16	0.174500	0.614100	0.994200
C201	C20	0.381400	0.758600	0.190400
H171	H17	0.300700	0.766300	0.150300
C211	C21	0.097400	0.633300	0.833300
H181	H18	0.172200	0.621400	0.792600
C221	C22	0.414100	0.618700	0.581600
H191	H19	0.405100	0.589800	0.518800
C231	C23	0.492000	0.752300	0.998800
C241	C24	0.282900	0.924000	0.494600
C251	C25	0.882800	0.637700	0.210700
H201	H20	0.802200	0.628700	0.171500
C261	C26	0.912700	0.783800	0.571200
H211	H21	0.904300	0.811100	0.636800
C271	C27	0.213900	0.976800	0.467000
C281	C28	0.279500	0.022300	0.422900
H221	H22	0.369800	0.019300	0.406400
C291	C29	0.235600	0.886300	0.575600
H231	H23	0.156500	0.893900	0.614400
C301	C30	0.427200	0.589500	0.698100
C311	C31	0.399600	0.909500	0.440700
H241	H24	0.436600	0.933900	0.385200
C321	C32	0.023400	0.033700	0.462500
H251	H25	0.931900	0.037000	0.473300
C331	C33	0.510800	0.586000	0.897900
H261	H26	0.567600	0.600700	0.957500
C341	C34	0.351500	0.542800	0.721800
H271	H27	0.297200	0.527200	0.661300
C351	C35	0.079800	0.984000	0.485300
H281	H28	0.029200	0.953900	0.513600
C361	C36	0.508900	0.610500	0.786300
H291	H29	0.563800	0.641500	0.771300
C371	C37	0.918600	0.816100	0.455300
C381	C38	0.460100	0.859800	0.468800
H301	H30	0.538800	0.850600	0.431100
C391	C39	0.999500	0.798700	0.367100
H311	H31	0.061100	0.769800	0.382300
C401	C40	0.432800	0.541400	0.922900
H321	H32	0.431700	0.526100	0.999600
C411	C41	0.353900	0.518800	0.831000
H331	H33	0.302100	0.486700	0.844900
C421	C42	0.838100	0.861000	0.437300
H341	H34	0.784700	0.873700	0.498400
C431	C43	0.834200	0.887900	0.330400
H351	H35	0.779000	0.919300	0.318100
C441	C44	0.304600	0.837900	0.599300
H361	H36	0.271900	0.813300	0.656700
C451	C45	0.991500	0.823700	0.254400
H371	H37	0.039900	0.809600	0.191000
C461	C46	0.911100	0.868700	0.241600
H381	H38	0.907800	0.887800	0.168700
Co31	Co3	0.004020	0.160510	0.419470
Co41	Co4	0.506620	0.241610	0.438090
O71	O7	0.694200	0.207600	0.438400
O81	O8	0.192000	0.194100	0.430600
O91	O9	0.815000	0.131500	0.414800
O101	O10	0.317500	0.270500	0.436500
N71	N7	0.004300	0.153700	0.228500
N81	N8	0.507300	0.248800	0.248600
N91	N9	0.503100	0.242800	0.628100
C471	C47	0.893400	0.160200	0.672500
H391	H39	0.813500	0.167500	0.630800
N101	N10	0.999400	0.155000	0.610100
C481	C48	0.615900	0.236600	0.189400
H401	H40	0.693000	0.225900	0.232100
C491	C49	0.395900	0.236600	0.688300
H411	H41	0.316400	0.229100	0.646100
C501	C50	0.888000	0.156000	0.791300
H421	H42	0.807700	0.160000	0.830200
C511	C51	0.392000	0.240500	0.809400
H431	H43	0.312300	0.235500	0.848700
C521	C52	0.116700	0.162600	0.049100
H441	H44	0.195000	0.172100	0.010900
O111	O11	0.472300	0.152300	0.440600
H451	H45	0.463000	0.151000	0.516900
C531	C53	0.003500	0.145900	0.852500
O121	O12	0.975000	0.250700	0.407000
H461	H46	0.923000	0.271000	0.361000
C541	C54	0.708400	0.156200	0.424000
N111	N11	0.911900	0.579000	0.574500
C551	C55	0.008600	0.145200	0.983300
C561	C56	0.785300	0.571900	0.597100
H471	H47	0.738100	0.602400	0.628300
C571	C57	0.619000	0.239100	0.067800
H481	H48	0.698600	0.231600	0.030000
C581	C58	0.112500	0.166500	0.169000
H491	H49	0.188600	0.178500	0.211600
C591	C59	0.614000	0.254200	0.689700
H501	H50	0.692400	0.259600	0.648600
C601	C60	0.109800	0.142800	0.669400
H511	H51	0.187200	0.137300	0.626800
C611	C61	0.507100	0.251700	0.871000
C621	C62	0.209700	0.245900	0.433900
N121	N12	0.586500	0.323500	0.453100
C631	C63	0.400600	0.264300	0.184800
H521	H52	0.324200	0.274300	0.225400
C641	C64	0.395200	0.266700	0.063700
H531	H53	0.317000	0.277900	0.023100
C651	C65	0.900700	0.128600	0.046000
H541	H54	0.825500	0.114100	0.005800
C661	C66	0.618600	0.258600	0.809600
H551	H55	0.699300	0.266300	0.849700
C671	C67	0.902600	0.133300	0.166700
H561	H56	0.827800	0.121400	0.207400
C681	C68	0.585900	0.118700	0.418400
H571	H57	0.594900	0.089800	0.481200
C691	C69	0.508000	0.252300	0.001200
C701	C70	0.717100	0.424000	0.505400
C711	C71	0.117200	0.137700	0.789300
H581	H58	0.197800	0.128700	0.828500
C721	C72	0.087300	0.283800	0.428800
H591	H59	0.095700	0.311100	0.363200
C731	C73	0.786100	0.476800	0.533000
C741	C74	0.720500	0.522300	0.577100
H601	H60	0.630200	0.519300	0.593600
C751	C75	0.764400	0.386300	0.424400
H611	H61	0.843500	0.393900	0.385600
C761	C76	0.572800	0.089500	0.301900
C771	C77	0.600400	0.409500	0.559300
H621	H62	0.563400	0.433900	0.614800
C781	C78	0.976600	0.533700	0.537500
H631	H63	0.068100	0.537000	0.526700
C791	C79	0.489200	0.086000	0.102100
H641	H64	0.432400	0.100700	0.042500
C801	C80	0.648500	0.042800	0.278200
H651	H65	0.702800	0.027200	0.338700
C811	C81	0.920200	0.484000	0.514700
H661	H66	0.970800	0.453900	0.486400
C821	C82	0.491100	0.110500	0.213700
H671	H67	0.436200	0.141500	0.228700
C831	C83	0.081400	0.316100	0.544700
C841	C84	0.539900	0.359800	0.531200
H681	H68	0.461200	0.350600	0.568900
C851	C85	0.000500	0.298700	0.632900
H691	H69	0.938900	0.269800	0.617700
C861	C86	0.567200	0.041400	0.077100
H701	H70	0.568300	0.026100	0.000400
C871	C87	0.646100	0.018800	0.169000
H711	H71	0.697900	0.986700	0.155100
C881	C88	0.161900	0.361000	0.562700
H721	H72	0.215300	0.373700	0.501600
C891	C89	0.165800	0.387900	0.669600
H731	H73	0.221000	0.419300	0.681900
C901	C90	0.695400	0.337900	0.400700
H741	H74	0.728100	0.313300	0.343300
C911	C91	0.008500	0.323700	0.745600
H751	H75	0.960100	0.309600	0.809000
C921	C92	0.088900	0.368700	0.758400
H761	H76	0.092200	0.387800	0.831300
