data_TUTHIA_clean_PM
_symmetry_space_group_name_H-M	'P1'
_cell_length_a	18.688000
_cell_length_b	15.052000
_cell_length_c	16.259000
_cell_angle_alpha	90.000000
_cell_angle_beta	113.104000
_cell_angle_gamma	90.000000
_symmetry_Int_Tables_number 1

loop_
_symmetry_equiv_pos_as_xyz
'x,y,z'

loop_
_atom_site_label
_atom_site_type_symbol
_atom_site_fract_x
_atom_site_fract_y
_atom_site_fract_z
Mn11	Mn1	0.220450	0.609250	0.951140
O11	O1	0.244100	0.633700	0.086800
O21	O2	0.211000	0.474800	0.334500
O31	O3	0.232700	0.543700	0.461200
O41	O4	0.302300	0.765800	0.111600
C11	C1	0.247600	0.627400	0.258600
H11	H1	0.229800	0.578100	0.221800
C21	C2	0.299100	0.774100	0.281500
H21	H2	0.317300	0.822700	0.260200
C31	C3	0.249300	0.627100	0.345500
C41	C4	0.229000	0.544300	0.381900
C51	C5	0.272100	0.700700	0.134800
C61	C6	0.272600	0.701300	0.228600
C71	C7	0.274900	0.701700	0.398900
C81	C8	0.437800	0.918100	0.407400
N11	N1	0.593500	0.902100	0.430300
N21	N2	0.324800	0.849400	0.424400
H31	H3	0.323200	0.848000	0.476500
C91	C9	0.354900	0.928800	0.396000
H41	H4	0.350700	0.979400	0.430800
H51	H5	0.323100	0.940800	0.333600
C101	C10	0.299100	0.776900	0.367900
C111	C11	0.546200	0.958200	0.374400
H61	H6	0.565800	0.994300	0.341600
C121	C12	0.489300	0.862000	0.469800
H71	H7	0.472300	0.827300	0.505900
C131	C13	0.468600	0.967800	0.360600
H81	H8	0.437700	0.008600	0.318800
C141	C14	0.564400	0.857000	0.479100
H91	H9	0.597500	0.819300	0.522800
Mn21	Mn2	0.720450	0.109250	0.951140
O51	O5	0.744100	0.133700	0.086800
O61	O6	0.711000	0.974800	0.334500
O71	O7	0.732700	0.043700	0.461200
O81	O8	0.802300	0.265800	0.111600
C151	C15	0.747600	0.127400	0.258600
H101	H10	0.729800	0.078100	0.221800
C161	C16	0.799100	0.274100	0.281500
H111	H11	0.817300	0.322700	0.260200
C171	C17	0.749300	0.127100	0.345500
C181	C18	0.729000	0.044300	0.381900
C191	C19	0.772100	0.200700	0.134800
C201	C20	0.772600	0.201300	0.228600
C211	C21	0.774900	0.201700	0.398900
C221	C22	0.937800	0.418100	0.407400
N31	N3	0.093500	0.402100	0.430300
N41	N4	0.824800	0.349400	0.424400
H121	H12	0.823200	0.348000	0.476500
C231	C23	0.854900	0.428800	0.396000
H131	H13	0.850700	0.479400	0.430800
H141	H14	0.823100	0.440800	0.333600
C241	C24	0.799100	0.276900	0.367900
C251	C25	0.046200	0.458200	0.374400
H151	H15	0.065800	0.494300	0.341600
C261	C26	0.989300	0.362000	0.469800
H161	H16	0.972300	0.327300	0.505900
C271	C27	0.968600	0.467800	0.360600
H171	H17	0.937700	0.508600	0.318800
C281	C28	0.064400	0.357000	0.479100
H181	H18	0.097500	0.319300	0.522800
Mn31	Mn3	0.779550	0.609250	0.548860
O91	O9	0.755900	0.633700	0.413200
O101	O10	0.789000	0.474800	0.165500
O111	O11	0.767300	0.543700	0.038800
O121	O12	0.697700	0.765800	0.388400
C291	C29	0.752400	0.627400	0.241400
H191	H19	0.770200	0.578100	0.278200
C301	C30	0.700900	0.774100	0.218500
H201	H20	0.682700	0.822700	0.239800
C311	C31	0.750700	0.627100	0.154500
C321	C32	0.771000	0.544300	0.118100
C331	C33	0.727900	0.700700	0.365200
C341	C34	0.727400	0.701300	0.271400
C351	C35	0.725100	0.701700	0.101100
C361	C36	0.562200	0.918100	0.092600
N51	N5	0.406500	0.902100	0.069700
N61	N6	0.675200	0.849400	0.075600
H211	H21	0.676800	0.848000	0.023500
C371	C37	0.645100	0.928800	0.104000
H221	H22	0.649300	0.979400	0.069200
H231	H23	0.676900	0.940800	0.166400
C381	C38	0.700900	0.776900	0.132100
C391	C39	0.453800	0.958200	0.125600
H241	H24	0.434200	0.994300	0.158400
C401	C40	0.510700	0.862000	0.030200
H251	H25	0.527700	0.827300	0.994100
C411	C41	0.531400	0.967800	0.139400
H261	H26	0.562300	0.008600	0.181200
C421	C42	0.435600	0.857000	0.020900
H271	H27	0.402500	0.819300	0.977200
Mn41	Mn4	0.279550	0.109250	0.548860
O131	O13	0.255900	0.133700	0.413200
O141	O14	0.289000	0.974800	0.165500
O151	O15	0.267300	0.043700	0.038800
O161	O16	0.197700	0.265800	0.388400
C431	C43	0.252400	0.127400	0.241400
H281	H28	0.270200	0.078100	0.278200
C441	C44	0.200900	0.274100	0.218500
H291	H29	0.182700	0.322700	0.239800
C451	C45	0.250700	0.127100	0.154500
C461	C46	0.271000	0.044300	0.118100
C471	C47	0.227900	0.200700	0.365200
C481	C48	0.227400	0.201300	0.271400
C491	C49	0.225100	0.201700	0.101100
C501	C50	0.062200	0.418100	0.092600
N71	N7	0.906500	0.402100	0.069700
N81	N8	0.175200	0.349400	0.075600
H301	H30	0.176800	0.348000	0.023500
C511	C51	0.145100	0.428800	0.104000
H311	H31	0.149300	0.479400	0.069200
H321	H32	0.176900	0.440800	0.166400
C521	C52	0.200900	0.276900	0.132100
C531	C53	0.953800	0.458200	0.125600
H331	H33	0.934200	0.494300	0.158400
C541	C54	0.010700	0.362000	0.030200
H341	H34	0.027700	0.327300	0.994100
C551	C55	0.031400	0.467800	0.139400
H351	H35	0.062300	0.508600	0.181200
C561	C56	0.935600	0.357000	0.020900
H361	H36	0.902500	0.319300	0.977200
Mn51	Mn5	0.779550	0.390750	0.048860
O171	O17	0.755900	0.366300	0.913200
O181	O18	0.789000	0.525200	0.665500
O191	O19	0.767300	0.456300	0.538800
O201	O20	0.697700	0.234200	0.888400
C571	C57	0.752400	0.372600	0.741400
H371	H37	0.770200	0.421900	0.778200
C581	C58	0.700900	0.225900	0.718500
H381	H38	0.682700	0.177300	0.739800
C591	C59	0.750700	0.372900	0.654500
C601	C60	0.771000	0.455700	0.618100
C611	C61	0.727900	0.299300	0.865200
C621	C62	0.727400	0.298700	0.771400
C631	C63	0.725100	0.298300	0.601100
C641	C64	0.562200	0.081900	0.592600
N91	N9	0.406500	0.097900	0.569700
N101	N10	0.675200	0.150600	0.575600
H391	H39	0.676800	0.152000	0.523500
C651	C65	0.645100	0.071200	0.604000
H401	H40	0.649300	0.020600	0.569200
H411	H41	0.676900	0.059200	0.666400
C661	C66	0.700900	0.223100	0.632100
C671	C67	0.453800	0.041800	0.625600
H421	H42	0.434200	0.005700	0.658400
C681	C68	0.510700	0.138000	0.530200
H431	H43	0.527700	0.172700	0.494100
C691	C69	0.531400	0.032200	0.639400
H441	H44	0.562300	0.991400	0.681200
C701	C70	0.435600	0.143000	0.520900
H451	H45	0.402500	0.180700	0.477200
Mn61	Mn6	0.279550	0.890750	0.048860
O211	O21	0.255900	0.866300	0.913200
O221	O22	0.289000	0.025200	0.665500
O231	O23	0.267300	0.956300	0.538800
O241	O24	0.197700	0.734200	0.888400
C711	C71	0.252400	0.872600	0.741400
H461	H46	0.270200	0.921900	0.778200
C721	C72	0.200900	0.725900	0.718500
H471	H47	0.182700	0.677300	0.739800
C731	C73	0.250700	0.872900	0.654500
C741	C74	0.271000	0.955700	0.618100
C751	C75	0.227900	0.799300	0.865200
C761	C76	0.227400	0.798700	0.771400
C771	C77	0.225100	0.798300	0.601100
C781	C78	0.062200	0.581900	0.592600
N111	N11	0.906500	0.597900	0.569700
N121	N12	0.175200	0.650600	0.575600
H481	H48	0.176800	0.652000	0.523500
C791	C79	0.145100	0.571200	0.604000
H491	H49	0.149300	0.520600	0.569200
H501	H50	0.176900	0.559200	0.666400
C801	C80	0.200900	0.723100	0.632100
C811	C81	0.953800	0.541800	0.625600
H511	H51	0.934200	0.505700	0.658400
C821	C82	0.010700	0.638000	0.530200
H521	H52	0.027700	0.672700	0.494100
C831	C83	0.031400	0.532200	0.639400
H531	H53	0.062300	0.491400	0.681200
C841	C84	0.935600	0.643000	0.520900
H541	H54	0.902500	0.680700	0.477200
Mn71	Mn7	0.220450	0.390750	0.451140
O251	O25	0.244100	0.366300	0.586800
O261	O26	0.211000	0.525200	0.834500
O271	O27	0.232700	0.456300	0.961200
O281	O28	0.302300	0.234200	0.611600
C851	C85	0.247600	0.372600	0.758600
H551	H55	0.229800	0.421900	0.721800
C861	C86	0.299100	0.225900	0.781500
H561	H56	0.317300	0.177300	0.760200
C871	C87	0.249300	0.372900	0.845500
C881	C88	0.229000	0.455700	0.881900
C891	C89	0.272100	0.299300	0.634800
C901	C90	0.272600	0.298700	0.728600
C911	C91	0.274900	0.298300	0.898900
C921	C92	0.437800	0.081900	0.907400
N131	N13	0.593500	0.097900	0.930300
N141	N14	0.324800	0.150600	0.924400
H571	H57	0.323200	0.152000	0.976500
C931	C93	0.354900	0.071200	0.896000
H581	H58	0.350700	0.020600	0.930800
H591	H59	0.323100	0.059200	0.833600
C941	C94	0.299100	0.223100	0.867900
C951	C95	0.546200	0.041800	0.874400
H601	H60	0.565800	0.005700	0.841600
C961	C96	0.489300	0.138000	0.969800
H611	H61	0.472300	0.172700	0.005900
C971	C97	0.468600	0.032200	0.860600
H621	H62	0.437700	0.991400	0.818800
C981	C98	0.564400	0.143000	0.979100
H631	H63	0.597500	0.180700	0.022800
Mn81	Mn8	0.720450	0.890750	0.451140
O291	O29	0.744100	0.866300	0.586800
O301	O30	0.711000	0.025200	0.834500
O311	O31	0.732700	0.956300	0.961200
O321	O32	0.802300	0.734200	0.611600
C991	C99	0.747600	0.872600	0.758600
H641	H64	0.729800	0.921900	0.721800
C1001	C100	0.799100	0.725900	0.781500
H651	H65	0.817300	0.677300	0.760200
C1011	C101	0.749300	0.872900	0.845500
C1021	C102	0.729000	0.955700	0.881900
C1031	C103	0.772100	0.799300	0.634800
C1041	C104	0.772600	0.798700	0.728600
C1051	C105	0.774900	0.798300	0.898900
C1061	C106	0.937800	0.581900	0.907400
N151	N15	0.093500	0.597900	0.930300
N161	N16	0.824800	0.650600	0.924400
H661	H66	0.823200	0.652000	0.976500
C1071	C107	0.854900	0.571200	0.896000
H671	H67	0.850700	0.520600	0.930800
H681	H68	0.823100	0.559200	0.833600
C1081	C108	0.799100	0.723100	0.867900
C1091	C109	0.046200	0.541800	0.874400
H691	H69	0.065800	0.505700	0.841600
C1101	C110	0.989300	0.638000	0.969800
H701	H70	0.972300	0.672700	0.005900
C1111	C111	0.968600	0.532200	0.860600
H711	H71	0.937700	0.491400	0.818800
C1121	C112	0.064400	0.643000	0.979100
H721	H72	0.097500	0.680700	0.022800
