data_TUTHOG_clean_PM
_symmetry_space_group_name_H-M	'P1'
_cell_length_a	11.947400
_cell_length_b	11.947400
_cell_length_c	16.246000
_cell_angle_alpha	72.265300
_cell_angle_beta	72.265300
_cell_angle_gamma	77.799700
_symmetry_Int_Tables_number 1

loop_
_symmetry_equiv_pos_as_xyz
'x,y,z'

loop_
_atom_site_label
_atom_site_type_symbol
_atom_site_fract_x
_atom_site_fract_y
_atom_site_fract_z
Mn11	Mn1	0.833140	0.613040	0.047520
Mn21	Mn2	0.386960	0.166860	0.452480
Mn31	Mn3	0.166860	0.386960	0.952480
Mn41	Mn4	0.613040	0.833140	0.547520
H11	H1	0.192100	0.347900	0.224100
H21	H2	0.823200	0.530200	0.474700
H31	H3	0.710900	0.353100	0.488900
H41	H4	0.856800	0.510000	0.259800
H51	H5	0.019100	0.425900	0.458100
H61	H6	0.543500	0.576900	0.321400
H71	H7	0.735500	0.621100	0.331200
H81	H8	0.667500	0.632300	0.428000
H91	H9	0.592800	0.218400	0.506200
H101	H10	0.434000	0.432200	0.339500
H111	H11	0.652100	0.807900	0.275900
H121	H12	0.469800	0.176800	0.025300
H131	H13	0.646900	0.289100	0.011100
H141	H14	0.490000	0.143200	0.240200
H151	H15	0.574100	0.980900	0.041900
H161	H16	0.423100	0.456500	0.178600
H171	H17	0.378900	0.264500	0.168800
H181	H18	0.367700	0.332500	0.072000
H191	H19	0.781600	0.407200	0.993800
H201	H20	0.567800	0.566000	0.160500
H211	H21	0.807900	0.652100	0.775900
H221	H22	0.176800	0.469800	0.525300
H231	H23	0.289100	0.646900	0.511100
H241	H24	0.143200	0.490000	0.740200
H251	H25	0.980900	0.574100	0.541900
H261	H26	0.456500	0.423100	0.678600
H271	H27	0.264500	0.378900	0.668800
H281	H28	0.332500	0.367700	0.572000
H291	H29	0.407200	0.781600	0.493800
H301	H30	0.566000	0.567800	0.660500
H311	H31	0.347900	0.192100	0.724100
H321	H32	0.530200	0.823200	0.974700
H331	H33	0.353100	0.710900	0.988900
H341	H34	0.510000	0.856800	0.759800
H351	H35	0.425900	0.019100	0.958100
H361	H36	0.576900	0.543500	0.821400
H371	H37	0.621100	0.735500	0.831200
H381	H38	0.632300	0.667500	0.928000
H391	H39	0.218400	0.592800	0.006200
H401	H40	0.432200	0.434000	0.839500
C11	C1	0.124400	0.380000	0.260300
C21	C2	0.025500	0.431100	0.227300
C31	C3	0.920500	0.480300	0.368400
C41	C4	0.653000	0.374000	0.457500
C51	C5	0.122300	0.376700	0.347300
C61	C6	0.923600	0.478800	0.281400
C71	C7	0.223900	0.313900	0.385400
C81	C8	0.640900	0.483700	0.403500
C91	C9	0.020200	0.427400	0.400300
C101	C10	0.027100	0.428700	0.135000
C111	C11	0.557100	0.503100	0.360200
C121	C12	0.714500	0.577100	0.393500
C131	C13	0.581500	0.292500	0.467100
C141	C14	0.489900	0.414900	0.372400
C151	C15	0.620000	0.875600	0.239700
C161	C16	0.568900	0.974500	0.272700
C171	C17	0.519700	0.079500	0.131600
C181	C18	0.626000	0.347000	0.042500
C191	C19	0.623300	0.877700	0.152700
C201	C20	0.521200	0.076400	0.218600
C211	C21	0.686100	0.776100	0.114600
C221	C22	0.516300	0.359100	0.096500
C231	C23	0.572600	0.979800	0.099700
C241	C24	0.571300	0.972900	0.365000
C251	C25	0.496900	0.442900	0.139800
C261	C26	0.422900	0.285500	0.106500
C271	C27	0.707500	0.418500	0.032900
C281	C28	0.585100	0.510100	0.127600
C291	C29	0.875600	0.620000	0.739700
C301	C30	0.974500	0.568900	0.772700
C311	C31	0.079500	0.519700	0.631600
C321	C32	0.347000	0.626000	0.542500
C331	C33	0.877700	0.623300	0.652700
C341	C34	0.076400	0.521200	0.718600
C351	C35	0.776100	0.686100	0.614600
C361	C36	0.359100	0.516300	0.596500
C371	C37	0.979800	0.572600	0.599700
C381	C38	0.972900	0.571300	0.865000
C391	C39	0.442900	0.496900	0.639800
C401	C40	0.285500	0.422900	0.606500
C411	C41	0.418500	0.707500	0.532900
C421	C42	0.510100	0.585100	0.627600
C431	C43	0.380000	0.124400	0.760300
C441	C44	0.431100	0.025500	0.727300
C451	C45	0.480300	0.920500	0.868400
C461	C46	0.374000	0.653000	0.957500
C471	C47	0.376700	0.122300	0.847300
C481	C48	0.478800	0.923600	0.781400
C491	C49	0.313900	0.223900	0.885400
C501	C50	0.483700	0.640900	0.903500
C511	C51	0.427400	0.020200	0.900300
C521	C52	0.428700	0.027100	0.635000
C531	C53	0.503100	0.557100	0.860200
C541	C54	0.577100	0.714500	0.893500
C551	C55	0.292500	0.581500	0.967100
C561	C56	0.414900	0.489900	0.872400
N11	N1	0.821200	0.528800	0.422600
N21	N2	0.499700	0.310500	0.426100
N31	N3	0.471200	0.178800	0.077400
N41	N4	0.689500	0.500300	0.073900
N51	N5	0.178800	0.471200	0.577400
N61	N6	0.500300	0.689500	0.573900
N71	N7	0.528800	0.821200	0.922600
N81	N8	0.310500	0.499700	0.926100
O11	O1	0.219200	0.305600	0.465300
O21	O2	0.312700	0.265300	0.336300
O31	O3	0.122900	0.389300	0.088100
O41	O4	0.932600	0.464000	0.110900
O51	O5	0.694400	0.780800	0.034700
O61	O6	0.734700	0.687300	0.163700
O71	O7	0.610700	0.877100	0.411900
O81	O8	0.536000	0.067400	0.389100
O91	O9	0.780800	0.694400	0.534700
O101	O10	0.687300	0.734700	0.663700
O111	O11	0.877100	0.610700	0.911900
O121	O12	0.067400	0.536000	0.889100
O131	O13	0.305600	0.219200	0.965300
O141	O14	0.265300	0.312700	0.836300
O151	O15	0.389300	0.122900	0.588100
O161	O16	0.464000	0.932600	0.610900
