data_TUTZUD_clean_PM
_symmetry_space_group_name_H-M	'P1'
_cell_length_a	9.971900
_cell_length_b	21.620000
_cell_length_c	14.045300
_cell_angle_alpha	91.584000
_cell_angle_beta	90.000000
_cell_angle_gamma	90.000000
_symmetry_Int_Tables_number 1

loop_
_symmetry_equiv_pos_as_xyz
'x,y,z'

loop_
_atom_site_label
_atom_site_type_symbol
_atom_site_fract_x
_atom_site_fract_y
_atom_site_fract_z
Er11	Er1	0.433440	0.741460	0.726360
Er21	Er2	0.245720	0.750060	0.974170
Er31	Er3	0.933440	0.258540	0.773640
Er41	Er4	0.745720	0.249940	0.525830
Er51	Er5	0.566560	0.258540	0.273640
Er61	Er6	0.754280	0.249940	0.025830
Er71	Er7	0.066560	0.741460	0.226360
Er81	Er8	0.254280	0.750060	0.474170
H11	H1	0.644000	0.537500	0.864900
H21	H2	0.702800	0.439100	0.814000
H31	H3	0.320800	0.387200	0.822800
H41	H4	0.260700	0.484900	0.873200
H51	H5	0.317100	0.579700	0.945600
H61	H6	0.467000	0.594800	0.968700
H71	H7	0.614200	0.338400	0.727900
H81	H8	0.480300	0.313100	0.770800
H91	H9	0.821600	0.907200	0.794200
H101	H10	0.767500	0.997600	0.874400
H111	H11	0.152200	0.044100	0.882700
H121	H12	0.208000	0.952600	0.808000
H131	H13	0.106600	0.869900	0.682900
H141	H14	0.975600	0.839100	0.720600
H151	H15	0.825100	0.088600	0.957100
H161	H16	0.973600	0.095900	0.991400
H171	H17	0.585700	0.528100	0.355400
H181	H18	0.506900	0.568400	0.629600
H191	H19	0.636600	0.629600	0.413000
H201	H20	0.703500	0.623800	0.513700
H211	H21	0.450100	0.979600	0.842300
H221	H22	0.596500	0.925300	0.090800
H231	H23	0.570200	0.884200	0.845500
H241	H24	0.644100	0.864600	0.938300
H251	H25	0.144000	0.462500	0.635100
H261	H26	0.202800	0.560900	0.686000
H271	H27	0.820800	0.612800	0.677200
H281	H28	0.760700	0.515100	0.626800
H291	H29	0.817100	0.420300	0.554400
H301	H30	0.967000	0.405200	0.531300
H311	H31	0.114200	0.661600	0.772100
H321	H32	0.980300	0.686900	0.729200
H331	H33	0.321600	0.092800	0.705800
H341	H34	0.267500	0.002400	0.625600
H351	H35	0.652200	0.955900	0.617300
H361	H36	0.708000	0.047400	0.692000
H371	H37	0.606600	0.130100	0.817100
H381	H38	0.475600	0.160900	0.779400
H391	H39	0.325100	0.911400	0.542900
H401	H40	0.473600	0.904100	0.508600
H411	H41	0.085700	0.471900	0.144600
H421	H42	0.006900	0.431600	0.870400
H431	H43	0.136600	0.370400	0.087000
H441	H44	0.203500	0.376200	0.986300
H451	H45	0.950100	0.020400	0.657700
H461	H46	0.096500	0.074700	0.409200
H471	H47	0.070200	0.115800	0.654500
H481	H48	0.144100	0.135400	0.561700
H491	H49	0.356000	0.462500	0.135100
H501	H50	0.297200	0.560900	0.186000
H511	H51	0.679200	0.612800	0.177200
H521	H52	0.739300	0.515100	0.126800
H531	H53	0.682900	0.420300	0.054400
H541	H54	0.533000	0.405200	0.031300
H551	H55	0.385800	0.661600	0.272100
H561	H56	0.519700	0.686900	0.229200
H571	H57	0.178400	0.092800	0.205800
H581	H58	0.232500	0.002400	0.125600
H591	H59	0.847800	0.955900	0.117300
H601	H60	0.792000	0.047400	0.192000
H611	H61	0.893400	0.130100	0.317100
H621	H62	0.024400	0.160900	0.279400
H631	H63	0.174900	0.911400	0.042900
H641	H64	0.026400	0.904100	0.008600
H651	H65	0.414300	0.471900	0.644600
H661	H66	0.493100	0.431600	0.370400
H671	H67	0.363400	0.370400	0.587000
H681	H68	0.296500	0.376200	0.486300
H691	H69	0.549900	0.020400	0.157700
H701	H70	0.403500	0.074700	0.909200
H711	H71	0.429800	0.115800	0.154500
H721	H72	0.355900	0.135400	0.061700
H731	H73	0.856000	0.537500	0.364900
H741	H74	0.797200	0.439100	0.314000
H751	H75	0.179200	0.387200	0.322800
H761	H76	0.239300	0.484900	0.373200
H771	H77	0.182900	0.579700	0.445600
H781	H78	0.033000	0.594800	0.468700
H791	H79	0.885800	0.338400	0.227900
H801	H80	0.019700	0.313100	0.270800
H811	H81	0.678400	0.907200	0.294200
H821	H82	0.732500	0.997600	0.374400
H831	H83	0.347800	0.044100	0.382700
H841	H84	0.292000	0.952600	0.308000
H851	H85	0.393400	0.869900	0.182900
H861	H86	0.524400	0.839100	0.220600
H871	H87	0.674900	0.088600	0.457100
H881	H88	0.526400	0.095900	0.491400
H891	H89	0.914300	0.528100	0.855400
H901	H90	0.993100	0.568400	0.129600
H911	H91	0.863400	0.629600	0.913000
H921	H92	0.796500	0.623800	0.013700
H931	H93	0.049900	0.979600	0.342300
H941	H94	0.903500	0.925300	0.590800
H951	H95	0.929800	0.884200	0.345500
H961	H96	0.855900	0.864600	0.438300
C11	C1	0.446500	0.521500	0.876000
C21	C2	0.578300	0.507300	0.857000
C31	C3	0.613200	0.448200	0.826300
C41	C4	0.518800	0.402700	0.813800
C51	C5	0.386500	0.417400	0.831500
C61	C6	0.350600	0.475800	0.861900
C71	C7	0.405400	0.583900	0.917500
C81	C8	0.401100	0.635800	0.851600
C91	C9	0.559700	0.337600	0.785000
C101	C10	0.636900	0.308400	0.862500
C111	C11	0.020900	0.919500	0.792100
C121	C12	0.889500	0.934600	0.812500
C131	C13	0.856700	0.989400	0.859300
C141	C14	0.953100	0.031800	0.883900
C151	C15	0.084600	0.016500	0.864700
C161	C16	0.118300	0.961600	0.819900
C171	C17	0.057400	0.860100	0.740100
C181	C18	0.140800	0.816600	0.798000
C191	C19	0.917100	0.091600	0.935300
C201	C20	0.930500	0.149300	0.879200
C211	C21	0.554500	0.559200	0.489800
C221	C22	0.550700	0.517000	0.413800
C231	C23	0.503900	0.541100	0.577200
C241	C24	0.618800	0.622400	0.479600
C251	C25	0.526000	0.671900	0.519600
C261	C26	0.531400	0.942300	0.958600
C271	C27	0.471100	0.987700	0.905900
C281	C28	0.558100	0.955500	0.053700
C291	C29	0.559900	0.879900	0.913600
C301	C30	0.451900	0.833300	0.931600
C311	C31	0.946500	0.478500	0.624000
C321	C32	0.078300	0.492700	0.643000
C331	C33	0.113200	0.551800	0.673700
C341	C34	0.018800	0.597300	0.686200
C351	C35	0.886500	0.582600	0.668500
C361	C36	0.850600	0.524200	0.638100
C371	C37	0.905400	0.416100	0.582500
C381	C38	0.901100	0.364200	0.648400
C391	C39	0.059700	0.662400	0.715000
C401	C40	0.136900	0.691600	0.637500
C411	C41	0.520900	0.080500	0.707900
C421	C42	0.389500	0.065400	0.687500
C431	C43	0.356700	0.010600	0.640700
C441	C44	0.453100	0.968200	0.616100
C451	C45	0.584600	0.983500	0.635300
C461	C46	0.618300	0.038400	0.680100
C471	C47	0.557400	0.139900	0.759900
C481	C48	0.640800	0.183400	0.702000
C491	C49	0.417100	0.908400	0.564700
C501	C50	0.430500	0.850700	0.620800
C511	C51	0.054500	0.440800	0.010200
C521	C52	0.050700	0.483000	0.086200
C531	C53	0.003900	0.458900	0.922800
C541	C54	0.118800	0.377600	0.020400
C551	C55	0.026000	0.328100	0.980400
C561	C56	0.031400	0.057700	0.541400
C571	C57	0.971100	0.012300	0.594100
C581	C58	0.058100	0.044500	0.446300
C591	C59	0.059900	0.120100	0.586400
C601	C60	0.951900	0.166700	0.568400
C611	C61	0.553500	0.478500	0.124000
C621	C62	0.421700	0.492700	0.143000
C631	C63	0.386800	0.551800	0.173700
C641	C64	0.481200	0.597300	0.186200
C651	C65	0.613500	0.582600	0.168500
C661	C66	0.649400	0.524200	0.138100
C671	C67	0.594600	0.416100	0.082500
C681	C68	0.598900	0.364200	0.148400
C691	C69	0.440300	0.662400	0.215000
C701	C70	0.363100	0.691600	0.137500
C711	C71	0.979100	0.080500	0.207900
C721	C72	0.110500	0.065400	0.187500
C731	C73	0.143300	0.010600	0.140700
C741	C74	0.046900	0.968200	0.116100
C751	C75	0.915400	0.983500	0.135300
C761	C76	0.881700	0.038400	0.180100
C771	C77	0.942600	0.139900	0.259900
C781	C78	0.859200	0.183400	0.202000
C791	C79	0.082900	0.908400	0.064700
C801	C80	0.069500	0.850700	0.120800
C811	C81	0.445500	0.440800	0.510200
C821	C82	0.449300	0.483000	0.586200
C831	C83	0.496100	0.458900	0.422800
C841	C84	0.381200	0.377600	0.520400
C851	C85	0.474000	0.328100	0.480400
C861	C86	0.468600	0.057700	0.041400
C871	C87	0.528900	0.012300	0.094100
C881	C88	0.441900	0.044500	0.946300
C891	C89	0.440100	0.120100	0.086400
C901	C90	0.548100	0.166700	0.068400
C911	C91	0.053500	0.521500	0.376000
C921	C92	0.921700	0.507300	0.357000
C931	C93	0.886800	0.448200	0.326300
C941	C94	0.981200	0.402700	0.313800
C951	C95	0.113500	0.417400	0.331500
C961	C96	0.149400	0.475800	0.361900
C971	C97	0.094600	0.583900	0.417500
C981	C98	0.098900	0.635800	0.351600
C991	C99	0.940300	0.337600	0.285000
C1001	C100	0.863100	0.308400	0.362500
C1011	C101	0.479100	0.919500	0.292100
C1021	C102	0.610500	0.934600	0.312500
C1031	C103	0.643300	0.989400	0.359300
C1041	C104	0.546900	0.031800	0.383900
C1051	C105	0.415400	0.016500	0.364700
C1061	C106	0.381700	0.961600	0.319900
C1071	C107	0.442600	0.860100	0.240100
C1081	C108	0.359200	0.816600	0.298000
C1091	C109	0.582900	0.091600	0.435300
C1101	C110	0.569500	0.149300	0.379200
C1111	C111	0.945500	0.559200	0.989800
C1121	C112	0.949300	0.517000	0.913800
C1131	C113	0.996100	0.541100	0.077200
C1141	C114	0.881200	0.622400	0.979600
C1151	C115	0.974000	0.671900	0.019600
C1161	C116	0.968600	0.942300	0.458600
C1171	C117	0.028900	0.987700	0.405900
C1181	C118	0.941900	0.955500	0.553700
C1191	C119	0.940100	0.879900	0.413600
C1201	C120	0.048100	0.833300	0.431600
O11	O1	0.481200	0.641300	0.784800
O21	O2	0.315600	0.678100	0.864500
O31	O3	0.763600	0.309800	0.865100
O41	O4	0.574600	0.285900	0.931200
O51	O5	0.233800	0.789700	0.760200
O61	O6	0.106900	0.807700	0.882300
O71	O7	0.986000	0.150700	0.801800
O81	O8	0.880100	0.199100	0.914200
O91	O9	0.436300	0.689600	0.465500
O101	O10	0.546300	0.691100	0.602800
O111	O11	0.452400	0.782800	0.884000
O121	O12	0.366700	0.842100	0.993500
O131	O13	0.981200	0.358700	0.715200
O141	O14	0.815600	0.321900	0.635500
O151	O15	0.263600	0.690200	0.634900
O161	O16	0.074600	0.714100	0.568800
O171	O17	0.733800	0.210300	0.739800
O181	O18	0.606900	0.192300	0.617700
O191	O19	0.486000	0.849300	0.698200
O201	O20	0.380100	0.800900	0.585800
O211	O21	0.936300	0.310400	0.034500
O221	O22	0.046300	0.308900	0.897200
O231	O23	0.952400	0.217200	0.616000
O241	O24	0.866700	0.157900	0.506500
O251	O25	0.518800	0.358700	0.215200
O261	O26	0.684400	0.321900	0.135500
O271	O27	0.236400	0.690200	0.134900
O281	O28	0.425400	0.714100	0.068800
O291	O29	0.766200	0.210300	0.239800
O301	O30	0.893100	0.192300	0.117700
O311	O31	0.014000	0.849300	0.198200
O321	O32	0.119900	0.800900	0.085800
O331	O33	0.563700	0.310400	0.534500
O341	O34	0.453700	0.308900	0.397200
O351	O35	0.547600	0.217200	0.116000
O361	O36	0.633300	0.157900	0.006500
O371	O37	0.018800	0.641300	0.284800
O381	O38	0.184400	0.678100	0.364500
O391	O39	0.736400	0.309800	0.365100
O401	O40	0.925400	0.285900	0.431200
O411	O41	0.266200	0.789700	0.260200
O421	O42	0.393100	0.807700	0.382300
O431	O43	0.514000	0.150700	0.301800
O441	O44	0.619900	0.199100	0.414200
O451	O45	0.063700	0.689600	0.965500
O461	O46	0.953700	0.691100	0.102800
O471	O47	0.047600	0.782800	0.384000
O481	O48	0.133300	0.842100	0.493500
