data_TUVDOD_clean_PM
_symmetry_space_group_name_H-M	'P1'
_cell_length_a	15.307000
_cell_length_b	15.307000
_cell_length_c	15.695000
_cell_angle_alpha	90.000000
_cell_angle_beta	90.000000
_cell_angle_gamma	120.000000
_symmetry_Int_Tables_number 1

loop_
_symmetry_equiv_pos_as_xyz
'x,y,z'

loop_
_atom_site_label
_atom_site_type_symbol
_atom_site_fract_x
_atom_site_fract_y
_atom_site_fract_z
Gd11	Gd1	0.333330	0.666660	0.750000
Gd21	Gd2	0.666670	0.333340	0.750000
Gd31	Gd3	0.666670	0.333340	0.250000
Gd41	Gd4	0.333330	0.666660	0.250000
Mn11	Mn1	0.500000	0.500000	0.000000
Mn21	Mn2	0.000000	0.500000	0.000000
Mn31	Mn3	0.500000	0.000000	0.000000
Mn41	Mn4	0.000000	0.500000	0.500000
Mn51	Mn5	0.500000	0.500000	0.500000
Mn61	Mn6	0.500000	0.000000	0.500000
H11	H1	0.234500	0.289400	0.842800
H21	H2	0.054900	0.765500	0.842800
H31	H3	0.710600	0.945100	0.842800
H41	H4	0.765500	0.710600	0.842800
H51	H5	0.945100	0.234500	0.842800
H61	H6	0.289400	0.054900	0.842800
H71	H7	0.945100	0.710600	0.657200
H81	H8	0.289400	0.234500	0.657200
H91	H9	0.765500	0.054900	0.657200
H101	H10	0.054900	0.289400	0.657200
H111	H11	0.710600	0.765500	0.657200
H121	H12	0.234500	0.945100	0.657200
H131	H13	0.765500	0.710600	0.157200
H141	H14	0.945100	0.234500	0.157200
H151	H15	0.289400	0.054900	0.157200
H161	H16	0.234500	0.289400	0.157200
H171	H17	0.054900	0.765500	0.157200
H181	H18	0.710600	0.945100	0.157200
H191	H19	0.054900	0.289400	0.342800
H201	H20	0.710600	0.765500	0.342800
H211	H21	0.234500	0.945100	0.342800
H221	H22	0.945100	0.710600	0.342800
H231	H23	0.289400	0.234500	0.342800
H241	H24	0.765500	0.054900	0.342800
H251	H25	0.100500	0.201000	0.750000
H261	H26	0.100500	0.899500	0.750000
H271	H27	0.799000	0.899500	0.750000
H281	H28	0.899500	0.799000	0.750000
H291	H29	0.899500	0.100500	0.750000
H301	H30	0.201000	0.100500	0.750000
H311	H31	0.899500	0.799000	0.250000
H321	H32	0.899500	0.100500	0.250000
H331	H33	0.201000	0.100500	0.250000
H341	H34	0.100500	0.201000	0.250000
H351	H35	0.100500	0.899500	0.250000
H361	H36	0.799000	0.899500	0.250000
C11	C1	0.352500	0.492500	0.859600
C21	C2	0.265200	0.426900	0.803400
C31	C3	0.215100	0.323500	0.805100
C41	C4	0.140000	0.647500	0.859600
C51	C5	0.161700	0.734800	0.803400
C61	C6	0.108400	0.784900	0.805100
C71	C7	0.507500	0.860000	0.859600
C81	C8	0.573100	0.838300	0.803400
C91	C9	0.676500	0.891600	0.805100
C101	C10	0.647500	0.507500	0.859600
C111	C11	0.734800	0.573100	0.803400
C121	C12	0.784900	0.676500	0.805100
C131	C13	0.860000	0.352500	0.859600
C141	C14	0.838300	0.265200	0.803400
C151	C15	0.891600	0.215100	0.805100
C161	C16	0.492500	0.140000	0.859600
C171	C17	0.426900	0.161700	0.803400
C181	C18	0.323500	0.108400	0.805100
C191	C19	0.860000	0.507500	0.640400
C201	C20	0.838300	0.573100	0.696600
C211	C21	0.891600	0.676500	0.694900
C221	C22	0.492500	0.352500	0.640400
C231	C23	0.426900	0.265200	0.696600
C241	C24	0.323500	0.215100	0.694900
C251	C25	0.647500	0.140000	0.640400
C261	C26	0.734800	0.161700	0.696600
C271	C27	0.784900	0.108400	0.694900
C281	C28	0.140000	0.492500	0.640400
C291	C29	0.161700	0.426900	0.696600
C301	C30	0.108400	0.323500	0.694900
C311	C31	0.507500	0.647500	0.640400
C321	C32	0.573100	0.734800	0.696600
C331	C33	0.676500	0.784900	0.694900
C341	C34	0.352500	0.860000	0.640400
C351	C35	0.265200	0.838300	0.696600
C361	C36	0.215100	0.891600	0.694900
C371	C37	0.647500	0.507500	0.140400
C381	C38	0.734800	0.573100	0.196600
C391	C39	0.784900	0.676500	0.194900
C401	C40	0.860000	0.352500	0.140400
C411	C41	0.838300	0.265200	0.196600
C421	C42	0.891600	0.215100	0.194900
C431	C43	0.492500	0.140000	0.140400
C441	C44	0.426900	0.161700	0.196600
C451	C45	0.323500	0.108400	0.194900
C461	C46	0.352500	0.492500	0.140400
C471	C47	0.265200	0.426900	0.196600
C481	C48	0.215100	0.323500	0.194900
C491	C49	0.140000	0.647500	0.140400
C501	C50	0.161700	0.734800	0.196600
C511	C51	0.108400	0.784900	0.194900
C521	C52	0.507500	0.860000	0.140400
C531	C53	0.573100	0.838300	0.196600
C541	C54	0.676500	0.891600	0.194900
C551	C55	0.140000	0.492500	0.359600
C561	C56	0.161700	0.426900	0.303400
C571	C57	0.108400	0.323500	0.305100
C581	C58	0.507500	0.647500	0.359600
C591	C59	0.573100	0.734800	0.303400
C601	C60	0.676500	0.784900	0.305100
C611	C61	0.352500	0.860000	0.359600
C621	C62	0.265200	0.838300	0.303400
C631	C63	0.215100	0.891600	0.305100
C641	C64	0.860000	0.507500	0.359600
C651	C65	0.838300	0.573100	0.303400
C661	C66	0.891600	0.676500	0.305100
C671	C67	0.492500	0.352500	0.359600
C681	C68	0.426900	0.265200	0.303400
C691	C69	0.323500	0.215100	0.305100
C701	C70	0.647500	0.140000	0.359600
C711	C71	0.734800	0.161700	0.303400
C721	C72	0.784900	0.108400	0.305100
C731	C73	0.135550	0.271100	0.750000
C741	C74	0.135550	0.864450	0.750000
C751	C75	0.728900	0.864450	0.750000
C761	C76	0.864450	0.728900	0.750000
C771	C77	0.864450	0.135550	0.750000
C781	C78	0.271100	0.135550	0.750000
C791	C79	0.864450	0.728900	0.250000
C801	C80	0.864450	0.135550	0.250000
C811	C81	0.271100	0.135550	0.250000
C821	C82	0.135550	0.271100	0.250000
C831	C83	0.135550	0.864450	0.250000
C841	C84	0.728900	0.864450	0.250000
N11	N1	0.239370	0.478740	0.750000
N21	N2	0.239370	0.760630	0.750000
N31	N3	0.521260	0.760630	0.750000
N41	N4	0.760630	0.521260	0.750000
N51	N5	0.760630	0.239370	0.750000
N61	N6	0.478740	0.239370	0.750000
N71	N7	0.760630	0.521260	0.250000
N81	N8	0.760630	0.239370	0.250000
N91	N9	0.478740	0.239370	0.250000
N101	N10	0.239370	0.478740	0.250000
N111	N11	0.239370	0.760630	0.250000
N121	N12	0.521260	0.760630	0.250000
O11	O1	0.386750	0.585930	0.855810
O21	O2	0.384100	0.448660	0.906570
O31	O3	0.199180	0.613250	0.855810
O41	O4	0.064560	0.615900	0.906570
O51	O5	0.414070	0.800820	0.855810
O61	O6	0.551340	0.935440	0.906570
O71	O7	0.613250	0.414070	0.855810
O81	O8	0.615900	0.551340	0.906570
O91	O9	0.800820	0.386750	0.855810
O101	O10	0.935440	0.384100	0.906570
O111	O11	0.585930	0.199180	0.855810
O121	O12	0.448660	0.064560	0.906570
O131	O13	0.800820	0.414070	0.644190
O141	O14	0.935440	0.551340	0.593430
O151	O15	0.585930	0.386750	0.644190
O161	O16	0.448660	0.384100	0.593430
O171	O17	0.613250	0.199180	0.644190
O181	O18	0.615900	0.064560	0.593430
O191	O19	0.199180	0.585930	0.644190
O201	O20	0.064560	0.448660	0.593430
O211	O21	0.414070	0.613250	0.644190
O221	O22	0.551340	0.615900	0.593430
O231	O23	0.386750	0.800820	0.644190
O241	O24	0.384100	0.935440	0.593430
O251	O25	0.613250	0.414070	0.144190
O261	O26	0.615900	0.551340	0.093430
O271	O27	0.800820	0.386750	0.144190
O281	O28	0.935440	0.384100	0.093430
O291	O29	0.585930	0.199180	0.144190
O301	O30	0.448660	0.064560	0.093430
O311	O31	0.386750	0.585930	0.144190
O321	O32	0.384100	0.448660	0.093430
O331	O33	0.199180	0.613250	0.144190
O341	O34	0.064560	0.615900	0.093430
O351	O35	0.414070	0.800820	0.144190
O361	O36	0.551340	0.935440	0.093430
O371	O37	0.199180	0.585930	0.355810
O381	O38	0.064560	0.448660	0.406570
O391	O39	0.414070	0.613250	0.355810
O401	O40	0.551340	0.615900	0.406570
O411	O41	0.386750	0.800820	0.355810
O421	O42	0.384100	0.935440	0.406570
O431	O43	0.800820	0.414070	0.355810
O441	O44	0.935440	0.551340	0.406570
O451	O45	0.585930	0.386750	0.355810
O461	O46	0.448660	0.384100	0.406570
O471	O47	0.613250	0.199180	0.355810
O481	O48	0.615900	0.064560	0.406570
