data_TUWPIL_clean_PM
_symmetry_space_group_name_H-M	'P1'
_cell_length_a	8.152300
_cell_length_b	18.051000
_cell_length_c	21.291200
_cell_angle_alpha	90.000000
_cell_angle_beta	90.000000
_cell_angle_gamma	90.000000
_symmetry_Int_Tables_number 1

loop_
_symmetry_equiv_pos_as_xyz
'x,y,z'

loop_
_atom_site_label
_atom_site_type_symbol
_atom_site_fract_x
_atom_site_fract_y
_atom_site_fract_z
Cd11	Cd1	0.484380	0.781930	0.963060
Cd21	Cd2	0.015620	0.218070	0.463060
Cd31	Cd3	0.515620	0.281930	0.536940
Cd41	Cd4	0.984380	0.718070	0.036940
H11	H1	0.334300	0.595100	0.579600
H21	H2	0.754900	0.772500	0.552200
H31	H3	0.523100	0.496900	0.427100
H41	H4	0.500200	0.500900	0.831300
H51	H5	0.606900	0.292900	0.781800
H61	H6	0.074000	0.577800	0.540700
H71	H7	0.519300	0.378700	0.855400
H81	H8	0.260800	0.478900	0.389800
H91	H9	0.703600	0.612900	0.822200
H101	H10	0.704000	0.682500	0.777900
H111	H11	0.664300	0.329100	0.681000
H121	H12	0.178100	0.675100	0.670200
H131	H13	0.023700	0.803500	0.530100
H141	H14	0.910700	0.643200	0.693300
H151	H15	0.887300	0.447100	0.548700
H161	H16	0.916000	0.406100	0.612800
H171	H17	0.235200	0.757100	0.590400
H181	H18	0.036000	0.516500	0.446300
H191	H19	0.165700	0.404900	0.079600
H201	H20	0.745100	0.227500	0.052200
H211	H21	0.976900	0.503100	0.927100
H221	H22	0.999800	0.499100	0.331300
H231	H23	0.893100	0.707100	0.281800
H241	H24	0.426000	0.422200	0.040700
H251	H25	0.980700	0.621300	0.355400
H261	H26	0.239200	0.521100	0.889800
H271	H27	0.796400	0.387100	0.322200
H281	H28	0.796000	0.317500	0.277900
H291	H29	0.835700	0.670900	0.181000
H301	H30	0.321900	0.324900	0.170200
H311	H31	0.476300	0.196500	0.030100
H321	H32	0.589300	0.356800	0.193300
H331	H33	0.612700	0.552900	0.048700
H341	H34	0.584000	0.593900	0.112800
H351	H35	0.264800	0.242900	0.090400
H361	H36	0.464000	0.483500	0.946300
H371	H37	0.665700	0.095100	0.920400
H381	H38	0.245100	0.272500	0.947800
H391	H39	0.476900	0.996900	0.072900
H401	H40	0.499800	0.000900	0.668700
H411	H41	0.393100	0.792900	0.718200
H421	H42	0.926000	0.077800	0.959300
H431	H43	0.480700	0.878700	0.644600
H441	H44	0.739200	0.978900	0.110200
H451	H45	0.296400	0.112900	0.677800
H461	H46	0.296000	0.182500	0.722100
H471	H47	0.335700	0.829100	0.819000
H481	H48	0.821900	0.175100	0.829800
H491	H49	0.976300	0.303500	0.969900
H501	H50	0.089300	0.143200	0.806700
H511	H51	0.112700	0.947100	0.951300
H521	H52	0.084000	0.906100	0.887200
H531	H53	0.764800	0.257100	0.909600
H541	H54	0.964000	0.016500	0.053700
H551	H55	0.834300	0.904900	0.420400
H561	H56	0.254900	0.727500	0.447800
H571	H57	0.023100	0.003100	0.572900
H581	H58	0.000200	0.999100	0.168700
H591	H59	0.106900	0.207100	0.218200
H601	H60	0.574000	0.922200	0.459300
H611	H61	0.019300	0.121300	0.144600
H621	H62	0.760800	0.021100	0.610200
H631	H63	0.203600	0.887100	0.177800
H641	H64	0.204000	0.817500	0.222100
H651	H65	0.164300	0.170900	0.319000
H661	H66	0.678100	0.824900	0.329800
H671	H67	0.523700	0.696500	0.469900
H681	H68	0.410700	0.856800	0.306700
H691	H69	0.387300	0.052900	0.451300
H701	H70	0.416000	0.093900	0.387200
H711	H71	0.735200	0.742900	0.409600
H721	H72	0.536000	0.983500	0.553700
C11	C1	0.320100	0.571650	0.541100
C21	C2	0.649800	0.463880	0.631260
C31	C3	0.638600	0.537160	0.615170
C41	C4	0.620400	0.439420	0.693550
C51	C5	0.601800	0.591250	0.662490
C61	C6	0.839600	0.752900	0.576300
C71	C7	0.433300	0.512900	0.450320
C81	C8	0.533700	0.467300	0.800810
C91	C9	0.455700	0.548060	0.507810
C101	C10	0.805000	0.705000	0.625350
C111	C11	0.596900	0.342500	0.770500
C121	C12	0.564700	0.568630	0.722020
C131	C13	0.572200	0.492510	0.739270
C141	C14	0.164100	0.560900	0.518070
C151	C15	0.545700	0.394500	0.815090
C161	C16	0.275900	0.502300	0.428300
C171	C17	0.560400	0.697340	0.855900
C181	C18	0.635300	0.651400	0.804080
C191	C19	0.632300	0.364090	0.710630
C201	C20	0.092800	0.695100	0.646700
C211	C21	0.000700	0.771600	0.563300
C221	C22	0.932700	0.675780	0.660500
C231	C23	0.854500	0.404770	0.573800
C241	C24	0.127400	0.743500	0.598800
C251	C25	0.141100	0.525100	0.461600
C261	C26	0.894700	0.334640	0.538860
C271	C27	0.179900	0.428350	0.041100
C281	C28	0.850200	0.536120	0.131260
C291	C29	0.861400	0.462840	0.115170
C301	C30	0.879600	0.560580	0.193550
C311	C31	0.898200	0.408750	0.162490
C321	C32	0.660400	0.247100	0.076300
C331	C33	0.066700	0.487100	0.950320
C341	C34	0.966300	0.532700	0.300810
C351	C35	0.044300	0.451940	0.007810
C361	C36	0.695000	0.295000	0.125350
C371	C37	0.903100	0.657500	0.270500
C381	C38	0.935300	0.431370	0.222020
C391	C39	0.927800	0.507490	0.239270
C401	C40	0.335900	0.439100	0.018070
C411	C41	0.954300	0.605500	0.315090
C421	C42	0.224100	0.497700	0.928300
C431	C43	0.939600	0.302660	0.355900
C441	C44	0.864700	0.348600	0.304080
C451	C45	0.867700	0.635910	0.210630
C461	C46	0.407200	0.304900	0.146700
C471	C47	0.499300	0.228400	0.063300
C481	C48	0.567300	0.324220	0.160500
C491	C49	0.645500	0.595230	0.073800
C501	C50	0.372600	0.256500	0.098800
C511	C51	0.358900	0.474900	0.961600
C521	C52	0.605300	0.665360	0.038860
C531	C53	0.679900	0.071650	0.958900
C541	C54	0.350200	0.963880	0.868740
C551	C55	0.361400	0.037160	0.884830
C561	C56	0.379600	0.939420	0.806450
C571	C57	0.398200	0.091250	0.837510
C581	C58	0.160400	0.252900	0.923700
C591	C59	0.566700	0.012900	0.049680
C601	C60	0.466300	0.967300	0.699190
C611	C61	0.544300	0.048060	0.992190
C621	C62	0.195000	0.205000	0.874650
C631	C63	0.403100	0.842500	0.729500
C641	C64	0.435300	0.068630	0.777980
C651	C65	0.427800	0.992510	0.760730
C661	C66	0.835900	0.060900	0.981930
C671	C67	0.454300	0.894500	0.684910
C681	C68	0.724100	0.002300	0.071700
C691	C69	0.439600	0.197340	0.644100
C701	C70	0.364700	0.151400	0.695920
C711	C71	0.367700	0.864090	0.789370
C721	C72	0.907200	0.195100	0.853300
C731	C73	0.999300	0.271600	0.936700
C741	C74	0.067300	0.175780	0.839500
C751	C75	0.145500	0.904770	0.926200
C761	C76	0.872600	0.243500	0.901200
C771	C77	0.858900	0.025100	0.038400
C781	C78	0.105300	0.834640	0.961140
C791	C79	0.820100	0.928350	0.458900
C801	C80	0.149800	0.036120	0.368740
C811	C81	0.138600	0.962840	0.384830
C821	C82	0.120400	0.060580	0.306450
C831	C83	0.101800	0.908750	0.337510
C841	C84	0.339600	0.747100	0.423700
C851	C85	0.933300	0.987100	0.549680
C861	C86	0.033700	0.032700	0.199190
C871	C87	0.955700	0.951940	0.492190
C881	C88	0.305000	0.795000	0.374650
C891	C89	0.096900	0.157500	0.229500
C901	C90	0.064700	0.931370	0.277980
C911	C91	0.072200	0.007490	0.260730
C921	C92	0.664100	0.939100	0.481930
C931	C93	0.045700	0.105500	0.184910
C941	C94	0.775900	0.997700	0.571700
C951	C95	0.060400	0.802660	0.144100
C961	C96	0.135300	0.848600	0.195920
C971	C97	0.132300	0.135910	0.289370
C981	C98	0.592800	0.804900	0.353300
C991	C99	0.500700	0.728400	0.436700
C1001	C100	0.432700	0.824220	0.339500
C1011	C101	0.354500	0.095230	0.426200
C1021	C102	0.627400	0.756500	0.401200
C1031	C103	0.641100	0.974900	0.538400
C1041	C104	0.394700	0.165360	0.461140
S11	S1	0.660060	0.563520	0.534830
S21	S2	0.595680	0.687130	0.643720
S31	S3	0.839940	0.436480	0.034830
S41	S4	0.904320	0.312870	0.143720
S51	S5	0.339940	0.063520	0.965170
S61	S6	0.404320	0.187130	0.856280
S71	S7	0.160060	0.936480	0.465170
S81	S8	0.095680	0.812870	0.356280
O11	O1	0.509400	0.618420	0.766700
O21	O2	0.684100	0.409690	0.587250
O31	O3	0.412200	0.703750	0.862230
O41	O4	0.661100	0.728820	0.891730
O51	O5	0.037700	0.329910	0.517580
O61	O6	0.791200	0.284180	0.533090
O71	O7	0.990600	0.381580	0.266700
O81	O8	0.815900	0.590310	0.087250
O91	O9	0.087800	0.296250	0.362230
O101	O10	0.838900	0.271180	0.391730
O111	O11	0.462300	0.670090	0.017580
O121	O12	0.708800	0.715820	0.033090
O131	O13	0.490600	0.118420	0.733300
O141	O14	0.315900	0.909690	0.912750
O151	O15	0.587800	0.203750	0.637770
O161	O16	0.338900	0.228820	0.608270
O171	O17	0.962300	0.829910	0.982420
O181	O18	0.208800	0.784180	0.966910
O191	O19	0.009400	0.881580	0.233300
O201	O20	0.184100	0.090310	0.412750
O211	O21	0.912200	0.796250	0.137770
O221	O22	0.161100	0.771180	0.108270
O231	O23	0.537700	0.170090	0.482420
O241	O24	0.291200	0.215820	0.466910
