data_TUYFIE_clean_PM
_symmetry_space_group_name_H-M	'P1'
_cell_length_a	9.949300
_cell_length_b	15.234700
_cell_length_c	10.889100
_cell_angle_alpha	90.000000
_cell_angle_beta	107.253000
_cell_angle_gamma	90.000000
_symmetry_Int_Tables_number 1

loop_
_symmetry_equiv_pos_as_xyz
'x,y,z'

loop_
_atom_site_label
_atom_site_type_symbol
_atom_site_fract_x
_atom_site_fract_y
_atom_site_fract_z
Zn11	Zn1	0.310910	0.194300	0.059550
C11	C1	0.152100	0.341400	0.978300
C21	C2	0.067600	0.420800	0.989300
C31	C3	0.090800	0.462200	0.106400
H11	H1	0.152000	0.436100	0.178700
C41	C4	0.972800	0.458700	0.878500
C51	C5	0.932900	0.417600	0.749100
C61	C6	0.073500	0.137500	0.839800
H21	H2	0.023300	0.179100	0.870700
C71	C7	0.009900	0.096700	0.724000
H31	H3	0.917000	0.110000	0.679500
C81	C8	0.082700	0.036300	0.673100
C91	C9	0.218500	0.017000	0.748100
H41	H4	0.270800	0.974500	0.721300
C101	C10	0.274400	0.059900	0.859700
H51	H5	0.367400	0.047900	0.905500
C111	C11	0.028800	0.993900	0.546600
O11	O1	0.184300	0.290500	0.074900
O21	O2	0.191900	0.331500	0.882500
O31	O3	0.878600	0.341200	0.740500
O41	O4	0.944000	0.459400	0.656300
N11	N1	0.205100	0.118600	0.908700
Zn21	Zn2	0.189090	0.694300	0.440450
C121	C12	0.347900	0.841400	0.521700
C131	C13	0.432400	0.920800	0.510700
C141	C14	0.409200	0.962200	0.393600
H61	H6	0.348000	0.936100	0.321300
C151	C15	0.527200	0.958700	0.621500
C161	C16	0.567100	0.917600	0.750900
C171	C17	0.426500	0.637500	0.660200
H71	H7	0.476700	0.679100	0.629300
C181	C18	0.490100	0.596700	0.776000
H81	H8	0.583000	0.610000	0.820500
C191	C19	0.417300	0.536300	0.826900
C201	C20	0.281500	0.517000	0.751900
H91	H9	0.229200	0.474500	0.778700
C211	C21	0.225600	0.559900	0.640300
H101	H10	0.132600	0.547900	0.594500
C221	C22	0.471200	0.493900	0.953400
O51	O5	0.315700	0.790500	0.425100
O61	O6	0.308100	0.831500	0.617500
O71	O7	0.621400	0.841200	0.759500
O81	O8	0.556000	0.959400	0.843700
N21	N2	0.294900	0.618600	0.591300
Zn31	Zn3	0.689090	0.805700	0.940450
C231	C23	0.847900	0.658600	0.021700
C241	C24	0.932400	0.579200	0.010700
C251	C25	0.909200	0.537800	0.893600
H111	H11	0.848000	0.563900	0.821300
C261	C26	0.027200	0.541300	0.121500
C271	C27	0.067100	0.582400	0.250900
C281	C28	0.926500	0.862500	0.160200
H121	H12	0.976700	0.820900	0.129300
C291	C29	0.990100	0.903300	0.276000
H131	H13	0.083000	0.890000	0.320500
C301	C30	0.917300	0.963700	0.326900
C311	C31	0.781500	0.983000	0.251900
H141	H14	0.729200	0.025500	0.278700
C321	C32	0.725600	0.940100	0.140300
H151	H15	0.632600	0.952100	0.094500
C331	C33	0.971200	0.006100	0.453400
O91	O9	0.815700	0.709500	0.925100
O101	O10	0.808100	0.668500	0.117500
O111	O11	0.121400	0.658800	0.259500
O121	O12	0.056000	0.540600	0.343700
N31	N3	0.794900	0.881400	0.091300
Zn41	Zn4	0.810910	0.305700	0.559550
C341	C34	0.652100	0.158600	0.478300
C351	C35	0.567600	0.079200	0.489300
C361	C36	0.590800	0.037800	0.606400
H161	H16	0.652000	0.063900	0.678700
C371	C37	0.472800	0.041300	0.378500
C381	C38	0.432900	0.082400	0.249100
C391	C39	0.573500	0.362500	0.339800
H171	H17	0.523300	0.320900	0.370700
C401	C40	0.509900	0.403300	0.224000
H181	H18	0.417000	0.390000	0.179500
C411	C41	0.582700	0.463700	0.173100
C421	C42	0.718500	0.483000	0.248100
H191	H19	0.770800	0.525500	0.221300
C431	C43	0.774400	0.440100	0.359700
H201	H20	0.867400	0.452100	0.405500
C441	C44	0.528800	0.506100	0.046600
O131	O13	0.684300	0.209500	0.574900
O141	O14	0.691900	0.168500	0.382500
O151	O15	0.378600	0.158800	0.240500
O161	O16	0.444000	0.040600	0.156300
N41	N4	0.705100	0.381400	0.408700
