data_TUYHUR_clean_PM
_symmetry_space_group_name_H-M	'P1'
_cell_length_a	21.999000
_cell_length_b	21.999000
_cell_length_c	16.702300
_cell_angle_alpha	90.000000
_cell_angle_beta	90.000000
_cell_angle_gamma	90.000000
_symmetry_Int_Tables_number 1

loop_
_symmetry_equiv_pos_as_xyz
'x,y,z'

loop_
_atom_site_label
_atom_site_type_symbol
_atom_site_fract_x
_atom_site_fract_y
_atom_site_fract_z
Ce11	Ce1	0.824380	0.858590	0.365430
N11	N1	0.864300	0.917700	0.238000
O11	O1	0.721000	0.931300	0.142800
O21	O2	0.749100	0.888800	0.259300
O31	O3	0.016100	0.922600	0.297100
O41	O4	0.934700	0.884900	0.357000
C11	C1	0.760000	0.917900	0.194200
C21	C2	0.825800	0.935400	0.180200
C31	C3	0.843800	0.968600	0.114300
H11	H1	0.816000	0.979200	0.074800
C41	C4	0.904100	0.985900	0.108300
H21	H2	0.917700	0.009600	0.065800
C51	C5	0.944500	0.966200	0.169300
H31	H3	0.985700	0.975100	0.166700
C61	C6	0.921200	0.933800	0.231700
C71	C7	0.961300	0.913200	0.300500
Ce21	Ce2	0.324380	0.358590	0.865430
N21	N2	0.364300	0.417700	0.738000
O51	O5	0.221000	0.431300	0.642800
O61	O6	0.249100	0.388800	0.759300
O71	O7	0.516100	0.422600	0.797100
O81	O8	0.434700	0.384900	0.857000
C81	C8	0.260000	0.417900	0.694200
C91	C9	0.325800	0.435400	0.680200
C101	C10	0.343800	0.468600	0.614300
H41	H4	0.316000	0.479200	0.574800
C111	C11	0.404100	0.485900	0.608300
H51	H5	0.417700	0.509600	0.565800
C121	C12	0.444500	0.466200	0.669300
H61	H6	0.485700	0.475100	0.666700
C131	C13	0.421200	0.433800	0.731700
C141	C14	0.461300	0.413200	0.800500
Ce31	Ce3	0.675620	0.141410	0.865430
N31	N3	0.635700	0.082300	0.738000
O91	O9	0.779000	0.068700	0.642800
O101	O10	0.750900	0.111200	0.759300
O111	O11	0.483900	0.077400	0.797100
O121	O12	0.565300	0.115100	0.857000
C151	C15	0.740000	0.082100	0.694200
C161	C16	0.674200	0.064600	0.680200
C171	C17	0.656200	0.031400	0.614300
H71	H7	0.684000	0.020800	0.574800
C181	C18	0.595900	0.014100	0.608300
H81	H8	0.582300	0.990400	0.565800
C191	C19	0.555500	0.033800	0.669300
H91	H9	0.514300	0.024900	0.666700
C201	C20	0.578800	0.066200	0.731700
C211	C21	0.538700	0.086800	0.800500
Ce41	Ce4	0.175620	0.641410	0.365430
N41	N4	0.135700	0.582300	0.238000
O131	O13	0.279000	0.568700	0.142800
O141	O14	0.250900	0.611200	0.259300
O151	O15	0.983900	0.577400	0.297100
O161	O16	0.065300	0.615100	0.357000
C221	C22	0.240000	0.582100	0.194200
C231	C23	0.174200	0.564600	0.180200
C241	C24	0.156200	0.531400	0.114300
H101	H10	0.184000	0.520800	0.074800
C251	C25	0.095900	0.514100	0.108300
H111	H11	0.082300	0.490400	0.065800
C261	C26	0.055500	0.533800	0.169300
H121	H12	0.014300	0.524900	0.166700
C271	C27	0.078800	0.566200	0.231700
C281	C28	0.038700	0.586800	0.300500
Ce51	Ce5	0.891410	0.074380	0.615430
N51	N5	0.832300	0.114300	0.488000
O171	O17	0.818700	0.971000	0.392800
O181	O18	0.861200	0.999100	0.509300
O191	O19	0.827400	0.266100	0.547100
O201	O20	0.865100	0.184700	0.607000
C291	C29	0.832100	0.010000	0.444200
C301	C30	0.814600	0.075800	0.430200
C311	C31	0.781400	0.093800	0.364300
H131	H13	0.770800	0.066000	0.324800
C321	C32	0.764100	0.154100	0.358300
H141	H14	0.740400	0.167700	0.315800
C331	C33	0.783800	0.194500	0.419300
H151	H15	0.774900	0.235700	0.416700
C341	C34	0.816200	0.171200	0.481700
C351	C35	0.836800	0.211300	0.550500
Ce61	Ce6	0.391410	0.574380	0.115430
N61	N6	0.332300	0.614300	0.988000
O211	O21	0.318700	0.471000	0.892800
O221	O22	0.361200	0.499100	0.009300
O231	O23	0.327400	0.766100	0.047100
O241	O24	0.365100	0.684700	0.107000
C361	C36	0.332100	0.510000	0.944200
C371	C37	0.314600	0.575800	0.930200
C381	C38	0.281400	0.593800	0.864300
H161	H16	0.270800	0.566000	0.824800
C391	C39	0.264100	0.654100	0.858300
H171	H17	0.240400	0.667700	0.815800
C401	C40	0.283800	0.694500	0.919300
H181	H18	0.274900	0.735700	0.916700
C411	C41	0.316200	0.671200	0.981700
C421	C42	0.336800	0.711300	0.050500
Ce71	Ce7	0.608590	0.925620	0.115430
N71	N7	0.667700	0.885700	0.988000
O251	O25	0.681300	0.029000	0.892800
O261	O26	0.638800	0.000900	0.009300
O271	O27	0.672600	0.733900	0.047100
O281	O28	0.634900	0.815300	0.107000
C431	C43	0.667900	0.990000	0.944200
C441	C44	0.685400	0.924200	0.930200
C451	C45	0.718600	0.906200	0.864300
H191	H19	0.729200	0.934000	0.824800
C461	C46	0.735900	0.845900	0.858300
H201	H20	0.759600	0.832300	0.815800
C471	C47	0.716200	0.805500	0.919300
H211	H21	0.725100	0.764300	0.916700
C481	C48	0.683800	0.828800	0.981700
C491	C49	0.663200	0.788700	0.050500
Ce81	Ce8	0.108590	0.425620	0.615430
N81	N8	0.167700	0.385700	0.488000
O291	O29	0.181300	0.529000	0.392800
O301	O30	0.138800	0.500900	0.509300
O311	O31	0.172600	0.233900	0.547100
O321	O32	0.134900	0.315300	0.607000
C501	C50	0.167900	0.490000	0.444200
C511	C51	0.185400	0.424200	0.430200
C521	C52	0.218600	0.406200	0.364300
H221	H22	0.229200	0.434000	0.324800
C531	C53	0.235900	0.345900	0.358300
H231	H23	0.259600	0.332300	0.315800
C541	C54	0.216200	0.305500	0.419300
H241	H24	0.225100	0.264300	0.416700
C551	C55	0.183800	0.328800	0.481700
C561	C56	0.163200	0.288700	0.550500
Ce91	Ce9	0.175620	0.141410	0.634570
N91	N9	0.135700	0.082300	0.762000
O331	O33	0.279000	0.068700	0.857200
O341	O34	0.250900	0.111200	0.740700
O351	O35	0.983900	0.077400	0.702900
O361	O36	0.065300	0.115100	0.643000
C571	C57	0.240000	0.082100	0.805800
C581	C58	0.174200	0.064600	0.819800
C591	C59	0.156200	0.031400	0.885700
H251	H25	0.184000	0.020800	0.925200
C601	C60	0.095900	0.014100	0.891700
H261	H26	0.082300	0.990400	0.934200
C611	C61	0.055500	0.033800	0.830700
H271	H27	0.014300	0.024900	0.833300
C621	C62	0.078800	0.066200	0.768300
C631	C63	0.038700	0.086800	0.699500
Ce101	Ce10	0.675620	0.641410	0.134570
N101	N10	0.635700	0.582300	0.262000
O371	O37	0.779000	0.568700	0.357200
O381	O38	0.750900	0.611200	0.240700
O391	O39	0.483900	0.577400	0.202900
O401	O40	0.565300	0.615100	0.143000
C641	C64	0.740000	0.582100	0.305800
C651	C65	0.674200	0.564600	0.319800
C661	C66	0.656200	0.531400	0.385700
H281	H28	0.684000	0.520800	0.425200
C671	C67	0.595900	0.514100	0.391700
H291	H29	0.582300	0.490400	0.434200
C681	C68	0.555500	0.533800	0.330700
H301	H30	0.514300	0.524900	0.333300
C691	C69	0.578800	0.566200	0.268300
C701	C70	0.538700	0.586800	0.199500
Ce111	Ce11	0.324380	0.858590	0.134570
N111	N11	0.364300	0.917700	0.262000
O411	O41	0.221000	0.931300	0.357200
O421	O42	0.249100	0.888800	0.240700
O431	O43	0.516100	0.922600	0.202900
O441	O44	0.434700	0.884900	0.143000
C711	C71	0.260000	0.917900	0.305800
C721	C72	0.325800	0.935400	0.319800
C731	C73	0.343800	0.968600	0.385700
H311	H31	0.316000	0.979200	0.425200
C741	C74	0.404100	0.985900	0.391700
H321	H32	0.417700	0.009600	0.434200
C751	C75	0.444500	0.966200	0.330700
H331	H33	0.485700	0.975100	0.333300
C761	C76	0.421200	0.933800	0.268300
C771	C77	0.461300	0.913200	0.199500
Ce121	Ce12	0.824380	0.358590	0.634570
N121	N12	0.864300	0.417700	0.762000
O451	O45	0.721000	0.431300	0.857200
O461	O46	0.749100	0.388800	0.740700
O471	O47	0.016100	0.422600	0.702900
O481	O48	0.934700	0.384900	0.643000
C781	C78	0.760000	0.417900	0.805800
C791	C79	0.825800	0.435400	0.819800
C801	C80	0.843800	0.468600	0.885700
H341	H34	0.816000	0.479200	0.925200
C811	C81	0.904100	0.485900	0.891700
H351	H35	0.917700	0.509600	0.934200
C821	C82	0.944500	0.466200	0.830700
H361	H36	0.985700	0.475100	0.833300
C831	C83	0.921200	0.433800	0.768300
C841	C84	0.961300	0.413200	0.699500
Ce131	Ce13	0.108590	0.925620	0.384570
N131	N13	0.167700	0.885700	0.512000
O491	O49	0.181300	0.029000	0.607200
O501	O50	0.138800	0.000900	0.490700
O511	O51	0.172600	0.733900	0.452900
O521	O52	0.134900	0.815300	0.393000
C851	C85	0.167900	0.990000	0.555800
C861	C86	0.185400	0.924200	0.569800
C871	C87	0.218600	0.906200	0.635700
H371	H37	0.229200	0.934000	0.675200
C881	C88	0.235900	0.845900	0.641700
H381	H38	0.259600	0.832300	0.684200
C891	C89	0.216200	0.805500	0.580700
H391	H39	0.225100	0.764300	0.583300
C901	C90	0.183800	0.828800	0.518300
C911	C91	0.163200	0.788700	0.449500
Ce141	Ce14	0.608590	0.425620	0.884570
N141	N14	0.667700	0.385700	0.012000
O531	O53	0.681300	0.529000	0.107200
O541	O54	0.638800	0.500900	0.990700
O551	O55	0.672600	0.233900	0.952900
O561	O56	0.634900	0.315300	0.893000
C921	C92	0.667900	0.490000	0.055800
C931	C93	0.685400	0.424200	0.069800
C941	C94	0.718600	0.406200	0.135700
H401	H40	0.729200	0.434000	0.175200
C951	C95	0.735900	0.345900	0.141700
H411	H41	0.759600	0.332300	0.184200
C961	C96	0.716200	0.305500	0.080700
H421	H42	0.725100	0.264300	0.083300
C971	C97	0.683800	0.328800	0.018300
C981	C98	0.663200	0.288700	0.949500
Ce151	Ce15	0.391410	0.074380	0.884570
N151	N15	0.332300	0.114300	0.012000
O571	O57	0.318700	0.971000	0.107200
O581	O58	0.361200	0.999100	0.990700
O591	O59	0.327400	0.266100	0.952900
O601	O60	0.365100	0.184700	0.893000
C991	C99	0.332100	0.010000	0.055800
C1001	C100	0.314600	0.075800	0.069800
C1011	C101	0.281400	0.093800	0.135700
H431	H43	0.270800	0.066000	0.175200
C1021	C102	0.264100	0.154100	0.141700
H441	H44	0.240400	0.167700	0.184200
C1031	C103	0.283800	0.194500	0.080700
H451	H45	0.274900	0.235700	0.083300
C1041	C104	0.316200	0.171200	0.018300
C1051	C105	0.336800	0.211300	0.949500
Ce161	Ce16	0.891410	0.574380	0.384570
N161	N16	0.832300	0.614300	0.512000
O611	O61	0.818700	0.471000	0.607200
O621	O62	0.861200	0.499100	0.490700
O631	O63	0.827400	0.766100	0.452900
O641	O64	0.865100	0.684700	0.393000
C1061	C106	0.832100	0.510000	0.555800
C1071	C107	0.814600	0.575800	0.569800
C1081	C108	0.781400	0.593800	0.635700
H461	H46	0.770800	0.566000	0.675200
C1091	C109	0.764100	0.654100	0.641700
H471	H47	0.740400	0.667700	0.684200
C1101	C110	0.783800	0.694500	0.580700
H481	H48	0.774900	0.735700	0.583300
C1111	C111	0.816200	0.671200	0.518300
C1121	C112	0.836800	0.711300	0.449500
