data_TUYJAZ_clean_PM
_symmetry_space_group_name_H-M	'P1'
_cell_length_a	21.893700
_cell_length_b	21.893700
_cell_length_c	16.768700
_cell_angle_alpha	90.000000
_cell_angle_beta	90.000000
_cell_angle_gamma	90.000000
_symmetry_Int_Tables_number 1

loop_
_symmetry_equiv_pos_as_xyz
'x,y,z'

loop_
_atom_site_label
_atom_site_type_symbol
_atom_site_fract_x
_atom_site_fract_y
_atom_site_fract_z
La11	La1	0.820200	0.357950	0.637520
N11	N1	0.862900	0.417100	0.765000
O11	O1	0.721200	0.430700	0.862700
O21	O2	0.747400	0.389000	0.745900
O31	O3	0.932200	0.383500	0.644200
O41	O4	0.014700	0.424700	0.700200
O51	O5	0.721500	0.383400	0.556800
H11	H1	0.725400	0.420600	0.539600
H21	H2	0.732300	0.360700	0.517800
C11	C1	0.759300	0.417100	0.810600
C21	C2	0.824700	0.434700	0.823500
C31	C3	0.845000	0.467500	0.887000
H31	H3	0.817900	0.479100	0.927000
C41	C4	0.905700	0.483600	0.892100
H41	H4	0.920100	0.505900	0.935400
C51	C5	0.945000	0.465800	0.831300
H51	H5	0.986200	0.476100	0.832900
C61	C6	0.921600	0.432800	0.768600
C71	C7	0.959300	0.412100	0.698500
La21	La2	0.320200	0.857950	0.137520
N21	N2	0.362900	0.917100	0.265000
O61	O6	0.221200	0.930700	0.362700
O71	O7	0.247400	0.889000	0.245900
O81	O8	0.432200	0.883500	0.144200
O91	O9	0.514700	0.924700	0.200200
O101	O10	0.221500	0.883400	0.056800
H61	H6	0.225400	0.920600	0.039600
H71	H7	0.232300	0.860700	0.017800
C81	C8	0.259300	0.917100	0.310600
C91	C9	0.324700	0.934700	0.323500
C101	C10	0.345000	0.967500	0.387000
H81	H8	0.317900	0.979100	0.427000
C111	C11	0.405700	0.983600	0.392100
H91	H9	0.420100	0.005900	0.435400
C121	C12	0.445000	0.965800	0.331300
H101	H10	0.486200	0.976100	0.332900
C131	C13	0.421600	0.932800	0.268600
C141	C14	0.459300	0.912100	0.198500
La31	La3	0.679800	0.642050	0.137520
N31	N3	0.637100	0.582900	0.265000
O111	O11	0.778800	0.569300	0.362700
O121	O12	0.752600	0.611000	0.245900
O131	O13	0.567800	0.616500	0.144200
O141	O14	0.485300	0.575300	0.200200
O151	O15	0.778500	0.616600	0.056800
H111	H11	0.774600	0.579400	0.039600
H121	H12	0.767700	0.639300	0.017800
C151	C15	0.740700	0.582900	0.310600
C161	C16	0.675300	0.565300	0.323500
C171	C17	0.655000	0.532500	0.387000
H131	H13	0.682100	0.520900	0.427000
C181	C18	0.594300	0.516400	0.392100
H141	H14	0.579900	0.494100	0.435400
C191	C19	0.555000	0.534200	0.331300
H151	H15	0.513800	0.523900	0.332900
C201	C20	0.578400	0.567200	0.268600
C211	C21	0.540700	0.587900	0.198500
La41	La4	0.179800	0.142050	0.637520
N41	N4	0.137100	0.082900	0.765000
O161	O16	0.278800	0.069300	0.862700
O171	O17	0.252600	0.111000	0.745900
O181	O18	0.067800	0.116500	0.644200
O191	O19	0.985300	0.075300	0.700200
O201	O20	0.278500	0.116600	0.556800
H161	H16	0.274600	0.079400	0.539600
H171	H17	0.267700	0.139300	0.517800
C221	C22	0.240700	0.082900	0.810600
C231	C23	0.175300	0.065300	0.823500
C241	C24	0.155000	0.032500	0.887000
H181	H18	0.182100	0.020900	0.927000
C251	C25	0.094300	0.016400	0.892100
H191	H19	0.079900	0.994100	0.935400
C261	C26	0.055000	0.034200	0.831300
H201	H20	0.013800	0.023900	0.832900
C271	C27	0.078400	0.067200	0.768600
C281	C28	0.040700	0.087900	0.698500
La51	La5	0.392050	0.070200	0.887520
N51	N5	0.332900	0.112900	0.015000
O211	O21	0.319300	0.971200	0.112700
O221	O22	0.361000	0.997400	0.995900
O231	O23	0.366500	0.182200	0.894200
O241	O24	0.325300	0.264700	0.950200
O251	O25	0.366600	0.971500	0.806800
H211	H21	0.329400	0.975400	0.789600
H221	H22	0.389300	0.982300	0.767800
C291	C29	0.332900	0.009300	0.060600
C301	C30	0.315300	0.074700	0.073500
C311	C31	0.282500	0.095000	0.137000
H231	H23	0.270900	0.067900	0.177000
C321	C32	0.266400	0.155700	0.142100
H241	H24	0.244100	0.170100	0.185400
C331	C33	0.284200	0.195000	0.081300
H251	H25	0.273900	0.236200	0.082900
C341	C34	0.317200	0.171600	0.018600
C351	C35	0.337900	0.209300	0.948500
La61	La6	0.892050	0.570200	0.387520
N61	N6	0.832900	0.612900	0.515000
O261	O26	0.819300	0.471200	0.612700
O271	O27	0.861000	0.497400	0.495900
O281	O28	0.866500	0.682200	0.394200
O291	O29	0.825300	0.764700	0.450200
O301	O30	0.866600	0.471500	0.306800
H261	H26	0.829400	0.475400	0.289600
H271	H27	0.889300	0.482300	0.267800
C361	C36	0.832900	0.509300	0.560600
C371	C37	0.815300	0.574700	0.573500
C381	C38	0.782500	0.595000	0.637000
H281	H28	0.770900	0.567900	0.677000
C391	C39	0.766400	0.655700	0.642100
H291	H29	0.744100	0.670100	0.685400
C401	C40	0.784200	0.695000	0.581300
H301	H30	0.773900	0.736200	0.582900
C411	C41	0.817200	0.671600	0.518600
C421	C42	0.837900	0.709300	0.448500
La71	La7	0.107950	0.929800	0.387520
N71	N7	0.167100	0.887100	0.515000
O311	O31	0.180700	0.028800	0.612700
O321	O32	0.139000	0.002600	0.495900
O331	O33	0.133500	0.817800	0.394200
O341	O34	0.174700	0.735300	0.450200
O351	O35	0.133400	0.028500	0.306800
H311	H31	0.170600	0.024600	0.289600
H321	H32	0.110700	0.017700	0.267800
C431	C43	0.167100	0.990700	0.560600
C441	C44	0.184700	0.925300	0.573500
C451	C45	0.217500	0.905000	0.637000
H331	H33	0.229100	0.932100	0.677000
C461	C46	0.233600	0.844300	0.642100
H341	H34	0.255900	0.829900	0.685400
C471	C47	0.215800	0.805000	0.581300
H351	H35	0.226100	0.763800	0.582900
C481	C48	0.182800	0.828400	0.518600
C491	C49	0.162100	0.790700	0.448500
La81	La8	0.607950	0.429800	0.887520
N81	N8	0.667100	0.387100	0.015000
O361	O36	0.680700	0.528800	0.112700
O371	O37	0.639000	0.502600	0.995900
O381	O38	0.633500	0.317800	0.894200
O391	O39	0.674700	0.235300	0.950200
O401	O40	0.633400	0.528500	0.806800
H361	H36	0.670600	0.524600	0.789600
H371	H37	0.610700	0.517700	0.767800
C501	C50	0.667100	0.490700	0.060600
C511	C51	0.684700	0.425300	0.073500
C521	C52	0.717500	0.405000	0.137000
H381	H38	0.729100	0.432100	0.177000
C531	C53	0.733600	0.344300	0.142100
H391	H39	0.755900	0.329900	0.185400
C541	C54	0.715800	0.305000	0.081300
H401	H40	0.726100	0.263800	0.082900
C551	C55	0.682800	0.328400	0.018600
C561	C56	0.662100	0.290700	0.948500
La91	La9	0.179800	0.642050	0.362480
N91	N9	0.137100	0.582900	0.235000
O411	O41	0.278800	0.569300	0.137300
O421	O42	0.252600	0.611000	0.254100
O431	O43	0.067800	0.616500	0.355800
O441	O44	0.985300	0.575300	0.299800
O451	O45	0.278500	0.616600	0.443200
H411	H41	0.274600	0.579400	0.460400
H421	H42	0.267700	0.639300	0.482200
C571	C57	0.240700	0.582900	0.189400
C581	C58	0.175300	0.565300	0.176500
C591	C59	0.155000	0.532500	0.113000
H431	H43	0.182100	0.520900	0.073000
C601	C60	0.094300	0.516400	0.107900
H441	H44	0.079900	0.494100	0.064600
C611	C61	0.055000	0.534200	0.168700
H451	H45	0.013800	0.523900	0.167100
C621	C62	0.078400	0.567200	0.231400
C631	C63	0.040700	0.587900	0.301500
La101	La10	0.679800	0.142050	0.862480
N101	N10	0.637100	0.082900	0.735000
O461	O46	0.778800	0.069300	0.637300
O471	O47	0.752600	0.111000	0.754100
O481	O48	0.567800	0.116500	0.855800
O491	O49	0.485300	0.075300	0.799800
O501	O50	0.778500	0.116600	0.943200
H461	H46	0.774600	0.079400	0.960400
H471	H47	0.767700	0.139300	0.982200
C641	C64	0.740700	0.082900	0.689400
C651	C65	0.675300	0.065300	0.676500
C661	C66	0.655000	0.032500	0.613000
H481	H48	0.682100	0.020900	0.573000
C671	C67	0.594300	0.016400	0.607900
H491	H49	0.579900	0.994100	0.564600
C681	C68	0.555000	0.034200	0.668700
H501	H50	0.513800	0.023900	0.667100
C691	C69	0.578400	0.067200	0.731400
C701	C70	0.540700	0.087900	0.801500
La111	La11	0.320200	0.357950	0.862480
N111	N11	0.362900	0.417100	0.735000
O511	O51	0.221200	0.430700	0.637300
O521	O52	0.247400	0.389000	0.754100
O531	O53	0.432200	0.383500	0.855800
O541	O54	0.514700	0.424700	0.799800
O551	O55	0.221500	0.383400	0.943200
H511	H51	0.225400	0.420600	0.960400
H521	H52	0.232300	0.360700	0.982200
C711	C71	0.259300	0.417100	0.689400
C721	C72	0.324700	0.434700	0.676500
C731	C73	0.345000	0.467500	0.613000
H531	H53	0.317900	0.479100	0.573000
C741	C74	0.405700	0.483600	0.607900
H541	H54	0.420100	0.505900	0.564600
C751	C75	0.445000	0.465800	0.668700
H551	H55	0.486200	0.476100	0.667100
C761	C76	0.421600	0.432800	0.731400
C771	C77	0.459300	0.412100	0.801500
La121	La12	0.820200	0.857950	0.362480
N121	N12	0.862900	0.917100	0.235000
O561	O56	0.721200	0.930700	0.137300
O571	O57	0.747400	0.889000	0.254100
O581	O58	0.932200	0.883500	0.355800
O591	O59	0.014700	0.924700	0.299800
O601	O60	0.721500	0.883400	0.443200
H561	H56	0.725400	0.920600	0.460400
H571	H57	0.732300	0.860700	0.482200
C781	C78	0.759300	0.917100	0.189400
C791	C79	0.824700	0.934700	0.176500
C801	C80	0.845000	0.967500	0.113000
H581	H58	0.817900	0.979100	0.073000
C811	C81	0.905700	0.983600	0.107900
H591	H59	0.920100	0.005900	0.064600
C821	C82	0.945000	0.965800	0.168700
H601	H60	0.986200	0.976100	0.167100
C831	C83	0.921600	0.932800	0.231400
C841	C84	0.959300	0.912100	0.301500
La131	La13	0.607950	0.929800	0.112480
N131	N13	0.667100	0.887100	0.985000
O611	O61	0.680700	0.028800	0.887300
O621	O62	0.639000	0.002600	0.004100
O631	O63	0.633500	0.817800	0.105800
O641	O64	0.674700	0.735300	0.049800
O651	O65	0.633400	0.028500	0.193200
H611	H61	0.670600	0.024600	0.210400
H621	H62	0.610700	0.017700	0.232200
C851	C85	0.667100	0.990700	0.939400
C861	C86	0.684700	0.925300	0.926500
C871	C87	0.717500	0.905000	0.863000
H631	H63	0.729100	0.932100	0.823000
C881	C88	0.733600	0.844300	0.857900
H641	H64	0.755900	0.829900	0.814600
C891	C89	0.715800	0.805000	0.918700
H651	H65	0.726100	0.763800	0.917100
C901	C90	0.682800	0.828400	0.981400
C911	C91	0.662100	0.790700	0.051500
La141	La14	0.107950	0.429800	0.612480
N141	N14	0.167100	0.387100	0.485000
O661	O66	0.180700	0.528800	0.387300
O671	O67	0.139000	0.502600	0.504100
O681	O68	0.133500	0.317800	0.605800
O691	O69	0.174700	0.235300	0.549800
O701	O70	0.133400	0.528500	0.693200
H661	H66	0.170600	0.524600	0.710400
H671	H67	0.110700	0.517700	0.732200
C921	C92	0.167100	0.490700	0.439400
C931	C93	0.184700	0.425300	0.426500
C941	C94	0.217500	0.405000	0.363000
H681	H68	0.229100	0.432100	0.323000
C951	C95	0.233600	0.344300	0.357900
H691	H69	0.255900	0.329900	0.314600
C961	C96	0.215800	0.305000	0.418700
H701	H70	0.226100	0.263800	0.417100
C971	C97	0.182800	0.328400	0.481400
C981	C98	0.162100	0.290700	0.551500
La151	La15	0.892050	0.070200	0.612480
N151	N15	0.832900	0.112900	0.485000
O711	O71	0.819300	0.971200	0.387300
O721	O72	0.861000	0.997400	0.504100
O731	O73	0.866500	0.182200	0.605800
O741	O74	0.825300	0.264700	0.549800
O751	O75	0.866600	0.971500	0.693200
H711	H71	0.829400	0.975400	0.710400
H721	H72	0.889300	0.982300	0.732200
C991	C99	0.832900	0.009300	0.439400
C1001	C100	0.815300	0.074700	0.426500
C1011	C101	0.782500	0.095000	0.363000
H731	H73	0.770900	0.067900	0.323000
C1021	C102	0.766400	0.155700	0.357900
H741	H74	0.744100	0.170100	0.314600
C1031	C103	0.784200	0.195000	0.418700
H751	H75	0.773900	0.236200	0.417100
C1041	C104	0.817200	0.171600	0.481400
C1051	C105	0.837900	0.209300	0.551500
La161	La16	0.392050	0.570200	0.112480
N161	N16	0.332900	0.612900	0.985000
O761	O76	0.319300	0.471200	0.887300
O771	O77	0.361000	0.497400	0.004100
O781	O78	0.366500	0.682200	0.105800
O791	O79	0.325300	0.764700	0.049800
O801	O80	0.366600	0.471500	0.193200
H761	H76	0.329400	0.475400	0.210400
H771	H77	0.389300	0.482300	0.232200
C1061	C106	0.332900	0.509300	0.939400
C1071	C107	0.315300	0.574700	0.926500
C1081	C108	0.282500	0.595000	0.863000
H781	H78	0.270900	0.567900	0.823000
C1091	C109	0.266400	0.655700	0.857900
H791	H79	0.244100	0.670100	0.814600
C1101	C110	0.284200	0.695000	0.918700
H801	H80	0.273900	0.736200	0.917100
C1111	C111	0.317200	0.671600	0.981400
C1121	C112	0.337900	0.709300	0.051500
