data_UBACOR_clean_PM
_symmetry_space_group_name_H-M	'P1'
_cell_length_a	13.996000
_cell_length_b	14.621900
_cell_length_c	18.585100
_cell_angle_alpha	69.124500
_cell_angle_beta	67.880500
_cell_angle_gamma	61.406100
_symmetry_Int_Tables_number 1

loop_
_symmetry_equiv_pos_as_xyz
'x,y,z'

loop_
_atom_site_label
_atom_site_type_symbol
_atom_site_fract_x
_atom_site_fract_y
_atom_site_fract_z
Zn11	Zn1	0.380870	0.436280	0.101580
Zn21	Zn2	0.567180	0.236080	0.315680
Zn31	Zn3	0.918730	0.063720	0.398420
Zn41	Zn4	0.118940	0.263920	0.184320
Zn51	Zn5	0.619130	0.563720	0.898420
Zn61	Zn6	0.432820	0.763920	0.684320
Zn71	Zn7	0.081270	0.936280	0.601580
Zn81	Zn8	0.881060	0.736080	0.815680
H11	H1	0.490900	0.589200	0.209000
H21	H2	0.594400	0.643000	0.245400
H31	H3	0.783200	0.536500	0.238700
H41	H4	0.897700	0.031000	0.177000
H51	H5	0.906500	0.056400	0.045000
H61	H6	0.834900	0.227700	0.971500
H71	H7	0.389600	0.363100	0.968500
H81	H8	0.480300	0.216500	0.912500
H91	H9	0.667600	0.073900	0.070700
H101	H10	0.566800	0.224500	0.123300
H111	H11	0.909500	0.866800	0.891200
H121	H12	0.807900	0.008700	0.951300
H131	H13	0.529800	0.032500	0.918700
H141	H14	0.637300	0.880200	0.869000
H151	H15	0.289100	0.910800	0.291000
H161	H16	0.482800	0.857000	0.254600
H171	H17	0.558400	0.963500	0.261300
H181	H18	0.105700	0.469000	0.323000
H191	H19	0.007900	0.443600	0.455000
H201	H20	0.034100	0.272300	0.528500
H211	H21	0.721200	0.136900	0.531500
H221	H22	0.609300	0.283500	0.587500
H231	H23	0.812200	0.426100	0.429300
H241	H24	0.914600	0.275500	0.376700
H251	H25	0.667500	0.633200	0.608800
H261	H26	0.767900	0.491300	0.548700
H271	H27	0.481000	0.467500	0.581300
H281	H28	0.386500	0.619800	0.631000
H291	H29	0.509100	0.410800	0.791000
H301	H30	0.405600	0.357000	0.754600
H311	H31	0.216800	0.463500	0.761300
H321	H32	0.102300	0.969000	0.823000
H331	H33	0.093500	0.943600	0.955000
H341	H34	0.165100	0.772300	0.028500
H351	H35	0.610400	0.636900	0.031500
H361	H36	0.519700	0.783500	0.087500
H371	H37	0.332400	0.926100	0.929300
H381	H38	0.433200	0.775500	0.876700
H391	H39	0.090500	0.133200	0.108800
H401	H40	0.192100	0.991300	0.048700
H411	H41	0.470200	0.967500	0.081300
H421	H42	0.362700	0.119800	0.131000
H431	H43	0.710900	0.089200	0.709000
H441	H44	0.517200	0.143000	0.745400
H451	H45	0.441600	0.036500	0.738700
H461	H46	0.894300	0.531000	0.677000
H471	H47	0.992100	0.556400	0.545000
H481	H48	0.965900	0.727700	0.471500
H491	H49	0.278800	0.863100	0.468500
H501	H50	0.390700	0.716500	0.412500
H511	H51	0.187800	0.573900	0.570700
H521	H52	0.085400	0.724500	0.623300
H531	H53	0.332500	0.366800	0.391200
H541	H54	0.232100	0.508700	0.451300
H551	H55	0.519000	0.532500	0.418700
H561	H56	0.613500	0.380200	0.369000
C11	C1	0.543200	0.415200	0.167800
C21	C2	0.617700	0.451000	0.181800
C31	C3	0.566700	0.547000	0.206600
C41	C4	0.628400	0.579800	0.227800
C51	C5	0.741900	0.516800	0.222400
C61	C6	0.794900	0.424400	0.192800
C71	C7	0.732500	0.388700	0.172500
C81	C8	0.920000	0.366200	0.184800
C91	C9	0.813700	0.163100	0.269100
C101	C10	0.822000	0.187300	0.181900
C111	C11	0.869600	0.099700	0.146900
C121	C12	0.875300	0.114600	0.068200
C131	C13	0.833800	0.217500	0.024100
C141	C14	0.790400	0.306300	0.056900
C151	C15	0.783700	0.292100	0.137100
C161	C16	0.751900	0.416100	0.002900
C171	C17	0.446800	0.304000	0.989200
C181	C18	0.502400	0.216900	0.953700
C191	C19	0.590700	0.131200	0.980800
C201	C20	0.612600	0.132600	0.047800
C211	C21	0.550800	0.223300	0.079500
C221	C22	0.832000	0.899100	0.898100
C231	C23	0.771300	0.985200	0.933600
C241	C24	0.655100	0.037600	0.943400
C251	C25	0.606400	0.998500	0.915900
C261	C26	0.672400	0.908400	0.883800
C271	C27	0.126200	0.084800	0.332200
C281	C28	0.250500	0.049000	0.318200
C291	C29	0.320300	0.953000	0.293400
C301	C30	0.436000	0.920200	0.272200
C311	C31	0.481100	0.983200	0.277600
C321	C32	0.412100	0.075600	0.307200
C331	C33	0.293700	0.111300	0.327500
C341	C34	0.471000	0.133800	0.315200
C351	C35	0.245900	0.336900	0.230900
C361	C36	0.191200	0.312700	0.318100
C371	C37	0.116200	0.400300	0.353100
C381	C38	0.058100	0.385400	0.431800
C391	C39	0.075400	0.282500	0.475900
C401	C40	0.153600	0.193700	0.443100
C411	C41	0.212900	0.207900	0.362900
C421	C42	0.170900	0.083900	0.497100
C431	C43	0.740000	0.196000	0.510800
C441	C44	0.673000	0.283100	0.546300
C451	C45	0.702700	0.368800	0.519200
C461	C46	0.793000	0.367400	0.452200
C471	C47	0.853600	0.276700	0.420500
C481	C48	0.629200	0.600900	0.601900
C491	C49	0.690100	0.514800	0.566400
C501	C50	0.636100	0.462400	0.556600
C511	C51	0.520800	0.501500	0.584100
C521	C52	0.464600	0.591600	0.616200
C531	C53	0.456800	0.584800	0.832200
C541	C54	0.382300	0.549000	0.818200
C551	C55	0.433300	0.453000	0.793400
C561	C56	0.371600	0.420200	0.772200
C571	C57	0.258100	0.483200	0.777600
C581	C58	0.205100	0.575600	0.807200
C591	C59	0.267500	0.611300	0.827500
C601	C60	0.080000	0.633800	0.815200
C611	C61	0.186300	0.836900	0.730900
C621	C62	0.178000	0.812700	0.818100
C631	C63	0.130400	0.900300	0.853100
C641	C64	0.124700	0.885400	0.931800
C651	C65	0.166200	0.782500	0.975900
C661	C66	0.209600	0.693700	0.943100
C671	C67	0.216300	0.707900	0.862900
C681	C68	0.248100	0.583900	0.997100
C691	C69	0.553200	0.696000	0.010800
C701	C70	0.497600	0.783100	0.046300
C711	C71	0.409300	0.868800	0.019200
C721	C72	0.387400	0.867400	0.952200
C731	C73	0.449200	0.776700	0.920500
C741	C74	0.168000	0.100900	0.101900
C751	C75	0.228700	0.014800	0.066400
C761	C76	0.344900	0.962400	0.056600
C771	C77	0.393600	0.001500	0.084100
C781	C78	0.327600	0.091600	0.116200
C791	C79	0.873800	0.915200	0.667800
C801	C80	0.749500	0.951000	0.681800
C811	C81	0.679700	0.047000	0.706600
C821	C82	0.564000	0.079800	0.727800
C831	C83	0.518900	0.016800	0.722400
C841	C84	0.587900	0.924400	0.692800
C851	C85	0.706300	0.888700	0.672500
C861	C86	0.529000	0.866200	0.684800
C871	C87	0.754100	0.663100	0.769100
C881	C88	0.808800	0.687300	0.681900
C891	C89	0.883800	0.599700	0.646900
C901	C90	0.941900	0.614600	0.568200
C911	C91	0.924600	0.717500	0.524100
C921	C92	0.846400	0.806300	0.556900
C931	C93	0.787100	0.792100	0.637100
C941	C94	0.829100	0.916100	0.502900
C951	C95	0.260000	0.804000	0.489200
C961	C96	0.327000	0.716900	0.453700
C971	C97	0.297300	0.631200	0.480800
C981	C98	0.207000	0.632600	0.547800
C991	C99	0.146400	0.723300	0.579500
C1001	C100	0.370800	0.399100	0.398100
C1011	C101	0.309900	0.485200	0.433600
C1021	C102	0.363900	0.537600	0.443400
C1031	C103	0.479200	0.498500	0.415900
C1041	C104	0.535400	0.408400	0.383800
N11	N1	0.469100	0.309100	0.049900
N21	N2	0.784000	0.860400	0.873000
N31	N3	0.828100	0.190900	0.450100
N41	N4	0.517400	0.639600	0.627000
N51	N5	0.530900	0.690900	0.950100
N61	N6	0.216000	0.139600	0.127000
N71	N7	0.171900	0.809100	0.549900
N81	N8	0.482600	0.360400	0.373000
O11	O1	0.484900	0.478800	0.118800
O21	O2	0.541190	0.325920	0.204300
O31	O3	0.722270	0.207260	0.316200
O41	O4	0.902040	0.094620	0.290900
O51	O5	0.965000	0.390700	0.217300
O61	O6	0.975200	0.296500	0.145100
O71	O7	0.770600	0.487900	0.006100
O81	O8	0.698000	0.423200	0.957000
O91	O9	0.082500	0.021200	0.381200
O101	O10	0.071410	0.174080	0.295700
O111	O11	0.245730	0.292740	0.183800
O121	O12	0.287560	0.405380	0.209100
O131	O13	0.573000	0.109300	0.282700
O141	O14	0.416800	0.203500	0.354900
O151	O15	0.264600	0.012100	0.493900
O161	O16	0.078200	0.076800	0.543000
O171	O17	0.515100	0.521200	0.881200
O181	O18	0.458810	0.674080	0.795700
O191	O19	0.277730	0.792740	0.683800
O201	O20	0.097960	0.905380	0.709100
O211	O21	0.035000	0.609300	0.782700
O221	O22	0.024800	0.703500	0.854900
O231	O23	0.229400	0.512100	0.993900
O241	O24	0.302000	0.576800	0.043000
O251	O25	0.917500	0.978800	0.618800
O261	O26	0.928590	0.825920	0.704300
O271	O27	0.754270	0.707260	0.816200
O281	O28	0.712440	0.594620	0.790900
O291	O29	0.427000	0.890700	0.717300
O301	O30	0.583200	0.796500	0.645100
O311	O31	0.735400	0.987900	0.506100
O321	O32	0.921800	0.923200	0.457000
