data_UBUROY_clean_PM
_symmetry_space_group_name_H-M	'P1'
_cell_length_a	9.479000
_cell_length_b	9.479000
_cell_length_c	16.386900
_cell_angle_alpha	88.642200
_cell_angle_beta	88.642200
_cell_angle_gamma	83.209200
_symmetry_Int_Tables_number 1

loop_
_symmetry_equiv_pos_as_xyz
'x,y,z'

loop_
_atom_site_label
_atom_site_type_symbol
_atom_site_fract_x
_atom_site_fract_y
_atom_site_fract_z
Zn11	Zn1	0.000000	0.000000	0.500000
Zn21	Zn2	0.000000	0.000000	0.000000
Cu11	Cu1	0.136310	0.492270	0.502060
Cu21	Cu2	0.507730	0.863690	0.997940
Cu31	Cu3	0.863690	0.507730	0.497940
Cu41	Cu4	0.492270	0.136310	0.002060
Cu51	Cu5	0.363960	0.636040	0.750000
Cu61	Cu6	0.636040	0.363960	0.250000
Cu71	Cu7	0.397850	0.602150	0.250000
Cu81	Cu8	0.602150	0.397850	0.750000
C11	C1	0.282500	0.570500	0.660300
C21	C2	0.042100	0.317300	0.511100
C31	C3	0.306000	0.536600	0.339900
C41	C4	0.429500	0.717500	0.839700
C51	C5	0.682700	0.957900	0.988900
C61	C6	0.463400	0.694000	0.160100
C71	C7	0.717500	0.429500	0.339700
C81	C8	0.957900	0.682700	0.488900
C91	C9	0.694000	0.463400	0.660100
C101	C10	0.570500	0.282500	0.160300
C111	C11	0.317300	0.042100	0.011100
C121	C12	0.536600	0.306000	0.839900
N11	N1	0.229400	0.542400	0.602200
N21	N2	0.026600	0.202200	0.514500
N31	N3	0.244000	0.515600	0.398800
N41	N4	0.457600	0.770600	0.897800
N51	N5	0.797800	0.973400	0.985500
N61	N6	0.484400	0.756000	0.101200
N71	N7	0.770600	0.457600	0.397800
N81	N8	0.973400	0.797800	0.485500
N91	N9	0.756000	0.484400	0.601200
N101	N10	0.542400	0.229400	0.102200
N111	N11	0.202200	0.026600	0.014500
N121	N12	0.515600	0.244000	0.898800
