data_UCALIW_clean_PM
_symmetry_space_group_name_H-M	'P1'
_cell_length_a	16.746000
_cell_length_b	14.223000
_cell_length_c	12.321000
_cell_angle_alpha	90.000000
_cell_angle_beta	113.653000
_cell_angle_gamma	90.000000
_symmetry_Int_Tables_number 1

loop_
_symmetry_equiv_pos_as_xyz
'x,y,z'

loop_
_atom_site_label
_atom_site_type_symbol
_atom_site_fract_x
_atom_site_fract_y
_atom_site_fract_z
N11	N1	0.918800	0.329700	0.782400
C11	C1	0.891900	0.256900	0.707300
C21	C2	0.893100	0.329700	0.873600
C31	C3	0.842800	0.184800	0.721700
H11	H1	0.907300	0.255200	0.642700
C41	C4	0.841300	0.262400	0.893100
H21	H2	0.911900	0.379100	0.927300
C51	C5	0.816500	0.186600	0.814800
H31	H3	0.827200	0.134600	0.668900
C61	C6	0.808400	0.277500	0.988700
H41	H4	0.782800	0.138100	0.824900
C71	C7	0.792000	0.193100	0.055200
H51	H5	0.845000	0.323900	0.045700
H61	H6	0.799100	0.133100	0.021100
C81	C8	0.841500	0.195100	0.187800
N21	N2	0.825500	0.123900	0.246300
O11	O1	0.890100	0.260500	0.239400
C91	C9	0.852600	0.122900	0.374700
H71	H7	0.797700	0.075900	0.206400
C101	C10	0.929000	0.059300	0.439100
H81	H8	0.803700	0.103100	0.392400
H91	H9	0.867900	0.186400	0.404500
C111	C11	0.930600	0.004800	0.532400
C121	C12	0.000100	0.053500	0.407700
H101	H10	0.884100	0.007600	0.555300
H111	H11	0.000700	0.089600	0.345100
N31	N3	0.418800	0.829700	0.782400
C131	C13	0.391900	0.756900	0.707300
C141	C14	0.393100	0.829700	0.873600
C151	C15	0.342800	0.684800	0.721700
H121	H12	0.407300	0.755200	0.642700
C161	C16	0.341300	0.762400	0.893100
H131	H13	0.411900	0.879100	0.927300
C171	C17	0.316500	0.686600	0.814800
H141	H14	0.327200	0.634600	0.668900
C181	C18	0.308400	0.777500	0.988700
H151	H15	0.282800	0.638100	0.824900
C191	C19	0.292000	0.693100	0.055200
H161	H16	0.345000	0.823900	0.045700
H171	H17	0.299100	0.633100	0.021100
C201	C20	0.341500	0.695100	0.187800
N41	N4	0.325500	0.623900	0.246300
O21	O2	0.390100	0.760500	0.239400
C211	C21	0.352600	0.622900	0.374700
H181	H18	0.297700	0.575900	0.206400
C221	C22	0.429000	0.559300	0.439100
H191	H19	0.303700	0.603100	0.392400
H201	H20	0.367900	0.686400	0.404500
C231	C23	0.430600	0.504800	0.532400
C241	C24	0.500100	0.553500	0.407700
H211	H21	0.384100	0.507600	0.555300
H221	H22	0.500700	0.589600	0.345100
N51	N5	0.081200	0.329700	0.717600
C251	C25	0.108100	0.256900	0.792700
C261	C26	0.106900	0.329700	0.626400
C271	C27	0.157200	0.184800	0.778300
H231	H23	0.092700	0.255200	0.857300
C281	C28	0.158700	0.262400	0.606900
H241	H24	0.088100	0.379100	0.572700
C291	C29	0.183500	0.186600	0.685200
H251	H25	0.172800	0.134600	0.831100
C301	C30	0.191600	0.277500	0.511300
H261	H26	0.217200	0.138100	0.675100
C311	C31	0.208000	0.193100	0.444800
H271	H27	0.155000	0.323900	0.454300
H281	H28	0.200900	0.133100	0.478900
C321	C32	0.158500	0.195100	0.312200
N61	N6	0.174500	0.123900	0.253700
O31	O3	0.109900	0.260500	0.260600
C331	C33	0.147400	0.122900	0.125300
H291	H29	0.202300	0.075900	0.293600
C341	C34	0.071000	0.059300	0.060900
H301	H30	0.196300	0.103100	0.107600
H311	H31	0.132100	0.186400	0.095500
C351	C35	0.069400	0.004800	0.967600
C361	C36	0.999900	0.053500	0.092300
H321	H32	0.115900	0.007600	0.944700
H331	H33	0.999300	0.089600	0.154900
N71	N7	0.581200	0.829700	0.717600
C371	C37	0.608100	0.756900	0.792700
C381	C38	0.606900	0.829700	0.626400
C391	C39	0.657200	0.684800	0.778300
H341	H34	0.592700	0.755200	0.857300
C401	C40	0.658700	0.762400	0.606900
H351	H35	0.588100	0.879100	0.572700
C411	C41	0.683500	0.686600	0.685200
H361	H36	0.672800	0.634600	0.831100
C421	C42	0.691600	0.777500	0.511300
H371	H37	0.717200	0.638100	0.675100
C431	C43	0.708000	0.693100	0.444800
H381	H38	0.655000	0.823900	0.454300
H391	H39	0.700900	0.633100	0.478900
C441	C44	0.658500	0.695100	0.312200
N81	N8	0.674500	0.623900	0.253700
O41	O4	0.609900	0.760500	0.260600
C451	C45	0.647400	0.622900	0.125300
H401	H40	0.702300	0.575900	0.293600
C461	C46	0.571000	0.559300	0.060900
H411	H41	0.696300	0.603100	0.107600
H421	H42	0.632100	0.686400	0.095500
C471	C47	0.569400	0.504800	0.967600
C481	C48	0.499900	0.553500	0.092300
H431	H43	0.615900	0.507600	0.944700
H441	H44	0.499300	0.589600	0.154900
N91	N9	0.081200	0.670300	0.217600
C491	C49	0.108100	0.743100	0.292700
C501	C50	0.106900	0.670300	0.126400
C511	C51	0.157200	0.815200	0.278300
H451	H45	0.092700	0.744800	0.357300
C521	C52	0.158700	0.737600	0.106900
H461	H46	0.088100	0.620900	0.072700
C531	C53	0.183500	0.813400	0.185200
H471	H47	0.172800	0.865400	0.331100
C541	C54	0.191600	0.722500	0.011300
H481	H48	0.217200	0.861900	0.175100
C551	C55	0.208000	0.806900	0.944800
H491	H49	0.155000	0.676100	0.954300
H501	H50	0.200900	0.866900	0.978900
C561	C56	0.158500	0.804900	0.812200
N101	N10	0.174500	0.876100	0.753700
O51	O5	0.109900	0.739500	0.760600
C571	C57	0.147400	0.877100	0.625300
H511	H51	0.202300	0.924100	0.793600
C581	C58	0.071000	0.940700	0.560900
H521	H52	0.196300	0.896900	0.607600
H531	H53	0.132100	0.813600	0.595500
C591	C59	0.069400	0.995200	0.467600
C601	C60	0.999900	0.946500	0.592300
H541	H54	0.115900	0.992400	0.444700
H551	H55	0.999300	0.910400	0.654900
N111	N11	0.581200	0.170300	0.217600
C611	C61	0.608100	0.243100	0.292700
C621	C62	0.606900	0.170300	0.126400
C631	C63	0.657200	0.315200	0.278300
H561	H56	0.592700	0.244800	0.357300
C641	C64	0.658700	0.237600	0.106900
H571	H57	0.588100	0.120900	0.072700
C651	C65	0.683500	0.313400	0.185200
H581	H58	0.672800	0.365400	0.331100
C661	C66	0.691600	0.222500	0.011300
H591	H59	0.717200	0.361900	0.175100
C671	C67	0.708000	0.306900	0.944800
H601	H60	0.655000	0.176100	0.954300
H611	H61	0.700900	0.366900	0.978900
C681	C68	0.658500	0.304900	0.812200
N121	N12	0.674500	0.376100	0.753700
O61	O6	0.609900	0.239500	0.760600
C691	C69	0.647400	0.377100	0.625300
H621	H62	0.702300	0.424100	0.793600
C701	C70	0.571000	0.440700	0.560900
H631	H63	0.696300	0.396900	0.607600
H641	H64	0.632100	0.313600	0.595500
C711	C71	0.569400	0.495200	0.467600
C721	C72	0.499900	0.446500	0.592300
H651	H65	0.615900	0.492400	0.444700
H661	H66	0.499300	0.410400	0.654900
N131	N13	0.918800	0.670300	0.282400
C731	C73	0.891900	0.743100	0.207300
C741	C74	0.893100	0.670300	0.373600
C751	C75	0.842800	0.815200	0.221700
H671	H67	0.907300	0.744800	0.142700
C761	C76	0.841300	0.737600	0.393100
H681	H68	0.911900	0.620900	0.427300
C771	C77	0.816500	0.813400	0.314800
H691	H69	0.827200	0.865400	0.168900
C781	C78	0.808400	0.722500	0.488700
H701	H70	0.782800	0.861900	0.324900
C791	C79	0.792000	0.806900	0.555200
H711	H71	0.845000	0.676100	0.545700
H721	H72	0.799100	0.866900	0.521100
C801	C80	0.841500	0.804900	0.687800
N141	N14	0.825500	0.876100	0.746300
O71	O7	0.890100	0.739500	0.739400
C811	C81	0.852600	0.877100	0.874700
H731	H73	0.797700	0.924100	0.706400
C821	C82	0.929000	0.940700	0.939100
H741	H74	0.803700	0.896900	0.892400
H751	H75	0.867900	0.813600	0.904500
C831	C83	0.930600	0.995200	0.032400
C841	C84	0.000100	0.946500	0.907700
H761	H76	0.884100	0.992400	0.055300
H771	H77	0.000700	0.910400	0.845100
N151	N15	0.418800	0.170300	0.282400
C851	C85	0.391900	0.243100	0.207300
C861	C86	0.393100	0.170300	0.373600
C871	C87	0.342800	0.315200	0.221700
H781	H78	0.407300	0.244800	0.142700
C881	C88	0.341300	0.237600	0.393100
H791	H79	0.411900	0.120900	0.427300
C891	C89	0.316500	0.313400	0.314800
H801	H80	0.327200	0.365400	0.168900
C901	C90	0.308400	0.222500	0.488700
H811	H81	0.282800	0.361900	0.324900
C911	C91	0.292000	0.306900	0.555200
H821	H82	0.345000	0.176100	0.545700
H831	H83	0.299100	0.366900	0.521100
C921	C92	0.341500	0.304900	0.687800
N161	N16	0.325500	0.376100	0.746300
O81	O8	0.390100	0.239500	0.739400
C931	C93	0.352600	0.377100	0.874700
H841	H84	0.297700	0.424100	0.706400
C941	C94	0.429000	0.440700	0.939100
H851	H85	0.303700	0.396900	0.892400
H861	H86	0.367900	0.313600	0.904500
C951	C95	0.430600	0.495200	0.032400
C961	C96	0.500100	0.446500	0.907700
H871	H87	0.384100	0.492400	0.055300
H881	H88	0.500700	0.410400	0.845100
Cd11	Cd1	0.000000	0.451140	0.750000
Cd21	Cd2	0.500000	0.951140	0.750000
Cd31	Cd3	0.000000	0.548860	0.250000
Cd41	Cd4	0.500000	0.048860	0.250000
