data_UCEXEG_clean_PM
_symmetry_space_group_name_H-M	'P1'
_cell_length_a	10.738300
_cell_length_b	11.280800
_cell_length_c	26.138000
_cell_angle_alpha	85.111000
_cell_angle_beta	88.148000
_cell_angle_gamma	62.415000
_symmetry_Int_Tables_number 1

loop_
_symmetry_equiv_pos_as_xyz
'x,y,z'

loop_
_atom_site_label
_atom_site_type_symbol
_atom_site_fract_x
_atom_site_fract_y
_atom_site_fract_z
Dy11	Dy1	0.619820	0.464220	0.939670
Dy21	Dy2	0.588510	0.882820	0.600370
Dy31	Dy3	0.656250	0.653550	0.758150
Dy41	Dy4	0.380180	0.535780	0.060330
Dy51	Dy5	0.411490	0.117180	0.399630
Dy61	Dy6	0.343750	0.346450	0.241850
H11	H1	0.545700	0.092600	0.924300
H21	H2	0.455300	0.112500	0.074100
H31	H3	0.962200	0.494400	0.950000
H41	H4	0.175900	0.484700	0.973000
H51	H5	0.145200	0.733900	0.849500
H61	H6	0.927500	0.750300	0.829600
H71	H7	0.662000	0.141600	0.854100
H81	H8	0.633200	0.982300	0.812800
H91	H9	0.541200	0.219000	0.681700
H101	H10	0.565800	0.377700	0.723100
H111	H11	0.079000	0.669000	0.750500
H121	H12	0.291400	0.671300	0.740800
H131	H13	0.186700	0.832600	0.596500
H141	H14	0.980100	0.816500	0.604900
H151	H15	0.866000	0.132000	0.563700
H161	H16	0.943200	0.847400	0.467300
H171	H17	0.643200	0.430300	0.572400
H181	H18	0.406700	0.719500	0.465500
H191	H19	0.454300	0.907400	0.075700
H201	H20	0.544700	0.887500	0.925900
H211	H21	0.037800	0.505600	0.050000
H221	H22	0.824100	0.515300	0.027000
H231	H23	0.854800	0.266100	0.150500
H241	H24	0.072500	0.249700	0.170400
H251	H25	0.338000	0.858400	0.145900
H261	H26	0.366800	0.017700	0.187200
H271	H27	0.458800	0.781000	0.318300
H281	H28	0.434200	0.622300	0.276900
H291	H29	0.921000	0.331000	0.249500
H301	H30	0.708600	0.328700	0.259200
H311	H31	0.813300	0.167400	0.403500
H321	H32	0.019900	0.183500	0.395100
H331	H33	0.134000	0.868000	0.436300
H341	H34	0.056800	0.152600	0.532700
H351	H35	0.356800	0.569700	0.427600
H361	H36	0.593300	0.280500	0.534500
C11	C1	0.510200	0.253700	0.998790
C21	C2	0.504900	0.121000	0.998910
C31	C3	0.528200	0.054900	0.954980
C41	C4	0.474200	0.067300	0.044380
C51	C5	0.791800	0.622800	0.872890
C61	C6	0.924800	0.621600	0.888450
C71	C7	0.998100	0.543600	0.930010
C81	C8	0.128200	0.535400	0.943490
C91	C9	0.183400	0.603900	0.912190
C101	C10	0.108800	0.685700	0.869790
C111	C11	0.978500	0.695200	0.857830
C121	C12	0.323400	0.585800	0.924300
C131	C13	0.631100	0.382400	0.819450
C141	C14	0.616500	0.277200	0.792470
C151	C15	0.636700	0.157500	0.819560
C161	C16	0.618900	0.062400	0.794780
C171	C17	0.580100	0.085600	0.743540
C181	C18	0.563400	0.203900	0.716490
C191	C19	0.579800	0.297900	0.741300
C201	C20	0.559300	0.982100	0.717450
C211	C21	0.870900	0.734900	0.683920
C221	C22	0.007100	0.740700	0.677940
C231	C23	0.101200	0.699900	0.719190
C241	C24	0.226800	0.705100	0.713760
C251	C25	0.258700	0.759600	0.668970
C261	C26	0.165800	0.799400	0.627560
C271	C27	0.041500	0.789400	0.632780
C281	C28	0.389500	0.774900	0.664530
C291	C29	0.767900	0.964000	0.543700
C301	C30	0.885800	0.984600	0.519360
C311	C31	0.920400	0.078600	0.538230
C321	C32	0.966500	0.908400	0.480660
C331	C33	0.561000	0.690700	0.546050
C341	C34	0.529100	0.592000	0.522850
C351	C35	0.585700	0.458400	0.543430
C361	C36	0.444200	0.631100	0.479450
C371	C37	0.489800	0.746300	0.001210
C381	C38	0.495100	0.879000	0.001090
C391	C39	0.471800	0.945100	0.045020
C401	C40	0.525800	0.932700	0.955620
C411	C41	0.208200	0.377200	0.127110
C421	C42	0.075200	0.378400	0.111550
C431	C43	0.001900	0.456400	0.069990
C441	C44	0.871800	0.464600	0.056510
C451	C45	0.816600	0.396100	0.087810
C461	C46	0.891200	0.314300	0.130210
C471	C47	0.021500	0.304800	0.142170
C481	C48	0.676600	0.414200	0.075700
C491	C49	0.368900	0.617600	0.180550
C501	C50	0.383500	0.722800	0.207530
C511	C51	0.363300	0.842500	0.180440
C521	C52	0.381100	0.937600	0.205220
C531	C53	0.419900	0.914400	0.256460
C541	C54	0.436600	0.796100	0.283510
C551	C55	0.420200	0.702100	0.258700
C561	C56	0.440700	0.017900	0.282550
C571	C57	0.129100	0.265100	0.316080
C581	C58	0.992900	0.259300	0.322060
C591	C59	0.898800	0.300100	0.280810
C601	C60	0.773200	0.294900	0.286240
C611	C61	0.741300	0.240400	0.331030
C621	C62	0.834200	0.200600	0.372440
C631	C63	0.958500	0.210600	0.367220
C641	C64	0.610500	0.225100	0.335470
C651	C65	0.232100	0.036000	0.456300
C661	C66	0.114200	0.015400	0.480640
C671	C67	0.079600	0.921400	0.461770
C681	C68	0.033500	0.091600	0.519340
C691	C69	0.439000	0.309300	0.453950
C701	C70	0.470900	0.408000	0.477150
C711	C71	0.414300	0.541600	0.456570
C721	C72	0.555800	0.368900	0.520550
O11	O1	0.574900	0.278700	0.961890
O21	O2	0.454700	0.321800	0.035210
O31	O3	0.756600	0.544600	0.899510
O41	O4	0.726500	0.693900	0.834640
O51	O5	0.369700	0.549800	0.970320
O61	O6	0.404200	0.591000	0.889090
O71	O7	0.665600	0.355600	0.865820
O81	O8	0.606000	0.489800	0.794350
O91	O9	0.564100	0.884100	0.745030
O101	O10	0.535800	0.002200	0.670200
O111	O11	0.841500	0.697200	0.725700
O121	O12	0.793300	0.764600	0.644410
O131	O13	0.487100	0.707100	0.695090
O141	O14	0.394800	0.855800	0.629660
O151	O15	0.644400	0.652500	0.584020
O161	O16	0.505500	0.810500	0.527920
O171	O17	0.697300	0.031900	0.579320
O181	O18	0.744300	0.872000	0.527910
O191	O19	0.425100	0.721300	0.038110
O201	O20	0.545300	0.678200	0.964790
O211	O21	0.243400	0.455400	0.100490
O221	O22	0.273500	0.306100	0.165360
O231	O23	0.630300	0.450200	0.029680
O241	O24	0.595800	0.409000	0.110910
O251	O25	0.334400	0.644400	0.134180
O261	O26	0.394000	0.510200	0.205650
O271	O27	0.435900	0.115900	0.254970
O281	O28	0.464200	0.997800	0.329800
O291	O29	0.158500	0.302800	0.274300
O301	O30	0.206700	0.235400	0.355590
O311	O31	0.512900	0.292900	0.304910
O321	O32	0.605200	0.144200	0.370340
O331	O33	0.355600	0.347500	0.415980
O341	O34	0.494500	0.189500	0.472080
O351	O35	0.302700	0.968100	0.420680
O361	O36	0.255700	0.128000	0.472090
