data_UCEXOQ_clean_PM
_symmetry_space_group_name_H-M	'P1'
_cell_length_a	10.709800
_cell_length_b	11.244900
_cell_length_c	26.066000
_cell_angle_alpha	84.998000
_cell_angle_beta	88.135000
_cell_angle_gamma	62.660000
_symmetry_Int_Tables_number 1

loop_
_symmetry_equiv_pos_as_xyz
'x,y,z'

loop_
_atom_site_label
_atom_site_type_symbol
_atom_site_fract_x
_atom_site_fract_y
_atom_site_fract_z
Er11	Er1	0.411530	0.617170	0.899730
Er21	Er2	0.344260	0.845900	0.741710
Er31	Er3	0.381330	0.034850	0.560250
Er41	Er4	0.588470	0.382830	0.100270
Er51	Er5	0.655740	0.154100	0.258290
Er61	Er6	0.618670	0.965150	0.439750
H11	H1	0.541500	0.390100	0.425200
H21	H2	0.452000	0.407700	0.575600
H31	H3	0.433300	0.119700	0.777900
H41	H4	0.461100	0.281500	0.818700
H51	H5	0.336100	0.358000	0.646100
H61	H6	0.365100	0.519200	0.686500
H71	H7	0.037600	0.007600	0.549200
H81	H8	0.823400	0.020200	0.527100
H91	H9	0.073700	0.746800	0.670100
H101	H10	0.855200	0.766100	0.650600
H111	H11	0.813400	0.666300	0.903600
H121	H12	0.016400	0.689300	0.896800
H131	H13	0.711800	0.823400	0.757800
H141	H14	0.921400	0.833400	0.749600
H151	H15	0.594800	0.779000	0.034800
H161	H16	0.359400	0.066000	0.927300
H171	H17	0.055700	0.655400	0.030900
H181	H18	0.131200	0.372400	0.934700
H191	H19	0.458500	0.609900	0.574800
H201	H20	0.548000	0.592300	0.424400
H211	H21	0.566700	0.880300	0.222100
H221	H22	0.538900	0.718500	0.181300
H231	H23	0.663900	0.642000	0.353900
H241	H24	0.634900	0.480800	0.313500
H251	H25	0.962400	0.992400	0.450800
H261	H26	0.176600	0.979800	0.472900
H271	H27	0.926300	0.253200	0.329900
H281	H28	0.144800	0.233900	0.349400
H291	H29	0.186600	0.333700	0.096400
H301	H30	0.983600	0.310700	0.103200
H311	H31	0.288200	0.176600	0.242200
H321	H32	0.078600	0.166600	0.250400
H331	H33	0.405200	0.221000	0.965200
H341	H34	0.640600	0.934000	0.072700
H351	H35	0.944300	0.344600	0.969100
H361	H36	0.868800	0.627600	0.065300
C11	C1	0.487600	0.247300	0.500950
C21	C2	0.494600	0.378600	0.501040
C31	C3	0.524600	0.434100	0.455220
C41	C4	0.471200	0.445100	0.545030
C51	C5	0.369200	0.117300	0.680270
C61	C6	0.384000	0.222200	0.707520
C71	C7	0.420300	0.199400	0.759540
C81	C8	0.437000	0.296500	0.783970
C91	C9	0.362400	0.342200	0.680710
C101	C10	0.379400	0.439200	0.704850
C111	C11	0.417900	0.416100	0.756670
C121	C12	0.440000	0.519100	0.782780
C131	C13	0.210400	0.876800	0.627250
C141	C14	0.077100	0.877100	0.611390
C151	C15	0.001600	0.958100	0.569290
C161	C16	0.872300	0.967200	0.556190
C171	C17	0.022600	0.803000	0.641940
C181	C18	0.892400	0.813800	0.630010
C191	C19	0.817400	0.895800	0.587330
C201	C20	0.673700	0.917600	0.574850
C211	C21	0.609000	0.725100	0.835060
C221	C22	0.742300	0.740600	0.831420
C231	C23	0.834300	0.700900	0.872670
C241	C24	0.957600	0.712300	0.868220
C251	C25	0.774700	0.793000	0.785410
C261	C26	0.899800	0.800000	0.780670
C271	C27	0.994600	0.757300	0.822010
C281	C28	0.130900	0.765700	0.817170
C291	C29	0.439100	0.808400	0.953380
C301	C30	0.470600	0.908000	0.977310
C311	C31	0.556300	0.867700	0.020840
C321	C32	0.415800	0.039300	0.956680
C331	C33	0.234000	0.535500	0.956060
C341	C34	0.114900	0.515000	0.980580
C351	C35	0.034000	0.591900	0.018580
C361	C36	0.079200	0.423300	0.961150
C371	C37	0.512400	0.752700	0.499050
C381	C38	0.505400	0.621400	0.498960
C391	C39	0.475400	0.565900	0.544780
C401	C40	0.528800	0.554900	0.454970
C411	C41	0.630800	0.882700	0.319730
C421	C42	0.616000	0.777800	0.292480
C431	C43	0.579700	0.800600	0.240460
C441	C44	0.563000	0.703500	0.216030
C451	C45	0.637600	0.657800	0.319290
C461	C46	0.620600	0.560800	0.295150
C471	C47	0.582100	0.583900	0.243330
C481	C48	0.560000	0.480900	0.217220
C491	C49	0.789600	0.123200	0.372750
C501	C50	0.922900	0.122900	0.388610
C511	C51	0.998400	0.041900	0.430710
C521	C52	0.127700	0.032800	0.443810
C531	C53	0.977400	0.197000	0.358060
C541	C54	0.107600	0.186200	0.369990
C551	C55	0.182600	0.104200	0.412670
C561	C56	0.326300	0.082400	0.425150
C571	C57	0.391000	0.274900	0.164940
C581	C58	0.257700	0.259400	0.168580
C591	C59	0.165700	0.299100	0.127330
C601	C60	0.042400	0.287700	0.131780
C611	C61	0.225300	0.207000	0.214590
C621	C62	0.100200	0.200000	0.219330
C631	C63	0.005400	0.242700	0.177990
C641	C64	0.869100	0.234300	0.182830
C651	C65	0.560900	0.191600	0.046620
C661	C66	0.529400	0.092000	0.022690
C671	C67	0.443700	0.132300	0.979160
C681	C68	0.584200	0.960700	0.043320
C691	C69	0.766000	0.464500	0.043940
C701	C70	0.885100	0.485000	0.019420
C711	C71	0.966000	0.408100	0.981420
C721	C72	0.920800	0.576700	0.038850
O11	O1	0.426670	0.217940	0.538080
O21	O2	0.542820	0.179620	0.464570
O31	O3	0.335160	0.143820	0.633470
O41	O4	0.394940	0.007480	0.705750
O51	O5	0.435750	0.616750	0.755080
O61	O6	0.462790	0.498420	0.830050
O71	O7	0.246020	0.953560	0.600230
O81	O8	0.274250	0.805150	0.665740
O91	O9	0.629490	0.952250	0.529380
O101	O10	0.594630	0.911100	0.610530
O111	O11	0.512040	0.794850	0.804280
O121	O12	0.603940	0.644810	0.870150
O131	O13	0.161670	0.801520	0.774090
O141	O14	0.206960	0.733880	0.856690
O151	O15	0.356060	0.844850	0.915690
O161	O16	0.497520	0.686910	0.971740
O171	O17	0.256610	0.629120	0.971920
O181	O18	0.302390	0.468810	0.920980
O191	O19	0.573330	0.782060	0.461920
O201	O20	0.457180	0.820380	0.535430
O211	O21	0.664840	0.856180	0.366530
O221	O22	0.605060	0.992520	0.294250
O231	O23	0.564250	0.383250	0.244920
O241	O24	0.537210	0.501580	0.169950
O251	O25	0.753980	0.046440	0.399770
O261	O26	0.725750	0.194850	0.334260
O271	O27	0.370510	0.047750	0.470620
O281	O28	0.405370	0.088900	0.389470
O291	O29	0.487960	0.205150	0.195720
O301	O30	0.396060	0.355190	0.129850
O311	O31	0.838330	0.198480	0.225910
O321	O32	0.793040	0.266120	0.143310
O331	O33	0.643940	0.155150	0.084310
O341	O34	0.502480	0.313090	0.028260
O351	O35	0.743390	0.370880	0.028080
O361	O36	0.697610	0.531190	0.079020
