data_UCOJIH_clean_PM
_symmetry_space_group_name_H-M	'P1'
_cell_length_a	28.147000
_cell_length_b	13.892600
_cell_length_c	44.028000
_cell_angle_alpha	90.000000
_cell_angle_beta	90.000000
_cell_angle_gamma	90.000000
_symmetry_Int_Tables_number 1

loop_
_symmetry_equiv_pos_as_xyz
'x,y,z'

loop_
_atom_site_label
_atom_site_type_symbol
_atom_site_fract_x
_atom_site_fract_y
_atom_site_fract_z
Zn11	Zn1	0.022120	0.888880	0.910230
Zn21	Zn2	0.546370	0.863520	0.906960
Zn31	Zn3	0.760730	0.190890	0.675460
I11	I1	0.006520	0.803780	0.961030
I21	I2	0.070900	0.812240	0.868470
I31	I3	0.556630	0.682030	0.908250
I41	I4	0.481740	0.951100	0.877130
I51	I5	0.672650	0.191590	0.662450
I61	I6	0.803380	0.351640	0.682030
C11	C1	0.916900	0.912600	0.905510
H11	H1	0.917700	0.897200	0.926500
C21	C2	0.872900	0.926200	0.891570
H21	H2	0.844300	0.920000	0.902900
C31	C3	0.871300	0.948900	0.861070
C41	C4	0.913300	0.958000	0.845460
H31	H3	0.913000	0.974100	0.824500
C51	C5	0.955900	0.943600	0.860300
H41	H4	0.984600	0.950000	0.849100
C61	C6	0.812100	0.112800	0.729200
H51	H5	0.838800	0.140900	0.719500
C71	C7	0.817900	0.072900	0.757260
H61	H6	0.848500	0.071500	0.766400
C81	C8	0.778700	0.033700	0.772730
C91	C9	0.735400	0.032600	0.757520
H71	H7	0.708200	0.004500	0.766700
C101	C10	0.732200	0.072900	0.728820
H81	H8	0.702400	0.071500	0.718800
C111	C11	0.613700	0.940700	0.862290
H91	H9	0.584900	0.950000	0.851400
C121	C12	0.656100	0.957800	0.847320
H101	H10	0.656500	0.977300	0.826600
C131	C13	0.698200	0.945500	0.863590
C141	C14	0.696200	0.919600	0.893930
H111	H11	0.724300	0.913300	0.905700
C151	C15	0.651800	0.903100	0.906700
H121	H12	0.650300	0.884700	0.927500
C161	C16	0.824000	0.962000	0.845320
C171	C17	0.745000	0.959200	0.847670
C181	C18	0.781700	0.998700	0.804110
C191	C19	0.066600	0.634100	0.026420
H131	H13	0.072500	0.700900	0.029200
C201	C20	0.077200	0.592600	0.999040
H141	H14	0.089200	0.631300	0.983000
C211	C21	0.070500	0.495400	0.994370
C221	C22	0.050300	0.442500	0.018530
H151	H15	0.044400	0.375500	0.016400
C231	C23	0.039400	0.488700	0.044860
H161	H16	0.024900	0.452600	0.060700
C241	C24	0.042500	0.061800	0.948800
H171	H17	0.027000	0.025000	0.964000
C251	C25	0.056500	0.155500	0.955290
H181	H18	0.050500	0.182500	0.974700
C261	C26	0.079600	0.210000	0.932870
C271	C27	0.088100	0.167000	0.904570
H191	H19	0.104900	0.200800	0.889200
C281	C28	0.071700	0.074500	0.899520
H201	H20	0.075700	0.047300	0.879900
C291	C29	0.201200	0.514400	0.854140
H211	H21	0.218300	0.483100	0.838400
C301	C30	0.177000	0.459400	0.875530
H221	H22	0.177000	0.391200	0.874200
C311	C31	0.152900	0.505000	0.898710
C321	C32	0.152400	0.605100	0.899000
H231	H23	0.135800	0.639100	0.914400
C331	C33	0.176200	0.653500	0.876900
H241	H24	0.174900	0.721800	0.876800
C341	C34	0.086300	0.447100	0.966190
C351	C35	0.126300	0.448700	0.922380
C361	C36	0.092500	0.311400	0.938060
N11	N1	0.958400	0.920600	0.890160
N21	N2	0.610800	0.911900	0.891100
N31	N3	0.769300	0.114100	0.714420
N41	N4	0.785000	0.945600	0.862440
N51	N5	0.741000	0.985200	0.818210
N61	N6	0.825500	0.987500	0.816760
N71	N7	0.048000	0.582300	0.049720
N81	N8	0.200800	0.609800	0.855370
N91	N9	0.050600	0.021400	0.921010
N101	N10	0.110800	0.498900	0.946170
N111	N11	0.119100	0.355400	0.917190
N121	N12	0.075100	0.352400	0.962770
Zn41	Zn4	0.477880	0.111120	0.410230
Zn51	Zn5	0.953630	0.136480	0.406960
Zn61	Zn6	0.739270	0.809110	0.175460
I71	I7	0.493480	0.196220	0.461030
I81	I8	0.429100	0.187760	0.368470
I91	I9	0.943370	0.317970	0.408250
I101	I10	0.018260	0.048900	0.377130
I111	I11	0.827350	0.808410	0.162450
I121	I12	0.696620	0.648360	0.182030
C371	C37	0.583100	0.087400	0.405510
H251	H25	0.582300	0.102800	0.426500
C381	C38	0.627100	0.073800	0.391570
H261	H26	0.655700	0.080000	0.402900
C391	C39	0.628700	0.051100	0.361070
C401	C40	0.586700	0.042000	0.345460
H271	H27	0.587000	0.025900	0.324500
C411	C41	0.544100	0.056400	0.360300
H281	H28	0.515400	0.050000	0.349100
C421	C42	0.687900	0.887200	0.229200
H291	H29	0.661200	0.859100	0.219500
C431	C43	0.682100	0.927100	0.257260
H301	H30	0.651500	0.928500	0.266400
C441	C44	0.721300	0.966300	0.272730
C451	C45	0.764600	0.967400	0.257520
H311	H31	0.791800	0.995500	0.266700
C461	C46	0.767800	0.927100	0.228820
H321	H32	0.797600	0.928500	0.218800
C471	C47	0.886300	0.059300	0.362290
H331	H33	0.915100	0.050000	0.351400
C481	C48	0.843900	0.042200	0.347320
H341	H34	0.843500	0.022700	0.326600
C491	C49	0.801800	0.054500	0.363590
C501	C50	0.803800	0.080400	0.393930
H351	H35	0.775700	0.086700	0.405700
C511	C51	0.848200	0.096900	0.406700
H361	H36	0.849700	0.115300	0.427500
C521	C52	0.676000	0.038000	0.345320
C531	C53	0.755000	0.040800	0.347670
C541	C54	0.718300	0.001300	0.304110
C551	C55	0.433400	0.365900	0.526420
H371	H37	0.427500	0.299100	0.529200
C561	C56	0.422800	0.407400	0.499040
H381	H38	0.410800	0.368700	0.483000
C571	C57	0.429500	0.504600	0.494370
C581	C58	0.449700	0.557500	0.518530
H391	H39	0.455600	0.624500	0.516400
C591	C59	0.460600	0.511300	0.544860
H401	H40	0.475100	0.547400	0.560700
C601	C60	0.457500	0.938200	0.448800
H411	H41	0.473000	0.975000	0.464000
C611	C61	0.443500	0.844500	0.455290
H421	H42	0.449500	0.817500	0.474700
C621	C62	0.420400	0.790000	0.432870
C631	C63	0.411900	0.833000	0.404570
H431	H43	0.395100	0.799200	0.389200
C641	C64	0.428300	0.925500	0.399520
H441	H44	0.424300	0.952700	0.379900
C651	C65	0.298800	0.485600	0.354140
H451	H45	0.281700	0.516900	0.338400
C661	C66	0.323000	0.540600	0.375530
H461	H46	0.323000	0.608800	0.374200
C671	C67	0.347100	0.495000	0.398710
C681	C68	0.347600	0.394900	0.399000
H471	H47	0.364200	0.360900	0.414400
C691	C69	0.323800	0.346500	0.376900
H481	H48	0.325100	0.278200	0.376800
C701	C70	0.413700	0.552900	0.466190
C711	C71	0.373700	0.551300	0.422380
C721	C72	0.407500	0.688600	0.438060
N131	N13	0.541600	0.079400	0.390160
N141	N14	0.889200	0.088100	0.391100
N151	N15	0.730700	0.885900	0.214420
N161	N16	0.715000	0.054400	0.362440
N171	N17	0.759000	0.014800	0.318210
N181	N18	0.674500	0.012500	0.316760
N191	N19	0.452000	0.417700	0.549720
N201	N20	0.299200	0.390200	0.355370
N211	N21	0.449400	0.978600	0.421010
N221	N22	0.389200	0.501100	0.446170
N231	N23	0.380900	0.644600	0.417190
N241	N24	0.424900	0.647600	0.462770
Zn71	Zn7	0.977880	0.388880	0.589770
Zn81	Zn8	0.453630	0.363520	0.593040
Zn91	Zn9	0.239270	0.690890	0.824540
I131	I13	0.993480	0.303780	0.538970
I141	I14	0.929100	0.312240	0.631530
I151	I15	0.443370	0.182030	0.591750
I161	I16	0.518260	0.451100	0.622870
I171	I17	0.327350	0.691590	0.837550
I181	I18	0.196620	0.851640	0.817970
C731	C73	0.083100	0.412600	0.594490
H491	H49	0.082300	0.397200	0.573500
C741	C74	0.127100	0.426200	0.608430
H501	H50	0.155700	0.420000	0.597100
C751	C75	0.128700	0.448900	0.638930
C761	C76	0.086700	0.458000	0.654540
H511	H51	0.087000	0.474100	0.675500
C771	C77	0.044100	0.443600	0.639700
H521	H52	0.015400	0.450000	0.650900
C781	C78	0.187900	0.612800	0.770800
H531	H53	0.161200	0.640900	0.780500
C791	C79	0.182100	0.572900	0.742740
H541	H54	0.151500	0.571500	0.733600
C801	C80	0.221300	0.533700	0.727270
C811	C81	0.264600	0.532600	0.742480
H551	H55	0.291800	0.504500	0.733300
C821	C82	0.267800	0.572900	0.771180
H561	H56	0.297600	0.571500	0.781200
C831	C83	0.386300	0.440700	0.637710
H571	H57	0.415100	0.450000	0.648600
C841	C84	0.343900	0.457800	0.652680
H581	H58	0.343500	0.477300	0.673400
C851	C85	0.301800	0.445500	0.636410
C861	C86	0.303800	0.419600	0.606070
H591	H59	0.275700	0.413300	0.594300
C871	C87	0.348200	0.403100	0.593300
H601	H60	0.349700	0.384700	0.572500
C881	C88	0.176000	0.462000	0.654680
C891	C89	0.255000	0.459200	0.652330
C901	C90	0.218300	0.498700	0.695890
C911	C91	0.933400	0.134100	0.473580
H611	H61	0.927500	0.200900	0.470800
C921	C92	0.922800	0.092600	0.500960
H621	H62	0.910800	0.131300	0.517000
C931	C93	0.929500	0.995400	0.505630
C941	C94	0.949700	0.942500	0.481470
H631	H63	0.955600	0.875500	0.483600
C951	C95	0.960600	0.988700	0.455140
H641	H64	0.975100	0.952600	0.439300
C961	C96	0.957500	0.561800	0.551200
H651	H65	0.973000	0.525000	0.536000
C971	C97	0.943500	0.655500	0.544710
H661	H66	0.949500	0.682500	0.525300
C981	C98	0.920400	0.710000	0.567130
C991	C99	0.911900	0.667000	0.595430
H671	H67	0.895100	0.700800	0.610800
C1001	C100	0.928300	0.574500	0.600480
H681	H68	0.924300	0.547300	0.620100
C1011	C101	0.798800	0.014400	0.645860
H691	H69	0.781700	0.983100	0.661600
C1021	C102	0.823000	0.959400	0.624470
H701	H70	0.823000	0.891200	0.625800
C1031	C103	0.847100	0.005000	0.601290
C1041	C104	0.847600	0.105100	0.601000
H711	H71	0.864200	0.139100	0.585600
C1051	C105	0.823800	0.153500	0.623100
H721	H72	0.825100	0.221800	0.623200
C1061	C106	0.913700	0.947100	0.533810
C1071	C107	0.873700	0.948700	0.577620
C1081	C108	0.907500	0.811400	0.561940
N251	N25	0.041600	0.420600	0.609840
N261	N26	0.389200	0.411900	0.608900
N271	N27	0.230700	0.614100	0.785580
N281	N28	0.215000	0.445600	0.637560
N291	N29	0.259000	0.485200	0.681790
N301	N30	0.174500	0.487500	0.683240
N311	N31	0.952000	0.082300	0.450280
N321	N32	0.799200	0.109800	0.644630
N331	N33	0.949400	0.521400	0.578990
N341	N34	0.889200	0.998900	0.553830
N351	N35	0.880900	0.855400	0.582810
N361	N36	0.924900	0.852400	0.537230
Zn101	Zn10	0.522120	0.611120	0.089770
Zn111	Zn11	0.046370	0.636480	0.093040
Zn121	Zn12	0.260730	0.309110	0.324540
I191	I19	0.506520	0.696220	0.038970
I201	I20	0.570900	0.687760	0.131530
I211	I21	0.056630	0.817970	0.091750
I221	I22	0.981740	0.548900	0.122870
I231	I23	0.172650	0.308410	0.337550
I241	I24	0.303380	0.148360	0.317970
C1091	C109	0.416900	0.587400	0.094490
H731	H73	0.417700	0.602800	0.073500
C1101	C110	0.372900	0.573800	0.108430
H741	H74	0.344300	0.580000	0.097100
C1111	C111	0.371300	0.551100	0.138930
C1121	C112	0.413300	0.542000	0.154540
H751	H75	0.413000	0.525900	0.175500
C1131	C113	0.455900	0.556400	0.139700
H761	H76	0.484600	0.550000	0.150900
C1141	C114	0.312100	0.387200	0.270800
H771	H77	0.338800	0.359100	0.280500
C1151	C115	0.317900	0.427100	0.242740
H781	H78	0.348500	0.428500	0.233600
C1161	C116	0.278700	0.466300	0.227270
C1171	C117	0.235400	0.467400	0.242480
H791	H79	0.208200	0.495500	0.233300
C1181	C118	0.232200	0.427100	0.271180
H801	H80	0.202400	0.428500	0.281200
C1191	C119	0.113700	0.559300	0.137710
H811	H81	0.084900	0.550000	0.148600
C1201	C120	0.156100	0.542200	0.152680
H821	H82	0.156500	0.522700	0.173400
C1211	C121	0.198200	0.554500	0.136410
C1221	C122	0.196200	0.580400	0.106070
H831	H83	0.224300	0.586700	0.094300
C1231	C123	0.151800	0.596900	0.093300
H841	H84	0.150300	0.615300	0.072500
C1241	C124	0.324000	0.538000	0.154680
C1251	C125	0.245000	0.540800	0.152330
C1261	C126	0.281700	0.501300	0.195890
C1271	C127	0.566600	0.865900	0.973580
H851	H85	0.572500	0.799100	0.970800
C1281	C128	0.577200	0.907400	0.000960
H861	H86	0.589200	0.868700	0.017000
C1291	C129	0.570500	0.004600	0.005630
C1301	C130	0.550300	0.057500	0.981470
H871	H87	0.544400	0.124500	0.983600
C1311	C131	0.539400	0.011300	0.955140
H881	H88	0.524900	0.047400	0.939300
C1321	C132	0.542500	0.438200	0.051200
H891	H89	0.527000	0.475000	0.036000
C1331	C133	0.556500	0.344500	0.044710
H901	H90	0.550500	0.317500	0.025300
C1341	C134	0.579600	0.290000	0.067130
C1351	C135	0.588100	0.333000	0.095430
H911	H91	0.604900	0.299200	0.110800
C1361	C136	0.571700	0.425500	0.100480
H921	H92	0.575700	0.452700	0.120100
C1371	C137	0.701200	0.985600	0.145860
H931	H93	0.718300	0.016900	0.161600
C1381	C138	0.677000	0.040600	0.124470
H941	H94	0.677000	0.108800	0.125800
C1391	C139	0.652900	0.995000	0.101290
C1401	C140	0.652400	0.894900	0.101000
H951	H95	0.635800	0.860900	0.085600
C1411	C141	0.676200	0.846500	0.123100
H961	H96	0.674900	0.778200	0.123200
C1421	C142	0.586300	0.052900	0.033810
C1431	C143	0.626300	0.051300	0.077620
C1441	C144	0.592500	0.188600	0.061940
N371	N37	0.458400	0.579400	0.109840
N381	N38	0.110800	0.588100	0.108900
N391	N39	0.269300	0.385900	0.285580
N401	N40	0.285000	0.554400	0.137560
N411	N41	0.241000	0.514800	0.181790
N421	N42	0.325500	0.512500	0.183240
N431	N43	0.548000	0.917700	0.950280
N441	N44	0.700800	0.890200	0.144630
N451	N45	0.550600	0.478600	0.078990
N461	N46	0.610800	0.001100	0.053830
N471	N47	0.619100	0.144600	0.082810
N481	N48	0.575100	0.147600	0.037230
Zn131	Zn13	0.977880	0.111120	0.089770
Zn141	Zn14	0.453630	0.136480	0.093040
Zn151	Zn15	0.239270	0.809110	0.324540
I251	I25	0.993480	0.196220	0.038970
I261	I26	0.929100	0.187760	0.131530
I271	I27	0.443370	0.317970	0.091750
I281	I28	0.518260	0.048900	0.122870
I291	I29	0.327350	0.808410	0.337550
I301	I30	0.196620	0.648360	0.317970
C1451	C145	0.083100	0.087400	0.094490
H971	H97	0.082300	0.102800	0.073500
C1461	C146	0.127100	0.073800	0.108430
H981	H98	0.155700	0.080000	0.097100
C1471	C147	0.128700	0.051100	0.138930
C1481	C148	0.086700	0.042000	0.154540
H991	H99	0.087000	0.025900	0.175500
C1491	C149	0.044100	0.056400	0.139700
H1001	H100	0.015400	0.050000	0.150900
C1501	C150	0.187900	0.887200	0.270800
H1011	H101	0.161200	0.859100	0.280500
C1511	C151	0.182100	0.927100	0.242740
H1021	H102	0.151500	0.928500	0.233600
C1521	C152	0.221300	0.966300	0.227270
C1531	C153	0.264600	0.967400	0.242480
H1031	H103	0.291800	0.995500	0.233300
C1541	C154	0.267800	0.927100	0.271180
H1041	H104	0.297600	0.928500	0.281200
C1551	C155	0.386300	0.059300	0.137710
H1051	H105	0.415100	0.050000	0.148600
C1561	C156	0.343900	0.042200	0.152680
H1061	H106	0.343500	0.022700	0.173400
C1571	C157	0.301800	0.054500	0.136410
C1581	C158	0.303800	0.080400	0.106070
H1071	H107	0.275700	0.086700	0.094300
C1591	C159	0.348200	0.096900	0.093300
H1081	H108	0.349700	0.115300	0.072500
C1601	C160	0.176000	0.038000	0.154680
C1611	C161	0.255000	0.040800	0.152330
C1621	C162	0.218300	0.001300	0.195890
C1631	C163	0.933400	0.365900	0.973580
H1091	H109	0.927500	0.299100	0.970800
C1641	C164	0.922800	0.407400	0.000960
H1101	H110	0.910800	0.368700	0.017000
C1651	C165	0.929500	0.504600	0.005630
C1661	C166	0.949700	0.557500	0.981470
H1111	H111	0.955600	0.624500	0.983600
C1671	C167	0.960600	0.511300	0.955140
H1121	H112	0.975100	0.547400	0.939300
C1681	C168	0.957500	0.938200	0.051200
H1131	H113	0.973000	0.975000	0.036000
C1691	C169	0.943500	0.844500	0.044710
H1141	H114	0.949500	0.817500	0.025300
C1701	C170	0.920400	0.790000	0.067130
C1711	C171	0.911900	0.833000	0.095430
H1151	H115	0.895100	0.799200	0.110800
C1721	C172	0.928300	0.925500	0.100480
H1161	H116	0.924300	0.952700	0.120100
C1731	C173	0.798800	0.485600	0.145860
H1171	H117	0.781700	0.516900	0.161600
C1741	C174	0.823000	0.540600	0.124470
H1181	H118	0.823000	0.608800	0.125800
C1751	C175	0.847100	0.495000	0.101290
C1761	C176	0.847600	0.394900	0.101000
H1191	H119	0.864200	0.360900	0.085600
C1771	C177	0.823800	0.346500	0.123100
H1201	H120	0.825100	0.278200	0.123200
C1781	C178	0.913700	0.552900	0.033810
C1791	C179	0.873700	0.551300	0.077620
C1801	C180	0.907500	0.688600	0.061940
N491	N49	0.041600	0.079400	0.109840
N501	N50	0.389200	0.088100	0.108900
N511	N51	0.230700	0.885900	0.285580
N521	N52	0.215000	0.054400	0.137560
N531	N53	0.259000	0.014800	0.181790
N541	N54	0.174500	0.012500	0.183240
N551	N55	0.952000	0.417700	0.950280
N561	N56	0.799200	0.390200	0.144630
N571	N57	0.949400	0.978600	0.078990
N581	N58	0.889200	0.501100	0.053830
N591	N59	0.880900	0.644600	0.082810
N601	N60	0.924900	0.647600	0.037230
Zn161	Zn16	0.522120	0.888880	0.589770
Zn171	Zn17	0.046370	0.863520	0.593040
Zn181	Zn18	0.260730	0.190890	0.824540
I311	I31	0.506520	0.803780	0.538970
I321	I32	0.570900	0.812240	0.631530
I331	I33	0.056630	0.682030	0.591750
I341	I34	0.981740	0.951100	0.622870
I351	I35	0.172650	0.191590	0.837550
I361	I36	0.303380	0.351640	0.817970
C1811	C181	0.416900	0.912600	0.594490
H1211	H121	0.417700	0.897200	0.573500
C1821	C182	0.372900	0.926200	0.608430
H1221	H122	0.344300	0.920000	0.597100
C1831	C183	0.371300	0.948900	0.638930
C1841	C184	0.413300	0.958000	0.654540
H1231	H123	0.413000	0.974100	0.675500
C1851	C185	0.455900	0.943600	0.639700
H1241	H124	0.484600	0.950000	0.650900
C1861	C186	0.312100	0.112800	0.770800
H1251	H125	0.338800	0.140900	0.780500
C1871	C187	0.317900	0.072900	0.742740
H1261	H126	0.348500	0.071500	0.733600
C1881	C188	0.278700	0.033700	0.727270
C1891	C189	0.235400	0.032600	0.742480
H1271	H127	0.208200	0.004500	0.733300
C1901	C190	0.232200	0.072900	0.771180
H1281	H128	0.202400	0.071500	0.781200
C1911	C191	0.113700	0.940700	0.637710
H1291	H129	0.084900	0.950000	0.648600
C1921	C192	0.156100	0.957800	0.652680
H1301	H130	0.156500	0.977300	0.673400
C1931	C193	0.198200	0.945500	0.636410
C1941	C194	0.196200	0.919600	0.606070
H1311	H131	0.224300	0.913300	0.594300
C1951	C195	0.151800	0.903100	0.593300
H1321	H132	0.150300	0.884700	0.572500
C1961	C196	0.324000	0.962000	0.654680
C1971	C197	0.245000	0.959200	0.652330
C1981	C198	0.281700	0.998700	0.695890
C1991	C199	0.566600	0.634100	0.473580
H1331	H133	0.572500	0.700900	0.470800
C2001	C200	0.577200	0.592600	0.500960
H1341	H134	0.589200	0.631300	0.517000
C2011	C201	0.570500	0.495400	0.505630
C2021	C202	0.550300	0.442500	0.481470
H1351	H135	0.544400	0.375500	0.483600
C2031	C203	0.539400	0.488700	0.455140
H1361	H136	0.524900	0.452600	0.439300
C2041	C204	0.542500	0.061800	0.551200
H1371	H137	0.527000	0.025000	0.536000
C2051	C205	0.556500	0.155500	0.544710
H1381	H138	0.550500	0.182500	0.525300
C2061	C206	0.579600	0.210000	0.567130
C2071	C207	0.588100	0.167000	0.595430
H1391	H139	0.604900	0.200800	0.610800
C2081	C208	0.571700	0.074500	0.600480
H1401	H140	0.575700	0.047300	0.620100
C2091	C209	0.701200	0.514400	0.645860
H1411	H141	0.718300	0.483100	0.661600
C2101	C210	0.677000	0.459400	0.624470
H1421	H142	0.677000	0.391200	0.625800
C2111	C211	0.652900	0.505000	0.601290
C2121	C212	0.652400	0.605100	0.601000
H1431	H143	0.635800	0.639100	0.585600
C2131	C213	0.676200	0.653500	0.623100
H1441	H144	0.674900	0.721800	0.623200
C2141	C214	0.586300	0.447100	0.533810
C2151	C215	0.626300	0.448700	0.577620
C2161	C216	0.592500	0.311400	0.561940
N611	N61	0.458400	0.920600	0.609840
N621	N62	0.110800	0.911900	0.608900
N631	N63	0.269300	0.114100	0.785580
N641	N64	0.285000	0.945600	0.637560
N651	N65	0.241000	0.985200	0.681790
N661	N66	0.325500	0.987500	0.683240
N671	N67	0.548000	0.582300	0.450280
N681	N68	0.700800	0.609800	0.644630
N691	N69	0.550600	0.021400	0.578990
N701	N70	0.610800	0.498900	0.553830
N711	N71	0.619100	0.355400	0.582810
N721	N72	0.575100	0.352400	0.537230
Zn191	Zn19	0.022120	0.611120	0.410230
Zn201	Zn20	0.546370	0.636480	0.406960
Zn211	Zn21	0.760730	0.309110	0.175460
I371	I37	0.006520	0.696220	0.461030
I381	I38	0.070900	0.687760	0.368470
I391	I39	0.556630	0.817970	0.408250
I401	I40	0.481740	0.548900	0.377130
I411	I41	0.672650	0.308410	0.162450
I421	I42	0.803380	0.148360	0.182030
C2171	C217	0.916900	0.587400	0.405510
H1451	H145	0.917700	0.602800	0.426500
C2181	C218	0.872900	0.573800	0.391570
H1461	H146	0.844300	0.580000	0.402900
C2191	C219	0.871300	0.551100	0.361070
C2201	C220	0.913300	0.542000	0.345460
H1471	H147	0.913000	0.525900	0.324500
C2211	C221	0.955900	0.556400	0.360300
H1481	H148	0.984600	0.550000	0.349100
C2221	C222	0.812100	0.387200	0.229200
H1491	H149	0.838800	0.359100	0.219500
C2231	C223	0.817900	0.427100	0.257260
H1501	H150	0.848500	0.428500	0.266400
C2241	C224	0.778700	0.466300	0.272730
C2251	C225	0.735400	0.467400	0.257520
H1511	H151	0.708200	0.495500	0.266700
C2261	C226	0.732200	0.427100	0.228820
H1521	H152	0.702400	0.428500	0.218800
C2271	C227	0.613700	0.559300	0.362290
H1531	H153	0.584900	0.550000	0.351400
C2281	C228	0.656100	0.542200	0.347320
H1541	H154	0.656500	0.522700	0.326600
C2291	C229	0.698200	0.554500	0.363590
C2301	C230	0.696200	0.580400	0.393930
H1551	H155	0.724300	0.586700	0.405700
C2311	C231	0.651800	0.596900	0.406700
H1561	H156	0.650300	0.615300	0.427500
C2321	C232	0.824000	0.538000	0.345320
C2331	C233	0.745000	0.540800	0.347670
C2341	C234	0.781700	0.501300	0.304110
C2351	C235	0.066600	0.865900	0.526420
H1571	H157	0.072500	0.799100	0.529200
C2361	C236	0.077200	0.907400	0.499040
H1581	H158	0.089200	0.868700	0.483000
C2371	C237	0.070500	0.004600	0.494370
C2381	C238	0.050300	0.057500	0.518530
H1591	H159	0.044400	0.124500	0.516400
C2391	C239	0.039400	0.011300	0.544860
H1601	H160	0.024900	0.047400	0.560700
C2401	C240	0.042500	0.438200	0.448800
H1611	H161	0.027000	0.475000	0.464000
C2411	C241	0.056500	0.344500	0.455290
H1621	H162	0.050500	0.317500	0.474700
C2421	C242	0.079600	0.290000	0.432870
C2431	C243	0.088100	0.333000	0.404570
H1631	H163	0.104900	0.299200	0.389200
C2441	C244	0.071700	0.425500	0.399520
H1641	H164	0.075700	0.452700	0.379900
C2451	C245	0.201200	0.985600	0.354140
H1651	H165	0.218300	0.016900	0.338400
C2461	C246	0.177000	0.040600	0.375530
H1661	H166	0.177000	0.108800	0.374200
C2471	C247	0.152900	0.995000	0.398710
C2481	C248	0.152400	0.894900	0.399000
H1671	H167	0.135800	0.860900	0.414400
C2491	C249	0.176200	0.846500	0.376900
H1681	H168	0.174900	0.778200	0.376800
C2501	C250	0.086300	0.052900	0.466190
C2511	C251	0.126300	0.051300	0.422380
C2521	C252	0.092500	0.188600	0.438060
N731	N73	0.958400	0.579400	0.390160
N741	N74	0.610800	0.588100	0.391100
N751	N75	0.769300	0.385900	0.214420
N761	N76	0.785000	0.554400	0.362440
N771	N77	0.741000	0.514800	0.318210
N781	N78	0.825500	0.512500	0.316760
N791	N79	0.048000	0.917700	0.549720
N801	N80	0.200800	0.890200	0.355370
N811	N81	0.050600	0.478600	0.421010
N821	N82	0.110800	0.001100	0.446170
N831	N83	0.119100	0.144600	0.417190
N841	N84	0.075100	0.147600	0.462770
Zn221	Zn22	0.477880	0.388880	0.910230
Zn231	Zn23	0.953630	0.363520	0.906960
Zn241	Zn24	0.739270	0.690890	0.675460
I431	I43	0.493480	0.303780	0.961030
I441	I44	0.429100	0.312240	0.868470
I451	I45	0.943370	0.182030	0.908250
I461	I46	0.018260	0.451100	0.877130
I471	I47	0.827350	0.691590	0.662450
I481	I48	0.696620	0.851640	0.682030
C2531	C253	0.583100	0.412600	0.905510
H1691	H169	0.582300	0.397200	0.926500
C2541	C254	0.627100	0.426200	0.891570
H1701	H170	0.655700	0.420000	0.902900
C2551	C255	0.628700	0.448900	0.861070
C2561	C256	0.586700	0.458000	0.845460
H1711	H171	0.587000	0.474100	0.824500
C2571	C257	0.544100	0.443600	0.860300
H1721	H172	0.515400	0.450000	0.849100
C2581	C258	0.687900	0.612800	0.729200
H1731	H173	0.661200	0.640900	0.719500
C2591	C259	0.682100	0.572900	0.757260
H1741	H174	0.651500	0.571500	0.766400
C2601	C260	0.721300	0.533700	0.772730
C2611	C261	0.764600	0.532600	0.757520
H1751	H175	0.791800	0.504500	0.766700
C2621	C262	0.767800	0.572900	0.728820
H1761	H176	0.797600	0.571500	0.718800
C2631	C263	0.886300	0.440700	0.862290
H1771	H177	0.915100	0.450000	0.851400
C2641	C264	0.843900	0.457800	0.847320
H1781	H178	0.843500	0.477300	0.826600
C2651	C265	0.801800	0.445500	0.863590
C2661	C266	0.803800	0.419600	0.893930
H1791	H179	0.775700	0.413300	0.905700
C2671	C267	0.848200	0.403100	0.906700
H1801	H180	0.849700	0.384700	0.927500
C2681	C268	0.676000	0.462000	0.845320
C2691	C269	0.755000	0.459200	0.847670
C2701	C270	0.718300	0.498700	0.804110
C2711	C271	0.433400	0.134100	0.026420
H1811	H181	0.427500	0.200900	0.029200
C2721	C272	0.422800	0.092600	0.999040
H1821	H182	0.410800	0.131300	0.983000
C2731	C273	0.429500	0.995400	0.994370
C2741	C274	0.449700	0.942500	0.018530
H1831	H183	0.455600	0.875500	0.016400
C2751	C275	0.460600	0.988700	0.044860
H1841	H184	0.475100	0.952600	0.060700
C2761	C276	0.457500	0.561800	0.948800
H1851	H185	0.473000	0.525000	0.964000
C2771	C277	0.443500	0.655500	0.955290
H1861	H186	0.449500	0.682500	0.974700
C2781	C278	0.420400	0.710000	0.932870
C2791	C279	0.411900	0.667000	0.904570
H1871	H187	0.395100	0.700800	0.889200
C2801	C280	0.428300	0.574500	0.899520
H1881	H188	0.424300	0.547300	0.879900
C2811	C281	0.298800	0.014400	0.854140
H1891	H189	0.281700	0.983100	0.838400
C2821	C282	0.323000	0.959400	0.875530
H1901	H190	0.323000	0.891200	0.874200
C2831	C283	0.347100	0.005000	0.898710
C2841	C284	0.347600	0.105100	0.899000
H1911	H191	0.364200	0.139100	0.914400
C2851	C285	0.323800	0.153500	0.876900
H1921	H192	0.325100	0.221800	0.876800
C2861	C286	0.413700	0.947100	0.966190
C2871	C287	0.373700	0.948700	0.922380
C2881	C288	0.407500	0.811400	0.938060
N851	N85	0.541600	0.420600	0.890160
N861	N86	0.889200	0.411900	0.891100
N871	N87	0.730700	0.614100	0.714420
N881	N88	0.715000	0.445600	0.862440
N891	N89	0.759000	0.485200	0.818210
N901	N90	0.674500	0.487500	0.816760
N911	N91	0.452000	0.082300	0.049720
N921	N92	0.299200	0.109800	0.855370
N931	N93	0.449400	0.521400	0.921010
N941	N94	0.389200	0.998900	0.946170
N951	N95	0.380900	0.855400	0.917190
N961	N96	0.424900	0.852400	0.962770
