data_UCUTIW_clean_PM
_symmetry_space_group_name_H-M	'P1'
_cell_length_a	21.859000
_cell_length_b	11.665300
_cell_length_c	7.375100
_cell_angle_alpha	90.000000
_cell_angle_beta	100.301000
_cell_angle_gamma	90.000000
_symmetry_Int_Tables_number 1

loop_
_symmetry_equiv_pos_as_xyz
'x,y,z'

loop_
_atom_site_label
_atom_site_type_symbol
_atom_site_fract_x
_atom_site_fract_y
_atom_site_fract_z
O11	O1	0.076610	0.017800	0.868600
O21	O2	0.047540	0.864700	0.013100
C11	C1	0.085100	0.921600	0.944500
C21	C2	0.149200	0.871600	0.945700
C31	C3	0.187700	0.907400	0.837500
H11	H1	0.176300	0.968500	0.757900
C41	C4	0.247100	0.852800	0.841700
H21	H2	0.272000	0.882600	0.763200
C51	C5	0.268900	0.768400	0.941100
C61	C6	0.170600	0.784200	0.055300
H31	H3	0.145400	0.755300	0.133700
O31	O3	0.923390	0.017800	0.631400
O41	O4	0.952460	0.864700	0.486900
C71	C7	0.914900	0.921600	0.555500
C81	C8	0.850800	0.871600	0.554300
C91	C9	0.812300	0.907400	0.662500
H41	H4	0.823700	0.968500	0.742100
C101	C10	0.752900	0.852800	0.658300
H51	H5	0.728000	0.882600	0.736800
C111	C11	0.731100	0.768400	0.558900
C121	C12	0.829400	0.784200	0.444700
H61	H6	0.854600	0.755300	0.366300
O51	O5	0.423390	0.482200	0.131400
O61	O6	0.452460	0.635300	0.986900
C131	C13	0.414900	0.578400	0.055500
C141	C14	0.350800	0.628400	0.054300
C151	C15	0.312300	0.592600	0.162500
H71	H7	0.323700	0.531500	0.242100
C161	C16	0.252900	0.647200	0.158300
H81	H8	0.228000	0.617400	0.236800
C171	C17	0.231100	0.731600	0.058900
C181	C18	0.329400	0.715800	0.944700
H91	H9	0.354600	0.744700	0.866300
O71	O7	0.576610	0.482200	0.368600
O81	O8	0.547540	0.635300	0.513100
C191	C19	0.585100	0.578400	0.444500
C201	C20	0.649200	0.628400	0.445700
C211	C21	0.687700	0.592600	0.337500
H101	H10	0.676300	0.531500	0.257900
C221	C22	0.747100	0.647200	0.341700
H111	H11	0.772000	0.617400	0.263200
C231	C23	0.768900	0.731600	0.441100
C241	C24	0.670600	0.715800	0.555300
H121	H12	0.645400	0.744700	0.633700
Zn11	Zn1	0.000000	0.116030	0.750000
Zn21	Zn2	0.500000	0.383970	0.250000
O91	O9	0.576610	0.517800	0.868600
O101	O10	0.547540	0.364700	0.013100
C251	C25	0.585100	0.421600	0.944500
C261	C26	0.649200	0.371600	0.945700
C271	C27	0.687700	0.407400	0.837500
H131	H13	0.676300	0.468500	0.757900
C281	C28	0.747100	0.352800	0.841700
H141	H14	0.772000	0.382600	0.763200
C291	C29	0.768900	0.268400	0.941100
C301	C30	0.670600	0.284200	0.055300
H151	H15	0.645400	0.255300	0.133700
O111	O11	0.423390	0.517800	0.631400
O121	O12	0.452460	0.364700	0.486900
C311	C31	0.414900	0.421600	0.555500
C321	C32	0.350800	0.371600	0.554300
C331	C33	0.312300	0.407400	0.662500
H161	H16	0.323700	0.468500	0.742100
C341	C34	0.252900	0.352800	0.658300
H171	H17	0.228000	0.382600	0.736800
C351	C35	0.231100	0.268400	0.558900
C361	C36	0.329400	0.284200	0.444700
H181	H18	0.354600	0.255300	0.366300
O131	O13	0.923390	0.982200	0.131400
O141	O14	0.952460	0.135300	0.986900
C371	C37	0.914900	0.078400	0.055500
C381	C38	0.850800	0.128400	0.054300
C391	C39	0.812300	0.092600	0.162500
H191	H19	0.823700	0.031500	0.242100
C401	C40	0.752900	0.147200	0.158300
H201	H20	0.728000	0.117400	0.236800
C411	C41	0.731100	0.231600	0.058900
C421	C42	0.829400	0.215800	0.944700
H211	H21	0.854600	0.244700	0.866300
O151	O15	0.076610	0.982200	0.368600
O161	O16	0.047540	0.135300	0.513100
C431	C43	0.085100	0.078400	0.444500
C441	C44	0.149200	0.128400	0.445700
C451	C45	0.187700	0.092600	0.337500
H221	H22	0.176300	0.031500	0.257900
C461	C46	0.247100	0.147200	0.341700
H231	H23	0.272000	0.117400	0.263200
C471	C47	0.268900	0.231600	0.441100
C481	C48	0.170600	0.215800	0.555300
H241	H24	0.145400	0.244700	0.633700
Zn31	Zn3	0.500000	0.616030	0.750000
Zn41	Zn4	0.000000	0.883970	0.250000
