data_UDANEV_clean_PM
_symmetry_space_group_name_H-M	'P1'
_cell_length_a	24.969000
_cell_length_b	24.969000
_cell_length_c	24.969000
_cell_angle_alpha	90.000000
_cell_angle_beta	90.000000
_cell_angle_gamma	90.000000
_symmetry_Int_Tables_number 1

loop_
_symmetry_equiv_pos_as_xyz
'x,y,z'

loop_
_atom_site_label
_atom_site_type_symbol
_atom_site_fract_x
_atom_site_fract_y
_atom_site_fract_z
N11	N1	0.474200	0.080200	0.243400
O11	O1	0.577000	0.065400	0.346000
O21	O2	0.519500	0.010400	0.307000
C11	C1	0.514600	0.098500	0.277300
C21	C2	0.538500	0.054700	0.313600
N21	N2	0.974200	0.580200	0.743400
O31	O3	0.077000	0.565400	0.846000
O41	O4	0.019500	0.510400	0.807000
C31	C3	0.014600	0.598500	0.777300
C41	C4	0.038500	0.554700	0.813600
N31	N3	0.025800	0.919800	0.743400
O51	O5	0.923000	0.934600	0.846000
O61	O6	0.980500	0.989600	0.807000
C51	C5	0.985400	0.901500	0.777300
C61	C6	0.961500	0.945300	0.813600
N41	N4	0.525800	0.419800	0.243400
O71	O7	0.423000	0.434600	0.346000
O81	O8	0.480500	0.489600	0.307000
C71	C7	0.485400	0.401500	0.277300
C81	C8	0.461500	0.445300	0.313600
N51	N5	0.525800	0.580200	0.256600
O91	O9	0.423000	0.565400	0.154000
O101	O10	0.480500	0.510400	0.193000
C91	C9	0.485400	0.598500	0.222700
C101	C10	0.461500	0.554700	0.186400
N61	N6	0.025800	0.080200	0.756600
O111	O11	0.923000	0.065400	0.654000
O121	O12	0.980500	0.010400	0.693000
C111	C11	0.985400	0.098500	0.722700
C121	C12	0.961500	0.054700	0.686400
N71	N7	0.974200	0.419800	0.756600
O131	O13	0.077000	0.434600	0.654000
O141	O14	0.019500	0.489600	0.693000
C131	C13	0.014600	0.401500	0.722700
C141	C14	0.038500	0.445300	0.686400
N81	N8	0.474200	0.919800	0.256600
O151	O15	0.577000	0.934600	0.154000
O161	O16	0.519500	0.989600	0.193000
C151	C15	0.514600	0.901500	0.222700
C161	C16	0.538500	0.945300	0.186400
N91	N9	0.243400	0.474200	0.080200
O171	O17	0.346000	0.577000	0.065400
O181	O18	0.307000	0.519500	0.010400
C171	C17	0.277300	0.514600	0.098500
C181	C18	0.313600	0.538500	0.054700
N101	N10	0.743400	0.974200	0.580200
O191	O19	0.846000	0.077000	0.565400
O201	O20	0.807000	0.019500	0.510400
C191	C19	0.777300	0.014600	0.598500
C201	C20	0.813600	0.038500	0.554700
N111	N11	0.743400	0.025800	0.919800
O211	O21	0.846000	0.923000	0.934600
O221	O22	0.807000	0.980500	0.989600
C211	C21	0.777300	0.985400	0.901500
C221	C22	0.813600	0.961500	0.945300
N121	N12	0.243400	0.525800	0.419800
O231	O23	0.346000	0.423000	0.434600
O241	O24	0.307000	0.480500	0.489600
C231	C23	0.277300	0.485400	0.401500
C241	C24	0.313600	0.461500	0.445300
N131	N13	0.256600	0.525800	0.580200
O251	O25	0.154000	0.423000	0.565400
O261	O26	0.193000	0.480500	0.510400
C251	C25	0.222700	0.485400	0.598500
C261	C26	0.186400	0.461500	0.554700
N141	N14	0.756600	0.025800	0.080200
O271	O27	0.654000	0.923000	0.065400
O281	O28	0.693000	0.980500	0.010400
C271	C27	0.722700	0.985400	0.098500
C281	C28	0.686400	0.961500	0.054700
N151	N15	0.756600	0.974200	0.419800
O291	O29	0.654000	0.077000	0.434600
O301	O30	0.693000	0.019500	0.489600
C291	C29	0.722700	0.014600	0.401500
C301	C30	0.686400	0.038500	0.445300
N161	N16	0.256600	0.474200	0.919800
O311	O31	0.154000	0.577000	0.934600
O321	O32	0.193000	0.519500	0.989600
C311	C31	0.222700	0.514600	0.901500
C321	C32	0.186400	0.538500	0.945300
N171	N17	0.080200	0.243400	0.474200
O331	O33	0.065400	0.346000	0.577000
O341	O34	0.010400	0.307000	0.519500
C331	C33	0.098500	0.277300	0.514600
C341	C34	0.054700	0.313600	0.538500
N181	N18	0.580200	0.743400	0.974200
O351	O35	0.565400	0.846000	0.077000
O361	O36	0.510400	0.807000	0.019500
C351	C35	0.598500	0.777300	0.014600
C361	C36	0.554700	0.813600	0.038500
N191	N19	0.919800	0.743400	0.025800
O371	O37	0.934600	0.846000	0.923000
O381	O38	0.989600	0.807000	0.980500
C371	C37	0.901500	0.777300	0.985400
C381	C38	0.945300	0.813600	0.961500
N201	N20	0.419800	0.243400	0.525800
O391	O39	0.434600	0.346000	0.423000
O401	O40	0.489600	0.307000	0.480500
C391	C39	0.401500	0.277300	0.485400
C401	C40	0.445300	0.313600	0.461500
N211	N21	0.580200	0.256600	0.525800
O411	O41	0.565400	0.154000	0.423000
O421	O42	0.510400	0.193000	0.480500
C411	C41	0.598500	0.222700	0.485400
C421	C42	0.554700	0.186400	0.461500
N221	N22	0.080200	0.756600	0.025800
O431	O43	0.065400	0.654000	0.923000
O441	O44	0.010400	0.693000	0.980500
C431	C43	0.098500	0.722700	0.985400
C441	C44	0.054700	0.686400	0.961500
N231	N23	0.419800	0.756600	0.974200
O451	O45	0.434600	0.654000	0.077000
O461	O46	0.489600	0.693000	0.019500
C451	C45	0.401500	0.722700	0.014600
C461	C46	0.445300	0.686400	0.038500
N241	N24	0.919800	0.256600	0.474200
O471	O47	0.934600	0.154000	0.577000
O481	O48	0.989600	0.193000	0.519500
C471	C47	0.901500	0.222700	0.514600
C481	C48	0.945300	0.186400	0.538500
N251	N25	0.830200	0.724200	0.006600
O491	O49	0.815400	0.827000	0.904000
O501	O50	0.760400	0.769500	0.943000
C491	C49	0.848500	0.764600	0.972700
C501	C50	0.804700	0.788500	0.936400
N261	N26	0.330200	0.224200	0.506600
O511	O51	0.315400	0.327000	0.404000
O521	O52	0.260400	0.269500	0.443000
C511	C51	0.348500	0.264600	0.472700
C521	C52	0.304700	0.288500	0.436400
N271	N27	0.669800	0.275800	0.506600
O531	O53	0.684600	0.173000	0.404000
O541	O54	0.739600	0.230500	0.443000
C531	C53	0.651500	0.235400	0.472700
C541	C54	0.695300	0.211500	0.436400
N281	N28	0.169800	0.775800	0.006600
O551	O55	0.184600	0.673000	0.904000
O561	O56	0.239600	0.730500	0.943000
C551	C55	0.151500	0.735400	0.972700
C561	C56	0.195300	0.711500	0.936400
N291	N29	0.330200	0.775800	0.993400
O571	O57	0.315400	0.673000	0.096000
O581	O58	0.260400	0.730500	0.057000
C571	C57	0.348500	0.735400	0.027300
C581	C58	0.304700	0.711500	0.063600
N301	N30	0.830200	0.275800	0.493400
O591	O59	0.815400	0.173000	0.596000
O601	O60	0.760400	0.230500	0.557000
C591	C59	0.848500	0.235400	0.527300
C601	C60	0.804700	0.211500	0.563600
N311	N31	0.169800	0.224200	0.493400
O611	O61	0.184600	0.327000	0.596000
O621	O62	0.239600	0.269500	0.557000
C611	C61	0.151500	0.264600	0.527300
C621	C62	0.195300	0.288500	0.563600
N321	N32	0.669800	0.724200	0.993400
O631	O63	0.684600	0.827000	0.096000
O641	O64	0.739600	0.769500	0.057000
C631	C63	0.651500	0.764600	0.027300
C641	C64	0.695300	0.788500	0.063600
N331	N33	0.224200	0.493400	0.169800
O651	O65	0.327000	0.596000	0.184600
O661	O66	0.269500	0.557000	0.239600
C651	C65	0.264600	0.527300	0.151500
C661	C66	0.288500	0.563600	0.195300
N341	N34	0.724200	0.993400	0.669800
O671	O67	0.827000	0.096000	0.684600
O681	O68	0.769500	0.057000	0.739600
C671	C67	0.764600	0.027300	0.651500
C681	C68	0.788500	0.063600	0.695300
N351	N35	0.775800	0.993400	0.330200
O691	O69	0.673000	0.096000	0.315400
O701	O70	0.730500	0.057000	0.260400
C691	C69	0.735400	0.027300	0.348500
C701	C70	0.711500	0.063600	0.304700
N361	N36	0.275800	0.493400	0.830200
O711	O71	0.173000	0.596000	0.815400
O721	O72	0.230500	0.557000	0.760400
C711	C71	0.235400	0.527300	0.848500
C721	C72	0.211500	0.563600	0.804700
N371	N37	0.275800	0.506600	0.669800
O731	O73	0.173000	0.404000	0.684600
O741	O74	0.230500	0.443000	0.739600
C731	C73	0.235400	0.472700	0.651500
C741	C74	0.211500	0.436400	0.695300
N381	N38	0.775800	0.006600	0.169800
O751	O75	0.673000	0.904000	0.184600
O761	O76	0.730500	0.943000	0.239600
C751	C75	0.735400	0.972700	0.151500
C761	C76	0.711500	0.936400	0.195300
N391	N39	0.724200	0.006600	0.830200
O771	O77	0.827000	0.904000	0.815400
O781	O78	0.769500	0.943000	0.760400
C771	C77	0.764600	0.972700	0.848500
C781	C78	0.788500	0.936400	0.804700
N401	N40	0.224200	0.506600	0.330200
O791	O79	0.327000	0.404000	0.315400
O801	O80	0.269500	0.443000	0.260400
C791	C79	0.264600	0.472700	0.348500
C801	C80	0.288500	0.436400	0.304700
N411	N41	0.993400	0.330200	0.775800
O811	O81	0.096000	0.315400	0.673000
O821	O82	0.057000	0.260400	0.730500
C811	C81	0.027300	0.348500	0.735400
C821	C82	0.063600	0.304700	0.711500
N421	N42	0.493400	0.830200	0.275800
O831	O83	0.596000	0.815400	0.173000
O841	O84	0.557000	0.760400	0.230500
C831	C83	0.527300	0.848500	0.235400
C841	C84	0.563600	0.804700	0.211500
N431	N43	0.493400	0.169800	0.224200
O851	O85	0.596000	0.184600	0.327000
O861	O86	0.557000	0.239600	0.269500
C851	C85	0.527300	0.151500	0.264600
C861	C86	0.563600	0.195300	0.288500
N441	N44	0.993400	0.669800	0.724200
O871	O87	0.096000	0.684600	0.827000
O881	O88	0.057000	0.739600	0.769500
C871	C87	0.027300	0.651500	0.764600
C881	C88	0.063600	0.695300	0.788500
N451	N45	0.006600	0.830200	0.724200
O891	O89	0.904000	0.815400	0.827000
O901	O90	0.943000	0.760400	0.769500
C891	C89	0.972700	0.848500	0.764600
C901	C90	0.936400	0.804700	0.788500
N461	N46	0.506600	0.330200	0.224200
O911	O91	0.404000	0.315400	0.327000
O921	O92	0.443000	0.260400	0.269500
C911	C91	0.472700	0.348500	0.264600
C921	C92	0.436400	0.304700	0.288500
N471	N47	0.506600	0.669800	0.275800
O931	O93	0.404000	0.684600	0.173000
O941	O94	0.443000	0.739600	0.230500
C931	C93	0.472700	0.651500	0.235400
C941	C94	0.436400	0.695300	0.211500
N481	N48	0.006600	0.169800	0.775800
O951	O95	0.904000	0.184600	0.673000
O961	O96	0.943000	0.239600	0.730500
C951	C95	0.972700	0.151500	0.735400
C961	C96	0.936400	0.195300	0.711500
In11	In1	0.446000	0.000000	0.250000
In21	In2	0.054000	0.000000	0.750000
In31	In3	0.554000	0.500000	0.250000
In41	In4	0.946000	0.500000	0.750000
In51	In5	0.250000	0.446000	0.000000
In61	In6	0.750000	0.054000	0.000000
In71	In7	0.250000	0.554000	0.500000
In81	In8	0.750000	0.946000	0.500000
In91	In9	0.000000	0.250000	0.446000
In101	In10	0.000000	0.750000	0.054000
In111	In11	0.500000	0.250000	0.554000
In121	In12	0.500000	0.750000	0.946000
In131	In13	0.750000	0.696000	0.000000
In141	In14	0.750000	0.304000	0.500000
In151	In15	0.250000	0.804000	0.000000
In161	In16	0.250000	0.196000	0.500000
In171	In17	0.196000	0.500000	0.250000
In181	In18	0.804000	0.000000	0.250000
In191	In19	0.304000	0.500000	0.750000
In201	In20	0.696000	0.000000	0.750000
In211	In21	0.000000	0.250000	0.804000
In221	In22	0.500000	0.250000	0.196000
In231	In23	0.000000	0.750000	0.696000
In241	In24	0.500000	0.750000	0.304000
C971	C97	0.465000	0.125000	0.215000
H11	H1	0.438600	0.125000	0.188600
C981	C98	0.965000	0.625000	0.715000
H21	H2	0.938600	0.625000	0.688600
C991	C99	0.035000	0.875000	0.715000
H31	H3	0.061400	0.875000	0.688600
C1001	C100	0.535000	0.375000	0.215000
H41	H4	0.561400	0.375000	0.188600
C1011	C101	0.535000	0.625000	0.285000
H51	H5	0.561400	0.625000	0.311400
C1021	C102	0.035000	0.125000	0.785000
H61	H6	0.061400	0.125000	0.811400
C1031	C103	0.965000	0.375000	0.785000
H71	H7	0.938600	0.375000	0.811400
C1041	C104	0.465000	0.875000	0.285000
H81	H8	0.438600	0.875000	0.311400
C1051	C105	0.215000	0.465000	0.125000
H91	H9	0.188600	0.438600	0.125000
C1061	C106	0.715000	0.965000	0.625000
H101	H10	0.688600	0.938600	0.625000
C1071	C107	0.715000	0.035000	0.875000
H111	H11	0.688600	0.061400	0.875000
C1081	C108	0.215000	0.535000	0.375000
H121	H12	0.188600	0.561400	0.375000
C1091	C109	0.285000	0.535000	0.625000
H131	H13	0.311400	0.561400	0.625000
C1101	C110	0.785000	0.035000	0.125000
H141	H14	0.811400	0.061400	0.125000
C1111	C111	0.785000	0.965000	0.375000
H151	H15	0.811400	0.938600	0.375000
C1121	C112	0.285000	0.465000	0.875000
H161	H16	0.311400	0.438600	0.875000
C1131	C113	0.125000	0.215000	0.465000
H171	H17	0.125000	0.188600	0.438600
C1141	C114	0.625000	0.715000	0.965000
H181	H18	0.625000	0.688600	0.938600
C1151	C115	0.875000	0.715000	0.035000
H191	H19	0.875000	0.688600	0.061400
C1161	C116	0.375000	0.215000	0.535000
H201	H20	0.375000	0.188600	0.561400
C1171	C117	0.625000	0.285000	0.535000
H211	H21	0.625000	0.311400	0.561400
C1181	C118	0.125000	0.785000	0.035000
H221	H22	0.125000	0.811400	0.061400
C1191	C119	0.375000	0.785000	0.965000
H231	H23	0.375000	0.811400	0.938600
C1201	C120	0.875000	0.285000	0.465000
H241	H24	0.875000	0.311400	0.438600
In251	In25	0.625000	0.125000	0.375000
In261	In26	0.125000	0.625000	0.875000
In271	In27	0.875000	0.875000	0.875000
In281	In28	0.375000	0.375000	0.375000
In291	In29	0.375000	0.625000	0.125000
In301	In30	0.875000	0.125000	0.625000
In311	In31	0.125000	0.375000	0.625000
In321	In32	0.625000	0.875000	0.125000
