data_UDEGIW_clean_PM
_symmetry_space_group_name_H-M	'P1'
_cell_length_a	14.302600
_cell_length_b	12.042100
_cell_length_c	21.698700
_cell_angle_alpha	90.000000
_cell_angle_beta	90.000000
_cell_angle_gamma	90.000000
_symmetry_Int_Tables_number 1

loop_
_symmetry_equiv_pos_as_xyz
'x,y,z'

loop_
_atom_site_label
_atom_site_type_symbol
_atom_site_fract_x
_atom_site_fract_y
_atom_site_fract_z
N11	N1	0.613090	0.948870	0.641610
Cu11	Cu1	0.949800	0.011420	0.052310
O11	O1	0.506120	0.629210	0.920490
O21	O2	0.590610	0.645880	0.007150
O31	O3	0.931020	0.919000	0.921760
O41	O4	0.849070	0.930600	0.009970
C11	C1	0.556770	0.969300	0.688920
H11	H1	0.499700	0.007200	0.681000
C21	C2	0.576640	0.938100	0.750020
H21	H2	0.533600	0.955200	0.782000
C31	C3	0.658130	0.883060	0.763360
C41	C4	0.718630	0.855470	0.714050
C51	C5	0.693670	0.890500	0.653400
C61	C6	0.753020	0.864500	0.603320
H31	H3	0.738500	0.890900	0.563200
C71	C7	0.831300	0.801300	0.612450
H41	H4	0.870500	0.783500	0.578500
C81	C8	0.854050	0.762600	0.671500
H51	H5	0.907400	0.716800	0.677000
C91	C9	0.800140	0.790200	0.721340
H61	H6	0.817600	0.765300	0.761200
C101	C10	0.679170	0.851630	0.828420
C111	C11	0.617210	0.782470	0.859790
H71	H7	0.563700	0.754200	0.839100
C121	C12	0.632960	0.754380	0.921260
C131	C13	0.710670	0.797410	0.951860
H81	H8	0.720500	0.780900	0.994200
C141	C14	0.773530	0.864140	0.920530
C151	C15	0.758850	0.890600	0.858570
H91	H9	0.803000	0.935000	0.837000
C161	C16	0.570500	0.670770	0.952630
C171	C17	0.858320	0.907590	0.953660
N21	N2	0.886910	0.051130	0.141610
Cu21	Cu2	0.550200	0.988580	0.552310
O51	O5	0.993880	0.370790	0.420490
O61	O6	0.909390	0.354120	0.507150
O71	O7	0.568980	0.081000	0.421760
O81	O8	0.650930	0.069400	0.509970
C181	C18	0.943230	0.030700	0.188920
H101	H10	0.000300	0.992800	0.181000
C191	C19	0.923360	0.061900	0.250020
H111	H11	0.966400	0.044800	0.282000
C201	C20	0.841870	0.116940	0.263360
C211	C21	0.781370	0.144530	0.214050
C221	C22	0.806330	0.109500	0.153400
C231	C23	0.746980	0.135500	0.103320
H121	H12	0.761500	0.109100	0.063200
C241	C24	0.668700	0.198700	0.112450
H131	H13	0.629500	0.216500	0.078500
C251	C25	0.645950	0.237400	0.171500
H141	H14	0.592600	0.283200	0.177000
C261	C26	0.699860	0.209800	0.221340
H151	H15	0.682400	0.234700	0.261200
C271	C27	0.820830	0.148370	0.328420
C281	C28	0.882790	0.217530	0.359790
H161	H16	0.936300	0.245800	0.339100
C291	C29	0.867040	0.245620	0.421260
C301	C30	0.789330	0.202590	0.451860
H171	H17	0.779500	0.219100	0.494200
C311	C31	0.726470	0.135860	0.420530
C321	C32	0.741150	0.109400	0.358570
H181	H18	0.697000	0.065000	0.337000
C331	C33	0.929500	0.329230	0.452630
C341	C34	0.641680	0.092410	0.453660
N31	N3	0.386910	0.448870	0.858390
Cu31	Cu3	0.050200	0.511420	0.447690
O91	O9	0.493880	0.129210	0.579510
O101	O10	0.409390	0.145880	0.492850
O111	O11	0.068980	0.419000	0.578240
O121	O12	0.150930	0.430600	0.490030
C351	C35	0.443230	0.469300	0.811080
H191	H19	0.500300	0.507200	0.819000
C361	C36	0.423360	0.438100	0.749980
H201	H20	0.466400	0.455200	0.718000
C371	C37	0.341870	0.383060	0.736640
C381	C38	0.281370	0.355470	0.785950
C391	C39	0.306330	0.390500	0.846600
C401	C40	0.246980	0.364500	0.896680
H211	H21	0.261500	0.390900	0.936800
C411	C41	0.168700	0.301300	0.887550
H221	H22	0.129500	0.283500	0.921500
C421	C42	0.145950	0.262600	0.828500
H231	H23	0.092600	0.216800	0.823000
C431	C43	0.199860	0.290200	0.778660
H241	H24	0.182400	0.265300	0.738800
C441	C44	0.320830	0.351630	0.671580
C451	C45	0.382790	0.282470	0.640210
H251	H25	0.436300	0.254200	0.660900
C461	C46	0.367040	0.254380	0.578740
C471	C47	0.289330	0.297410	0.548140
H261	H26	0.279500	0.280900	0.505800
C481	C48	0.226470	0.364140	0.579470
C491	C49	0.241150	0.390600	0.641430
H271	H27	0.197000	0.435000	0.663000
C501	C50	0.429500	0.170770	0.547370
C511	C51	0.141680	0.407590	0.546340
N41	N4	0.113090	0.551130	0.358390
Cu41	Cu4	0.449800	0.488580	0.947690
O131	O13	0.006120	0.870790	0.079510
O141	O14	0.090610	0.854120	0.992850
O151	O15	0.431020	0.581000	0.078240
O161	O16	0.349070	0.569400	0.990030
C521	C52	0.056770	0.530700	0.311080
H281	H28	0.999700	0.492800	0.319000
C531	C53	0.076640	0.561900	0.249980
H291	H29	0.033600	0.544800	0.218000
C541	C54	0.158130	0.616940	0.236640
C551	C55	0.218630	0.644530	0.285950
C561	C56	0.193670	0.609500	0.346600
C571	C57	0.253020	0.635500	0.396680
H301	H30	0.238500	0.609100	0.436800
C581	C58	0.331300	0.698700	0.387550
H311	H31	0.370500	0.716500	0.421500
C591	C59	0.354050	0.737400	0.328500
H321	H32	0.407400	0.783200	0.323000
C601	C60	0.300140	0.709800	0.278660
H331	H33	0.317600	0.734700	0.238800
C611	C61	0.179170	0.648370	0.171580
C621	C62	0.117210	0.717530	0.140210
H341	H34	0.063700	0.745800	0.160900
C631	C63	0.132960	0.745620	0.078740
C641	C64	0.210670	0.702590	0.048140
H351	H35	0.220500	0.719100	0.005800
C651	C65	0.273530	0.635860	0.079470
C661	C66	0.258850	0.609400	0.141430
H361	H36	0.303000	0.565000	0.163000
C671	C67	0.070500	0.829230	0.047370
C681	C68	0.358320	0.592410	0.046340
N51	N5	0.386910	0.051130	0.358390
Cu51	Cu5	0.050200	0.988580	0.947690
O171	O17	0.493880	0.370790	0.079510
O181	O18	0.409390	0.354120	0.992850
O191	O19	0.068980	0.081000	0.078240
O201	O20	0.150930	0.069400	0.990030
C691	C69	0.443230	0.030700	0.311080
H371	H37	0.500300	0.992800	0.319000
C701	C70	0.423360	0.061900	0.249980
H381	H38	0.466400	0.044800	0.218000
C711	C71	0.341870	0.116940	0.236640
C721	C72	0.281370	0.144530	0.285950
C731	C73	0.306330	0.109500	0.346600
C741	C74	0.246980	0.135500	0.396680
H391	H39	0.261500	0.109100	0.436800
C751	C75	0.168700	0.198700	0.387550
H401	H40	0.129500	0.216500	0.421500
C761	C76	0.145950	0.237400	0.328500
H411	H41	0.092600	0.283200	0.323000
C771	C77	0.199860	0.209800	0.278660
H421	H42	0.182400	0.234700	0.238800
C781	C78	0.320830	0.148370	0.171580
C791	C79	0.382790	0.217530	0.140210
H431	H43	0.436300	0.245800	0.160900
C801	C80	0.367040	0.245620	0.078740
C811	C81	0.289330	0.202590	0.048140
H441	H44	0.279500	0.219100	0.005800
C821	C82	0.226470	0.135860	0.079470
C831	C83	0.241150	0.109400	0.141430
H451	H45	0.197000	0.065000	0.163000
C841	C84	0.429500	0.329230	0.047370
C851	C85	0.141680	0.092410	0.046340
N61	N6	0.113090	0.948870	0.858390
Cu61	Cu6	0.449800	0.011420	0.447690
O211	O21	0.006120	0.629210	0.579510
O221	O22	0.090610	0.645880	0.492850
O231	O23	0.431020	0.919000	0.578240
O241	O24	0.349070	0.930600	0.490030
C861	C86	0.056770	0.969300	0.811080
H461	H46	0.999700	0.007200	0.819000
C871	C87	0.076640	0.938100	0.749980
H471	H47	0.033600	0.955200	0.718000
C881	C88	0.158130	0.883060	0.736640
C891	C89	0.218630	0.855470	0.785950
C901	C90	0.193670	0.890500	0.846600
C911	C91	0.253020	0.864500	0.896680
H481	H48	0.238500	0.890900	0.936800
C921	C92	0.331300	0.801300	0.887550
H491	H49	0.370500	0.783500	0.921500
C931	C93	0.354050	0.762600	0.828500
H501	H50	0.407400	0.716800	0.823000
C941	C94	0.300140	0.790200	0.778660
H511	H51	0.317600	0.765300	0.738800
C951	C95	0.179170	0.851630	0.671580
C961	C96	0.117210	0.782470	0.640210
H521	H52	0.063700	0.754200	0.660900
C971	C97	0.132960	0.754380	0.578740
C981	C98	0.210670	0.797410	0.548140
H531	H53	0.220500	0.780900	0.505800
C991	C99	0.273530	0.864140	0.579470
C1001	C100	0.258850	0.890600	0.641430
H541	H54	0.303000	0.935000	0.663000
C1011	C101	0.070500	0.670770	0.547370
C1021	C102	0.358320	0.907590	0.546340
N71	N7	0.613090	0.551130	0.141610
Cu71	Cu7	0.949800	0.488580	0.552310
O251	O25	0.506120	0.870790	0.420490
O261	O26	0.590610	0.854120	0.507150
O271	O27	0.931020	0.581000	0.421760
O281	O28	0.849070	0.569400	0.509970
C1031	C103	0.556770	0.530700	0.188920
H551	H55	0.499700	0.492800	0.181000
C1041	C104	0.576640	0.561900	0.250020
H561	H56	0.533600	0.544800	0.282000
C1051	C105	0.658130	0.616940	0.263360
C1061	C106	0.718630	0.644530	0.214050
C1071	C107	0.693670	0.609500	0.153400
C1081	C108	0.753020	0.635500	0.103320
H571	H57	0.738500	0.609100	0.063200
C1091	C109	0.831300	0.698700	0.112450
H581	H58	0.870500	0.716500	0.078500
C1101	C110	0.854050	0.737400	0.171500
H591	H59	0.907400	0.783200	0.177000
C1111	C111	0.800140	0.709800	0.221340
H601	H60	0.817600	0.734700	0.261200
C1121	C112	0.679170	0.648370	0.328420
C1131	C113	0.617210	0.717530	0.359790
H611	H61	0.563700	0.745800	0.339100
C1141	C114	0.632960	0.745620	0.421260
C1151	C115	0.710670	0.702590	0.451860
H621	H62	0.720500	0.719100	0.494200
C1161	C116	0.773530	0.635860	0.420530
C1171	C117	0.758850	0.609400	0.358570
H631	H63	0.803000	0.565000	0.337000
C1181	C118	0.570500	0.829230	0.452630
C1191	C119	0.858320	0.592410	0.453660
N81	N8	0.886910	0.448870	0.641610
Cu81	Cu8	0.550200	0.511420	0.052310
O291	O29	0.993880	0.129210	0.920490
O301	O30	0.909390	0.145880	0.007150
O311	O31	0.568980	0.419000	0.921760
O321	O32	0.650930	0.430600	0.009970
C1201	C120	0.943230	0.469300	0.688920
H641	H64	0.000300	0.507200	0.681000
C1211	C121	0.923360	0.438100	0.750020
H651	H65	0.966400	0.455200	0.782000
C1221	C122	0.841870	0.383060	0.763360
C1231	C123	0.781370	0.355470	0.714050
C1241	C124	0.806330	0.390500	0.653400
C1251	C125	0.746980	0.364500	0.603320
H661	H66	0.761500	0.390900	0.563200
C1261	C126	0.668700	0.301300	0.612450
H671	H67	0.629500	0.283500	0.578500
C1271	C127	0.645950	0.262600	0.671500
H681	H68	0.592600	0.216800	0.677000
C1281	C128	0.699860	0.290200	0.721340
H691	H69	0.682400	0.265300	0.761200
C1291	C129	0.820830	0.351630	0.828420
C1301	C130	0.882790	0.282470	0.859790
H701	H70	0.936300	0.254200	0.839100
C1311	C131	0.867040	0.254380	0.921260
C1321	C132	0.789330	0.297410	0.951860
H711	H71	0.779500	0.280900	0.994200
C1331	C133	0.726470	0.364140	0.920530
C1341	C134	0.741150	0.390600	0.858570
H721	H72	0.697000	0.435000	0.837000
C1351	C135	0.929500	0.170770	0.952630
C1361	C136	0.641680	0.407590	0.953660
