data_UDICAN_clean_PM
_symmetry_space_group_name_H-M	'P1'
_cell_length_a	10.628000
_cell_length_b	12.127000
_cell_length_c	25.055000
_cell_angle_alpha	90.000000
_cell_angle_beta	90.000000
_cell_angle_gamma	90.230000
_symmetry_Int_Tables_number 1

loop_
_symmetry_equiv_pos_as_xyz
'x,y,z'

loop_
_atom_site_label
_atom_site_type_symbol
_atom_site_fract_x
_atom_site_fract_y
_atom_site_fract_z
Bi11	Bi1	0.860000	0.078030	0.005660
Bi21	Bi2	0.149370	0.265760	0.985640
Bi31	Bi3	0.860220	0.415910	0.013840
Bi41	Bi4	0.014310	0.096810	0.871300
Bi51	Bi5	0.977820	0.267760	0.127220
Bi61	Bi6	0.024190	0.407900	0.866930
Bi71	Bi7	0.640000	0.921970	0.505660
Bi81	Bi8	0.350630	0.734240	0.485640
Bi91	Bi9	0.639780	0.584090	0.513840
Bi101	Bi10	0.485690	0.903190	0.371300
Bi111	Bi11	0.522180	0.732240	0.627220
Bi121	Bi12	0.475810	0.592100	0.366930
Bi131	Bi13	0.140000	0.921970	0.994340
Bi141	Bi14	0.850630	0.734240	0.014360
Bi151	Bi15	0.139780	0.584090	0.986160
Bi161	Bi16	0.985690	0.903190	0.128700
Bi171	Bi17	0.022180	0.732240	0.872780
Bi181	Bi18	0.975810	0.592100	0.133070
Bi191	Bi19	0.360000	0.078030	0.494340
Bi201	Bi20	0.649370	0.265760	0.514360
Bi211	Bi21	0.360220	0.415910	0.486160
Bi221	Bi22	0.514310	0.096810	0.628700
Bi231	Bi23	0.477820	0.267760	0.372780
Bi241	Bi24	0.524190	0.407900	0.633070
H11	H1	0.287700	0.349300	0.195900
H21	H2	0.627200	0.480100	0.217400
H31	H3	0.478900	0.483300	0.070200
H41	H4	0.529800	0.143900	0.931900
H51	H5	0.671300	0.312400	0.805100
H61	H6	0.336700	0.163700	0.793900
H71	H7	0.212300	0.650700	0.695900
H81	H8	0.872800	0.519900	0.717400
H91	H9	0.021100	0.516700	0.570200
H101	H10	0.970200	0.856100	0.431900
H111	H11	0.828700	0.687600	0.305100
H121	H12	0.163300	0.836300	0.293900
H131	H13	0.712300	0.650700	0.804100
H141	H14	0.372800	0.519900	0.782600
H151	H15	0.521100	0.516700	0.929800
H161	H16	0.470200	0.856100	0.068100
H171	H17	0.328700	0.687600	0.194900
H181	H18	0.663300	0.836300	0.206100
H191	H19	0.787700	0.349300	0.304100
H201	H20	0.127200	0.480100	0.282600
H211	H21	0.978900	0.483300	0.429800
H221	H22	0.029800	0.143900	0.568100
H231	H23	0.171300	0.312400	0.694900
H241	H24	0.836700	0.163700	0.706100
C11	C1	0.264000	0.379300	0.089500
C21	C2	0.366000	0.415000	0.127900
C31	C3	0.358000	0.384800	0.182300
C41	C4	0.459400	0.409600	0.214100
C51	C5	0.562000	0.461900	0.194400
C61	C6	0.474000	0.466000	0.106300
C71	C7	0.573000	0.489300	0.140700
C81	C8	0.454000	0.372100	0.271400
C91	C9	0.690000	0.537700	0.118300
C101	C10	0.625000	0.224800	0.871400
C111	C11	0.524000	0.166900	0.896600
C121	C12	0.747000	0.244500	0.901700
C131	C13	0.610000	0.266800	0.819700
C141	C14	0.506900	0.241800	0.791400
C151	C15	0.415000	0.146100	0.865700
C161	C16	0.408000	0.180600	0.814100
C171	C17	0.492000	0.278200	0.734100
C181	C18	0.307900	0.090500	0.892600
C191	C19	0.236000	0.620700	0.589500
C201	C20	0.134000	0.585000	0.627900
C211	C21	0.142000	0.615200	0.682300
C221	C22	0.040600	0.590400	0.714100
C231	C23	0.938000	0.538100	0.694400
C241	C24	0.026000	0.534000	0.606300
C251	C25	0.927000	0.510700	0.640700
C261	C26	0.046000	0.627900	0.771400
C271	C27	0.810000	0.462300	0.618300
C281	C28	0.875000	0.775200	0.371400
C291	C29	0.976000	0.833100	0.396600
C301	C30	0.753000	0.755500	0.401700
C311	C31	0.890000	0.733200	0.319700
C321	C32	0.993100	0.758200	0.291400
C331	C33	0.085000	0.853900	0.365700
C341	C34	0.092000	0.819400	0.314100
C351	C35	0.008000	0.721800	0.234100
C361	C36	0.192100	0.909500	0.392600
C371	C37	0.736000	0.620700	0.910500
C381	C38	0.634000	0.585000	0.872100
C391	C39	0.642000	0.615200	0.817700
C401	C40	0.540600	0.590400	0.785900
C411	C41	0.438000	0.538100	0.805600
C421	C42	0.526000	0.534000	0.893700
C431	C43	0.427000	0.510700	0.859300
C441	C44	0.546000	0.627900	0.728600
C451	C45	0.310000	0.462300	0.881700
C461	C46	0.375000	0.775200	0.128600
C471	C47	0.476000	0.833100	0.103400
C481	C48	0.253000	0.755500	0.098300
C491	C49	0.390000	0.733200	0.180300
C501	C50	0.493100	0.758200	0.208600
C511	C51	0.585000	0.853900	0.134300
C521	C52	0.592000	0.819400	0.185900
C531	C53	0.508000	0.721800	0.265900
C541	C54	0.692100	0.909500	0.107400
C551	C55	0.764000	0.379300	0.410500
C561	C56	0.866000	0.415000	0.372100
C571	C57	0.858000	0.384800	0.317700
C581	C58	0.959400	0.409600	0.285900
C591	C59	0.062000	0.461900	0.305600
C601	C60	0.974000	0.466000	0.393700
C611	C61	0.073000	0.489300	0.359300
C621	C62	0.954000	0.372100	0.228600
C631	C63	0.190000	0.537700	0.381700
C641	C64	0.125000	0.224800	0.628600
C651	C65	0.024000	0.166900	0.603400
C661	C66	0.247000	0.244500	0.598300
C671	C67	0.110000	0.266800	0.680300
C681	C68	0.006900	0.241800	0.708600
C691	C69	0.915000	0.146100	0.634300
C701	C70	0.908000	0.180600	0.685900
C711	C71	0.992000	0.278200	0.765900
C721	C72	0.807900	0.090500	0.607400
O11	O1	0.050600	0.417900	0.973600
O21	O2	0.974000	0.229500	0.025500
O31	O3	0.083700	0.251400	0.901700
O41	O4	0.217900	0.058000	0.861300
O51	O5	0.023600	0.049600	0.954500
O61	O6	0.188400	0.302500	0.104700
O71	O7	0.261000	0.416900	0.042900
O81	O8	0.542400	0.404100	0.303900
O91	O9	0.367000	0.308600	0.287900
O101	O10	0.704000	0.553400	0.068200
O111	O11	0.776900	0.560400	0.152800
O121	O12	0.804500	0.158400	0.916500
O131	O13	0.787600	0.340800	0.906400
O141	O14	0.419000	0.236100	0.703000
O151	O15	0.571000	0.352300	0.718600
O161	O16	0.304000	0.073500	0.940800
O171	O17	0.932000	0.415400	0.092900
O181	O18	0.449400	0.582100	0.473600
O191	O19	0.526000	0.770500	0.525500
O201	O20	0.416300	0.748600	0.401700
O211	O21	0.282100	0.942000	0.361300
O221	O22	0.476400	0.950400	0.454500
O231	O23	0.311600	0.697500	0.604700
O241	O24	0.239000	0.583100	0.542900
O251	O25	0.957600	0.595900	0.803900
O261	O26	0.133000	0.691400	0.787900
O271	O27	0.796000	0.446600	0.568200
O281	O28	0.723100	0.439600	0.652800
O291	O29	0.695500	0.841600	0.416500
O301	O30	0.712400	0.659200	0.406400
O311	O31	0.081000	0.763900	0.203000
O321	O32	0.929000	0.647700	0.218600
O331	O33	0.196000	0.926500	0.440800
O341	O34	0.568000	0.584600	0.592900
O351	O35	0.949400	0.582100	0.026400
O361	O36	0.026000	0.770500	0.974500
O371	O37	0.916300	0.748600	0.098300
O381	O38	0.782100	0.942000	0.138700
O391	O39	0.976400	0.950400	0.045500
O401	O40	0.811600	0.697500	0.895300
O411	O41	0.739000	0.583100	0.957100
O421	O42	0.457600	0.595900	0.696100
O431	O43	0.633000	0.691400	0.712100
O441	O44	0.296000	0.446600	0.931800
O451	O45	0.223100	0.439600	0.847200
O461	O46	0.195500	0.841600	0.083500
O471	O47	0.212400	0.659200	0.093600
O481	O48	0.581000	0.763900	0.297000
O491	O49	0.429000	0.647700	0.281400
O501	O50	0.696000	0.926500	0.059200
O511	O51	0.068000	0.584600	0.907100
O521	O52	0.550600	0.417900	0.526400
O531	O53	0.474000	0.229500	0.474500
O541	O54	0.583700	0.251400	0.598300
O551	O55	0.717900	0.058000	0.638700
O561	O56	0.523600	0.049600	0.545500
O571	O57	0.688400	0.302500	0.395300
O581	O58	0.761000	0.416900	0.457100
O591	O59	0.042400	0.404100	0.196100
O601	O60	0.867000	0.308600	0.212100
O611	O61	0.204000	0.553400	0.431800
O621	O62	0.276900	0.560400	0.347200
O631	O63	0.304500	0.158400	0.583500
O641	O64	0.287600	0.340800	0.593600
O651	O65	0.919000	0.236100	0.797000
O661	O66	0.071000	0.352300	0.781400
O671	O67	0.804000	0.073500	0.559200
O681	O68	0.432000	0.415400	0.407100
