data_UDOVUG_charged_PM
_symmetry_space_group_name_H-M	'P1'
_cell_length_a	10.481000
_cell_length_b	23.986000
_cell_length_c	23.986000
_cell_angle_alpha	90.000000
_cell_angle_beta	90.000000
_cell_angle_gamma	90.000000
_symmetry_Int_Tables_number 1

loop_
_symmetry_equiv_pos_as_xyz
'x,y,z'

loop_
_atom_site_label
_atom_site_type_symbol
_atom_site_fract_x
_atom_site_fract_y
_atom_site_fract_z
Zn11	Zn1	0.389510	0.420850	0.979650
Zn21	Zn2	0.389510	0.079150	0.520350
Zn31	Zn3	0.389510	0.520350	0.420850
Zn41	Zn4	0.389510	0.979650	0.079150
Zn51	Zn5	0.110490	0.079150	0.979650
Zn61	Zn6	0.110490	0.420850	0.520350
Zn71	Zn7	0.110490	0.979650	0.420850
Zn81	Zn8	0.110490	0.520350	0.079150
Zn91	Zn9	0.610490	0.579150	0.020350
Zn101	Zn10	0.610490	0.920850	0.479650
Zn111	Zn11	0.610490	0.479650	0.579150
Zn121	Zn12	0.610490	0.020350	0.920850
Zn131	Zn13	0.889510	0.920850	0.020350
Zn141	Zn14	0.889510	0.579150	0.479650
Zn151	Zn15	0.889510	0.020350	0.579150
Zn161	Zn16	0.889510	0.479650	0.920850
P11	P1	0.589000	0.489270	0.915010
P21	P2	0.589000	0.010730	0.584990
P31	P3	0.589000	0.584990	0.489270
P41	P4	0.589000	0.915010	0.010730
P51	P5	0.911000	0.010730	0.915010
P61	P6	0.911000	0.489270	0.584990
P71	P7	0.911000	0.915010	0.489270
P81	P8	0.911000	0.584990	0.010730
P91	P9	0.411000	0.510730	0.084990
P101	P10	0.411000	0.989270	0.415010
P111	P11	0.411000	0.415010	0.510730
P121	P12	0.411000	0.084990	0.989270
P131	P13	0.089000	0.989270	0.084990
P141	P14	0.089000	0.510730	0.415010
P151	P15	0.089000	0.084990	0.510730
P161	P16	0.089000	0.415010	0.989270
H11	H1	0.594800	0.602000	0.877100
H21	H2	0.591800	0.646000	0.792000
H31	H3	0.572300	0.594200	0.711400
H41	H4	0.583500	0.454600	0.801700
H51	H5	0.594800	0.898000	0.622900
H61	H6	0.591800	0.854000	0.708000
H71	H7	0.572300	0.905800	0.788600
H81	H8	0.583500	0.045400	0.698300
H91	H9	0.594800	0.622900	0.602000
H101	H10	0.591800	0.708000	0.646000
H111	H11	0.572300	0.788600	0.594200
H121	H12	0.583500	0.698300	0.454600
H131	H13	0.594800	0.877100	0.898000
H141	H14	0.591800	0.792000	0.854000
H151	H15	0.572300	0.711400	0.905800
H161	H16	0.583500	0.801700	0.045400
H171	H17	0.905200	0.898000	0.877100
H181	H18	0.908200	0.854000	0.792000
H191	H19	0.927700	0.905800	0.711400
H201	H20	0.916500	0.045400	0.801700
H211	H21	0.905200	0.602000	0.622900
H221	H22	0.908200	0.646000	0.708000
H231	H23	0.927700	0.594200	0.788600
H241	H24	0.916500	0.454600	0.698300
H251	H25	0.905200	0.877100	0.602000
H261	H26	0.908200	0.792000	0.646000
H271	H27	0.927700	0.711400	0.594200
H281	H28	0.916500	0.801700	0.454600
H291	H29	0.905200	0.622900	0.898000
H301	H30	0.908200	0.708000	0.854000
H311	H31	0.927700	0.788600	0.905800
H321	H32	0.916500	0.698300	0.045400
H331	H33	0.405200	0.398000	0.122900
H341	H34	0.408200	0.354000	0.208000
H351	H35	0.427700	0.405800	0.288600
H361	H36	0.416500	0.545400	0.198300
H371	H37	0.405200	0.102000	0.377100
H381	H38	0.408200	0.146000	0.292000
H391	H39	0.427700	0.094200	0.211400
H401	H40	0.416500	0.954600	0.301700
H411	H41	0.405200	0.377100	0.398000
H421	H42	0.408200	0.292000	0.354000
H431	H43	0.427700	0.211400	0.405800
H441	H44	0.416500	0.301700	0.545400
H451	H45	0.405200	0.122900	0.102000
H461	H46	0.408200	0.208000	0.146000
H471	H47	0.427700	0.288600	0.094200
H481	H48	0.416500	0.198300	0.954600
H491	H49	0.094800	0.102000	0.122900
H501	H50	0.091800	0.146000	0.208000
H511	H51	0.072300	0.094200	0.288600
H521	H52	0.083500	0.954600	0.198300
H531	H53	0.094800	0.398000	0.377100
H541	H54	0.091800	0.354000	0.292000
H551	H55	0.072300	0.405800	0.211400
H561	H56	0.083500	0.545400	0.301700
H571	H57	0.094800	0.122900	0.398000
H581	H58	0.091800	0.208000	0.354000
H591	H59	0.072300	0.288600	0.405800
H601	H60	0.083500	0.198300	0.545400
H611	H61	0.094800	0.377100	0.102000
H621	H62	0.091800	0.292000	0.146000
H631	H63	0.072300	0.211400	0.094200
H641	H64	0.083500	0.301700	0.954600
C11	C1	0.588600	0.523600	0.848000
C21	C2	0.591000	0.580900	0.844600
C31	C3	0.587900	0.607300	0.793800
C41	C4	0.578900	0.576200	0.745600
C51	C5	0.579700	0.519500	0.747400
C61	C6	0.583900	0.493400	0.799800
C71	C7	0.577100	0.485800	0.694600
C81	C8	0.588600	0.976400	0.652000
C91	C9	0.591000	0.919100	0.655400
C101	C10	0.587900	0.892700	0.706200
C111	C11	0.578900	0.923800	0.754400
C121	C12	0.579700	0.980500	0.752600
C131	C13	0.583900	0.006600	0.700200
C141	C14	0.577100	0.014200	0.805400
C151	C15	0.588600	0.652000	0.523600
C161	C16	0.591000	0.655400	0.580900
C171	C17	0.587900	0.706200	0.607300
C181	C18	0.578900	0.754400	0.576200
C191	C19	0.579700	0.752600	0.519500
C201	C20	0.583900	0.700200	0.493400
C211	C21	0.577100	0.805400	0.485800
C221	C22	0.588600	0.848000	0.976400
C231	C23	0.591000	0.844600	0.919100
C241	C24	0.587900	0.793800	0.892700
C251	C25	0.578900	0.745600	0.923800
C261	C26	0.579700	0.747400	0.980500
C271	C27	0.583900	0.799800	0.006600
C281	C28	0.577100	0.694600	0.014200
C291	C29	0.911400	0.976400	0.848000
C301	C30	0.909000	0.919100	0.844600
C311	C31	0.912100	0.892700	0.793800
C321	C32	0.921100	0.923800	0.745600
C331	C33	0.920300	0.980500	0.747400
C341	C34	0.916100	0.006600	0.799800
C351	C35	0.922900	0.014200	0.694600
C361	C36	0.911400	0.523600	0.652000
C371	C37	0.909000	0.580900	0.655400
C381	C38	0.912100	0.607300	0.706200
C391	C39	0.921100	0.576200	0.754400
C401	C40	0.920300	0.519500	0.752600
C411	C41	0.916100	0.493400	0.700200
C421	C42	0.922900	0.485800	0.805400
C431	C43	0.911400	0.848000	0.523600
C441	C44	0.909000	0.844600	0.580900
C451	C45	0.912100	0.793800	0.607300
C461	C46	0.921100	0.745600	0.576200
C471	C47	0.920300	0.747400	0.519500
C481	C48	0.916100	0.799800	0.493400
C491	C49	0.922900	0.694600	0.485800
C501	C50	0.911400	0.652000	0.976400
C511	C51	0.909000	0.655400	0.919100
C521	C52	0.912100	0.706200	0.892700
C531	C53	0.921100	0.754400	0.923800
C541	C54	0.920300	0.752600	0.980500
C551	C55	0.916100	0.700200	0.006600
C561	C56	0.922900	0.805400	0.014200
C571	C57	0.411400	0.476400	0.152000
C581	C58	0.409000	0.419100	0.155400
C591	C59	0.412100	0.392700	0.206200
C601	C60	0.421100	0.423800	0.254400
C611	C61	0.420300	0.480500	0.252600
C621	C62	0.416100	0.506600	0.200200
C631	C63	0.422900	0.514200	0.305400
C641	C64	0.411400	0.023600	0.348000
C651	C65	0.409000	0.080900	0.344600
C661	C66	0.412100	0.107300	0.293800
C671	C67	0.421100	0.076200	0.245600
C681	C68	0.420300	0.019500	0.247400
C691	C69	0.416100	0.993400	0.299800
C701	C70	0.422900	0.985800	0.194600
C711	C71	0.411400	0.348000	0.476400
C721	C72	0.409000	0.344600	0.419100
C731	C73	0.412100	0.293800	0.392700
C741	C74	0.421100	0.245600	0.423800
C751	C75	0.420300	0.247400	0.480500
C761	C76	0.416100	0.299800	0.506600
C771	C77	0.422900	0.194600	0.514200
C781	C78	0.411400	0.152000	0.023600
C791	C79	0.409000	0.155400	0.080900
C801	C80	0.412100	0.206200	0.107300
C811	C81	0.421100	0.254400	0.076200
C821	C82	0.420300	0.252600	0.019500
C831	C83	0.416100	0.200200	0.993400
C841	C84	0.422900	0.305400	0.985800
C851	C85	0.088600	0.023600	0.152000
C861	C86	0.091000	0.080900	0.155400
C871	C87	0.087900	0.107300	0.206200
C881	C88	0.078900	0.076200	0.254400
C891	C89	0.079700	0.019500	0.252600
C901	C90	0.083900	0.993400	0.200200
C911	C91	0.077100	0.985800	0.305400
C921	C92	0.088600	0.476400	0.348000
C931	C93	0.091000	0.419100	0.344600
C941	C94	0.087900	0.392700	0.293800
C951	C95	0.078900	0.423800	0.245600
C961	C96	0.079700	0.480500	0.247400
C971	C97	0.083900	0.506600	0.299800
C981	C98	0.077100	0.514200	0.194600
C991	C99	0.088600	0.152000	0.476400
C1001	C100	0.091000	0.155400	0.419100
C1011	C101	0.087900	0.206200	0.392700
C1021	C102	0.078900	0.254400	0.423800
C1031	C103	0.079700	0.252600	0.480500
C1041	C104	0.083900	0.200200	0.506600
C1051	C105	0.077100	0.305400	0.514200
C1061	C106	0.088600	0.348000	0.023600
C1071	C107	0.091000	0.344600	0.080900
C1081	C108	0.087900	0.293800	0.107300
C1091	C109	0.078900	0.245600	0.076200
C1101	C110	0.079700	0.247400	0.019500
C1111	C111	0.083900	0.299800	0.993400
C1121	C112	0.077100	0.194600	0.985800
O11	O1	0.479400	0.448000	0.915000
O21	O2	0.712500	0.457000	0.920800
O31	O3	0.574000	0.534100	0.957200
O41	O4	0.584900	0.434800	0.697100
O51	O5	0.564000	0.512400	0.650700
O61	O6	0.479400	0.052000	0.585000
O71	O7	0.712500	0.043000	0.579200
O81	O8	0.574000	0.965900	0.542800
O91	O9	0.584900	0.065200	0.802900
O101	O10	0.564000	0.987600	0.849300
O111	O11	0.479400	0.585000	0.448000
O121	O12	0.712500	0.579200	0.457000
O131	O13	0.574000	0.542800	0.534100
O141	O14	0.584900	0.802900	0.434800
O151	O15	0.564000	0.849300	0.512400
O161	O16	0.479400	0.915000	0.052000
O171	O17	0.712500	0.920800	0.043000
O181	O18	0.574000	0.957200	0.965900
O191	O19	0.584900	0.697100	0.065200
O201	O20	0.564000	0.650700	0.987600
O211	O21	0.020600	0.052000	0.915000
O221	O22	0.787500	0.043000	0.920800
O231	O23	0.926000	0.965900	0.957200
O241	O24	0.915100	0.065200	0.697100
O251	O25	0.936000	0.987600	0.650700
O261	O26	0.020600	0.448000	0.585000
O271	O27	0.787500	0.457000	0.579200
O281	O28	0.926000	0.534100	0.542800
O291	O29	0.915100	0.434800	0.802900
O301	O30	0.936000	0.512400	0.849300
O311	O31	0.020600	0.915000	0.448000
O321	O32	0.787500	0.920800	0.457000
O331	O33	0.926000	0.957200	0.534100
O341	O34	0.915100	0.697100	0.434800
O351	O35	0.936000	0.650700	0.512400
O361	O36	0.020600	0.585000	0.052000
O371	O37	0.787500	0.579200	0.043000
O381	O38	0.926000	0.542800	0.965900
O391	O39	0.915100	0.802900	0.065200
O401	O40	0.936000	0.849300	0.987600
O411	O41	0.520600	0.552000	0.085000
O421	O42	0.287500	0.543000	0.079200
O431	O43	0.426000	0.465900	0.042800
O441	O44	0.415100	0.565200	0.302900
O451	O45	0.436000	0.487600	0.349300
O461	O46	0.520600	0.948000	0.415000
O471	O47	0.287500	0.957000	0.420800
O481	O48	0.426000	0.034100	0.457200
O491	O49	0.415100	0.934800	0.197100
O501	O50	0.436000	0.012400	0.150700
O511	O51	0.520600	0.415000	0.552000
O521	O52	0.287500	0.420800	0.543000
O531	O53	0.426000	0.457200	0.465900
O541	O54	0.415100	0.197100	0.565200
O551	O55	0.436000	0.150700	0.487600
O561	O56	0.520600	0.085000	0.948000
O571	O57	0.287500	0.079200	0.957000
O581	O58	0.426000	0.042800	0.034100
O591	O59	0.415100	0.302900	0.934800
O601	O60	0.436000	0.349300	0.012400
O611	O61	0.979400	0.948000	0.085000
O621	O62	0.212500	0.957000	0.079200
O631	O63	0.074000	0.034100	0.042800
O641	O64	0.084900	0.934800	0.302900
O651	O65	0.064000	0.012400	0.349300
O661	O66	0.979400	0.552000	0.415000
O671	O67	0.212500	0.543000	0.420800
O681	O68	0.074000	0.465900	0.457200
O691	O69	0.084900	0.565200	0.197100
O701	O70	0.064000	0.487600	0.150700
O711	O71	0.979400	0.085000	0.552000
O721	O72	0.212500	0.079200	0.543000
O731	O73	0.074000	0.042800	0.465900
O741	O74	0.084900	0.302900	0.565200
O751	O75	0.064000	0.349300	0.487600
O761	O76	0.979400	0.415000	0.948000
O771	O77	0.212500	0.420800	0.957000
O781	O78	0.074000	0.457200	0.034100
O791	O79	0.084900	0.197100	0.934800
O801	O80	0.064000	0.150700	0.012400
