data_UDUMIP_clean_PM
_symmetry_space_group_name_H-M	'P1'
_cell_length_a	14.877500
_cell_length_b	25.926100
_cell_length_c	36.377700
_cell_angle_alpha	90.000000
_cell_angle_beta	90.000000
_cell_angle_gamma	90.000000
_symmetry_Int_Tables_number 1

loop_
_symmetry_equiv_pos_as_xyz
'x,y,z'

loop_
_atom_site_label
_atom_site_type_symbol
_atom_site_fract_x
_atom_site_fract_y
_atom_site_fract_z
Ag11	Ag1	0.682340	0.908640	0.408350
O11	O1	0.895400	0.010580	0.435600
O21	O2	0.840400	0.931180	0.431140
C11	C1	0.850800	0.966300	0.490830
C21	C2	0.803200	0.925100	0.505370
H11	H1	0.781200	0.899500	0.489900
C31	C3	0.863700	0.970000	0.449760
C41	C4	0.788100	0.921900	0.543240
C51	C5	0.736000	0.878000	0.559250
C61	C6	0.820600	0.959900	0.566790
H21	H2	0.810300	0.957800	0.592000
C71	C7	0.869300	0.001300	0.551840
O31	O3	0.712600	0.876540	0.591640
O41	O4	0.719200	0.841500	0.535950
C81	C8	0.903900	0.043800	0.576450
C91	C9	0.883700	0.004000	0.514860
H31	H3	0.916000	0.031700	0.505400
O51	O5	0.897300	0.037930	0.611290
O61	O6	0.933400	0.083870	0.561560
H41	H4	0.692000	0.814000	0.548000
Ag21	Ag2	0.682340	0.408640	0.908350
O71	O7	0.895400	0.510580	0.935600
O81	O8	0.840400	0.431180	0.931140
C101	C10	0.850800	0.466300	0.990830
C111	C11	0.803200	0.425100	0.005370
H51	H5	0.781200	0.399500	0.989900
C121	C12	0.863700	0.470000	0.949760
C131	C13	0.788100	0.421900	0.043240
C141	C14	0.736000	0.378000	0.059250
C151	C15	0.820600	0.459900	0.066790
H61	H6	0.810300	0.457800	0.092000
C161	C16	0.869300	0.501300	0.051840
O91	O9	0.712600	0.376540	0.091640
O101	O10	0.719200	0.341500	0.035950
C171	C17	0.903900	0.543800	0.076450
C181	C18	0.883700	0.504000	0.014860
H71	H7	0.916000	0.531700	0.005400
O111	O11	0.897300	0.537930	0.111290
O121	O12	0.933400	0.583870	0.061560
H81	H8	0.692000	0.314000	0.048000
Ag31	Ag3	0.182340	0.908640	0.908350
O131	O13	0.395400	0.010580	0.935600
O141	O14	0.340400	0.931180	0.931140
C191	C19	0.350800	0.966300	0.990830
C201	C20	0.303200	0.925100	0.005370
H91	H9	0.281200	0.899500	0.989900
C211	C21	0.363700	0.970000	0.949760
C221	C22	0.288100	0.921900	0.043240
C231	C23	0.236000	0.878000	0.059250
C241	C24	0.320600	0.959900	0.066790
H101	H10	0.310300	0.957800	0.092000
C251	C25	0.369300	0.001300	0.051840
O151	O15	0.212600	0.876540	0.091640
O161	O16	0.219200	0.841500	0.035950
C261	C26	0.403900	0.043800	0.076450
C271	C27	0.383700	0.004000	0.014860
H111	H11	0.416000	0.031700	0.005400
O171	O17	0.397300	0.037930	0.111290
O181	O18	0.433400	0.083870	0.061560
H121	H12	0.192000	0.814000	0.048000
Ag41	Ag4	0.182340	0.408640	0.408350
O191	O19	0.395400	0.510580	0.435600
O201	O20	0.340400	0.431180	0.431140
C281	C28	0.350800	0.466300	0.490830
C291	C29	0.303200	0.425100	0.505370
H131	H13	0.281200	0.399500	0.489900
C301	C30	0.363700	0.470000	0.449760
C311	C31	0.288100	0.421900	0.543240
C321	C32	0.236000	0.378000	0.559250
C331	C33	0.320600	0.459900	0.566790
H141	H14	0.310300	0.457800	0.592000
C341	C34	0.369300	0.501300	0.551840
O211	O21	0.212600	0.376540	0.591640
O221	O22	0.219200	0.341500	0.535950
C351	C35	0.403900	0.543800	0.576450
C361	C36	0.383700	0.504000	0.514860
H151	H15	0.416000	0.531700	0.505400
O231	O23	0.397300	0.537930	0.611290
O241	O24	0.433400	0.583870	0.561560
H161	H16	0.192000	0.314000	0.548000
Ag51	Ag5	0.067660	0.841360	0.408350
O251	O25	0.854600	0.739420	0.435600
O261	O26	0.909600	0.818820	0.431140
C371	C37	0.899200	0.783700	0.490830
C381	C38	0.946800	0.824900	0.505370
H171	H17	0.968800	0.850500	0.489900
C391	C39	0.886300	0.780000	0.449760
C401	C40	0.961900	0.828100	0.543240
C411	C41	0.014000	0.872000	0.559250
C421	C42	0.929400	0.790100	0.566790
H181	H18	0.939700	0.792200	0.592000
C431	C43	0.880700	0.748700	0.551840
O271	O27	0.037400	0.873460	0.591640
O281	O28	0.030800	0.908500	0.535950
C441	C44	0.846100	0.706200	0.576450
C451	C45	0.866300	0.746000	0.514860
H191	H19	0.834000	0.718300	0.505400
O291	O29	0.852700	0.712070	0.611290
O301	O30	0.816600	0.666130	0.561560
H201	H20	0.058000	0.936000	0.548000
Ag61	Ag6	0.067660	0.341360	0.908350
O311	O31	0.854600	0.239420	0.935600
O321	O32	0.909600	0.318820	0.931140
C461	C46	0.899200	0.283700	0.990830
C471	C47	0.946800	0.324900	0.005370
H211	H21	0.968800	0.350500	0.989900
C481	C48	0.886300	0.280000	0.949760
C491	C49	0.961900	0.328100	0.043240
C501	C50	0.014000	0.372000	0.059250
C511	C51	0.929400	0.290100	0.066790
H221	H22	0.939700	0.292200	0.092000
C521	C52	0.880700	0.248700	0.051840
O331	O33	0.037400	0.373460	0.091640
O341	O34	0.030800	0.408500	0.035950
C531	C53	0.846100	0.206200	0.076450
C541	C54	0.866300	0.246000	0.014860
H231	H23	0.834000	0.218300	0.005400
O351	O35	0.852700	0.212070	0.111290
O361	O36	0.816600	0.166130	0.061560
H241	H24	0.058000	0.436000	0.048000
Ag71	Ag7	0.567660	0.841360	0.908350
O371	O37	0.354600	0.739420	0.935600
O381	O38	0.409600	0.818820	0.931140
C551	C55	0.399200	0.783700	0.990830
C561	C56	0.446800	0.824900	0.005370
H251	H25	0.468800	0.850500	0.989900
C571	C57	0.386300	0.780000	0.949760
C581	C58	0.461900	0.828100	0.043240
C591	C59	0.514000	0.872000	0.059250
C601	C60	0.429400	0.790100	0.066790
H261	H26	0.439700	0.792200	0.092000
C611	C61	0.380700	0.748700	0.051840
O391	O39	0.537400	0.873460	0.091640
O401	O40	0.530800	0.908500	0.035950
C621	C62	0.346100	0.706200	0.076450
C631	C63	0.366300	0.746000	0.014860
H271	H27	0.334000	0.718300	0.005400
O411	O41	0.352700	0.712070	0.111290
O421	O42	0.316600	0.666130	0.061560
H281	H28	0.558000	0.936000	0.048000
Ag81	Ag8	0.567660	0.341360	0.408350
O431	O43	0.354600	0.239420	0.435600
O441	O44	0.409600	0.318820	0.431140
C641	C64	0.399200	0.283700	0.490830
C651	C65	0.446800	0.324900	0.505370
H291	H29	0.468800	0.350500	0.489900
C661	C66	0.386300	0.280000	0.449760
C671	C67	0.461900	0.328100	0.543240
C681	C68	0.514000	0.372000	0.559250
C691	C69	0.429400	0.290100	0.566790
H301	H30	0.439700	0.292200	0.592000
C701	C70	0.380700	0.248700	0.551840
O451	O45	0.537400	0.373460	0.591640
O461	O46	0.530800	0.408500	0.535950
C711	C71	0.346100	0.206200	0.576450
C721	C72	0.366300	0.246000	0.514860
H311	H31	0.334000	0.218300	0.505400
O471	O47	0.352700	0.212070	0.611290
O481	O48	0.316600	0.166130	0.561560
H321	H32	0.558000	0.436000	0.548000
Ag91	Ag9	0.067660	0.908640	0.341650
O491	O49	0.854600	0.010580	0.314400
O501	O50	0.909600	0.931180	0.318860
C731	C73	0.899200	0.966300	0.259170
C741	C74	0.946800	0.925100	0.244630
H331	H33	0.968800	0.899500	0.260100
C751	C75	0.886300	0.970000	0.300240
C761	C76	0.961900	0.921900	0.206760
C771	C77	0.014000	0.878000	0.190750
C781	C78	0.929400	0.959900	0.183210
H341	H34	0.939700	0.957800	0.158000
C791	C79	0.880700	0.001300	0.198160
O511	O51	0.037400	0.876540	0.158360
O521	O52	0.030800	0.841500	0.214050
C801	C80	0.846100	0.043800	0.173550
C811	C81	0.866300	0.004000	0.235140
H351	H35	0.834000	0.031700	0.244600
O531	O53	0.852700	0.037930	0.138710
O541	O54	0.816600	0.083870	0.188440
H361	H36	0.058000	0.814000	0.202000
Ag101	Ag10	0.067660	0.408640	0.841650
O551	O55	0.854600	0.510580	0.814400
O561	O56	0.909600	0.431180	0.818860
C821	C82	0.899200	0.466300	0.759170
C831	C83	0.946800	0.425100	0.744630
H371	H37	0.968800	0.399500	0.760100
C841	C84	0.886300	0.470000	0.800240
C851	C85	0.961900	0.421900	0.706760
C861	C86	0.014000	0.378000	0.690750
C871	C87	0.929400	0.459900	0.683210
H381	H38	0.939700	0.457800	0.658000
C881	C88	0.880700	0.501300	0.698160
O571	O57	0.037400	0.376540	0.658360
O581	O58	0.030800	0.341500	0.714050
C891	C89	0.846100	0.543800	0.673550
C901	C90	0.866300	0.504000	0.735140
H391	H39	0.834000	0.531700	0.744600
O591	O59	0.852700	0.537930	0.638710
O601	O60	0.816600	0.583870	0.688440
H401	H40	0.058000	0.314000	0.702000
Ag111	Ag11	0.567660	0.908640	0.841650
O611	O61	0.354600	0.010580	0.814400
O621	O62	0.409600	0.931180	0.818860
C911	C91	0.399200	0.966300	0.759170
C921	C92	0.446800	0.925100	0.744630
H411	H41	0.468800	0.899500	0.760100
C931	C93	0.386300	0.970000	0.800240
C941	C94	0.461900	0.921900	0.706760
C951	C95	0.514000	0.878000	0.690750
C961	C96	0.429400	0.959900	0.683210
H421	H42	0.439700	0.957800	0.658000
C971	C97	0.380700	0.001300	0.698160
O631	O63	0.537400	0.876540	0.658360
O641	O64	0.530800	0.841500	0.714050
C981	C98	0.346100	0.043800	0.673550
C991	C99	0.366300	0.004000	0.735140
H431	H43	0.334000	0.031700	0.744600
O651	O65	0.352700	0.037930	0.638710
O661	O66	0.316600	0.083870	0.688440
H441	H44	0.558000	0.814000	0.702000
Ag121	Ag12	0.567660	0.408640	0.341650
O671	O67	0.354600	0.510580	0.314400
O681	O68	0.409600	0.431180	0.318860
C1001	C100	0.399200	0.466300	0.259170
C1011	C101	0.446800	0.425100	0.244630
H451	H45	0.468800	0.399500	0.260100
C1021	C102	0.386300	0.470000	0.300240
C1031	C103	0.461900	0.421900	0.206760
C1041	C104	0.514000	0.378000	0.190750
C1051	C105	0.429400	0.459900	0.183210
H461	H46	0.439700	0.457800	0.158000
C1061	C106	0.380700	0.501300	0.198160
O691	O69	0.537400	0.376540	0.158360
O701	O70	0.530800	0.341500	0.214050
C1071	C107	0.346100	0.543800	0.173550
C1081	C108	0.366300	0.504000	0.235140
H471	H47	0.334000	0.531700	0.244600
O711	O71	0.352700	0.537930	0.138710
O721	O72	0.316600	0.583870	0.188440
H481	H48	0.558000	0.314000	0.202000
Ag131	Ag13	0.682340	0.841360	0.341650
O731	O73	0.895400	0.739420	0.314400
O741	O74	0.840400	0.818820	0.318860
C1091	C109	0.850800	0.783700	0.259170
C1101	C110	0.803200	0.824900	0.244630
H491	H49	0.781200	0.850500	0.260100
C1111	C111	0.863700	0.780000	0.300240
C1121	C112	0.788100	0.828100	0.206760
C1131	C113	0.736000	0.872000	0.190750
C1141	C114	0.820600	0.790100	0.183210
H501	H50	0.810300	0.792200	0.158000
C1151	C115	0.869300	0.748700	0.198160
O751	O75	0.712600	0.873460	0.158360
O761	O76	0.719200	0.908500	0.214050
C1161	C116	0.903900	0.706200	0.173550
C1171	C117	0.883700	0.746000	0.235140
H511	H51	0.916000	0.718300	0.244600
O771	O77	0.897300	0.712070	0.138710
O781	O78	0.933400	0.666130	0.188440
H521	H52	0.692000	0.936000	0.202000
Ag141	Ag14	0.682340	0.341360	0.841650
O791	O79	0.895400	0.239420	0.814400
O801	O80	0.840400	0.318820	0.818860
C1181	C118	0.850800	0.283700	0.759170
C1191	C119	0.803200	0.324900	0.744630
H531	H53	0.781200	0.350500	0.760100
C1201	C120	0.863700	0.280000	0.800240
C1211	C121	0.788100	0.328100	0.706760
C1221	C122	0.736000	0.372000	0.690750
C1231	C123	0.820600	0.290100	0.683210
H541	H54	0.810300	0.292200	0.658000
C1241	C124	0.869300	0.248700	0.698160
O811	O81	0.712600	0.373460	0.658360
O821	O82	0.719200	0.408500	0.714050
C1251	C125	0.903900	0.206200	0.673550
C1261	C126	0.883700	0.246000	0.735140
H551	H55	0.916000	0.218300	0.744600
O831	O83	0.897300	0.212070	0.638710
O841	O84	0.933400	0.166130	0.688440
H561	H56	0.692000	0.436000	0.702000
Ag151	Ag15	0.182340	0.841360	0.841650
O851	O85	0.395400	0.739420	0.814400
O861	O86	0.340400	0.818820	0.818860
C1271	C127	0.350800	0.783700	0.759170
C1281	C128	0.303200	0.824900	0.744630
H571	H57	0.281200	0.850500	0.760100
C1291	C129	0.363700	0.780000	0.800240
C1301	C130	0.288100	0.828100	0.706760
C1311	C131	0.236000	0.872000	0.690750
C1321	C132	0.320600	0.790100	0.683210
H581	H58	0.310300	0.792200	0.658000
C1331	C133	0.369300	0.748700	0.698160
O871	O87	0.212600	0.873460	0.658360
O881	O88	0.219200	0.908500	0.714050
C1341	C134	0.403900	0.706200	0.673550
C1351	C135	0.383700	0.746000	0.735140
H591	H59	0.416000	0.718300	0.744600
O891	O89	0.397300	0.712070	0.638710
O901	O90	0.433400	0.666130	0.688440
H601	H60	0.192000	0.936000	0.702000
Ag161	Ag16	0.182340	0.341360	0.341650
O911	O91	0.395400	0.239420	0.314400
O921	O92	0.340400	0.318820	0.318860
C1361	C136	0.350800	0.283700	0.259170
C1371	C137	0.303200	0.324900	0.244630
H611	H61	0.281200	0.350500	0.260100
C1381	C138	0.363700	0.280000	0.300240
C1391	C139	0.288100	0.328100	0.206760
C1401	C140	0.236000	0.372000	0.190750
C1411	C141	0.320600	0.290100	0.183210
H621	H62	0.310300	0.292200	0.158000
C1421	C142	0.369300	0.248700	0.198160
O931	O93	0.212600	0.373460	0.158360
O941	O94	0.219200	0.408500	0.214050
C1431	C143	0.403900	0.206200	0.173550
C1441	C144	0.383700	0.246000	0.235140
H631	H63	0.416000	0.218300	0.244600
O951	O95	0.397300	0.212070	0.138710
O961	O96	0.433400	0.166130	0.188440
H641	H64	0.192000	0.436000	0.202000
Ag171	Ag17	0.317660	0.091360	0.591650
O971	O97	0.104600	0.989420	0.564400
O981	O98	0.159600	0.068820	0.568860
C1451	C145	0.149200	0.033700	0.509170
C1461	C146	0.196800	0.074900	0.494630
H651	H65	0.218800	0.100500	0.510100
C1471	C147	0.136300	0.030000	0.550240
C1481	C148	0.211900	0.078100	0.456760
C1491	C149	0.264000	0.122000	0.440750
C1501	C150	0.179400	0.040100	0.433210
H661	H66	0.189700	0.042200	0.408000
C1511	C151	0.130700	0.998700	0.448160
O991	O99	0.287400	0.123460	0.408360
O1001	O100	0.280800	0.158500	0.464050
C1521	C152	0.096100	0.956200	0.423550
C1531	C153	0.116300	0.996000	0.485140
H671	H67	0.084000	0.968300	0.494600
O1011	O101	0.102700	0.962070	0.388710
O1021	O102	0.066600	0.916130	0.438440
H681	H68	0.308000	0.186000	0.452000
Ag181	Ag18	0.317660	0.591360	0.091650
O1031	O103	0.104600	0.489420	0.064400
O1041	O104	0.159600	0.568820	0.068860
C1541	C154	0.149200	0.533700	0.009170
C1551	C155	0.196800	0.574900	0.994630
H691	H69	0.218800	0.600500	0.010100
C1561	C156	0.136300	0.530000	0.050240
C1571	C157	0.211900	0.578100	0.956760
C1581	C158	0.264000	0.622000	0.940750
C1591	C159	0.179400	0.540100	0.933210
H701	H70	0.189700	0.542200	0.908000
C1601	C160	0.130700	0.498700	0.948160
O1051	O105	0.287400	0.623460	0.908360
O1061	O106	0.280800	0.658500	0.964050
C1611	C161	0.096100	0.456200	0.923550
C1621	C162	0.116300	0.496000	0.985140
H711	H71	0.084000	0.468300	0.994600
O1071	O107	0.102700	0.462070	0.888710
O1081	O108	0.066600	0.416130	0.938440
H721	H72	0.308000	0.686000	0.952000
Ag191	Ag19	0.817660	0.091360	0.091650
O1091	O109	0.604600	0.989420	0.064400
O1101	O110	0.659600	0.068820	0.068860
C1631	C163	0.649200	0.033700	0.009170
C1641	C164	0.696800	0.074900	0.994630
H731	H73	0.718800	0.100500	0.010100
C1651	C165	0.636300	0.030000	0.050240
C1661	C166	0.711900	0.078100	0.956760
C1671	C167	0.764000	0.122000	0.940750
C1681	C168	0.679400	0.040100	0.933210
H741	H74	0.689700	0.042200	0.908000
C1691	C169	0.630700	0.998700	0.948160
O1111	O111	0.787400	0.123460	0.908360
O1121	O112	0.780800	0.158500	0.964050
C1701	C170	0.596100	0.956200	0.923550
C1711	C171	0.616300	0.996000	0.985140
H751	H75	0.584000	0.968300	0.994600
O1131	O113	0.602700	0.962070	0.888710
O1141	O114	0.566600	0.916130	0.938440
H761	H76	0.808000	0.186000	0.952000
Ag201	Ag20	0.817660	0.591360	0.591650
O1151	O115	0.604600	0.489420	0.564400
O1161	O116	0.659600	0.568820	0.568860
C1721	C172	0.649200	0.533700	0.509170
C1731	C173	0.696800	0.574900	0.494630
H771	H77	0.718800	0.600500	0.510100
C1741	C174	0.636300	0.530000	0.550240
C1751	C175	0.711900	0.578100	0.456760
C1761	C176	0.764000	0.622000	0.440750
C1771	C177	0.679400	0.540100	0.433210
H781	H78	0.689700	0.542200	0.408000
C1781	C178	0.630700	0.498700	0.448160
O1171	O117	0.787400	0.623460	0.408360
O1181	O118	0.780800	0.658500	0.464050
C1791	C179	0.596100	0.456200	0.423550
C1801	C180	0.616300	0.496000	0.485140
H791	H79	0.584000	0.468300	0.494600
O1191	O119	0.602700	0.462070	0.388710
O1201	O120	0.566600	0.416130	0.438440
H801	H80	0.808000	0.686000	0.452000
Ag211	Ag21	0.932340	0.158640	0.591650
O1211	O121	0.145400	0.260580	0.564400
O1221	O122	0.090400	0.181180	0.568860
C1811	C181	0.100800	0.216300	0.509170
C1821	C182	0.053200	0.175100	0.494630
H811	H81	0.031200	0.149500	0.510100
C1831	C183	0.113700	0.220000	0.550240
C1841	C184	0.038100	0.171900	0.456760
C1851	C185	0.986000	0.128000	0.440750
C1861	C186	0.070600	0.209900	0.433210
H821	H82	0.060300	0.207800	0.408000
C1871	C187	0.119300	0.251300	0.448160
O1231	O123	0.962600	0.126540	0.408360
O1241	O124	0.969200	0.091500	0.464050
C1881	C188	0.153900	0.293800	0.423550
C1891	C189	0.133700	0.254000	0.485140
H831	H83	0.166000	0.281700	0.494600
O1251	O125	0.147300	0.287930	0.388710
O1261	O126	0.183400	0.333870	0.438440
H841	H84	0.942000	0.064000	0.452000
Ag221	Ag22	0.932340	0.658640	0.091650
O1271	O127	0.145400	0.760580	0.064400
O1281	O128	0.090400	0.681180	0.068860
C1901	C190	0.100800	0.716300	0.009170
C1911	C191	0.053200	0.675100	0.994630
H851	H85	0.031200	0.649500	0.010100
C1921	C192	0.113700	0.720000	0.050240
C1931	C193	0.038100	0.671900	0.956760
C1941	C194	0.986000	0.628000	0.940750
C1951	C195	0.070600	0.709900	0.933210
H861	H86	0.060300	0.707800	0.908000
C1961	C196	0.119300	0.751300	0.948160
O1291	O129	0.962600	0.626540	0.908360
O1301	O130	0.969200	0.591500	0.964050
C1971	C197	0.153900	0.793800	0.923550
C1981	C198	0.133700	0.754000	0.985140
H871	H87	0.166000	0.781700	0.994600
O1311	O131	0.147300	0.787930	0.888710
O1321	O132	0.183400	0.833870	0.938440
H881	H88	0.942000	0.564000	0.952000
Ag231	Ag23	0.432340	0.158640	0.091650
O1331	O133	0.645400	0.260580	0.064400
O1341	O134	0.590400	0.181180	0.068860
C1991	C199	0.600800	0.216300	0.009170
C2001	C200	0.553200	0.175100	0.994630
H891	H89	0.531200	0.149500	0.010100
C2011	C201	0.613700	0.220000	0.050240
C2021	C202	0.538100	0.171900	0.956760
C2031	C203	0.486000	0.128000	0.940750
C2041	C204	0.570600	0.209900	0.933210
H901	H90	0.560300	0.207800	0.908000
C2051	C205	0.619300	0.251300	0.948160
O1351	O135	0.462600	0.126540	0.908360
O1361	O136	0.469200	0.091500	0.964050
C2061	C206	0.653900	0.293800	0.923550
C2071	C207	0.633700	0.254000	0.985140
H911	H91	0.666000	0.281700	0.994600
O1371	O137	0.647300	0.287930	0.888710
O1381	O138	0.683400	0.333870	0.938440
H921	H92	0.442000	0.064000	0.952000
Ag241	Ag24	0.432340	0.658640	0.591650
O1391	O139	0.645400	0.760580	0.564400
O1401	O140	0.590400	0.681180	0.568860
C2081	C208	0.600800	0.716300	0.509170
C2091	C209	0.553200	0.675100	0.494630
H931	H93	0.531200	0.649500	0.510100
C2101	C210	0.613700	0.720000	0.550240
C2111	C211	0.538100	0.671900	0.456760
C2121	C212	0.486000	0.628000	0.440750
C2131	C213	0.570600	0.709900	0.433210
H941	H94	0.560300	0.707800	0.408000
C2141	C214	0.619300	0.751300	0.448160
O1411	O141	0.462600	0.626540	0.408360
O1421	O142	0.469200	0.591500	0.464050
C2151	C215	0.653900	0.793800	0.423550
C2161	C216	0.633700	0.754000	0.485140
H951	H95	0.666000	0.781700	0.494600
O1431	O143	0.647300	0.787930	0.388710
O1441	O144	0.683400	0.833870	0.438440
H961	H96	0.442000	0.564000	0.452000
Ag251	Ag25	0.932340	0.091360	0.658350
O1451	O145	0.145400	0.989420	0.685600
O1461	O146	0.090400	0.068820	0.681140
C2171	C217	0.100800	0.033700	0.740830
C2181	C218	0.053200	0.074900	0.755370
H971	H97	0.031200	0.100500	0.739900
C2191	C219	0.113700	0.030000	0.699760
C2201	C220	0.038100	0.078100	0.793240
C2211	C221	0.986000	0.122000	0.809250
C2221	C222	0.070600	0.040100	0.816790
H981	H98	0.060300	0.042200	0.842000
C2231	C223	0.119300	0.998700	0.801840
O1471	O147	0.962600	0.123460	0.841640
O1481	O148	0.969200	0.158500	0.785950
C2241	C224	0.153900	0.956200	0.826450
C2251	C225	0.133700	0.996000	0.764860
H991	H99	0.166000	0.968300	0.755400
O1491	O149	0.147300	0.962070	0.861290
O1501	O150	0.183400	0.916130	0.811560
H1001	H100	0.942000	0.186000	0.798000
Ag261	Ag26	0.932340	0.591360	0.158350
O1511	O151	0.145400	0.489420	0.185600
O1521	O152	0.090400	0.568820	0.181140
C2261	C226	0.100800	0.533700	0.240830
C2271	C227	0.053200	0.574900	0.255370
H1011	H101	0.031200	0.600500	0.239900
C2281	C228	0.113700	0.530000	0.199760
C2291	C229	0.038100	0.578100	0.293240
C2301	C230	0.986000	0.622000	0.309250
C2311	C231	0.070600	0.540100	0.316790
H1021	H102	0.060300	0.542200	0.342000
C2321	C232	0.119300	0.498700	0.301840
O1531	O153	0.962600	0.623460	0.341640
O1541	O154	0.969200	0.658500	0.285950
C2331	C233	0.153900	0.456200	0.326450
C2341	C234	0.133700	0.496000	0.264860
H1031	H103	0.166000	0.468300	0.255400
O1551	O155	0.147300	0.462070	0.361290
O1561	O156	0.183400	0.416130	0.311560
H1041	H104	0.942000	0.686000	0.298000
Ag271	Ag27	0.432340	0.091360	0.158350
O1571	O157	0.645400	0.989420	0.185600
O1581	O158	0.590400	0.068820	0.181140
C2351	C235	0.600800	0.033700	0.240830
C2361	C236	0.553200	0.074900	0.255370
H1051	H105	0.531200	0.100500	0.239900
C2371	C237	0.613700	0.030000	0.199760
C2381	C238	0.538100	0.078100	0.293240
C2391	C239	0.486000	0.122000	0.309250
C2401	C240	0.570600	0.040100	0.316790
H1061	H106	0.560300	0.042200	0.342000
C2411	C241	0.619300	0.998700	0.301840
O1591	O159	0.462600	0.123460	0.341640
O1601	O160	0.469200	0.158500	0.285950
C2421	C242	0.653900	0.956200	0.326450
C2431	C243	0.633700	0.996000	0.264860
H1071	H107	0.666000	0.968300	0.255400
O1611	O161	0.647300	0.962070	0.361290
O1621	O162	0.683400	0.916130	0.311560
H1081	H108	0.442000	0.186000	0.298000
Ag281	Ag28	0.432340	0.591360	0.658350
O1631	O163	0.645400	0.489420	0.685600
O1641	O164	0.590400	0.568820	0.681140
C2441	C244	0.600800	0.533700	0.740830
C2451	C245	0.553200	0.574900	0.755370
H1091	H109	0.531200	0.600500	0.739900
C2461	C246	0.613700	0.530000	0.699760
C2471	C247	0.538100	0.578100	0.793240
C2481	C248	0.486000	0.622000	0.809250
C2491	C249	0.570600	0.540100	0.816790
H1101	H110	0.560300	0.542200	0.842000
C2501	C250	0.619300	0.498700	0.801840
O1651	O165	0.462600	0.623460	0.841640
O1661	O166	0.469200	0.658500	0.785950
C2511	C251	0.653900	0.456200	0.826450
C2521	C252	0.633700	0.496000	0.764860
H1111	H111	0.666000	0.468300	0.755400
O1671	O167	0.647300	0.462070	0.861290
O1681	O168	0.683400	0.416130	0.811560
H1121	H112	0.442000	0.686000	0.798000
Ag291	Ag29	0.317660	0.158640	0.658350
O1691	O169	0.104600	0.260580	0.685600
O1701	O170	0.159600	0.181180	0.681140
C2531	C253	0.149200	0.216300	0.740830
C2541	C254	0.196800	0.175100	0.755370
H1131	H113	0.218800	0.149500	0.739900
C2551	C255	0.136300	0.220000	0.699760
C2561	C256	0.211900	0.171900	0.793240
C2571	C257	0.264000	0.128000	0.809250
C2581	C258	0.179400	0.209900	0.816790
H1141	H114	0.189700	0.207800	0.842000
C2591	C259	0.130700	0.251300	0.801840
O1711	O171	0.287400	0.126540	0.841640
O1721	O172	0.280800	0.091500	0.785950
C2601	C260	0.096100	0.293800	0.826450
C2611	C261	0.116300	0.254000	0.764860
H1151	H115	0.084000	0.281700	0.755400
O1731	O173	0.102700	0.287930	0.861290
O1741	O174	0.066600	0.333870	0.811560
H1161	H116	0.308000	0.064000	0.798000
Ag301	Ag30	0.317660	0.658640	0.158350
O1751	O175	0.104600	0.760580	0.185600
O1761	O176	0.159600	0.681180	0.181140
C2621	C262	0.149200	0.716300	0.240830
C2631	C263	0.196800	0.675100	0.255370
H1171	H117	0.218800	0.649500	0.239900
C2641	C264	0.136300	0.720000	0.199760
C2651	C265	0.211900	0.671900	0.293240
C2661	C266	0.264000	0.628000	0.309250
C2671	C267	0.179400	0.709900	0.316790
H1181	H118	0.189700	0.707800	0.342000
C2681	C268	0.130700	0.751300	0.301840
O1771	O177	0.287400	0.626540	0.341640
O1781	O178	0.280800	0.591500	0.285950
C2691	C269	0.096100	0.793800	0.326450
C2701	C270	0.116300	0.754000	0.264860
H1191	H119	0.084000	0.781700	0.255400
O1791	O179	0.102700	0.787930	0.361290
O1801	O180	0.066600	0.833870	0.311560
H1201	H120	0.308000	0.564000	0.298000
Ag311	Ag31	0.817660	0.158640	0.158350
O1811	O181	0.604600	0.260580	0.185600
O1821	O182	0.659600	0.181180	0.181140
C2711	C271	0.649200	0.216300	0.240830
C2721	C272	0.696800	0.175100	0.255370
H1211	H121	0.718800	0.149500	0.239900
C2731	C273	0.636300	0.220000	0.199760
C2741	C274	0.711900	0.171900	0.293240
C2751	C275	0.764000	0.128000	0.309250
C2761	C276	0.679400	0.209900	0.316790
H1221	H122	0.689700	0.207800	0.342000
C2771	C277	0.630700	0.251300	0.301840
O1831	O183	0.787400	0.126540	0.341640
O1841	O184	0.780800	0.091500	0.285950
C2781	C278	0.596100	0.293800	0.326450
C2791	C279	0.616300	0.254000	0.264860
H1231	H123	0.584000	0.281700	0.255400
O1851	O185	0.602700	0.287930	0.361290
O1861	O186	0.566600	0.333870	0.311560
H1241	H124	0.808000	0.064000	0.298000
Ag321	Ag32	0.817660	0.658640	0.658350
O1871	O187	0.604600	0.760580	0.685600
O1881	O188	0.659600	0.681180	0.681140
C2801	C280	0.649200	0.716300	0.740830
C2811	C281	0.696800	0.675100	0.755370
H1251	H125	0.718800	0.649500	0.739900
C2821	C282	0.636300	0.720000	0.699760
C2831	C283	0.711900	0.671900	0.793240
C2841	C284	0.764000	0.628000	0.809250
C2851	C285	0.679400	0.709900	0.816790
H1261	H126	0.689700	0.707800	0.842000
C2861	C286	0.630700	0.751300	0.801840
O1891	O189	0.787400	0.626540	0.841640
O1901	O190	0.780800	0.591500	0.785950
C2871	C287	0.596100	0.793800	0.826450
C2881	C288	0.616300	0.754000	0.764860
H1271	H127	0.584000	0.781700	0.755400
O1911	O191	0.602700	0.787930	0.861290
O1921	O192	0.566600	0.833870	0.811560
H1281	H128	0.808000	0.564000	0.798000
Ag331	Ag33	0.875000	0.934620	0.375000
Ag341	Ag34	0.875000	0.434620	0.875000
Ag351	Ag35	0.375000	0.934620	0.875000
Ag361	Ag36	0.375000	0.434620	0.375000
Ag371	Ag37	0.875000	0.815380	0.375000
Ag381	Ag38	0.875000	0.315380	0.875000
Ag391	Ag39	0.375000	0.815380	0.875000
Ag401	Ag40	0.375000	0.315380	0.375000
Ag411	Ag41	0.125000	0.065380	0.625000
Ag421	Ag42	0.125000	0.565380	0.125000
Ag431	Ag43	0.625000	0.065380	0.125000
Ag441	Ag44	0.625000	0.565380	0.625000
Ag451	Ag45	0.125000	0.184620	0.625000
Ag461	Ag46	0.125000	0.684620	0.125000
Ag471	Ag47	0.625000	0.184620	0.125000
Ag481	Ag48	0.625000	0.684620	0.625000
