data_UFASEA_ion_b_PM
_symmetry_space_group_name_H-M	'P1'
_cell_length_a	19.374000
_cell_length_b	14.887400
_cell_length_c	15.372100
_cell_angle_alpha	90.000000
_cell_angle_beta	111.753000
_cell_angle_gamma	90.000000
_symmetry_Int_Tables_number 1

loop_
_symmetry_equiv_pos_as_xyz
'x,y,z'

loop_
_atom_site_label
_atom_site_type_symbol
_atom_site_fract_x
_atom_site_fract_y
_atom_site_fract_z
Cd11	Cd1	0.818090	0.086630	0.178340
Cd21	Cd2	0.819360	0.316360	0.544570
Cd31	Cd3	0.180330	0.181170	0.745320
Cd41	Cd4	0.815540	0.419390	0.113640
C61	C6	0.825200	0.099500	0.556000
C71	C7	0.819600	0.123500	0.461900
C81	C8	0.813800	0.077500	0.381400
C91	C9	0.816800	0.981000	0.357900
C101	C10	0.807600	0.218700	0.349900
H111	H11	0.803200	0.273700	0.316800
C121	C12	0.828800	0.398800	0.747500
C131	C13	0.823200	0.374700	0.837200
C141	C14	0.820500	0.423500	0.913900
C151	C15	0.822400	0.519700	0.936700
C161	C16	0.813900	0.281700	0.939400
H171	H17	0.811200	0.227000	0.970000
C181	C18	0.904900	0.272300	0.195100
C191	C19	0.959400	0.205400	0.227800
C201	C20	0.660600	0.369200	0.559600
H211	H21	0.694700	0.384500	0.620400
C221	C22	0.586400	0.385000	0.540700
H231	H23	0.570500	0.413000	0.585600
C241	C24	0.536900	0.359400	0.456200
C251	C25	0.560500	0.318400	0.395000
H261	H26	0.526300	0.296400	0.337000
C271	C27	0.637100	0.308800	0.418900
H281	H28	0.654300	0.282100	0.374500
C291	C29	0.455300	0.372200	0.434600
C301	C30	0.428200	0.367700	0.509100
H311	H31	0.461000	0.356600	0.571600
C321	C32	0.351900	0.380300	0.487500
H331	H33	0.333600	0.375700	0.536800
C341	C34	0.331100	0.402200	0.332100
H351	H35	0.296700	0.412800	0.270300
C361	C36	0.404700	0.391600	0.345500
H371	H37	0.420700	0.397600	0.294500
C381	C38	0.362700	0.195700	0.791200
H391	H39	0.345000	0.226500	0.732900
C401	C40	0.439800	0.184500	0.835200
H411	H41	0.473000	0.205100	0.807100
C421	C42	0.465200	0.142400	0.921200
C431	C43	0.413000	0.112100	0.955800
H441	H44	0.429300	0.083000	0.015000
C451	C45	0.339000	0.122900	0.907000
H461	H46	0.304500	0.099000	0.931600
C471	C47	0.546300	0.131400	0.974500
C481	C48	0.596400	0.113200	0.935700
H491	H49	0.579800	0.108400	0.869400
C501	C50	0.669600	0.101500	0.986700
H511	H51	0.702500	0.088400	0.955400
C521	C52	0.647300	0.125700	0.120000
H531	H53	0.665200	0.130900	0.186300
C541	C54	0.574000	0.136600	0.072500
H551	H55	0.541500	0.147800	0.104900
N561	N56	0.814700	0.215800	0.437900
N571	N57	0.806900	0.139400	0.309900
N581	N58	0.818500	0.285100	0.856200
N591	N59	0.813400	0.363900	0.977300
N601	N60	0.936400	0.120900	0.216500
N611	N61	0.687800	0.335400	0.501700
N621	N62	0.304600	0.398200	0.402900
N631	N63	0.313500	0.167200	0.823900
N641	N64	0.696800	0.108000	0.080500
O651	O65	0.828300	0.019200	0.577800
O661	O66	0.828100	0.164600	0.611000
O671	O67	0.816400	0.920400	0.409400
O681	O68	0.819800	0.967200	0.277600
O691	O69	0.828900	0.333900	0.694400
O701	O70	0.834800	0.480000	0.728800
O711	O71	0.825900	0.579900	0.886600
O721	O72	0.822500	0.536200	0.018700
O731	O73	0.838900	0.251400	0.157400
O741	O74	0.922800	0.356500	0.201900
Cd831	Cd83	0.181910	0.086630	0.321660
Cd841	Cd84	0.180640	0.316360	0.955430
Cd851	Cd85	0.819670	0.181170	0.754680
Cd861	Cd86	0.184460	0.419390	0.386360
C881	C88	0.174800	0.099500	0.944000
C891	C89	0.180400	0.123500	0.038100
C901	C90	0.186200	0.077500	0.118600
C911	C91	0.183200	0.981000	0.142100
C921	C92	0.192400	0.218700	0.150100
H931	H93	0.196800	0.273700	0.183200
C941	C94	0.171200	0.398800	0.752500
C951	C95	0.176800	0.374700	0.662800
C961	C96	0.179500	0.423500	0.586100
C971	C97	0.177600	0.519700	0.563300
C981	C98	0.186100	0.281700	0.560600
H991	H99	0.188800	0.227000	0.530000
C1001	C100	0.095100	0.272300	0.304900
C1011	C101	0.040600	0.205400	0.272200
C1021	C102	0.339400	0.369200	0.940400
H1031	H103	0.305300	0.384500	0.879600
C1041	C104	0.413600	0.385000	0.959300
H1051	H105	0.429500	0.413000	0.914400
C1061	C106	0.463100	0.359400	0.043800
C1071	C107	0.439500	0.318400	0.105000
H1081	H108	0.473700	0.296400	0.163000
C1091	C109	0.362900	0.308800	0.081100
H1101	H110	0.345700	0.282100	0.125500
C1111	C111	0.544700	0.372200	0.065400
C1121	C112	0.571800	0.367700	0.990900
H1131	H113	0.539000	0.356600	0.928400
C1141	C114	0.648100	0.380300	0.012500
H1151	H115	0.666400	0.375700	0.963200
C1161	C116	0.668900	0.402200	0.167900
H1171	H117	0.703300	0.412800	0.229700
C1181	C118	0.595300	0.391600	0.154500
H1191	H119	0.579300	0.397600	0.205500
C1201	C120	0.637300	0.195700	0.708800
H1211	H121	0.655000	0.226500	0.767100
C1221	C122	0.560200	0.184500	0.664800
H1231	H123	0.527000	0.205100	0.692900
C1241	C124	0.534800	0.142400	0.578800
C1251	C125	0.587000	0.112100	0.544200
H1261	H126	0.570700	0.083000	0.485000
C1271	C127	0.661000	0.122900	0.593000
H1281	H128	0.695500	0.099000	0.568400
C1291	C129	0.453700	0.131400	0.525500
C1301	C130	0.403600	0.113200	0.564300
H1311	H131	0.420200	0.108400	0.630600
C1321	C132	0.330400	0.101500	0.513300
H1331	H133	0.297500	0.088400	0.544600
C1341	C134	0.352700	0.125700	0.380000
H1351	H135	0.334800	0.130900	0.313700
C1361	C136	0.426000	0.136600	0.427500
H1371	H137	0.458500	0.147800	0.395100
N1381	N138	0.185300	0.215800	0.062100
N1391	N139	0.193100	0.139400	0.190100
N1401	N140	0.181500	0.285100	0.643800
N1411	N141	0.186600	0.363900	0.522700
N1421	N142	0.063600	0.120900	0.283500
N1431	N143	0.312200	0.335400	0.998300
N1441	N144	0.695400	0.398200	0.097100
N1451	N145	0.686500	0.167200	0.676100
N1461	N146	0.303200	0.108000	0.419500
O1471	O147	0.171700	0.019200	0.922200
O1481	O148	0.171900	0.164600	0.889000
O1491	O149	0.183600	0.920400	0.090600
O1501	O150	0.180200	0.967200	0.222400
O1511	O151	0.171100	0.333900	0.805600
O1521	O152	0.165200	0.480000	0.771200
O1531	O153	0.174100	0.579900	0.613400
O1541	O154	0.177500	0.536200	0.481300
O1551	O155	0.161100	0.251400	0.342600
O1561	O156	0.077200	0.356500	0.298100
Cd1651	Cd165	0.181910	0.913370	0.821660
Cd1661	Cd166	0.180640	0.683640	0.455430
Cd1671	Cd167	0.819670	0.818830	0.254680
Cd1681	Cd168	0.184460	0.580610	0.886360
C1701	C170	0.174800	0.900500	0.444000
C1711	C171	0.180400	0.876500	0.538100
C1721	C172	0.186200	0.922500	0.618600
C1731	C173	0.183200	0.019000	0.642100
C1741	C174	0.192400	0.781300	0.650100
H1751	H175	0.196800	0.726300	0.683200
C1761	C176	0.171200	0.601200	0.252500
C1771	C177	0.176800	0.625300	0.162800
C1781	C178	0.179500	0.576500	0.086100
C1791	C179	0.177600	0.480300	0.063300
C1801	C180	0.186100	0.718300	0.060600
H1811	H181	0.188800	0.773000	0.030000
C1821	C182	0.095100	0.727700	0.804900
C1831	C183	0.040600	0.794600	0.772200
C1841	C184	0.339400	0.630800	0.440400
H1851	H185	0.305300	0.615500	0.379600
C1861	C186	0.413600	0.615000	0.459300
H1871	H187	0.429500	0.587000	0.414400
C1881	C188	0.463100	0.640600	0.543800
C1891	C189	0.439500	0.681600	0.605000
H1901	H190	0.473700	0.703600	0.663000
C1911	C191	0.362900	0.691200	0.581100
H1921	H192	0.345700	0.717900	0.625500
C1931	C193	0.544700	0.627800	0.565400
C1941	C194	0.571800	0.632300	0.490900
H1951	H195	0.539000	0.643400	0.428400
C1961	C196	0.648100	0.619700	0.512500
H1971	H197	0.666400	0.624300	0.463200
C1981	C198	0.668900	0.597800	0.667900
H1991	H199	0.703300	0.587200	0.729700
C2001	C200	0.595300	0.608400	0.654500
H2011	H201	0.579300	0.602400	0.705500
C2021	C202	0.637300	0.804300	0.208800
H2031	H203	0.655000	0.773500	0.267100
C2041	C204	0.560200	0.815500	0.164800
H2051	H205	0.527000	0.794900	0.192900
C2061	C206	0.534800	0.857600	0.078800
C2071	C207	0.587000	0.887900	0.044200
H2081	H208	0.570700	0.917000	0.985000
C2091	C209	0.661000	0.877100	0.093000
H2101	H210	0.695500	0.901000	0.068400
C2111	C211	0.453700	0.868600	0.025500
C2121	C212	0.403600	0.886800	0.064300
H2131	H213	0.420200	0.891600	0.130600
C2141	C214	0.330400	0.898500	0.013300
H2151	H215	0.297500	0.911600	0.044600
C2161	C216	0.352700	0.874300	0.880000
H2171	H217	0.334800	0.869100	0.813700
C2181	C218	0.426000	0.863400	0.927500
H2191	H219	0.458500	0.852200	0.895100
N2201	N220	0.185300	0.784200	0.562100
N2211	N221	0.193100	0.860600	0.690100
N2221	N222	0.181500	0.714900	0.143800
N2231	N223	0.186600	0.636100	0.022700
N2241	N224	0.063600	0.879100	0.783500
N2251	N225	0.312200	0.664600	0.498300
N2261	N226	0.695400	0.601800	0.597100
N2271	N227	0.686500	0.832800	0.176100
N2281	N228	0.303200	0.892000	0.919500
O2291	O229	0.171700	0.980800	0.422200
O2301	O230	0.171900	0.835400	0.389000
O2311	O231	0.183600	0.079600	0.590600
O2321	O232	0.180200	0.032800	0.722400
O2331	O233	0.171100	0.666100	0.305600
O2341	O234	0.165200	0.520000	0.271200
O2351	O235	0.174100	0.420100	0.113400
O2361	O236	0.177500	0.463800	0.981300
O2371	O237	0.161100	0.748600	0.842600
O2381	O238	0.077200	0.643500	0.798100
Cd2471	Cd247	0.818090	0.913370	0.678340
Cd2481	Cd248	0.819360	0.683640	0.044570
Cd2491	Cd249	0.180330	0.818830	0.245320
Cd2501	Cd250	0.815540	0.580610	0.613640
C2521	C252	0.825200	0.900500	0.056000
C2531	C253	0.819600	0.876500	0.961900
C2541	C254	0.813800	0.922500	0.881400
C2551	C255	0.816800	0.019000	0.857900
C2561	C256	0.807600	0.781300	0.849900
H2571	H257	0.803200	0.726300	0.816800
C2581	C258	0.828800	0.601200	0.247500
C2591	C259	0.823200	0.625300	0.337200
C2601	C260	0.820500	0.576500	0.413900
C2611	C261	0.822400	0.480300	0.436700
C2621	C262	0.813900	0.718300	0.439400
H2631	H263	0.811200	0.773000	0.470000
C2641	C264	0.904900	0.727700	0.695100
C2651	C265	0.959400	0.794600	0.727800
C2661	C266	0.660600	0.630800	0.059600
H2671	H267	0.694700	0.615500	0.120400
C2681	C268	0.586400	0.615000	0.040700
H2691	H269	0.570500	0.587000	0.085600
C2701	C270	0.536900	0.640600	0.956200
C2711	C271	0.560500	0.681600	0.895000
H2721	H272	0.526300	0.703600	0.837000
C2731	C273	0.637100	0.691200	0.918900
H2741	H274	0.654300	0.717900	0.874500
C2751	C275	0.455300	0.627800	0.934600
C2761	C276	0.428200	0.632300	0.009100
H2771	H277	0.461000	0.643400	0.071600
C2781	C278	0.351900	0.619700	0.987500
H2791	H279	0.333600	0.624300	0.036800
C2801	C280	0.331100	0.597800	0.832100
H2811	H281	0.296700	0.587200	0.770300
C2821	C282	0.404700	0.608400	0.845500
H2831	H283	0.420700	0.602400	0.794500
C2841	C284	0.362700	0.804300	0.291200
H2851	H285	0.345000	0.773500	0.232900
C2861	C286	0.439800	0.815500	0.335200
H2871	H287	0.473000	0.794900	0.307100
C2881	C288	0.465200	0.857600	0.421200
C2891	C289	0.413000	0.887900	0.455800
H2901	H290	0.429300	0.917000	0.515000
C2911	C291	0.339000	0.877100	0.407000
H2921	H292	0.304500	0.901000	0.431600
C2931	C293	0.546300	0.868600	0.474500
C2941	C294	0.596400	0.886800	0.435700
H2951	H295	0.579800	0.891600	0.369400
C2961	C296	0.669600	0.898500	0.486700
H2971	H297	0.702500	0.911600	0.455400
C2981	C298	0.647300	0.874300	0.620000
H2991	H299	0.665200	0.869100	0.686300
C3001	C300	0.574000	0.863400	0.572500
H3011	H301	0.541500	0.852200	0.604900
N3021	N302	0.814700	0.784200	0.937900
N3031	N303	0.806900	0.860600	0.809900
N3041	N304	0.818500	0.714900	0.356200
N3051	N305	0.813400	0.636100	0.477300
N3061	N306	0.936400	0.879100	0.716500
N3071	N307	0.687800	0.664600	0.001700
N3081	N308	0.304600	0.601800	0.902900
N3091	N309	0.313500	0.832800	0.323900
N3101	N310	0.696800	0.892000	0.580500
O3111	O311	0.828300	0.980800	0.077800
O3121	O312	0.828100	0.835400	0.111000
O3131	O313	0.816400	0.079600	0.909400
O3141	O314	0.819800	0.032800	0.777600
O3151	O315	0.828900	0.666100	0.194400
O3161	O316	0.834800	0.520000	0.228800
O3171	O317	0.825900	0.420100	0.386600
O3181	O318	0.822500	0.463800	0.518700
O3191	O319	0.838900	0.748600	0.657400
O3201	O320	0.922800	0.643500	0.701900
C3291	C329	0.000000	0.067900	0.250000
H3301	H330	0.000000	0.004100	0.250000
C3321	C332	0.000000	0.932100	0.750000
H3331	H333	0.000000	0.995900	0.750000
