data_UFENAW_clean_PM
_symmetry_space_group_name_H-M	'P1'
_cell_length_a	33.237000
_cell_length_b	9.719000
_cell_length_c	18.423000
_cell_angle_alpha	90.000000
_cell_angle_beta	90.538000
_cell_angle_gamma	90.000000
_symmetry_Int_Tables_number 1

loop_
_symmetry_equiv_pos_as_xyz
'x,y,z'

loop_
_atom_site_label
_atom_site_type_symbol
_atom_site_fract_x
_atom_site_fract_y
_atom_site_fract_z
Zn11	Zn1	0.362680	0.706200	0.279780
Zn21	Zn2	0.555340	0.793760	0.293220
Zn31	Zn3	0.458960	0.750600	0.289670
O11	O1	0.555800	0.704100	0.198400
O21	O2	0.364800	0.810600	0.376600
O31	O3	0.549700	0.336300	0.874200
O41	O4	0.369300	0.172000	0.697200
O51	O5	0.482200	0.325500	0.880900
O61	O6	0.436400	0.183300	0.689100
O71	O7	0.424400	0.879500	0.349600
O81	O8	0.112700	0.335500	0.302700
O91	O9	0.492600	0.621200	0.224600
O101	O10	0.307500	0.658900	0.256700
C11	C1	0.395900	0.870400	0.391100
C21	C2	0.522400	0.642400	0.184000
C31	C3	0.518100	0.432800	0.978300
C41	C4	0.401500	0.072000	0.599100
C51	C5	0.250500	0.533200	0.291000
C61	C6	0.169400	0.472000	0.276000
C71	C7	0.399000	0.933200	0.465300
C81	C8	0.401900	0.147000	0.666100
C91	C9	0.522200	0.562200	0.113000
C101	C10	0.293200	0.562200	0.300600
C111	C11	0.515400	0.360100	0.904500
C121	C12	0.123900	0.427000	0.276000
O111	O11	0.315400	0.485500	0.336300
C131	C13	0.485800	0.493000	0.088600
C141	C14	0.432200	0.992000	0.482900
C151	C15	0.551500	0.498300	0.996800
C161	C16	0.365300	0.010000	0.572700
C171	C17	0.484700	0.444000	0.019100
O121	O12	0.102800	0.486400	0.226000
C181	C18	0.367300	0.947000	0.507100
C191	C19	0.435700	0.067100	0.552300
C201	C20	0.556600	0.569000	0.066800
C211	C21	0.236400	0.399000	0.312000
C221	C22	0.182900	0.593000	0.258900
C231	C23	0.193000	0.366000	0.310000
C241	C24	0.220700	0.624000	0.270800
Zn41	Zn4	0.862680	0.206200	0.279780
Zn51	Zn5	0.055340	0.293760	0.293220
Zn61	Zn6	0.958960	0.250600	0.289670
O131	O13	0.055800	0.204100	0.198400
O141	O14	0.864800	0.310600	0.376600
O151	O15	0.049700	0.836300	0.874200
O161	O16	0.869300	0.672000	0.697200
O171	O17	0.982200	0.825500	0.880900
O181	O18	0.936400	0.683300	0.689100
O191	O19	0.924400	0.379500	0.349600
O201	O20	0.612700	0.835500	0.302700
O211	O21	0.992600	0.121200	0.224600
O221	O22	0.807500	0.158900	0.256700
C251	C25	0.895900	0.370400	0.391100
C261	C26	0.022400	0.142400	0.184000
C271	C27	0.018100	0.932800	0.978300
C281	C28	0.901500	0.572000	0.599100
C291	C29	0.750500	0.033200	0.291000
C301	C30	0.669400	0.972000	0.276000
C311	C31	0.899000	0.433200	0.465300
C321	C32	0.901900	0.647000	0.666100
C331	C33	0.022200	0.062200	0.113000
C341	C34	0.793200	0.062200	0.300600
C351	C35	0.015400	0.860100	0.904500
C361	C36	0.623900	0.927000	0.276000
O231	O23	0.815400	0.985500	0.336300
C371	C37	0.985800	0.993000	0.088600
C381	C38	0.932200	0.492000	0.482900
C391	C39	0.051500	0.998300	0.996800
C401	C40	0.865300	0.510000	0.572700
C411	C41	0.984700	0.944000	0.019100
O241	O24	0.602800	0.986400	0.226000
C421	C42	0.867300	0.447000	0.507100
C431	C43	0.935700	0.567100	0.552300
C441	C44	0.056600	0.069000	0.066800
C451	C45	0.736400	0.899000	0.312000
C461	C46	0.682900	0.093000	0.258900
C471	C47	0.693000	0.866000	0.310000
C481	C48	0.720700	0.124000	0.270800
Zn71	Zn7	0.362680	0.293800	0.779780
Zn81	Zn8	0.555340	0.206240	0.793220
Zn91	Zn9	0.458960	0.249400	0.789670
O251	O25	0.555800	0.295900	0.698400
O261	O26	0.364800	0.189400	0.876600
O271	O27	0.549700	0.663700	0.374200
O281	O28	0.369300	0.828000	0.197200
O291	O29	0.482200	0.674500	0.380900
O301	O30	0.436400	0.816700	0.189100
O311	O31	0.424400	0.120500	0.849600
O321	O32	0.112700	0.664500	0.802700
O331	O33	0.492600	0.378800	0.724600
O341	O34	0.307500	0.341100	0.756700
C491	C49	0.395900	0.129600	0.891100
C501	C50	0.522400	0.357600	0.684000
C511	C51	0.518100	0.567200	0.478300
C521	C52	0.401500	0.928000	0.099100
C531	C53	0.250500	0.466800	0.791000
C541	C54	0.169400	0.528000	0.776000
C551	C55	0.399000	0.066800	0.965300
C561	C56	0.401900	0.853000	0.166100
C571	C57	0.522200	0.437800	0.613000
C581	C58	0.293200	0.437800	0.800600
C591	C59	0.515400	0.639900	0.404500
C601	C60	0.123900	0.573000	0.776000
O351	O35	0.315400	0.514500	0.836300
C611	C61	0.485800	0.507000	0.588600
C621	C62	0.432200	0.008000	0.982900
C631	C63	0.551500	0.501700	0.496800
C641	C64	0.365300	0.990000	0.072700
C651	C65	0.484700	0.556000	0.519100
O361	O36	0.102800	0.513600	0.726000
C661	C66	0.367300	0.053000	0.007100
C671	C67	0.435700	0.932900	0.052300
C681	C68	0.556600	0.431000	0.566800
C691	C69	0.236400	0.601000	0.812000
C701	C70	0.182900	0.407000	0.758900
C711	C71	0.193000	0.634000	0.810000
C721	C72	0.220700	0.376000	0.770800
Zn101	Zn10	0.862680	0.793800	0.779780
Zn111	Zn11	0.055340	0.706240	0.793220
Zn121	Zn12	0.958960	0.749400	0.789670
O371	O37	0.055800	0.795900	0.698400
O381	O38	0.864800	0.689400	0.876600
O391	O39	0.049700	0.163700	0.374200
O401	O40	0.869300	0.328000	0.197200
O411	O41	0.982200	0.174500	0.380900
O421	O42	0.936400	0.316700	0.189100
O431	O43	0.924400	0.620500	0.849600
O441	O44	0.612700	0.164500	0.802700
O451	O45	0.992600	0.878800	0.724600
O461	O46	0.807500	0.841100	0.756700
C731	C73	0.895900	0.629600	0.891100
C741	C74	0.022400	0.857600	0.684000
C751	C75	0.018100	0.067200	0.478300
C761	C76	0.901500	0.428000	0.099100
C771	C77	0.750500	0.966800	0.791000
C781	C78	0.669400	0.028000	0.776000
C791	C79	0.899000	0.566800	0.965300
C801	C80	0.901900	0.353000	0.166100
C811	C81	0.022200	0.937800	0.613000
C821	C82	0.793200	0.937800	0.800600
C831	C83	0.015400	0.139900	0.404500
C841	C84	0.623900	0.073000	0.776000
O471	O47	0.815400	0.014500	0.836300
C851	C85	0.985800	0.007000	0.588600
C861	C86	0.932200	0.508000	0.982900
C871	C87	0.051500	0.001700	0.496800
C881	C88	0.865300	0.490000	0.072700
C891	C89	0.984700	0.056000	0.519100
O481	O48	0.602800	0.013600	0.726000
C901	C90	0.867300	0.553000	0.007100
C911	C91	0.935700	0.432900	0.052300
C921	C92	0.056600	0.931000	0.566800
C931	C93	0.736400	0.101000	0.812000
C941	C94	0.682900	0.907000	0.758900
C951	C95	0.693000	0.134000	0.810000
C961	C96	0.720700	0.876000	0.770800
