data_UFENEZ_clean_PM
_symmetry_space_group_name_H-M	'P1'
_cell_length_a	8.195300
_cell_length_b	7.557700
_cell_length_c	13.459300
_cell_angle_alpha	90.000000
_cell_angle_beta	90.000000
_cell_angle_gamma	90.000000
_symmetry_Int_Tables_number 1

loop_
_symmetry_equiv_pos_as_xyz
'x,y,z'

loop_
_atom_site_label
_atom_site_type_symbol
_atom_site_fract_x
_atom_site_fract_y
_atom_site_fract_z
Cu11	Cu1	0.056340	0.097570	0.565300
N11	N1	0.251400	0.246800	0.538100
C11	C1	0.858100	0.166800	0.484000
C21	C2	0.015000	0.081700	0.708500
Cu21	Cu2	0.443660	0.402430	0.065300
N21	N2	0.248600	0.253200	0.038100
C31	C3	0.641900	0.333200	0.984000
C41	C4	0.485000	0.418300	0.208500
Cu31	Cu3	0.943660	0.097570	0.934700
N31	N3	0.748600	0.246800	0.961900
C51	C5	0.141900	0.166800	0.016000
C61	C6	0.985000	0.081700	0.791500
Cu41	Cu4	0.556340	0.402430	0.434700
N41	N4	0.751400	0.253200	0.461900
C71	C7	0.358100	0.333200	0.516000
C81	C8	0.515000	0.418300	0.291500
Cu51	Cu5	0.943660	0.902430	0.434700
N51	N5	0.748600	0.753200	0.461900
C91	C9	0.141900	0.833200	0.516000
C101	C10	0.985000	0.918300	0.291500
Cu61	Cu6	0.556340	0.597570	0.934700
N61	N6	0.751400	0.746800	0.961900
C111	C11	0.358100	0.666800	0.016000
C121	C12	0.515000	0.581700	0.791500
Cu71	Cu7	0.056340	0.902430	0.065300
N71	N7	0.251400	0.753200	0.038100
C131	C13	0.858100	0.833200	0.984000
C141	C14	0.015000	0.918300	0.208500
Cu81	Cu8	0.443660	0.597570	0.565300
N81	N8	0.248600	0.746800	0.538100
C151	C15	0.641900	0.666800	0.484000
C161	C16	0.485000	0.581700	0.708500
