data_UFEXEJ_clean_PM
_symmetry_space_group_name_H-M	'P1'
_cell_length_a	7.001200
_cell_length_b	16.002000
_cell_length_c	16.002000
_cell_angle_alpha	62.089200
_cell_angle_beta	81.614100
_cell_angle_gamma	98.385900
_symmetry_Int_Tables_number 1

loop_
_symmetry_equiv_pos_as_xyz
'x,y,z'

loop_
_atom_site_label
_atom_site_type_symbol
_atom_site_fract_x
_atom_site_fract_y
_atom_site_fract_z
Dy11	Dy1	0.288980	0.064360	0.846840
Dy21	Dy2	0.135820	0.846840	0.088800
Dy31	Dy3	0.224620	0.088800	0.064360
Dy41	Dy4	0.711020	0.935640	0.153160
Dy51	Dy5	0.864180	0.153160	0.911200
Dy61	Dy6	0.775380	0.911200	0.935640
Cu11	Cu1	0.500000	0.000000	0.500000
Cu21	Cu2	0.000000	0.500000	0.500000
Cu31	Cu3	0.500000	0.500000	0.000000
H11	H1	0.845400	0.911200	0.577100
H21	H2	0.956000	0.875100	0.715600
H31	H3	0.422500	0.577100	0.511700
H41	H4	0.671600	0.715600	0.409300
H51	H5	0.934200	0.511700	0.911200
H61	H6	0.080900	0.409300	0.875100
H71	H7	0.154600	0.088800	0.422900
H81	H8	0.044000	0.124900	0.284400
H91	H9	0.577500	0.422900	0.488300
H101	H10	0.328400	0.284400	0.590700
H111	H11	0.065800	0.488300	0.088800
H121	H12	0.919100	0.590700	0.124900
C11	C1	0.614500	0.970100	0.756600
C21	C2	0.541100	0.987400	0.673700
C31	C3	0.782800	0.924800	0.623100
C41	C4	0.850400	0.904800	0.705400
C51	C5	0.367500	0.030300	0.648800
C61	C6	0.371100	0.756600	0.273300
C71	C7	0.214800	0.673700	0.338900
C81	C8	0.405900	0.623100	0.452100
C91	C9	0.555800	0.705400	0.389800
C101	C10	0.016300	0.648800	0.320900
C111	C11	0.644400	0.273300	0.970100
C121	C12	0.553700	0.338900	0.987400
C131	C13	0.858000	0.452100	0.924800
C141	C14	0.945600	0.389800	0.904800
C151	C15	0.337200	0.320900	0.030300
C161	C16	0.385500	0.029900	0.243400
C171	C17	0.458900	0.012600	0.326300
C181	C18	0.217200	0.075200	0.376900
C191	C19	0.149600	0.095200	0.294600
C201	C20	0.632500	0.969700	0.351200
C211	C21	0.628900	0.243400	0.726700
C221	C22	0.785200	0.326300	0.661100
C231	C23	0.594100	0.376900	0.547900
C241	C24	0.444200	0.294600	0.610200
C251	C25	0.983700	0.351200	0.679100
C261	C26	0.355600	0.726700	0.029900
C271	C27	0.446300	0.661100	0.012600
C281	C28	0.142000	0.547900	0.075200
C291	C29	0.054400	0.610200	0.095200
C301	C30	0.662800	0.679100	0.969700
N11	N1	0.769500	0.926700	0.770800
N21	N2	0.626600	0.964100	0.609900
N31	N3	0.540300	0.770800	0.302500
N41	N4	0.236500	0.609900	0.426000
N51	N5	0.842800	0.302500	0.926700
N61	N6	0.662500	0.426000	0.964100
N71	N7	0.230500	0.073300	0.229200
N81	N8	0.373400	0.035900	0.390100
N91	N9	0.459700	0.229200	0.697500
N101	N10	0.763500	0.390100	0.574000
N111	N11	0.157200	0.697500	0.073300
N121	N12	0.337500	0.574000	0.035900
O11	O1	0.548280	0.991130	0.821490
O21	O2	0.271990	0.051070	0.705000
O31	O3	0.324170	0.040370	0.571360
O41	O4	0.106760	0.901300	0.923720
O51	O5	0.369770	0.821490	0.187380
O61	O6	0.976990	0.705000	0.243930
O71	O7	0.895530	0.571360	0.388270
O81	O8	0.030480	0.923720	0.174980
O91	O9	0.557150	0.187380	0.991130
O101	O10	0.220920	0.243930	0.051070
O111	O11	0.283800	0.388270	0.040370
O121	O12	0.205460	0.174980	0.901300
O131	O13	0.451720	0.008870	0.178510
O141	O14	0.728010	0.948930	0.295000
O151	O15	0.675830	0.959630	0.428640
O161	O16	0.893240	0.098700	0.076280
O171	O17	0.630230	0.178510	0.812620
O181	O18	0.023010	0.295000	0.756070
O191	O19	0.104470	0.428640	0.611730
O201	O20	0.969520	0.076280	0.825020
O211	O21	0.442850	0.812620	0.008870
O221	O22	0.779080	0.756070	0.948930
O231	O23	0.716200	0.611730	0.959630
O241	O24	0.794540	0.825020	0.098700
O251	O25	0.319230	0.000000	0.000000
O261	O26	0.680770	0.000000	0.000000
O271	O27	0.000000	0.000000	0.000000
