data_UFEXIN_clean_PM
_symmetry_space_group_name_H-M	'P1'
_cell_length_a	6.981600
_cell_length_b	15.966900
_cell_length_c	15.966900
_cell_angle_alpha	62.086700
_cell_angle_beta	81.619200
_cell_angle_gamma	98.380800
_symmetry_Int_Tables_number 1

loop_
_symmetry_equiv_pos_as_xyz
'x,y,z'

loop_
_atom_site_label
_atom_site_type_symbol
_atom_site_fract_x
_atom_site_fract_y
_atom_site_fract_z
Ho11	Ho1	0.289150	0.064310	0.847040
Ho21	Ho2	0.136190	0.847040	0.088650
Ho31	Ho3	0.224840	0.088650	0.064310
Ho41	Ho4	0.710850	0.935690	0.152960
Ho51	Ho5	0.863810	0.152960	0.911350
Ho61	Ho6	0.775160	0.911350	0.935690
Cu11	Cu1	0.500000	0.000000	0.500000
Cu21	Cu2	0.000000	0.500000	0.500000
Cu31	Cu3	0.500000	0.500000	0.000000
H11	H1	0.845800	0.910000	0.577800
H21	H2	0.958800	0.875500	0.716100
H31	H3	0.423600	0.577800	0.512200
H41	H4	0.674900	0.716100	0.408400
H51	H5	0.935800	0.512200	0.910000
H61	H6	0.083300	0.408400	0.875500
H71	H7	0.154200	0.090000	0.422200
H81	H8	0.041200	0.124500	0.283900
H91	H9	0.576400	0.422200	0.487800
H101	H10	0.325100	0.283900	0.591600
H111	H11	0.064200	0.487800	0.090000
H121	H12	0.916700	0.591600	0.124500
C11	C1	0.614500	0.969900	0.757400
C21	C2	0.540600	0.987000	0.674300
C31	C3	0.783600	0.924200	0.623500
C41	C4	0.851900	0.904500	0.706100
C51	C5	0.366500	0.029000	0.650000
C61	C6	0.371900	0.757400	0.272700
C71	C7	0.214900	0.674300	0.338700
C81	C8	0.407100	0.623500	0.452300
C91	C9	0.558000	0.706100	0.389400
C101	C10	0.016500	0.650000	0.321000
C111	C11	0.644600	0.272700	0.969900
C121	C12	0.553600	0.338700	0.987000
C131	C13	0.859400	0.452300	0.924200
C141	C14	0.947400	0.389400	0.904500
C151	C15	0.337500	0.321000	0.029000
C161	C16	0.385500	0.030100	0.242600
C171	C17	0.459400	0.013000	0.325700
C181	C18	0.216400	0.075800	0.376500
C191	C19	0.148100	0.095500	0.293900
C201	C20	0.633500	0.971000	0.350000
C211	C21	0.628100	0.242600	0.727300
C221	C22	0.785100	0.325700	0.661300
C231	C23	0.592900	0.376500	0.547700
C241	C24	0.442000	0.293900	0.610600
C251	C25	0.983500	0.350000	0.679000
C261	C26	0.355400	0.727300	0.030100
C271	C27	0.446400	0.661300	0.013000
C281	C28	0.140600	0.547700	0.075800
C291	C29	0.052600	0.610600	0.095500
C301	C30	0.662500	0.679000	0.971000
N11	N1	0.769260	0.926060	0.771880
N21	N2	0.627600	0.963700	0.610200
N31	N3	0.541140	0.771880	0.302060
N41	N4	0.237800	0.610200	0.426100
N51	N5	0.843200	0.302060	0.926060
N61	N6	0.663900	0.426100	0.963700
N71	N7	0.230740	0.073940	0.228120
N81	N8	0.372400	0.036300	0.389800
N91	N9	0.458860	0.228120	0.697940
N101	N10	0.762200	0.389800	0.573900
N111	N11	0.156800	0.697940	0.073940
N121	N12	0.336100	0.573900	0.036300
O11	O1	0.547810	0.991160	0.822730
O21	O2	0.270460	0.050820	0.705540
O31	O3	0.323500	0.040900	0.571300
O41	O4	0.204060	0.173340	0.901860
O51	O5	0.370540	0.822730	0.186110
O61	O6	0.976000	0.705540	0.243640
O71	O7	0.894800	0.571300	0.387800
O81	O8	0.105920	0.901860	0.924800
O91	O9	0.556650	0.186110	0.991160
O101	O10	0.219640	0.243640	0.050820
O111	O11	0.282600	0.387800	0.040900
O121	O12	0.030720	0.924800	0.173340
O131	O13	0.452190	0.008840	0.177270
O141	O14	0.729540	0.949180	0.294460
O151	O15	0.676500	0.959100	0.428700
O161	O16	0.795940	0.826660	0.098140
O171	O17	0.629460	0.177270	0.813890
O181	O18	0.024000	0.294460	0.756360
O191	O19	0.105200	0.428700	0.612200
O201	O20	0.894080	0.098140	0.075200
O211	O21	0.443350	0.813890	0.008840
O221	O22	0.780360	0.756360	0.949180
O231	O23	0.717400	0.612200	0.959100
O241	O24	0.969280	0.075200	0.826660
O251	O25	0.320170	0.000000	0.000000
O261	O26	0.679830	0.000000	0.000000
O271	O27	0.000000	0.000000	0.000000
