data_UFILUR_clean_PM
_symmetry_space_group_name_H-M	'P1'
_cell_length_a	7.730000
_cell_length_b	13.627000
_cell_length_c	14.064000
_cell_angle_alpha	90.000000
_cell_angle_beta	90.000000
_cell_angle_gamma	90.000000
_symmetry_Int_Tables_number 1

loop_
_symmetry_equiv_pos_as_xyz
'x,y,z'

loop_
_atom_site_label
_atom_site_type_symbol
_atom_site_fract_x
_atom_site_fract_y
_atom_site_fract_z
C11	C1	0.441600	0.186500	0.267200
N11	N1	0.547400	0.232500	0.301700
C21	C2	0.438500	0.002600	0.158700
N21	N2	0.547000	0.449700	0.361700
C31	C3	0.558400	0.313500	0.767200
N31	N3	0.452600	0.267500	0.801700
C41	C4	0.561500	0.497400	0.658700
N41	N4	0.453000	0.050300	0.861700
C51	C5	0.941600	0.813500	0.732800
N51	N5	0.047400	0.767500	0.698300
C61	C6	0.938500	0.997400	0.841300
N61	N6	0.047000	0.550300	0.638300
C71	C7	0.058400	0.686500	0.232800
N71	N7	0.952600	0.732500	0.198300
C81	C8	0.061500	0.502600	0.341300
N81	N8	0.953000	0.949700	0.138300
C91	C9	0.558400	0.813500	0.732800
N91	N9	0.452600	0.767500	0.698300
C101	C10	0.561500	0.997400	0.841300
N101	N10	0.453000	0.550300	0.638300
C111	C11	0.441600	0.686500	0.232800
N111	N11	0.547400	0.732500	0.198300
C121	C12	0.438500	0.502600	0.341300
N121	N12	0.547000	0.949700	0.138300
C131	C13	0.058400	0.186500	0.267200
N131	N13	0.952600	0.232500	0.301700
C141	C14	0.061500	0.002600	0.158700
N141	N14	0.953000	0.449700	0.361700
C151	C15	0.941600	0.313500	0.767200
N151	N15	0.047400	0.267500	0.801700
C161	C16	0.938500	0.497400	0.658700
N161	N16	0.047000	0.050300	0.861700
Cr11	Cr1	0.250000	0.096310	0.209280
C171	C17	0.250000	0.167000	0.077800
C181	C18	0.250000	0.017500	0.329400
N171	N17	0.250000	0.970400	0.398600
Cr21	Cr2	0.750000	0.403690	0.709280
C191	C19	0.750000	0.333000	0.577800
C201	C20	0.750000	0.482500	0.829400
N181	N18	0.750000	0.529600	0.898600
Cr31	Cr3	0.750000	0.903690	0.790720
C211	C21	0.750000	0.833000	0.922200
C221	C22	0.750000	0.982500	0.670600
N191	N19	0.750000	0.029600	0.601400
Cr41	Cr4	0.250000	0.596310	0.290720
C231	C23	0.250000	0.667000	0.422200
C241	C24	0.250000	0.517500	0.170600
N201	N20	0.250000	0.470400	0.101400
Mn11	Mn1	0.750000	0.338760	0.344840
N211	N21	0.750000	0.303900	0.501800
Mn21	Mn2	0.250000	0.161240	0.844840
N221	N22	0.250000	0.196100	0.001800
Mn31	Mn3	0.250000	0.661240	0.655160
N231	N23	0.250000	0.696100	0.498200
Mn41	Mn4	0.750000	0.838760	0.155160
N241	N24	0.750000	0.803900	0.998200
