data_UFISUY_clean_PM
_symmetry_space_group_name_H-M	'P1'
_cell_length_a	14.986000
_cell_length_b	23.552000
_cell_length_c	9.051000
_cell_angle_alpha	90.000000
_cell_angle_beta	90.000000
_cell_angle_gamma	90.000000
_symmetry_Int_Tables_number 1

loop_
_symmetry_equiv_pos_as_xyz
'x,y,z'

loop_
_atom_site_label
_atom_site_type_symbol
_atom_site_fract_x
_atom_site_fract_y
_atom_site_fract_z
Fe11	Fe1	0.071790	0.054250	0.697720
Cl11	Cl1	0.181470	0.995690	0.598900
O11	O1	0.159200	0.125050	0.640100
O21	O2	0.230900	0.130050	0.003900
O31	O3	0.264500	0.179030	0.744700
O41	O4	0.131500	0.072910	0.896100
C11	C1	0.188200	0.112210	0.894700
C21	C2	0.204700	0.141580	0.745300
Fe21	Fe2	0.071790	0.554250	0.197720
Cl21	Cl2	0.181470	0.495690	0.098900
O51	O5	0.159200	0.625050	0.140100
O61	O6	0.230900	0.630050	0.503900
O71	O7	0.264500	0.679030	0.244700
O81	O8	0.131500	0.572910	0.396100
C31	C3	0.188200	0.612210	0.394700
C41	C4	0.204700	0.641580	0.245300
Fe31	Fe3	0.571790	0.054250	0.197720
Cl31	Cl3	0.681470	0.995690	0.098900
O91	O9	0.659200	0.125050	0.140100
O101	O10	0.730900	0.130050	0.503900
O111	O11	0.764500	0.179030	0.244700
O121	O12	0.631500	0.072910	0.396100
C51	C5	0.688200	0.112210	0.394700
C61	C6	0.704700	0.141580	0.245300
Fe41	Fe4	0.571790	0.554250	0.697720
Cl41	Cl4	0.681470	0.495690	0.598900
O131	O13	0.659200	0.625050	0.640100
O141	O14	0.730900	0.630050	0.003900
O151	O15	0.764500	0.679030	0.744700
O161	O16	0.631500	0.572910	0.896100
C71	C7	0.688200	0.612210	0.894700
C81	C8	0.704700	0.641580	0.745300
Fe51	Fe5	0.928210	0.945750	0.697720
Cl51	Cl5	0.818530	0.004310	0.598900
O171	O17	0.840800	0.874950	0.640100
O181	O18	0.769100	0.869950	0.003900
O191	O19	0.735500	0.820970	0.744700
O201	O20	0.868500	0.927090	0.896100
C91	C9	0.811800	0.887790	0.894700
C101	C10	0.795300	0.858420	0.745300
Fe61	Fe6	0.928210	0.445750	0.197720
Cl61	Cl6	0.818530	0.504310	0.098900
O211	O21	0.840800	0.374950	0.140100
O221	O22	0.769100	0.369950	0.503900
O231	O23	0.735500	0.320970	0.244700
O241	O24	0.868500	0.427090	0.396100
C111	C11	0.811800	0.387790	0.394700
C121	C12	0.795300	0.358420	0.245300
Fe71	Fe7	0.428210	0.945750	0.197720
Cl71	Cl7	0.318530	0.004310	0.098900
O251	O25	0.340800	0.874950	0.140100
O261	O26	0.269100	0.869950	0.503900
O271	O27	0.235500	0.820970	0.244700
O281	O28	0.368500	0.927090	0.396100
C131	C13	0.311800	0.887790	0.394700
C141	C14	0.295300	0.858420	0.245300
Fe81	Fe8	0.428210	0.445750	0.697720
Cl81	Cl8	0.318530	0.504310	0.598900
O291	O29	0.340800	0.374950	0.640100
O301	O30	0.269100	0.369950	0.003900
O311	O31	0.235500	0.320970	0.744700
O321	O32	0.368500	0.427090	0.896100
C151	C15	0.311800	0.387790	0.894700
C161	C16	0.295300	0.358420	0.745300
Fe91	Fe9	0.321790	0.195750	0.947720
Cl91	Cl9	0.431470	0.254310	0.848900
O331	O33	0.409200	0.124950	0.890100
O341	O34	0.480900	0.119950	0.253900
O351	O35	0.514500	0.070970	0.994700
O361	O36	0.381500	0.177090	0.146100
C171	C17	0.438200	0.137790	0.144700
C181	C18	0.454700	0.108420	0.995300
Fe101	Fe10	0.321790	0.695750	0.447720
Cl101	Cl10	0.431470	0.754310	0.348900
O371	O37	0.409200	0.624950	0.390100
O381	O38	0.480900	0.619950	0.753900
O391	O39	0.514500	0.570970	0.494700
O401	O40	0.381500	0.677090	0.646100
C191	C19	0.438200	0.637790	0.644700
C201	C20	0.454700	0.608420	0.495300
Fe111	Fe11	0.821790	0.195750	0.447720
Cl111	Cl11	0.931470	0.254310	0.348900
O411	O41	0.909200	0.124950	0.390100
O421	O42	0.980900	0.119950	0.753900
O431	O43	0.014500	0.070970	0.494700
O441	O44	0.881500	0.177090	0.646100
C211	C21	0.938200	0.137790	0.644700
C221	C22	0.954700	0.108420	0.495300
Fe121	Fe12	0.821790	0.695750	0.947720
Cl121	Cl12	0.931470	0.754310	0.848900
O451	O45	0.909200	0.624950	0.890100
O461	O46	0.980900	0.619950	0.253900
O471	O47	0.014500	0.570970	0.994700
O481	O48	0.881500	0.677090	0.146100
C231	C23	0.938200	0.637790	0.144700
C241	C24	0.954700	0.608420	0.995300
Fe131	Fe13	0.178210	0.304250	0.947720
Cl131	Cl13	0.068530	0.245690	0.848900
O491	O49	0.090800	0.375050	0.890100
O501	O50	0.019100	0.380050	0.253900
O511	O51	0.985500	0.429030	0.994700
O521	O52	0.118500	0.322910	0.146100
C251	C25	0.061800	0.362210	0.144700
C261	C26	0.045300	0.391580	0.995300
Fe141	Fe14	0.178210	0.804250	0.447720
Cl141	Cl14	0.068530	0.745690	0.348900
O531	O53	0.090800	0.875050	0.390100
O541	O54	0.019100	0.880050	0.753900
O551	O55	0.985500	0.929030	0.494700
O561	O56	0.118500	0.822910	0.646100
C271	C27	0.061800	0.862210	0.644700
C281	C28	0.045300	0.891580	0.495300
Fe151	Fe15	0.678210	0.304250	0.447720
Cl151	Cl15	0.568530	0.245690	0.348900
O571	O57	0.590800	0.375050	0.390100
O581	O58	0.519100	0.380050	0.753900
O591	O59	0.485500	0.429030	0.494700
O601	O60	0.618500	0.322910	0.646100
C291	C29	0.561800	0.362210	0.644700
C301	C30	0.545300	0.391580	0.495300
Fe161	Fe16	0.678210	0.804250	0.947720
Cl161	Cl16	0.568530	0.745690	0.848900
O611	O61	0.590800	0.875050	0.890100
O621	O62	0.519100	0.880050	0.253900
O631	O63	0.485500	0.929030	0.994700
O641	O64	0.618500	0.822910	0.146100
C311	C31	0.561800	0.862210	0.144700
C321	C32	0.545300	0.891580	0.995300
O651	O65	0.000000	0.000000	0.772000
O661	O66	0.000000	0.500000	0.272000
O671	O67	0.500000	0.000000	0.272000
O681	O68	0.500000	0.500000	0.772000
O691	O69	0.250000	0.250000	0.022000
O701	O70	0.250000	0.750000	0.522000
O711	O71	0.750000	0.250000	0.522000
O721	O72	0.750000	0.750000	0.022000
