data_UFISOS_clean_PM
_symmetry_space_group_name_H-M	'P1'
_cell_length_a	14.882500
_cell_length_b	23.328100
_cell_length_c	9.108700
_cell_angle_alpha	90.000000
_cell_angle_beta	90.000000
_cell_angle_gamma	90.000000
_symmetry_Int_Tables_number 1

loop_
_symmetry_equiv_pos_as_xyz
'x,y,z'

loop_
_atom_site_label
_atom_site_type_symbol
_atom_site_fract_x
_atom_site_fract_y
_atom_site_fract_z
Fe11	Fe1	0.577840	0.054640	0.262580
Cl11	Cl1	0.681910	0.994080	0.165970
O11	O1	0.663630	0.124980	0.207880
O21	O2	0.634400	0.071990	0.461580
C11	C1	0.708830	0.141830	0.314800
C21	C2	0.691130	0.111890	0.461900
O31	O3	0.734140	0.130200	0.569960
O41	O4	0.768420	0.180480	0.314790
Fe21	Fe2	0.577840	0.554640	0.762580
Cl21	Cl2	0.681910	0.494080	0.665970
O51	O5	0.663630	0.624980	0.707880
O61	O6	0.634400	0.571990	0.961580
C31	C3	0.708830	0.641830	0.814800
C41	C4	0.691130	0.611890	0.961900
O71	O7	0.734140	0.630200	0.069960
O81	O8	0.768420	0.680480	0.814790
Fe31	Fe3	0.077840	0.054640	0.762580
Cl31	Cl3	0.181910	0.994080	0.665970
O91	O9	0.163630	0.124980	0.707880
O101	O10	0.134400	0.071990	0.961580
C51	C5	0.208830	0.141830	0.814800
C61	C6	0.191130	0.111890	0.961900
O111	O11	0.234140	0.130200	0.069960
O121	O12	0.268420	0.180480	0.814790
Fe41	Fe4	0.077840	0.554640	0.262580
Cl41	Cl4	0.181910	0.494080	0.165970
O131	O13	0.163630	0.624980	0.207880
O141	O14	0.134400	0.571990	0.461580
C71	C7	0.208830	0.641830	0.314800
C81	C8	0.191130	0.611890	0.461900
O151	O15	0.234140	0.630200	0.569960
O161	O16	0.268420	0.680480	0.314790
Fe51	Fe5	0.422160	0.945360	0.262580
Cl51	Cl5	0.318090	0.005920	0.165970
O171	O17	0.336370	0.875020	0.207880
O181	O18	0.365600	0.928010	0.461580
C91	C9	0.291170	0.858170	0.314800
C101	C10	0.308870	0.888110	0.461900
O191	O19	0.265860	0.869800	0.569960
O201	O20	0.231580	0.819520	0.314790
Fe61	Fe6	0.422160	0.445360	0.762580
Cl61	Cl6	0.318090	0.505920	0.665970
O211	O21	0.336370	0.375020	0.707880
O221	O22	0.365600	0.428010	0.961580
C111	C11	0.291170	0.358170	0.814800
C121	C12	0.308870	0.388110	0.961900
O231	O23	0.265860	0.369800	0.069960
O241	O24	0.231580	0.319520	0.814790
Fe71	Fe7	0.922160	0.945360	0.762580
Cl71	Cl7	0.818090	0.005920	0.665970
O251	O25	0.836370	0.875020	0.707880
O261	O26	0.865600	0.928010	0.961580
C131	C13	0.791170	0.858170	0.814800
C141	C14	0.808870	0.888110	0.961900
O271	O27	0.765860	0.869800	0.069960
O281	O28	0.731580	0.819520	0.814790
Fe81	Fe8	0.922160	0.445360	0.262580
Cl81	Cl8	0.818090	0.505920	0.165970
O291	O29	0.836370	0.375020	0.207880
O301	O30	0.865600	0.428010	0.461580
C151	C15	0.791170	0.358170	0.314800
C161	C16	0.808870	0.388110	0.461900
O311	O31	0.765860	0.369800	0.569960
O321	O32	0.731580	0.319520	0.314790
Fe91	Fe9	0.827840	0.195360	0.512580
Cl91	Cl9	0.931910	0.255920	0.415970
O331	O33	0.913630	0.125020	0.457880
O341	O34	0.884400	0.178010	0.711580
C171	C17	0.958830	0.108170	0.564800
C181	C18	0.941130	0.138110	0.711900
O351	O35	0.984140	0.119800	0.819960
O361	O36	0.018420	0.069520	0.564790
Fe101	Fe10	0.827840	0.695360	0.012580
Cl101	Cl10	0.931910	0.755920	0.915970
O371	O37	0.913630	0.625020	0.957880
O381	O38	0.884400	0.678010	0.211580
C191	C19	0.958830	0.608170	0.064800
C201	C20	0.941130	0.638110	0.211900
O391	O39	0.984140	0.619800	0.319960
O401	O40	0.018420	0.569520	0.064790
Fe111	Fe11	0.327840	0.195360	0.012580
Cl111	Cl11	0.431910	0.255920	0.915970
O411	O41	0.413630	0.125020	0.957880
O421	O42	0.384400	0.178010	0.211580
C211	C21	0.458830	0.108170	0.064800
C221	C22	0.441130	0.138110	0.211900
O431	O43	0.484140	0.119800	0.319960
O441	O44	0.518420	0.069520	0.064790
Fe121	Fe12	0.327840	0.695360	0.512580
Cl121	Cl12	0.431910	0.755920	0.415970
O451	O45	0.413630	0.625020	0.457880
O461	O46	0.384400	0.678010	0.711580
C231	C23	0.458830	0.608170	0.564800
C241	C24	0.441130	0.638110	0.711900
O471	O47	0.484140	0.619800	0.819960
O481	O48	0.518420	0.569520	0.564790
Fe131	Fe13	0.672160	0.304640	0.512580
Cl131	Cl13	0.568090	0.244080	0.415970
O491	O49	0.586370	0.374980	0.457880
O501	O50	0.615600	0.321990	0.711580
C251	C25	0.541170	0.391830	0.564800
C261	C26	0.558870	0.361890	0.711900
O511	O51	0.515860	0.380200	0.819960
O521	O52	0.481580	0.430480	0.564790
Fe141	Fe14	0.672160	0.804640	0.012580
Cl141	Cl14	0.568090	0.744080	0.915970
O531	O53	0.586370	0.874980	0.957880
O541	O54	0.615600	0.821990	0.211580
C271	C27	0.541170	0.891830	0.064800
C281	C28	0.558870	0.861890	0.211900
O551	O55	0.515860	0.880200	0.319960
O561	O56	0.481580	0.930480	0.064790
Fe151	Fe15	0.172160	0.304640	0.012580
Cl151	Cl15	0.068090	0.244080	0.915970
O571	O57	0.086370	0.374980	0.957880
O581	O58	0.115600	0.321990	0.211580
C291	C29	0.041170	0.391830	0.064800
C301	C30	0.058870	0.361890	0.211900
O591	O59	0.015860	0.380200	0.319960
O601	O60	0.981580	0.430480	0.064790
Fe161	Fe16	0.172160	0.804640	0.512580
Cl161	Cl16	0.068090	0.744080	0.415970
O611	O61	0.086370	0.874980	0.457880
O621	O62	0.115600	0.821990	0.711580
C311	C31	0.041170	0.891830	0.564800
C321	C32	0.058870	0.861890	0.711900
O631	O63	0.015860	0.880200	0.819960
O641	O64	0.981580	0.930480	0.564790
O651	O65	0.500000	0.000000	0.343700
O661	O66	0.500000	0.500000	0.843700
O671	O67	0.000000	0.000000	0.843700
O681	O68	0.000000	0.500000	0.343700
O691	O69	0.750000	0.250000	0.593700
O701	O70	0.750000	0.750000	0.093700
O711	O71	0.250000	0.250000	0.093700
O721	O72	0.250000	0.750000	0.593700
