data_UFITEJ_clean_PM
_symmetry_space_group_name_H-M	'P1'
_cell_length_a	9.644500
_cell_length_b	14.747000
_cell_length_c	12.310000
_cell_angle_alpha	90.000000
_cell_angle_beta	108.457000
_cell_angle_gamma	90.000000
_symmetry_Int_Tables_number 1

loop_
_symmetry_equiv_pos_as_xyz
'x,y,z'

loop_
_atom_site_label
_atom_site_type_symbol
_atom_site_fract_x
_atom_site_fract_y
_atom_site_fract_z
Fe11	Fe1	0.945160	0.052970	0.337090
Fe21	Fe2	0.840900	0.210310	0.107240
Cl11	Cl1	0.965600	0.949040	0.208400
Cl21	Cl2	0.994700	0.315120	0.216300
O11	O1	0.821500	0.140300	0.233700
H11	H1	0.733800	0.150700	0.248100
O21	O2	0.967200	0.146900	0.472000
O31	O3	0.143900	0.111500	0.349500
O41	O4	0.140000	0.234200	0.589200
O51	O5	0.309800	0.207900	0.458900
O61	O6	0.729100	0.887800	0.488500
O71	O7	0.010700	0.854500	0.577000
O81	O8	0.059000	0.965900	0.469700
O91	O9	0.772900	0.998000	0.378700
C11	C1	0.090700	0.184200	0.504400
C21	C2	0.191000	0.166700	0.431200
C31	C3	0.811300	0.937000	0.452700
C41	C4	0.973300	0.918000	0.504100
Fe31	Fe3	0.445160	0.552970	0.337090
Fe41	Fe4	0.340900	0.710310	0.107240
Cl31	Cl3	0.465600	0.449040	0.208400
Cl41	Cl4	0.494700	0.815120	0.216300
O101	O10	0.321500	0.640300	0.233700
H21	H2	0.233800	0.650700	0.248100
O111	O11	0.467200	0.646900	0.472000
O121	O12	0.643900	0.611500	0.349500
O131	O13	0.640000	0.734200	0.589200
O141	O14	0.809800	0.707900	0.458900
O151	O15	0.229100	0.387800	0.488500
O161	O16	0.510700	0.354500	0.577000
O171	O17	0.559000	0.465900	0.469700
O181	O18	0.272900	0.498000	0.378700
C51	C5	0.590700	0.684200	0.504400
C61	C6	0.691000	0.666700	0.431200
C71	C7	0.311300	0.437000	0.452700
C81	C8	0.473300	0.418000	0.504100
Fe51	Fe5	0.945160	0.947030	0.837090
Fe61	Fe6	0.840900	0.789690	0.607240
Cl51	Cl5	0.965600	0.050960	0.708400
Cl61	Cl6	0.994700	0.684880	0.716300
O191	O19	0.821500	0.859700	0.733700
H31	H3	0.733800	0.849300	0.748100
O201	O20	0.967200	0.853100	0.972000
O211	O21	0.143900	0.888500	0.849500
O221	O22	0.140000	0.765800	0.089200
O231	O23	0.309800	0.792100	0.958900
O241	O24	0.729100	0.112200	0.988500
O251	O25	0.010700	0.145500	0.077000
O261	O26	0.059000	0.034100	0.969700
O271	O27	0.772900	0.002000	0.878700
C91	C9	0.090700	0.815800	0.004400
C101	C10	0.191000	0.833300	0.931200
C111	C11	0.811300	0.063000	0.952700
C121	C12	0.973300	0.082000	0.004100
Fe71	Fe7	0.445160	0.447030	0.837090
Fe81	Fe8	0.340900	0.289690	0.607240
Cl71	Cl7	0.465600	0.550960	0.708400
Cl81	Cl8	0.494700	0.184880	0.716300
O281	O28	0.321500	0.359700	0.733700
H41	H4	0.233800	0.349300	0.748100
O291	O29	0.467200	0.353100	0.972000
O301	O30	0.643900	0.388500	0.849500
O311	O31	0.640000	0.265800	0.089200
O321	O32	0.809800	0.292100	0.958900
O331	O33	0.229100	0.612200	0.988500
O341	O34	0.510700	0.645500	0.077000
O351	O35	0.559000	0.534100	0.969700
O361	O36	0.272900	0.502000	0.878700
C131	C13	0.590700	0.315800	0.004400
C141	C14	0.691000	0.333300	0.931200
C151	C15	0.311300	0.563000	0.952700
C161	C16	0.473300	0.582000	0.004100
