data_UFOFIF_clean_PM
_symmetry_space_group_name_H-M	'P1'
_cell_length_a	7.378500
_cell_length_b	11.762500
_cell_length_c	14.428800
_cell_angle_alpha	90.000000
_cell_angle_beta	90.000000
_cell_angle_gamma	98.999000
_symmetry_Int_Tables_number 1

loop_
_symmetry_equiv_pos_as_xyz
'x,y,z'

loop_
_atom_site_label
_atom_site_type_symbol
_atom_site_fract_x
_atom_site_fract_y
_atom_site_fract_z
Mn11	Mn1	0.500530	0.524180	0.500020
Mn21	Mn2	0.971040	0.973070	0.026710
Mn31	Mn3	0.499470	0.475820	0.000020
Mn41	Mn4	0.028960	0.026930	0.526710
Nb11	Nb1	0.943570	0.339790	0.258480
Nb21	Nb2	0.056430	0.660210	0.758480
H11	H1	0.671000	0.141500	0.046700
H21	H2	0.358200	0.143900	0.041900
H31	H3	0.273600	0.807000	0.004900
H41	H4	0.586000	0.806200	0.007400
H51	H5	0.329000	0.858500	0.546700
H61	H6	0.641800	0.856100	0.541900
H71	H7	0.726400	0.193000	0.504900
H81	H8	0.414000	0.193800	0.507400
C11	C1	0.693200	0.201300	0.272500
C21	C2	0.948300	0.530900	0.232200
C31	C3	0.770600	0.392400	0.373300
C41	C4	0.166200	0.432000	0.349200
C51	C5	0.172900	0.393100	0.157800
C61	C6	0.766900	0.358100	0.135600
C71	C7	0.993100	0.188800	0.173000
C81	C8	0.020400	0.218200	0.365400
C91	C9	0.590300	0.071100	0.037600
C101	C10	0.402700	0.072700	0.035400
C111	C11	0.354200	0.877500	0.013500
C121	C12	0.541000	0.877000	0.015200
C131	C13	0.306800	0.798700	0.772500
C141	C14	0.051700	0.469100	0.732200
C151	C15	0.229400	0.607600	0.873300
C161	C16	0.833800	0.568000	0.849200
C171	C17	0.827100	0.606900	0.657800
C181	C18	0.233100	0.641900	0.635600
C191	C19	0.006900	0.811200	0.673000
C201	C20	0.979600	0.781800	0.865400
C211	C21	0.409700	0.928900	0.537600
C221	C22	0.597300	0.927300	0.535400
C231	C23	0.645800	0.122500	0.513500
C241	C24	0.459000	0.123000	0.515200
N11	N1	0.569400	0.129000	0.277700
N21	N2	0.955600	0.626100	0.213800
N31	N3	0.678800	0.418500	0.430800
N41	N4	0.276200	0.476400	0.399400
N51	N5	0.282800	0.419400	0.101600
N61	N6	0.676900	0.371200	0.073050
N71	N7	0.010500	0.113000	0.125390
N81	N8	0.054500	0.158800	0.423600
N91	N9	0.662000	0.974300	0.027630
N101	N10	0.282600	0.975300	0.024180
N111	N11	0.430600	0.871000	0.777700
N121	N12	0.044400	0.373900	0.713800
N131	N13	0.321200	0.581500	0.930800
N141	N14	0.723800	0.523600	0.899400
N151	N15	0.717200	0.580600	0.601600
N161	N16	0.323100	0.628800	0.573050
N171	N17	0.989500	0.887000	0.625390
N181	N18	0.945500	0.841200	0.923600
N191	N19	0.338000	0.025700	0.527630
N201	N20	0.717400	0.024700	0.524180
