data_UGELIB_clean_PM
_symmetry_space_group_name_H-M	'P1'
_cell_length_a	27.316000
_cell_length_b	17.472000
_cell_length_c	10.197000
_cell_angle_alpha	90.000000
_cell_angle_beta	90.000000
_cell_angle_gamma	90.000000
_symmetry_Int_Tables_number 1

loop_
_symmetry_equiv_pos_as_xyz
'x,y,z'

loop_
_atom_site_label
_atom_site_type_symbol
_atom_site_fract_x
_atom_site_fract_y
_atom_site_fract_z
Ga11	Ga1	0.220300	0.239200	0.088400
Ga21	Ga2	0.344100	0.179300	0.110500
Ga31	Ga3	0.054000	0.423500	0.902500
Ga41	Ga4	0.241500	0.412700	0.926000
P11	P1	0.141600	0.319800	0.904000
P21	P2	0.255200	0.065700	0.110500
P31	P3	0.440400	0.074200	0.094800
P41	P4	0.304000	0.273400	0.886000
F11	F1	0.283900	0.230200	0.179300
F21	F2	0.232500	0.352400	0.093700
O11	O1	0.217300	0.128100	0.087100
O21	O2	0.256800	0.233900	0.926100
O31	O3	0.404100	0.132100	0.047900
O41	O4	0.176500	0.387900	0.887900
O51	O5	0.438700	0.004200	0.008300
O61	O6	0.093700	0.350300	0.969600
O71	O7	0.299200	0.360600	0.898400
O81	O8	0.242900	0.000800	0.016000
O91	O9	0.317200	0.251000	0.745500
O101	O10	0.253500	0.034800	0.252200
O111	O11	0.160700	0.255000	0.987300
O121	O12	0.347300	0.247900	0.972800
O131	O13	0.308200	0.091500	0.078500
O141	O14	0.126900	0.291700	0.766900
O151	O15	0.430300	0.047000	0.236000
O161	O16	0.491500	0.111600	0.088800
Ga51	Ga5	0.279700	0.260800	0.588400
Ga61	Ga6	0.155900	0.320700	0.610500
Ga71	Ga7	0.446000	0.076500	0.402500
Ga81	Ga8	0.258500	0.087300	0.426000
P51	P5	0.358400	0.180200	0.404000
P61	P6	0.244800	0.434300	0.610500
P71	P7	0.059600	0.425800	0.594800
P81	P8	0.196000	0.226600	0.386000
F31	F3	0.216100	0.269800	0.679300
F41	F4	0.267500	0.147600	0.593700
O171	O17	0.282700	0.371900	0.587100
O181	O18	0.243200	0.266100	0.426100
O191	O19	0.095900	0.367900	0.547900
O201	O20	0.323500	0.112100	0.387900
O211	O21	0.061300	0.495800	0.508300
O221	O22	0.406300	0.149700	0.469600
O231	O23	0.200800	0.139400	0.398400
O241	O24	0.257100	0.499200	0.516000
O251	O25	0.182800	0.249000	0.245500
O261	O26	0.246500	0.465200	0.752200
O271	O27	0.339300	0.245000	0.487300
O281	O28	0.152700	0.252100	0.472800
O291	O29	0.191800	0.408500	0.578500
O301	O30	0.373100	0.208300	0.266900
O311	O31	0.069700	0.453000	0.736000
O321	O32	0.008500	0.388400	0.588800
Ga91	Ga9	0.779700	0.239200	0.411600
Ga101	Ga10	0.655900	0.179300	0.389500
Ga111	Ga11	0.946000	0.423500	0.597500
Ga121	Ga12	0.758500	0.412700	0.574000
P91	P9	0.858400	0.319800	0.596000
P101	P10	0.744800	0.065700	0.389500
P111	P11	0.559600	0.074200	0.405200
P121	P12	0.696000	0.273400	0.614000
F51	F5	0.716100	0.230200	0.320700
F61	F6	0.767500	0.352400	0.406300
O331	O33	0.782700	0.128100	0.412900
O341	O34	0.743200	0.233900	0.573900
O351	O35	0.595900	0.132100	0.452100
O361	O36	0.823500	0.387900	0.612100
O371	O37	0.561300	0.004200	0.491700
O381	O38	0.906300	0.350300	0.530400
O391	O39	0.700800	0.360600	0.601600
O401	O40	0.757100	0.000800	0.484000
O411	O41	0.682800	0.251000	0.754500
O421	O42	0.746500	0.034800	0.247800
O431	O43	0.839300	0.255000	0.512700
O441	O44	0.652700	0.247900	0.527200
O451	O45	0.691800	0.091500	0.421500
O461	O46	0.873100	0.291700	0.733100
O471	O47	0.569700	0.047000	0.264000
O481	O48	0.508500	0.111600	0.411200
Ga131	Ga13	0.720300	0.260800	0.911600
Ga141	Ga14	0.844100	0.320700	0.889500
Ga151	Ga15	0.554000	0.076500	0.097500
Ga161	Ga16	0.741500	0.087300	0.074000
P131	P13	0.641600	0.180200	0.096000
P141	P14	0.755200	0.434300	0.889500
P151	P15	0.940400	0.425800	0.905200
P161	P16	0.804000	0.226600	0.114000
F71	F7	0.783900	0.269800	0.820700
F81	F8	0.732500	0.147600	0.906300
O491	O49	0.717300	0.371900	0.912900
O501	O50	0.756800	0.266100	0.073900
O511	O51	0.904100	0.367900	0.952100
O521	O52	0.676500	0.112100	0.112100
O531	O53	0.938700	0.495800	0.991700
O541	O54	0.593700	0.149700	0.030400
O551	O55	0.799200	0.139400	0.101600
O561	O56	0.742900	0.499200	0.984000
O571	O57	0.817200	0.249000	0.254500
O581	O58	0.753500	0.465200	0.747800
O591	O59	0.660700	0.245000	0.012700
O601	O60	0.847300	0.252100	0.027200
O611	O61	0.808200	0.408500	0.921500
O621	O62	0.626900	0.208300	0.233100
O631	O63	0.930300	0.453000	0.764000
O641	O64	0.991500	0.388400	0.911200
Ga171	Ga17	0.779700	0.760800	0.911600
Ga181	Ga18	0.655900	0.820700	0.889500
Ga191	Ga19	0.946000	0.576500	0.097500
Ga201	Ga20	0.758500	0.587300	0.074000
P171	P17	0.858400	0.680200	0.096000
P181	P18	0.744800	0.934300	0.889500
P191	P19	0.559600	0.925800	0.905200
P201	P20	0.696000	0.726600	0.114000
F91	F9	0.716100	0.769800	0.820700
F101	F10	0.767500	0.647600	0.906300
O651	O65	0.782700	0.871900	0.912900
O661	O66	0.743200	0.766100	0.073900
O671	O67	0.595900	0.867900	0.952100
O681	O68	0.823500	0.612100	0.112100
O691	O69	0.561300	0.995800	0.991700
O701	O70	0.906300	0.649700	0.030400
O711	O71	0.700800	0.639400	0.101600
O721	O72	0.757100	0.999200	0.984000
O731	O73	0.682800	0.749000	0.254500
O741	O74	0.746500	0.965200	0.747800
O751	O75	0.839300	0.745000	0.012700
O761	O76	0.652700	0.752100	0.027200
O771	O77	0.691800	0.908500	0.921500
O781	O78	0.873100	0.708300	0.233100
O791	O79	0.569700	0.953000	0.764000
O801	O80	0.508500	0.888400	0.911200
Ga211	Ga21	0.720300	0.739200	0.411600
Ga221	Ga22	0.844100	0.679300	0.389500
Ga231	Ga23	0.554000	0.923500	0.597500
Ga241	Ga24	0.741500	0.912700	0.574000
P211	P21	0.641600	0.819800	0.596000
P221	P22	0.755200	0.565700	0.389500
P231	P23	0.940400	0.574200	0.405200
P241	P24	0.804000	0.773400	0.614000
F111	F11	0.783900	0.730200	0.320700
F121	F12	0.732500	0.852400	0.406300
O811	O81	0.717300	0.628100	0.412900
O821	O82	0.756800	0.733900	0.573900
O831	O83	0.904100	0.632100	0.452100
O841	O84	0.676500	0.887900	0.612100
O851	O85	0.938700	0.504200	0.491700
O861	O86	0.593700	0.850300	0.530400
O871	O87	0.799200	0.860600	0.601600
O881	O88	0.742900	0.500800	0.484000
O891	O89	0.817200	0.751000	0.754500
O901	O90	0.753500	0.534800	0.247800
O911	O91	0.660700	0.755000	0.512700
O921	O92	0.847300	0.747900	0.527200
O931	O93	0.808200	0.591500	0.421500
O941	O94	0.626900	0.791700	0.733100
O951	O95	0.930300	0.547000	0.264000
O961	O96	0.991500	0.611600	0.411200
Ga251	Ga25	0.220300	0.760800	0.588400
Ga261	Ga26	0.344100	0.820700	0.610500
Ga271	Ga27	0.054000	0.576500	0.402500
Ga281	Ga28	0.241500	0.587300	0.426000
P251	P25	0.141600	0.680200	0.404000
P261	P26	0.255200	0.934300	0.610500
P271	P27	0.440400	0.925800	0.594800
P281	P28	0.304000	0.726600	0.386000
F131	F13	0.283900	0.769800	0.679300
F141	F14	0.232500	0.647600	0.593700
O971	O97	0.217300	0.871900	0.587100
O981	O98	0.256800	0.766100	0.426100
O991	O99	0.404100	0.867900	0.547900
O1001	O100	0.176500	0.612100	0.387900
O1011	O101	0.438700	0.995800	0.508300
O1021	O102	0.093700	0.649700	0.469600
O1031	O103	0.299200	0.639400	0.398400
O1041	O104	0.242900	0.999200	0.516000
O1051	O105	0.317200	0.749000	0.245500
O1061	O106	0.253500	0.965200	0.752200
O1071	O107	0.160700	0.745000	0.487300
O1081	O108	0.347300	0.752100	0.472800
O1091	O109	0.308200	0.908500	0.578500
O1101	O110	0.126900	0.708300	0.266900
O1111	O111	0.430300	0.953000	0.736000
O1121	O112	0.491500	0.888400	0.588800
Ga291	Ga29	0.279700	0.739200	0.088400
Ga301	Ga30	0.155900	0.679300	0.110500
Ga311	Ga31	0.446000	0.923500	0.902500
Ga321	Ga32	0.258500	0.912700	0.926000
P291	P29	0.358400	0.819800	0.904000
P301	P30	0.244800	0.565700	0.110500
P311	P31	0.059600	0.574200	0.094800
P321	P32	0.196000	0.773400	0.886000
F151	F15	0.216100	0.730200	0.179300
F161	F16	0.267500	0.852400	0.093700
O1131	O113	0.282700	0.628100	0.087100
O1141	O114	0.243200	0.733900	0.926100
O1151	O115	0.095900	0.632100	0.047900
O1161	O116	0.323500	0.887900	0.887900
O1171	O117	0.061300	0.504200	0.008300
O1181	O118	0.406300	0.850300	0.969600
O1191	O119	0.200800	0.860600	0.898400
O1201	O120	0.257100	0.500800	0.016000
O1211	O121	0.182800	0.751000	0.745500
O1221	O122	0.246500	0.534800	0.252200
O1231	O123	0.339300	0.755000	0.987300
O1241	O124	0.152700	0.747900	0.972800
O1251	O125	0.191800	0.591500	0.078500
O1261	O126	0.373100	0.791700	0.766900
O1271	O127	0.069700	0.547000	0.236000
O1281	O128	0.008500	0.611600	0.088800
