data_UGUHEK_clean_PM
_symmetry_space_group_name_H-M	'P1'
_cell_length_a	8.939900
_cell_length_b	13.693000
_cell_length_c	22.103000
_cell_angle_alpha	90.000000
_cell_angle_beta	90.000000
_cell_angle_gamma	95.460000
_symmetry_Int_Tables_number 1

loop_
_symmetry_equiv_pos_as_xyz
'x,y,z'

loop_
_atom_site_label
_atom_site_type_symbol
_atom_site_fract_x
_atom_site_fract_y
_atom_site_fract_z
Er11	Er1	0.017160	0.023900	0.673640
Er21	Er2	0.453500	0.744560	0.609090
Er31	Er3	0.982840	0.476100	0.173650
Er41	Er4	0.546500	0.755440	0.109090
Er51	Er5	0.982840	0.976100	0.326360
Er61	Er6	0.546500	0.255440	0.390910
Er71	Er7	0.017160	0.523900	0.826360
Er81	Er8	0.453500	0.244560	0.890910
C11	C1	0.918400	0.788400	0.707200
C21	C2	0.934800	0.694800	0.728300
C31	C3	0.119300	0.759400	0.795400
C41	C4	0.103800	0.853300	0.772900
C51	C5	0.801700	0.818000	0.662300
C61	C6	0.860500	0.596600	0.706500
C71	C7	0.235500	0.726800	0.840500
C81	C8	0.181100	0.952000	0.794000
C91	C9	0.928600	0.070300	0.529300
C101	C10	0.909500	0.054000	0.467100
C111	C11	0.864800	0.146600	0.570300
C121	C12	0.810200	0.103500	0.423100
C131	C13	0.081600	0.711600	0.207200
C141	C14	0.065200	0.805200	0.228300
C151	C15	0.880700	0.740600	0.295400
C161	C16	0.896200	0.646700	0.272900
C171	C17	0.198300	0.682000	0.162300
C181	C18	0.139500	0.903400	0.206500
C191	C19	0.764500	0.773200	0.340500
C201	C20	0.818900	0.548000	0.294000
C211	C21	0.071400	0.429700	0.029300
C221	C22	0.090500	0.446000	0.967100
C231	C23	0.135200	0.353400	0.070300
C241	C24	0.189800	0.396500	0.923100
C251	C25	0.081600	0.211600	0.292800
C261	C26	0.065200	0.305200	0.271700
C271	C27	0.880700	0.240600	0.204600
C281	C28	0.896200	0.146700	0.227100
C291	C29	0.198300	0.182000	0.337700
C301	C30	0.139500	0.403400	0.293500
C311	C31	0.764500	0.273200	0.159500
C321	C32	0.818900	0.048000	0.206000
C331	C33	0.071400	0.929700	0.470700
C341	C34	0.090500	0.946000	0.532900
C351	C35	0.135200	0.853400	0.429700
C361	C36	0.189800	0.896500	0.576900
C371	C37	0.918400	0.288400	0.792800
C381	C38	0.934800	0.194800	0.771700
C391	C39	0.119300	0.259400	0.704600
C401	C40	0.103800	0.353300	0.727100
C411	C41	0.801700	0.318000	0.837700
C421	C42	0.860500	0.096600	0.793500
C431	C43	0.235500	0.226800	0.659500
C441	C44	0.181100	0.452000	0.706000
C451	C45	0.928600	0.570300	0.970700
C461	C46	0.909500	0.554000	0.032900
C471	C47	0.864800	0.646600	0.929700
C481	C48	0.810200	0.603500	0.076900
N11	N1	0.005500	0.864300	0.729100
N21	N2	0.032900	0.683600	0.772800
N31	N3	0.017000	0.014900	0.559100
N41	N4	0.994500	0.635700	0.229100
N51	N5	0.967100	0.816400	0.272800
N61	N6	0.983000	0.485100	0.059100
N71	N7	0.994500	0.135700	0.270900
N81	N8	0.967100	0.316400	0.227200
N91	N9	0.983000	0.985100	0.440900
N101	N10	0.005500	0.364300	0.770900
N111	N11	0.032900	0.183600	0.727200
N121	N12	0.017000	0.514900	0.940900
O11	O1	0.829300	0.902300	0.639400
O21	O2	0.688700	0.759700	0.654300
O31	O3	0.829200	0.583600	0.652400
O41	O4	0.845900	0.531300	0.747500
O51	O5	0.202600	0.640900	0.861900
O61	O6	0.351400	0.780600	0.849500
O71	O7	0.210700	0.964500	0.847900
O81	O8	0.196500	0.016300	0.752300
O91	O9	0.849300	0.119600	0.625100
O101	O10	0.842500	0.227800	0.550000
O111	O11	0.718800	0.159200	0.441500
O121	O12	0.823300	0.078500	0.368400
O131	O13	0.170700	0.597700	0.139400
O141	O14	0.311300	0.740300	0.154300
O151	O15	0.170800	0.916400	0.152400
O161	O16	0.154100	0.968700	0.247500
O171	O17	0.797400	0.859100	0.361900
O181	O18	0.648600	0.719400	0.349500
O191	O19	0.789300	0.535500	0.347900
O201	O20	0.803500	0.483700	0.252300
O211	O21	0.150700	0.380400	0.125100
O221	O22	0.157500	0.272200	0.050000
O231	O23	0.281200	0.340800	0.941500
O241	O24	0.176700	0.421500	0.868400
O251	O25	0.170700	0.097700	0.360600
O261	O26	0.311300	0.240300	0.345700
O271	O27	0.170800	0.416400	0.347600
O281	O28	0.154100	0.468700	0.252500
O291	O29	0.797400	0.359100	0.138100
O301	O30	0.648600	0.219400	0.150500
O311	O31	0.789300	0.035500	0.152100
O321	O32	0.803500	0.983700	0.247700
O331	O33	0.150700	0.880400	0.374900
O341	O34	0.157500	0.772200	0.450000
O351	O35	0.281200	0.840800	0.558500
O361	O36	0.176700	0.921500	0.631600
O371	O37	0.829300	0.402300	0.860600
O381	O38	0.688700	0.259700	0.845700
O391	O39	0.829200	0.083600	0.847600
O401	O40	0.845900	0.031300	0.752500
O411	O41	0.202600	0.140900	0.638100
O421	O42	0.351400	0.280600	0.650500
O431	O43	0.210700	0.464500	0.652100
O441	O44	0.196500	0.516300	0.747700
O451	O45	0.849300	0.619600	0.874900
O461	O46	0.842500	0.727800	0.950000
O471	O47	0.718800	0.659200	0.058500
O481	O48	0.823300	0.578500	0.131600
