data_UGUHAG_clean_PM
_symmetry_space_group_name_H-M	'P1'
_cell_length_a	9.143200
_cell_length_b	13.692000
_cell_length_c	22.304000
_cell_angle_alpha	90.000000
_cell_angle_beta	90.000000
_cell_angle_gamma	90.430000
_symmetry_Int_Tables_number 1

loop_
_symmetry_equiv_pos_as_xyz
'x,y,z'

loop_
_atom_site_label
_atom_site_type_symbol
_atom_site_fract_x
_atom_site_fract_y
_atom_site_fract_z
Lu11	Lu1	0.963180	0.979520	0.329000
Lu21	Lu2	0.467360	0.229230	0.424660
Lu31	Lu3	0.036820	0.520480	0.829000
Lu41	Lu4	0.532640	0.270770	0.924660
Lu51	Lu5	0.036820	0.020480	0.671000
Lu61	Lu6	0.532640	0.770770	0.575340
Lu71	Lu7	0.963180	0.479520	0.171000
Lu81	Lu8	0.467360	0.729230	0.075340
C11	C1	0.758100	0.074200	0.224600
C21	C2	0.871400	0.156300	0.233200
C31	C3	0.876300	0.247800	0.202800
C41	C4	0.806700	0.275400	0.141600
C51	C5	0.101600	0.406500	0.295200
C61	C6	0.044600	0.308800	0.274500
C71	C7	0.052800	0.215600	0.298600
C81	C8	0.165900	0.177500	0.343900
C91	C9	0.136900	0.848900	0.426700
C101	C10	0.075400	0.929700	0.467400
C111	C11	0.105200	0.946400	0.531100
C121	C12	0.222600	0.905500	0.569500
C131	C13	0.241900	0.425800	0.724600
C141	C14	0.128600	0.343700	0.733200
C151	C15	0.123700	0.252200	0.702800
C161	C16	0.193300	0.224600	0.641600
C171	C17	0.898400	0.093500	0.795200
C181	C18	0.955400	0.191200	0.774500
C191	C19	0.947200	0.284400	0.798600
C201	C20	0.834100	0.322500	0.843900
C211	C21	0.863100	0.651100	0.926700
C221	C22	0.924600	0.570300	0.967400
C231	C23	0.894800	0.553600	0.031100
C241	C24	0.777400	0.594500	0.069500
C251	C25	0.241900	0.925800	0.775400
C261	C26	0.128600	0.843700	0.766800
C271	C27	0.123700	0.752200	0.797200
C281	C28	0.193300	0.724600	0.858400
C291	C29	0.898400	0.593500	0.704800
C301	C30	0.955400	0.691200	0.725500
C311	C31	0.947200	0.784400	0.701400
C321	C32	0.834100	0.822500	0.656100
C331	C33	0.863100	0.151100	0.573300
C341	C34	0.924600	0.070300	0.532600
C351	C35	0.894800	0.053600	0.468900
C361	C36	0.777400	0.094500	0.430500
C371	C37	0.758100	0.574200	0.275400
C381	C38	0.871400	0.656300	0.266800
C391	C39	0.876300	0.747800	0.297200
C401	C40	0.806700	0.775400	0.358400
C411	C41	0.101600	0.906500	0.204800
C421	C42	0.044600	0.808800	0.225500
C431	C43	0.052800	0.715600	0.201400
C441	C44	0.165900	0.677500	0.156100
C451	C45	0.136900	0.348900	0.073300
C461	C46	0.075400	0.429700	0.032600
C471	C47	0.105200	0.446400	0.968900
C481	C48	0.222600	0.405500	0.930500
N11	N1	0.965200	0.142900	0.278300
N21	N2	0.955200	0.320800	0.224400
N31	N3	0.971800	0.985200	0.441100
N41	N4	0.034800	0.357100	0.778300
N51	N5	0.044800	0.179200	0.724400
N61	N6	0.028200	0.514800	0.941100
N71	N7	0.034800	0.857100	0.721700
N81	N8	0.044800	0.679200	0.775600
N91	N9	0.028200	0.014800	0.558900
N101	N10	0.965200	0.642900	0.221700
N111	N11	0.955200	0.820800	0.275600
N121	N12	0.971800	0.485200	0.058900
O11	O1	0.791600	0.996600	0.255200
O21	O2	0.649000	0.086800	0.194300
O31	O3	0.777000	0.208500	0.105500
O41	O4	0.795500	0.367400	0.134200
O51	O5	0.122400	0.468200	0.253500
O61	O6	0.129000	0.417200	0.349600
O71	O7	0.264000	0.232000	0.360700
O81	O8	0.145900	0.090500	0.362300
O91	O9	0.137000	0.874200	0.372300
O101	O10	0.169700	0.769700	0.448700
O111	O11	0.327700	0.860100	0.544600
O121	O12	0.207100	0.919100	0.625700
O131	O13	0.208400	0.503400	0.755200
O141	O14	0.351000	0.413200	0.694300
O151	O15	0.223000	0.291500	0.605500
O161	O16	0.204500	0.132600	0.634200
O171	O17	0.877600	0.031800	0.753500
O181	O18	0.871000	0.082800	0.849600
O191	O19	0.736000	0.268000	0.860700
O201	O20	0.854100	0.409500	0.862300
O211	O21	0.863000	0.625800	0.872300
O221	O22	0.830300	0.730300	0.948700
O231	O23	0.672300	0.639900	0.044600
O241	O24	0.792900	0.580900	0.125700
O251	O25	0.208400	0.003400	0.744800
O261	O26	0.351000	0.913200	0.805700
O271	O27	0.223000	0.791500	0.894500
O281	O28	0.204500	0.632600	0.865800
O291	O29	0.877600	0.531800	0.746500
O301	O30	0.871000	0.582800	0.650400
O311	O31	0.736000	0.768000	0.639300
O321	O32	0.854100	0.909500	0.637700
O331	O33	0.863000	0.125800	0.627700
O341	O34	0.830300	0.230300	0.551300
O351	O35	0.672300	0.139900	0.455400
O361	O36	0.792900	0.080900	0.374300
O371	O37	0.791600	0.496600	0.244800
O381	O38	0.649000	0.586800	0.305700
O391	O39	0.777000	0.708500	0.394500
O401	O40	0.795500	0.867400	0.365800
O411	O41	0.122400	0.968200	0.246500
O421	O42	0.129000	0.917200	0.150400
O431	O43	0.264000	0.732000	0.139300
O441	O44	0.145900	0.590500	0.137700
O451	O45	0.137000	0.374200	0.127700
O461	O46	0.169700	0.269700	0.051300
O471	O47	0.327700	0.360100	0.955400
O481	O48	0.207100	0.419100	0.874300
