data_UGUQOC_charged_PM
_symmetry_space_group_name_H-M	'P1'
_cell_length_a	9.586600
_cell_length_b	9.586600
_cell_length_c	11.072000
_cell_angle_alpha	91.187100
_cell_angle_beta	91.187100
_cell_angle_gamma	105.878000
_symmetry_Int_Tables_number 1

loop_
_symmetry_equiv_pos_as_xyz
'x,y,z'

loop_
_atom_site_label
_atom_site_type_symbol
_atom_site_fract_x
_atom_site_fract_y
_atom_site_fract_z
Zn11	Zn1	0.994950	0.005050	0.750000
Zn21	Zn2	0.005050	0.994950	0.250000
H11	H1	0.446000	0.950000	0.788000
H21	H2	0.050000	0.554000	0.712000
H31	H3	0.554000	0.050000	0.212000
H41	H4	0.950000	0.446000	0.288000
C11	C1	0.207520	0.947980	0.899660
C21	C2	0.357860	0.978620	0.955650
C31	C3	0.469140	0.978360	0.877890
C41	C4	0.388550	0.000970	0.079620
C51	C5	0.274170	0.005010	0.169210
C61	C6	0.052020	0.792480	0.600340
C71	C7	0.021380	0.642140	0.544350
C81	C8	0.021640	0.530860	0.622110
C91	C9	0.999030	0.611450	0.420380
C101	C10	0.994990	0.725830	0.330790
C111	C11	0.792480	0.052020	0.100340
C121	C12	0.642140	0.021380	0.044350
C131	C13	0.530860	0.021640	0.122110
C141	C14	0.611450	0.999030	0.920380
C151	C15	0.725830	0.994990	0.830790
C161	C16	0.947980	0.207520	0.399660
C171	C17	0.978620	0.357860	0.455650
C181	C18	0.978360	0.469140	0.377890
C191	C19	0.000970	0.388550	0.579620
C201	C20	0.005010	0.274170	0.669210
O11	O1	0.178440	0.054160	0.846940
O21	O2	0.125940	0.823540	0.900310
O31	O3	0.298510	0.991890	0.277950
O41	O4	0.156390	0.023170	0.127550
O51	O5	0.945840	0.821560	0.653060
O61	O6	0.176460	0.874060	0.599690
O71	O7	0.008110	0.701490	0.222050
O81	O8	0.976830	0.843610	0.372450
O91	O9	0.821560	0.945840	0.153060
O101	O10	0.874060	0.176460	0.099690
O111	O11	0.701490	0.008110	0.722050
O121	O12	0.843610	0.976830	0.872450
O131	O13	0.054160	0.178440	0.346940
O141	O14	0.823540	0.125940	0.400310
O151	O15	0.991890	0.298510	0.777950
O161	O16	0.023170	0.156390	0.627550
H51	H5	0.856000	0.596000	0.980000
H61	H6	0.779000	0.739000	0.956000
H71	H7	0.919000	0.745000	0.954000
H81	H8	0.878000	0.732000	0.088000
N11	N1	0.849000	0.696800	0.998000
H91	H9	0.404000	0.144000	0.520000
H101	H10	0.261000	0.221000	0.544000
H111	H11	0.255000	0.081000	0.546000
H121	H12	0.268000	0.122000	0.412000
N21	N2	0.303200	0.151000	0.502000
H131	H13	0.144000	0.404000	0.020000
H141	H14	0.221000	0.261000	0.044000
H151	H15	0.081000	0.255000	0.046000
H161	H16	0.122000	0.268000	0.912000
N31	N3	0.151000	0.303200	0.002000
H171	H17	0.596000	0.856000	0.480000
H181	H18	0.739000	0.779000	0.456000
H191	H19	0.745000	0.919000	0.454000
H201	H20	0.732000	0.878000	0.588000
N41	N4	0.696800	0.849000	0.498000
