data_UHASED_clean_PM
_symmetry_space_group_name_H-M	'P1'
_cell_length_a	8.530000
_cell_length_b	11.280000
_cell_length_c	13.917000
_cell_angle_alpha	90.000000
_cell_angle_beta	112.750000
_cell_angle_gamma	90.000000
_symmetry_Int_Tables_number 1

loop_
_symmetry_equiv_pos_as_xyz
'x,y,z'

loop_
_atom_site_label
_atom_site_type_symbol
_atom_site_fract_x
_atom_site_fract_y
_atom_site_fract_z
Cu11	Cu1	0.616420	0.412230	0.530930
C11	C1	0.950300	0.653300	0.404200
H11	H1	0.003800	0.596100	0.454300
C21	C2	0.779700	0.662000	0.364600
C31	C3	0.781200	0.811100	0.251200
C41	C4	0.952200	0.815100	0.290700
H21	H2	0.007300	0.872200	0.266900
C51	C5	0.050700	0.731700	0.369500
C61	C6	0.669100	0.595600	0.408800
C71	C7	0.671600	0.884400	0.159100
O11	O1	0.691200	0.737200	0.287170
O21	O2	0.208700	0.729000	0.403610
O31	O3	0.730600	0.500300	0.454900
O41	O4	0.533100	0.644300	0.399900
O51	O5	0.533600	0.838400	0.100600
O61	O6	0.732100	0.982000	0.149360
Cu21	Cu2	0.383580	0.912230	0.969070
C81	C8	0.049700	0.153300	0.095800
H31	H3	0.996200	0.096100	0.045700
C91	C9	0.220300	0.162000	0.135400
C101	C10	0.218800	0.311100	0.248800
C111	C11	0.047800	0.315100	0.209300
H41	H4	0.992700	0.372200	0.233100
C121	C12	0.949300	0.231700	0.130500
C131	C13	0.330900	0.095600	0.091200
C141	C14	0.328400	0.384400	0.340900
O71	O7	0.308800	0.237200	0.212830
O81	O8	0.791300	0.229000	0.096390
O91	O9	0.269400	0.000300	0.045100
O101	O10	0.466900	0.144300	0.100100
O111	O11	0.466400	0.338400	0.399400
O121	O12	0.267900	0.482000	0.350640
Cu31	Cu3	0.383580	0.587770	0.469070
C151	C15	0.049700	0.346700	0.595800
H51	H5	0.996200	0.403900	0.545700
C161	C16	0.220300	0.338000	0.635400
C171	C17	0.218800	0.188900	0.748800
C181	C18	0.047800	0.184900	0.709300
H61	H6	0.992700	0.127800	0.733100
C191	C19	0.949300	0.268300	0.630500
C201	C20	0.330900	0.404400	0.591200
C211	C21	0.328400	0.115600	0.840900
O131	O13	0.308800	0.262800	0.712830
O141	O14	0.791300	0.271000	0.596390
O151	O15	0.269400	0.499700	0.545100
O161	O16	0.466900	0.355700	0.600100
O171	O17	0.466400	0.161600	0.899400
O181	O18	0.267900	0.018000	0.850640
Cu41	Cu4	0.616420	0.087770	0.030930
C221	C22	0.950300	0.846700	0.904200
H71	H7	0.003800	0.903900	0.954300
C231	C23	0.779700	0.838000	0.864600
C241	C24	0.781200	0.688900	0.751200
C251	C25	0.952200	0.684900	0.790700
H81	H8	0.007300	0.627800	0.766900
C261	C26	0.050700	0.768300	0.869500
C271	C27	0.669100	0.904400	0.908800
C281	C28	0.671600	0.615600	0.659100
O191	O19	0.691200	0.762800	0.787170
O201	O20	0.208700	0.771000	0.903610
O211	O21	0.730600	0.999700	0.954900
O221	O22	0.533100	0.855700	0.899900
O231	O23	0.533600	0.661600	0.600600
O241	O24	0.732100	0.518000	0.649360
