data_UHIYOB_clean_PM
_symmetry_space_group_name_H-M	'P1'
_cell_length_a	9.489000
_cell_length_b	13.441000
_cell_length_c	18.529000
_cell_angle_alpha	109.804000
_cell_angle_beta	90.008000
_cell_angle_gamma	107.135000
_symmetry_Int_Tables_number 1

loop_
_symmetry_equiv_pos_as_xyz
'x,y,z'

loop_
_atom_site_label
_atom_site_type_symbol
_atom_site_fract_x
_atom_site_fract_y
_atom_site_fract_z
Co11	Co1	0.230100	0.488020	0.317350
Co21	Co2	0.724500	0.476600	0.171440
O11	O1	0.375900	0.397000	0.293000
O21	O2	0.382500	0.580800	0.262600
O31	O3	0.584100	0.395800	0.237700
O41	O4	0.582800	0.572700	0.201300
O51	O5	0.087300	0.584200	0.328500
O61	O6	0.092200	0.400000	0.213100
O71	O7	0.875200	0.577300	0.271900
O81	O8	0.872700	0.388400	0.159800
N11	N1	0.342200	0.595000	0.428100
N21	N2	0.521500	0.904400	0.690700
N31	N3	0.088300	0.368200	0.357300
N41	N4	0.934600	0.050900	0.457500
N51	N5	0.586900	0.354100	0.073400
N61	N6	0.416800	0.023700	0.829900
N71	N7	0.834200	0.583500	0.112000
N81	N8	0.029800	0.916900	0.024800
C11	C1	0.480800	0.434400	0.256900
C21	C2	0.482300	0.535900	0.238400
C31	C3	0.978500	0.540100	0.276200
C41	C4	0.981900	0.432400	0.209200
C51	C5	0.398600	0.706200	0.443600
H11	H1	0.385100	0.733600	0.403900
C61	C6	0.473600	0.781000	0.512500
H21	H2	0.508900	0.858300	0.520900
C71	C7	0.497200	0.741400	0.570000
C81	C8	0.439300	0.631800	0.556700
H31	H3	0.449400	0.603600	0.596400
C91	C9	0.365100	0.560200	0.485300
H41	H4	0.328800	0.482800	0.476500
C101	C10	0.588700	0.819200	0.646400
H51	H5	0.599400	0.774700	0.677900
H61	H6	0.689200	0.856700	0.636300
C111	C11	0.386200	0.851200	0.719400
H71	H7	0.411200	0.814700	0.753600
H81	H8	0.315700	0.793400	0.675400
C121	C12	0.624100	0.983300	0.758100
H91	H9	0.719400	0.018100	0.741400
H101	H10	0.644100	0.943700	0.791300
C131	C13	0.007900	0.393200	0.416600
H111	H11	0.001800	0.466700	0.437200
C141	C14	0.934000	0.316700	0.448500
H121	H12	0.881100	0.339100	0.491500
C151	C15	0.935000	0.208300	0.419700
C161	C16	0.009300	0.183400	0.354900
H131	H13	0.007100	0.108600	0.329100
C171	C17	0.084400	0.262400	0.327500
H141	H14	0.137600	0.241400	0.284500
C181	C18	0.852200	0.125800	0.454700
H151	H15	0.834100	0.166000	0.507700
H161	H16	0.754800	0.081700	0.423900
C191	C19	0.843100	0.967500	0.488600
H171	H17	0.748700	0.924600	0.454600
H181	H18	0.819100	0.006200	0.540500
C201	C20	0.075900	0.110400	0.506500
H191	H19	0.057400	0.152200	0.559000
H201	H20	0.138500	0.164800	0.485300
C211	C21	0.582700	0.248500	0.055700
H211	H21	0.632200	0.228800	0.090800
C221	C22	0.507000	0.166600	0.986900
H221	H22	0.507200	0.092000	0.974200
C231	C23	0.432400	0.194800	0.937900
C241	C24	0.433000	0.302800	0.958800
H231	H23	0.379000	0.324100	0.926600
C251	C25	0.511100	0.378700	0.025400
H241	H24	0.511800	0.453700	0.038700
C261	C26	0.346100	0.110200	0.863300
H251	H25	0.243800	0.075300	0.872700
H261	H26	0.340000	0.147700	0.826200
C271	C27	0.316300	0.935600	0.762500
H271	H27	0.224300	0.898500	0.780600
H281	H28	0.288700	0.970100	0.727500
C281	C28	0.557800	0.072200	0.803200
H291	H29	0.628700	0.126300	0.848300
H301	H30	0.540500	0.112800	0.770100
C291	C29	0.857300	0.552800	0.037500
H311	H31	0.819300	0.475900	0.006800
C301	C30	0.931100	0.623500	0.002700
H321	H32	0.945100	0.595600	0.949700
C311	C31	0.986100	0.736900	0.044400
C321	C32	0.964400	0.771200	0.121900
H331	H33	0.001000	0.847600	0.153700
C331	C33	0.887900	0.691600	0.152200
H341	H34	0.873100	0.716400	0.205200
C341	C34	0.081400	0.820800	0.013300
H351	H35	0.184100	0.847300	0.038700
H361	H36	0.083900	0.783800	0.957300
C351	C35	0.903900	0.891100	0.969200
H371	H37	0.821700	0.828900	0.973900
H381	H38	0.933000	0.866900	0.916300
C361	C36	0.148100	0.010200	0.017900
H391	H39	0.181300	0.987900	0.965800
H401	H40	0.233900	0.030300	0.056200
Co31	Co3	0.769900	0.511980	0.682650
Co41	Co4	0.275500	0.523400	0.828560
O91	O9	0.624100	0.603000	0.707000
O101	O10	0.617500	0.419200	0.737400
O111	O11	0.415900	0.604200	0.762300
O121	O12	0.417200	0.427300	0.798700
O131	O13	0.912700	0.415800	0.671500
O141	O14	0.907800	0.600000	0.786900
O151	O15	0.124800	0.422700	0.728100
O161	O16	0.127300	0.611600	0.840200
N91	N9	0.657800	0.405000	0.571900
N101	N10	0.478500	0.095600	0.309300
N111	N11	0.911700	0.631800	0.642700
N121	N12	0.065400	0.949100	0.542500
N131	N13	0.413100	0.645900	0.926600
N141	N14	0.583200	0.976300	0.170100
N151	N15	0.165800	0.416500	0.888000
N161	N16	0.970200	0.083100	0.975200
C371	C37	0.519200	0.565600	0.743100
C381	C38	0.517700	0.464100	0.761600
C391	C39	0.021500	0.459900	0.723800
C401	C40	0.018100	0.567600	0.790800
C411	C41	0.601400	0.293800	0.556400
H411	H41	0.614900	0.266400	0.596100
C421	C42	0.526400	0.219000	0.487500
H421	H42	0.491100	0.141700	0.479100
C431	C43	0.502800	0.258600	0.430000
C441	C44	0.560700	0.368200	0.443300
H431	H43	0.550600	0.396400	0.403600
C451	C45	0.634900	0.439800	0.514700
H441	H44	0.671200	0.517200	0.523500
C461	C46	0.411300	0.180800	0.353600
H451	H45	0.400600	0.225300	0.322100
H461	H46	0.310800	0.143300	0.363700
C471	C47	0.613800	0.148800	0.280600
H471	H47	0.588800	0.185300	0.246400
H481	H48	0.684300	0.206600	0.324600
C481	C48	0.375900	0.016700	0.241900
H491	H49	0.280600	0.981900	0.258600
H501	H50	0.355900	0.056300	0.208700
C491	C49	0.992100	0.606800	0.583400
H511	H51	0.998200	0.533300	0.562800
C501	C50	0.066000	0.683300	0.551500
H521	H52	0.118900	0.660900	0.508500
C511	C51	0.065000	0.791700	0.580300
C521	C52	0.990700	0.816600	0.645100
H531	H53	0.992900	0.891400	0.670900
C531	C53	0.915600	0.737600	0.672500
H541	H54	0.862400	0.758600	0.715500
C541	C54	0.147800	0.874200	0.545300
H551	H55	0.165900	0.834000	0.492300
H561	H56	0.245200	0.918300	0.576100
C551	C55	0.156900	0.032500	0.511400
H571	H57	0.251300	0.075400	0.545400
H581	H58	0.180900	0.993800	0.459500
C561	C56	0.924100	0.889600	0.493500
H591	H59	0.942600	0.847800	0.441000
H601	H60	0.861500	0.835200	0.514700
C571	C57	0.417300	0.751500	0.944300
H611	H61	0.367800	0.771200	0.909200
C581	C58	0.493000	0.833400	0.013100
H621	H62	0.492800	0.908000	0.025800
C591	C59	0.567600	0.805200	0.062100
C601	C60	0.567000	0.697200	0.041200
H631	H63	0.621000	0.675900	0.073400
C611	C61	0.488900	0.621300	0.974600
H641	H64	0.488200	0.546300	0.961300
C621	C62	0.653900	0.889800	0.136700
H651	H65	0.756200	0.924700	0.127300
H661	H66	0.660000	0.852300	0.173800
C631	C63	0.683700	0.064400	0.237500
H671	H67	0.775700	0.101500	0.219400
H681	H68	0.711300	0.029900	0.272500
C641	C64	0.442200	0.927800	0.196800
H691	H69	0.371300	0.873700	0.151700
H701	H70	0.459500	0.887200	0.229900
C651	C65	0.142700	0.447200	0.962500
H711	H71	0.180700	0.524100	0.993200
C661	C66	0.068900	0.376500	0.997300
H721	H72	0.054900	0.404400	0.050300
C671	C67	0.013900	0.263100	0.955600
C681	C68	0.035600	0.228800	0.878100
H731	H73	0.999000	0.152400	0.846300
C691	C69	0.112100	0.308400	0.847800
H741	H74	0.126900	0.283600	0.794800
C701	C70	0.918600	0.179200	0.986700
H751	H75	0.815900	0.152700	0.961300
H761	H76	0.916100	0.216200	0.042700
C711	C71	0.096100	0.108900	0.030800
H771	H77	0.178300	0.171100	0.026100
H781	H78	0.067000	0.133100	0.083700
C721	C72	0.851900	0.989800	0.982100
H791	H79	0.818700	0.012100	0.034200
H801	H80	0.766100	0.969700	0.943800
