data_UJAQAY_clean_PM
_symmetry_space_group_name_H-M	'P1'
_cell_length_a	12.374700
_cell_length_b	14.194600
_cell_length_c	15.317600
_cell_angle_alpha	107.770000
_cell_angle_beta	113.825000
_cell_angle_gamma	90.000000
_symmetry_Int_Tables_number 1

loop_
_symmetry_equiv_pos_as_xyz
'x,y,z'

loop_
_atom_site_label
_atom_site_type_symbol
_atom_site_fract_x
_atom_site_fract_y
_atom_site_fract_z
Mn11	Mn1	0.982030	0.003600	0.752060
Mn21	Mn2	0.229970	0.496400	0.247940
Mn31	Mn3	0.017970	0.996400	0.247940
Mn41	Mn4	0.770030	0.503600	0.752060
Mn51	Mn5	0.000000	0.000000	0.500000
Mn61	Mn6	0.500000	0.500000	0.500000
H11	H1	0.152700	0.288700	0.905000
H21	H2	0.374100	0.558300	0.163600
H31	H3	0.358600	0.528400	0.930400
H41	H4	0.218700	0.295000	0.667400
H51	H5	0.464100	0.568900	0.765200
H61	H6	0.467700	0.562300	0.868800
H71	H7	0.323900	0.541400	0.615200
H81	H8	0.154400	0.746500	0.492800
H91	H9	0.227200	0.776300	0.783200
H101	H10	0.247700	0.211300	0.095000
H111	H11	0.210500	0.941700	0.836400
H121	H12	0.428200	0.971600	0.069600
H131	H13	0.551300	0.205000	0.332600
H141	H14	0.698900	0.931100	0.234800
H151	H15	0.598900	0.937700	0.131200
H161	H16	0.708700	0.958600	0.384800
H171	H17	0.661600	0.753500	0.507200
H181	H18	0.444000	0.723700	0.216800
H191	H19	0.847300	0.711300	0.095000
H201	H20	0.625900	0.441700	0.836400
H211	H21	0.641400	0.471600	0.069600
H221	H22	0.781300	0.705000	0.332600
H231	H23	0.535900	0.431100	0.234800
H241	H24	0.532300	0.437700	0.131200
H251	H25	0.676100	0.458600	0.384800
H261	H26	0.845600	0.253500	0.507200
H271	H27	0.772800	0.223700	0.216800
H281	H28	0.752300	0.788700	0.905000
H291	H29	0.789500	0.058300	0.163600
H301	H30	0.571800	0.028400	0.930400
H311	H31	0.448700	0.795000	0.667400
H321	H32	0.301100	0.068900	0.765200
H331	H33	0.401100	0.062300	0.868800
H341	H34	0.291300	0.041400	0.615200
H351	H35	0.338400	0.246500	0.492800
H361	H36	0.556000	0.276300	0.783200
C11	C1	0.099590	0.175600	0.714380
C21	C2	0.173480	0.276900	0.775960
C31	C3	0.189020	0.321700	0.876240
C41	C4	0.258090	0.414700	0.933180
C51	C5	0.274930	0.462800	0.039660
C61	C6	0.312570	0.464200	0.891540
C71	C7	0.298280	0.418000	0.793360
C81	C8	0.228670	0.325300	0.735140
C91	C9	0.414020	0.556400	0.798240
C101	C10	0.285390	0.654500	0.712180
C111	C11	0.288730	0.601200	0.621660
C121	C12	0.240170	0.635900	0.539940
C131	C13	0.251660	0.581300	0.443520
C141	C14	0.187070	0.722900	0.548540
C151	C15	0.182480	0.774400	0.639760
C161	C16	0.126400	0.868900	0.647400
C171	C17	0.230990	0.740800	0.721180
C181	C18	0.987170	0.860800	0.895340
C191	C19	0.006400	0.798500	0.952000
C201	C20	0.385210	0.324400	0.285620
C211	C21	0.397520	0.223100	0.224040
C221	C22	0.312780	0.178300	0.123760
C231	C23	0.324910	0.085300	0.066820
C241	C24	0.235270	0.037200	0.960340
C251	C25	0.421030	0.035800	0.108460
C261	C26	0.504920	0.082000	0.206640
C271	C27	0.493530	0.174700	0.264860
C281	C28	0.615780	0.943600	0.201760
C291	C29	0.573210	0.845500	0.287820
C301	C30	0.667070	0.898800	0.378340
C311	C31	0.700230	0.864100	0.460060
C321	C32	0.808140	0.918700	0.556480
C331	C33	0.638530	0.777100	0.451460
C341	C34	0.542720	0.725600	0.360240
C351	C35	0.479000	0.631100	0.352600
C361	C36	0.509810	0.759200	0.278820
C371	C37	0.091830	0.639200	0.104660
C381	C38	0.054400	0.701500	0.048000
C391	C39	0.900410	0.824400	0.285620
C401	C40	0.826520	0.723100	0.224040
C411	C41	0.810980	0.678300	0.123760
C421	C42	0.741910	0.585300	0.066820
C431	C43	0.725070	0.537200	0.960340
C441	C44	0.687430	0.535800	0.108460
C451	C45	0.701720	0.582000	0.206640
C461	C46	0.771330	0.674700	0.264860
C471	C47	0.585980	0.443600	0.201760
C481	C48	0.714610	0.345500	0.287820
C491	C49	0.711270	0.398800	0.378340
C501	C50	0.759830	0.364100	0.460060
C511	C51	0.748340	0.418700	0.556480
C521	C52	0.812930	0.277100	0.451460
C531	C53	0.817520	0.225600	0.360240
C541	C54	0.873600	0.131100	0.352600
C551	C55	0.769010	0.259200	0.278820
C561	C56	0.012830	0.139200	0.104660
C571	C57	0.993600	0.201500	0.048000
C581	C58	0.614790	0.675600	0.714380
C591	C59	0.602480	0.776900	0.775960
C601	C60	0.687220	0.821700	0.876240
C611	C61	0.675090	0.914700	0.933180
C621	C62	0.764730	0.962800	0.039660
C631	C63	0.578970	0.964200	0.891540
C641	C64	0.495080	0.918000	0.793360
C651	C65	0.506470	0.825300	0.735140
C661	C66	0.384220	0.056400	0.798240
C671	C67	0.426790	0.154500	0.712180
C681	C68	0.332930	0.101200	0.621660
C691	C69	0.299770	0.135900	0.539940
C701	C70	0.191860	0.081300	0.443520
C711	C71	0.361470	0.222900	0.548540
C721	C72	0.457280	0.274400	0.639760
C731	C73	0.521000	0.368900	0.647400
C741	C74	0.490190	0.240800	0.721180
C751	C75	0.908170	0.360800	0.895340
C761	C76	0.945600	0.298500	0.952000
N11	N1	0.947830	0.902100	0.830260
N21	N2	0.117570	0.597900	0.169740
N31	N3	0.052170	0.097900	0.169740
N41	N4	0.882430	0.402100	0.830260
O11	O1	0.047390	0.140660	0.756580
O21	O2	0.094250	0.134130	0.627900
O31	O3	0.353550	0.543410	0.088880
O41	O4	0.220630	0.430200	0.077260
O51	O5	0.351270	0.458910	0.746640
O61	O6	0.336940	0.629140	0.799340
O71	O7	0.309250	0.508100	0.441080
O81	O8	0.204480	0.611000	0.369000
O91	O9	0.113100	0.911970	0.728120
O101	O10	0.096400	0.900250	0.575000
O111	O11	0.290810	0.359340	0.243420
O121	O12	0.466350	0.365870	0.372100
O131	O13	0.264670	0.956590	0.911120
O141	O14	0.143370	0.069800	0.922740
O151	O15	0.604630	0.041090	0.253360
O161	O16	0.537600	0.870860	0.200660
O171	O17	0.868170	0.991900	0.558920
O181	O18	0.835480	0.889000	0.631000
O191	O19	0.384980	0.588030	0.271880
O201	O20	0.521400	0.599750	0.425000
O211	O21	0.952610	0.859340	0.243420
O221	O22	0.905750	0.865870	0.372100
O231	O23	0.646450	0.456590	0.911120
O241	O24	0.779370	0.569800	0.922740
O251	O25	0.648730	0.541090	0.253360
O261	O26	0.663060	0.370860	0.200660
O271	O27	0.690750	0.491900	0.558920
O281	O28	0.795520	0.389000	0.631000
O291	O29	0.886900	0.088030	0.271880
O301	O30	0.903600	0.099750	0.425000
O311	O31	0.709190	0.640660	0.756580
O321	O32	0.533650	0.634130	0.627900
O331	O33	0.735330	0.043410	0.088880
O341	O34	0.856630	0.930200	0.077260
O351	O35	0.395370	0.958910	0.746640
O361	O36	0.462400	0.129140	0.799340
O371	O37	0.131830	0.008100	0.441080
O381	O38	0.164520	0.111000	0.369000
O391	O39	0.615020	0.411970	0.728120
O401	O40	0.478600	0.400250	0.575000
