data_UJEFOE01_clean_PM
_symmetry_space_group_name_H-M	'P1'
_cell_length_a	8.344000
_cell_length_b	12.319400
_cell_length_c	17.558000
_cell_angle_alpha	98.058300
_cell_angle_beta	90.000000
_cell_angle_gamma	109.795000
_symmetry_Int_Tables_number 1

loop_
_symmetry_equiv_pos_as_xyz
'x,y,z'

loop_
_atom_site_label
_atom_site_type_symbol
_atom_site_fract_x
_atom_site_fract_y
_atom_site_fract_z
Yb11	Yb1	0.817730	0.000000	0.750000
Yb21	Yb2	0.182270	0.000000	0.250000
Yb31	Yb3	0.000000	0.000000	0.000000
Yb41	Yb4	0.000000	0.000000	0.500000
H11	H1	0.744800	0.621800	0.936300
H21	H2	0.507300	0.691400	0.761400
H31	H3	0.327500	0.501200	0.737600
H41	H4	0.643300	0.420000	0.973000
H51	H5	0.448100	0.238200	0.956700
H61	H6	0.229200	0.303200	0.774000
H71	H7	0.976400	0.357800	0.871200
H81	H8	0.800100	0.244000	0.069700
H91	H9	0.882500	0.430200	0.131000
H101	H10	0.123000	0.378200	0.563700
H111	H11	0.815900	0.308600	0.738600
H121	H12	0.826300	0.498800	0.762400
H131	H13	0.223300	0.580000	0.527000
H141	H14	0.209900	0.761800	0.543300
H151	H15	0.926000	0.696800	0.726000
H161	H16	0.618600	0.642200	0.628800
H171	H17	0.556100	0.756000	0.430300
H181	H18	0.452300	0.569800	0.369000
H191	H19	0.255200	0.378200	0.063700
H201	H20	0.492700	0.308600	0.238600
H211	H21	0.672500	0.498800	0.262400
H221	H22	0.356700	0.580000	0.027000
H231	H23	0.551900	0.761800	0.043300
H241	H24	0.770800	0.696800	0.226000
H251	H25	0.023600	0.642200	0.128800
H261	H26	0.199900	0.756000	0.930300
H271	H27	0.117500	0.569800	0.869000
H281	H28	0.877000	0.621800	0.436300
H291	H29	0.184100	0.691400	0.261400
H301	H30	0.173700	0.501200	0.237600
H311	H31	0.776700	0.420000	0.473000
H321	H32	0.790100	0.238200	0.456700
H331	H33	0.074000	0.303200	0.274000
H341	H34	0.381400	0.357800	0.371200
H351	H35	0.443900	0.244000	0.569700
H361	H36	0.547700	0.430200	0.631000
C11	C1	0.658900	0.596800	0.897500
C21	C2	0.642300	0.673600	0.852500
C31	C3	0.517000	0.637800	0.792100
C41	C4	0.409200	0.524400	0.778100
C51	C5	0.420500	0.443000	0.824300
C61	C6	0.548300	0.479600	0.886500
C71	C7	0.557800	0.398200	0.934200
C81	C8	0.443900	0.289800	0.923500
C91	C9	0.317300	0.252400	0.862500
C101	C10	0.310700	0.328800	0.814700
C111	C11	0.753400	0.799200	0.868800
C121	C12	0.181400	0.134800	0.856300
C131	C13	0.959500	0.373400	0.923300
C141	C14	0.882100	0.283400	0.962300
C151	C15	0.853000	0.305600	0.042900
C161	C16	0.902800	0.416000	0.079100
C171	C17	0.014400	0.489000	0.960000
C181	C18	0.832700	0.157000	0.922200
C191	C19	0.062100	0.403200	0.602500
C201	C20	0.968700	0.326400	0.647500
C211	C21	0.879200	0.362200	0.707900
C221	C22	0.884800	0.475600	0.721900
C231	C23	0.977500	0.557000	0.675700
C241	C24	0.068700	0.520400	0.613500
C251	C25	0.159600	0.601800	0.565800
C261	C26	0.154100	0.710200	0.576500
C271	C27	0.064900	0.747600	0.637500
C281	C28	0.981900	0.671200	0.685300
C291	C29	0.954200	0.200800	0.631200
C301	C30	0.046600	0.865200	0.643700
C311	C31	0.586100	0.626600	0.576700
C321	C32	0.598700	0.716600	0.537700
C331	C33	0.547400	0.694400	0.457100
C341	C34	0.486800	0.584000	0.420900
C351	C35	0.525400	0.511000	0.540000
C361	C36	0.675700	0.843000	0.577800
C371	C37	0.341100	0.403200	0.102500
C381	C38	0.357700	0.326400	0.147500
C391	C39	0.483000	0.362200	0.207900
C401	C40	0.590800	0.475600	0.221900
C411	C41	0.579500	0.557000	0.175700
C421	C42	0.451700	0.520400	0.113500
C431	C43	0.442200	0.601800	0.065800
C441	C44	0.556100	0.710200	0.076500
C451	C45	0.682700	0.747600	0.137500
C461	C46	0.689300	0.671200	0.185300
C471	C47	0.246600	0.200800	0.131200
C481	C48	0.818600	0.865200	0.143700
C491	C49	0.040500	0.626600	0.076700
C501	C50	0.117900	0.716600	0.037700
C511	C51	0.147000	0.694400	0.957100
C521	C52	0.097200	0.584000	0.920900
C531	C53	0.985600	0.511000	0.040000
C541	C54	0.167300	0.843000	0.077800
C551	C55	0.937900	0.596800	0.397500
C561	C56	0.031300	0.673600	0.352500
C571	C57	0.120800	0.637800	0.292100
C581	C58	0.115200	0.524400	0.278100
C591	C59	0.022500	0.443000	0.324300
C601	C60	0.931300	0.479600	0.386500
C611	C61	0.840400	0.398200	0.434200
C621	C62	0.845900	0.289800	0.423500
C631	C63	0.935100	0.252400	0.362500
C641	C64	0.018100	0.328800	0.314700
C651	C65	0.045800	0.799200	0.368800
C661	C66	0.953400	0.134800	0.356300
C671	C67	0.413900	0.373400	0.423300
C681	C68	0.401300	0.283400	0.462300
C691	C69	0.452600	0.305600	0.542900
C701	C70	0.513200	0.416000	0.579100
C711	C71	0.474600	0.489000	0.460000
C721	C72	0.324300	0.157000	0.422200
O11	O1	0.741100	0.866400	0.824200
O21	O2	0.858200	0.831800	0.926000
O31	O3	0.085400	0.100600	0.797200
O41	O4	0.169500	0.075400	0.910300
O51	O5	0.809400	0.139600	0.851500
O61	O6	0.819300	0.080000	0.965700
O71	O7	0.874700	0.133600	0.675800
O81	O8	0.026400	0.168200	0.574000
O91	O9	0.984800	0.899400	0.702800
O101	O10	0.094100	0.924600	0.589700
O111	O11	0.669800	0.860400	0.648500
O121	O12	0.739300	0.920000	0.534300
O131	O13	0.258900	0.133600	0.175800
O141	O14	0.141800	0.168200	0.074000
O151	O15	0.914600	0.899400	0.202800
O161	O16	0.830500	0.924600	0.089700
O171	O17	0.190600	0.860400	0.148500
O181	O18	0.180700	0.920000	0.034300
O191	O19	0.125300	0.866400	0.324200
O201	O20	0.973600	0.831800	0.426000
O211	O21	0.015200	0.100600	0.297200
O221	O22	0.905900	0.075400	0.410300
O231	O23	0.330200	0.139600	0.351500
O241	O24	0.260700	0.080000	0.465700
