data_UJILAA_clean_PM
_symmetry_space_group_name_H-M	'P1'
_cell_length_a	44.482000
_cell_length_b	44.482000
_cell_length_c	21.283000
_cell_angle_alpha	90.000000
_cell_angle_beta	90.000000
_cell_angle_gamma	120.000000
_symmetry_Int_Tables_number 1

loop_
_symmetry_equiv_pos_as_xyz
'x,y,z'

loop_
_atom_site_label
_atom_site_type_symbol
_atom_site_fract_x
_atom_site_fract_y
_atom_site_fract_z
Cu11	Cu1	0.740580	0.279660	0.417050
Cu21	Cu2	0.827070	0.249400	0.491190
Cu31	Cu3	0.801430	0.163250	0.648750
Cu41	Cu4	0.709410	0.049620	0.583630
Cu51	Cu5	0.643220	0.026180	0.385810
Cu61	Cu6	0.583640	0.089080	0.321320
Cu71	Cu7	0.613100	0.205520	0.393550
Cu81	Cu8	0.950620	0.310210	0.424890
Cu91	Cu9	0.050210	0.341840	0.559790
Cu101	Cu10	0.494930	0.023400	0.158300
C11	C1	0.774300	0.262800	0.427100
N11	N1	0.792300	0.258700	0.467100
C21	C2	0.814000	0.224200	0.576100
N21	N2	0.814600	0.200700	0.594400
N31	N3	0.763100	0.120400	0.625900
C31	C3	0.750700	0.090700	0.604800
C41	C4	0.691200	0.044700	0.504900
N41	N4	0.675800	0.040500	0.456600
N51	N5	0.621900	0.046600	0.366600
C51	C5	0.604800	0.059400	0.351800
C61	C6	0.591700	0.131600	0.367200
N61	N6	0.599900	0.161100	0.360400
N71	N7	0.661100	0.235500	0.385300
C71	C7	0.690900	0.251100	0.401100
N81	N8	0.873000	0.272600	0.466200
C81	C8	0.899700	0.286500	0.451500
C91	C9	0.986100	0.315700	0.472000
N91	N9	0.002600	0.313200	0.497100
C101	C10	0.967500	0.345300	0.301600
N101	N10	0.961000	0.330800	0.347000
N111	N11	0.762900	0.329700	0.387400
C111	C11	0.775500	0.359800	0.382400
N121	N12	0.553400	0.067600	0.265800
C121	C12	0.537800	0.059100	0.222300
C131	C13	0.837500	0.157600	0.744600
N131	N13	0.823500	0.160500	0.701700
C141	C14	0.098800	0.358000	0.533100
N141	N14	0.121900	0.341200	0.523500
C151	C15	0.682500	0.986100	0.665700
N151	N15	0.691200	0.007200	0.638600
Cu111	Cu11	0.407250	0.612990	0.750380
Cu121	Cu12	0.493740	0.582730	0.824520
Cu131	Cu13	0.468100	0.496580	0.982080
Cu141	Cu14	0.376080	0.382950	0.916960
Cu151	Cu15	0.309890	0.359510	0.719140
Cu161	Cu16	0.250310	0.422410	0.654650
Cu171	Cu17	0.279770	0.538850	0.726880
Cu181	Cu18	0.617290	0.643540	0.758220
Cu191	Cu19	0.716880	0.675170	0.893120
Cu201	Cu20	0.161600	0.356730	0.491630
C161	C16	0.440970	0.596130	0.760430
N161	N16	0.458970	0.592030	0.800430
C171	C17	0.480670	0.557530	0.909430
N171	N17	0.481270	0.534030	0.927730
N181	N18	0.429770	0.453730	0.959230
C181	C18	0.417370	0.424030	0.938130
C191	C19	0.357870	0.378030	0.838230
N191	N19	0.342470	0.373830	0.789930
N201	N20	0.288570	0.379930	0.699930
C201	C20	0.271470	0.392730	0.685130
C211	C21	0.258370	0.464930	0.700530
N211	N21	0.266570	0.494430	0.693730
N221	N22	0.327770	0.568830	0.718630
C221	C22	0.357570	0.584430	0.734430
N231	N23	0.539670	0.605930	0.799530
C231	C23	0.566370	0.619830	0.784830
C241	C24	0.652770	0.649030	0.805330
N241	N24	0.669270	0.646530	0.830430
C251	C25	0.634170	0.678630	0.634930
N251	N25	0.627670	0.664130	0.680330
N261	N26	0.429570	0.663030	0.720730
C261	C26	0.442170	0.693130	0.715730
N271	N27	0.220070	0.400930	0.599130
C271	C27	0.204470	0.392430	0.555630
C281	C28	0.504170	0.490930	0.077930
N281	N28	0.490170	0.493830	0.035030
C291	C29	0.765470	0.691330	0.866430
N291	N29	0.788570	0.674530	0.856830
C301	C30	0.349170	0.319430	0.999030
N301	N30	0.357870	0.340530	0.971930
Cu211	Cu21	0.073910	0.946330	0.083720
Cu221	Cu22	0.160400	0.916070	0.157860
Cu231	Cu23	0.134760	0.829920	0.315420
Cu241	Cu24	0.042740	0.716290	0.250300
Cu251	Cu25	0.976550	0.692850	0.052480
Cu261	Cu26	0.916970	0.755750	0.987990
Cu271	Cu27	0.946430	0.872190	0.060220
Cu281	Cu28	0.283950	0.976880	0.091560
Cu291	Cu29	0.383540	0.008510	0.226460
Cu301	Cu30	0.828260	0.690070	0.824970
C311	C31	0.107630	0.929470	0.093770
N311	N31	0.125630	0.925370	0.133770
C321	C32	0.147330	0.890870	0.242770
N321	N32	0.147930	0.867370	0.261070
N331	N33	0.096430	0.787070	0.292570
C331	C33	0.084030	0.757370	0.271470
C341	C34	0.024530	0.711370	0.171570
N341	N34	0.009130	0.707170	0.123270
N351	N35	0.955230	0.713270	0.033270
C351	C35	0.938130	0.726070	0.018470
C361	C36	0.925030	0.798270	0.033870
N361	N36	0.933230	0.827770	0.027070
N371	N37	0.994430	0.902170	0.051970
C371	C37	0.024230	0.917770	0.067770
N381	N38	0.206330	0.939270	0.132870
C381	C38	0.233030	0.953170	0.118170
C391	C39	0.319430	0.982370	0.138670
N391	N39	0.335930	0.979870	0.163770
C401	C40	0.300830	0.011970	0.968270
N401	N40	0.294330	0.997470	0.013670
N411	N41	0.096230	0.996370	0.054070
C411	C41	0.108830	0.026470	0.049070
N421	N42	0.886730	0.734270	0.932470
C421	C42	0.871130	0.725770	0.888970
C431	C43	0.170830	0.824270	0.411270
N431	N43	0.156830	0.827170	0.368370
C441	C44	0.432130	0.024670	0.199770
N441	N44	0.455230	0.007870	0.190170
C451	C45	0.015830	0.652770	0.332370
N451	N45	0.024530	0.673870	0.305270
Cu311	Cu31	0.720340	0.460920	0.417050
Cu321	Cu32	0.750600	0.577670	0.491190
Cu331	Cu33	0.836750	0.638180	0.648750
Cu341	Cu34	0.950380	0.659790	0.583630
Cu351	Cu35	0.973820	0.617040	0.385810
Cu361	Cu36	0.910920	0.494560	0.321320
Cu371	Cu37	0.794480	0.407580	0.393550
Cu381	Cu38	0.689790	0.640410	0.424890
Cu391	Cu39	0.658160	0.708370	0.559790
Cu401	Cu40	0.976600	0.471530	0.158300
C461	C46	0.737200	0.511500	0.427100
N461	N46	0.741300	0.533600	0.467100
C471	C47	0.775800	0.589800	0.576100
N471	N47	0.799300	0.613900	0.594400
N481	N48	0.879600	0.642700	0.625900
C481	C48	0.909300	0.660000	0.604800
C491	C49	0.955300	0.646500	0.504900
N491	N49	0.959500	0.635300	0.456600
N501	N50	0.953400	0.575300	0.366600
C501	C50	0.940600	0.545400	0.351800
C511	C51	0.868400	0.460100	0.367200
N511	N51	0.838900	0.438800	0.360400
N521	N52	0.764500	0.425600	0.385300
C521	C52	0.748900	0.439800	0.401100
N531	N53	0.727400	0.600400	0.466200
C531	C53	0.713500	0.613200	0.451500
C541	C54	0.684300	0.670400	0.472000
N541	N54	0.686800	0.689400	0.497100
C551	C55	0.654700	0.622200	0.301600
N551	N55	0.669200	0.630200	0.347000
N561	N56	0.670300	0.433200	0.387400
C561	C56	0.640200	0.415700	0.382400
N571	N57	0.932400	0.485800	0.265800
C571	C57	0.940900	0.478700	0.222300
C581	C58	0.842400	0.679900	0.744600
N581	N58	0.839500	0.663000	0.701700
C591	C59	0.642000	0.740800	0.533100
N591	N59	0.658800	0.780700	0.523500
C601	C60	0.013900	0.696400	0.665700
N601	N60	0.992800	0.684000	0.638600
Cu411	Cu41	0.387010	0.794250	0.750380
Cu421	Cu42	0.417270	0.911000	0.824520
Cu431	Cu43	0.503420	0.971510	0.982080
Cu441	Cu44	0.617050	0.993120	0.916960
Cu451	Cu45	0.640490	0.950370	0.719140
Cu461	Cu46	0.577590	0.827890	0.654650
Cu471	Cu47	0.461150	0.740910	0.726880
Cu481	Cu48	0.356460	0.973740	0.758220
Cu491	Cu49	0.324830	0.041700	0.893120
Cu501	Cu50	0.643270	0.804860	0.491630
C611	C61	0.403870	0.844830	0.760430
N611	N61	0.407970	0.866930	0.800430
C621	C62	0.442470	0.923130	0.909430
N621	N62	0.465970	0.947230	0.927730
N631	N63	0.546270	0.976030	0.959230
C631	C63	0.575970	0.993330	0.938130
C641	C64	0.621970	0.979830	0.838230
N641	N64	0.626170	0.968630	0.789930
N651	N65	0.620070	0.908630	0.699930
C651	C65	0.607270	0.878730	0.685130
C661	C66	0.535070	0.793430	0.700530
N661	N66	0.505570	0.772130	0.693730
N671	N67	0.431170	0.758930	0.718630
C671	C67	0.415570	0.773130	0.734430
N681	N68	0.394070	0.933730	0.799530
C681	C68	0.380170	0.946530	0.784830
C691	C69	0.350970	0.003730	0.805330
N691	N69	0.353470	0.022730	0.830430
C701	C70	0.321370	0.955530	0.634930
N701	N70	0.335870	0.963530	0.680330
N711	N71	0.336970	0.766530	0.720730
C711	C71	0.306870	0.749030	0.715730
N721	N72	0.599070	0.819130	0.599130
C721	C72	0.607570	0.812030	0.555630
C731	C73	0.509070	0.013230	0.077930
N731	N73	0.506170	0.996330	0.035030
C741	C74	0.308670	0.074130	0.866430
N741	N74	0.325470	0.114030	0.856830
C751	C75	0.680570	0.029730	0.999030
N751	N75	0.659470	0.017330	0.971930
Cu511	Cu51	0.053670	0.127590	0.083720
Cu521	Cu52	0.083930	0.244340	0.157860
Cu531	Cu53	0.170080	0.304850	0.315420
Cu541	Cu54	0.283710	0.326460	0.250300
Cu551	Cu55	0.307150	0.283710	0.052480
Cu561	Cu56	0.244250	0.161230	0.987990
Cu571	Cu57	0.127810	0.074250	0.060220
Cu581	Cu58	0.023120	0.307080	0.091560
Cu591	Cu59	0.991490	0.375040	0.226460
Cu601	Cu60	0.309930	0.138200	0.824970
C761	C76	0.070530	0.178170	0.093770
N761	N76	0.074630	0.200270	0.133770
C771	C77	0.109130	0.256470	0.242770
N771	N77	0.132630	0.280570	0.261070
N781	N78	0.212930	0.309370	0.292570
C781	C78	0.242630	0.326670	0.271470
C791	C79	0.288630	0.313170	0.171570
N791	N79	0.292830	0.301970	0.123270
N801	N80	0.286730	0.241970	0.033270
C801	C80	0.273930	0.212070	0.018470
C811	C81	0.201730	0.126770	0.033870
N811	N81	0.172230	0.105470	0.027070
N821	N82	0.097830	0.092270	0.051970
C821	C82	0.082230	0.106470	0.067770
N831	N83	0.060730	0.267070	0.132870
C831	C83	0.046830	0.279870	0.118170
C841	C84	0.017630	0.337070	0.138670
N841	N84	0.020130	0.356070	0.163770
C851	C85	0.988030	0.288870	0.968270
N851	N85	0.002530	0.296870	0.013670
N861	N86	0.003630	0.099870	0.054070
C861	C86	0.973530	0.082370	0.049070
N871	N87	0.265730	0.152470	0.932470
C871	C87	0.274230	0.145370	0.888970
C881	C88	0.175730	0.346570	0.411270
N881	N88	0.172830	0.329670	0.368370
C891	C89	0.975330	0.407470	0.199770
N891	N89	0.992130	0.447370	0.190170
C901	C90	0.347230	0.363070	0.332370
N901	N90	0.326130	0.350670	0.305270
Cu611	Cu61	0.539080	0.259420	0.417050
Cu621	Cu62	0.422330	0.172930	0.491190
Cu631	Cu63	0.361820	0.198570	0.648750
Cu641	Cu64	0.340210	0.290590	0.583630
Cu651	Cu65	0.382960	0.356780	0.385810
Cu661	Cu66	0.505440	0.416360	0.321320
Cu671	Cu67	0.592420	0.386900	0.393550
Cu681	Cu68	0.359590	0.049380	0.424890
Cu691	Cu69	0.291630	0.949790	0.559790
Cu701	Cu70	0.528470	0.505070	0.158300
C911	C91	0.488500	0.225700	0.427100
N911	N91	0.466400	0.207700	0.467100
C921	C92	0.410200	0.186000	0.576100
N921	N92	0.386100	0.185400	0.594400
N931	N93	0.357300	0.236900	0.625900
C931	C93	0.340000	0.249300	0.604800
C941	C94	0.353500	0.308800	0.504900
N941	N94	0.364700	0.324200	0.456600
N951	N95	0.424700	0.378100	0.366600
C951	C95	0.454600	0.395200	0.351800
C961	C96	0.539900	0.408300	0.367200
N961	N96	0.561200	0.400100	0.360400
N971	N97	0.574400	0.338900	0.385300
C971	C97	0.560200	0.309100	0.401100
N981	N98	0.399600	0.127000	0.466200
C981	C98	0.386800	0.100300	0.451500
C991	C99	0.329600	0.013900	0.472000
N991	N99	0.310600	0.997400	0.497100
C1001	C100	0.377800	0.032500	0.301600
N1001	N100	0.369800	0.039000	0.347000
N1011	N101	0.566800	0.237100	0.387400
C1011	C101	0.584300	0.224500	0.382400
N1021	N102	0.514200	0.446600	0.265800
C1021	C102	0.521300	0.462200	0.222300
C1031	C103	0.320100	0.162500	0.744600
N1031	N103	0.337000	0.176500	0.701700
C1041	C104	0.259200	0.901200	0.533100
N1041	N104	0.219300	0.878100	0.523500
C1051	C105	0.303600	0.317500	0.665700
N1051	N105	0.316000	0.308800	0.638600
Cu711	Cu71	0.205750	0.592750	0.750380
Cu721	Cu72	0.089000	0.506260	0.824520
Cu731	Cu73	0.028490	0.531900	0.982080
Cu741	Cu74	0.006880	0.623920	0.916960
Cu751	Cu75	0.049630	0.690110	0.719140
Cu761	Cu76	0.172110	0.749690	0.654650
Cu771	Cu77	0.259090	0.720230	0.726880
Cu781	Cu78	0.026260	0.382710	0.758220
Cu791	Cu79	0.958300	0.283120	0.893120
Cu801	Cu80	0.195140	0.838400	0.491630
C1061	C106	0.155170	0.559030	0.760430
N1061	N106	0.133070	0.541030	0.800430
C1071	C107	0.076870	0.519330	0.909430
N1071	N107	0.052770	0.518730	0.927730
N1081	N108	0.023970	0.570230	0.959230
C1081	C108	0.006670	0.582630	0.938130
C1091	C109	0.020170	0.642130	0.838230
N1091	N109	0.031370	0.657530	0.789930
N1101	N110	0.091370	0.711430	0.699930
C1101	C110	0.121270	0.728530	0.685130
C1111	C111	0.206570	0.741630	0.700530
N1111	N111	0.227870	0.733430	0.693730
N1121	N112	0.241070	0.672230	0.718630
C1121	C112	0.226870	0.642430	0.734430
N1131	N113	0.066270	0.460330	0.799530
C1131	C113	0.053470	0.433630	0.784830
C1141	C114	0.996270	0.347230	0.805330
N1141	N114	0.977270	0.330730	0.830430
C1151	C115	0.044470	0.365830	0.634930
N1151	N115	0.036470	0.372330	0.680330
N1161	N116	0.233470	0.570430	0.720730
C1161	C116	0.250970	0.557830	0.715730
N1171	N117	0.180870	0.779930	0.599130
C1171	C117	0.187970	0.795530	0.555630
C1181	C118	0.986770	0.495830	0.077930
N1181	N118	0.003670	0.509830	0.035030
C1191	C119	0.925870	0.234530	0.866430
N1191	N119	0.885970	0.211430	0.856830
C1201	C120	0.970270	0.650830	0.999030
N1201	N120	0.982670	0.642130	0.971930
Cu811	Cu81	0.872410	0.926090	0.083720
Cu821	Cu82	0.755660	0.839600	0.157860
Cu831	Cu83	0.695150	0.865240	0.315420
Cu841	Cu84	0.673540	0.957260	0.250300
Cu851	Cu85	0.716290	0.023450	0.052480
Cu861	Cu86	0.838770	0.083030	0.987990
Cu871	Cu87	0.925750	0.053570	0.060220
Cu881	Cu88	0.692920	0.716050	0.091560
Cu891	Cu89	0.624960	0.616460	0.226460
Cu901	Cu90	0.861800	0.171740	0.824970
C1211	C121	0.821830	0.892370	0.093770
N1211	N121	0.799730	0.874370	0.133770
C1221	C122	0.743530	0.852670	0.242770
N1221	N122	0.719430	0.852070	0.261070
N1231	N123	0.690630	0.903570	0.292570
C1231	C123	0.673330	0.915970	0.271470
C1241	C124	0.686830	0.975470	0.171570
N1241	N124	0.698030	0.990870	0.123270
N1251	N125	0.758030	0.044770	0.033270
C1251	C125	0.787930	0.061870	0.018470
C1261	C126	0.873230	0.074970	0.033870
N1261	N126	0.894530	0.066770	0.027070
N1271	N127	0.907730	0.005570	0.051970
C1271	C127	0.893530	0.975770	0.067770
N1281	N128	0.732930	0.793670	0.132870
C1281	C128	0.720130	0.766970	0.118170
C1291	C129	0.662930	0.680570	0.138670
N1291	N129	0.643930	0.664070	0.163770
C1301	C130	0.711130	0.699170	0.968270
N1301	N130	0.703130	0.705670	0.013670
N1311	N131	0.900130	0.903770	0.054070
C1311	C131	0.917630	0.891170	0.049070
N1321	N132	0.847530	0.113270	0.932470
C1321	C132	0.854630	0.128870	0.888970
C1331	C133	0.653430	0.829170	0.411270
N1331	N133	0.670330	0.843170	0.368370
C1341	C134	0.592530	0.567870	0.199770
N1341	N134	0.552630	0.544770	0.190170
C1351	C135	0.636930	0.984170	0.332370
N1351	N135	0.649330	0.975470	0.305270
