data_UJIPEK_clean_PM
_symmetry_space_group_name_H-M	'P1'
_cell_length_a	16.738000
_cell_length_b	17.162000
_cell_length_c	17.209000
_cell_angle_alpha	90.000000
_cell_angle_beta	90.000000
_cell_angle_gamma	90.000000
_symmetry_Int_Tables_number 1

loop_
_symmetry_equiv_pos_as_xyz
'x,y,z'

loop_
_atom_site_label
_atom_site_type_symbol
_atom_site_fract_x
_atom_site_fract_y
_atom_site_fract_z
Ho11	Ho1	0.084200	0.039920	0.349060
O11	O1	0.958300	0.039900	0.294300
O21	O2	0.997900	0.111100	0.434100
O31	O3	0.091500	0.023300	0.211000
O41	O4	0.051000	0.910600	0.309700
O51	O5	0.210300	0.982500	0.346800
O61	O6	0.069500	0.959800	0.463600
O71	O7	0.109000	0.166500	0.301300
Ho21	Ho2	0.909170	0.914670	0.310110
Ho31	Ho3	0.966390	0.060490	0.155060
S11	S1	0.975490	0.112350	0.516820
Ho41	Ho4	0.095900	0.886190	0.184750
S21	S2	0.266110	0.965470	0.282920
O81	O8	0.962200	0.928000	0.181500
O91	O9	0.918300	0.790900	0.256700
O101	O10	0.951400	0.883800	0.435900
O111	O11	0.795700	0.960700	0.249000
O121	O12	0.889400	0.997000	0.058900
O131	O13	0.007100	0.179600	0.203800
O141	O14	0.056200	0.067400	0.052000
O151	O15	0.832700	0.081200	0.188100
O161	O16	0.924800	0.179400	0.533100
O171	O17	0.224100	0.920600	0.222900
O181	O18	0.107900	0.937500	0.063000
S31	S3	0.913020	0.706590	0.271440
S41	S4	0.881450	0.985930	0.975290
O191	O19	0.854600	0.690200	0.331800
O201	O20	0.803100	0.953600	0.957600
Ho51	Ho5	0.415800	0.460080	0.349060
O211	O21	0.541700	0.460100	0.294300
O221	O22	0.502100	0.388900	0.434100
O231	O23	0.408500	0.476700	0.211000
O241	O24	0.449000	0.589400	0.309700
O251	O25	0.289700	0.517500	0.346800
O261	O26	0.430500	0.540200	0.463600
O271	O27	0.391000	0.333500	0.301300
Ho61	Ho6	0.590830	0.585330	0.310110
Ho71	Ho7	0.533610	0.439510	0.155060
S51	S5	0.524510	0.387650	0.516820
Ho81	Ho8	0.404100	0.613810	0.184750
S61	S6	0.233890	0.534530	0.282920
O281	O28	0.537800	0.572000	0.181500
O291	O29	0.581700	0.709100	0.256700
O301	O30	0.548600	0.616200	0.435900
O311	O31	0.704300	0.539300	0.249000
O321	O32	0.610600	0.503000	0.058900
O331	O33	0.492900	0.320400	0.203800
O341	O34	0.443800	0.432600	0.052000
O351	O35	0.667300	0.418800	0.188100
O361	O36	0.575200	0.320600	0.533100
O371	O37	0.275900	0.579400	0.222900
O381	O38	0.392100	0.562500	0.063000
S71	S7	0.586980	0.793410	0.271440
S81	S8	0.618550	0.514070	0.975290
O391	O39	0.645400	0.809800	0.331800
O401	O40	0.696900	0.546400	0.957600
Ho91	Ho9	0.915800	0.539920	0.150950
O411	O41	0.041700	0.539900	0.205700
O421	O42	0.002100	0.611100	0.065900
O431	O43	0.908500	0.523300	0.289000
O441	O44	0.949000	0.410600	0.190300
O451	O45	0.789700	0.482500	0.153200
O461	O46	0.930500	0.459800	0.036400
O471	O47	0.891000	0.666500	0.198700
Ho101	Ho10	0.090830	0.414670	0.189890
Ho111	Ho11	0.033610	0.560490	0.344940
S91	S9	0.024510	0.612350	0.983180
Ho121	Ho12	0.904100	0.386190	0.315250
S101	S10	0.733890	0.465470	0.217080
O481	O48	0.037800	0.428000	0.318500
O491	O49	0.081700	0.290900	0.243300
O501	O50	0.048600	0.383800	0.064100
O511	O51	0.204300	0.460700	0.251000
O521	O52	0.110600	0.497000	0.441100
O531	O53	0.992900	0.679600	0.296200
O541	O54	0.943800	0.567400	0.448000
O551	O55	0.167300	0.581200	0.311900
O561	O56	0.075200	0.679400	0.966900
O571	O57	0.775900	0.420600	0.277100
O581	O58	0.892100	0.437500	0.437000
S111	S11	0.086980	0.206590	0.228560
S121	S12	0.118550	0.485930	0.524710
O591	O59	0.145400	0.190200	0.168200
O601	O60	0.196900	0.453600	0.542400
Ho131	Ho13	0.584200	0.960080	0.150950
O611	O61	0.458300	0.960100	0.205700
O621	O62	0.497900	0.888900	0.065900
O631	O63	0.591500	0.976700	0.289000
O641	O64	0.551000	0.089400	0.190300
O651	O65	0.710300	0.017500	0.153200
O661	O66	0.569500	0.040200	0.036400
O671	O67	0.609000	0.833500	0.198700
Ho141	Ho14	0.409170	0.085330	0.189890
Ho151	Ho15	0.466390	0.939510	0.344940
S131	S13	0.475490	0.887650	0.983180
Ho161	Ho16	0.595900	0.113810	0.315250
S141	S14	0.766110	0.034530	0.217080
O681	O68	0.462200	0.072000	0.318500
O691	O69	0.418300	0.209100	0.243300
O701	O70	0.451400	0.116200	0.064100
O711	O71	0.295700	0.039300	0.251000
O721	O72	0.389400	0.003000	0.441100
O731	O73	0.507100	0.820400	0.296200
O741	O74	0.556200	0.932600	0.448000
O751	O75	0.332700	0.918800	0.311900
O761	O76	0.424800	0.820600	0.966900
O771	O77	0.724100	0.079400	0.277100
O781	O78	0.607900	0.062500	0.437000
S151	S15	0.413020	0.293410	0.228560
S161	S16	0.381450	0.014070	0.524710
O791	O79	0.354600	0.309800	0.168200
O801	O80	0.303100	0.046400	0.542400
Ho171	Ho17	0.915800	0.960080	0.650950
O811	O81	0.041700	0.960100	0.705700
O821	O82	0.002100	0.888900	0.565900
O831	O83	0.908500	0.976700	0.789000
O841	O84	0.949000	0.089400	0.690300
O851	O85	0.789700	0.017500	0.653200
O861	O86	0.930500	0.040200	0.536400
O871	O87	0.891000	0.833500	0.698700
Ho181	Ho18	0.090830	0.085330	0.689890
Ho191	Ho19	0.033610	0.939510	0.844940
S171	S17	0.024510	0.887650	0.483180
Ho201	Ho20	0.904100	0.113810	0.815250
S181	S18	0.733890	0.034530	0.717080
O881	O88	0.037800	0.072000	0.818500
O891	O89	0.081700	0.209100	0.743300
O901	O90	0.048600	0.116200	0.564100
O911	O91	0.204300	0.039300	0.751000
O921	O92	0.110600	0.003000	0.941100
O931	O93	0.992900	0.820400	0.796200
O941	O94	0.943800	0.932600	0.948000
O951	O95	0.167300	0.918800	0.811900
O961	O96	0.075200	0.820600	0.466900
O971	O97	0.775900	0.079400	0.777100
O981	O98	0.892100	0.062500	0.937000
S191	S19	0.086980	0.293410	0.728560
S201	S20	0.118550	0.014070	0.024710
O991	O99	0.145400	0.309800	0.668200
O1001	O100	0.196900	0.046400	0.042400
Ho211	Ho21	0.584200	0.539920	0.650950
O1011	O101	0.458300	0.539900	0.705700
O1021	O102	0.497900	0.611100	0.565900
O1031	O103	0.591500	0.523300	0.789000
O1041	O104	0.551000	0.410600	0.690300
O1051	O105	0.710300	0.482500	0.653200
O1061	O106	0.569500	0.459800	0.536400
O1071	O107	0.609000	0.666500	0.698700
Ho221	Ho22	0.409170	0.414670	0.689890
Ho231	Ho23	0.466390	0.560490	0.844940
S211	S21	0.475490	0.612350	0.483180
Ho241	Ho24	0.595900	0.386190	0.815250
S221	S22	0.766110	0.465470	0.717080
O1081	O108	0.462200	0.428000	0.818500
O1091	O109	0.418300	0.290900	0.743300
O1101	O110	0.451400	0.383800	0.564100
O1111	O111	0.295700	0.460700	0.751000
O1121	O112	0.389400	0.497000	0.941100
O1131	O113	0.507100	0.679600	0.796200
O1141	O114	0.556200	0.567400	0.948000
O1151	O115	0.332700	0.581200	0.811900
O1161	O116	0.424800	0.679400	0.466900
O1171	O117	0.724100	0.420600	0.777100
O1181	O118	0.607900	0.437500	0.937000
S231	S23	0.413020	0.206590	0.728560
S241	S24	0.381450	0.485930	0.024710
O1191	O119	0.354600	0.190200	0.668200
O1201	O120	0.303100	0.453600	0.042400
Ho251	Ho25	0.084200	0.460080	0.849060
O1211	O121	0.958300	0.460100	0.794300
O1221	O122	0.997900	0.388900	0.934100
O1231	O123	0.091500	0.476700	0.711000
O1241	O124	0.051000	0.589400	0.809700
O1251	O125	0.210300	0.517500	0.846800
O1261	O126	0.069500	0.540200	0.963600
O1271	O127	0.109000	0.333500	0.801300
Ho261	Ho26	0.909170	0.585330	0.810110
Ho271	Ho27	0.966390	0.439510	0.655060
S251	S25	0.975490	0.387650	0.016820
Ho281	Ho28	0.095900	0.613810	0.684750
S261	S26	0.266110	0.534530	0.782920
O1281	O128	0.962200	0.572000	0.681500
O1291	O129	0.918300	0.709100	0.756700
O1301	O130	0.951400	0.616200	0.935900
O1311	O131	0.795700	0.539300	0.749000
O1321	O132	0.889400	0.503000	0.558900
O1331	O133	0.007100	0.320400	0.703800
O1341	O134	0.056200	0.432600	0.552000
O1351	O135	0.832700	0.418800	0.688100
O1361	O136	0.924800	0.320600	0.033100
O1371	O137	0.224100	0.579400	0.722900
O1381	O138	0.107900	0.562500	0.563000
S271	S27	0.913020	0.793410	0.771440
S281	S28	0.881450	0.514070	0.475290
O1391	O139	0.854600	0.809800	0.831800
O1401	O140	0.803100	0.546400	0.457600
Ho291	Ho29	0.415800	0.039920	0.849060
O1411	O141	0.541700	0.039900	0.794300
O1421	O142	0.502100	0.111100	0.934100
O1431	O143	0.408500	0.023300	0.711000
O1441	O144	0.449000	0.910600	0.809700
O1451	O145	0.289700	0.982500	0.846800
O1461	O146	0.430500	0.959800	0.963600
O1471	O147	0.391000	0.166500	0.801300
Ho301	Ho30	0.590830	0.914670	0.810110
Ho311	Ho31	0.533610	0.060490	0.655060
S291	S29	0.524510	0.112350	0.016820
Ho321	Ho32	0.404100	0.886190	0.684750
S301	S30	0.233890	0.965470	0.782920
O1481	O148	0.537800	0.928000	0.681500
O1491	O149	0.581700	0.790900	0.756700
O1501	O150	0.548600	0.883800	0.935900
O1511	O151	0.704300	0.960700	0.749000
O1521	O152	0.610600	0.997000	0.558900
O1531	O153	0.492900	0.179600	0.703800
O1541	O154	0.443800	0.067400	0.552000
O1551	O155	0.667300	0.081200	0.688100
O1561	O156	0.575200	0.179400	0.033100
O1571	O157	0.275900	0.920600	0.722900
O1581	O158	0.392100	0.937500	0.563000
S311	S31	0.586980	0.706590	0.771440
S321	S32	0.618550	0.985930	0.475290
O1591	O159	0.645400	0.690200	0.831800
O1601	O160	0.696900	0.953600	0.457600
