data_UJOJOU01_clean_PM
_symmetry_space_group_name_H-M	'P1'
_cell_length_a	13.484600
_cell_length_b	13.484600
_cell_length_c	8.032000
_cell_angle_alpha	90.000000
_cell_angle_beta	90.000000
_cell_angle_gamma	120.000000
_symmetry_Int_Tables_number 1

loop_
_symmetry_equiv_pos_as_xyz
'x,y,z'

loop_
_atom_site_label
_atom_site_type_symbol
_atom_site_fract_x
_atom_site_fract_y
_atom_site_fract_z
Mn11	Mn1	0.301420	0.338730	0.544630
O11	O1	0.226200	0.181270	0.403200
C11	C1	0.533600	0.322500	0.548100
C21	C2	0.353300	0.559300	0.778600
O21	O2	0.240400	0.057490	0.242400
C31	C3	0.264500	0.157700	0.277000
N11	N1	0.348500	0.210400	0.999300
H11	H1	0.413900	0.258800	0.946000
H21	H2	0.288900	0.200900	0.936900
C41	C4	0.345200	0.255200	0.162600
H31	H3	0.422100	0.286600	0.209900
N21	N2	0.366500	0.429000	0.302100
H41	H4	0.348800	0.485000	0.294700
H51	H5	0.443300	0.462300	0.301300
C51	C5	0.320700	0.354800	0.154100
H61	H6	0.355500	0.399600	0.054600
H71	H7	0.238700	0.324600	0.147200
N31	N3	0.454000	0.320300	0.603700
N41	N4	0.366900	0.499300	0.692900
Mn21	Mn2	0.661270	0.962690	0.544630
O31	O3	0.818730	0.044930	0.403200
C61	C6	0.677500	0.211100	0.548100
C71	C7	0.440700	0.794000	0.778600
O41	O4	0.942510	0.182910	0.242400
C81	C8	0.842300	0.106800	0.277000
N51	N5	0.789600	0.138100	0.999300
H81	H8	0.741200	0.155100	0.946000
H91	H9	0.799100	0.088000	0.936900
C91	C9	0.744800	0.090000	0.162600
H101	H10	0.713400	0.135500	0.209900
N61	N6	0.571000	0.937500	0.302100
H111	H11	0.515000	0.863800	0.294700
H121	H12	0.537700	0.981000	0.301300
C101	C10	0.645200	0.965900	0.154100
H131	H13	0.600400	0.955900	0.054600
H141	H14	0.675400	0.914100	0.147200
N71	N7	0.679700	0.133700	0.603700
N81	N8	0.500700	0.867600	0.692900
Mn31	Mn3	0.037310	0.698580	0.544630
O51	O5	0.955070	0.773800	0.403200
C111	C11	0.788900	0.466400	0.548100
C121	C12	0.206000	0.646700	0.778600
O61	O6	0.817090	0.759600	0.242400
C131	C13	0.893200	0.735500	0.277000
N91	N9	0.861900	0.651500	0.999300
H151	H15	0.844900	0.586100	0.946000
H161	H16	0.912000	0.711100	0.936900
C141	C14	0.910000	0.654800	0.162600
H171	H17	0.864500	0.577900	0.209900
N101	N10	0.062500	0.633500	0.302100
H181	H18	0.136200	0.651200	0.294700
H191	H19	0.019000	0.556700	0.301300
C151	C15	0.034100	0.679300	0.154100
H201	H20	0.044100	0.644500	0.054600
H211	H21	0.085900	0.761300	0.147200
N111	N11	0.866300	0.546000	0.603700
N121	N12	0.132400	0.633100	0.692900
Mn41	Mn4	0.698580	0.661270	0.044630
O71	O7	0.773800	0.818730	0.903200
C161	C16	0.466400	0.677500	0.048100
C171	C17	0.646700	0.440700	0.278600
O81	O8	0.759600	0.942510	0.742400
C181	C18	0.735500	0.842300	0.777000
N131	N13	0.651500	0.789600	0.499300
H221	H22	0.586100	0.741200	0.446000
H231	H23	0.711100	0.799100	0.436900
C191	C19	0.654800	0.744800	0.662600
H241	H24	0.577900	0.713400	0.709900
N141	N14	0.633500	0.571000	0.802100
H251	H25	0.651200	0.515000	0.794700
H261	H26	0.556700	0.537700	0.801300
C201	C20	0.679300	0.645200	0.654100
H271	H27	0.644500	0.600400	0.554600
H281	H28	0.761300	0.675400	0.647200
N151	N15	0.546000	0.679700	0.103700
N161	N16	0.633100	0.500700	0.192900
Mn51	Mn5	0.338730	0.037310	0.044630
O91	O9	0.181270	0.955070	0.903200
C211	C21	0.322500	0.788900	0.048100
C221	C22	0.559300	0.206000	0.278600
O101	O10	0.057490	0.817090	0.742400
C231	C23	0.157700	0.893200	0.777000
N171	N17	0.210400	0.861900	0.499300
H291	H29	0.258800	0.844900	0.446000
H301	H30	0.200900	0.912000	0.436900
C241	C24	0.255200	0.910000	0.662600
H311	H31	0.286600	0.864500	0.709900
N181	N18	0.429000	0.062500	0.802100
H321	H32	0.485000	0.136200	0.794700
H331	H33	0.462300	0.019000	0.801300
C251	C25	0.354800	0.034100	0.654100
H341	H34	0.399600	0.044100	0.554600
H351	H35	0.324600	0.085900	0.647200
N191	N19	0.320300	0.866300	0.103700
N201	N20	0.499300	0.132400	0.192900
Mn61	Mn6	0.962690	0.301420	0.044630
O111	O11	0.044930	0.226200	0.903200
C261	C26	0.211100	0.533600	0.048100
C271	C27	0.794000	0.353300	0.278600
O121	O12	0.182910	0.240400	0.742400
C281	C28	0.106800	0.264500	0.777000
N211	N21	0.138100	0.348500	0.499300
H361	H36	0.155100	0.413900	0.446000
H371	H37	0.088000	0.288900	0.436900
C291	C29	0.090000	0.345200	0.662600
H381	H38	0.135500	0.422100	0.709900
N221	N22	0.937500	0.366500	0.802100
H391	H39	0.863800	0.348800	0.794700
H401	H40	0.981000	0.443300	0.801300
C301	C30	0.965900	0.320700	0.654100
H411	H41	0.955900	0.355500	0.554600
H421	H42	0.914100	0.238700	0.647200
N231	N23	0.133700	0.454000	0.103700
N241	N24	0.867600	0.366900	0.192900
Mn71	Mn7	0.333330	0.666670	0.924800
Mn81	Mn8	0.666670	0.333330	0.424800
