data_UJOJIO05_clean_PM
_symmetry_space_group_name_H-M	'P1'
_cell_length_a	13.532900
_cell_length_b	13.532900
_cell_length_c	8.081600
_cell_angle_alpha	90.000000
_cell_angle_beta	90.000000
_cell_angle_gamma	120.000000
_symmetry_Int_Tables_number 1

loop_
_symmetry_equiv_pos_as_xyz
'x,y,z'

loop_
_atom_site_label
_atom_site_type_symbol
_atom_site_fract_x
_atom_site_fract_y
_atom_site_fract_z
Mn11	Mn1	0.300860	0.337990	0.545140
O11	O1	0.229370	0.181330	0.405900
C11	C1	0.534740	0.322950	0.547900
C21	C2	0.353600	0.559700	0.776700
O21	O2	0.245590	0.058550	0.246300
C31	C3	0.267100	0.158100	0.280000
N11	N1	0.346700	0.209000	0.000700
H11	H1	0.411100	0.257000	0.946000
H21	H2	0.286500	0.199100	0.940500
C41	C4	0.345500	0.255200	0.163800
H31	H3	0.422900	0.287400	0.208400
N21	N2	0.365800	0.427970	0.303900
H41	H4	0.348200	0.483800	0.296200
H51	H5	0.442400	0.461100	0.302900
C51	C5	0.319600	0.353100	0.157400
H61	H6	0.352900	0.397700	0.057900
H71	H7	0.237700	0.322000	0.152300
N31	N3	0.455600	0.321800	0.602500
N41	N4	0.367400	0.499800	0.692200
Mn21	Mn2	0.662010	0.962870	0.545140
O31	O3	0.818670	0.048040	0.405900
C61	C6	0.677050	0.211790	0.547900
C71	C7	0.440300	0.793900	0.776700
O41	O4	0.941450	0.187040	0.246300
C81	C8	0.841900	0.109000	0.280000
N51	N5	0.791000	0.137700	0.000700
H81	H8	0.743000	0.154100	0.946000
H91	H9	0.800900	0.087400	0.940500
C91	C9	0.744800	0.090300	0.163800
H101	H10	0.712600	0.135500	0.208400
N61	N6	0.572030	0.937830	0.303900
H111	H11	0.516200	0.864400	0.296200
H121	H12	0.538900	0.981300	0.302900
C101	C10	0.646900	0.966500	0.157400
H131	H13	0.602300	0.955200	0.057900
H141	H14	0.678000	0.915700	0.152300
N71	N7	0.678200	0.133800	0.602500
N81	N8	0.500200	0.867600	0.692200
Mn31	Mn3	0.037130	0.699140	0.545140
O51	O5	0.951960	0.770630	0.405900
C111	C11	0.788210	0.465260	0.547900
C121	C12	0.206100	0.646400	0.776700
O61	O6	0.812960	0.754410	0.246300
C131	C13	0.891000	0.732900	0.280000
N91	N9	0.862300	0.653300	0.000700
H151	H15	0.845900	0.588900	0.946000
H161	H16	0.912600	0.713500	0.940500
C141	C14	0.909700	0.654500	0.163800
H171	H17	0.864500	0.577100	0.208400
N101	N10	0.062170	0.634200	0.303900
H181	H18	0.135600	0.651800	0.296200
H191	H19	0.018700	0.557600	0.302900
C151	C15	0.033500	0.680400	0.157400
H201	H20	0.044800	0.647100	0.057900
H211	H21	0.084300	0.762300	0.152300
N111	N11	0.866200	0.544400	0.602500
N121	N12	0.132400	0.632600	0.692200
Mn41	Mn4	0.699140	0.662010	0.045140
O71	O7	0.770630	0.818670	0.905900
C161	C16	0.465260	0.677050	0.047900
C171	C17	0.646400	0.440300	0.276700
O81	O8	0.754410	0.941450	0.746300
C181	C18	0.732900	0.841900	0.780000
N131	N13	0.653300	0.791000	0.500700
H221	H22	0.588900	0.743000	0.446000
H231	H23	0.713500	0.800900	0.440500
C191	C19	0.654500	0.744800	0.663800
H241	H24	0.577100	0.712600	0.708400
N141	N14	0.634200	0.572030	0.803900
H251	H25	0.651800	0.516200	0.796200
H261	H26	0.557600	0.538900	0.802900
C201	C20	0.680400	0.646900	0.657400
H271	H27	0.647100	0.602300	0.557900
H281	H28	0.762300	0.678000	0.652300
N151	N15	0.544400	0.678200	0.102500
N161	N16	0.632600	0.500200	0.192200
Mn51	Mn5	0.337990	0.037130	0.045140
O91	O9	0.181330	0.951960	0.905900
C211	C21	0.322950	0.788210	0.047900
C221	C22	0.559700	0.206100	0.276700
O101	O10	0.058550	0.812960	0.746300
C231	C23	0.158100	0.891000	0.780000
N171	N17	0.209000	0.862300	0.500700
H291	H29	0.257000	0.845900	0.446000
H301	H30	0.199100	0.912600	0.440500
C241	C24	0.255200	0.909700	0.663800
H311	H31	0.287400	0.864500	0.708400
N181	N18	0.427970	0.062170	0.803900
H321	H32	0.483800	0.135600	0.796200
H331	H33	0.461100	0.018700	0.802900
C251	C25	0.353100	0.033500	0.657400
H341	H34	0.397700	0.044800	0.557900
H351	H35	0.322000	0.084300	0.652300
N191	N19	0.321800	0.866200	0.102500
N201	N20	0.499800	0.132400	0.192200
Mn61	Mn6	0.962870	0.300860	0.045140
O111	O11	0.048040	0.229370	0.905900
C261	C26	0.211790	0.534740	0.047900
C271	C27	0.793900	0.353600	0.276700
O121	O12	0.187040	0.245590	0.746300
C281	C28	0.109000	0.267100	0.780000
N211	N21	0.137700	0.346700	0.500700
H361	H36	0.154100	0.411100	0.446000
H371	H37	0.087400	0.286500	0.440500
C291	C29	0.090300	0.345500	0.663800
H381	H38	0.135500	0.422900	0.708400
N221	N22	0.937830	0.365800	0.803900
H391	H39	0.864400	0.348200	0.796200
H401	H40	0.981300	0.442400	0.802900
C301	C30	0.966500	0.319600	0.657400
H411	H41	0.955200	0.352900	0.557900
H421	H42	0.915700	0.237700	0.652300
N231	N23	0.133800	0.455600	0.102500
N241	N24	0.867600	0.367400	0.192200
Mn71	Mn7	0.333330	0.666670	0.922370
Mn81	Mn8	0.666670	0.333330	0.422370
