data_UJOJIO04_clean_PM
_symmetry_space_group_name_H-M	'P1'
_cell_length_a	13.527400
_cell_length_b	13.527400
_cell_length_c	8.072600
_cell_angle_alpha	90.000000
_cell_angle_beta	90.000000
_cell_angle_gamma	120.000000
_symmetry_Int_Tables_number 1

loop_
_symmetry_equiv_pos_as_xyz
'x,y,z'

loop_
_atom_site_label
_atom_site_type_symbol
_atom_site_fract_x
_atom_site_fract_y
_atom_site_fract_z
Mn11	Mn1	0.301320	0.338220	0.545160
O11	O1	0.229570	0.181510	0.406100
C11	C1	0.534770	0.322920	0.548500
C21	C2	0.353670	0.559800	0.776600
O21	O2	0.245630	0.058440	0.246500
C31	C3	0.267300	0.158000	0.280100
N11	N1	0.346900	0.208800	0.000100
H11	H1	0.411200	0.256800	0.945300
H21	H2	0.286600	0.198800	0.939800
C41	C4	0.345600	0.255000	0.163800
H31	H3	0.423100	0.287300	0.208500
N21	N2	0.365930	0.427790	0.302900
H41	H4	0.348400	0.483700	0.295200
H51	H5	0.442500	0.460900	0.301700
C51	C5	0.319700	0.353100	0.156400
H61	H6	0.353100	0.397600	0.056900
H71	H7	0.237800	0.322000	0.151200
N31	N3	0.455500	0.321500	0.603100
N41	N4	0.367800	0.500100	0.691900
Mn21	Mn2	0.661780	0.963100	0.545160
O31	O3	0.818490	0.048060	0.406100
C61	C6	0.677080	0.211850	0.548500
C71	C7	0.440200	0.793870	0.776600
O41	O4	0.941560	0.187190	0.246500
C81	C8	0.842000	0.109300	0.280100
N51	N5	0.791200	0.138100	0.000100
H81	H8	0.743200	0.154400	0.945300
H91	H9	0.801200	0.087800	0.939800
C91	C9	0.745000	0.090600	0.163800
H101	H10	0.712700	0.135800	0.208500
N61	N6	0.572210	0.938140	0.302900
H111	H11	0.516300	0.864700	0.295200
H121	H12	0.539100	0.981600	0.301700
C101	C10	0.646900	0.966600	0.156400
H131	H13	0.602400	0.955500	0.056900
H141	H14	0.678000	0.915800	0.151200
N71	N7	0.678500	0.134000	0.603100
N81	N8	0.499900	0.867700	0.691900
Mn31	Mn3	0.036900	0.698680	0.545160
O51	O5	0.951940	0.770430	0.406100
C111	C11	0.788150	0.465230	0.548500
C121	C12	0.206130	0.646330	0.776600
O61	O6	0.812810	0.754370	0.246500
C131	C13	0.890700	0.732700	0.280100
N91	N9	0.861900	0.653100	0.000100
H151	H15	0.845600	0.588800	0.945300
H161	H16	0.912200	0.713400	0.939800
C141	C14	0.909400	0.654400	0.163800
H171	H17	0.864200	0.576900	0.208500
N101	N10	0.061860	0.634070	0.302900
H181	H18	0.135300	0.651600	0.295200
H191	H19	0.018400	0.557500	0.301700
C151	C15	0.033400	0.680300	0.156400
H201	H20	0.044500	0.646900	0.056900
H211	H21	0.084200	0.762200	0.151200
N111	N11	0.866000	0.544500	0.603100
N121	N12	0.132300	0.632200	0.691900
Mn41	Mn4	0.698680	0.661780	0.045160
O71	O7	0.770430	0.818490	0.906100
C161	C16	0.465230	0.677080	0.048500
C171	C17	0.646330	0.440200	0.276600
O81	O8	0.754370	0.941560	0.746500
C181	C18	0.732700	0.842000	0.780100
N131	N13	0.653100	0.791200	0.500100
H221	H22	0.588800	0.743200	0.445300
H231	H23	0.713400	0.801200	0.439800
C191	C19	0.654400	0.745000	0.663800
H241	H24	0.576900	0.712700	0.708500
N141	N14	0.634070	0.572210	0.802900
H251	H25	0.651600	0.516300	0.795200
H261	H26	0.557500	0.539100	0.801700
C201	C20	0.680300	0.646900	0.656400
H271	H27	0.646900	0.602400	0.556900
H281	H28	0.762200	0.678000	0.651200
N151	N15	0.544500	0.678500	0.103100
N161	N16	0.632200	0.499900	0.191900
Mn51	Mn5	0.338220	0.036900	0.045160
O91	O9	0.181510	0.951940	0.906100
C211	C21	0.322920	0.788150	0.048500
C221	C22	0.559800	0.206130	0.276600
O101	O10	0.058440	0.812810	0.746500
C231	C23	0.158000	0.890700	0.780100
N171	N17	0.208800	0.861900	0.500100
H291	H29	0.256800	0.845600	0.445300
H301	H30	0.198800	0.912200	0.439800
C241	C24	0.255000	0.909400	0.663800
H311	H31	0.287300	0.864200	0.708500
N181	N18	0.427790	0.061860	0.802900
H321	H32	0.483700	0.135300	0.795200
H331	H33	0.460900	0.018400	0.801700
C251	C25	0.353100	0.033400	0.656400
H341	H34	0.397600	0.044500	0.556900
H351	H35	0.322000	0.084200	0.651200
N191	N19	0.321500	0.866000	0.103100
N201	N20	0.500100	0.132300	0.191900
Mn61	Mn6	0.963100	0.301320	0.045160
O111	O11	0.048060	0.229570	0.906100
C261	C26	0.211850	0.534770	0.048500
C271	C27	0.793870	0.353670	0.276600
O121	O12	0.187190	0.245630	0.746500
C281	C28	0.109300	0.267300	0.780100
N211	N21	0.138100	0.346900	0.500100
H361	H36	0.154400	0.411200	0.445300
H371	H37	0.087800	0.286600	0.439800
C291	C29	0.090600	0.345600	0.663800
H381	H38	0.135800	0.423100	0.708500
N221	N22	0.938140	0.365930	0.802900
H391	H39	0.864700	0.348400	0.795200
H401	H40	0.981600	0.442500	0.801700
C301	C30	0.966600	0.319700	0.656400
H411	H41	0.955500	0.353100	0.556900
H421	H42	0.915800	0.237800	0.651200
N231	N23	0.134000	0.455500	0.103100
N241	N24	0.867700	0.367800	0.191900
Mn71	Mn7	0.333330	0.666670	0.922400
Mn81	Mn8	0.666670	0.333330	0.422400
