data_UJOJIO01_clean_PM
_symmetry_space_group_name_H-M	'P1'
_cell_length_a	13.506800
_cell_length_b	13.506800
_cell_length_c	8.067600
_cell_angle_alpha	90.000000
_cell_angle_beta	90.000000
_cell_angle_gamma	120.000000
_symmetry_Int_Tables_number 1

loop_
_symmetry_equiv_pos_as_xyz
'x,y,z'

loop_
_atom_site_label
_atom_site_type_symbol
_atom_site_fract_x
_atom_site_fract_y
_atom_site_fract_z
Mn11	Mn1	0.302490	0.337870	0.545950
O11	O1	0.229700	0.180510	0.407020
C11	C1	0.535390	0.322670	0.548600
C21	C2	0.354240	0.560070	0.776200
O21	O2	0.244200	0.057080	0.246000
C31	C3	0.266850	0.156900	0.280600
N11	N1	0.346720	0.207930	0.000350
H11	H1	0.411200	0.255900	0.945400
H21	H2	0.286400	0.197900	0.940000
C41	C4	0.345530	0.254340	0.164000
H31	H3	0.423100	0.286700	0.208700
N21	N2	0.366950	0.427650	0.303000
H41	H4	0.349700	0.483800	0.295500
H51	H5	0.443600	0.460500	0.301200
C51	C5	0.319700	0.352470	0.156200
H61	H6	0.352800	0.396800	0.056300
H71	H7	0.237600	0.321500	0.151700
N31	N3	0.456180	0.320680	0.605800
N41	N4	0.368400	0.499850	0.690100
Mn21	Mn2	0.662130	0.964620	0.545950
O31	O3	0.819490	0.049190	0.407020
C61	C6	0.677330	0.212720	0.548600
C71	C7	0.439930	0.794170	0.776200
O41	O4	0.942920	0.187120	0.246000
C81	C8	0.843100	0.109950	0.280600
N51	N5	0.792070	0.138790	0.000350
H81	H8	0.744100	0.155300	0.945400
H91	H9	0.802100	0.088500	0.940000
C91	C9	0.745660	0.091190	0.164000
H101	H10	0.713300	0.136400	0.208700
N61	N6	0.572350	0.939300	0.303000
H111	H11	0.516200	0.865900	0.295500
H121	H12	0.539500	0.983100	0.301200
C101	C10	0.647530	0.967230	0.156200
H131	H13	0.603200	0.956000	0.056300
H141	H14	0.678500	0.916100	0.151700
N71	N7	0.679320	0.135500	0.605800
N81	N8	0.500150	0.868550	0.690100
Mn31	Mn3	0.035380	0.697510	0.545950
O51	O5	0.950810	0.770300	0.407020
C111	C11	0.787280	0.464610	0.548600
C121	C12	0.205830	0.645760	0.776200
O61	O6	0.812880	0.755800	0.246000
C131	C13	0.890050	0.733150	0.280600
N91	N9	0.861210	0.653280	0.000350
H151	H15	0.844700	0.588800	0.945400
H161	H16	0.911500	0.713600	0.940000
C141	C14	0.908810	0.654470	0.164000
H171	H17	0.863600	0.576900	0.208700
N101	N10	0.060700	0.633050	0.303000
H181	H18	0.134100	0.650300	0.295500
H191	H19	0.016900	0.556400	0.301200
C151	C15	0.032770	0.680300	0.156200
H201	H20	0.044000	0.647200	0.056300
H211	H21	0.083900	0.762400	0.151700
N111	N11	0.864500	0.543820	0.605800
N121	N12	0.131450	0.631600	0.690100
Mn41	Mn4	0.697510	0.662130	0.045950
O71	O7	0.770300	0.819490	0.907020
C161	C16	0.464610	0.677330	0.048600
C171	C17	0.645760	0.439930	0.276200
O81	O8	0.755800	0.942920	0.746000
C181	C18	0.733150	0.843100	0.780600
N131	N13	0.653280	0.792070	0.500350
H221	H22	0.588800	0.744100	0.445400
H231	H23	0.713600	0.802100	0.440000
C191	C19	0.654470	0.745660	0.664000
H241	H24	0.576900	0.713300	0.708700
N141	N14	0.633050	0.572350	0.803000
H251	H25	0.650300	0.516200	0.795500
H261	H26	0.556400	0.539500	0.801200
C201	C20	0.680300	0.647530	0.656200
H271	H27	0.647200	0.603200	0.556300
H281	H28	0.762400	0.678500	0.651700
N151	N15	0.543820	0.679320	0.105800
N161	N16	0.631600	0.500150	0.190100
Mn51	Mn5	0.337870	0.035380	0.045950
O91	O9	0.180510	0.950810	0.907020
C211	C21	0.322670	0.787280	0.048600
C221	C22	0.560070	0.205830	0.276200
O101	O10	0.057080	0.812880	0.746000
C231	C23	0.156900	0.890050	0.780600
N171	N17	0.207930	0.861210	0.500350
H291	H29	0.255900	0.844700	0.445400
H301	H30	0.197900	0.911500	0.440000
C241	C24	0.254340	0.908810	0.664000
H311	H31	0.286700	0.863600	0.708700
N181	N18	0.427650	0.060700	0.803000
H321	H32	0.483800	0.134100	0.795500
H331	H33	0.460500	0.016900	0.801200
C251	C25	0.352470	0.032770	0.656200
H341	H34	0.396800	0.044000	0.556300
H351	H35	0.321500	0.083900	0.651700
N191	N19	0.320680	0.864500	0.105800
N201	N20	0.499850	0.131450	0.190100
Mn61	Mn6	0.964620	0.302490	0.045950
O111	O11	0.049190	0.229700	0.907020
C261	C26	0.212720	0.535390	0.048600
C271	C27	0.794170	0.354240	0.276200
O121	O12	0.187120	0.244200	0.746000
C281	C28	0.109950	0.266850	0.780600
N211	N21	0.138790	0.346720	0.500350
H361	H36	0.155300	0.411200	0.445400
H371	H37	0.088500	0.286400	0.440000
C291	C29	0.091190	0.345530	0.664000
H381	H38	0.136400	0.423100	0.708700
N221	N22	0.939300	0.366950	0.803000
H391	H39	0.865900	0.349700	0.795500
H401	H40	0.983100	0.443600	0.801200
C301	C30	0.967230	0.319700	0.656200
H411	H41	0.956000	0.352800	0.556300
H421	H42	0.916100	0.237600	0.651700
N231	N23	0.135500	0.456180	0.105800
N241	N24	0.868550	0.368400	0.190100
Mn71	Mn7	0.333330	0.666670	0.920560
Mn81	Mn8	0.666670	0.333330	0.420560
