data_UJOJIO07_clean_PM
_symmetry_space_group_name_H-M	'P1'
_cell_length_a	13.529300
_cell_length_b	13.529300
_cell_length_c	8.070700
_cell_angle_alpha	90.000000
_cell_angle_beta	90.000000
_cell_angle_gamma	120.000000
_symmetry_Int_Tables_number 1

loop_
_symmetry_equiv_pos_as_xyz
'x,y,z'

loop_
_atom_site_label
_atom_site_type_symbol
_atom_site_fract_x
_atom_site_fract_y
_atom_site_fract_z
Mn11	Mn1	0.301990	0.338040	0.545550
O11	O1	0.230500	0.181510	0.407400
C11	C1	0.535100	0.322700	0.548800
C21	C2	0.353900	0.560000	0.776000
O21	O2	0.246200	0.058100	0.247400
C31	C3	0.267800	0.157400	0.281100
N11	N1	0.346200	0.208000	0.000600
H11	H1	0.410200	0.256000	0.945200
H21	H2	0.285500	0.197800	0.941100
C41	C4	0.345700	0.254100	0.164100
H31	H3	0.423300	0.286500	0.208000
N21	N2	0.366200	0.427400	0.302300
H41	H4	0.348800	0.483300	0.294400
H51	H5	0.442800	0.460400	0.300500
C51	C5	0.319300	0.352100	0.157200
H61	H6	0.351800	0.396200	0.057000
H71	H7	0.237400	0.320800	0.153300
N31	N3	0.456300	0.321300	0.604700
N41	N4	0.368200	0.500600	0.690100
Mn21	Mn2	0.661960	0.963950	0.545550
O31	O3	0.818490	0.048990	0.407400
C61	C6	0.677300	0.212400	0.548800
C71	C7	0.440000	0.793900	0.776000
O41	O4	0.941900	0.188100	0.247400
C81	C8	0.842600	0.110400	0.281100
N51	N5	0.792000	0.138200	0.000600
H81	H8	0.744000	0.154200	0.945200
H91	H9	0.802200	0.087700	0.941100
C91	C9	0.745900	0.091600	0.164100
H101	H10	0.713500	0.136800	0.208000
N61	N6	0.572600	0.938800	0.302300
H111	H11	0.516700	0.865500	0.294400
H121	H12	0.539600	0.982400	0.300500
C101	C10	0.647900	0.967200	0.157200
H131	H13	0.603800	0.955600	0.057000
H141	H14	0.679200	0.916600	0.153300
N71	N7	0.678700	0.135000	0.604700
N81	N8	0.499400	0.867600	0.690100
Mn31	Mn3	0.036050	0.698010	0.545550
O51	O5	0.951010	0.769500	0.407400
C111	C11	0.787600	0.464900	0.548800
C121	C12	0.206100	0.646100	0.776000
O61	O6	0.811900	0.753800	0.247400
C131	C13	0.889600	0.732200	0.281100
N91	N9	0.861800	0.653800	0.000600
H151	H15	0.845800	0.589800	0.945200
H161	H16	0.912300	0.714500	0.941100
C141	C14	0.908400	0.654300	0.164100
H171	H17	0.863200	0.576700	0.208000
N101	N10	0.061200	0.633800	0.302300
H181	H18	0.134500	0.651200	0.294400
H191	H19	0.017600	0.557200	0.300500
C151	C15	0.032800	0.680700	0.157200
H201	H20	0.044400	0.648200	0.057000
H211	H21	0.083400	0.762600	0.153300
N111	N11	0.865000	0.543700	0.604700
N121	N12	0.132400	0.631800	0.690100
Mn41	Mn4	0.698010	0.661960	0.045550
O71	O7	0.769500	0.818490	0.907400
C161	C16	0.464900	0.677300	0.048800
C171	C17	0.646100	0.440000	0.276000
O81	O8	0.753800	0.941900	0.747400
C181	C18	0.732200	0.842600	0.781100
N131	N13	0.653800	0.792000	0.500600
H221	H22	0.589800	0.744000	0.445200
H231	H23	0.714500	0.802200	0.441100
C191	C19	0.654300	0.745900	0.664100
H241	H24	0.576700	0.713500	0.708000
N141	N14	0.633800	0.572600	0.802300
H251	H25	0.651200	0.516700	0.794400
H261	H26	0.557200	0.539600	0.800500
C201	C20	0.680700	0.647900	0.657200
H271	H27	0.648200	0.603800	0.557000
H281	H28	0.762600	0.679200	0.653300
N151	N15	0.543700	0.678700	0.104700
N161	N16	0.631800	0.499400	0.190100
Mn51	Mn5	0.338040	0.036050	0.045550
O91	O9	0.181510	0.951010	0.907400
C211	C21	0.322700	0.787600	0.048800
C221	C22	0.560000	0.206100	0.276000
O101	O10	0.058100	0.811900	0.747400
C231	C23	0.157400	0.889600	0.781100
N171	N17	0.208000	0.861800	0.500600
H291	H29	0.256000	0.845800	0.445200
H301	H30	0.197800	0.912300	0.441100
C241	C24	0.254100	0.908400	0.664100
H311	H31	0.286500	0.863200	0.708000
N181	N18	0.427400	0.061200	0.802300
H321	H32	0.483300	0.134500	0.794400
H331	H33	0.460400	0.017600	0.800500
C251	C25	0.352100	0.032800	0.657200
H341	H34	0.396200	0.044400	0.557000
H351	H35	0.320800	0.083400	0.653300
N191	N19	0.321300	0.865000	0.104700
N201	N20	0.500600	0.132400	0.190100
Mn61	Mn6	0.963950	0.301990	0.045550
O111	O11	0.048990	0.230500	0.907400
C261	C26	0.212400	0.535100	0.048800
C271	C27	0.793900	0.353900	0.276000
O121	O12	0.188100	0.246200	0.747400
C281	C28	0.110400	0.267800	0.781100
N211	N21	0.138200	0.346200	0.500600
H361	H36	0.154200	0.410200	0.445200
H371	H37	0.087700	0.285500	0.441100
C291	C29	0.091600	0.345700	0.664100
H381	H38	0.136800	0.423300	0.708000
N221	N22	0.938800	0.366200	0.802300
H391	H39	0.865500	0.348800	0.794400
H401	H40	0.982400	0.442800	0.800500
C301	C30	0.967200	0.319300	0.657200
H411	H41	0.955600	0.351800	0.557000
H421	H42	0.916600	0.237400	0.653300
N231	N23	0.135000	0.456300	0.104700
N241	N24	0.867600	0.368200	0.190100
Mn71	Mn7	0.333330	0.666670	0.921280
Mn81	Mn8	0.666670	0.333330	0.421280
