data_UJOJAG_clean_PM
_symmetry_space_group_name_H-M	'P1'
_cell_length_a	13.475000
_cell_length_b	13.475000
_cell_length_c	8.029100
_cell_angle_alpha	90.000000
_cell_angle_beta	90.000000
_cell_angle_gamma	120.000000
_symmetry_Int_Tables_number 1

loop_
_symmetry_equiv_pos_as_xyz
'x,y,z'

loop_
_atom_site_label
_atom_site_type_symbol
_atom_site_fract_x
_atom_site_fract_y
_atom_site_fract_z
Mn11	Mn1	0.302650	0.337390	0.954160
O11	O1	0.226560	0.179020	0.093500
C11	C1	0.534970	0.321880	0.949900
C21	C2	0.354070	0.559600	0.724300
O21	O2	0.239110	0.054980	0.257400
C31	C3	0.263420	0.155800	0.221500
N11	N1	0.346320	0.207770	0.501500
H11	H1	0.286100	0.197700	0.562900
H21	H2	0.411300	0.256100	0.555700
C41	C4	0.343940	0.253370	0.336400
H31	H3	0.421100	0.285000	0.289800
N21	N2	0.366830	0.427810	0.198200
H41	H4	0.443700	0.460700	0.200400
H51	H5	0.349500	0.484100	0.205300
C51	C5	0.318990	0.352390	0.345300
H61	H6	0.236800	0.321900	0.349900
H71	H7	0.352500	0.396500	0.445900
N31	N3	0.455530	0.319730	0.892600
N41	N4	0.367770	0.498520	0.808700
Mn21	Mn2	0.662610	0.965260	0.954160
O31	O3	0.820980	0.047540	0.093500
C61	C6	0.678120	0.213090	0.949900
C71	C7	0.440400	0.794470	0.724300
O41	O4	0.945020	0.184130	0.257400
C81	C8	0.844200	0.107620	0.221500
N51	N5	0.792230	0.138550	0.501500
H81	H8	0.802300	0.088400	0.562900
H91	H9	0.743900	0.155200	0.555700
C91	C9	0.746630	0.090570	0.336400
H101	H10	0.715000	0.136100	0.289800
N61	N6	0.572190	0.939020	0.198200
H111	H11	0.539300	0.983000	0.200400
H121	H12	0.515900	0.865400	0.205300
C101	C10	0.647610	0.966600	0.345300
H131	H13	0.678100	0.914900	0.349900
H141	H14	0.603500	0.956000	0.445900
N71	N7	0.680270	0.135800	0.892600
N81	N8	0.501480	0.869250	0.808700
Mn31	Mn3	0.034740	0.697350	0.954160
O51	O5	0.952460	0.773440	0.093500
C111	C11	0.786910	0.465030	0.949900
C121	C12	0.205530	0.645930	0.724300
O61	O6	0.815870	0.760890	0.257400
C131	C13	0.892380	0.736580	0.221500
N91	N9	0.861450	0.653680	0.501500
H151	H15	0.911600	0.713900	0.562900
H161	H16	0.844800	0.588700	0.555700
C141	C14	0.909430	0.656060	0.336400
H171	H17	0.863900	0.578900	0.289800
N101	N10	0.060980	0.633170	0.198200
H181	H18	0.017000	0.556300	0.200400
H191	H19	0.134600	0.650500	0.205300
C151	C15	0.033400	0.681010	0.345300
H201	H20	0.085100	0.763200	0.349900
H211	H21	0.044000	0.647500	0.445900
N111	N11	0.864200	0.544470	0.892600
N121	N12	0.130750	0.632230	0.808700
Mn41	Mn4	0.697350	0.662610	0.454160
O71	O7	0.773440	0.820980	0.593500
C161	C16	0.465030	0.678120	0.449900
C171	C17	0.645930	0.440400	0.224300
O81	O8	0.760890	0.945020	0.757400
C181	C18	0.736580	0.844200	0.721500
N131	N13	0.653680	0.792230	0.001500
H221	H22	0.713900	0.802300	0.062900
H231	H23	0.588700	0.743900	0.055700
C191	C19	0.656060	0.746630	0.836400
H241	H24	0.578900	0.715000	0.789800
N141	N14	0.633170	0.572190	0.698200
H251	H25	0.556300	0.539300	0.700400
H261	H26	0.650500	0.515900	0.705300
C201	C20	0.681010	0.647610	0.845300
H271	H27	0.763200	0.678100	0.849900
H281	H28	0.647500	0.603500	0.945900
N151	N15	0.544470	0.680270	0.392600
N161	N16	0.632230	0.501480	0.308700
Mn51	Mn5	0.337390	0.034740	0.454160
O91	O9	0.179020	0.952460	0.593500
C211	C21	0.321880	0.786910	0.449900
C221	C22	0.559600	0.205530	0.224300
O101	O10	0.054980	0.815870	0.757400
C231	C23	0.155800	0.892380	0.721500
N171	N17	0.207770	0.861450	0.001500
H291	H29	0.197700	0.911600	0.062900
H301	H30	0.256100	0.844800	0.055700
C241	C24	0.253370	0.909430	0.836400
H311	H31	0.285000	0.863900	0.789800
N181	N18	0.427810	0.060980	0.698200
H321	H32	0.460700	0.017000	0.700400
H331	H33	0.484100	0.134600	0.705300
C251	C25	0.352390	0.033400	0.845300
H341	H34	0.321900	0.085100	0.849900
H351	H35	0.396500	0.044000	0.945900
N191	N19	0.319730	0.864200	0.392600
N201	N20	0.498520	0.130750	0.308700
Mn61	Mn6	0.965260	0.302650	0.454160
O111	O11	0.047540	0.226560	0.593500
C261	C26	0.213090	0.534970	0.449900
C271	C27	0.794470	0.354070	0.224300
O121	O12	0.184130	0.239110	0.757400
C281	C28	0.107620	0.263420	0.721500
N211	N21	0.138550	0.346320	0.001500
H361	H36	0.088400	0.286100	0.062900
H371	H37	0.155200	0.411300	0.055700
C291	C29	0.090570	0.343940	0.836400
H381	H38	0.136100	0.421100	0.789800
N221	N22	0.939020	0.366830	0.698200
H391	H39	0.983000	0.443700	0.700400
H401	H40	0.865400	0.349500	0.705300
C301	C30	0.966600	0.318990	0.845300
H411	H41	0.914900	0.236800	0.849900
H421	H42	0.956000	0.352500	0.945900
N231	N23	0.135800	0.455530	0.392600
N241	N24	0.869250	0.367770	0.308700
Mn71	Mn7	0.333330	0.666670	0.579000
Mn81	Mn8	0.666670	0.333330	0.079000
