data_UJOJEK01_clean_PM
_symmetry_space_group_name_H-M	'P1'
_cell_length_a	13.526300
_cell_length_b	13.526300
_cell_length_c	8.056700
_cell_angle_alpha	90.000000
_cell_angle_beta	90.000000
_cell_angle_gamma	120.000000
_symmetry_Int_Tables_number 1

loop_
_symmetry_equiv_pos_as_xyz
'x,y,z'

loop_
_atom_site_label
_atom_site_type_symbol
_atom_site_fract_x
_atom_site_fract_y
_atom_site_fract_z
C11	C1	0.354260	0.560090	0.724200
C21	C2	0.464650	0.677380	0.451100
N11	N1	0.368590	0.500320	0.810200
Mn11	Mn1	0.302500	0.337910	0.954130
O11	O1	0.229910	0.180780	0.092800
N21	N2	0.366780	0.427240	0.197600
N31	N3	0.456320	0.320840	0.893700
O21	O2	0.187840	0.245170	0.753100
N41	N4	0.138880	0.346510	0.999700
C31	C3	0.267240	0.156940	0.219100
H11	H1	0.443300	0.460000	0.199400
H21	H2	0.349500	0.483300	0.205300
C41	C4	0.319600	0.351900	0.344100
C51	C5	0.345660	0.254200	0.336000
H31	H3	0.237600	0.320800	0.348400
H41	H4	0.352400	0.396000	0.444400
H51	H5	0.423200	0.286700	0.291500
H61	H6	0.286100	0.197500	0.559900
H71	H7	0.410700	0.255500	0.555000
C61	C6	0.439910	0.794170	0.724200
C71	C7	0.322620	0.787270	0.451100
N51	N5	0.499680	0.868270	0.810200
Mn21	Mn2	0.662090	0.964590	0.954130
O31	O3	0.819220	0.049130	0.092800
N61	N6	0.572760	0.939540	0.197600
N71	N7	0.679160	0.135480	0.893700
O41	O4	0.754830	0.942670	0.753100
N81	N8	0.653490	0.792370	0.999700
C81	C8	0.843060	0.110300	0.219100
H81	H8	0.540000	0.983300	0.199400
H91	H9	0.516700	0.866200	0.205300
C91	C9	0.648100	0.967700	0.344100
C101	C10	0.745800	0.091460	0.336000
H101	H10	0.679200	0.916800	0.348400
H111	H11	0.604000	0.956400	0.444400
H121	H12	0.713300	0.136500	0.291500
H131	H13	0.802500	0.088600	0.559900
H141	H14	0.744500	0.155200	0.555000
C111	C11	0.205830	0.645740	0.724200
C121	C12	0.212730	0.535350	0.451100
N91	N9	0.131730	0.631410	0.810200
Mn31	Mn3	0.035410	0.697500	0.954130
O51	O5	0.950870	0.770090	0.092800
N101	N10	0.060460	0.633220	0.197600
N111	N11	0.864520	0.543680	0.893700
O61	O6	0.057330	0.812160	0.753100
N121	N12	0.207630	0.861120	0.999700
C131	C13	0.889700	0.732760	0.219100
H151	H15	0.016700	0.556700	0.199400
H161	H16	0.133800	0.650500	0.205300
C141	C14	0.032300	0.680400	0.344100
C151	C15	0.908540	0.654340	0.336000
H171	H17	0.083200	0.762400	0.348400
H181	H18	0.043600	0.647600	0.444400
H191	H19	0.863500	0.576800	0.291500
H201	H20	0.911400	0.713900	0.559900
H211	H21	0.844800	0.589300	0.555000
C161	C16	0.645740	0.439910	0.224200
C171	C17	0.535350	0.322620	0.951100
N131	N13	0.631410	0.499680	0.310200
Mn41	Mn4	0.697500	0.662090	0.454130
O71	O7	0.770090	0.819220	0.592800
N141	N14	0.633220	0.572760	0.697600
N151	N15	0.543680	0.679160	0.393700
O81	O8	0.812160	0.754830	0.253100
N161	N16	0.861120	0.653490	0.499700
C181	C18	0.732760	0.843060	0.719100
H221	H22	0.556700	0.540000	0.699400
H231	H23	0.650500	0.516700	0.705300
C191	C19	0.680400	0.648100	0.844100
C201	C20	0.654340	0.745800	0.836000
H241	H24	0.762400	0.679200	0.848400
H251	H25	0.647600	0.604000	0.944400
H261	H26	0.576800	0.713300	0.791500
H271	H27	0.713900	0.802500	0.059900
H281	H28	0.589300	0.744500	0.055000
C211	C21	0.560090	0.205830	0.224200
C221	C22	0.677380	0.212730	0.951100
N171	N17	0.500320	0.131730	0.310200
Mn51	Mn5	0.337910	0.035410	0.454130
O91	O9	0.180780	0.950870	0.592800
N181	N18	0.427240	0.060460	0.697600
N191	N19	0.320840	0.864520	0.393700
O101	O10	0.245170	0.057330	0.253100
N201	N20	0.346510	0.207630	0.499700
C231	C23	0.156940	0.889700	0.719100
H291	H29	0.460000	0.016700	0.699400
H301	H30	0.483300	0.133800	0.705300
C241	C24	0.351900	0.032300	0.844100
C251	C25	0.254200	0.908540	0.836000
H311	H31	0.320800	0.083200	0.848400
H321	H32	0.396000	0.043600	0.944400
H331	H33	0.286700	0.863500	0.791500
H341	H34	0.197500	0.911400	0.059900
H351	H35	0.255500	0.844800	0.055000
C261	C26	0.794170	0.354260	0.224200
C271	C27	0.787270	0.464650	0.951100
N211	N21	0.868270	0.368590	0.310200
Mn61	Mn6	0.964590	0.302500	0.454130
O111	O11	0.049130	0.229910	0.592800
N221	N22	0.939540	0.366780	0.697600
N231	N23	0.135480	0.456320	0.393700
O121	O12	0.942670	0.187840	0.253100
N241	N24	0.792370	0.138880	0.499700
C281	C28	0.110300	0.267240	0.719100
H361	H36	0.983300	0.443300	0.699400
H371	H37	0.866200	0.349500	0.705300
C291	C29	0.967700	0.319600	0.844100
C301	C30	0.091460	0.345660	0.836000
H381	H38	0.916800	0.237600	0.848400
H391	H39	0.956400	0.352400	0.944400
H401	H40	0.136500	0.423200	0.791500
H411	H41	0.088600	0.286100	0.059900
H421	H42	0.155200	0.410700	0.055000
Mn71	Mn7	0.333330	0.666670	0.579420
Mn81	Mn8	0.666670	0.333330	0.079420
