data_UJOJIO06_clean_PM
_symmetry_space_group_name_H-M	'P1'
_cell_length_a	13.521400
_cell_length_b	13.521400
_cell_length_c	8.068600
_cell_angle_alpha	90.000000
_cell_angle_beta	90.000000
_cell_angle_gamma	120.000000
_symmetry_Int_Tables_number 1

loop_
_symmetry_equiv_pos_as_xyz
'x,y,z'

loop_
_atom_site_label
_atom_site_type_symbol
_atom_site_fract_x
_atom_site_fract_y
_atom_site_fract_z
Mn11	Mn1	0.301390	0.338020	0.545310
O11	O1	0.230030	0.181420	0.406800
C11	C1	0.534820	0.322730	0.548600
C21	C2	0.353700	0.559900	0.776600
O21	O2	0.245780	0.058060	0.246800
C31	C3	0.267700	0.157900	0.280300
N11	N1	0.346800	0.208700	0.000700
H11	H1	0.411200	0.256700	0.945900
H21	H2	0.286500	0.198700	0.940400
C41	C4	0.345600	0.254700	0.163900
H31	H3	0.423100	0.287200	0.208400
N21	N2	0.365800	0.427600	0.303300
H41	H4	0.348200	0.483400	0.295600
H51	H5	0.442500	0.460800	0.302000
C51	C5	0.319500	0.352500	0.156700
H61	H6	0.352700	0.397000	0.057000
H71	H7	0.237500	0.321300	0.151700
N31	N3	0.456000	0.321400	0.603700
N41	N4	0.368000	0.500000	0.691000
Mn21	Mn2	0.661980	0.963370	0.545310
O31	O3	0.818580	0.048610	0.406800
C61	C6	0.677270	0.212090	0.548600
C71	C7	0.440100	0.793800	0.776600
O41	O4	0.941940	0.187720	0.246800
C81	C8	0.842100	0.109800	0.280300
N51	N5	0.791300	0.138100	0.000700
H81	H8	0.743300	0.154500	0.945900
H91	H9	0.801300	0.087800	0.940400
C91	C9	0.745300	0.090900	0.163900
H101	H10	0.712800	0.135900	0.208400
N61	N6	0.572400	0.938200	0.303300
H111	H11	0.516600	0.864800	0.295600
H121	H12	0.539200	0.981700	0.302000
C101	C10	0.647500	0.967000	0.156700
H131	H13	0.603000	0.955700	0.057000
H141	H14	0.678700	0.916200	0.151700
N71	N7	0.678600	0.134600	0.603700
N81	N8	0.500000	0.868000	0.691000
Mn31	Mn3	0.036630	0.698610	0.545310
O51	O5	0.951390	0.769970	0.406800
C111	C11	0.787910	0.465180	0.548600
C121	C12	0.206200	0.646300	0.776600
O61	O6	0.812280	0.754220	0.246800
C131	C13	0.890200	0.732300	0.280300
N91	N9	0.861900	0.653200	0.000700
H151	H15	0.845500	0.588800	0.945900
H161	H16	0.912200	0.713500	0.940400
C141	C14	0.909100	0.654400	0.163900
H171	H17	0.864100	0.576900	0.208400
N101	N10	0.061800	0.634200	0.303300
H181	H18	0.135200	0.651800	0.295600
H191	H19	0.018300	0.557500	0.302000
C151	C15	0.033000	0.680500	0.156700
H201	H20	0.044300	0.647300	0.057000
H211	H21	0.083800	0.762500	0.151700
N111	N11	0.865400	0.544000	0.603700
N121	N12	0.132000	0.632000	0.691000
Mn41	Mn4	0.698610	0.661980	0.045310
O71	O7	0.769970	0.818580	0.906800
C161	C16	0.465180	0.677270	0.048600
C171	C17	0.646300	0.440100	0.276600
O81	O8	0.754220	0.941940	0.746800
C181	C18	0.732300	0.842100	0.780300
N131	N13	0.653200	0.791300	0.500700
H221	H22	0.588800	0.743300	0.445900
H231	H23	0.713500	0.801300	0.440400
C191	C19	0.654400	0.745300	0.663900
H241	H24	0.576900	0.712800	0.708400
N141	N14	0.634200	0.572400	0.803300
H251	H25	0.651800	0.516600	0.795600
H261	H26	0.557500	0.539200	0.802000
C201	C20	0.680500	0.647500	0.656700
H271	H27	0.647300	0.603000	0.557000
H281	H28	0.762500	0.678700	0.651700
N151	N15	0.544000	0.678600	0.103700
N161	N16	0.632000	0.500000	0.191000
Mn51	Mn5	0.338020	0.036630	0.045310
O91	O9	0.181420	0.951390	0.906800
C211	C21	0.322730	0.787910	0.048600
C221	C22	0.559900	0.206200	0.276600
O101	O10	0.058060	0.812280	0.746800
C231	C23	0.157900	0.890200	0.780300
N171	N17	0.208700	0.861900	0.500700
H291	H29	0.256700	0.845500	0.445900
H301	H30	0.198700	0.912200	0.440400
C241	C24	0.254700	0.909100	0.663900
H311	H31	0.287200	0.864100	0.708400
N181	N18	0.427600	0.061800	0.803300
H321	H32	0.483400	0.135200	0.795600
H331	H33	0.460800	0.018300	0.802000
C251	C25	0.352500	0.033000	0.656700
H341	H34	0.397000	0.044300	0.557000
H351	H35	0.321300	0.083800	0.651700
N191	N19	0.321400	0.865400	0.103700
N201	N20	0.500000	0.132000	0.191000
Mn61	Mn6	0.963370	0.301390	0.045310
O111	O11	0.048610	0.230030	0.906800
C261	C26	0.212090	0.534820	0.048600
C271	C27	0.793800	0.353700	0.276600
O121	O12	0.187720	0.245780	0.746800
C281	C28	0.109800	0.267700	0.780300
N211	N21	0.138100	0.346800	0.500700
H361	H36	0.154500	0.411200	0.445900
H371	H37	0.087800	0.286500	0.440400
C291	C29	0.090900	0.345600	0.663900
H381	H38	0.135900	0.423100	0.708400
N221	N22	0.938200	0.365800	0.803300
H391	H39	0.864800	0.348200	0.795600
H401	H40	0.981700	0.442500	0.802000
C301	C30	0.967000	0.319500	0.656700
H411	H41	0.955700	0.352700	0.557000
H421	H42	0.916200	0.237500	0.651700
N231	N23	0.134600	0.456000	0.103700
N241	N24	0.868000	0.368000	0.191000
Mn71	Mn7	0.333330	0.666670	0.921890
Mn81	Mn8	0.666670	0.333330	0.421890
