data_UJOJIO02_clean_PM
_symmetry_space_group_name_H-M	'P1'
_cell_length_a	13.511400
_cell_length_b	13.511400
_cell_length_c	8.058900
_cell_angle_alpha	90.000000
_cell_angle_beta	90.000000
_cell_angle_gamma	120.000000
_symmetry_Int_Tables_number 1

loop_
_symmetry_equiv_pos_as_xyz
'x,y,z'

loop_
_atom_site_label
_atom_site_type_symbol
_atom_site_fract_x
_atom_site_fract_y
_atom_site_fract_z
Mn11	Mn1	0.302470	0.338080	0.545680
O11	O1	0.228900	0.180470	0.406500
C11	C1	0.535110	0.322530	0.548800
C21	C2	0.354070	0.559930	0.776500
O21	O2	0.243450	0.057170	0.245140
C31	C3	0.266350	0.156930	0.279900
N11	N1	0.346740	0.207870	0.999700
H11	H1	0.411200	0.255900	0.944800
H21	H2	0.286400	0.197700	0.939100
C41	C4	0.345330	0.254230	0.163500
H31	H3	0.422700	0.286500	0.208600
N21	N2	0.367060	0.427880	0.302200
H41	H4	0.349900	0.484100	0.294700
H51	H5	0.443700	0.460600	0.300400
C51	C5	0.319600	0.352420	0.155100
H61	H6	0.352800	0.396600	0.055000
H71	H7	0.237600	0.321500	0.150600
N31	N3	0.455710	0.320510	0.605800
N41	N4	0.368180	0.499680	0.690400
Mn21	Mn2	0.661920	0.964390	0.545680
O31	O3	0.819530	0.048430	0.406500
C61	C6	0.677470	0.212580	0.548800
C71	C7	0.440070	0.794140	0.776500
O41	O4	0.942830	0.186280	0.245140
C81	C8	0.843070	0.109420	0.279900
N51	N5	0.792130	0.138870	0.999700
H81	H8	0.744100	0.155300	0.944800
H91	H9	0.802300	0.088700	0.939100
C91	C9	0.745770	0.091100	0.163500
H101	H10	0.713500	0.136200	0.208600
N61	N6	0.572120	0.939180	0.302200
H111	H11	0.515900	0.865800	0.294700
H121	H12	0.539400	0.983100	0.300400
C101	C10	0.647580	0.967180	0.155100
H131	H13	0.603400	0.956200	0.055000
H141	H14	0.678500	0.916100	0.150600
N71	N7	0.679490	0.135200	0.605800
N81	N8	0.500320	0.868500	0.690400
Mn31	Mn3	0.035610	0.697530	0.545680
O51	O5	0.951570	0.771100	0.406500
C111	C11	0.787420	0.464890	0.548800
C121	C12	0.205860	0.645930	0.776500
O61	O6	0.813720	0.756550	0.245140
C131	C13	0.890580	0.733650	0.279900
N91	N9	0.861130	0.653260	0.999700
H151	H15	0.844700	0.588800	0.944800
H161	H16	0.911300	0.713600	0.939100
C141	C14	0.908900	0.654670	0.163500
H171	H17	0.863800	0.577300	0.208600
N101	N10	0.060820	0.632940	0.302200
H181	H18	0.134200	0.650100	0.294700
H191	H19	0.016900	0.556300	0.300400
C151	C15	0.032820	0.680400	0.155100
H201	H20	0.043800	0.647200	0.055000
H211	H21	0.083900	0.762400	0.150600
N111	N11	0.864800	0.544290	0.605800
N121	N12	0.131500	0.631820	0.690400
Mn41	Mn4	0.697530	0.661920	0.045680
O71	O7	0.771100	0.819530	0.906500
C161	C16	0.464890	0.677470	0.048800
C171	C17	0.645930	0.440070	0.276500
O81	O8	0.756550	0.942830	0.745140
C181	C18	0.733650	0.843070	0.779900
N131	N13	0.653260	0.792130	0.499700
H221	H22	0.588800	0.744100	0.444800
H231	H23	0.713600	0.802300	0.439100
C191	C19	0.654670	0.745770	0.663500
H241	H24	0.577300	0.713500	0.708600
N141	N14	0.632940	0.572120	0.802200
H251	H25	0.650100	0.515900	0.794700
H261	H26	0.556300	0.539400	0.800400
C201	C20	0.680400	0.647580	0.655100
H271	H27	0.647200	0.603400	0.555000
H281	H28	0.762400	0.678500	0.650600
N151	N15	0.544290	0.679490	0.105800
N161	N16	0.631820	0.500320	0.190400
Mn51	Mn5	0.338080	0.035610	0.045680
O91	O9	0.180470	0.951570	0.906500
C211	C21	0.322530	0.787420	0.048800
C221	C22	0.559930	0.205860	0.276500
O101	O10	0.057170	0.813720	0.745140
C231	C23	0.156930	0.890580	0.779900
N171	N17	0.207870	0.861130	0.499700
H291	H29	0.255900	0.844700	0.444800
H301	H30	0.197700	0.911300	0.439100
C241	C24	0.254230	0.908900	0.663500
H311	H31	0.286500	0.863800	0.708600
N181	N18	0.427880	0.060820	0.802200
H321	H32	0.484100	0.134200	0.794700
H331	H33	0.460600	0.016900	0.800400
C251	C25	0.352420	0.032820	0.655100
H341	H34	0.396600	0.043800	0.555000
H351	H35	0.321500	0.083900	0.650600
N191	N19	0.320510	0.864800	0.105800
N201	N20	0.499680	0.131500	0.190400
Mn61	Mn6	0.964390	0.302470	0.045680
O111	O11	0.048430	0.228900	0.906500
C261	C26	0.212580	0.535110	0.048800
C271	C27	0.794140	0.354070	0.276500
O121	O12	0.186280	0.243450	0.745140
C281	C28	0.109420	0.266350	0.779900
N211	N21	0.138870	0.346740	0.499700
H361	H36	0.155300	0.411200	0.444800
H371	H37	0.088700	0.286400	0.439100
C291	C29	0.091100	0.345330	0.663500
H381	H38	0.136200	0.422700	0.708600
N221	N22	0.939180	0.367060	0.802200
H391	H39	0.865800	0.349900	0.794700
H401	H40	0.983100	0.443700	0.800400
C301	C30	0.967180	0.319600	0.655100
H411	H41	0.956200	0.352800	0.555000
H421	H42	0.916100	0.237600	0.650600
N231	N23	0.135200	0.455710	0.105800
N241	N24	0.868500	0.368180	0.190400
Mn71	Mn7	0.333330	0.666670	0.921250
Mn81	Mn8	0.666670	0.333330	0.421250
