data_UJOKIP02_clean_PM
_symmetry_space_group_name_H-M	'P1'
_cell_length_a	13.557600
_cell_length_b	13.557600
_cell_length_c	8.099400
_cell_angle_alpha	90.000000
_cell_angle_beta	90.000000
_cell_angle_gamma	120.000000
_symmetry_Int_Tables_number 1

loop_
_symmetry_equiv_pos_as_xyz
'x,y,z'

loop_
_atom_site_label
_atom_site_type_symbol
_atom_site_fract_x
_atom_site_fract_y
_atom_site_fract_z
Mn11	Mn1	0.295730	0.331900	0.544150
O11	O1	0.226200	0.176700	0.407100
C11	C1	0.530800	0.320300	0.560600
C21	C2	0.353000	0.554600	0.773000
O21	O2	0.239700	0.054400	0.245200
C31	C3	0.261400	0.154600	0.280500
N11	N1	0.340100	0.206600	0.000000
H11	H1	0.404100	0.254500	0.944900
H21	H2	0.279700	0.196600	0.940700
C41	C4	0.339600	0.252500	0.164700
H31	H3	0.417000	0.284400	0.208600
N21	N2	0.362700	0.423500	0.304500
H41	H4	0.346800	0.480300	0.297700
H51	H5	0.439000	0.454900	0.303300
C51	C5	0.314800	0.349000	0.158900
H61	H6	0.347300	0.393300	0.059200
H71	H7	0.233000	0.318400	0.155500
N31	N3	0.451300	0.318800	0.610900
N41	N4	0.363400	0.493300	0.689600
Mn21	Mn2	0.668100	0.963830	0.544150
O31	O3	0.823300	0.049500	0.407100
C61	C6	0.679700	0.210500	0.560600
C71	C7	0.445400	0.798400	0.773000
O41	O4	0.945600	0.185300	0.245200
C81	C8	0.845400	0.106800	0.280500
N51	N5	0.793400	0.133500	0.000000
H81	H8	0.745500	0.149600	0.944900
H91	H9	0.803400	0.083100	0.940700
C91	C9	0.747500	0.087100	0.164700
H101	H10	0.715600	0.132600	0.208600
N61	N6	0.576500	0.939200	0.304500
H111	H11	0.519700	0.866500	0.297700
H121	H12	0.545100	0.984100	0.303300
C101	C10	0.651000	0.965800	0.158900
H131	H13	0.606700	0.954000	0.059200
H141	H14	0.681600	0.914600	0.155500
N71	N7	0.681200	0.132500	0.610900
N81	N8	0.506700	0.870100	0.689600
Mn31	Mn3	0.036170	0.704270	0.544150
O51	O5	0.950500	0.773800	0.407100
C111	C11	0.789500	0.469200	0.560600
C121	C12	0.201600	0.647000	0.773000
O61	O6	0.814700	0.760300	0.245200
C131	C13	0.893200	0.738600	0.280500
N91	N9	0.866500	0.659900	0.000000
H151	H15	0.850400	0.595900	0.944900
H161	H16	0.916900	0.720300	0.940700
C141	C14	0.912900	0.660400	0.164700
H171	H17	0.867400	0.583000	0.208600
N101	N10	0.060800	0.637300	0.304500
H181	H18	0.133500	0.653200	0.297700
H191	H19	0.015900	0.561000	0.303300
C151	C15	0.034200	0.685200	0.158900
H201	H20	0.046000	0.652700	0.059200
H211	H21	0.085400	0.767000	0.155500
N111	N11	0.867500	0.548700	0.610900
N121	N12	0.129900	0.636600	0.689600
Mn41	Mn4	0.704270	0.668100	0.044150
O71	O7	0.773800	0.823300	0.907100
C161	C16	0.469200	0.679700	0.060600
C171	C17	0.647000	0.445400	0.273000
O81	O8	0.760300	0.945600	0.745200
C181	C18	0.738600	0.845400	0.780500
N131	N13	0.659900	0.793400	0.500000
H221	H22	0.595900	0.745500	0.444900
H231	H23	0.720300	0.803400	0.440700
C191	C19	0.660400	0.747500	0.664700
H241	H24	0.583000	0.715600	0.708600
N141	N14	0.637300	0.576500	0.804500
H251	H25	0.653200	0.519700	0.797700
H261	H26	0.561000	0.545100	0.803300
C201	C20	0.685200	0.651000	0.658900
H271	H27	0.652700	0.606700	0.559200
H281	H28	0.767000	0.681600	0.655500
N151	N15	0.548700	0.681200	0.110900
N161	N16	0.636600	0.506700	0.189600
Mn51	Mn5	0.331900	0.036170	0.044150
O91	O9	0.176700	0.950500	0.907100
C211	C21	0.320300	0.789500	0.060600
C221	C22	0.554600	0.201600	0.273000
O101	O10	0.054400	0.814700	0.745200
C231	C23	0.154600	0.893200	0.780500
N171	N17	0.206600	0.866500	0.500000
H291	H29	0.254500	0.850400	0.444900
H301	H30	0.196600	0.916900	0.440700
C241	C24	0.252500	0.912900	0.664700
H311	H31	0.284400	0.867400	0.708600
N181	N18	0.423500	0.060800	0.804500
H321	H32	0.480300	0.133500	0.797700
H331	H33	0.454900	0.015900	0.803300
C251	C25	0.349000	0.034200	0.658900
H341	H34	0.393300	0.046000	0.559200
H351	H35	0.318400	0.085400	0.655500
N191	N19	0.318800	0.867500	0.110900
N201	N20	0.493300	0.129900	0.189600
Mn61	Mn6	0.963830	0.295730	0.044150
O111	O11	0.049500	0.226200	0.907100
C261	C26	0.210500	0.530800	0.060600
C271	C27	0.798400	0.353000	0.273000
O121	O12	0.185300	0.239700	0.745200
C281	C28	0.106800	0.261400	0.780500
N211	N21	0.133500	0.340100	0.500000
H361	H36	0.149600	0.404100	0.444900
H371	H37	0.083100	0.279700	0.440700
C291	C29	0.087100	0.339600	0.664700
H381	H38	0.132600	0.417000	0.708600
N221	N22	0.939200	0.362700	0.804500
H391	H39	0.866500	0.346800	0.797700
H401	H40	0.984100	0.439000	0.803300
C301	C30	0.965800	0.314800	0.658900
H411	H41	0.954000	0.347300	0.559200
H421	H42	0.914600	0.233000	0.655500
N231	N23	0.132500	0.451300	0.110900
N241	N24	0.870100	0.363400	0.189600
Cr11	Cr1	0.333330	0.666670	0.923800
Cr21	Cr2	0.666670	0.333330	0.423800
