data_UJOKIP03_clean_PM
_symmetry_space_group_name_H-M	'P1'
_cell_length_a	13.539200
_cell_length_b	13.539200
_cell_length_c	8.069200
_cell_angle_alpha	90.000000
_cell_angle_beta	90.000000
_cell_angle_gamma	120.000000
_symmetry_Int_Tables_number 1

loop_
_symmetry_equiv_pos_as_xyz
'x,y,z'

loop_
_atom_site_label
_atom_site_type_symbol
_atom_site_fract_x
_atom_site_fract_y
_atom_site_fract_z
Mn11	Mn1	0.296730	0.332380	0.543810
O11	O1	0.225900	0.176900	0.406700
C11	C1	0.530700	0.319500	0.561300
C21	C2	0.354100	0.554900	0.773100
O21	O2	0.239700	0.053300	0.245300
C31	C3	0.261500	0.154100	0.280300
N11	N1	0.340400	0.205000	0.998700
H11	H1	0.404100	0.252700	0.942600
H21	H2	0.279600	0.194600	0.939600
C41	C4	0.340600	0.252000	0.163400
H31	H3	0.418000	0.283700	0.207400
N21	N2	0.363900	0.424200	0.303700
H41	H4	0.347900	0.481100	0.296800
H51	H5	0.440200	0.455600	0.302400
C51	C5	0.315700	0.349500	0.157700
H61	H6	0.348100	0.393700	0.057600
H71	H7	0.233800	0.318900	0.154500
N31	N3	0.450600	0.317400	0.612600
N41	N4	0.364900	0.494100	0.688700
Mn21	Mn2	0.667620	0.964350	0.543810
O31	O3	0.823100	0.049000	0.406700
C61	C6	0.680500	0.211200	0.561300
C71	C7	0.445100	0.799200	0.773100
O41	O4	0.946700	0.186400	0.245300
C81	C8	0.845900	0.107400	0.280300
N51	N5	0.795000	0.135400	0.998700
H81	H8	0.747300	0.151400	0.942600
H91	H9	0.805400	0.085000	0.939600
C91	C9	0.748000	0.088600	0.163400
H101	H10	0.716300	0.134300	0.207400
N61	N6	0.575800	0.939700	0.303700
H111	H11	0.518900	0.866800	0.296800
H121	H12	0.544400	0.984600	0.302400
C101	C10	0.650500	0.966200	0.157700
H131	H13	0.606300	0.954400	0.057600
H141	H14	0.681100	0.914900	0.154500
N71	N7	0.682600	0.133200	0.612600
N81	N8	0.505900	0.870800	0.688700
Mn31	Mn3	0.035650	0.703270	0.543810
O51	O5	0.951000	0.774100	0.406700
C111	C11	0.788800	0.469300	0.561300
C121	C12	0.200800	0.645900	0.773100
O61	O6	0.813600	0.760300	0.245300
C131	C13	0.892600	0.738500	0.280300
N91	N9	0.864600	0.659600	0.998700
H151	H15	0.848600	0.595900	0.942600
H161	H16	0.915000	0.720400	0.939600
C141	C14	0.911400	0.659400	0.163400
H171	H17	0.865700	0.582000	0.207400
N101	N10	0.060300	0.636100	0.303700
H181	H18	0.133200	0.652100	0.296800
H191	H19	0.015400	0.559800	0.302400
C151	C15	0.033800	0.684300	0.157700
H201	H20	0.045600	0.651900	0.057600
H211	H21	0.085100	0.766200	0.154500
N111	N11	0.866800	0.549400	0.612600
N121	N12	0.129200	0.635100	0.688700
Mn41	Mn4	0.703270	0.667620	0.043810
O71	O7	0.774100	0.823100	0.906700
C161	C16	0.469300	0.680500	0.061300
C171	C17	0.645900	0.445100	0.273100
O81	O8	0.760300	0.946700	0.745300
C181	C18	0.738500	0.845900	0.780300
N131	N13	0.659600	0.795000	0.498700
H221	H22	0.595900	0.747300	0.442600
H231	H23	0.720400	0.805400	0.439600
C191	C19	0.659400	0.748000	0.663400
H241	H24	0.582000	0.716300	0.707400
N141	N14	0.636100	0.575800	0.803700
H251	H25	0.652100	0.518900	0.796800
H261	H26	0.559800	0.544400	0.802400
C201	C20	0.684300	0.650500	0.657700
H271	H27	0.651900	0.606300	0.557600
H281	H28	0.766200	0.681100	0.654500
N151	N15	0.549400	0.682600	0.112600
N161	N16	0.635100	0.505900	0.188700
Mn51	Mn5	0.332380	0.035650	0.043810
O91	O9	0.176900	0.951000	0.906700
C211	C21	0.319500	0.788800	0.061300
C221	C22	0.554900	0.200800	0.273100
O101	O10	0.053300	0.813600	0.745300
C231	C23	0.154100	0.892600	0.780300
N171	N17	0.205000	0.864600	0.498700
H291	H29	0.252700	0.848600	0.442600
H301	H30	0.194600	0.915000	0.439600
C241	C24	0.252000	0.911400	0.663400
H311	H31	0.283700	0.865700	0.707400
N181	N18	0.424200	0.060300	0.803700
H321	H32	0.481100	0.133200	0.796800
H331	H33	0.455600	0.015400	0.802400
C251	C25	0.349500	0.033800	0.657700
H341	H34	0.393700	0.045600	0.557600
H351	H35	0.318900	0.085100	0.654500
N191	N19	0.317400	0.866800	0.112600
N201	N20	0.494100	0.129200	0.188700
Mn61	Mn6	0.964350	0.296730	0.043810
O111	O11	0.049000	0.225900	0.906700
C261	C26	0.211200	0.530700	0.061300
C271	C27	0.799200	0.354100	0.273100
O121	O12	0.186400	0.239700	0.745300
C281	C28	0.107400	0.261500	0.780300
N211	N21	0.135400	0.340400	0.498700
H361	H36	0.151400	0.404100	0.442600
H371	H37	0.085000	0.279600	0.439600
C291	C29	0.088600	0.340600	0.663400
H381	H38	0.134300	0.418000	0.707400
N221	N22	0.939700	0.363900	0.803700
H391	H39	0.866800	0.347900	0.796800
H401	H40	0.984600	0.440200	0.802400
C301	C30	0.966200	0.315700	0.657700
H411	H41	0.954400	0.348100	0.557600
H421	H42	0.914900	0.233800	0.654500
N231	N23	0.133200	0.450600	0.112600
N241	N24	0.870800	0.364900	0.188700
Cr11	Cr1	0.333330	0.666670	0.924400
Cr21	Cr2	0.666670	0.333330	0.424400
