data_UJUQIB_clean_PM
_symmetry_space_group_name_H-M	'P1'
_cell_length_a	16.679000
_cell_length_b	16.679000
_cell_length_c	19.050000
_cell_angle_alpha	90.000000
_cell_angle_beta	90.000000
_cell_angle_gamma	120.000000
_symmetry_Int_Tables_number 1

loop_
_symmetry_equiv_pos_as_xyz
'x,y,z'

loop_
_atom_site_label
_atom_site_type_symbol
_atom_site_fract_x
_atom_site_fract_y
_atom_site_fract_z
O11	O1	0.483700	0.651700	0.721400
N11	N1	0.551000	0.365300	0.375700
C11	C1	0.504600	0.366900	0.431200
H11	H1	0.444800	0.318600	0.444300
C21	C2	0.662600	0.761500	0.809000
H21	H2	0.629100	0.695800	0.810700
C31	C3	0.757700	0.806800	0.810300
H31	H3	0.789300	0.772600	0.809900
C41	C4	0.439200	0.419800	0.555300
H41	H4	0.398900	0.361100	0.534900
C51	C5	0.411500	0.451800	0.612600
H51	H5	0.352100	0.412600	0.632400
O21	O2	0.348300	0.832000	0.721400
N21	N2	0.634700	0.185700	0.375700
C61	C6	0.633100	0.137700	0.431200
H61	H6	0.681400	0.126200	0.444300
C71	C7	0.238500	0.901100	0.809000
H71	H7	0.304200	0.933300	0.810700
C81	C8	0.193200	0.950900	0.810300
H81	H8	0.227400	0.016700	0.809900
C91	C9	0.580200	0.019400	0.555300
H91	H9	0.638900	0.037800	0.534900
C101	C10	0.548200	0.959700	0.612600
H101	H10	0.587400	0.939500	0.632400
O31	O3	0.168000	0.516300	0.721400
N31	N3	0.814300	0.449000	0.375700
C111	C11	0.862300	0.495400	0.431200
H111	H11	0.873800	0.555200	0.444300
C121	C12	0.098900	0.337400	0.809000
H121	H12	0.066700	0.370900	0.810700
C131	C13	0.049100	0.242300	0.810300
H131	H13	0.983300	0.210700	0.809900
C141	C14	0.980600	0.560800	0.555300
H141	H14	0.962200	0.601100	0.534900
C151	C15	0.040300	0.588500	0.612600
H151	H15	0.060500	0.647900	0.632400
O41	O4	0.516300	0.348300	0.221400
N41	N4	0.449000	0.634700	0.875700
C161	C16	0.495400	0.633100	0.931200
H161	H16	0.555200	0.681400	0.944300
C171	C17	0.337400	0.238500	0.309000
H171	H17	0.370900	0.304200	0.310700
C181	C18	0.242300	0.193200	0.310300
H181	H18	0.210700	0.227400	0.309900
C191	C19	0.560800	0.580200	0.055300
H191	H19	0.601100	0.638900	0.034900
C201	C20	0.588500	0.548200	0.112600
H201	H20	0.647900	0.587400	0.132400
O51	O5	0.651700	0.168000	0.221400
N51	N5	0.365300	0.814300	0.875700
C211	C21	0.366900	0.862300	0.931200
H211	H21	0.318600	0.873800	0.944300
C221	C22	0.761500	0.098900	0.309000
H221	H22	0.695800	0.066700	0.310700
C231	C23	0.806800	0.049100	0.310300
H231	H23	0.772600	0.983300	0.309900
C241	C24	0.419800	0.980600	0.055300
H241	H24	0.361100	0.962200	0.034900
C251	C25	0.451800	0.040300	0.112600
H251	H25	0.412600	0.060500	0.132400
O61	O6	0.832000	0.483700	0.221400
N61	N6	0.185700	0.551000	0.875700
C261	C26	0.137700	0.504600	0.931200
H261	H26	0.126200	0.444800	0.944300
C271	C27	0.901100	0.662600	0.309000
H271	H27	0.933300	0.629100	0.310700
C281	C28	0.950900	0.757700	0.310300
H281	H28	0.016700	0.789300	0.309900
C291	C29	0.019400	0.439200	0.055300
H291	H29	0.037800	0.398900	0.034900
C301	C30	0.959700	0.411500	0.112600
H301	H30	0.939500	0.352100	0.132400
O71	O7	0.348300	0.516300	0.721400
N71	N7	0.634700	0.449000	0.375700
C311	C31	0.633100	0.495400	0.431200
H311	H31	0.681400	0.555200	0.444300
C321	C32	0.238500	0.337400	0.809000
H321	H32	0.304200	0.370900	0.810700
C331	C33	0.193200	0.242300	0.810300
H331	H33	0.227400	0.210700	0.809900
C341	C34	0.580200	0.560800	0.555300
H341	H34	0.638900	0.601100	0.534900
C351	C35	0.548200	0.588500	0.612600
H351	H35	0.587400	0.647900	0.632400
O81	O8	0.168000	0.651700	0.721400
N81	N8	0.814300	0.365300	0.375700
C361	C36	0.862300	0.366900	0.431200
H361	H36	0.873800	0.318600	0.444300
C371	C37	0.098900	0.761500	0.809000
H371	H37	0.066700	0.695800	0.810700
C381	C38	0.049100	0.806800	0.810300
H381	H38	0.983300	0.772600	0.809900
C391	C39	0.980600	0.419800	0.555300
H391	H39	0.962200	0.361100	0.534900
C401	C40	0.040300	0.451800	0.612600
H401	H40	0.060500	0.412600	0.632400
O91	O9	0.483700	0.832000	0.721400
N91	N9	0.551000	0.185700	0.375700
C411	C41	0.504600	0.137700	0.431200
H411	H41	0.444800	0.126200	0.444300
C421	C42	0.662600	0.901100	0.809000
H421	H42	0.629100	0.933300	0.810700
C431	C43	0.757700	0.950900	0.810300
H431	H43	0.789300	0.016700	0.809900
C441	C44	0.439200	0.019400	0.555300
H441	H44	0.398900	0.037800	0.534900
C451	C45	0.411500	0.959700	0.612600
H451	H45	0.352100	0.939500	0.632400
O101	O10	0.651700	0.483700	0.221400
N101	N10	0.365300	0.551000	0.875700
C461	C46	0.366900	0.504600	0.931200
H461	H46	0.318600	0.444800	0.944300
C471	C47	0.761500	0.662600	0.309000
H471	H47	0.695800	0.629100	0.310700
C481	C48	0.806800	0.757700	0.310300
H481	H48	0.772600	0.789300	0.309900
C491	C49	0.419800	0.439200	0.055300
H491	H49	0.361100	0.398900	0.034900
C501	C50	0.451800	0.411500	0.112600
H501	H50	0.412600	0.352100	0.132400
O111	O11	0.832000	0.348300	0.221400
N111	N11	0.185700	0.634700	0.875700
C511	C51	0.137700	0.633100	0.931200
H511	H51	0.126200	0.681400	0.944300
C521	C52	0.901100	0.238500	0.309000
H521	H52	0.933300	0.304200	0.310700
C531	C53	0.950900	0.193200	0.310300
H531	H53	0.016700	0.227400	0.309900
C541	C54	0.019400	0.580200	0.055300
H541	H54	0.037800	0.638900	0.034900
C551	C55	0.959700	0.548200	0.112600
H551	H55	0.939500	0.587400	0.132400
O121	O12	0.516300	0.168000	0.221400
N121	N12	0.449000	0.814300	0.875700
C561	C56	0.495400	0.862300	0.931200
H561	H56	0.555200	0.873800	0.944300
C571	C57	0.337400	0.098900	0.309000
H571	H57	0.370900	0.066700	0.310700
C581	C58	0.242300	0.049100	0.310300
H581	H58	0.210700	0.983300	0.309900
C591	C59	0.560800	0.980600	0.055300
H591	H59	0.601100	0.962200	0.034900
C601	C60	0.588500	0.040300	0.112600
H601	H60	0.647900	0.060500	0.132400
Co11	Co1	0.470930	0.735470	0.796850
N131	N13	0.615500	0.807750	0.805100
C611	C61	0.807900	0.903950	0.812300
C621	C62	0.911100	0.955550	0.813100
Co21	Co2	0.264530	0.735470	0.796850
N141	N14	0.192250	0.807750	0.805100
C631	C63	0.096050	0.903950	0.812300
C641	C64	0.044450	0.955550	0.813100
Co31	Co3	0.264530	0.529070	0.796850
N151	N15	0.192250	0.384500	0.805100
C651	C65	0.096050	0.192100	0.812300
C661	C66	0.044450	0.088900	0.813100
Co41	Co4	0.529070	0.264530	0.296850
N161	N16	0.384500	0.192250	0.305100
C671	C67	0.192100	0.096050	0.312300
C681	C68	0.088900	0.044450	0.313100
Co51	Co5	0.735470	0.264530	0.296850
N171	N17	0.807750	0.192250	0.305100
C691	C69	0.903950	0.096050	0.312300
C701	C70	0.955550	0.044450	0.313100
Co61	Co6	0.735470	0.470930	0.296850
N181	N18	0.807750	0.615500	0.305100
C711	C71	0.903950	0.807900	0.312300
C721	C72	0.955550	0.911100	0.313100
O131	O13	0.333330	0.666670	0.776600
O141	O14	0.666670	0.333330	0.276600
C731	C73	0.429300	0.570700	0.699500
N191	N19	0.553700	0.446300	0.466400
C741	C74	0.464800	0.535200	0.641100
C751	C75	0.525200	0.474800	0.529600
C761	C76	0.429300	0.858600	0.699500
N201	N20	0.553700	0.107400	0.466400
C771	C77	0.464800	0.929600	0.641100
C781	C78	0.525200	0.050400	0.529600
C791	C79	0.141400	0.570700	0.699500
N211	N21	0.892600	0.446300	0.466400
C801	C80	0.070400	0.535200	0.641100
C811	C81	0.949600	0.474800	0.529600
C821	C82	0.570700	0.429300	0.199500
N221	N22	0.446300	0.553700	0.966400
C831	C83	0.535200	0.464800	0.141100
C841	C84	0.474800	0.525200	0.029600
C851	C85	0.570700	0.141400	0.199500
N231	N23	0.446300	0.892600	0.966400
C861	C86	0.535200	0.070400	0.141100
C871	C87	0.474800	0.949600	0.029600
C881	C88	0.858600	0.429300	0.199500
N241	N24	0.107400	0.553700	0.966400
C891	C89	0.929600	0.464800	0.141100
C901	C90	0.050400	0.525200	0.029600
N251	N25	0.952150	0.904300	0.814300
N261	N26	0.095700	0.047850	0.814300
N271	N27	0.952150	0.047850	0.814300
N281	N28	0.047850	0.095700	0.314300
N291	N29	0.904300	0.952150	0.314300
N301	N30	0.047850	0.952150	0.314300
