data_UKAPUS_clean_PM
_symmetry_space_group_name_H-M	'P1'
_cell_length_a	10.729800
_cell_length_b	11.907900
_cell_length_c	14.767800
_cell_angle_alpha	73.057000
_cell_angle_beta	71.528000
_cell_angle_gamma	66.456000
_symmetry_Int_Tables_number 1

loop_
_symmetry_equiv_pos_as_xyz
'x,y,z'

loop_
_atom_site_label
_atom_site_type_symbol
_atom_site_fract_x
_atom_site_fract_y
_atom_site_fract_z
Nd11	Nd1	0.014950	0.450550	0.371710
Nd21	Nd2	0.985050	0.549450	0.628290
P11	P1	0.859280	0.281900	0.273520
P21	P2	0.140720	0.718100	0.726480
H11	H1	0.497700	0.362600	0.557800
H21	H2	0.049800	0.102800	0.381400
H31	H3	0.726300	0.319600	0.463200
H41	H4	0.027800	0.175300	0.107500
H51	H5	0.359100	0.385300	0.324600
H61	H6	0.589400	0.334900	0.231100
H71	H7	0.815200	0.084100	0.221800
H81	H8	0.750300	0.577500	0.983400
H91	H9	0.060600	0.250900	0.939200
H101	H10	0.115400	0.887000	0.435300
H111	H11	0.895400	0.864400	0.267200
H121	H12	0.725600	0.508200	0.152300
H131	H13	0.502300	0.637400	0.442200
H141	H14	0.950200	0.897200	0.618600
H151	H15	0.273700	0.680400	0.536800
H161	H16	0.972200	0.824700	0.892500
H171	H17	0.640900	0.614700	0.675400
H181	H18	0.410600	0.665100	0.768900
H191	H19	0.184800	0.915900	0.778200
H201	H20	0.249700	0.422500	0.016600
H211	H21	0.939400	0.749100	0.060800
H221	H22	0.884600	0.113000	0.564700
H231	H23	0.104600	0.135600	0.732800
H241	H24	0.274400	0.491800	0.847700
C11	C1	0.871600	0.334300	0.145600
C21	C2	0.516100	0.358500	0.491400
C31	C3	0.924000	0.113500	0.298700
C41	C4	0.679000	0.325000	0.337900
C51	C5	0.015100	0.055100	0.360400
C61	C6	0.651900	0.332400	0.435300
C71	C7	0.406000	0.379000	0.450000
C81	C8	0.972400	0.257000	0.082700
C91	C9	0.433600	0.371100	0.352800
C101	C10	0.570300	0.342500	0.296800
C111	C11	0.877400	0.043700	0.264200
C121	C12	0.907300	0.420200	0.945700
C131	C13	0.929800	0.462800	0.837400
C141	C14	0.807400	0.496800	0.008500
C151	C15	0.990500	0.301900	0.982600
C161	C16	0.008600	0.856300	0.358500
C171	C17	0.055400	0.926900	0.391400
C181	C18	0.922900	0.913300	0.292700
C191	C19	0.044900	0.717600	0.397800
C201	C20	0.260600	0.412700	0.511000
C211	C21	0.791200	0.454800	0.109000
C221	C22	0.128400	0.665700	0.854400
C231	C23	0.483900	0.641500	0.508600
C241	C24	0.076000	0.886500	0.701300
C251	C25	0.321000	0.675000	0.662100
C261	C26	0.984900	0.944900	0.639600
C271	C27	0.348100	0.667600	0.564700
C281	C28	0.594000	0.621000	0.550000
C291	C29	0.027600	0.743000	0.917300
C301	C30	0.566400	0.628900	0.647200
C311	C31	0.429700	0.657500	0.703200
C321	C32	0.122600	0.956300	0.735800
C331	C33	0.092700	0.579800	0.054300
C341	C34	0.070200	0.537200	0.162600
C351	C35	0.192600	0.503200	0.991500
C361	C36	0.009500	0.698100	0.017400
C371	C37	0.991400	0.143700	0.641500
C381	C38	0.944600	0.073100	0.608600
C391	C39	0.077100	0.086700	0.707300
C401	C40	0.955100	0.282400	0.602200
C411	C41	0.739400	0.587300	0.489000
C421	C42	0.208800	0.545200	0.891000
O11	O1	0.048900	0.418700	0.785400
O21	O2	0.238700	0.433900	0.594700
O31	O3	0.072400	0.679900	0.480700
O41	O4	0.826600	0.540400	0.800300
O51	O5	0.042500	0.651500	0.346200
O61	O6	0.159400	0.422900	0.477500
O71	O7	0.939100	0.329700	0.311100
O81	O8	0.951100	0.581300	0.214600
O91	O9	0.761300	0.566100	0.405300
O101	O10	0.927600	0.320100	0.519300
O111	O11	0.173400	0.459600	0.199700
O121	O12	0.957500	0.348500	0.653800
O131	O13	0.840600	0.577100	0.522500
O141	O14	0.060900	0.670300	0.688900
